PCCDB-ID:  68602
public computational chemistry database (PCCDB) project, http://pccdb.org

 31 32  0  0  1  0  0  0  0  0999 V2000
    0.9261    1.5555   -0.1381 C   0  0  0  0  0  0  0  0  0  0  0  0
    1.0464   -1.2996    0.3246 C   0  0  0  0  0  0  0  0  0  0  0  0
    3.8874   -3.3949   -0.6435 C   0  0  0  0  0  0  0  0  0  0  0  0
    4.6858    1.0328    0.0874 C   0  0  0  0  0  0  0  0  0  0  0  0
    3.4364    1.6318   -0.0575 C   0  0  0  0  0  0  0  0  0  0  0  0
    4.7657   -0.3323    0.3374 C   0  0  0  0  0  0  0  0  0  0  0  0
    6.0205   -3.7873    1.4837 C   0  0  0  0  0  0  0  0  0  0  0  0
    6.1768   -2.9363    3.4379 C   0  0  0  0  0  0  0  0  0  0  0  0
    2.2655    0.8747    0.0310 C   0  0  0  0  0  0  0  0  0  0  0  0
    2.3440   -0.5177    0.2731 C   0  0  0  0  0  0  0  0  0  0  0  0
    3.7734   -2.6288    0.6902 C   0  0  2  0  0  0  0  0  0  0  0  0
    3.6097   -1.1212    0.4426 C   0  0  0  0  0  0  0  0  0  0  0  0
    4.9310   -2.9537    1.5971 C   0  0  0  0  0  0  0  0  0  0  0  0
    6.7885   -3.7727    2.6304 N   0  0  0  0  0  0  0  0  0  0  0  0
    5.0456   -2.4191    2.8703 N   0  0  0  0  0  0  0  0  0  0  0  0
    1.0520    2.6299   -0.3018 H   0  0  0  0  0  0  0  0  0  0  0  0
    0.2853    1.4262    0.7438 H   0  0  0  0  0  0  0  0  0  0  0  0
    0.3666    1.1534   -0.9929 H   0  0  0  0  0  0  0  0  0  0  0  0
    0.3999   -0.9523    1.1416 H   0  0  0  0  0  0  0  0  0  0  0  0
    1.1918   -2.3720    0.4572 H   0  0  0  0  0  0  0  0  0  0  0  0
    0.4727   -1.1667   -0.6012 H   0  0  0  0  0  0  0  0  0  0  0  0
    3.0164   -3.1923   -1.2742 H   0  0  0  0  0  0  0  0  0  0  0  0
    3.9471   -4.4751   -0.4715 H   0  0  0  0  0  0  0  0  0  0  0  0
    4.7804   -3.0820   -1.1947 H   0  0  0  0  0  0  0  0  0  0  0  0
    5.5920    1.6278    0.0098 H   0  0  0  0  0  0  0  0  0  0  0  0
    3.3645    2.7007   -0.2445 H   0  0  0  0  0  0  0  0  0  0  0  0
    5.7369   -0.8037    0.4593 H   0  0  0  0  0  0  0  0  0  0  0  0
    6.2942   -4.4071    0.6409 H   0  0  0  0  0  0  0  0  0  0  0  0
    6.4976   -2.6678    4.4360 H   0  0  0  0  0  0  0  0  0  0  0  0
    2.8701   -2.9935    1.1952 H   0  0  0  0  0  0  0  0  0  0  0  0
    4.4448   -1.7075    3.2619 H   0  0  0  0  0  0  0  0  0  0  0  0
  1  9  1  0  0  0  0
  1 17  1  0  0  0  0
  2 20  1  0  0  0  0
  2 19  1  0  0  0  0
  3 23  1  0  0  0  0
  3 11  1  0  0  0  0
  4  6  2  0  0  0  0
  5  9  2  0  0  0  0
  5  4  1  0  0  0  0
  6 12  1  0  0  0  0
  6 27  1  0  0  0  0
  7 13  2  0  0  0  0
  7 14  1  0  0  0  0
  8 29  1  0  0  0  0
  9 10  1  0  0  0  0
 10  2  1  0  0  0  0
 10 12  2  0  0  0  0
 11 30  1  1  0  0  0
 11 13  1  0  0  0  0
 12 11  1  0  0  0  0
 13 15  1  0  0  0  0
 14  8  2  0  0  0  0
 15 31  1  0  0  0  0
 15  8  1  0  0  0  0
 16  1  1  0  0  0  0
 18  1  1  0  0  0  0
 21  2  1  0  0  0  0
 22  3  1  0  0  0  0
 24  3  1  0  0  0  0
 25  4  1  0  0  0  0
 26  5  1  0  0  0  0
 28  7  1  0  0  0  0
M  END
>  <HBA>
1

>  <HBD>
1

>  <TPSA>
28.68

>  <cid>
68602

>  <dipole>
4.22

>  <excitation_energy_1>
5.056

>  <excitation_energy_2>
5.068

>  <excitation_energy_3>
5.234

>  <excitation_energy_4>
5.271

>  <homo_energy>
-5.831

>  <homo_lumo_gap>
5.812

>  <logP>
3.178

>  <lumo_energy>
-0.019

>  <melting_point>
109.34

>  <molecular_refractivity>
62.78

>  <oscillator_strength_1>
0.0032

>  <oscillator_strength_2>
0.0098

>  <oscillator_strength_3>
0.0018

>  <oscillator_strength_4>
0.0042

>  <open_babel_can_smiles>
Cc1cccc(c1C)[C@H](c1cnc[nH]1)C

>  <mulliken_charges>
31
1   -0.532258
2   -0.539185
3   -0.444373
4   -0.130267
5   -0.184026
6   -0.191106
7   -0.09065
8   0.206968
9   0.13247
10   0.062355
11   -0.235851
12   0.089753
13   0.320265
14   -0.431425
15   -0.601806
16   0.155661
17   0.157336
18   0.159708
19   0.158543
20   0.160102
21   0.163091
22   0.1507
23   0.154258
24   0.158999
25   0.128516
26   0.12056
27   0.143765
28   0.129463
29   0.151285
30   0.144917
31   0.332233

>  <lowdin_charges>
31
1   -0.441018
2   -0.447625
3   -0.435356
4   -0.160904
5   -0.167362
6   -0.172149
7   -0.178603
8   -0.09359
9   -0.007477
10   -0.021491
11   -0.12467
12   -0.022833
13   -0.013455
14   -0.189584
15   -0.186702
16   0.155751
17   0.157481
18   0.158868
19   0.159287
20   0.156591
21   0.161253
22   0.1554
23   0.152899
24   0.157453
25   0.158022
26   0.151729
27   0.164839
28   0.16081
29   0.163733
30   0.153896
31   0.294805

$$$$

