PCCDB-ID:  29540
public computational chemistry database (PCCDB) project, http://pccdb.org

 26 27  0  0  0  0  0  0  0  0999 V2000
    1.0589    0.5786   -0.2611 C   0  0  0  0  0  0  0  0  0  0  0  0
    7.6139    0.9276   -0.7577 C   0  0  0  0  0  0  0  0  0  0  0  0
    6.8449   -0.2043   -0.4806 C   0  0  0  0  0  0  0  0  0  0  0  0
    6.9778    2.1213   -1.0989 C   0  0  0  0  0  0  0  0  0  0  0  0
    1.7889    3.4950   -3.3468 C   0  0  0  0  0  0  0  0  0  0  0  0
    5.4535   -0.1527   -0.5437 C   0  0  0  0  0  0  0  0  0  0  0  0
    5.5859    2.1858   -1.1556 C   0  0  0  0  0  0  0  0  0  0  0  0
    2.2348    3.0778   -2.0567 C   0  0  0  0  0  0  0  0  0  0  0  0
    2.0681    2.5824   -4.3262 C   0  0  0  0  0  0  0  0  0  0  0  0
    2.5579    0.5222   -0.0149 C   0  0  0  0  0  0  0  0  0  0  0  0
    4.8183    1.0493   -0.8790 C   0  0  0  0  0  0  0  0  0  0  0  0
    2.8382    1.8472   -2.0672 C   0  0  0  0  0  0  0  0  0  0  0  0
    3.3816    1.1267   -0.9823 N   0  0  0  0  0  0  0  0  0  0  0  0
    3.0252   -0.0236    0.9689 O   0  0  0  0  0  0  0  0  0  0  0  0
    2.8690    1.1796   -3.6969 S   0  0  0  0  0  0  0  0  0  0  0  0
    0.6663    1.5861   -0.0914 H   0  0  0  0  0  0  0  0  0  0  0  0
    0.5916   -0.1056    0.4486 H   0  0  0  0  0  0  0  0  0  0  0  0
    0.7958    0.2935   -1.2840 H   0  0  0  0  0  0  0  0  0  0  0  0
    8.6982    0.8785   -0.7097 H   0  0  0  0  0  0  0  0  0  0  0  0
    7.3291   -1.1411   -0.2182 H   0  0  0  0  0  0  0  0  0  0  0  0
    7.5626    3.0105   -1.3181 H   0  0  0  0  0  0  0  0  0  0  0  0
    1.2944    4.4414   -3.5353 H   0  0  0  0  0  0  0  0  0  0  0  0
    4.8634   -1.0326   -0.3225 H   0  0  0  0  0  0  0  0  0  0  0  0
    5.0919    3.1149   -1.4208 H   0  0  0  0  0  0  0  0  0  0  0  0
    2.1227    3.6651   -1.1516 H   0  0  0  0  0  0  0  0  0  0  0  0
    1.8602    2.6569   -5.3854 H   0  0  0  0  0  0  0  0  0  0  0  0
  1 16  1  0  0  0  0
  1 10  1  0  0  0  0
  1 17  1  0  0  0  0
  2 19  1  0  0  0  0
  2  3  2  0  0  0  0
  3 20  1  0  0  0  0
  4  2  1  0  0  0  0
  5  8  1  0  0  0  0
  6  3  1  0  0  0  0
  6 23  1  0  0  0  0
  7  4  2  0  0  0  0
  7 11  1  0  0  0  0
  8 25  1  0  0  0  0
  9 15  1  0  0  0  0
  9  5  2  0  0  0  0
 10 14  2  0  0  0  0
 11  6  2  0  0  0  0
 12  8  2  0  0  0  0
 12 13  1  0  0  0  0
 13 11  1  0  0  0  0
 13 10  1  0  0  0  0
 15 12  1  0  0  0  0
 18  1  1  0  0  0  0
 21  4  1  0  0  0  0
 22  5  1  0  0  0  0
 24  7  1  0  0  0  0
 26  9  1  0  0  0  0
M  END
>  <HBA>
2

>  <HBD>
0

>  <TPSA>
48.55

>  <cid>
29540

>  <dipole>
3.44

>  <excitation_energy_1>
4.352

>  <excitation_energy_2>
4.889

>  <excitation_energy_3>
4.918

>  <excitation_energy_4>
5.06

>  <homo_energy>
-5.943

>  <homo_lumo_gap>
5.151

>  <logP>
3.433

>  <lumo_energy>
-0.792

>  <melting_point>
67.21

>  <molecular_refractivity>
63.77

>  <oscillator_strength_1>
0.0703

>  <oscillator_strength_2>
0.0819

>  <oscillator_strength_3>
0.0024

>  <oscillator_strength_4>
0.0246

>  <open_babel_can_smiles>
CC(=O)N(c1cccs1)c1ccccc1

>  <mulliken_charges>
26
1   -0.539553
2   -0.121509
3   -0.147381
4   -0.14107
5   -0.108893
6   -0.124109
7   -0.149615
8   -0.093518
9   -0.333829
10   0.568385
11   0.282914
12   -0.013786
13   -0.572717
14   -0.474523
15   0.265544
16   0.177056
17   0.184791
18   0.179949
19   0.129283
20   0.133581
21   0.1312
22   0.147671
23   0.153903
24   0.139234
25   0.149908
26   0.177085

>  <lowdin_charges>
26
1   -0.470986
2   -0.157215
3   -0.152482
4   -0.154277
5   -0.180083
6   -0.154827
7   -0.170151
8   -0.191918
9   -0.310694
10   0.175962
11   0.055703
12   -0.112644
13   -0.080693
14   -0.274418
15   0.313647
16   0.173731
17   0.178458
18   0.173155
19   0.156264
20   0.160246
21   0.159383
22   0.168589
23   0.174558
24   0.166072
25   0.171221
26   0.183401

$$$$

