PCCDB-ID:  25153
public computational chemistry database (PCCDB) project, http://pccdb.org

 32 32  0  0  0  0  0  0  0  0999 V2000
    4.7337   -2.7830   -1.5953 C   0  0  0  0  0  0  0  0  0  0  0  0
    4.3411   -1.4615   -0.9263 C   0  0  0  0  0  0  0  0  0  0  0  0
    4.8664   -1.3309    0.5086 C   0  0  0  0  0  0  0  0  0  0  0  0
    7.6643    2.0745    4.6015 C   0  0  0  0  0  0  0  0  0  0  0  0
    4.4735   -0.0111    1.1819 C   0  0  0  0  0  0  0  0  0  0  0  0
    7.0257    0.7485    5.0448 C   0  0  0  0  0  0  0  0  0  0  0  0
    7.0493    2.5570    3.2785 C   0  0  0  0  0  0  0  0  0  0  0  0
    5.0364    0.1554    2.6024 C   0  0  0  0  0  0  0  0  0  0  0  0
    7.0910   -0.2832    3.9019 C   0  0  0  0  0  0  0  0  0  0  0  0
    7.1079    1.4423    2.2151 C   0  0  0  0  0  0  0  0  0  0  0  0
    6.5028    0.1735    2.6391 N   0  0  0  0  0  0  0  0  0  0  0  0
    4.3460   -2.8460   -2.6188 H   0  0  0  0  0  0  0  0  0  0  0  0
    4.3408   -3.6417   -1.0369 H   0  0  0  0  0  0  0  0  0  0  0  0
    5.8240   -2.8931   -1.6440 H   0  0  0  0  0  0  0  0  0  0  0  0
    3.2456   -1.3642   -0.9256 H   0  0  0  0  0  0  0  0  0  0  0  0
    4.7191   -0.6219   -1.5273 H   0  0  0  0  0  0  0  0  0  0  0  0
    5.9599   -1.4190    0.5154 H   0  0  0  0  0  0  0  0  0  0  0  0
    4.4875   -2.1709    1.1111 H   0  0  0  0  0  0  0  0  0  0  0  0
    8.7451    1.9209    4.4600 H   0  0  0  0  0  0  0  0  0  0  0  0
    7.5573    2.8388    5.3816 H   0  0  0  0  0  0  0  0  0  0  0  0
    3.3781    0.0651    1.2432 H   0  0  0  0  0  0  0  0  0  0  0  0
    4.7956    0.8303    0.5521 H   0  0  0  0  0  0  0  0  0  0  0  0
    5.9778    0.9181    5.3298 H   0  0  0  0  0  0  0  0  0  0  0  0
    7.5347    0.3515    5.9332 H   0  0  0  0  0  0  0  0  0  0  0  0
    7.5750    3.4470    2.9081 H   0  0  0  0  0  0  0  0  0  0  0  0
    6.0057    2.8571    3.4459 H   0  0  0  0  0  0  0  0  0  0  0  0
    4.7073   -0.6993    3.2073 H   0  0  0  0  0  0  0  0  0  0  0  0
    4.5805    1.0507    3.0640 H   0  0  0  0  0  0  0  0  0  0  0  0
    6.6015   -1.2197    4.1931 H   0  0  0  0  0  0  0  0  0  0  0  0
    8.1474   -0.5240    3.7063 H   0  0  0  0  0  0  0  0  0  0  0  0
    8.1616    1.2411    1.9701 H   0  0  0  0  0  0  0  0  0  0  0  0
    6.6295    1.7710    1.2864 H   0  0  0  0  0  0  0  0  0  0  0  0
  1 13  1  0  0  0  0
  1  2  1  0  0  0  0
  2 15  1  0  0  0  0
  2  3  1  0  0  0  0
  3 17  1  0  0  0  0
  3 18  1  0  0  0  0
  3  5  1  0  0  0  0
  4  6  1  0  0  0  0
  4 20  1  0  0  0  0
  5 21  1  0  0  0  0
  5  8  1  0  0  0  0
  6 23  1  0  0  0  0
  6 24  1  0  0  0  0
  7 26  1  0  0  0  0
  7  4  1  0  0  0  0
  8 11  1  0  0  0  0
  8 28  1  0  0  0  0
  8 27  1  0  0  0  0
  9 29  1  0  0  0  0
  9  6  1  0  0  0  0
 10 11  1  0  0  0  0
 10  7  1  0  0  0  0
 11  9  1  0  0  0  0
 12  1  1  0  0  0  0
 14  1  1  0  0  0  0
 16  2  1  0  0  0  0
 19  4  1  0  0  0  0
 22  5  1  0  0  0  0
 25  7  1  0  0  0  0
 30  9  1  0  0  0  0
 31 10  1  0  0  0  0
 32 10  1  0  0  0  0
M  END
>  <HBA>
1

>  <HBD>
0

>  <TPSA>
3.24

>  <cid>
25153

>  <dipole>
0.85

>  <excitation_energy_1>
4.773

>  <excitation_energy_2>
5.121

>  <excitation_energy_3>
5.202

>  <excitation_energy_4>
5.37

>  <homo_energy>
-5.279

>  <homo_lumo_gap>
7.434

>  <logP>
2.6

>  <lumo_energy>
2.155

>  <melting_point>
-4.0

>  <molecular_refractivity>
54.88

>  <oscillator_strength_1>
0.0195

>  <oscillator_strength_2>
0.0036

>  <oscillator_strength_3>
0.0083

>  <oscillator_strength_4>
0.001

>  <open_babel_can_smiles>
CCCCCN1CCCCC1

>  <mulliken_charges>
32
1   -0.440683
2   -0.246452
3   -0.23898
4   -0.257227
5   -0.261688
6   -0.263778
7   -0.265767
8   -0.127167
9   -0.140423
10   -0.145579
11   -0.368175
12   0.138756
13   0.13959
14   0.141578
15   0.125863
16   0.127373
17   0.148647
18   0.118279
19   0.12651
20   0.131379
21   0.124153
22   0.129954
23   0.132675
24   0.128185
25   0.128819
26   0.133938
27   0.129953
28   0.113935
29   0.1345
30   0.130852
31   0.132865
32   0.138112

>  <lowdin_charges>
32
1   -0.442181
2   -0.270749
3   -0.275837
4   -0.277393
5   -0.279675
6   -0.294693
7   -0.294159
8   -0.202556
9   -0.203229
10   -0.205929
11   -0.188942
12   0.146626
13   0.145998
14   0.144414
15   0.13393
16   0.13801
17   0.146128
18   0.134929
19   0.134563
20   0.14359
21   0.137758
22   0.138719
23   0.138191
24   0.144505
25   0.144975
26   0.138378
27   0.142631
28   0.120191
29   0.143366
30   0.135617
31   0.137565
32   0.145259

$$$$

