PCCDB-ID:  8035
public computational chemistry database (PCCDB) project, http://pccdb.org

 18 17  0  0  0  0  0  0  0  0999 V2000
    3.0419   -1.5934   -0.5411 C   0  0  0  0  0  0  0  0  0  0  0  0
    0.1390    0.8694    3.7190 C   0  0  0  0  0  0  0  0  0  0  0  0
    2.8372    0.5553    0.8902 C   0  0  0  0  0  0  0  0  0  0  0  0
    1.8256    1.2566    1.7903 C   0  0  0  0  0  0  0  0  0  0  0  0
    2.1717   -0.4590   -0.0406 C   0  0  0  0  0  0  0  0  0  0  0  0
    1.2429    0.3134    2.8391 C   0  0  0  0  0  0  0  0  0  0  0  0
    1.0044   -0.3465   -0.3660 O   0  0  0  0  0  0  0  0  0  0  0  0
    1.6431   -0.8305    2.9569 O   0  0  0  0  0  0  0  0  0  0  0  0
    4.0178   -1.2281   -0.8833 H   0  0  0  0  0  0  0  0  0  0  0  0
    2.5367   -2.1298   -1.3469 H   0  0  0  0  0  0  0  0  0  0  0  0
    3.2290   -2.2834    0.2918 H   0  0  0  0  0  0  0  0  0  0  0  0
   -0.7518    1.0682    3.1095 H   0  0  0  0  0  0  0  0  0  0  0  0
    0.4361    1.8229    4.1721 H   0  0  0  0  0  0  0  0  0  0  0  0
   -0.1131    0.1489    4.4996 H   0  0  0  0  0  0  0  0  0  0  0  0
    3.6106    0.0578    1.4841 H   0  0  0  0  0  0  0  0  0  0  0  0
    3.3507    1.2900    0.2525 H   0  0  0  0  0  0  0  0  0  0  0  0
    1.0007    1.6578    1.1893 H   0  0  0  0  0  0  0  0  0  0  0  0
    2.2801    2.1126    2.3084 H   0  0  0  0  0  0  0  0  0  0  0  0
  1  5  1  0  0  0  0
  1 11  1  0  0  0  0
  2 13  1  0  0  0  0
  2 14  1  0  0  0  0
  3 15  1  0  0  0  0
  3  4  1  0  0  0  0
  4 18  1  0  0  0  0
  4  6  1  0  0  0  0
  5  3  1  0  0  0  0
  6  8  2  0  0  0  0
  6  2  1  0  0  0  0
  7  5  2  0  0  0  0
  9  1  1  0  0  0  0
 10  1  1  0  0  0  0
 12  2  1  0  0  0  0
 16  3  1  0  0  0  0
 17  4  1  0  0  0  0
M  END
>  <HBA>
2

>  <HBD>
0

>  <TPSA>
34.14

>  <cid>
8035

>  <dipole>
2.79

>  <excitation_energy_1>
4.504

>  <excitation_energy_2>
4.512

>  <excitation_energy_3>
5.377

>  <excitation_energy_4>
5.637

>  <homo_energy>
-6.621

>  <homo_lumo_gap>
6.256

>  <logP>
0.945

>  <lumo_energy>
-0.365

>  <melting_point>
16.22

>  <molecular_refractivity>
31.36

>  <oscillator_strength_1>
0.0

>  <oscillator_strength_2>
0.0

>  <oscillator_strength_3>
0.0006

>  <oscillator_strength_4>
0.0136

>  <open_babel_can_smiles>
CC(=O)CCC(=O)C

>  <mulliken_charges>
18
1   -0.534611
2   -0.531188
3   -0.350727
4   -0.35603
5   0.476666
6   0.469049
7   -0.450941
8   -0.445153
9   0.159396
10   0.176897
11   0.190173
12   0.181007
13   0.163263
14   0.180448
15   0.167631
16   0.161834
17   0.184802
18   0.157483

>  <lowdin_charges>
18
1   -0.474632
2   -0.475067
3   -0.311468
4   -0.31311
5   0.173222
6   0.173502
7   -0.24477
8   -0.240988
9   0.163938
10   0.172582
11   0.182571
12   0.177388
13   0.166554
14   0.174375
15   0.166425
16   0.168574
17   0.176704
18   0.1642

$$$$

