PCCDB-ID:  15285
public computational chemistry database (PCCDB) project, http://pccdb.org

 19 19  0  0  0  0  0  0  0  0999 V2000
    1.1709   -1.0630    0.4191 C   0  0  0  0  0  0  0  0  0  0  0  0
    4.5319   -1.5052    1.7768 C   0  0  0  0  0  0  0  0  0  0  0  0
    5.4089   -2.5042    2.1601 C   0  0  0  0  0  0  0  0  0  0  0  0
    2.9002   -3.1689    1.1741 C   0  0  0  0  0  0  0  0  0  0  0  0
    3.2596   -1.8310    1.2771 C   0  0  0  0  0  0  0  0  0  0  0  0
    3.7943   -4.1774    1.5644 C   0  0  0  0  0  0  0  0  0  0  0  0
    5.0711   -3.8673    2.0674 C   0  0  0  0  0  0  0  0  0  0  0  0
    3.3223   -5.5593    1.4166 N   0  0  0  0  0  0  0  0  0  0  0  0
    5.9446   -4.8297    2.4519 O   0  0  0  0  0  0  0  0  0  0  0  0
    2.1802   -5.7233    0.9736 O   0  0  0  0  0  0  0  0  0  0  0  0
    4.0753   -6.4753    1.7359 O   0  0  0  0  0  0  0  0  0  0  0  0
    2.4675   -0.7788    0.9269 O   0  0  0  0  0  0  0  0  0  0  0  0
    0.7148   -0.0946    0.2077 H   0  0  0  0  0  0  0  0  0  0  0  0
    0.5605   -1.6008    1.1561 H   0  0  0  0  0  0  0  0  0  0  0  0
    1.2224   -1.6520   -0.5058 H   0  0  0  0  0  0  0  0  0  0  0  0
    4.8107   -0.4593    1.8555 H   0  0  0  0  0  0  0  0  0  0  0  0
    6.3909   -2.2366    2.5454 H   0  0  0  0  0  0  0  0  0  0  0  0
    1.9378   -3.4860    0.7989 H   0  0  0  0  0  0  0  0  0  0  0  0
    6.7538   -4.3941    2.7661 H   0  0  0  0  0  0  0  0  0  0  0  0
  1 12  1  0  0  0  0
  1 14  1  0  0  0  0
  2 16  1  0  0  0  0
  2  3  2  0  0  0  0
  3 17  1  0  0  0  0
  4  5  2  0  0  0  0
  4  6  1  0  0  0  0
  5  2  1  0  0  0  0
  6  7  2  0  0  0  0
  7  3  1  0  0  0  0
  7  9  1  0  0  0  0
  8  6  1  0  0  0  0
  8 11  2  0  0  0  0
  9 19  1  0  0  0  0
 10  8  2  0  0  0  0
 12  5  1  0  0  0  0
 13  1  1  0  0  0  0
 15  1  1  0  0  0  0
 18  4  1  0  0  0  0
M  END
>  <HBA>
2

>  <HBD>
1

>  <TPSA>
75.28

>  <cid>
15285

>  <dipole>
5.13

>  <excitation_energy_1>
3.368

>  <excitation_energy_2>
3.645

>  <excitation_energy_3>
4.273

>  <excitation_energy_4>
4.803

>  <homo_energy>
-6.139

>  <homo_lumo_gap>
3.987

>  <logP>
1.832

>  <lumo_energy>
-2.152

>  <melting_point>
89.19

>  <molecular_refractivity>
43.78

>  <oscillator_strength_1>
0.0728

>  <oscillator_strength_2>
0.0

>  <oscillator_strength_3>
0.0003

>  <oscillator_strength_4>
0.1062

>  <open_babel_can_smiles>
COc1ccc(c(c1)N(=O)=O)O

>  <mulliken_charges>
19
1   -0.220758
2   -0.151073
3   -0.204025
4   -0.252663
5   0.384425
6   0.266337
7   0.322294
8   0.370699
9   -0.600724
10   -0.412286
11   -0.380194
12   -0.513033
13   0.175279
14   0.160274
15   0.16026
16   0.156886
17   0.136278
18   0.188369
19   0.413653

>  <lowdin_charges>
19
1   -0.278023
2   -0.143122
3   -0.195955
4   -0.190843
5   0.087607
6   -0.020395
7   0.103921
8   0.308448
9   -0.337083
10   -0.266659
11   -0.230883
12   -0.197385
13   0.166224
14   0.151422
15   0.14977
16   0.175313
17   0.162161
18   0.193476
19   0.362005

$$$$

