PCCDB-ID:  6405
public computational chemistry database (PCCDB) project, http://pccdb.org

 18 17  0  0  0  0  0  0  0  0999 V2000
    2.8276   -0.7712   -1.3304 C   0  0  0  0  0  0  0  0  0  0  0  0
    2.5855    0.2620    2.4476 C   0  0  0  0  0  0  0  0  0  0  0  0
    2.5723   -2.0697    1.4843 C   0  0  0  0  0  0  0  0  0  0  0  0
    2.4289   -0.0300   -0.0501 C   0  0  0  0  0  0  0  0  0  0  0  0
    3.0045   -0.6126    1.2555 C   0  0  0  0  0  0  0  0  0  0  0  0
    4.4340   -0.5506    1.0995 O   0  0  0  0  0  0  0  0  0  0  0  0
    2.4565   -0.2369   -2.2123 H   0  0  0  0  0  0  0  0  0  0  0  0
    2.4133   -1.7851   -1.3652 H   0  0  0  0  0  0  0  0  0  0  0  0
    3.9160   -0.8461   -1.4082 H   0  0  0  0  0  0  0  0  0  0  0  0
    1.4973    0.2667    2.5809 H   0  0  0  0  0  0  0  0  0  0  0  0
    2.9221    1.2933    2.2992 H   0  0  0  0  0  0  0  0  0  0  0  0
    3.0315   -0.1115    3.3790 H   0  0  0  0  0  0  0  0  0  0  0  0
    1.4808   -2.1610    1.5336 H   0  0  0  0  0  0  0  0  0  0  0  0
    2.9777   -2.4461    2.4330 H   0  0  0  0  0  0  0  0  0  0  0  0
    2.9385   -2.7169    0.6823 H   0  0  0  0  0  0  0  0  0  0  0  0
    1.3350    0.0041    0.0413 H   0  0  0  0  0  0  0  0  0  0  0  0
    2.7705    1.0109   -0.1185 H   0  0  0  0  0  0  0  0  0  0  0  0
    4.8293   -0.9341    1.8986 H   0  0  0  0  0  0  0  0  0  0  0  0
  1  4  1  0  0  0  0
  2 10  1  0  0  0  0
  2 12  1  0  0  0  0
  3 13  1  0  0  0  0
  3 14  1  0  0  0  0
  4 16  1  0  0  0  0
  4  5  1  0  0  0  0
  5  3  1  0  0  0  0
  5  2  1  0  0  0  0
  6  5  1  0  0  0  0
  6 18  1  0  0  0  0
  7  1  1  0  0  0  0
  8  1  1  0  0  0  0
  9  1  1  0  0  0  0
 11  2  1  0  0  0  0
 15  3  1  0  0  0  0
 17  4  1  0  0  0  0
M  END
>  <HBA>
1

>  <HBD>
1

>  <TPSA>
20.23

>  <cid>
6405

>  <dipole>
1.46

>  <excitation_energy_1>
6.425

>  <excitation_energy_2>
7.321

>  <excitation_energy_3>
7.44

>  <excitation_energy_4>
7.579

>  <homo_energy>
-7.051

>  <homo_lumo_gap>
8.827

>  <logP>
1.167

>  <lumo_energy>
1.777

>  <melting_point>
3.74

>  <molecular_refractivity>
27.35

>  <oscillator_strength_1>
0.022

>  <oscillator_strength_2>
0.0048

>  <oscillator_strength_3>
0.0086

>  <oscillator_strength_4>
0.0025

>  <open_babel_can_smiles>
CCC(O)(C)C

>  <mulliken_charges>
18
1   -0.453446
2   -0.452284
3   -0.461982
4   -0.245382
5   0.310131
6   -0.637083
7   0.137742
8   0.138291
9   0.169261
10   0.139588
11   0.153333
12   0.12682
13   0.14122
14   0.127666
15   0.159306
16   0.125444
17   0.139214
18   0.382162

>  <lowdin_charges>
18
1   -0.446011
2   -0.45312
3   -0.45909
4   -0.272301
5   0.12507
6   -0.46821
7   0.149349
8   0.143606
9   0.158608
10   0.14878
11   0.1545
12   0.142615
13   0.150013
14   0.143144
15   0.158486
16   0.13936
17   0.146818
18   0.338384

$$$$

