PCCDB-ID:  68424
public computational chemistry database (PCCDB) project, http://pccdb.org

 15 14  0  0  0  0  0  0  0  0999 V2000
    0.9145    0.1989    0.0236 C   0  0  0  0  0  0  0  0  0  0  0  0
    3.1300    1.1484   -0.8012 C   0  0  0  0  0  0  0  0  0  0  0  0
    2.4502    0.1151    0.1176 C   0  0  0  0  0  0  0  0  0  0  0  0
    2.9317    0.2449    1.5618 C   0  0  0  0  0  0  0  0  0  0  0  0
    3.5531   -0.6199    2.2531 N   0  0  0  0  0  0  0  0  0  0  0  0
    2.6539    1.4356    2.1705 O   0  0  0  0  0  0  0  0  0  0  0  0
    0.5867    0.0239   -1.0069 H   0  0  0  0  0  0  0  0  0  0  0  0
    0.5380    1.1862    0.3208 H   0  0  0  0  0  0  0  0  0  0  0  0
    0.4361   -0.5464    0.6673 H   0  0  0  0  0  0  0  0  0  0  0  0
    2.8333    0.9840   -1.8429 H   0  0  0  0  0  0  0  0  0  0  0  0
    4.2208    1.0778   -0.7398 H   0  0  0  0  0  0  0  0  0  0  0  0
    2.8479    2.1773   -0.5423 H   0  0  0  0  0  0  0  0  0  0  0  0
    2.7531   -0.8839   -0.2184 H   0  0  0  0  0  0  0  0  0  0  0  0
    3.7027   -1.4628    1.6966 H   0  0  0  0  0  0  0  0  0  0  0  0
    2.1825    2.0136    1.5522 H   0  0  0  0  0  0  0  0  0  0  0  0
  1  3  1  0  0  0  0
  1  8  1  0  0  0  0
  1  9  1  0  0  0  0
  2 11  1  0  0  0  0
  2 12  1  0  0  0  0
  2  3  1  0  0  0  0
  3  4  1  0  0  0  0
  4  6  1  0  0  0  0
  4  5  2  0  0  0  0
  7  1  1  0  0  0  0
 10  2  1  0  0  0  0
 13  3  1  0  0  0  0
 14  5  1  0  0  0  0
 15  6  1  0  0  0  0
M  END
>  <HBA>
2

>  <HBD>
1

>  <TPSA>
43.09

>  <cid>
68424

>  <dipole>
4.39

>  <excitation_energy_1>
6.175

>  <excitation_energy_2>
6.227

>  <excitation_energy_3>
6.305

>  <excitation_energy_4>
6.857

>  <homo_energy>
-6.963

>  <homo_lumo_gap>
7.812

>  <logP>
0.828

>  <lumo_energy>
0.849

>  <melting_point>
50.4

>  <molecular_refractivity>
24.25

>  <oscillator_strength_1>
0.0007

>  <oscillator_strength_2>
0.0075

>  <oscillator_strength_3>
0.0011

>  <oscillator_strength_4>
0.0046

>  <open_babel_can_smiles>
CC(C(=N)O)C

>  <mulliken_charges>
15
1   -0.447277
2   -0.448179
3   -0.177715
4   0.492273
5   -0.587815
6   -0.58089
7   0.156685
8   0.135404
9   0.168396
10   0.156924
11   0.168588
12   0.135191
13   0.1411
14   0.280533
15   0.406781

>  <lowdin_charges>
15
1   -0.444213
2   -0.44024
3   -0.155346
4   0.125052
5   -0.399219
6   -0.367684
7   0.156268
8   0.143312
9   0.163374
10   0.156146
11   0.160229
12   0.142559
13   0.151593
14   0.25486
15   0.353309

$$$$

