PCCDB-ID:  25032
public computational chemistry database (PCCDB) project, http://pccdb.org

 22 23  0  0  0  0  0  0  0  0999 V2000
   -2.4680   -0.6534    0.1337 C   0  0  0  0  0  0  0  0  0  0  0  0
   -2.4150    0.7353   -0.0291 C   0  0  0  0  0  0  0  0  0  0  0  0
   -1.2868   -1.3900    0.1417 C   0  0  0  0  0  0  0  0  0  0  0  0
   -1.1910    1.3901   -0.1690 C   0  0  0  0  0  0  0  0  0  0  0  0
    1.2206   -1.4679   -0.0726 C   0  0  0  0  0  0  0  0  0  0  0  0
    2.3438    0.6917    0.2261 C   0  0  0  0  0  0  0  0  0  0  0  0
   -0.0430   -0.7551    0.0055 C   0  0  0  0  0  0  0  0  0  0  0  0
    2.3938   -0.8012   -0.0255 C   0  0  0  0  0  0  0  0  0  0  0  0
   -0.0116    0.6482   -0.1375 C   0  0  0  0  0  0  0  0  0  0  0  0
    3.7147   -1.4699   -0.0874 C   0  0  0  0  0  0  0  0  0  0  0  0
    4.8098   -1.0480    0.4122 N   0  0  0  0  0  0  0  0  0  0  0  0
    3.7482   -2.6828   -0.7134 O   0  0  0  0  0  0  0  0  0  0  0  0
    1.1714    1.3053   -0.3239 O   0  0  0  0  0  0  0  0  0  0  0  0
   -3.4242   -1.1553    0.2457 H   0  0  0  0  0  0  0  0  0  0  0  0
   -3.3335    1.3156   -0.0422 H   0  0  0  0  0  0  0  0  0  0  0  0
   -1.3157   -2.4717    0.2513 H   0  0  0  0  0  0  0  0  0  0  0  0
   -1.1323    2.4660   -0.2981 H   0  0  0  0  0  0  0  0  0  0  0  0
    1.1915   -2.5518   -0.1644 H   0  0  0  0  0  0  0  0  0  0  0  0
    3.1849    1.2030   -0.2487 H   0  0  0  0  0  0  0  0  0  0  0  0
    2.3840    0.9052    1.3085 H   0  0  0  0  0  0  0  0  0  0  0  0
    4.6633   -0.1742    0.9199 H   0  0  0  0  0  0  0  0  0  0  0  0
    2.9846   -2.7444   -1.3081 H   0  0  0  0  0  0  0  0  0  0  0  0
  1  3  1  0  0  0  0
  1 14  1  0  0  0  0
  2  1  2  0  0  0  0
  3 16  1  0  0  0  0
  4  9  2  0  0  0  0
  4  2  1  0  0  0  0
  5  8  2  0  0  0  0
  5  7  1  0  0  0  0
  6 20  1  0  0  0  0
  7  3  2  0  0  0  0
  8  6  1  0  0  0  0
  9  7  1  0  0  0  0
 10  8  1  0  0  0  0
 10 11  2  0  0  0  0
 11 21  1  0  0  0  0
 12 10  1  0  0  0  0
 13  9  1  0  0  0  0
 13  6  1  0  0  0  0
 15  2  1  0  0  0  0
 17  4  1  0  0  0  0
 18  5  1  0  0  0  0
 19  6  1  0  0  0  0
 22 12  1  0  0  0  0
M  END
>  <HBA>
3

>  <HBD>
1

>  <TPSA>
52.32

>  <cid>
25032

>  <dipole>
4.2

>  <excitation_energy_1>
3.648

>  <excitation_energy_2>
4.416

>  <excitation_energy_3>
4.572

>  <excitation_energy_4>
5.051

>  <homo_energy>
-6.068

>  <homo_lumo_gap>
4.25

>  <logP>
1.648

>  <lumo_energy>
-1.818

>  <melting_point>
133.92

>  <molecular_refractivity>
48.63

>  <oscillator_strength_1>
0.1432

>  <oscillator_strength_2>
0.255

>  <oscillator_strength_3>
0.0019

>  <oscillator_strength_4>
0.1446

>  <open_babel_can_smiles>
OC(=N)C1=Cc2c(OC1)cccc2

>  <mulliken_charges>
22
1   -0.135243
2   -0.131218
3   -0.20189
4   -0.177928
5   -0.199255
6   -0.10286
7   0.124195
8   0.025479
9   0.316924
10   0.447323
11   -0.587075
12   -0.581322
13   -0.523181
14   0.135194
15   0.139466
16   0.136322
17   0.146314
18   0.14472
19   0.17365
20   0.157029
21   0.288304
22   0.405052

>  <lowdin_charges>
22
1   -0.172399
2   -0.137815
3   -0.143387
4   -0.178329
5   -0.144415
6   -0.122309
7   -0.048088
8   -0.077461
9   0.107808
10   0.123852
11   -0.385029
12   -0.36505
13   -0.195589
14   0.16186
15   0.163838
16   0.158711
17   0.169027
18   0.162524
19   0.166613
20   0.143345
21   0.256884
22   0.355408

$$$$

