PCCDB-ID:  61072
public computational chemistry database (PCCDB) project, http://pccdb.org

 37 37  0  0  0  0  0  0  0  0999 V2000
    2.2924   -0.6369    2.1517 C   0  0  0  0  0  0  0  0  0  0  0  0
   -0.1183   -2.9321   -3.5599 C   0  0  0  0  0  0  0  0  0  0  0  0
    0.2091    1.5798   -5.1083 C   0  0  0  0  0  0  0  0  0  0  0  0
   -1.4571    1.8595   -3.2479 C   0  0  0  0  0  0  0  0  0  0  0  0
    1.3184   -1.1260    1.0831 C   0  0  0  0  0  0  0  0  0  0  0  0
   -1.8190   -0.6308   -6.1862 C   0  0  0  0  0  0  0  0  0  0  0  0
   -1.5730   -1.8791   -5.3378 C   0  0  0  0  0  0  0  0  0  0  0  0
    0.4949   -0.7951   -1.3134 C   0  0  0  0  0  0  0  0  0  0  0  0
    0.4803   -0.1659   -2.5055 C   0  0  0  0  0  0  0  0  0  0  0  0
   -2.1053    0.5612   -5.2766 C   0  0  0  0  0  0  0  0  0  0  0  0
   -0.6701   -1.6504   -4.1397 C   0  0  0  0  0  0  0  0  0  0  0  0
    1.4339   -0.3757   -0.2403 C   0  0  0  0  0  0  0  0  0  0  0  0
   -0.3958   -0.4094   -3.6616 C   0  0  0  0  0  0  0  0  0  0  0  0
   -0.9308    0.8832   -4.3254 C   0  0  0  0  0  0  0  0  0  0  0  0
    2.2520    0.5215   -0.3978 O   0  0  0  0  0  0  0  0  0  0  0  0
    2.1693   -1.2065    3.0789 H   0  0  0  0  0  0  0  0  0  0  0  0
    2.1309    0.4227    2.3710 H   0  0  0  0  0  0  0  0  0  0  0  0
    3.3276   -0.7427    1.8138 H   0  0  0  0  0  0  0  0  0  0  0  0
   -0.8933   -3.4821   -3.0060 H   0  0  0  0  0  0  0  0  0  0  0  0
    0.7221   -2.7699   -2.8835 H   0  0  0  0  0  0  0  0  0  0  0  0
    0.2121   -3.5984   -4.3672 H   0  0  0  0  0  0  0  0  0  0  0  0
   -0.1535    2.5152   -5.5527 H   0  0  0  0  0  0  0  0  0  0  0  0
    0.5948    0.9466   -5.9137 H   0  0  0  0  0  0  0  0  0  0  0  0
    1.0525    1.8335   -4.4570 H   0  0  0  0  0  0  0  0  0  0  0  0
   -1.8998    2.7418   -3.7265 H   0  0  0  0  0  0  0  0  0  0  0  0
   -0.6633    2.2084   -2.5797 H   0  0  0  0  0  0  0  0  0  0  0  0
   -2.2302    1.3861   -2.6317 H   0  0  0  0  0  0  0  0  0  0  0  0
    0.2766   -1.0421    1.4285 H   0  0  0  0  0  0  0  0  0  0  0  0
    1.4637   -2.1974    0.8761 H   0  0  0  0  0  0  0  0  0  0  0  0
   -2.6535   -0.8009   -6.8773 H   0  0  0  0  0  0  0  0  0  0  0  0
   -0.9371   -0.4289   -6.8070 H   0  0  0  0  0  0  0  0  0  0  0  0
   -1.1513   -2.6834   -5.9560 H   0  0  0  0  0  0  0  0  0  0  0  0
   -2.5348   -2.2741   -4.9698 H   0  0  0  0  0  0  0  0  0  0  0  0
   -0.2022   -1.5980   -1.0859 H   0  0  0  0  0  0  0  0  0  0  0  0
    1.1759    0.6703   -2.5879 H   0  0  0  0  0  0  0  0  0  0  0  0
   -2.9983    0.3388   -4.6746 H   0  0  0  0  0  0  0  0  0  0  0  0
   -2.3418    1.4568   -5.8660 H   0  0  0  0  0  0  0  0  0  0  0  0
  1 17  1  0  0  0  0
  1 16  1  0  0  0  0
  2 19  1  0  0  0  0
  2 20  1  0  0  0  0
  3 24  1  0  0  0  0
  3 14  1  0  0  0  0
  4 27  1  0  0  0  0
  4 26  1  0  0  0  0
  5 28  1  0  0  0  0
  5  1  1  0  0  0  0
  6  7  1  0  0  0  0
  6 10  1  0  0  0  0
  7 33  1  0  0  0  0
  7 11  1  0  0  0  0
  8 34  1  0  0  0  0
  8 12  1  0  0  0  0
  9  8  2  0  0  0  0
 10 36  1  0  0  0  0
 10 14  1  0  0  0  0
 11 13  2  0  0  0  0
 11  2  1  0  0  0  0
 12  5  1  0  0  0  0
 13  9  1  0  0  0  0
 14 13  1  0  0  0  0
 14  4  1  0  0  0  0
 15 12  2  0  0  0  0
 18  1  1  0  0  0  0
 21  2  1  0  0  0  0
 22  3  1  0  0  0  0
 23  3  1  0  0  0  0
 25  4  1  0  0  0  0
 29  5  1  0  0  0  0
 30  6  1  0  0  0  0
 31  6  1  0  0  0  0
 32  7  1  0  0  0  0
 35  9  1  0  0  0  0
 37 10  1  0  0  0  0
M  END
>  <HBA>
1

>  <HBD>
0

>  <TPSA>
17.07

>  <cid>
61072

>  <dipole>
3.27

>  <excitation_energy_1>
3.588

>  <excitation_energy_2>
4.147

>  <excitation_energy_3>
5.429

>  <excitation_energy_4>
5.508

>  <homo_energy>
-6.057

>  <homo_lumo_gap>
4.626

>  <logP>
4.048

>  <lumo_energy>
-1.431

>  <melting_point>
57.2

>  <molecular_refractivity>
66.29

>  <oscillator_strength_1>
0.0112

>  <oscillator_strength_2>
0.3019

>  <oscillator_strength_3>
0.1274

>  <oscillator_strength_4>
0.0199

>  <open_babel_can_smiles>
CCC(=O)/C=C/C1=C(C)CCCC1(C)C

>  <mulliken_charges>
37
1   -0.432763
2   -0.519343
3   -0.453529
4   -0.453068
5   -0.358319
6   -0.272433
7   -0.319619
8   -0.192952
9   -0.15448
10   -0.268396
11   0.103379
12   0.438659
13   0.086669
14   0.033565
15   -0.476783
16   0.136312
17   0.159861
18   0.160329
19   0.154697
20   0.167581
21   0.149135
22   0.141306
23   0.147496
24   0.153094
25   0.139603
26   0.152336
27   0.143837
28   0.157288
29   0.156622
30   0.13302
31   0.140959
32   0.139949
33   0.147566
34   0.130065
35   0.168428
36   0.130719
37   0.129209

>  <lowdin_charges>
37
1   -0.437862
2   -0.450919
3   -0.445444
4   -0.445105
5   -0.303975
6   -0.278489
7   -0.277644
8   -0.224784
9   -0.09277
10   -0.273879
11   -0.002655
12   0.151119
13   -0.042978
14   0.013227
15   -0.258304
16   0.148384
17   0.157064
18   0.157596
19   0.158
20   0.166073
21   0.154577
22   0.148641
23   0.15078
24   0.153191
25   0.148893
26   0.155143
27   0.150878
28   0.157973
29   0.1574
30   0.146765
31   0.143711
32   0.149904
33   0.150691
34   0.156887
35   0.171905
36   0.141761
37   0.144247

$$$$

