PCCDB-ID:  16450
public computational chemistry database (PCCDB) project, http://pccdb.org

 24 25  0  0  0  0  0  0  0  0999 V2000
   -1.4170   -0.0565    0.4300 C   0  0  0  0  0  0  0  0  0  0  0  0
   -0.6386    0.9046    1.0773 C   0  0  0  0  0  0  0  0  0  0  0  0
   -0.8101   -0.9582   -0.4461 C   0  0  0  0  0  0  0  0  0  0  0  0
    4.8747    1.4226   -0.5582 C   0  0  0  0  0  0  0  0  0  0  0  0
    0.7353    0.9640    0.8499 C   0  0  0  0  0  0  0  0  0  0  0  0
    0.5637   -0.8990   -0.6737 C   0  0  0  0  0  0  0  0  0  0  0  0
    3.4995    1.3589   -0.3327 C   0  0  0  0  0  0  0  0  0  0  0  0
    5.6168    0.2570   -0.7345 C   0  0  0  0  0  0  0  0  0  0  0  0
    3.5715   -1.0457   -0.4498 C   0  0  0  0  0  0  0  0  0  0  0  0
    1.3591    0.0635   -0.0296 C   0  0  0  0  0  0  0  0  0  0  0  0
    2.8232    0.1268   -0.2725 C   0  0  0  0  0  0  0  0  0  0  0  0
    4.9413   -0.9600   -0.6775 C   0  0  0  0  0  0  0  0  0  0  0  0
    5.7073   -2.2065   -0.8567 N   0  0  0  0  0  0  0  0  0  0  0  0
    6.9209   -2.1099   -1.0368 O   0  0  0  0  0  0  0  0  0  0  0  0
    5.0893   -3.2701   -0.8180 O   0  0  0  0  0  0  0  0  0  0  0  0
   -2.4878   -0.1033    0.6077 H   0  0  0  0  0  0  0  0  0  0  0  0
   -1.0996    1.6044    1.7692 H   0  0  0  0  0  0  0  0  0  0  0  0
   -1.4079   -1.7058   -0.9603 H   0  0  0  0  0  0  0  0  0  0  0  0
    5.3701    2.3877   -0.6070 H   0  0  0  0  0  0  0  0  0  0  0  0
    1.3352    1.6977    1.3813 H   0  0  0  0  0  0  0  0  0  0  0  0
    1.0212   -1.5897   -1.3765 H   0  0  0  0  0  0  0  0  0  0  0  0
    2.9342    2.2798   -0.2248 H   0  0  0  0  0  0  0  0  0  0  0  0
    6.6844    0.2729   -0.9133 H   0  0  0  0  0  0  0  0  0  0  0  0
    3.1085   -2.0227   -0.3912 H   0  0  0  0  0  0  0  0  0  0  0  0
  1 16  1  0  0  0  0
  1  2  2  0  0  0  0
  2 17  1  0  0  0  0
  3  1  1  0  0  0  0
  4  7  2  0  0  0  0
  5  2  1  0  0  0  0
  5 20  1  0  0  0  0
  6  3  2  0  0  0  0
  6 10  1  0  0  0  0
  7 11  1  0  0  0  0
  7 22  1  0  0  0  0
  8 12  2  0  0  0  0
  8  4  1  0  0  0  0
  9 24  1  0  0  0  0
  9 11  2  0  0  0  0
 10  5  2  0  0  0  0
 11 10  1  0  0  0  0
 12  9  1  0  0  0  0
 13 15  2  0  0  0  0
 13 12  1  0  0  0  0
 14 13  2  0  0  0  0
 18  3  1  0  0  0  0
 19  4  1  0  0  0  0
 21  6  1  0  0  0  0
 23  8  1  0  0  0  0
M  END
>  <HBA>
0

>  <HBD>
0

>  <TPSA>
45.82

>  <cid>
16450

>  <dipole>
4.88

>  <excitation_energy_1>
3.469

>  <excitation_energy_2>
3.745

>  <excitation_energy_3>
4.03

>  <excitation_energy_4>
4.264

>  <homo_energy>
-6.604

>  <homo_lumo_gap>
4.207

>  <logP>
3.785

>  <lumo_energy>
-2.397

>  <melting_point>
80.38

>  <molecular_refractivity>
60.7

>  <oscillator_strength_1>
0.0161

>  <oscillator_strength_2>
0.0002

>  <oscillator_strength_3>
0.0002

>  <oscillator_strength_4>
0.0004

>  <open_babel_can_smiles>
O=N(=O)c1cccc(c1)c1ccccc1

>  <mulliken_charges>
24
1   -0.123672
2   -0.133316
3   -0.133943
4   -0.142964
5   -0.173933
6   -0.171105
7   -0.154108
8   -0.150387
9   -0.20458
10   0.091332
11   0.079057
12   0.273868
13   0.380667
14   -0.394025
15   -0.39439
16   0.136156
17   0.136243
18   0.138262
19   0.149645
20   0.13464
21   0.141149
22   0.148052
23   0.182617
24   0.184735

>  <lowdin_charges>
24
1   -0.149683
2   -0.152548
3   -0.151819
4   -0.146807
5   -0.161275
6   -0.158621
7   -0.13996
8   -0.138389
9   -0.143403
10   -0.005834
11   0.007336
12   0.004097
13   0.305946
14   -0.243876
15   -0.246144
16   0.159448
17   0.162139
18   0.163291
19   0.16815
20   0.16132
21   0.164213
22   0.168062
23   0.18624
24   0.188118

$$$$

