PCCDB-ID:  12435
public computational chemistry database (PCCDB) project, http://pccdb.org

 17 16  0  0  0  0  0  0  0  0999 V2000
    1.2063   -0.4181    1.1021 C   0  0  0  0  0  0  0  0  0  0  0  0
    3.1479   -3.0404   -1.7582 C   0  0  0  0  0  0  0  0  0  0  0  0
    0.8757   -2.2015   -1.4796 C   0  0  0  0  0  0  0  0  0  0  0  0
    2.7683   -0.8983   -0.6244 C   0  0  0  0  0  0  0  0  0  0  0  0
    2.3160   -0.0738    0.2388 N   0  0  0  0  0  0  0  0  0  0  0  0
    2.2648   -2.1289   -1.0365 N   0  0  0  0  0  0  0  0  0  0  0  0
    3.9494   -0.5944   -1.2422 O   0  0  0  0  0  0  0  0  0  0  0  0
    1.3602    0.0628    2.0752 H   0  0  0  0  0  0  0  0  0  0  0  0
    1.0968   -1.5008    1.2693 H   0  0  0  0  0  0  0  0  0  0  0  0
    0.2491   -0.0364    0.7149 H   0  0  0  0  0  0  0  0  0  0  0  0
    2.7372   -4.0534   -1.6789 H   0  0  0  0  0  0  0  0  0  0  0  0
    4.1430   -3.0291   -1.3136 H   0  0  0  0  0  0  0  0  0  0  0  0
    3.2406   -2.7857   -2.8253 H   0  0  0  0  0  0  0  0  0  0  0  0
    0.4855   -3.2099   -1.3008 H   0  0  0  0  0  0  0  0  0  0  0  0
    0.7841   -1.9843   -2.5565 H   0  0  0  0  0  0  0  0  0  0  0  0
    0.2548   -1.4920   -0.9354 H   0  0  0  0  0  0  0  0  0  0  0  0
    4.2562    0.2080   -0.7824 H   0  0  0  0  0  0  0  0  0  0  0  0
  1  9  1  0  0  0  0
  1  8  1  0  0  0  0
  2 11  1  0  0  0  0
  2 12  1  0  0  0  0
  2  6  1  0  0  0  0
  3 14  1  0  0  0  0
  3  6  1  0  0  0  0
  3 16  1  0  0  0  0
  4  5  2  0  0  0  0
  5  1  1  0  0  0  0
  6  4  1  0  0  0  0
  7 17  1  0  0  0  0
  7  4  1  0  0  0  0
 10  1  1  0  0  0  0
 13  2  1  0  0  0  0
 15  3  1  0  0  0  0
M  END
>  <HBA>
3

>  <HBD>
1

>  <TPSA>
32.34

>  <cid>
12435

>  <dipole>
1.69

>  <excitation_energy_1>
5.404

>  <excitation_energy_2>
5.755

>  <excitation_energy_3>
5.995

>  <excitation_energy_4>
6.061

>  <homo_energy>
-5.848

>  <homo_lumo_gap>
7.138

>  <logP>
0.278

>  <lumo_energy>
1.29

>  <melting_point>
36.3

>  <molecular_refractivity>
27.63

>  <oscillator_strength_1>
0.0169

>  <oscillator_strength_2>
0.0124

>  <oscillator_strength_3>
0.0065

>  <oscillator_strength_4>
0.099

>  <open_babel_can_smiles>
C/N=C(\N(C)C)/O

>  <mulliken_charges>
17
1   -0.32515
2   -0.29417
3   -0.314215
4   0.647942
5   -0.475138
6   -0.428886
7   -0.604965
8   0.151786
9   0.138776
10   0.141614
11   0.148033
12   0.176724
13   0.148251
14   0.155805
15   0.147134
16   0.176384
17   0.410076

>  <lowdin_charges>
17
1   -0.355181
2   -0.346379
3   -0.345547
4   0.155578
5   -0.284282
6   -0.139708
7   -0.383179
8   0.149855
9   0.133447
10   0.139456
11   0.149428
12   0.167347
13   0.139561
14   0.150882
15   0.137276
16   0.170367
17   0.361078

$$$$

