PCCDB-ID:  25459
public computational chemistry database (PCCDB) project, http://pccdb.org

 20 19  0  0  0  0  0  0  0  0999 V2000
    0.9014   -0.1031   -0.2867 C   0  0  0  0  0  0  0  0  0  0  0  0
    5.1181    0.0894    3.8605 C   0  0  0  0  0  0  0  0  0  0  0  0
    2.4217   -0.1179   -0.0982 C   0  0  0  0  0  0  0  0  0  0  0  0
    2.8802    0.7817    1.0574 C   0  0  0  0  0  0  0  0  0  0  0  0
    4.4010    0.7683    1.2284 C   0  0  0  0  0  0  0  0  0  0  0  0
    5.1352    1.4968    3.4740 N   0  0  0  0  0  0  0  0  0  0  0  0
    4.8123    1.7765    2.2752 N   0  0  0  0  0  0  0  0  0  0  0  0
    4.7769    2.9569    1.8630 O   0  0  0  0  0  0  0  0  0  0  0  0
    0.6000   -0.7472   -1.1199 H   0  0  0  0  0  0  0  0  0  0  0  0
    0.5393    0.9098   -0.4984 H   0  0  0  0  0  0  0  0  0  0  0  0
    0.3861   -0.4588    0.6136 H   0  0  0  0  0  0  0  0  0  0  0  0
    5.3178    0.0655    4.9340 H   0  0  0  0  0  0  0  0  0  0  0  0
    5.9040   -0.4980    3.3634 H   0  0  0  0  0  0  0  0  0  0  0  0
    4.1522   -0.4053    3.6872 H   0  0  0  0  0  0  0  0  0  0  0  0
    2.9103    0.2095   -1.0262 H   0  0  0  0  0  0  0  0  0  0  0  0
    2.7593   -1.1487    0.0798 H   0  0  0  0  0  0  0  0  0  0  0  0
    2.4002    0.4606    1.9919 H   0  0  0  0  0  0  0  0  0  0  0  0
    2.5716    1.8178    0.8783 H   0  0  0  0  0  0  0  0  0  0  0  0
    4.9013    1.1101    0.3213 H   0  0  0  0  0  0  0  0  0  0  0  0
    4.7734   -0.2223    1.4922 H   0  0  0  0  0  0  0  0  0  0  0  0
  1  3  1  0  0  0  0
  1 11  1  0  0  0  0
  2 12  1  0  0  0  0
  3 16  1  0  0  0  0
  3  4  1  0  0  0  0
  4  5  1  0  0  0  0
  4 17  1  0  0  0  0
  5 20  1  0  0  0  0
  5  7  1  0  0  0  0
  6  2  1  0  0  0  0
  7  6  1  0  0  0  0
  8  7  1  0  0  0  0
  9  1  1  0  0  0  0
 10  1  1  0  0  0  0
 13  2  1  0  0  0  0
 14  2  1  0  0  0  0
 15  3  1  0  0  0  0
 18  4  1  0  0  0  0
 19  5  1  0  0  0  0
M  RAD  2   6   2   8   2
M  END
>  <HBA>
2

>  <HBD>
0

>  <TPSA>
41.11

>  <cid>
25459

>  <dipole>
4.78

>  <excitation_energy_1>
4.162

>  <excitation_energy_2>
4.951

>  <excitation_energy_3>
5.611

>  <excitation_energy_4>
6.079

>  <homo_energy>
-6.582

>  <homo_lumo_gap>
5.551

>  <logP>
1.902

>  <lumo_energy>
-1.031

>  <melting_point>
1.33

>  <molecular_refractivity>
34.37

>  <oscillator_strength_1>
0.0001

>  <oscillator_strength_2>
0.0011

>  <oscillator_strength_3>
0.2064

>  <oscillator_strength_4>
0.0151

>  <open_babel_can_smiles>
CCCCN([N]C)[O]

>  <mulliken_charges>
20
1   -0.443678
2   -0.350279
3   -0.256512
4   -0.262176
5   -0.164107
6   -0.219161
7   0.231963
8   -0.436728
9   0.149484
10   0.152184
11   0.146483
12   0.184334
13   0.162247
14   0.156419
15   0.142875
16   0.13503
17   0.146645
18   0.17747
19   0.188741
20   0.158765

>  <lowdin_charges>
20
1   -0.443294
2   -0.380553
3   -0.270981
4   -0.275453
5   -0.225971
6   -0.171291
7   0.232574
8   -0.320135
9   0.154662
10   0.151496
11   0.149717
12   0.168994
13   0.152914
14   0.147787
15   0.145313
16   0.139539
17   0.147254
18   0.162784
19   0.176318
20   0.158327

$$$$

