PCCDB-ID:  2916
public computational chemistry database (PCCDB) project, http://pccdb.org

 16 15  0  0  0  0  0  0  0  0999 V2000
    1.9435    0.0131    0.1882 C   0  0  0  0  0  0  0  0  0  0  0  0
    0.4928   -0.4324    0.3415 C   0  0  0  0  0  0  0  0  0  0  0  0
    2.1364    1.3612    0.7247 N   0  0  0  0  0  0  0  0  0  0  0  0
   -1.9164    0.0532   -3.2378 O   0  0  0  0  0  0  0  0  0  0  0  0
    0.4893    0.5398   -3.4474 O   0  0  0  0  0  0  0  0  0  0  0  0
   -0.1177   -1.7682   -2.4571 O   0  0  0  0  0  0  0  0  0  0  0  0
   -0.5052   -0.3435   -2.5288 P   0  0  0  0  0  0  0  0  0  0  0  0
   -0.7179    0.5757   -0.6439 S   0  0  0  0  0  0  0  0  0  0  0  0
    2.2523   -0.1145   -0.8638 H   0  0  0  0  0  0  0  0  0  0  0  0
    2.5557   -0.6781    0.7828 H   0  0  0  0  0  0  0  0  0  0  0  0
    0.1675   -0.2998    1.3770 H   0  0  0  0  0  0  0  0  0  0  0  0
    0.3606   -1.4743    0.0437 H   0  0  0  0  0  0  0  0  0  0  0  0
    1.6419    2.0296    0.1345 H   0  0  0  0  0  0  0  0  0  0  0  0
    3.1221    1.6124    0.6723 H   0  0  0  0  0  0  0  0  0  0  0  0
   -2.6662   -0.4220   -2.8408 H   0  0  0  0  0  0  0  0  0  0  0  0
    0.0822    1.3723   -3.7410 H   0  0  0  0  0  0  0  0  0  0  0  0
  1  2  1  0  0  0  0
  1  3  1  0  0  0  0
  1 10  1  0  0  0  0
  2 11  1  0  0  0  0
  4 15  1  0  0  0  0
  4  7  1  0  0  0  0
  5  7  1  0  0  0  0
  7  6  2  0  0  0  0
  7  8  1  0  0  0  0
  8  2  1  0  0  0  0
  9  1  1  0  0  0  0
 12  2  1  0  0  0  0
 13  3  1  0  0  0  0
 14  3  1  0  0  0  0
 16  5  1  0  0  0  0
M  END
>  <HBA>
5

>  <HBD>
3

>  <TPSA>
118.66

>  <cid>
2916

>  <dipole>
2.25

>  <excitation_energy_1>
5.371

>  <excitation_energy_2>
5.548

>  <excitation_energy_3>
5.696

>  <excitation_energy_4>
5.877

>  <homo_energy>
-6.498

>  <homo_lumo_gap>
6.582

>  <logP>
0.471

>  <lumo_energy>
0.084

>  <melting_point>
125.64

>  <molecular_refractivity>
33.01

>  <oscillator_strength_1>
0.0002

>  <oscillator_strength_2>
0.0003

>  <oscillator_strength_3>
0.0243

>  <oscillator_strength_4>
0.0009

>  <open_babel_can_smiles>
NCCSP(=O)(O)O

>  <mulliken_charges>
16
1   -0.141299
2   -0.427553
3   -0.717734
4   -0.661915
5   -0.630586
6   -0.524741
7   1.003819
8   -0.118216
9   0.153521
10   0.155203
11   0.196552
12   0.21846
13   0.310184
14   0.301209
15   0.443831
16   0.439263

>  <lowdin_charges>
16
1   -0.207486
2   -0.363247
3   -0.560417
4   -0.578781
5   -0.557238
6   -0.565248
7   0.953756
8   -0.064348
9   0.134404
10   0.154758
11   0.177382
12   0.184617
13   0.260055
14   0.25664
15   0.388852
16   0.386301

$$$$

