PCCDB-ID:  42247
public computational chemistry database (PCCDB) project, http://pccdb.org

 31 32  0  0  1  0  0  0  0  0999 V2000
    0.6277   -0.0383    0.5139 C   0  0  0  0  0  0  0  0  0  0  0  0
    4.3560    0.9582   -1.2523 C   0  0  0  0  0  0  0  0  0  0  0  0
    4.3099   -0.5707   -1.5412 C   0  0  0  0  0  0  0  0  0  0  0  0
    6.0516   -1.7603    2.1992 C   0  0  0  0  0  0  0  0  0  0  0  0
    2.7657    1.0859    0.7467 C   0  0  0  0  0  0  0  0  0  0  0  0
    2.6793   -1.3048    0.2894 C   0  0  0  0  0  0  0  0  0  0  0  0
    4.2333    1.0631    0.2862 C   0  0  1  0  0  0  0  0  0  0  0  0
    4.1549   -1.2185   -0.1440 C   0  0  2  0  0  0  0  0  0  0  0  0
    5.5765   -0.3623    1.8203 C   0  0  0  0  0  0  0  0  0  0  0  0
    7.4159   -1.8471    2.9185 C   0  0  0  0  0  0  0  0  0  0  0  0
    2.0257   -0.0094    0.1146 N   0  0  0  0  0  0  0  0  0  0  0  0
    4.8066   -0.2226    0.7223 N   0  0  0  0  0  0  0  0  0  0  0  0
    5.8920    0.6208    2.5172 O   0  0  0  0  0  0  0  0  0  0  0  0
    8.0633   -2.8666    2.8685 O   0  0  0  0  0  0  0  0  0  0  0  0
    7.7897   -0.7796    3.6244 O   0  0  0  0  0  0  0  0  0  0  0  0
    0.1601    0.9257    0.2860 H   0  0  0  0  0  0  0  0  0  0  0  0
    0.4877   -0.2412    1.5931 H   0  0  0  0  0  0  0  0  0  0  0  0
    0.0989   -0.8148   -0.0497 H   0  0  0  0  0  0  0  0  0  0  0  0
    3.5453    1.4953   -1.7503 H   0  0  0  0  0  0  0  0  0  0  0  0
    5.3059    1.3893   -1.5822 H   0  0  0  0  0  0  0  0  0  0  0  0
    5.2408   -0.9093   -2.0065 H   0  0  0  0  0  0  0  0  0  0  0  0
    3.4805   -0.8460   -2.1972 H   0  0  0  0  0  0  0  0  0  0  0  0
    6.1057   -2.4392    1.3479 H   0  0  0  0  0  0  0  0  0  0  0  0
    5.3117   -2.1847    2.8931 H   0  0  0  0  0  0  0  0  0  0  0  0
    2.2958    2.0325    0.4520 H   0  0  0  0  0  0  0  0  0  0  0  0
    2.7423    1.0327    1.8524 H   0  0  0  0  0  0  0  0  0  0  0  0
    2.6399   -1.6624    1.3389 H   0  0  0  0  0  0  0  0  0  0  0  0
    2.1541   -2.0446   -0.3279 H   0  0  0  0  0  0  0  0  0  0  0  0
    4.7919    1.8850    0.7327 H   0  0  0  0  0  0  0  0  0  0  0  0
    4.6275   -2.1982   -0.0648 H   0  0  0  0  0  0  0  0  0  0  0  0
    7.1422   -0.0442    3.4363 H   0  0  0  0  0  0  0  0  0  0  0  0
  1 17  1  0  0  0  0
  2  7  1  0  0  0  0
  3  2  1  0  0  0  0
  3  8  1  0  0  0  0
  4 24  1  0  0  0  0
  4 10  1  0  0  0  0
  5 26  1  0  0  0  0
  6 27  1  0  0  0  0
  7 12  1  0  0  0  0
  7 29  1  1  0  0  0
  7  5  1  0  0  0  0
  8 30  1  1  0  0  0
  8  6  1  0  0  0  0
  8 12  1  0  0  0  0
  9  4  1  0  0  0  0
  9 13  2  0  0  0  0
 10 15  1  0  0  0  0
 11  6  1  0  0  0  0
 11  1  1  0  0  0  0
 11  5  1  0  0  0  0
 12  9  1  0  0  0  0
 14 10  2  0  0  0  0
 16  1  1  0  0  0  0
 18  1  1  0  0  0  0
 19  2  1  0  0  0  0
 20  2  1  0  0  0  0
 21  3  1  0  0  0  0
 22  3  1  0  0  0  0
 23  4  1  0  0  0  0
 25  5  1  0  0  0  0
 28  6  1  0  0  0  0
 31 15  1  0  0  0  0
M  END
>  <HBA>
5

>  <HBD>
1

>  <TPSA>
60.85

>  <cid>
42247

>  <dipole>
7.67

>  <excitation_energy_1>
5.25

>  <excitation_energy_2>
5.584

>  <excitation_energy_3>
5.669

>  <excitation_energy_4>
5.845

>  <homo_energy>
-6.357

>  <homo_lumo_gap>
6.351

>  <logP>
-0.358

>  <lumo_energy>
-0.005

>  <melting_point>
119.76

>  <molecular_refractivity>
61.55

>  <oscillator_strength_1>
0.0051

>  <oscillator_strength_2>
0.0141

>  <oscillator_strength_3>
0.0022

>  <oscillator_strength_4>
0.007

>  <open_babel_can_smiles>
CN1C[C@@H]2CC[C@H](C1)N2C(=O)CC(=O)O

>  <mulliken_charges>
31
1   -0.294537
2   -0.26914
3   -0.265844
4   -0.497313
5   -0.116172
6   -0.104489
7   -0.01613
8   -0.024518
9   0.611076
10   0.605458
11   -0.396524
12   -0.416577
13   -0.564439
14   -0.461653
15   -0.580493
16   0.154846
17   0.127788
18   0.152928
19   0.157317
20   0.153493
21   0.151797
22   0.157961
23   0.192744
24   0.209473
25   0.149584
26   0.134691
27   0.117726
28   0.149867
29   0.181548
30   0.155614
31   0.443916

>  <lowdin_charges>
31
1   -0.35257
2   -0.283155
3   -0.283095
4   -0.352488
5   -0.2034
6   -0.206754
7   -0.064287
8   -0.065673
9   0.164904
10   0.189536
11   -0.189327
12   -0.081657
13   -0.346346
14   -0.261177
15   -0.357826
16   0.153819
17   0.124339
18   0.153971
19   0.159955
20   0.154658
21   0.153919
22   0.15976
23   0.18078
24   0.194888
25   0.151696
26   0.128807
27   0.120802
28   0.153041
29   0.1758
30   0.159603
31   0.367479

$$$$

