PCCDB-ID:  34591
public computational chemistry database (PCCDB) project, http://pccdb.org

 22 22  0  0  0  0  0  0  0  0999 V2000
    2.1474   -0.9720    1.0707 C   0  0  0  0  0  0  0  0  0  0  0  0
    4.5268   -1.7961    0.8266 C   0  0  0  0  0  0  0  0  0  0  0  0
    7.6510    2.1495   -0.3204 C   0  0  0  0  0  0  0  0  0  0  0  0
    7.3081    1.0703   -1.1334 C   0  0  0  0  0  0  0  0  0  0  0  0
    3.8190    0.4425   -0.1934 C   0  0  0  0  0  0  0  0  0  0  0  0
    5.5583    2.1419    0.5510 C   0  0  0  0  0  0  0  0  0  0  0  0
    3.6240   -0.5634    0.9713 C   0  0  0  0  0  0  0  0  0  0  0  0
    5.1973    1.0526   -0.2607 C   0  0  0  0  0  0  0  0  0  0  0  0
    6.7729    2.6946    0.5309 N   0  0  0  0  0  0  0  0  0  0  0  0
    6.0897    0.5176   -1.1099 N   0  0  0  0  0  0  0  0  0  0  0  0
    1.9859   -1.6619    1.9071 H   0  0  0  0  0  0  0  0  0  0  0  0
    1.8191   -1.4787    0.1541 H   0  0  0  0  0  0  0  0  0  0  0  0
    1.4979   -0.1016    1.2227 H   0  0  0  0  0  0  0  0  0  0  0  0
    4.3977   -2.4721    1.6799 H   0  0  0  0  0  0  0  0  0  0  0  0
    5.5852   -1.5239    0.7677 H   0  0  0  0  0  0  0  0  0  0  0  0
    4.2799   -2.3553   -0.0848 H   0  0  0  0  0  0  0  0  0  0  0  0
    8.6463    2.5878   -0.3552 H   0  0  0  0  0  0  0  0  0  0  0  0
    8.0302    0.6378   -1.8238 H   0  0  0  0  0  0  0  0  0  0  0  0
    3.0766    1.2447   -0.0884 H   0  0  0  0  0  0  0  0  0  0  0  0
    3.6231   -0.0644   -1.1454 H   0  0  0  0  0  0  0  0  0  0  0  0
    4.8338    2.5824    1.2350 H   0  0  0  0  0  0  0  0  0  0  0  0
    3.8965   -0.0466    1.9040 H   0  0  0  0  0  0  0  0  0  0  0  0
  1 13  1  0  0  0  0
  1 11  1  0  0  0  0
  2  7  1  0  0  0  0
  2 14  1  0  0  0  0
  3  9  2  0  0  0  0
  4 10  2  0  0  0  0
  4  3  1  0  0  0  0
  5 19  1  0  0  0  0
  5  7  1  0  0  0  0
  6 21  1  0  0  0  0
  7  1  1  0  0  0  0
  7 22  1  0  0  0  0
  8  5  1  0  0  0  0
  8  6  2  0  0  0  0
  9  6  1  0  0  0  0
 10  8  1  0  0  0  0
 12  1  1  0  0  0  0
 15  2  1  0  0  0  0
 16  2  1  0  0  0  0
 17  3  1  0  0  0  0
 18  4  1  0  0  0  0
 20  5  1  0  0  0  0
M  END
>  <HBA>
2

>  <HBD>
0

>  <TPSA>
25.78

>  <cid>
34591

>  <dipole>
0.64

>  <excitation_energy_1>
3.999

>  <excitation_energy_2>
4.657

>  <excitation_energy_3>
5.193

>  <excitation_energy_4>
5.597

>  <homo_energy>
-6.645

>  <homo_lumo_gap>
5.393

>  <logP>
1.675

>  <lumo_energy>
-1.252

>  <melting_point>
36.17

>  <molecular_refractivity>
41.42

>  <oscillator_strength_1>
0.0057

>  <oscillator_strength_2>
0.0002

>  <oscillator_strength_3>
0.1263

>  <oscillator_strength_4>
0.0

>  <open_babel_can_smiles>
CC(Cc1nccnc1)C

>  <mulliken_charges>
22
1   -0.441052
2   -0.439261
3   0.028386
4   0.031449
5   -0.324845
6   0.004634
7   -0.075081
8   0.29128
9   -0.378681
10   -0.432917
11   0.144888
12   0.143543
13   0.140037
14   0.13982
15   0.154739
16   0.144387
17   0.148989
18   0.148266
19   0.142214
20   0.157488
21   0.14519
22   0.126526

>  <lowdin_charges>
22
1   -0.445703
2   -0.445341
3   -0.112828
4   -0.10705
5   -0.281483
6   -0.116707
7   -0.115961
8   0.038703
9   -0.118635
10   -0.13265
11   0.151504
12   0.148435
13   0.147901
14   0.148922
15   0.153729
16   0.149556
17   0.161972
18   0.163636
19   0.152923
20   0.160764
21   0.161394
22   0.136921

$$$$

