PCCDB-ID:  32526
public computational chemistry database (PCCDB) project, http://pccdb.org

 30 31  0  0  1  0  0  0  0  0999 V2000
    0.8861   -0.0011    0.1162 C   0  0  0  0  0  0  0  0  0  0  0  0
    2.8124   -0.0406    1.6443 C   0  0  0  0  0  0  0  0  0  0  0  0
    2.7446    2.6295   -0.2686 C   0  0  0  0  0  0  0  0  0  0  0  0
    2.6276   -0.7131   -2.1514 C   0  0  0  0  0  0  0  0  0  0  0  0
    2.6009    0.8463   -2.1196 C   0  0  0  0  0  0  0  0  0  0  0  0
    4.6014   -0.7109   -0.6368 C   0  0  0  0  0  0  0  0  0  0  0  0
    3.1030   -1.0757   -0.7240 C   0  0  1  0  0  0  0  0  0  0  0  0
    4.6111    0.8494   -0.6773 C   0  0  1  0  0  0  0  0  0  0  0  0
    2.4279    0.0256    0.1523 C   0  0  0  0  0  0  0  0  0  0  0  0
    3.0719    1.2015   -0.6792 C   0  0  1  0  0  0  0  0  0  0  0  0
    5.4836    1.4179    0.3540 N   0  0  0  0  0  0  0  0  0  0  0  0
    0.5158   -0.9355    0.5564 H   0  0  0  0  0  0  0  0  0  0  0  0
    0.4612    0.0764   -0.8868 H   0  0  0  0  0  0  0  0  0  0  0  0
    0.4713    0.8212    0.7124 H   0  0  0  0  0  0  0  0  0  0  0  0
    2.2748   -0.8653    2.1285 H   0  0  0  0  0  0  0  0  0  0  0  0
    2.5227    0.8796    2.1671 H   0  0  0  0  0  0  0  0  0  0  0  0
    3.8746   -0.2119    1.8307 H   0  0  0  0  0  0  0  0  0  0  0  0
    3.2137    3.3517   -0.9506 H   0  0  0  0  0  0  0  0  0  0  0  0
    3.0963    2.8626    0.7436 H   0  0  0  0  0  0  0  0  0  0  0  0
    1.6643    2.8152   -0.2953 H   0  0  0  0  0  0  0  0  0  0  0  0
    3.3092   -1.1065   -2.9136 H   0  0  0  0  0  0  0  0  0  0  0  0
    1.6378   -1.1286   -2.3672 H   0  0  0  0  0  0  0  0  0  0  0  0
    1.5964    1.2366   -2.3171 H   0  0  0  0  0  0  0  0  0  0  0  0
    3.2615    1.2934   -2.8715 H   0  0  0  0  0  0  0  0  0  0  0  0
    5.1788   -1.1503   -1.4574 H   0  0  0  0  0  0  0  0  0  0  0  0
    5.0630   -1.0626    0.2913 H   0  0  0  0  0  0  0  0  0  0  0  0
    2.8798   -2.1081   -0.4326 H   0  0  0  0  0  0  0  0  0  0  0  0
    5.0359    1.2009   -1.6255 H   0  0  0  0  0  0  0  0  0  0  0  0
    5.1071    1.2600    1.2855 H   0  0  0  0  0  0  0  0  0  0  0  0
    5.5453    2.4283    0.2395 H   0  0  0  0  0  0  0  0  0  0  0  0
  1  9  1  0  0  0  0
  1 12  1  0  0  0  0
  1 14  1  0  0  0  0
  2 17  1  0  0  0  0
  2 15  1  0  0  0  0
  2 16  1  0  0  0  0
  3 19  1  0  0  0  0
  4  5  1  0  0  0  0
  4  7  1  0  0  0  0
  5 10  1  0  0  0  0
  6 26  1  0  0  0  0
  7  6  1  0  0  0  0
  7 27  1  1  0  0  0
  7  9  1  0  0  0  0
  8 28  1  6  0  0  0
  8  6  1  0  0  0  0
  8 11  1  0  0  0  0
  9  2  1  0  0  0  0
 10  8  1  0  0  0  0
 10  3  1  1  0  0  0
 10  9  1  0  0  0  0
 11 29  1  0  0  0  0
 13  1  1  0  0  0  0
 18  3  1  0  0  0  0
 20  3  1  0  0  0  0
 21  4  1  0  0  0  0
 22  4  1  0  0  0  0
 23  5  1  0  0  0  0
 24  5  1  0  0  0  0
 25  6  1  0  0  0  0
 30 11  1  0  0  0  0
M  END
>  <HBA>
1

>  <HBD>
1

>  <TPSA>
26.02

>  <cid>
32526

>  <dipole>
1.3

>  <excitation_energy_1>
5.46

>  <excitation_energy_2>
5.919

>  <excitation_energy_3>
5.971

>  <excitation_energy_4>
6.172

>  <homo_energy>
-6.006

>  <homo_lumo_gap>
7.9

>  <logP>
2.86

>  <lumo_energy>
1.894

>  <melting_point>
107.56

>  <molecular_refractivity>
48.14

>  <oscillator_strength_1>
0.0142

>  <oscillator_strength_2>
0.0034

>  <oscillator_strength_3>
0.0036

>  <oscillator_strength_4>
0.0228

>  <open_babel_can_smiles>
N[C@H]1C[C@H]2C([C@]1(C)CC2)(C)C

>  <mulliken_charges>
30
1   -0.468508
2   -0.480341
3   -0.486633
4   -0.278094
5   -0.292547
6   -0.282301
7   -0.09847
8   0.019159
9   0.10558
10   0.095063
11   -0.728903
12   0.13944
13   0.146102
14   0.140518
15   0.142692
16   0.141236
17   0.142173
18   0.13797
19   0.131483
20   0.144695
21   0.131656
22   0.135413
23   0.133446
24   0.129586
25   0.133942
26   0.142433
27   0.107276
28   0.123217
29   0.297998
30   0.294719

>  <lowdin_charges>
30
1   -0.448094
2   -0.451239
3   -0.447372
4   -0.286982
5   -0.287144
6   -0.288329
7   -0.134398
8   -0.074217
9   0.00324
10   -0.018392
11   -0.545645
12   0.148722
13   0.150915
14   0.148996
15   0.151981
16   0.148052
17   0.146262
18   0.14922
19   0.142223
20   0.149444
21   0.144334
22   0.14305
23   0.14137
24   0.142446
25   0.147048
26   0.148462
27   0.136082
28   0.138412
29   0.249944
30   0.251609

$$$$

