PCCDB-ID:  7929
public computational chemistry database (PCCDB) project, http://pccdb.org

 18 18  0  0  0  0  0  0  0  0999 V2000
    0.9836   -0.0852    0.0261 C   0  0  0  0  0  0  0  0  0  0  0  0
    5.3047   -2.6660   -0.4420 C   0  0  0  0  0  0  0  0  0  0  0  0
    4.6119    1.0822   -0.2088 C   0  0  0  0  0  0  0  0  0  0  0  0
    3.2217    1.1032   -0.0981 C   0  0  0  0  0  0  0  0  0  0  0  0
    5.2897   -0.1315   -0.3226 C   0  0  0  0  0  0  0  0  0  0  0  0
    3.1895   -1.2987   -0.2156 C   0  0  0  0  0  0  0  0  0  0  0  0
    2.4905   -0.0911   -0.0994 C   0  0  0  0  0  0  0  0  0  0  0  0
    4.5847   -1.3414   -0.3265 C   0  0  0  0  0  0  0  0  0  0  0  0
    0.5844    0.9335   -0.0031 H   0  0  0  0  0  0  0  0  0  0  0  0
    0.6585   -0.5417    0.9699 H   0  0  0  0  0  0  0  0  0  0  0  0
    0.5109   -0.6537   -0.7840 H   0  0  0  0  0  0  0  0  0  0  0  0
    6.3746   -2.5250   -0.6258 H   0  0  0  0  0  0  0  0  0  0  0  0
    4.9011   -3.2722   -1.2621 H   0  0  0  0  0  0  0  0  0  0  0  0
    5.2015   -3.2592    0.4758 H   0  0  0  0  0  0  0  0  0  0  0  0
    5.1692    2.0156   -0.2086 H   0  0  0  0  0  0  0  0  0  0  0  0
    2.6982    2.0526   -0.0112 H   0  0  0  0  0  0  0  0  0  0  0  0
    6.3737   -0.1417   -0.4107 H   0  0  0  0  0  0  0  0  0  0  0  0
    2.6305   -2.2339   -0.2219 H   0  0  0  0  0  0  0  0  0  0  0  0
  1 10  1  0  0  0  0
  2  8  1  0  0  0  0
  2 14  1  0  0  0  0
  3 15  1  0  0  0  0
  3  4  2  0  0  0  0
  4 16  1  0  0  0  0
  5  3  1  0  0  0  0
  6  7  2  0  0  0  0
  7  4  1  0  0  0  0
  7  1  1  0  0  0  0
  8  5  2  0  0  0  0
  8  6  1  0  0  0  0
  9  1  1  0  0  0  0
 11  1  1  0  0  0  0
 12  2  1  0  0  0  0
 13  2  1  0  0  0  0
 17  5  1  0  0  0  0
 18  6  1  0  0  0  0
M  END
>  <HBA>
0

>  <HBD>
0

>  <TPSA>
0.0

>  <cid>
7929

>  <dipole>
0.37

>  <excitation_energy_1>
5.173

>  <excitation_energy_2>
5.786

>  <excitation_energy_3>
5.933

>  <excitation_energy_4>
6.074

>  <homo_energy>
-6.275

>  <homo_lumo_gap>
6.384

>  <logP>
2.303

>  <lumo_energy>
0.109

>  <melting_point>
11.99

>  <molecular_refractivity>
36.37

>  <oscillator_strength_1>
0.008

>  <oscillator_strength_2>
0.0

>  <oscillator_strength_3>
0.0

>  <oscillator_strength_4>
0.0031

>  <open_babel_can_smiles>
Cc1cccc(c1)C

>  <mulliken_charges>
18
1   -0.529695
2   -0.529598
3   -0.1229
4   -0.186785
5   -0.186855
6   -0.229378
7   0.181606
8   0.181637
9   0.153429
10   0.161938
11   0.159566
12   0.153345
13   0.159597
14   0.161882
15   0.124714
16   0.117989
17   0.118056
18   0.111453

>  <lowdin_charges>
18
1   -0.443204
2   -0.441867
3   -0.15496
4   -0.175744
5   -0.172742
6   -0.177355
7   0.003852
8   0.002841
9   0.155131
10   0.160244
11   0.160225
12   0.1542
13   0.160105
14   0.160306
15   0.155843
16   0.152662
17   0.150501
18   0.149963

$$$$

