PCCDB-ID:  11576
public computational chemistry database (PCCDB) project, http://pccdb.org

 25 24  0  0  0  0  0  0  0  0999 V2000
    2.9526   -0.4388   -1.4217 C   0  0  0  0  0  0  0  0  0  0  0  0
    4.9763    6.7819   -1.8310 C   0  0  0  0  0  0  0  0  0  0  0  0
    2.0291    0.3226   -0.4621 C   0  0  0  0  0  0  0  0  0  0  0  0
    2.4248    1.7902   -0.2243 C   0  0  0  0  0  0  0  0  0  0  0  0
    3.7570    1.9426    0.5042 C   0  0  0  0  0  0  0  0  0  0  0  0
    4.8028    5.5143    0.4323 C   0  0  0  0  0  0  0  0  0  0  0  0
    4.2158    6.5506   -0.5446 C   0  0  0  0  0  0  0  0  0  0  0  0
    4.6161    4.0895   -0.0712 C   0  0  0  0  0  0  0  0  0  0  0  0
    3.1952    7.1433   -0.2615 O   0  0  0  0  0  0  0  0  0  0  0  0
    4.9791    3.6889   -1.1588 O   0  0  0  0  0  0  0  0  0  0  0  0
    4.0024    3.3300    0.8543 O   0  0  0  0  0  0  0  0  0  0  0  0
    2.5761   -1.4514   -1.6045 H   0  0  0  0  0  0  0  0  0  0  0  0
    3.9701   -0.5351   -1.0260 H   0  0  0  0  0  0  0  0  0  0  0  0
    3.0222    0.0722   -2.3895 H   0  0  0  0  0  0  0  0  0  0  0  0
    5.9589    7.2178   -1.6066 H   0  0  0  0  0  0  0  0  0  0  0  0
    4.4166    7.4612   -2.4768 H   0  0  0  0  0  0  0  0  0  0  0  0
    5.1589    5.8259   -2.3329 H   0  0  0  0  0  0  0  0  0  0  0  0
    1.9838   -0.2034    0.5023 H   0  0  0  0  0  0  0  0  0  0  0  0
    1.0072    0.3074   -0.8616 H   0  0  0  0  0  0  0  0  0  0  0  0
    1.6499    2.2865    0.3731 H   0  0  0  0  0  0  0  0  0  0  0  0
    2.4837    2.3199   -1.1831 H   0  0  0  0  0  0  0  0  0  0  0  0
    4.5951    1.5816   -0.0951 H   0  0  0  0  0  0  0  0  0  0  0  0
    3.7438    1.4216    1.4658 H   0  0  0  0  0  0  0  0  0  0  0  0
    4.3251    5.6386    1.4042 H   0  0  0  0  0  0  0  0  0  0  0  0
    5.8836    5.6792    0.5290 H   0  0  0  0  0  0  0  0  0  0  0  0
  1 13  1  0  0  0  0
  1  3  1  0  0  0  0
  2 15  1  0  0  0  0
  2  7  1  0  0  0  0
  3  4  1  0  0  0  0
  3 18  1  0  0  0  0
  4 20  1  0  0  0  0
  4  5  1  0  0  0  0
  5 11  1  0  0  0  0
  5 23  1  0  0  0  0
  6 25  1  0  0  0  0
  6 24  1  0  0  0  0
  7  9  2  0  0  0  0
  7  6  1  0  0  0  0
  8  6  1  0  0  0  0
  8 11  1  0  0  0  0
 10  8  2  0  0  0  0
 12  1  1  0  0  0  0
 14  1  1  0  0  0  0
 16  2  1  0  0  0  0
 17  2  1  0  0  0  0
 19  3  1  0  0  0  0
 21  4  1  0  0  0  0
 22  5  1  0  0  0  0
M  END
>  <HBA>
3

>  <HBD>
0

>  <TPSA>
43.37

>  <cid>
11576

>  <dipole>
2.35

>  <excitation_energy_1>
4.357

>  <excitation_energy_2>
5.64

>  <excitation_energy_3>
5.983

>  <excitation_energy_4>
6.415

>  <homo_energy>
-6.819

>  <homo_lumo_gap>
6.161

>  <logP>
1.309

>  <lumo_energy>
-0.659

>  <melting_point>
5.94

>  <molecular_refractivity>
42.05

>  <oscillator_strength_1>
0.0014

>  <oscillator_strength_2>
0.0064

>  <oscillator_strength_3>
0.0218

>  <oscillator_strength_4>
0.0122

>  <open_babel_can_smiles>
CCCCOC(=O)CC(=O)C

>  <mulliken_charges>
25
1   -0.445764
2   -0.538021
3   -0.261747
4   -0.276013
5   -0.051001
6   -0.435777
7   0.451285
8   0.618669
9   -0.421207
10   -0.473889
11   -0.450584
12   0.147101
13   0.145896
14   0.152426
15   0.166666
16   0.1766
17   0.20715
18   0.133431
19   0.143408
20   0.149019
21   0.158689
22   0.173234
23   0.152421
24   0.19318
25   0.184829

>  <lowdin_charges>
25
1   -0.445709
2   -0.480506
3   -0.271314
4   -0.28899
5   -0.132842
6   -0.32811
7   0.171777
8   0.200416
9   -0.222896
10   -0.274531
11   -0.180677
12   0.151863
13   0.146177
14   0.151739
15   0.170539
16   0.172995
17   0.188214
18   0.139985
19   0.147961
20   0.153253
21   0.15453
22   0.160817
23   0.152735
24   0.182498
25   0.180075

$$$$

