PCCDB-ID:  48932
public computational chemistry database (PCCDB) project, http://pccdb.org

 36 37  0  0  1  0  0  0  0  0999 V2000
   -0.9570   -2.5324    1.3745 C   0  0  0  0  0  0  0  0  0  0  0  0
   -0.1807   -2.4987    2.5360 C   0  0  0  0  0  0  0  0  0  0  0  0
   -0.3688   -2.2830    0.1322 C   0  0  0  0  0  0  0  0  0  0  0  0
    9.7774   -3.1379   -0.5721 C   0  0  0  0  0  0  0  0  0  0  0  0
    9.9445   -2.4660   -1.9433 C   0  0  0  0  0  0  0  0  0  0  0  0
    1.1805   -2.2161    2.4549 C   0  0  0  0  0  0  0  0  0  0  0  0
    0.9936   -2.0006    0.0468 C   0  0  0  0  0  0  0  0  0  0  0  0
    8.2968   -3.4225   -0.2717 C   0  0  0  0  0  0  0  0  0  0  0  0
    5.9491   -2.4292   -0.1994 C   0  0  0  0  0  0  0  0  0  0  0  0
    9.0345   -1.2313   -2.0526 C   0  0  0  0  0  0  0  0  0  0  0  0
    5.1059   -1.1569   -0.2030 C   0  0  0  0  0  0  0  0  0  0  0  0
    1.7745   -1.9654    1.2105 C   0  0  0  0  0  0  0  0  0  0  0  0
    7.4386   -2.1517   -0.4399 C   0  0  2  0  0  0  0  0  0  0  0  0
    3.2360   -1.6671    1.1849 C   0  0  0  0  0  0  0  0  0  0  0  0
    7.6232   -1.5045   -1.7513 N   0  0  0  0  0  0  0  0  0  0  0  0
    3.9376   -1.6143    2.1781 O   0  0  0  0  0  0  0  0  0  0  0  0
    3.6964   -1.4587   -0.0693 O   0  0  0  0  0  0  0  0  0  0  0  0
   -2.0198   -2.7514    1.4376 H   0  0  0  0  0  0  0  0  0  0  0  0
   -0.6368   -2.6939    3.5026 H   0  0  0  0  0  0  0  0  0  0  0  0
   -0.9724   -2.3086   -0.7710 H   0  0  0  0  0  0  0  0  0  0  0  0
   10.1800   -2.4720    0.2057 H   0  0  0  0  0  0  0  0  0  0  0  0
   10.3629   -4.0642   -0.5207 H   0  0  0  0  0  0  0  0  0  0  0  0
    9.6780   -3.1792   -2.7379 H   0  0  0  0  0  0  0  0  0  0  0  0
   10.9920   -2.1827   -2.1119 H   0  0  0  0  0  0  0  0  0  0  0  0
    1.8033   -2.1825    3.3428 H   0  0  0  0  0  0  0  0  0  0  0  0
    1.4575   -1.8068   -0.9137 H   0  0  0  0  0  0  0  0  0  0  0  0
    8.1823   -3.8231    0.7443 H   0  0  0  0  0  0  0  0  0  0  0  0
    7.9218   -4.1964   -0.9597 H   0  0  0  0  0  0  0  0  0  0  0  0
    5.5721   -3.1134   -0.9735 H   0  0  0  0  0  0  0  0  0  0  0  0
    5.8270   -2.9346    0.7645 H   0  0  0  0  0  0  0  0  0  0  0  0
    9.0911   -0.7892   -3.0544 H   0  0  0  0  0  0  0  0  0  0  0  0
    9.3775   -0.4610   -1.3472 H   0  0  0  0  0  0  0  0  0  0  0  0
    5.1936   -0.6301   -1.1533 H   0  0  0  0  0  0  0  0  0  0  0  0
    5.4036   -0.4912    0.6115 H   0  0  0  0  0  0  0  0  0  0  0  0
    7.7777   -1.4193    0.3104 H   0  0  0  0  0  0  0  0  0  0  0  0
    7.2533   -2.1312   -2.4691 H   0  0  0  0  0  0  0  0  0  0  0  0
  1 18  1  0  0  0  0
  1  2  2  0  0  0  0
  2 19  1  0  0  0  0
  3  1  1  0  0  0  0
  4 22  1  0  0  0  0
  4  8  1  0  0  0  0
  4 21  1  0  0  0  0
  5  4  1  0  0  0  0
  6  2  1  0  0  0  0
  6 25  1  0  0  0  0
  7  3  2  0  0  0  0
  7 12  1  0  0  0  0
  8 27  1  0  0  0  0
  9 30  1  0  0  0  0
 10  5  1  0  0  0  0
 10 15  1  0  0  0  0
 10 32  1  0  0  0  0
 11  9  1  0  0  0  0
 11 17  1  0  0  0  0
 11 34  1  0  0  0  0
 12  6  2  0  0  0  0
 13  8  1  0  0  0  0
 13  9  1  0  0  0  0
 13 35  1  1  0  0  0
 14 12  1  0  0  0  0
 14 16  2  0  0  0  0
 15 13  1  0  0  0  0
 17 14  1  0  0  0  0
 20  3  1  0  0  0  0
 23  5  1  0  0  0  0
 24  5  1  0  0  0  0
 26  7  1  0  0  0  0
 28  8  1  0  0  0  0
 29  9  1  0  0  0  0
 31 10  1  0  0  0  0
 33 11  1  0  0  0  0
 36 15  1  0  0  0  0
M  END
>  <HBA>
3

>  <HBD>
1

>  <TPSA>
38.33

>  <cid>
48932

>  <dipole>
2.11

>  <excitation_energy_1>
4.223

>  <excitation_energy_2>
4.839

>  <excitation_energy_3>
4.929

>  <excitation_energy_4>
5.253

>  <homo_energy>
-5.889

>  <homo_lumo_gap>
4.792

>  <logP>
2.704

>  <lumo_energy>
-1.097

>  <melting_point>
75.03

>  <molecular_refractivity>
71.17

>  <oscillator_strength_1>
0.0063

>  <oscillator_strength_2>
0.0001

>  <oscillator_strength_3>
0.0169

>  <oscillator_strength_4>
0.0002

>  <open_babel_can_smiles>
O=C(c1ccccc1)OCC[C@H]1CCCCN1

>  <mulliken_charges>
36
1   -0.117527
2   -0.138598
3   -0.136975
4   -0.263523
5   -0.261908
6   -0.152405
7   -0.158645
8   -0.259476
9   -0.293375
10   -0.142062
11   -0.038519
12   0.048072
13   0.021936
14   0.595013
15   -0.542802
16   -0.497015
17   -0.48519
18   0.135537
19   0.136528
20   0.134962
21   0.131187
22   0.134813
23   0.124045
24   0.131197
25   0.162224
26   0.155776
27   0.134553
28   0.120815
29   0.132018
30   0.16472
31   0.138202
32   0.139158
33   0.170575
34   0.163112
35   0.13085
36   0.282726

>  <lowdin_charges>
36
1   -0.138953
2   -0.156867
3   -0.158784
4   -0.280507
5   -0.29403
6   -0.132186
7   -0.13996
8   -0.292321
9   -0.291765
10   -0.209428
11   -0.129484
12   -0.044786
13   -0.068245
14   0.198672
15   -0.363693
16   -0.27865
17   -0.193201
18   0.158698
19   0.160912
20   0.160694
21   0.140384
22   0.145442
23   0.13634
24   0.144202
25   0.177026
26   0.171938
27   0.146096
28   0.136459
29   0.143302
30   0.161086
31   0.144688
32   0.141737
33   0.161708
34   0.157582
35   0.138879
36   0.247016

$$$$

