PCCDB-ID:  29779
public computational chemistry database (PCCDB) project, http://pccdb.org

 25 25  0  0  0  0  0  0  0  0999 V2000
    1.3003   -0.2804    0.4470 C   0  0  0  0  0  0  0  0  0  0  0  0
    2.5977   -0.1238   -0.3513 C   0  0  0  0  0  0  0  0  0  0  0  0
    3.6243    4.0264    1.4147 C   0  0  0  0  0  0  0  0  0  0  0  0
    2.9653    4.3603    0.0702 C   0  0  0  0  0  0  0  0  0  0  0  0
    3.4598    2.5734    1.8796 C   0  0  0  0  0  0  0  0  0  0  0  0
    3.4861    3.5250   -1.1184 C   0  0  0  0  0  0  0  0  0  0  0  0
    4.0302    1.5244    0.9084 C   0  0  0  0  0  0  0  0  0  0  0  0
    2.8697    2.1313   -1.2260 C   0  0  0  0  0  0  0  0  0  0  0  0
    3.1902    1.2152   -0.2523 N   0  0  0  0  0  0  0  0  0  0  0  0
    2.1085    1.8543   -2.1507 O   0  0  0  0  0  0  0  0  0  0  0  0
    0.9031   -1.2960    0.3323 H   0  0  0  0  0  0  0  0  0  0  0  0
    0.5465    0.4244    0.0826 H   0  0  0  0  0  0  0  0  0  0  0  0
    1.4568   -0.1003    1.5172 H   0  0  0  0  0  0  0  0  0  0  0  0
    2.4030   -0.3058   -1.4094 H   0  0  0  0  0  0  0  0  0  0  0  0
    3.3465   -0.8498   -0.0119 H   0  0  0  0  0  0  0  0  0  0  0  0
    3.2244    4.6959    2.1874 H   0  0  0  0  0  0  0  0  0  0  0  0
    4.6995    4.2503    1.3428 H   0  0  0  0  0  0  0  0  0  0  0  0
    3.1463    5.4198   -0.1499 H   0  0  0  0  0  0  0  0  0  0  0  0
    1.8753    4.2445    0.1418 H   0  0  0  0  0  0  0  0  0  0  0  0
    2.4012    2.3468    2.0623 H   0  0  0  0  0  0  0  0  0  0  0  0
    3.9768    2.4562    2.8419 H   0  0  0  0  0  0  0  0  0  0  0  0
    4.5826    3.4603   -1.0711 H   0  0  0  0  0  0  0  0  0  0  0  0
    3.2291    4.0161   -2.0597 H   0  0  0  0  0  0  0  0  0  0  0  0
    4.1664    0.5815    1.4452 H   0  0  0  0  0  0  0  0  0  0  0  0
    5.0323    1.8360    0.5785 H   0  0  0  0  0  0  0  0  0  0  0  0
  1 13  1  0  0  0  0
  2  9  1  0  0  0  0
  2 15  1  0  0  0  0
  2  1  1  0  0  0  0
  3  5  1  0  0  0  0
  3 16  1  0  0  0  0
  4 19  1  0  0  0  0
  4  3  1  0  0  0  0
  5 20  1  0  0  0  0
  5 21  1  0  0  0  0
  6 22  1  0  0  0  0
  6  4  1  0  0  0  0
  7 24  1  0  0  0  0
  7  5  1  0  0  0  0
  8  6  1  0  0  0  0
  8  9  1  0  0  0  0
  9  7  1  0  0  0  0
 10  8  2  0  0  0  0
 11  1  1  0  0  0  0
 12  1  1  0  0  0  0
 14  2  1  0  0  0  0
 17  3  1  0  0  0  0
 18  4  1  0  0  0  0
 23  6  1  0  0  0  0
 25  7  1  0  0  0  0
M  END
>  <HBA>
2

>  <HBD>
0

>  <TPSA>
20.31

>  <cid>
29779

>  <dipole>
3.73

>  <excitation_energy_1>
5.425

>  <excitation_energy_2>
5.731

>  <excitation_energy_3>
5.994

>  <excitation_energy_4>
6.032

>  <homo_energy>
-6.223

>  <homo_lumo_gap>
7.143

>  <logP>
1.347

>  <lumo_energy>
0.92

>  <melting_point>
18.71

>  <molecular_refractivity>
45.47

>  <oscillator_strength_1>
0.0024

>  <oscillator_strength_2>
0.0276

>  <oscillator_strength_3>
0.0157

>  <oscillator_strength_4>
0.0435

>  <open_babel_can_smiles>
CCN1CCCCCC1=O

>  <mulliken_charges>
25
1   -0.443941
2   -0.14363
3   -0.261295
4   -0.263821
5   -0.258346
6   -0.352426
7   -0.151124
8   0.572287
9   -0.40412
10   -0.523514
11   0.145326
12   0.169645
13   0.1395
14   0.185688
15   0.135045
16   0.137723
17   0.130234
18   0.142672
19   0.147783
20   0.146585
21   0.135461
22   0.143805
23   0.170846
24   0.151583
25   0.148033

>  <lowdin_charges>
25
1   -0.451184
2   -0.195131
3   -0.278239
4   -0.269763
5   -0.286043
6   -0.302904
7   -0.198121
8   0.152855
9   -0.112942
10   -0.321843
11   0.152637
12   0.162653
13   0.142745
14   0.170206
15   0.141667
16   0.148403
17   0.136287
18   0.148321
19   0.145738
20   0.146393
21   0.148006
22   0.149007
23   0.170798
24   0.156714
25   0.143738

$$$$

