PCCDB-ID:  42436
public computational chemistry database (PCCDB) project, http://pccdb.org

 27 28  0  0  0  0  0  0  0  0999 V2000
    1.2003    0.1751    0.4068 C   0  0  0  0  0  0  0  0  0  0  0  0
    2.1606    6.2321   -1.1944 C   0  0  0  0  0  0  0  0  0  0  0  0
    4.9063    4.5924   -3.9603 C   0  0  0  0  0  0  0  0  0  0  0  0
    4.0297    5.1877   -3.0453 C   0  0  0  0  0  0  0  0  0  0  0  0
    5.1301    3.2196   -3.9741 C   0  0  0  0  0  0  0  0  0  0  0  0
    2.8056    2.0777   -1.2703 C   0  0  0  0  0  0  0  0  0  0  0  0
    4.4051    0.3202   -1.8991 C   0  0  0  0  0  0  0  0  0  0  0  0
    2.4498   -0.2302   -0.3620 C   0  0  0  0  0  0  0  0  0  0  0  0
    3.1584    0.7750   -1.1785 C   0  0  0  0  0  0  0  0  0  0  0  0
    3.5571    2.9801   -2.1166 C   0  0  0  0  0  0  0  0  0  0  0  0
    3.3513    4.3801   -2.1300 C   0  0  0  0  0  0  0  0  0  0  0  0
    4.4649    2.4212   -3.0407 C   0  0  0  0  0  0  0  0  0  0  0  0
    2.8765   -1.3798   -0.3007 O   0  0  0  0  0  0  0  0  0  0  0  0
    2.4633    4.8442   -1.2055 O   0  0  0  0  0  0  0  0  0  0  0  0
    4.6576    1.0784   -3.0988 O   0  0  0  0  0  0  0  0  0  0  0  0
    0.4244    0.5556   -0.2673 H   0  0  0  0  0  0  0  0  0  0  0  0
    1.4218    0.9662    1.1329 H   0  0  0  0  0  0  0  0  0  0  0  0
    0.8208   -0.7007    0.9361 H   0  0  0  0  0  0  0  0  0  0  0  0
    1.4151    6.3681   -0.4091 H   0  0  0  0  0  0  0  0  0  0  0  0
    1.7435    6.5590   -2.1552 H   0  0  0  0  0  0  0  0  0  0  0  0
    3.0483    6.8332   -0.9607 H   0  0  0  0  0  0  0  0  0  0  0  0
    5.4317    5.2244   -4.6711 H   0  0  0  0  0  0  0  0  0  0  0  0
    3.8878    6.2612   -3.0576 H   0  0  0  0  0  0  0  0  0  0  0  0
    5.8092    2.7551   -4.6804 H   0  0  0  0  0  0  0  0  0  0  0  0
    1.9447    2.4745   -0.7433 H   0  0  0  0  0  0  0  0  0  0  0  0
    4.3161   -0.7190   -2.2160 H   0  0  0  0  0  0  0  0  0  0  0  0
    5.2878    0.3976   -1.2441 H   0  0  0  0  0  0  0  0  0  0  0  0
  1 18  1  0  0  0  0
  1 17  1  0  0  0  0
  2 21  1  0  0  0  0
  2 19  1  0  0  0  0
  3  4  1  0  0  0  0
  4 11  2  0  0  0  0
  5  3  2  0  0  0  0
  5 12  1  0  0  0  0
  6  9  2  0  0  0  0
  6 25  1  0  0  0  0
  7 27  1  0  0  0  0
  7  9  1  0  0  0  0
  8 13  2  0  0  0  0
  8  1  1  0  0  0  0
  9  8  1  0  0  0  0
 10  6  1  0  0  0  0
 11 10  1  0  0  0  0
 11 14  1  0  0  0  0
 12 10  2  0  0  0  0
 14  2  1  0  0  0  0
 15 12  1  0  0  0  0
 15  7  1  0  0  0  0
 16  1  1  0  0  0  0
 20  2  1  0  0  0  0
 22  3  1  0  0  0  0
 23  4  1  0  0  0  0
 24  5  1  0  0  0  0
 26  7  1  0  0  0  0
M  END
>  <HBA>
3

>  <HBD>
0

>  <TPSA>
35.53

>  <cid>
42436

>  <dipole>
5.23

>  <excitation_energy_1>
3.415

>  <excitation_energy_2>
3.516

>  <excitation_energy_3>
3.741

>  <excitation_energy_4>
5.208

>  <homo_energy>
-5.815

>  <homo_lumo_gap>
4.022

>  <logP>
2.06

>  <lumo_energy>
-1.793

>  <melting_point>
85.12

>  <molecular_refractivity>
57.22

>  <oscillator_strength_1>
0.0633

>  <oscillator_strength_2>
0.0169

>  <oscillator_strength_3>
0.3308

>  <oscillator_strength_4>
0.0307

>  <open_babel_can_smiles>
COc1cccc2c1C=C(CO2)C(=O)C

>  <mulliken_charges>
27
1   -0.539941
2   -0.217227
3   -0.136112
4   -0.206252
5   -0.181417
6   -0.154943
7   -0.091819
8   0.419574
9   0.013044
10   0.031249
11   0.322152
12   0.329153
13   -0.471355
14   -0.510852
15   -0.52435
16   0.169118
17   0.169157
18   0.179562
19   0.173032
20   0.158275
21   0.158123
22   0.137792
23   0.1332
24   0.141387
25   0.158235
26   0.186532
27   0.154683

>  <lowdin_charges>
27
1   -0.477426
2   -0.276557
3   -0.127119
4   -0.234367
5   -0.203811
6   -0.118156
7   -0.116756
8   0.152189
9   -0.077834
10   -0.080712
11   0.113166
12   0.122691
13   -0.257201
14   -0.196109
15   -0.19311
16   0.169613
17   0.169589
18   0.175027
19   0.165307
20   0.149164
21   0.149524
22   0.164165
23   0.162325
24   0.171078
25   0.175173
26   0.173115
27   0.147033

$$$$

