PCCDB-ID:  27777
public computational chemistry database (PCCDB) project, http://pccdb.org

 39 39  0  0  0  0  0  0  0  0999 V2000
    2.7757    2.2753   -3.0764 C   0  0  0  0  0  0  0  0  0  0  0  0
    3.5800   -0.2418    0.6223 C   0  0  0  0  0  0  0  0  0  0  0  0
   10.0531    0.3210   -0.8350 C   0  0  0  0  0  0  0  0  0  0  0  0
    8.2693   -1.2813   -0.3023 C   0  0  0  0  0  0  0  0  0  0  0  0
    6.5921    5.3388   -2.5888 C   0  0  0  0  0  0  0  0  0  0  0  0
    8.9465    4.6986   -2.3063 C   0  0  0  0  0  0  0  0  0  0  0  0
    3.1666    2.2593   -1.5949 C   0  0  0  0  0  0  0  0  0  0  0  0
    3.7535   -0.0748   -0.8905 C   0  0  0  0  0  0  0  0  0  0  0  0
    7.6887    0.9796   -1.1043 C   0  0  0  0  0  0  0  0  0  0  0  0
    7.1611    3.0632   -1.8209 C   0  0  0  0  0  0  0  0  0  0  0  0
    5.5199    1.5764   -1.3539 C   0  0  0  0  0  0  0  0  0  0  0  0
    8.1305    2.1866   -1.5016 N   0  0  0  0  0  0  0  0  0  0  0  0
    6.3966    0.6182   -1.0005 N   0  0  0  0  0  0  0  0  0  0  0  0
    5.8396    2.8144   -1.7748 N   0  0  0  0  0  0  0  0  0  0  0  0
    8.6312    0.0417   -0.7747 N   0  0  0  0  0  0  0  0  0  0  0  0
    7.5511    4.3101   -2.2333 N   0  0  0  0  0  0  0  0  0  0  0  0
    4.1915    1.2656   -1.2784 N   0  0  0  0  0  0  0  0  0  0  0  0
    1.9849    3.0137   -3.2567 H   0  0  0  0  0  0  0  0  0  0  0  0
    2.4043    1.2966   -3.4022 H   0  0  0  0  0  0  0  0  0  0  0  0
    3.6420    2.5376   -3.6907 H   0  0  0  0  0  0  0  0  0  0  0  0
    3.2252   -1.2524    0.8586 H   0  0  0  0  0  0  0  0  0  0  0  0
    2.8522    0.4737    1.0226 H   0  0  0  0  0  0  0  0  0  0  0  0
    4.5356   -0.0821    1.1303 H   0  0  0  0  0  0  0  0  0  0  0  0
   10.5587   -0.4245   -1.4645 H   0  0  0  0  0  0  0  0  0  0  0  0
   10.5017    0.2765    0.1684 H   0  0  0  0  0  0  0  0  0  0  0  0
   10.2092    1.3126   -1.2531 H   0  0  0  0  0  0  0  0  0  0  0  0
    8.6898   -2.0526   -0.9633 H   0  0  0  0  0  0  0  0  0  0  0  0
    7.1859   -1.3733   -0.2830 H   0  0  0  0  0  0  0  0  0  0  0  0
    8.6673   -1.4500    0.7088 H   0  0  0  0  0  0  0  0  0  0  0  0
    6.7704    5.6874   -3.6160 H   0  0  0  0  0  0  0  0  0  0  0  0
    6.6873    6.2045   -1.9173 H   0  0  0  0  0  0  0  0  0  0  0  0
    5.5853    4.9342   -2.5148 H   0  0  0  0  0  0  0  0  0  0  0  0
    9.1988    5.0252   -3.3251 H   0  0  0  0  0  0  0  0  0  0  0  0
    9.5717    3.8519   -2.0335 H   0  0  0  0  0  0  0  0  0  0  0  0
    9.1504    5.5358   -1.6230 H   0  0  0  0  0  0  0  0  0  0  0  0
    2.2906    2.0353   -0.9743 H   0  0  0  0  0  0  0  0  0  0  0  0
    3.5383    3.2415   -1.2980 H   0  0  0  0  0  0  0  0  0  0  0  0
    2.8042   -0.2693   -1.4040 H   0  0  0  0  0  0  0  0  0  0  0  0
    4.4827   -0.7963   -1.2637 H   0  0  0  0  0  0  0  0  0  0  0  0
  1  7  1  0  0  0  0
  2 21  1  0  0  0  0
  2 22  1  0  0  0  0
  2 23  1  0  0  0  0
  3 15  1  0  0  0  0
  3 25  1  0  0  0  0
  4 28  1  0  0  0  0
  4 29  1  0  0  0  0
  5 32  1  0  0  0  0
  5 16  1  0  0  0  0
  5 31  1  0  0  0  0
  6 16  1  0  0  0  0
  6 34  1  0  0  0  0
  6 35  1  0  0  0  0
  7 37  1  0  0  0  0
  7 17  1  0  0  0  0
  7 36  1  0  0  0  0
  8  2  1  0  0  0  0
  9 13  1  0  0  0  0
  9 15  1  0  0  0  0
 10 14  1  0  0  0  0
 10 12  2  0  0  0  0
 11 17  1  0  0  0  0
 11 13  2  0  0  0  0
 12  9  2  0  0  0  0
 14 11  1  0  0  0  0
 15  4  1  0  0  0  0
 16 10  1  0  0  0  0
 17  8  1  0  0  0  0
 18  1  1  0  0  0  0
 19  1  1  0  0  0  0
 20  1  1  0  0  0  0
 24  3  1  0  0  0  0
 26  3  1  0  0  0  0
 27  4  1  0  0  0  0
 30  5  1  0  0  0  0
 33  6  1  0  0  0  0
 38  8  1  0  0  0  0
 39  8  1  0  0  0  0
M  RAD  1  14   2
M  END
>  <HBA>
6

>  <HBD>
0

>  <TPSA>
48.39

>  <cid>
27777

>  <dipole>
0.02

>  <excitation_energy_1>
5.17

>  <excitation_energy_2>
5.231

>  <excitation_energy_3>
5.248

>  <excitation_energy_4>
5.307

>  <homo_energy>
-5.606

>  <homo_lumo_gap>
6.376

>  <logP>
0.85

>  <lumo_energy>
0.77

>  <melting_point>
78.55

>  <molecular_refractivity>
72.06

>  <oscillator_strength_1>
0.004

>  <oscillator_strength_2>
0.0003

>  <oscillator_strength_3>
0.0091

>  <oscillator_strength_4>
0.0365

>  <open_babel_can_smiles>
CCN(C1=NC(=[N]=C([N]1)N(C)C)N(C)C)CC

>  <mulliken_charges>
39
1   -0.443426
2   -0.443294
3   -0.31455
4   -0.315315
5   -0.315112
6   -0.314732
7   -0.134222
8   -0.133462
9   0.716909
10   0.716947
11   0.713604
12   -0.607099
13   -0.60672
14   -0.606952
15   -0.462993
16   -0.462898
17   -0.466464
18   0.137708
19   0.142445
20   0.168275
21   0.137523
22   0.142323
23   0.1685
24   0.14413
25   0.144305
26   0.201609
27   0.144037
28   0.202754
29   0.143675
30   0.14389
31   0.143693
32   0.202585
33   0.14412
34   0.201869
35   0.144131
36   0.137076
37   0.17435
38   0.137092
39   0.173689

>  <lowdin_charges>
39
1   -0.45439
2   -0.453732
3   -0.353888
4   -0.353343
5   -0.354305
6   -0.354463
7   -0.194644
8   -0.194316
9   0.147088
10   0.148119
11   0.145414
12   -0.284143
13   -0.284137
14   -0.284297
15   -0.091961
16   -0.092475
17   -0.090715
18   0.149822
19   0.146553
20   0.161186
21   0.148452
22   0.147855
23   0.160615
24   0.14565
25   0.142699
26   0.17974
27   0.14489
28   0.179915
29   0.142464
30   0.142907
31   0.143575
32   0.180915
33   0.14324
34   0.181232
35   0.143952
36   0.14315
37   0.163842
38   0.142614
39   0.16492

$$$$

