PCCDB-ID:  13385
public computational chemistry database (PCCDB) project, http://pccdb.org

  8  8  0  0  0  0  0  0  0  0999 V2000
   -1.1615   -0.0313   -0.0011 C   0  0  0  0  0  0  0  0  0  0  0  0
   -0.3773   -1.1075    0.0026 C   0  0  0  0  0  0  0  0  0  0  0  0
    0.9447    0.6796    0.0011 C   0  0  0  0  0  0  0  0  0  0  0  0
    1.9091    1.3823    0.0012 O   0  0  0  0  0  0  0  0  0  0  0  0
   -0.3640    1.0997   -0.0020 O   0  0  0  0  0  0  0  0  0  0  0  0
    0.9436   -0.6948    0.0040 O   0  0  0  0  0  0  0  0  0  0  0  0
   -2.2287    0.1166   -0.0034 H   0  0  0  0  0  0  0  0  0  0  0  0
   -0.5635   -2.1687    0.0047 H   0  0  0  0  0  0  0  0  0  0  0  0
  1  2  2  0  0  0  0
  2  6  1  0  0  0  0
  2  8  1  0  0  0  0
  3  4  2  0  0  0  0
  3  6  1  0  0  0  0
  5  1  1  0  0  0  0
  5  3  1  0  0  0  0
  7  1  1  0  0  0  0
M  END
>  <HBA>
3

>  <HBD>
0

>  <TPSA>
43.35

>  <cid>
13385

>  <dipole>
4.61

>  <excitation_energy_1>
6.2

>  <excitation_energy_2>
6.46

>  <excitation_energy_3>
6.516

>  <excitation_energy_4>
6.816

>  <homo_energy>
-6.939

>  <homo_lumo_gap>
6.953

>  <logP>
0.233

>  <lumo_energy>
0.014

>  <melting_point>
36.21

>  <molecular_refractivity>
17.24

>  <oscillator_strength_1>
0.0232

>  <oscillator_strength_2>
0.0029

>  <oscillator_strength_3>
0.1095

>  <oscillator_strength_4>
0.1594

>  <open_babel_can_smiles>
O=c1occo1

>  <mulliken_charges>
8
1   0.069055
2   0.068806
3   0.791866
4   -0.45009
5   -0.430956
6   -0.430893
7   0.191108
8   0.191104

>  <lowdin_charges>
8
1   -0.076019
2   -0.076078
3   0.24715
4   -0.217328
5   -0.128195
6   -0.130004
7   0.190157
8   0.190316

$$$$

