PCCDB-ID:  45187
public computational chemistry database (PCCDB) project, http://pccdb.org

 27 28  0  0  1  0  0  0  0  0999 V2000
    1.0280    0.0688   -0.2288 C   0  0  0  0  0  0  0  0  0  0  0  0
    3.8667   -2.0468   -1.0679 C   0  0  0  0  0  0  0  0  0  0  0  0
    4.6282    0.9895    0.8959 C   0  0  0  0  0  0  0  0  0  0  0  0
    5.2326   -0.4338    1.1247 C   0  0  0  0  0  0  0  0  0  0  0  0
    3.1363   -0.3029    2.2394 C   0  0  0  0  0  0  0  0  0  0  0  0
    2.5500   -0.0386   -0.0896 C   0  0  1  0  0  0  0  0  0  0  0  0
    3.1148    0.7597    1.1194 C   0  0  2  0  0  0  0  0  0  0  0  0
    3.9913   -1.3053    1.4283 C   0  0  1  0  0  0  0  0  0  0  0  0
    3.1109   -1.5167    0.1569 C   0  0  2  0  0  0  0  0  0  0  0  0
    2.1101   -2.5493    0.4838 N   0  0  0  0  0  0  0  0  0  0  0  0
    0.7389    1.1062   -0.4348 H   0  0  0  0  0  0  0  0  0  0  0  0
    0.4996   -0.2432    0.6799 H   0  0  0  0  0  0  0  0  0  0  0  0
    0.6502   -0.5439   -1.0565 H   0  0  0  0  0  0  0  0  0  0  0  0
    4.6267   -1.3446   -1.4226 H   0  0  0  0  0  0  0  0  0  0  0  0
    3.1686   -2.2129   -1.8994 H   0  0  0  0  0  0  0  0  0  0  0  0
    4.3458   -3.0050   -0.8407 H   0  0  0  0  0  0  0  0  0  0  0  0
    4.8396    1.3851   -0.1042 H   0  0  0  0  0  0  0  0  0  0  0  0
    5.0261    1.7102    1.6196 H   0  0  0  0  0  0  0  0  0  0  0  0
    5.9027   -0.4396    1.9916 H   0  0  0  0  0  0  0  0  0  0  0  0
    5.8164   -0.7938    0.2733 H   0  0  0  0  0  0  0  0  0  0  0  0
    2.1428   -0.6723    2.5183 H   0  0  0  0  0  0  0  0  0  0  0  0
    3.6326    0.0437    3.1538 H   0  0  0  0  0  0  0  0  0  0  0  0
    2.9876    0.3558   -1.0163 H   0  0  0  0  0  0  0  0  0  0  0  0
    2.5565    1.6770    1.3341 H   0  0  0  0  0  0  0  0  0  0  0  0
    4.2249   -2.2561    1.9153 H   0  0  0  0  0  0  0  0  0  0  0  0
    1.4557   -2.6592   -0.2898 H   0  0  0  0  0  0  0  0  0  0  0  0
    1.5524   -2.2719    1.2884 H   0  0  0  0  0  0  0  0  0  0  0  0
  1  6  1  0  0  0  0
  1 12  1  0  0  0  0
  2 16  1  0  0  0  0
  3  7  1  0  0  0  0
  3  4  1  0  0  0  0
  3 18  1  0  0  0  0
  4  8  1  0  0  0  0
  4 19  1  0  0  0  0
  5 21  1  0  0  0  0
  5 22  1  0  0  0  0
  6 23  1  6  0  0  0
  6  9  1  0  0  0  0
  6  7  1  0  0  0  0
  7 24  1  1  0  0  0
  7  5  1  0  0  0  0
  8 25  1  1  0  0  0
  8  5  1  0  0  0  0
  9  2  1  6  0  0  0
  9 10  1  0  0  0  0
  9  8  1  0  0  0  0
 10 27  1  0  0  0  0
 11  1  1  0  0  0  0
 13  1  1  0  0  0  0
 14  2  1  0  0  0  0
 15  2  1  0  0  0  0
 17  3  1  0  0  0  0
 20  4  1  0  0  0  0
 26 10  1  0  0  0  0
M  END
>  <HBA>
1

>  <HBD>
1

>  <TPSA>
26.02

>  <cid>
45187

>  <dipole>
1.2

>  <excitation_energy_1>
5.468

>  <excitation_energy_2>
6.058

>  <excitation_energy_3>
6.164

>  <excitation_energy_4>
6.343

>  <homo_energy>
-6.087

>  <homo_lumo_gap>
7.883

>  <logP>
2.47

>  <lumo_energy>
1.796

>  <melting_point>
81.87

>  <molecular_refractivity>
43.89

>  <oscillator_strength_1>
0.0166

>  <oscillator_strength_2>
0.0024

>  <oscillator_strength_3>
0.0006

>  <oscillator_strength_4>
0.019

>  <open_babel_can_smiles>
C[C@H]1[C@@H]2CC[C@H]([C@@]1(C)N)C2

>  <mulliken_charges>
27
1   -0.45888
2   -0.458626
3   -0.275074
4   -0.279446
5   -0.288849
6   -0.092678
7   -0.097557
8   -0.098346
9   0.210127
10   -0.728303
11   0.144127
12   0.132646
13   0.134845
14   0.140779
15   0.130412
16   0.155665
17   0.130181
18   0.132396
19   0.135037
20   0.138251
21   0.123474
22   0.132445
23   0.118348
24   0.11009
25   0.125759
26   0.290243
27   0.292934

>  <lowdin_charges>
27
1   -0.448071
2   -0.447178
3   -0.286858
4   -0.288466
5   -0.287947
6   -0.148762
7   -0.134681
8   -0.137172
9   0.057456
10   -0.545424
11   0.149702
12   0.14171
13   0.144965
14   0.148463
15   0.145107
16   0.156258
17   0.140258
18   0.144137
19   0.146008
20   0.146642
21   0.136152
22   0.144449
23   0.137616
24   0.137586
25   0.146919
26   0.251515
27   0.249615

$$$$

