PCCDB-ID:  15307
public computational chemistry database (PCCDB) project, http://pccdb.org

 24 23  0  0  0  0  0  0  0  0999 V2000
    0.7375   -3.2709   -1.1933 C   0  0  0  0  0  0  0  0  0  0  0  0
    1.6784   -2.1839   -0.6643 C   0  0  0  0  0  0  0  0  0  0  0  0
    3.0065   -2.1146   -1.4287 C   0  0  0  0  0  0  0  0  0  0  0  0
    3.9533   -1.0189   -0.9012 C   0  0  0  0  0  0  0  0  0  0  0  0
    5.2734   -0.9857   -1.6199 C   0  0  0  0  0  0  0  0  0  0  0  0
    5.7578    0.0548   -2.3109 C   0  0  0  0  0  0  0  0  0  0  0  0
    7.0681    0.0569   -3.0532 C   0  0  0  0  0  0  0  0  0  0  0  0
    6.9270    0.0104   -4.5843 C   0  0  0  0  0  0  0  0  0  0  0  0
    7.7216    0.5051   -5.3429 O   0  0  0  0  0  0  0  0  0  0  0  0
    5.8534   -0.6772   -5.0438 O   0  0  0  0  0  0  0  0  0  0  0  0
   -0.2003   -3.2953   -0.6273 H   0  0  0  0  0  0  0  0  0  0  0  0
    1.1971   -4.2641   -1.1197 H   0  0  0  0  0  0  0  0  0  0  0  0
    0.4862   -3.0998   -2.2471 H   0  0  0  0  0  0  0  0  0  0  0  0
    1.8835   -2.3617    0.4009 H   0  0  0  0  0  0  0  0  0  0  0  0
    1.1781   -1.2068   -0.7195 H   0  0  0  0  0  0  0  0  0  0  0  0
    2.8062   -1.9347   -2.4947 H   0  0  0  0  0  0  0  0  0  0  0  0
    3.5107   -3.0903   -1.3719 H   0  0  0  0  0  0  0  0  0  0  0  0
    4.1328   -1.1977    0.1700 H   0  0  0  0  0  0  0  0  0  0  0  0
    3.4649   -0.0385   -0.9761 H   0  0  0  0  0  0  0  0  0  0  0  0
    5.8727   -1.8980   -1.5587 H   0  0  0  0  0  0  0  0  0  0  0  0
    5.1680    0.9710   -2.3718 H   0  0  0  0  0  0  0  0  0  0  0  0
    7.6672   -0.8181   -2.7658 H   0  0  0  0  0  0  0  0  0  0  0  0
    7.6673    0.9435   -2.8246 H   0  0  0  0  0  0  0  0  0  0  0  0
    5.3174   -0.9613   -4.2785 H   0  0  0  0  0  0  0  0  0  0  0  0
  1 12  1  0  0  0  0
  1  2  1  0  0  0  0
  1 11  1  0  0  0  0
  2 14  1  0  0  0  0
  3 17  1  0  0  0  0
  3  4  1  0  0  0  0
  3  2  1  0  0  0  0
  4 18  1  0  0  0  0
  5 20  1  0  0  0  0
  5  4  1  0  0  0  0
  6  5  2  0  0  0  0
  7 23  1  0  0  0  0
  7 22  1  0  0  0  0
  7  6  1  0  0  0  0
  8  7  1  0  0  0  0
  9  8  2  0  0  0  0
 10  8  1  0  0  0  0
 10 24  1  0  0  0  0
 13  1  1  0  0  0  0
 15  2  1  0  0  0  0
 16  3  1  0  0  0  0
 19  4  1  0  0  0  0
 21  6  1  0  0  0  0
M  END
>  <HBA>
2

>  <HBD>
1

>  <TPSA>
37.3

>  <cid>
15307

>  <dipole>
5.25

>  <excitation_energy_1>
5.502

>  <excitation_energy_2>
6.177

>  <excitation_energy_3>
6.353

>  <excitation_energy_4>
6.707

>  <homo_energy>
-6.89

>  <homo_lumo_gap>
6.68

>  <logP>
2.208

>  <lumo_energy>
-0.21

>  <melting_point>
59.06

>  <molecular_refractivity>
41.87

>  <oscillator_strength_1>
0.0179

>  <oscillator_strength_2>
0.0977

>  <oscillator_strength_3>
0.0563

>  <oscillator_strength_4>
0.0178

>  <open_babel_can_smiles>
CCCC/C=C/CC(=O)O

>  <mulliken_charges>
24
1   -0.442895
2   -0.24855
3   -0.251922
4   -0.304438
5   -0.089772
6   -0.151102
7   -0.41065
8   0.586381
9   -0.442268
10   -0.564493
11   0.146945
12   0.144016
13   0.145373
14   0.134368
15   0.135177
16   0.133396
17   0.133831
18   0.149958
19   0.144231
20   0.132644
21   0.144314
22   0.183161
23   0.187441
24   0.404854

>  <lowdin_charges>
24
1   -0.441932
2   -0.270112
3   -0.271988
4   -0.270252
5   -0.155603
6   -0.189115
7   -0.315422
8   0.191943
9   -0.243427
10   -0.359899
11   0.15222
12   0.147203
13   0.147131
14   0.139214
15   0.140914
16   0.138213
17   0.140328
18   0.151756
19   0.148452
20   0.151369
21   0.157841
22   0.17588
23   0.180431
24   0.354856

$$$$

