PCCDB-ID:  19401
public computational chemistry database (PCCDB) project, http://pccdb.org

 19 19  0  0  1  0  0  0  0  0999 V2000
    1.5548   -1.0895   -2.3243 C   0  0  0  0  0  0  0  0  0  0  0  0
    1.4637   -0.3101   -1.2473 C   0  0  0  0  0  0  0  0  0  0  0  0
    0.6580    3.5603    0.8045 C   0  0  0  0  0  0  0  0  0  0  0  0
    1.5713    2.7631    1.6663 C   0  0  0  0  0  0  0  0  0  0  0  0
    1.9907    2.1024   -0.6993 C   0  0  0  0  0  0  0  0  0  0  0  0
    2.5291    0.6643   -0.8081 C   0  0  1  0  0  0  0  0  0  0  0  0
    1.0448    2.2060    0.4147 N   0  0  0  0  0  0  0  0  0  0  0  0
    3.1294    0.2639    0.4288 O   0  0  0  0  0  0  0  0  0  0  0  0
    0.7614   -1.7780   -2.6036 H   0  0  0  0  0  0  0  0  0  0  0  0
    2.4299   -1.0719   -2.9716 H   0  0  0  0  0  0  0  0  0  0  0  0
    0.5731   -0.3436   -0.6194 H   0  0  0  0  0  0  0  0  0  0  0  0
    1.0953    4.3919    0.2508 H   0  0  0  0  0  0  0  0  0  0  0  0
   -0.3871    3.6934    1.0752 H   0  0  0  0  0  0  0  0  0  0  0  0
    1.2013    2.3041    2.5812 H   0  0  0  0  0  0  0  0  0  0  0  0
    2.6227    3.0480    1.6912 H   0  0  0  0  0  0  0  0  0  0  0  0
    1.4612    2.3625   -1.6240 H   0  0  0  0  0  0  0  0  0  0  0  0
    2.8398    2.7999   -0.5856 H   0  0  0  0  0  0  0  0  0  0  0  0
    3.3465    0.6564   -1.5379 H   0  0  0  0  0  0  0  0  0  0  0  0
    2.4124    0.2415    1.0835 H   0  0  0  0  0  0  0  0  0  0  0  0
  1  2  2  0  0  0  0
  2  6  1  0  0  0  0
  2 11  1  0  0  0  0
  3 13  1  0  0  0  0
  3  4  1  0  0  0  0
  4 15  1  0  0  0  0
  4 14  1  0  0  0  0
  5 17  1  0  0  0  0
  5  7  1  0  0  0  0
  6 18  1  6  0  0  0
  6  5  1  0  0  0  0
  6  8  1  0  0  0  0
  7  3  1  0  0  0  0
  7  4  1  0  0  0  0
  8 19  1  0  0  0  0
  9  1  1  0  0  0  0
 10  1  1  0  0  0  0
 12  3  1  0  0  0  0
 16  5  1  0  0  0  0
M  END
>  <HBA>
2

>  <HBD>
1

>  <TPSA>
23.24

>  <cid>
19401

>  <dipole>
1.83

>  <excitation_energy_1>
5.777

>  <excitation_energy_2>
6.201

>  <excitation_energy_3>
6.314

>  <excitation_energy_4>
6.419

>  <homo_energy>
-6.487

>  <homo_lumo_gap>
6.963

>  <logP>
-0.213

>  <lumo_energy>
0.476

>  <melting_point>
-17.25

>  <molecular_refractivity>
36.34

>  <oscillator_strength_1>
0.0051

>  <oscillator_strength_2>
0.0338

>  <oscillator_strength_3>
0.0235

>  <oscillator_strength_4>
0.0206

>  <open_babel_can_smiles>
C=C[C@@H](CN1CC1)O

>  <mulliken_charges>
19
1   -0.343165
2   -0.051179
3   -0.189039
4   -0.202104
5   -0.134532
6   0.081696
7   -0.383382
8   -0.627147
9   0.141298
10   0.138526
11   0.139695
12   0.148265
13   0.159536
14   0.15633
15   0.160646
16   0.147998
17   0.122805
18   0.135349
19   0.398404

>  <lowdin_charges>
19
1   -0.333064
2   -0.161549
3   -0.238235
4   -0.246465
5   -0.216386
6   -0.00416
7   -0.207452
8   -0.460972
9   0.159907
10   0.155191
11   0.157661
12   0.151302
13   0.158766
14   0.157178
15   0.153369
16   0.151679
17   0.129964
18   0.148452
19   0.344812

$$$$

