PCCDB-ID:  53542
public computational chemistry database (PCCDB) project, http://pccdb.org

 26 27  0  0  0  0  0  0  0  0999 V2000
    1.2362   -0.2707   -0.8217 C   0  0  0  0  0  0  0  0  0  0  0  0
    9.6659    0.7147    0.9564 C   0  0  0  0  0  0  0  0  0  0  0  0
    8.9578   -0.2354    1.7334 C   0  0  0  0  0  0  0  0  0  0  0  0
    9.0029    1.4921    0.0332 C   0  0  0  0  0  0  0  0  0  0  0  0
    7.6001   -0.3904    1.5700 C   0  0  0  0  0  0  0  0  0  0  0  0
    6.8789    2.1502   -1.0913 C   0  0  0  0  0  0  0  0  0  0  0  0
    5.5228    2.0008   -1.2439 C   0  0  0  0  0  0  0  0  0  0  0  0
    5.4898    0.2477    0.4251 C   0  0  0  0  0  0  0  0  0  0  0  0
    7.6025    1.3577   -0.1590 C   0  0  0  0  0  0  0  0  0  0  0  0
    6.8865    0.3934    0.6227 C   0  0  0  0  0  0  0  0  0  0  0  0
    4.8102    1.0252   -0.4926 C   0  0  0  0  0  0  0  0  0  0  0  0
    3.3250    0.9957   -0.6816 C   0  0  0  0  0  0  0  0  0  0  0  0
    2.6351   -0.1887   -0.4176 N   0  0  0  0  0  0  0  0  0  0  0  0
    2.7044    2.0055   -0.9940 O   0  0  0  0  0  0  0  0  0  0  0  0
    3.3341   -1.3790   -0.7556 O   0  0  0  0  0  0  0  0  0  0  0  0
    0.7349    0.6443   -0.5079 H   0  0  0  0  0  0  0  0  0  0  0  0
    0.7829   -1.1329   -0.3257 H   0  0  0  0  0  0  0  0  0  0  0  0
    1.1372   -0.3813   -1.9087 H   0  0  0  0  0  0  0  0  0  0  0  0
   10.7377    0.8287    1.0945 H   0  0  0  0  0  0  0  0  0  0  0  0
    9.4925   -0.8416    2.4594 H   0  0  0  0  0  0  0  0  0  0  0  0
    9.5444    2.2238   -0.5615 H   0  0  0  0  0  0  0  0  0  0  0  0
    7.0537   -1.1191    2.1644 H   0  0  0  0  0  0  0  0  0  0  0  0
    7.4174    2.8895   -1.6794 H   0  0  0  0  0  0  0  0  0  0  0  0
    4.9641    2.6238   -1.9340 H   0  0  0  0  0  0  0  0  0  0  0  0
    4.9609   -0.4813    1.0306 H   0  0  0  0  0  0  0  0  0  0  0  0
    3.3630   -1.8801    0.0775 H   0  0  0  0  0  0  0  0  0  0  0  0
  1 16  1  0  0  0  0
  1 13  1  0  0  0  0
  1 17  1  0  0  0  0
  2 19  1  0  0  0  0
  2  3  2  0  0  0  0
  3 20  1  0  0  0  0
  4  2  1  0  0  0  0
  5  3  1  0  0  0  0
  5 22  1  0  0  0  0
  6  9  1  0  0  0  0
  7  6  2  0  0  0  0
  7 11  1  0  0  0  0
  8 10  1  0  0  0  0
  8 25  1  0  0  0  0
  9  4  2  0  0  0  0
  9 10  1  0  0  0  0
 10  5  2  0  0  0  0
 11  8  2  0  0  0  0
 12 11  1  0  0  0  0
 12 13  1  0  0  0  0
 14 12  2  0  0  0  0
 15 13  1  0  0  0  0
 15 26  1  0  0  0  0
 18  1  1  0  0  0  0
 21  4  1  0  0  0  0
 23  6  1  0  0  0  0
 24  7  1  0  0  0  0
M  END
>  <HBA>
3

>  <HBD>
1

>  <TPSA>
40.54

>  <cid>
53542

>  <dipole>
3.18

>  <excitation_energy_1>
3.982

>  <excitation_energy_2>
4.287

>  <excitation_energy_3>
4.421

>  <excitation_energy_4>
4.903

>  <homo_energy>
-5.97

>  <homo_lumo_gap>
4.55

>  <logP>
2.301

>  <lumo_energy>
-1.42

>  <melting_point>
140.09

>  <molecular_refractivity>
57.77

>  <oscillator_strength_1>
0.0428

>  <oscillator_strength_2>
0.0338

>  <oscillator_strength_3>
0.0016

>  <oscillator_strength_4>
0.1763

>  <open_babel_can_smiles>
CN(C(=O)c1ccc2c(c1)cccc2)O

>  <mulliken_charges>
26
1   -0.290091
2   -0.132631
3   -0.137217
4   -0.191061
5   -0.185205
6   -0.200887
7   -0.157045
8   -0.220439
9   0.143048
10   0.130169
11   0.098699
12   0.545305
13   -0.261071
14   -0.500796
15   -0.497239
16   0.193164
17   0.148823
18   0.167572
19   0.133797
20   0.132658
21   0.133845
22   0.127844
23   0.134945
24   0.158038
25   0.110374
26   0.415399

>  <lowdin_charges>
26
1   -0.35353
2   -0.151083
3   -0.159176
4   -0.156864
5   -0.154974
6   -0.157547
7   -0.139943
8   -0.141214
9   0.006213
10   -0.002881
11   -0.03256
12   0.162455
13   -0.029038
14   -0.283265
15   -0.377917
16   0.180441
17   0.154311
18   0.153281
19   0.15864
20   0.16128
21   0.160994
22   0.158043
23   0.161767
24   0.176954
25   0.153975
26   0.351637

$$$$

