PCCDB-ID:  11251
public computational chemistry database (PCCDB) project, http://pccdb.org

 16 15  0  0  0  0  0  0  0  0999 V2000
    1.0075   -0.0312   -0.0833 C   0  0  0  0  0  0  0  0  0  0  0  0
    3.0785   -1.4928    0.1055 C   0  0  0  0  0  0  0  0  0  0  0  0
    3.2856    2.0219   -1.4620 C   0  0  0  0  0  0  0  0  0  0  0  0
    2.5515   -0.0676   -0.0947 C   0  0  0  0  0  0  0  0  0  0  0  0
    3.0402    0.5229   -1.4235 C   0  0  0  0  0  0  0  0  0  0  0  0
    3.2077   -0.1757   -2.4059 O   0  0  0  0  0  0  0  0  0  0  0  0
    0.6260   -0.4130    0.8701 H   0  0  0  0  0  0  0  0  0  0  0  0
    0.6062   -0.6571   -0.8881 H   0  0  0  0  0  0  0  0  0  0  0  0
    0.6180    0.9847   -0.2168 H   0  0  0  0  0  0  0  0  0  0  0  0
    2.6884   -1.9214    1.0354 H   0  0  0  0  0  0  0  0  0  0  0  0
    4.1728   -1.5097    0.1558 H   0  0  0  0  0  0  0  0  0  0  0  0
    2.7750   -2.1303   -0.7298 H   0  0  0  0  0  0  0  0  0  0  0  0
    4.1838    2.2581   -0.8756 H   0  0  0  0  0  0  0  0  0  0  0  0
    2.4562    2.5750   -1.0055 H   0  0  0  0  0  0  0  0  0  0  0  0
    3.4349    2.3523   -2.4919 H   0  0  0  0  0  0  0  0  0  0  0  0
    2.9112    0.5777    0.7192 H   0  0  0  0  0  0  0  0  0  0  0  0
  1  7  1  0  0  0  0
  2 11  1  0  0  0  0
  2 10  1  0  0  0  0
  3  5  1  0  0  0  0
  3 14  1  0  0  0  0
  3 13  1  0  0  0  0
  4  1  1  0  0  0  0
  4  2  1  0  0  0  0
  4 16  1  0  0  0  0
  5  4  1  0  0  0  0
  6  5  2  0  0  0  0
  8  1  1  0  0  0  0
  9  1  1  0  0  0  0
 12  2  1  0  0  0  0
 15  3  1  0  0  0  0
M  END
>  <HBA>
1

>  <HBD>
0

>  <TPSA>
17.07

>  <cid>
11251

>  <dipole>
2.66

>  <excitation_energy_1>
4.349

>  <excitation_energy_2>
5.996

>  <excitation_energy_3>
6.708

>  <excitation_energy_4>
6.846

>  <homo_energy>
-6.525

>  <homo_lumo_gap>
6.242

>  <logP>
1.231

>  <lumo_energy>
-0.283

>  <melting_point>
-4.51

>  <molecular_refractivity>
26.35

>  <oscillator_strength_1>
0.0002

>  <oscillator_strength_2>
0.0118

>  <oscillator_strength_3>
0.0413

>  <oscillator_strength_4>
0.0028

>  <open_babel_can_smiles>
CC(=O)C(C)C

>  <mulliken_charges>
16
1   -0.452107
2   -0.439604
3   -0.533071
4   -0.152411
5   0.458259
6   -0.444112
7   0.153976
8   0.164925
9   0.145353
10   0.138194
11   0.146507
12   0.169745
13   0.172372
14   0.164394
15   0.178714
16   0.128865

>  <lowdin_charges>
16
1   -0.438551
2   -0.439451
3   -0.477275
4   -0.155429
5   0.169194
6   -0.239251
7   0.155465
8   0.159539
9   0.148607
10   0.148857
11   0.150375
12   0.163551
13   0.172738
14   0.166557
15   0.171059
16   0.144015

$$$$

