PCCDB-ID:  6364
public computational chemistry database (PCCDB) project, http://pccdb.org

 12 11  0  0  0  0  0  0  0  0999 V2000
    0.9744   -0.0267    0.0758 C   0  0  0  0  0  0  0  0  0  0  0  0
    3.0528   -1.3425    0.7296 C   0  0  0  0  0  0  0  0  0  0  0  0
    2.5041   -0.0799    0.0606 C   0  0  0  0  0  0  0  0  0  0  0  0
    3.1869    0.1475   -1.6513 S   0  0  0  0  0  0  0  0  0  0  0  0
    0.6033   -0.0777    1.1076 H   0  0  0  0  0  0  0  0  0  0  0  0
    0.5480   -0.8753   -0.4731 H   0  0  0  0  0  0  0  0  0  0  0  0
    0.6027    0.8944   -0.3816 H   0  0  0  0  0  0  0  0  0  0  0  0
    2.6995   -1.4066    1.7671 H   0  0  0  0  0  0  0  0  0  0  0  0
    4.1463   -1.3483    0.7350 H   0  0  0  0  0  0  0  0  0  0  0  0
    2.7104   -2.2432    0.2056 H   0  0  0  0  0  0  0  0  0  0  0  0
    2.8968    0.8006    0.5837 H   0  0  0  0  0  0  0  0  0  0  0  0
    2.6358   -0.9673   -2.1826 H   0  0  0  0  0  0  0  0  0  0  0  0
  1  5  1  0  0  0  0
  2  9  1  0  0  0  0
  2  8  1  0  0  0  0
  3  1  1  0  0  0  0
  3 11  1  0  0  0  0
  3  2  1  0  0  0  0
  4  3  1  0  0  0  0
  6  1  1  0  0  0  0
  7  1  1  0  0  0  0
 10  2  1  0  0  0  0
 12  4  1  0  0  0  0
M  END
>  <HBA>
1

>  <HBD>
1

>  <TPSA>
38.8

>  <cid>
6364

>  <dipole>
1.84

>  <excitation_energy_1>
5.296

>  <excitation_energy_2>
5.861

>  <excitation_energy_3>
6.232

>  <excitation_energy_4>
6.6

>  <homo_energy>
-6.343

>  <homo_lumo_gap>
7.086

>  <logP>
1.325

>  <lumo_energy>
0.743

>  <melting_point>
-4.31

>  <molecular_refractivity>
24.46

>  <oscillator_strength_1>
0.0165

>  <oscillator_strength_2>
0.0444

>  <oscillator_strength_3>
0.0036

>  <oscillator_strength_4>
0.0036

>  <open_babel_can_smiles>
CC(S)C

>  <mulliken_charges>
12
1   -0.427689
2   -0.427174
3   -0.233617
4   -0.089687
5   0.147475
6   0.145983
7   0.165807
8   0.147254
9   0.165663
10   0.145987
11   0.172152
12   0.087846

>  <lowdin_charges>
12
1   -0.446604
2   -0.443728
3   -0.208148
4   -0.097777
5   0.150549
6   0.150915
7   0.162088
8   0.150265
9   0.159683
10   0.150547
11   0.162167
12   0.110042

$$$$

