PCCDB-ID:  34549
public computational chemistry database (PCCDB) project, http://pccdb.org

 36 37  0  0  0  0  0  0  0  0999 V2000
    2.7401    4.4307   -0.1278 C   0  0  0  0  0  0  0  0  0  0  0  0
   11.3723   -4.0381   -0.9646 C   0  0  0  0  0  0  0  0  0  0  0  0
    6.3584    1.9299    2.3550 C   0  0  0  0  0  0  0  0  0  0  0  0
    7.7472   -1.5466   -3.4490 C   0  0  0  0  0  0  0  0  0  0  0  0
    4.1207    2.6386   -1.2767 C   0  0  0  0  0  0  0  0  0  0  0  0
    9.9327   -2.3075    0.2038 C   0  0  0  0  0  0  0  0  0  0  0  0
    5.1322    1.6887   -1.2689 C   0  0  0  0  0  0  0  0  0  0  0  0
    8.9245   -1.3548    0.1942 C   0  0  0  0  0  0  0  0  0  0  0  0
    4.5631    3.1201    1.0384 C   0  0  0  0  0  0  0  0  0  0  0  0
    9.5259   -2.7536   -2.1249 C   0  0  0  0  0  0  0  0  0  0  0  0
    3.8198    3.3752   -0.1209 C   0  0  0  0  0  0  0  0  0  0  0  0
   10.2544   -3.0233   -0.9601 C   0  0  0  0  0  0  0  0  0  0  0  0
    5.5871    2.1705    1.0792 C   0  0  0  0  0  0  0  0  0  0  0  0
    8.5047   -1.8005   -2.1676 C   0  0  0  0  0  0  0  0  0  0  0  0
    5.8726    1.4457   -0.1003 C   0  0  0  0  0  0  0  0  0  0  0  0
    8.2049   -1.0903   -0.9832 C   0  0  0  0  0  0  0  0  0  0  0  0
    6.9152    0.4939   -0.0091 N   0  0  0  0  0  0  0  0  0  0  0  0
    7.1621   -0.1387   -1.0746 N   0  0  0  0  0  0  0  0  0  0  0  0
    2.0444    4.2867   -0.9608 H   0  0  0  0  0  0  0  0  0  0  0  0
    3.1693    5.4366   -0.2295 H   0  0  0  0  0  0  0  0  0  0  0  0
    2.1622    4.4207    0.8032 H   0  0  0  0  0  0  0  0  0  0  0  0
   11.5444   -4.4494    0.0355 H   0  0  0  0  0  0  0  0  0  0  0  0
   12.3164   -3.5860   -1.2978 H   0  0  0  0  0  0  0  0  0  0  0  0
   11.1570   -4.8711   -1.6427 H   0  0  0  0  0  0  0  0  0  0  0  0
    6.0026    2.5919    3.1509 H   0  0  0  0  0  0  0  0  0  0  0  0
    7.4303    2.1046    2.2149 H   0  0  0  0  0  0  0  0  0  0  0  0
    6.2532    0.8948    2.6974 H   0  0  0  0  0  0  0  0  0  0  0  0
    8.1118   -2.1999   -4.2480 H   0  0  0  0  0  0  0  0  0  0  0  0
    7.8554   -0.5078   -3.7792 H   0  0  0  0  0  0  0  0  0  0  0  0
    6.6739   -1.7232   -3.3224 H   0  0  0  0  0  0  0  0  0  0  0  0
    3.5524    2.8139   -2.1875 H   0  0  0  0  0  0  0  0  0  0  0  0
   10.4800   -2.5045    1.1230 H   0  0  0  0  0  0  0  0  0  0  0  0
    5.3688    1.1143   -2.1576 H   0  0  0  0  0  0  0  0  0  0  0  0
    8.6688   -0.7999    1.0899 H   0  0  0  0  0  0  0  0  0  0  0  0
    4.3358    3.6801    1.9436 H   0  0  0  0  0  0  0  0  0  0  0  0
    9.7602   -3.3066   -3.0326 H   0  0  0  0  0  0  0  0  0  0  0  0
  1 11  1  0  0  0  0
  1 21  1  0  0  0  0
  2 12  1  0  0  0  0
  2 22  1  0  0  0  0
  3 27  1  0  0  0  0
  3 25  1  0  0  0  0
  4 30  1  0  0  0  0
  4 14  1  0  0  0  0
  5  7  2  0  0  0  0
  5 11  1  0  0  0  0
  6 32  1  0  0  0  0
  7 15  1  0  0  0  0
  8  6  1  0  0  0  0
  8 34  1  0  0  0  0
  9 13  1  0  0  0  0
  9 35  1  0  0  0  0
 10 12  1  0  0  0  0
 11  9  2  0  0  0  0
 12  6  2  0  0  0  0
 13  3  1  0  0  0  0
 14 10  2  0  0  0  0
 14 16  1  0  0  0  0
 15 17  1  0  0  0  0
 15 13  2  0  0  0  0
 16  8  2  0  0  0  0
 18 16  1  0  0  0  0
 18 17  2  0  0  0  0
 19  1  1  0  0  0  0
 20  1  1  0  0  0  0
 23  2  1  0  0  0  0
 24  2  1  0  0  0  0
 26  3  1  0  0  0  0
 28  4  1  0  0  0  0
 29  4  1  0  0  0  0
 31  5  1  0  0  0  0
 33  7  1  0  0  0  0
 36 10  1  0  0  0  0
M  END
>  <HBA>
2

>  <HBD>
0

>  <TPSA>
24.72

>  <cid>
34549

>  <dipole>
0.09

>  <excitation_energy_1>
2.477

>  <excitation_energy_2>
3.31

>  <excitation_energy_3>
3.799

>  <excitation_energy_4>
3.814

>  <homo_energy>
-5.712

>  <homo_lumo_gap>
3.665

>  <logP>
5.336

>  <lumo_energy>
-2.046

>  <melting_point>
80.17

>  <molecular_refractivity>
76.92

>  <oscillator_strength_1>
0.0

>  <oscillator_strength_2>
0.833

>  <oscillator_strength_3>
0.0

>  <oscillator_strength_4>
0.0292

>  <open_babel_can_smiles>
Cc1ccc(c(c1)C)/N=N/c1ccc(cc1C)C

>  <mulliken_charges>
36
1   -0.532638
2   -0.532605
3   -0.516268
4   -0.516366
5   -0.203633
6   -0.202907
7   -0.123459
8   -0.123592
9   -0.256141
10   -0.257078
11   0.200776
12   0.201149
13   0.166852
14   0.16712
15   0.216066
16   0.215959
17   -0.316405
18   -0.316334
19   0.157573
20   0.167999
21   0.160704
22   0.15816
23   0.168372
24   0.159676
25   0.144864
26   0.170151
27   0.169697
28   0.144914
29   0.16972
30   0.170206
31   0.123977
32   0.123882
33   0.152718
34   0.152737
35   0.117065
36   0.11709

>  <lowdin_charges>
36
1   -0.44253
2   -0.442626
3   -0.438865
4   -0.438794
5   -0.172233
6   -0.171898
7   -0.147975
8   -0.147959
9   -0.181546
10   -0.181928
11   0.014036
12   0.014112
13   0.012705
14   0.012733
15   -0.00516
16   -0.005154
17   -0.084029
18   -0.083957
19   0.158862
20   0.163116
21   0.16036
22   0.158288
23   0.163981
24   0.160216
25   0.15246
26   0.164971
27   0.165354
28   0.152488
29   0.165378
30   0.164921
31   0.15521
32   0.155178
33   0.172146
34   0.172131
35   0.153004
36   0.153005

$$$$

