PCCDB-ID:  7528
public computational chemistry database (PCCDB) project, http://pccdb.org

 21 21  0  0  1  0  0  0  0  0999 V2000
    0.8122   -0.1151    0.1705 C   0  0  0  0  0  0  0  0  0  0  0  0
    3.1606    0.4966    0.9499 C   0  0  0  0  0  0  0  0  0  0  0  0
    2.6502    0.4572   -3.7160 C   0  0  0  0  0  0  0  0  0  0  0  0
    2.8714   -1.4252   -1.9457 C   0  0  0  0  0  0  0  0  0  0  0  0
    3.1626    0.0185   -2.3518 C   0  0  2  0  0  0  0  0  0  0  0  0
    2.2971   -0.0508   -0.1817 C   0  0  0  0  0  0  0  0  0  0  0  0
    2.8546    1.8430   -3.9259 O   0  0  0  0  0  0  0  0  0  0  0  0
    2.7925   -1.3485   -0.5281 O   0  0  0  0  0  0  0  0  0  0  0  0
    2.4436    0.7616   -1.3596 O   0  0  0  0  0  0  0  0  0  0  0  0
    0.6606   -0.7313    1.0622 H   0  0  0  0  0  0  0  0  0  0  0  0
    0.2477   -0.5509   -0.6593 H   0  0  0  0  0  0  0  0  0  0  0  0
    0.4218    0.8889    0.3658 H   0  0  0  0  0  0  0  0  0  0  0  0
    3.1019   -0.1598    1.8239 H   0  0  0  0  0  0  0  0  0  0  0  0
    2.8223    1.4970    1.2373 H   0  0  0  0  0  0  0  0  0  0  0  0
    4.2036    0.5543    0.6258 H   0  0  0  0  0  0  0  0  0  0  0  0
    1.5841    0.1888   -3.7990 H   0  0  0  0  0  0  0  0  0  0  0  0
    3.1958   -0.0645   -4.5102 H   0  0  0  0  0  0  0  0  0  0  0  0
    3.6676   -2.1273   -2.2073 H   0  0  0  0  0  0  0  0  0  0  0  0
    1.9237   -1.7790   -2.3822 H   0  0  0  0  0  0  0  0  0  0  0  0
    4.2377    0.2394   -2.2748 H   0  0  0  0  0  0  0  0  0  0  0  0
    2.4569    2.2889   -3.1597 H   0  0  0  0  0  0  0  0  0  0  0  0
  1 12  1  0  0  0  0
  1 10  1  0  0  0  0
  2 14  1  0  0  0  0
  2 13  1  0  0  0  0
  3  5  1  0  0  0  0
  4  8  1  0  0  0  0
  5 20  1  1  0  0  0
  5  4  1  0  0  0  0
  5  9  1  0  0  0  0
  6  1  1  0  0  0  0
  6  2  1  0  0  0  0
  7  3  1  0  0  0  0
  7 21  1  0  0  0  0
  8  6  1  0  0  0  0
  9  6  1  0  0  0  0
 11  1  1  0  0  0  0
 15  2  1  0  0  0  0
 16  3  1  0  0  0  0
 17  3  1  0  0  0  0
 18  4  1  0  0  0  0
 19  4  1  0  0  0  0
M  END
>  <HBA>
3

>  <HBD>
1

>  <TPSA>
38.69

>  <cid>
7528

>  <dipole>
1.31

>  <excitation_energy_1>
6.515

>  <excitation_energy_2>
6.706

>  <excitation_energy_3>
6.9

>  <excitation_energy_4>
6.916

>  <homo_energy>
-6.852

>  <homo_lumo_gap>
9.064

>  <logP>
0.13

>  <lumo_energy>
2.212

>  <melting_point>
7.76

>  <molecular_refractivity>
32.21

>  <oscillator_strength_1>
0.0062

>  <oscillator_strength_2>
0.0021

>  <oscillator_strength_3>
0.0367

>  <oscillator_strength_4>
0.0051

>  <open_babel_can_smiles>
OC[C@@H]1COC(O1)(C)C

>  <mulliken_charges>
21
1   -0.447381
2   -0.447957
3   -0.033032
4   -0.048929
5   0.106792
6   0.534703
7   -0.619291
8   -0.506528
9   -0.546095
10   0.152783
11   0.149197
12   0.151241
13   0.154224
14   0.150002
15   0.155148
16   0.122648
17   0.144492
18   0.154192
19   0.131187
20   0.138499
21   0.404105

>  <lowdin_charges>
21
1   -0.456338
2   -0.45127
3   -0.140638
4   -0.144594
5   -0.025232
6   0.227364
7   -0.4639
8   -0.268538
9   -0.285707
10   0.159374
11   0.157818
12   0.158044
13   0.160756
14   0.157408
15   0.159121
16   0.128233
17   0.151579
18   0.157579
19   0.133424
20   0.136742
21   0.348776

$$$$

