PCCDB-ID:  69291
public computational chemistry database (PCCDB) project, http://pccdb.org

 31 32  0  0  0  0  0  0  0  0999 V2000
    1.2685    0.2729    0.9825 C   0  0  0  0  0  0  0  0  0  0  0  0
    2.6156    0.4337    0.2549 C   0  0  0  0  0  0  0  0  0  0  0  0
    5.7772   -2.6192   -7.2121 C   0  0  0  0  0  0  0  0  0  0  0  0
    4.4667   -3.0658   -7.3768 C   0  0  0  0  0  0  0  0  0  0  0  0
    6.3214   -2.5418   -5.9270 C   0  0  0  0  0  0  0  0  0  0  0  0
    3.7073   -3.4345   -6.2633 C   0  0  0  0  0  0  0  0  0  0  0  0
    5.5592   -2.9081   -4.8193 C   0  0  0  0  0  0  0  0  0  0  0  0
    3.4964   -1.8379   -0.4577 C   0  0  0  0  0  0  0  0  0  0  0  0
    2.4064   -0.4791   -2.1062 C   0  0  0  0  0  0  0  0  0  0  0  0
    3.6794   -2.8427   -1.4099 C   0  0  0  0  0  0  0  0  0  0  0  0
    2.5906   -1.4792   -3.0575 C   0  0  0  0  0  0  0  0  0  0  0  0
    3.4188   -3.7776   -3.7612 C   0  0  0  0  0  0  0  0  0  0  0  0
    2.8540   -0.6395   -0.7866 C   0  0  0  0  0  0  0  0  0  0  0  0
    4.2411   -3.3627   -4.9718 C   0  0  0  0  0  0  0  0  0  0  0  0
    3.2290   -2.6821   -2.7242 C   0  0  0  0  0  0  0  0  0  0  0  0
    1.1226    1.0712    1.7197 H   0  0  0  0  0  0  0  0  0  0  0  0
    1.2184   -0.6880    1.5069 H   0  0  0  0  0  0  0  0  0  0  0  0
    0.4335    0.3075    0.2737 H   0  0  0  0  0  0  0  0  0  0  0  0
    3.4275    0.4151    0.9930 H   0  0  0  0  0  0  0  0  0  0  0  0
    2.6509    1.4219   -0.2214 H   0  0  0  0  0  0  0  0  0  0  0  0
    6.3710   -2.3323   -8.0759 H   0  0  0  0  0  0  0  0  0  0  0  0
    4.0320   -3.1290   -8.3711 H   0  0  0  0  0  0  0  0  0  0  0  0
    7.3418   -2.1935   -5.7882 H   0  0  0  0  0  0  0  0  0  0  0  0
    2.6868   -3.7861   -6.4003 H   0  0  0  0  0  0  0  0  0  0  0  0
    5.9856   -2.8344   -3.8216 H   0  0  0  0  0  0  0  0  0  0  0  0
    3.8625   -1.9886    0.5560 H   0  0  0  0  0  0  0  0  0  0  0  0
    1.9106    0.4465   -2.3925 H   0  0  0  0  0  0  0  0  0  0  0  0
    4.1822   -3.7649   -1.1255 H   0  0  0  0  0  0  0  0  0  0  0  0
    2.2466   -1.3213   -4.0771 H   0  0  0  0  0  0  0  0  0  0  0  0
    3.8944   -4.6404   -3.2765 H   0  0  0  0  0  0  0  0  0  0  0  0
    2.4373   -4.1272   -4.1076 H   0  0  0  0  0  0  0  0  0  0  0  0
  1 17  1  0  0  0  0
  1 16  1  0  0  0  0
  2  1  1  0  0  0  0
  2 19  1  0  0  0  0
  3  5  1  0  0  0  0
  4  3  2  0  0  0  0
  4  6  1  0  0  0  0
  5 23  1  0  0  0  0
  5  7  2  0  0  0  0
  6 14  2  0  0  0  0
  7 25  1  0  0  0  0
  8 26  1  0  0  0  0
  9 13  2  0  0  0  0
 10 28  1  0  0  0  0
 10  8  2  0  0  0  0
 11 15  2  0  0  0  0
 11  9  1  0  0  0  0
 12 30  1  0  0  0  0
 12 15  1  0  0  0  0
 13  8  1  0  0  0  0
 13  2  1  0  0  0  0
 14  7  1  0  0  0  0
 14 12  1  0  0  0  0
 15 10  1  0  0  0  0
 18  1  1  0  0  0  0
 20  2  1  0  0  0  0
 21  3  1  0  0  0  0
 22  4  1  0  0  0  0
 24  6  1  0  0  0  0
 27  9  1  0  0  0  0
 29 11  1  0  0  0  0
 31 12  1  0  0  0  0
M  END
>  <HBA>
0

>  <HBD>
0

>  <TPSA>
0.0

>  <cid>
69291

>  <dipole>
0.3

>  <excitation_energy_1>
5.1

>  <excitation_energy_2>
5.233

>  <excitation_energy_3>
5.356

>  <excitation_energy_4>
5.507

>  <homo_energy>
-6.128

>  <homo_lumo_gap>
6.101

>  <logP>
3.84

>  <lumo_energy>
-0.027

>  <melting_point>
41.72

>  <molecular_refractivity>
65.67

>  <oscillator_strength_1>
0.0177

>  <oscillator_strength_2>
0.0073

>  <oscillator_strength_3>
0.0716

>  <oscillator_strength_4>
0.0937

>  <open_babel_can_smiles>
CCc1ccc(cc1)Cc1ccccc1

>  <mulliken_charges>
31
1   -0.432778
2   -0.339922
3   -0.13182
4   -0.125595
5   -0.128439
6   -0.197072
7   -0.1739
8   -0.180946
9   -0.182026
10   -0.196235
11   -0.173786
12   -0.44274
13   0.17639
14   0.187196
15   0.185431
16   0.142398
17   0.14865
18   0.148897
19   0.141684
20   0.142422
21   0.126894
22   0.127019
23   0.128076
24   0.121322
25   0.129813
26   0.11977
27   0.120982
28   0.120189
29   0.128549
30   0.155156
31   0.154423

>  <lowdin_charges>
31
1   -0.441391
2   -0.270912
3   -0.162649
4   -0.155813
5   -0.152323
6   -0.170732
7   -0.160271
8   -0.166484
9   -0.164447
10   -0.170834
11   -0.157956
12   -0.270932
13   -0.003454
14   -0.001341
15   -0.006726
16   0.14931
17   0.150089
18   0.150851
19   0.148676
20   0.147939
21   0.15733
22   0.155971
23   0.155633
24   0.151994
25   0.157849
26   0.152223
27   0.153585
28   0.152823
29   0.156829
30   0.158324
31   0.156839

$$$$

