PCCDB-ID:  43858
public computational chemistry database (PCCDB) project, http://pccdb.org

 24 23  0  0  1  0  0  0  0  0999 V2000
    1.0163    0.1274    0.3559 C   0  0  0  0  0  0  0  0  0  0  0  0
    4.9576    1.8612    3.8974 C   0  0  0  0  0  0  0  0  0  0  0  0
    2.5287    0.3650    0.2990 C   0  0  0  0  0  0  0  0  0  0  0  0
    3.0462    1.2423    1.4468 C   0  0  0  0  0  0  0  0  0  0  0  0
    4.5615    1.4794    1.3898 C   0  0  0  0  0  0  0  0  0  0  0  0
    6.5877    2.7527    2.1846 C   0  0  0  0  0  0  0  0  0  0  0  0
    5.1149    2.4208    2.4770 C   0  0  2  0  0  0  0  0  0  0  0  0
    7.1591    3.6805    3.1020 O   0  0  0  0  0  0  0  0  0  0  0  0
    0.6779   -0.5015   -0.4754 H   0  0  0  0  0  0  0  0  0  0  0  0
    0.4643    1.0740    0.3036 H   0  0  0  0  0  0  0  0  0  0  0  0
    0.7279   -0.3714    1.2894 H   0  0  0  0  0  0  0  0  0  0  0  0
    3.9057    1.7608    4.1842 H   0  0  0  0  0  0  0  0  0  0  0  0
    5.4490    2.5182    4.6211 H   0  0  0  0  0  0  0  0  0  0  0  0
    5.4235    0.8698    3.9760 H   0  0  0  0  0  0  0  0  0  0  0  0
    2.7904    0.8326   -0.6610 H   0  0  0  0  0  0  0  0  0  0  0  0
    3.0524   -0.6015    0.3179 H   0  0  0  0  0  0  0  0  0  0  0  0
    2.7750    0.7744    2.4028 H   0  0  0  0  0  0  0  0  0  0  0  0
    2.5257    2.2117    1.4233 H   0  0  0  0  0  0  0  0  0  0  0  0
    4.8146    1.8904    0.4007 H   0  0  0  0  0  0  0  0  0  0  0  0
    5.0817    0.5115    1.4578 H   0  0  0  0  0  0  0  0  0  0  0  0
    6.6885    3.1154    1.1481 H   0  0  0  0  0  0  0  0  0  0  0  0
    7.1987    1.8466    2.2735 H   0  0  0  0  0  0  0  0  0  0  0  0
    4.5525    3.3691    2.4158 H   0  0  0  0  0  0  0  0  0  0  0  0
    6.6617    4.5096    3.0211 H   0  0  0  0  0  0  0  0  0  0  0  0
  1 11  1  0  0  0  0
  2 14  1  0  0  0  0
  2 12  1  0  0  0  0
  2 13  1  0  0  0  0
  3 16  1  0  0  0  0
  3  1  1  0  0  0  0
  3  4  1  0  0  0  0
  4 17  1  0  0  0  0
  5  4  1  0  0  0  0
  5 20  1  0  0  0  0
  5  7  1  0  0  0  0
  6 22  1  0  0  0  0
  6  7  1  0  0  0  0
  6  8  1  0  0  0  0
  7 23  1  6  0  0  0
  7  2  1  0  0  0  0
  9  1  1  0  0  0  0
 10  1  1  0  0  0  0
 15  3  1  0  0  0  0
 18  4  1  0  0  0  0
 19  5  1  0  0  0  0
 21  6  1  0  0  0  0
 24  8  1  0  0  0  0
M  END
>  <HBA>
1

>  <HBD>
1

>  <TPSA>
20.23

>  <cid>
43858

>  <dipole>
1.68

>  <excitation_energy_1>
6.365

>  <excitation_energy_2>
7.162

>  <excitation_energy_3>
7.335

>  <excitation_energy_4>
7.416

>  <homo_energy>
-7.08

>  <homo_lumo_gap>
9.075

>  <logP>
1.805

>  <lumo_energy>
1.995

>  <melting_point>
-8.61

>  <molecular_refractivity>
36.92

>  <oscillator_strength_1>
0.0055

>  <oscillator_strength_2>
0.0169

>  <oscillator_strength_3>
0.0003

>  <oscillator_strength_4>
0.0054

>  <open_babel_can_smiles>
CCCC[C@H](CO)C

>  <mulliken_charges>
24
1   -0.441839
2   -0.446802
3   -0.247531
4   -0.250332
5   -0.258111
6   -0.026569
7   -0.101196
8   -0.614819
9   0.142352
10   0.141086
11   0.141848
12   0.142177
13   0.158643
14   0.137218
15   0.12988
16   0.131314
17   0.13473
18   0.125407
19   0.124619
20   0.128133
21   0.116708
22   0.141561
23   0.106278
24   0.385244

>  <lowdin_charges>
24
1   -0.44561
2   -0.449298
3   -0.271399
4   -0.274843
5   -0.274978
6   -0.137647
7   -0.141433
8   -0.465372
9   0.150436
10   0.146119
11   0.146638
12   0.146887
13   0.159198
14   0.145165
15   0.138173
16   0.139083
17   0.14073
18   0.136499
19   0.137497
20   0.138552
21   0.123766
22   0.144829
23   0.12726
24   0.339748

$$$$

