PCCDB-ID:  20371
public computational chemistry database (PCCDB) project, http://pccdb.org

 28 29  0  0  1  0  0  0  0  0999 V2000
    0.7254    0.2258    0.2012 C   0  0  0  0  0  0  0  0  0  0  0  0
    4.6125    1.3142    3.2963 C   0  0  0  0  0  0  0  0  0  0  0  0
    4.1367    0.0064    3.1787 C   0  0  0  0  0  0  0  0  0  0  0  0
    4.3281    2.2453    2.2964 C   0  0  0  0  0  0  0  0  0  0  0  0
    3.3779   -0.3655    2.0688 C   0  0  0  0  0  0  0  0  0  0  0  0
    3.5697    1.8730    1.1845 C   0  0  0  0  0  0  0  0  0  0  0  0
    2.7261    0.1426   -3.4875 C   0  0  0  0  0  0  0  0  0  0  0  0
    3.6511   -1.0437   -1.4005 C   0  0  0  0  0  0  0  0  0  0  0  0
    3.0886    0.5651    1.0631 C   0  0  0  0  0  0  0  0  0  0  0  0
    3.4034    0.2910   -2.1273 C   0  0  2  0  0  0  0  0  0  0  0  0
    2.2111    0.1511   -0.1245 C   0  0  1  0  0  0  0  0  0  0  0  0
    2.2933    1.3938   -3.9857 O   0  0  0  0  0  0  0  0  0  0  0  0
    2.5147   -1.1702   -0.5488 O   0  0  0  0  0  0  0  0  0  0  0  0
    2.4825    0.9834   -1.2606 O   0  0  0  0  0  0  0  0  0  0  0  0
    0.4929   -0.4192    1.0532 H   0  0  0  0  0  0  0  0  0  0  0  0
    0.1457   -0.0992   -0.6674 H   0  0  0  0  0  0  0  0  0  0  0  0
    0.4514    1.2529    0.4584 H   0  0  0  0  0  0  0  0  0  0  0  0
    5.2030    1.6043    4.1614 H   0  0  0  0  0  0  0  0  0  0  0  0
    4.3596   -0.7264    3.9499 H   0  0  0  0  0  0  0  0  0  0  0  0
    4.6985    3.2639    2.3791 H   0  0  0  0  0  0  0  0  0  0  0  0
    3.0172   -1.3852    1.9686 H   0  0  0  0  0  0  0  0  0  0  0  0
    3.3534    2.5916    0.4006 H   0  0  0  0  0  0  0  0  0  0  0  0
    1.8887   -0.5689   -3.3887 H   0  0  0  0  0  0  0  0  0  0  0  0
    3.4332   -0.2648   -4.2192 H   0  0  0  0  0  0  0  0  0  0  0  0
    4.5807   -1.0210   -0.8170 H   0  0  0  0  0  0  0  0  0  0  0  0
    3.6654   -1.9091   -2.0693 H   0  0  0  0  0  0  0  0  0  0  0  0
    4.3149    0.8922   -2.2232 H   0  0  0  0  0  0  0  0  0  0  0  0
    1.7686    1.7890   -3.2690 H   0  0  0  0  0  0  0  0  0  0  0  0
  1 17  1  0  0  0  0
  1 15  1  0  0  0  0
  2 18  1  0  0  0  0
  3  2  1  0  0  0  0
  3 19  1  0  0  0  0
  4 20  1  0  0  0  0
  4  2  2  0  0  0  0
  5  3  2  0  0  0  0
  6  4  1  0  0  0  0
  7 23  1  0  0  0  0
  7 10  1  0  0  0  0
  8 25  1  0  0  0  0
  8 13  1  0  0  0  0
  9  6  2  0  0  0  0
  9  5  1  0  0  0  0
 10 27  1  6  0  0  0
 10  8  1  0  0  0  0
 10 14  1  0  0  0  0
 11  1  1  1  0  0  0
 11  9  1  0  0  0  0
 12  7  1  0  0  0  0
 12 28  1  0  0  0  0
 13 11  1  0  0  0  0
 14 11  1  0  0  0  0
 16  1  1  0  0  0  0
 21  5  1  0  0  0  0
 22  6  1  0  0  0  0
 24  7  1  0  0  0  0
 26  8  1  0  0  0  0
M  END
>  <HBA>
3

>  <HBD>
1

>  <TPSA>
38.69

>  <cid>
20371

>  <dipole>
1.9

>  <excitation_energy_1>
5.329

>  <excitation_energy_2>
5.936

>  <excitation_energy_3>
6.019

>  <excitation_energy_4>
6.164

>  <homo_energy>
-6.732

>  <homo_lumo_gap>
6.577

>  <logP>
1.267

>  <lumo_energy>
-0.155

>  <melting_point>
34.74

>  <molecular_refractivity>
51.74

>  <oscillator_strength_1>
0.0005

>  <oscillator_strength_2>
0.0188

>  <oscillator_strength_3>
0.0042

>  <oscillator_strength_4>
0.0041

>  <open_babel_can_smiles>
OC[C@@H]1CO[C@@](O1)(C)c1ccccc1

>  <mulliken_charges>
28
1   -0.449376
2   -0.124817
3   -0.13532
4   -0.134082
5   -0.170349
6   -0.171925
7   -0.0328
8   -0.081209
9   0.09848
10   0.113317
11   0.463945
12   -0.621742
13   -0.493867
14   -0.545605
15   0.160787
16   0.159014
17   0.160504
18   0.130185
19   0.130797
20   0.131025
21   0.14253
22   0.144475
23   0.128457
24   0.140163
25   0.151229
26   0.158656
27   0.145912
28   0.401614

>  <lowdin_charges>
28
1   -0.444146
2   -0.156132
3   -0.157275
4   -0.154668
5   -0.160259
6   -0.163366
7   -0.148687
8   -0.147443
9   -0.035349
10   -0.029051
11   0.21676
12   -0.465031
13   -0.254699
14   -0.274761
15   0.165434
16   0.162123
17   0.163801
18   0.158405
19   0.158931
20   0.157088
21   0.163313
22   0.166953
23   0.131959
24   0.148609
25   0.14523
26   0.158495
27   0.147535
28   0.346233

$$$$

