PCCDB-ID:  23346
public computational chemistry database (PCCDB) project, http://pccdb.org

 29 29  0  0  1  0  0  0  0  0999 V2000
    4.7145   -0.3957   -4.1943 C   0  0  0  0  0  0  0  0  0  0  0  0
    6.6943   -1.1340    0.1180 C   0  0  0  0  0  0  0  0  0  0  0  0
    1.3721   -4.2316   -3.5755 C   0  0  0  0  0  0  0  0  0  0  0  0
    2.7060   -4.6395   -3.5780 C   0  0  0  0  0  0  0  0  0  0  0  0
    1.0200   -3.0382   -2.9401 C   0  0  0  0  0  0  0  0  0  0  0  0
    3.6835   -3.8621   -2.9515 C   0  0  0  0  0  0  0  0  0  0  0  0
    1.9952   -2.2611   -2.3157 C   0  0  0  0  0  0  0  0  0  0  0  0
    4.3297    0.1876   -2.8513 C   0  0  0  0  0  0  0  0  0  0  0  0
    6.7034   -1.9334   -1.1687 C   0  0  0  0  0  0  0  0  0  0  0  0
    3.3385   -2.6635   -2.3186 C   0  0  0  0  0  0  0  0  0  0  0  0
    4.3814   -1.8238   -1.5709 C   0  0  2  0  0  0  0  0  0  0  0  0
    4.1736   -0.3776   -1.7251 N   0  0  0  0  0  0  0  0  0  0  0  0
    5.7361   -2.2479   -1.9258 N   0  0  0  0  0  0  0  0  0  0  0  0
    4.0997    1.5373   -2.8702 O   0  0  0  0  0  0  0  0  0  0  0  0
    7.9387   -2.3746   -1.5564 O   0  0  0  0  0  0  0  0  0  0  0  0
    5.0617   -1.4228   -4.0974 H   0  0  0  0  0  0  0  0  0  0  0  0
    5.5181    0.1990   -4.6477 H   0  0  0  0  0  0  0  0  0  0  0  0
    3.8512   -0.3712   -4.8715 H   0  0  0  0  0  0  0  0  0  0  0  0
    5.7302   -0.6545    0.2863 H   0  0  0  0  0  0  0  0  0  0  0  0
    7.4537   -0.3433    0.0713 H   0  0  0  0  0  0  0  0  0  0  0  0
    6.9366   -1.7799    0.9719 H   0  0  0  0  0  0  0  0  0  0  0  0
    0.6125   -4.8367   -4.0638 H   0  0  0  0  0  0  0  0  0  0  0  0
    2.9912   -5.5663   -4.0701 H   0  0  0  0  0  0  0  0  0  0  0  0
   -0.0167   -2.7105   -2.9313 H   0  0  0  0  0  0  0  0  0  0  0  0
    4.7234   -4.1706   -2.9562 H   0  0  0  0  0  0  0  0  0  0  0  0
    1.7183   -1.3320   -1.8255 H   0  0  0  0  0  0  0  0  0  0  0  0
    4.2107   -2.0179   -0.5009 H   0  0  0  0  0  0  0  0  0  0  0  0
    4.2434    1.8672   -3.7704 H   0  0  0  0  0  0  0  0  0  0  0  0
    8.5997   -2.0703   -0.9157 H   0  0  0  0  0  0  0  0  0  0  0  0
  1 16  1  0  0  0  0
  1  8  1  0  0  0  0
  2 19  1  0  0  0  0
  2 21  1  0  0  0  0
  3  5  1  0  0  0  0
  4  3  2  0  0  0  0
  4  6  1  0  0  0  0
  5 24  1  0  0  0  0
  5  7  2  0  0  0  0
  6 10  2  0  0  0  0
  7 26  1  0  0  0  0
  8 12  2  0  0  0  0
  9  2  1  0  0  0  0
 10  7  1  0  0  0  0
 10 11  1  0  0  0  0
 11 27  1  1  0  0  0
 12 11  1  0  0  0  0
 13 11  1  0  0  0  0
 13  9  2  0  0  0  0
 14  8  1  0  0  0  0
 15  9  1  0  0  0  0
 15 29  1  0  0  0  0
 17  1  1  0  0  0  0
 18  1  1  0  0  0  0
 20  2  1  0  0  0  0
 22  3  1  0  0  0  0
 23  4  1  0  0  0  0
 25  6  1  0  0  0  0
 28 14  1  0  0  0  0
M  END
>  <HBA>
4

>  <HBD>
2

>  <TPSA>
58.2

>  <cid>
23346

>  <dipole>
2.57

>  <excitation_energy_1>
5.095

>  <excitation_energy_2>
5.242

>  <excitation_energy_3>
5.27

>  <excitation_energy_4>
5.493

>  <homo_energy>
-6.147

>  <homo_lumo_gap>
6.231

>  <logP>
1.739

>  <lumo_energy>
0.084

>  <melting_point>
101.63

>  <molecular_refractivity>
56.64

>  <oscillator_strength_1>
0.0136

>  <oscillator_strength_2>
0.0017

>  <oscillator_strength_3>
0.0048

>  <oscillator_strength_4>
0.0041

>  <open_babel_can_smiles>
C/C(=N\[C@H](c1ccccc1)/N=C(/O)\C)/O

>  <mulliken_charges>
29
1   -0.556077
2   -0.566303
3   -0.126512
4   -0.138151
5   -0.136765
6   -0.16768
7   -0.174552
8   0.50993
9   0.506534
10   0.10255
11   0.037691
12   -0.437889
13   -0.434952
14   -0.578782
15   -0.579942
16   0.222215
17   0.155988
18   0.17792
19   0.219934
20   0.166805
21   0.174982
22   0.122535
23   0.124475
24   0.124151
25   0.152434
26   0.142314
27   0.14679
28   0.404584
29   0.405774

>  <lowdin_charges>
29
1   -0.48745
2   -0.487806
3   -0.164973
4   -0.158032
5   -0.158532
6   -0.165511
7   -0.166499
8   0.149882
9   0.145189
10   -0.021237
11   -0.002909
12   -0.231507
13   -0.219488
14   -0.368465
15   -0.369048
16   0.19403
17   0.162504
18   0.172603
19   0.192187
20   0.167722
21   0.170331
22   0.155654
23   0.15469
24   0.153491
25   0.169336
26   0.1641
27   0.141204
28   0.352467
29   0.356068

$$$$

