PCCDB-ID:  21059
public computational chemistry database (PCCDB) project, http://pccdb.org

 18 18  0  0  0  0  0  0  0  0999 V2000
    1.0074    0.1188    0.3656 C   0  0  0  0  0  0  0  0  0  0  0  0
    2.5004    0.1594   -0.0097 C   0  0  0  0  0  0  0  0  0  0  0  0
    3.2903   -2.3289   -3.4018 C   0  0  0  0  0  0  0  0  0  0  0  0
    2.8884   -2.7649   -2.1855 C   0  0  0  0  0  0  0  0  0  0  0  0
    3.4865   -0.9128   -3.6224 C   0  0  0  0  0  0  0  0  0  0  0  0
    2.8172   -0.5920   -1.2631 C   0  0  0  0  0  0  0  0  0  0  0  0
    3.2137   -0.0703   -2.4520 C   0  0  0  0  0  0  0  0  0  0  0  0
    3.8513   -0.3650   -4.6748 O   0  0  0  0  0  0  0  0  0  0  0  0
    3.3909    1.2544   -2.6511 O   0  0  0  0  0  0  0  0  0  0  0  0
    2.6541   -1.9536   -1.1389 O   0  0  0  0  0  0  0  0  0  0  0  0
    0.8344    0.6666    1.2979 H   0  0  0  0  0  0  0  0  0  0  0  0
    0.6651   -0.9113    0.5082 H   0  0  0  0  0  0  0  0  0  0  0  0
    0.3949    0.5768   -0.4181 H   0  0  0  0  0  0  0  0  0  0  0  0
    3.0954   -0.2588    0.8135 H   0  0  0  0  0  0  0  0  0  0  0  0
    2.8268    1.1937   -0.1515 H   0  0  0  0  0  0  0  0  0  0  0  0
    3.4654   -3.0311   -4.2086 H   0  0  0  0  0  0  0  0  0  0  0  0
    2.7158   -3.8025   -1.9239 H   0  0  0  0  0  0  0  0  0  0  0  0
    3.6825    1.2986   -3.5927 H   0  0  0  0  0  0  0  0  0  0  0  0
  1 12  1  0  0  0  0
  1 11  1  0  0  0  0
  2  1  1  0  0  0  0
  2 14  1  0  0  0  0
  3  4  2  0  0  0  0
  4 17  1  0  0  0  0
  4 10  1  0  0  0  0
  5  3  1  0  0  0  0
  5  7  1  0  0  0  0
  6 10  1  0  0  0  0
  6  2  1  0  0  0  0
  7  6  2  0  0  0  0
  8  5  2  0  0  0  0
  9  7  1  0  0  0  0
 13  1  1  0  0  0  0
 15  2  1  0  0  0  0
 16  3  1  0  0  0  0
 18  9  1  0  0  0  0
M  END
>  <HBA>
3

>  <HBD>
1

>  <TPSA>
50.44

>  <cid>
21059

>  <dipole>
3.41

>  <excitation_energy_1>
4.371

>  <excitation_energy_2>
4.581

>  <excitation_energy_3>
5.349

>  <excitation_energy_4>
5.706

>  <homo_energy>
-6.142

>  <homo_lumo_gap>
4.944

>  <logP>
0.908

>  <lumo_energy>
-1.197

>  <melting_point>
82.14

>  <molecular_refractivity>
36.77

>  <oscillator_strength_1>
0.0001

>  <oscillator_strength_2>
0.157

>  <oscillator_strength_3>
0.0253

>  <oscillator_strength_4>
0.0048

>  <open_babel_can_smiles>
CCc1occc(=O)c1O

>  <mulliken_charges>
18
1   -0.445446
2   -0.326117
3   -0.221848
4   0.115201
5   0.436441
6   0.301026
7   0.228898
8   -0.560768
9   -0.65224
10   -0.454459
11   0.153514
12   0.157983
13   0.159823
14   0.161285
15   0.183508
16   0.163372
17   0.174629
18   0.425199

>  <lowdin_charges>
18
1   -0.440611
2   -0.273225
3   -0.226917
4   -0.01791
5   0.113944
6   0.066108
7   0.030398
8   -0.314693
9   -0.371521
10   -0.091593
11   0.1558
12   0.153521
13   0.157471
14   0.161896
15   0.173338
16   0.185
17   0.17456
18   0.364433

$$$$

