PCCDB-ID:  7892
public computational chemistry database (PCCDB) project, http://pccdb.org

 20 19  0  0  0  0  0  0  0  0999 V2000
    1.0764   -0.2652    0.1665 C   0  0  0  0  0  0  0  0  0  0  0  0
    5.2910    0.8862   -1.2192 C   0  0  0  0  0  0  0  0  0  0  0  0
    5.4407    2.2103    0.9247 C   0  0  0  0  0  0  0  0  0  0  0  0
    2.5878   -0.2968   -0.0867 C   0  0  0  0  0  0  0  0  0  0  0  0
    3.2974    0.9800    0.3845 C   0  0  0  0  0  0  0  0  0  0  0  0
    4.8327    0.9741    0.2449 C   0  0  0  0  0  0  0  0  0  0  0  0
    0.5925   -1.1845   -0.1831 H   0  0  0  0  0  0  0  0  0  0  0  0
    0.6048    0.5776   -0.3539 H   0  0  0  0  0  0  0  0  0  0  0  0
    0.8552   -0.1576    1.2356 H   0  0  0  0  0  0  0  0  0  0  0  0
    6.3854    0.8956   -1.2885 H   0  0  0  0  0  0  0  0  0  0  0  0
    4.9150    1.7409   -1.7975 H   0  0  0  0  0  0  0  0  0  0  0  0
    4.9380   -0.0282   -1.7078 H   0  0  0  0  0  0  0  0  0  0  0  0
    6.5355    2.2012    0.8618 H   0  0  0  0  0  0  0  0  0  0  0  0
    5.1654    2.2602    1.9850 H   0  0  0  0  0  0  0  0  0  0  0  0
    5.0890    3.1337    0.4459 H   0  0  0  0  0  0  0  0  0  0  0  0
    2.7680   -0.4545   -1.1579 H   0  0  0  0  0  0  0  0  0  0  0  0
    3.0253   -1.1647    0.4277 H   0  0  0  0  0  0  0  0  0  0  0  0
    3.0440    1.1495    1.4417 H   0  0  0  0  0  0  0  0  0  0  0  0
    2.8921    1.8444   -0.1647 H   0  0  0  0  0  0  0  0  0  0  0  0
    5.2108    0.0829    0.7704 H   0  0  0  0  0  0  0  0  0  0  0  0
  1  9  1  0  0  0  0
  2  6  1  0  0  0  0
  3 14  1  0  0  0  0
  4  1  1  0  0  0  0
  4  5  1  0  0  0  0
  4 17  1  0  0  0  0
  5 18  1  0  0  0  0
  6  5  1  0  0  0  0
  6 20  1  0  0  0  0
  6  3  1  0  0  0  0
  7  1  1  0  0  0  0
  8  1  1  0  0  0  0
 10  2  1  0  0  0  0
 11  2  1  0  0  0  0
 12  2  1  0  0  0  0
 13  3  1  0  0  0  0
 15  3  1  0  0  0  0
 16  4  1  0  0  0  0
 19  5  1  0  0  0  0
M  END
>  <HBA>
0

>  <HBD>
0

>  <TPSA>
0.0

>  <cid>
7892

>  <dipole>
0.09

>  <excitation_energy_1>
7.878

>  <excitation_energy_2>
8.07

>  <excitation_energy_3>
8.14

>  <excitation_energy_4>
8.281

>  <homo_energy>
-8.286

>  <homo_lumo_gap>
10.664

>  <logP>
2.442

>  <lumo_energy>
2.378

>  <melting_point>
-26.56

>  <molecular_refractivity>
30.96

>  <oscillator_strength_1>
0.0423

>  <oscillator_strength_2>
0.0281

>  <oscillator_strength_3>
0.0068

>  <oscillator_strength_4>
0.0004

>  <open_babel_can_smiles>
CCCC(C)C

>  <mulliken_charges>
20
1   -0.441764
2   -0.444338
3   -0.441782
4   -0.253258
5   -0.23837
6   -0.064984
7   0.140716
8   0.141195
9   0.140832
10   0.138719
11   0.136881
12   0.144188
13   0.138106
14   0.138531
15   0.137726
16   0.134764
17   0.128892
18   0.123413
19   0.121957
20   0.118576

>  <lowdin_charges>
20
1   -0.443849
2   -0.446195
3   -0.440746
4   -0.27342
5   -0.275056
6   -0.120586
7   0.148995
8   0.147015
9   0.144161
10   0.145645
11   0.145319
12   0.148735
13   0.144776
14   0.145136
15   0.145094
16   0.138705
17   0.138898
18   0.136633
19   0.136519
20   0.134223

$$$$

