PCCDB-ID:  17045
public computational chemistry database (PCCDB) project, http://pccdb.org

 18 17  0  0  0  0  0  0  0  0999 V2000
    0.9463    0.0883    0.0241 C   0  0  0  0  0  0  0  0  0  0  0  0
    2.9874    0.0778    1.5244 C   0  0  0  0  0  0  0  0  0  0  0  0
    2.9161   -1.3730   -0.5281 C   0  0  0  0  0  0  0  0  0  0  0  0
    2.9242    2.2427   -0.5180 C   0  0  0  0  0  0  0  0  0  0  0  0
    2.4826   -0.0245    0.0716 C   0  0  0  0  0  0  0  0  0  0  0  0
    3.1102    1.0194   -0.7719 N   0  0  0  0  0  0  0  0  0  0  0  0
    3.4820    3.2232   -1.2647 O   0  0  0  0  0  0  0  0  0  0  0  0
    0.4803   -0.7405    0.5697 H   0  0  0  0  0  0  0  0  0  0  0  0
    0.5911    0.0580   -1.0119 H   0  0  0  0  0  0  0  0  0  0  0  0
    0.5951    1.0234    0.4761 H   0  0  0  0  0  0  0  0  0  0  0  0
    2.6016   -0.7518    2.1283 H   0  0  0  0  0  0  0  0  0  0  0  0
    2.6669    1.0125    1.9993 H   0  0  0  0  0  0  0  0  0  0  0  0
    4.0819    0.0412    1.5521 H   0  0  0  0  0  0  0  0  0  0  0  0
    2.4934   -2.2105    0.0390 H   0  0  0  0  0  0  0  0  0  0  0  0
    4.0076   -1.4616   -0.5185 H   0  0  0  0  0  0  0  0  0  0  0  0
    2.5821   -1.4528   -1.5681 H   0  0  0  0  0  0  0  0  0  0  0  0
    2.3270    2.6824    0.2865 H   0  0  0  0  0  0  0  0  0  0  0  0
    3.9980    2.7655   -1.9563 H   0  0  0  0  0  0  0  0  0  0  0  0
  1  5  1  0  0  0  0
  1 10  1  0  0  0  0
  1  8  1  0  0  0  0
  2 13  1  0  0  0  0
  2 12  1  0  0  0  0
  2 11  1  0  0  0  0
  3 15  1  0  0  0  0
  3 14  1  0  0  0  0
  3  5  1  0  0  0  0
  4 17  1  0  0  0  0
  5  2  1  0  0  0  0
  6  4  2  0  0  0  0
  6  5  1  0  0  0  0
  7  4  1  0  0  0  0
  9  1  1  0  0  0  0
 16  3  1  0  0  0  0
 18  7  1  0  0  0  0
M  END
>  <HBA>
2

>  <HBD>
1

>  <TPSA>
29.1

>  <cid>
17045

>  <dipole>
0.73

>  <excitation_energy_1>
5.795

>  <excitation_energy_2>
6.583

>  <excitation_energy_3>
6.631

>  <excitation_energy_4>
6.715

>  <homo_energy>
-6.876

>  <homo_lumo_gap>
7.494

>  <logP>
1.558

>  <lumo_energy>
0.618

>  <melting_point>
33.69

>  <molecular_refractivity>
29.58

>  <oscillator_strength_1>
0.0001

>  <oscillator_strength_2>
0.0216

>  <oscillator_strength_3>
0.0075

>  <oscillator_strength_4>
0.0154

>  <open_babel_can_smiles>
O/C=N/C(C)(C)C

>  <mulliken_charges>
18
1   -0.442077
2   -0.441791
3   -0.430022
4   0.288903
5   0.188376
6   -0.422657
7   -0.561505
8   0.141971
9   0.151916
10   0.135764
11   0.141886
12   0.135758
13   0.152
14   0.130922
15   0.145694
16   0.14567
17   0.136557
18   0.402635

>  <lowdin_charges>
18
1   -0.448407
2   -0.447126
3   -0.440275
4   0.013371
5   0.074786
6   -0.232458
7   -0.362052
8   0.151955
9   0.153374
10   0.145332
11   0.151784
12   0.14534
13   0.152423
14   0.144616
15   0.150432
16   0.15125
17   0.139244
18   0.356412

$$$$

