PCCDB-ID:  8769
public computational chemistry database (PCCDB) project, http://pccdb.org

 24 23  0  0  0  0  0  0  0  0999 V2000
    2.5426    0.6442    1.1201 C   0  0  0  0  0  0  0  0  0  0  0  0
    2.2770    0.1328   -0.2968 C   0  0  0  0  0  0  0  0  0  0  0  0
    2.5501   -1.7290   -1.8730 C   0  0  0  0  0  0  0  0  0  0  0  0
    4.4929   -0.9379   -0.5513 C   0  0  0  0  0  0  0  0  0  0  0  0
    2.8439   -3.2333   -1.8250 C   0  0  0  0  0  0  0  0  0  0  0  0
    5.1795    0.1025   -1.4519 C   0  0  0  0  0  0  0  0  0  0  0  0
    3.0337   -1.0790   -0.6389 N   0  0  0  0  0  0  0  0  0  0  0  0
    2.4091   -3.7856   -0.5979 O   0  0  0  0  0  0  0  0  0  0  0  0
    5.1255   -0.1896   -2.8460 O   0  0  0  0  0  0  0  0  0  0  0  0
    1.8394    1.4492    1.3601 H   0  0  0  0  0  0  0  0  0  0  0  0
    3.5526    1.0499    1.2418 H   0  0  0  0  0  0  0  0  0  0  0  0
    2.4073   -0.1604    1.8516 H   0  0  0  0  0  0  0  0  0  0  0  0
    2.4448    0.9496   -1.0223 H   0  0  0  0  0  0  0  0  0  0  0  0
    1.2163   -0.1304   -0.3761 H   0  0  0  0  0  0  0  0  0  0  0  0
    1.4615   -1.6047   -1.8892 H   0  0  0  0  0  0  0  0  0  0  0  0
    2.9572   -1.2748   -2.7864 H   0  0  0  0  0  0  0  0  0  0  0  0
    4.7524   -0.6984    0.4874 H   0  0  0  0  0  0  0  0  0  0  0  0
    4.9396   -1.9220   -0.7450 H   0  0  0  0  0  0  0  0  0  0  0  0
    3.9196   -3.4262   -1.9885 H   0  0  0  0  0  0  0  0  0  0  0  0
    2.3066   -3.7362   -2.6378 H   0  0  0  0  0  0  0  0  0  0  0  0
    6.2235    0.2145   -1.1133 H   0  0  0  0  0  0  0  0  0  0  0  0
    4.7045    1.0827   -1.3459 H   0  0  0  0  0  0  0  0  0  0  0  0
    2.5451   -3.0605    0.0437 H   0  0  0  0  0  0  0  0  0  0  0  0
    5.6053   -1.0205   -2.9903 H   0  0  0  0  0  0  0  0  0  0  0  0
  1 11  1  0  0  0  0
  1 10  1  0  0  0  0
  1 12  1  0  0  0  0
  2  1  1  0  0  0  0
  3  5  1  0  0  0  0
  3  7  1  0  0  0  0
  4 17  1  0  0  0  0
  5  8  1  0  0  0  0
  6 22  1  0  0  0  0
  6 21  1  0  0  0  0
  6  4  1  0  0  0  0
  7  4  1  0  0  0  0
  7  2  1  0  0  0  0
  8 23  1  0  0  0  0
  9  6  1  0  0  0  0
 13  2  1  0  0  0  0
 14  2  1  0  0  0  0
 15  3  1  0  0  0  0
 16  3  1  0  0  0  0
 18  4  1  0  0  0  0
 19  5  1  0  0  0  0
 20  5  1  0  0  0  0
 24  9  1  0  0  0  0
M  END
>  <HBA>
3

>  <HBD>
2

>  <TPSA>
43.7

>  <cid>
8769

>  <dipole>
2.31

>  <excitation_energy_1>
5.084

>  <excitation_energy_2>
5.471

>  <excitation_energy_3>
5.744

>  <excitation_energy_4>
5.873

>  <homo_energy>
-5.84

>  <homo_lumo_gap>
7.374

>  <logP>
-0.707

>  <lumo_energy>
1.535

>  <melting_point>
13.31

>  <molecular_refractivity>
36.18

>  <oscillator_strength_1>
0.0099

>  <oscillator_strength_2>
0.0092

>  <oscillator_strength_3>
0.0192

>  <oscillator_strength_4>
0.0087

>  <open_babel_can_smiles>
OCCN(CCO)CC

>  <mulliken_charges>
24
1   -0.459366
2   -0.111901
3   -0.16128
4   -0.169342
5   -0.019182
6   -0.04289
7   -0.41559
8   -0.633956
9   -0.603341
10   0.150451
11   0.146868
12   0.155529
13   0.127187
14   0.145893
15   0.14296
16   0.155603
17   0.147494
18   0.141782
19   0.102717
20   0.138465
21   0.122831
22   0.155079
23   0.39504
24   0.38895

>  <lowdin_charges>
24
1   -0.453422
2   -0.197651
3   -0.227639
4   -0.227278
5   -0.139531
6   -0.148903
7   -0.193635
8   -0.481544
9   -0.464163
10   0.158162
11   0.146794
12   0.155047
13   0.125171
14   0.147106
15   0.146121
16   0.14639
17   0.150912
18   0.146163
19   0.110763
20   0.146026
21   0.129914
22   0.149706
23   0.334455
24   0.341038

$$$$

