PCCDB-ID:  8169
public computational chemistry database (PCCDB) project, http://pccdb.org

 26 25  0  0  0  0  0  0  0  0999 V2000
    2.6761    1.0229    0.8518 C   0  0  0  0  0  0  0  0  0  0  0  0
    2.1437   -0.2513    0.1851 C   0  0  0  0  0  0  0  0  0  0  0  0
    2.7472   -0.5469   -1.1982 C   0  0  0  0  0  0  0  0  0  0  0  0
    4.2434   -0.8901   -1.1850 C   0  0  0  0  0  0  0  0  0  0  0  0
    4.7951   -1.2318   -2.5751 C   0  0  0  0  0  0  0  0  0  0  0  0
    6.2878   -1.5845   -2.5586 C   0  0  0  0  0  0  0  0  0  0  0  0
    6.8622   -1.9305   -3.9286 C   0  0  0  0  0  0  0  0  0  0  0  0
    7.7043    0.0906   -4.8608 C   0  0  0  0  0  0  0  0  0  0  0  0
    8.6859    0.0935   -4.1580 O   0  0  0  0  0  0  0  0  0  0  0  0
    6.7261   -0.8287   -4.8670 O   0  0  0  0  0  0  0  0  0  0  0  0
    2.1785    1.2021    1.8118 H   0  0  0  0  0  0  0  0  0  0  0  0
    2.5017    1.9017    0.2182 H   0  0  0  0  0  0  0  0  0  0  0  0
    3.7527    0.9643    1.0473 H   0  0  0  0  0  0  0  0  0  0  0  0
    1.0535   -0.1684    0.0807 H   0  0  0  0  0  0  0  0  0  0  0  0
    2.3204   -1.1115    0.8469 H   0  0  0  0  0  0  0  0  0  0  0  0
    2.5795    0.3175   -1.8582 H   0  0  0  0  0  0  0  0  0  0  0  0
    2.1982   -1.3848   -1.6514 H   0  0  0  0  0  0  0  0  0  0  0  0
    4.4128   -1.7402   -0.5067 H   0  0  0  0  0  0  0  0  0  0  0  0
    4.8181   -0.0509   -0.7699 H   0  0  0  0  0  0  0  0  0  0  0  0
    4.6304   -0.3847   -3.2538 H   0  0  0  0  0  0  0  0  0  0  0  0
    4.2272   -2.0750   -2.9963 H   0  0  0  0  0  0  0  0  0  0  0  0
    6.4571   -2.4544   -1.9073 H   0  0  0  0  0  0  0  0  0  0  0  0
    6.8712   -0.7600   -2.1303 H   0  0  0  0  0  0  0  0  0  0  0  0
    6.3100   -2.7494   -4.3977 H   0  0  0  0  0  0  0  0  0  0  0  0
    7.9194   -2.1969   -3.8564 H   0  0  0  0  0  0  0  0  0  0  0  0
    7.4734    0.8573   -5.6169 H   0  0  0  0  0  0  0  0  0  0  0  0
  1 13  1  0  0  0  0
  1 11  1  0  0  0  0
  2 15  1  0  0  0  0
  2  1  1  0  0  0  0
  3  4  1  0  0  0  0
  3  2  1  0  0  0  0
  4 19  1  0  0  0  0
  4 18  1  0  0  0  0
  5  6  1  0  0  0  0
  5  4  1  0  0  0  0
  6 23  1  0  0  0  0
  6 22  1  0  0  0  0
  7 25  1  0  0  0  0
  7  6  1  0  0  0  0
  8  9  2  0  0  0  0
 10  8  1  0  0  0  0
 10  7  1  0  0  0  0
 12  1  1  0  0  0  0
 14  2  1  0  0  0  0
 16  3  1  0  0  0  0
 17  3  1  0  0  0  0
 20  5  1  0  0  0  0
 21  5  1  0  0  0  0
 24  7  1  0  0  0  0
 26  8  1  0  0  0  0
M  END
>  <HBA>
2

>  <HBD>
0

>  <TPSA>
26.3

>  <cid>
8169

>  <dipole>
1.97

>  <excitation_energy_1>
5.796

>  <excitation_energy_2>
7.347

>  <excitation_energy_3>
7.506

>  <excitation_energy_4>
7.733

>  <homo_energy>
-7.63

>  <homo_lumo_gap>
7.845

>  <logP>
2.766

>  <lumo_energy>
0.215

>  <melting_point>
-43.12

>  <molecular_refractivity>
42.24

>  <oscillator_strength_1>
0.0014

>  <oscillator_strength_2>
0.0303

>  <oscillator_strength_3>
0.0337

>  <oscillator_strength_4>
0.0385

>  <open_babel_can_smiles>
CCCCCCCOC=O

>  <mulliken_charges>
26
1   -0.443472
2   -0.24898
3   -0.249358
4   -0.254307
5   -0.252818
6   -0.28328
7   -0.060525
8   0.389201
9   -0.421346
10   -0.413845
11   0.142605
12   0.141037
13   0.146476
14   0.131197
15   0.129405
16   0.127308
17   0.127047
18   0.126202
19   0.135485
20   0.143514
21   0.126746
22   0.139226
23   0.161682
24   0.153231
25   0.171514
26   0.136056

>  <lowdin_charges>
26
1   -0.445714
2   -0.271363
3   -0.276788
4   -0.277657
5   -0.277833
6   -0.287973
7   -0.132192
8   0.086455
9   -0.254693
10   -0.187022
11   0.149867
12   0.146402
13   0.145523
14   0.139922
15   0.138991
16   0.138289
17   0.140782
18   0.137424
19   0.141975
20   0.145863
21   0.138556
22   0.150812
23   0.156931
24   0.154407
25   0.159446
26   0.13959

$$$$

