PCCDB-ID:  62428
public computational chemistry database (PCCDB) project, http://pccdb.org

 30 31  0  0  0  0  0  0  0  0999 V2000
    1.8663    2.1567   -2.2574 C   0  0  0  0  0  0  0  0  0  0  0  0
    3.1120    1.3879   -2.6702 C   0  0  0  0  0  0  0  0  0  0  0  0
    3.6498    5.3562    2.5778 C   0  0  0  0  0  0  0  0  0  0  0  0
    4.0797    5.0123    1.2751 C   0  0  0  0  0  0  0  0  0  0  0  0
    4.2478    0.7484    4.0087 C   0  0  0  0  0  0  0  0  0  0  0  0
    3.5907    4.3908    3.5564 C   0  0  0  0  0  0  0  0  0  0  0  0
    3.8910    2.0452    4.2894 C   0  0  0  0  0  0  0  0  0  0  0  0
    4.6958    0.4009    2.7132 C   0  0  0  0  0  0  0  0  0  0  0  0
    4.4451    3.7178    0.9759 C   0  0  0  0  0  0  0  0  0  0  0  0
    5.2770    0.9064    0.3319 C   0  0  0  0  0  0  0  0  0  0  0  0
    3.9589    3.0460    3.2838 C   0  0  0  0  0  0  0  0  0  0  0  0
    4.7850    1.3371    1.7027 C   0  0  0  0  0  0  0  0  0  0  0  0
    4.4040    2.6944    1.9643 C   0  0  0  0  0  0  0  0  0  0  0  0
    4.1323    0.6514   -0.6444 C   0  0  0  0  0  0  0  0  0  0  0  0
    3.3037   -0.2216   -0.5131 O   0  0  0  0  0  0  0  0  0  0  0  0
    4.1646    1.5206   -1.6819 O   0  0  0  0  0  0  0  0  0  0  0  0
    1.1145    2.0996   -3.0530 H   0  0  0  0  0  0  0  0  0  0  0  0
    2.0992    3.2114   -2.0783 H   0  0  0  0  0  0  0  0  0  0  0  0
    1.4357    1.7315   -1.3467 H   0  0  0  0  0  0  0  0  0  0  0  0
    3.5504    1.7917   -3.5862 H   0  0  0  0  0  0  0  0  0  0  0  0
    2.8948    0.3260   -2.8081 H   0  0  0  0  0  0  0  0  0  0  0  0
    3.3643    6.3806    2.8009 H   0  0  0  0  0  0  0  0  0  0  0  0
    4.1200    5.7763    0.5031 H   0  0  0  0  0  0  0  0  0  0  0  0
    4.1928   -0.0167    4.7782 H   0  0  0  0  0  0  0  0  0  0  0  0
    3.2572    4.6434    4.5603 H   0  0  0  0  0  0  0  0  0  0  0  0
    3.5498    2.3244    5.2834 H   0  0  0  0  0  0  0  0  0  0  0  0
    4.9767   -0.6288    2.5086 H   0  0  0  0  0  0  0  0  0  0  0  0
    4.7519    3.4733   -0.0353 H   0  0  0  0  0  0  0  0  0  0  0  0
    5.8115   -0.0439    0.4319 H   0  0  0  0  0  0  0  0  0  0  0  0
    5.9703    1.6344   -0.0964 H   0  0  0  0  0  0  0  0  0  0  0  0
  1 18  1  0  0  0  0
  1 19  1  0  0  0  0
  2  1  1  0  0  0  0
  2 16  1  0  0  0  0
  3 22  1  0  0  0  0
  3  6  2  0  0  0  0
  4  3  1  0  0  0  0
  5  7  1  0  0  0  0
  5 24  1  0  0  0  0
  6 25  1  0  0  0  0
  7 26  1  0  0  0  0
  8  5  2  0  0  0  0
  9  4  2  0  0  0  0
  9 13  1  0  0  0  0
 10 29  1  0  0  0  0
 10 12  1  0  0  0  0
 11  6  1  0  0  0  0
 11  7  2  0  0  0  0
 12 13  2  0  0  0  0
 12  8  1  0  0  0  0
 13 11  1  0  0  0  0
 14 15  2  0  0  0  0
 14 10  1  0  0  0  0
 16 14  1  0  0  0  0
 17  1  1  0  0  0  0
 20  2  1  0  0  0  0
 21  2  1  0  0  0  0
 23  4  1  0  0  0  0
 27  8  1  0  0  0  0
 28  9  1  0  0  0  0
 30 10  1  0  0  0  0
M  END
>  <HBA>
2

>  <HBD>
0

>  <TPSA>
26.3

>  <cid>
62428

>  <dipole>
1.54

>  <excitation_energy_1>
4.254

>  <excitation_energy_2>
4.395

>  <excitation_energy_3>
5.089

>  <excitation_energy_4>
5.412

>  <homo_energy>
-5.774

>  <homo_lumo_gap>
4.727

>  <logP>
2.945

>  <lumo_energy>
-1.048

>  <melting_point>
62.94

>  <molecular_refractivity>
64.62

>  <oscillator_strength_1>
0.0967

>  <oscillator_strength_2>
0.0005

>  <oscillator_strength_3>
0.0128

>  <oscillator_strength_4>
0.0303

>  <open_babel_can_smiles>
CCOC(=O)Cc1cccc2c1cccc2

>  <mulliken_charges>
30
1   -0.461738
2   -0.048074
3   -0.131285
4   -0.137983
5   -0.130221
6   -0.195638
7   -0.190038
8   -0.190903
9   -0.205645
10   -0.450939
11   0.140981
12   0.115764
13   0.083492
14   0.630998
15   -0.471446
16   -0.454638
17   0.149906
18   0.158456
19   0.180965
20   0.152227
21   0.172017
22   0.129683
23   0.128778
24   0.13189
25   0.12995
26   0.129695
27   0.13221
28   0.147082
29   0.179397
30   0.175062

>  <lowdin_charges>
30
1   -0.45419
2   -0.127844
3   -0.157597
4   -0.158455
5   -0.158093
6   -0.154251
7   -0.155064
8   -0.158009
9   -0.166047
10   -0.297587
11   0.001884
12   -0.000455
13   -0.007403
14   0.199865
15   -0.263463
16   -0.197063
17   0.159343
18   0.155369
19   0.168326
20   0.152501
21   0.158113
22   0.157494
23   0.158773
24   0.160856
25   0.156818
26   0.157284
27   0.158828
28   0.163829
29   0.176521
30   0.169716

$$$$

