PCCDB-ID:  41212
public computational chemistry database (PCCDB) project, http://pccdb.org

 40 40  0  0  0  0  0  0  0  0999 V2000
    7.8356   -6.3922    9.6633 C   0  0  0  0  0  0  0  0  0  0  0  0
    7.4264   -5.0565    9.0345 C   0  0  0  0  0  0  0  0  0  0  0  0
    8.5347   -4.4254    8.1818 C   0  0  0  0  0  0  0  0  0  0  0  0
   11.7035    0.2451    3.2977 C   0  0  0  0  0  0  0  0  0  0  0  0
   10.5297   -0.2678    2.4523 C   0  0  0  0  0  0  0  0  0  0  0  0
   11.2605    0.5144    4.7419 C   0  0  0  0  0  0  0  0  0  0  0  0
    8.1284   -3.0899    7.5451 C   0  0  0  0  0  0  0  0  0  0  0  0
    9.3445    0.7126    2.4888 C   0  0  0  0  0  0  0  0  0  0  0  0
   10.0851    1.5036    4.8006 C   0  0  0  0  0  0  0  0  0  0  0  0
    7.8198    0.1919    4.5447 C   0  0  0  0  0  0  0  0  0  0  0  0
    9.2582   -2.4659    6.7202 C   0  0  0  0  0  0  0  0  0  0  0  0
    8.1667   -1.2297    4.9877 C   0  0  0  0  0  0  0  0  0  0  0  0
    8.8755    1.1314    3.9061 C   0  0  0  0  0  0  0  0  0  0  0  0
    8.9307   -1.1893    6.1851 O   0  0  0  0  0  0  0  0  0  0  0  0
    7.0255   -6.8144   10.2687 H   0  0  0  0  0  0  0  0  0  0  0  0
    8.7103   -6.2724   10.3144 H   0  0  0  0  0  0  0  0  0  0  0  0
    8.0956   -7.1298    8.8940 H   0  0  0  0  0  0  0  0  0  0  0  0
    7.1350   -4.3520    9.8262 H   0  0  0  0  0  0  0  0  0  0  0  0
    6.5312   -5.2023    8.4134 H   0  0  0  0  0  0  0  0  0  0  0  0
    8.8304   -5.1337    7.3933 H   0  0  0  0  0  0  0  0  0  0  0  0
    9.4289   -4.2762    8.8056 H   0  0  0  0  0  0  0  0  0  0  0  0
   12.0890    1.1753    2.8523 H   0  0  0  0  0  0  0  0  0  0  0  0
   12.5311   -0.4760    3.2782 H   0  0  0  0  0  0  0  0  0  0  0  0
   10.2239   -1.2554    2.8225 H   0  0  0  0  0  0  0  0  0  0  0  0
   10.8449   -0.4161    1.4107 H   0  0  0  0  0  0  0  0  0  0  0  0
   12.1001    0.9141    5.3262 H   0  0  0  0  0  0  0  0  0  0  0  0
   10.9636   -0.4255    5.2194 H   0  0  0  0  0  0  0  0  0  0  0  0
    7.8360   -2.3740    8.3248 H   0  0  0  0  0  0  0  0  0  0  0  0
    7.2434   -3.2431    6.9128 H   0  0  0  0  0  0  0  0  0  0  0  0
    8.4960    0.3058    1.9211 H   0  0  0  0  0  0  0  0  0  0  0  0
    9.6548    1.6243    1.9570 H   0  0  0  0  0  0  0  0  0  0  0  0
   10.4519    2.4873    4.4705 H   0  0  0  0  0  0  0  0  0  0  0  0
    9.7528    1.6273    5.8384 H   0  0  0  0  0  0  0  0  0  0  0  0
    7.3978    0.6972    5.4243 H   0  0  0  0  0  0  0  0  0  0  0  0
    6.9945    0.1006    3.8235 H   0  0  0  0  0  0  0  0  0  0  0  0
    9.5657   -3.1506    5.9117 H   0  0  0  0  0  0  0  0  0  0  0  0
   10.1338   -2.3024    7.3597 H   0  0  0  0  0  0  0  0  0  0  0  0
    8.7146   -1.7820    4.2080 H   0  0  0  0  0  0  0  0  0  0  0  0
    7.2234   -1.7726    5.1588 H   0  0  0  0  0  0  0  0  0  0  0  0
    8.3092    2.0641    3.7653 H   0  0  0  0  0  0  0  0  0  0  0  0
  1 15  1  0  0  0  0
  1 16  1  0  0  0  0
  2  1  1  0  0  0  0
  2 18  1  0  0  0  0
  3 21  1  0  0  0  0
  3  2  1  0  0  0  0
  4  6  1  0  0  0  0
  5  8  1  0  0  0  0
  5 24  1  0  0  0  0
  5  4  1  0  0  0  0
  6  9  1  0  0  0  0
  6 27  1  0  0  0  0
  6 26  1  0  0  0  0
  7  3  1  0  0  0  0
  7 28  1  0  0  0  0
  8 13  1  0  0  0  0
  9 33  1  0  0  0  0
 10 12  1  0  0  0  0
 10 34  1  0  0  0  0
 11 37  1  0  0  0  0
 11  7  1  0  0  0  0
 12 39  1  0  0  0  0
 12 14  1  0  0  0  0
 13 10  1  0  0  0  0
 13  9  1  0  0  0  0
 14 11  1  0  0  0  0
 17  1  1  0  0  0  0
 19  2  1  0  0  0  0
 20  3  1  0  0  0  0
 22  4  1  0  0  0  0
 23  4  1  0  0  0  0
 25  5  1  0  0  0  0
 29  7  1  0  0  0  0
 30  8  1  0  0  0  0
 31  8  1  0  0  0  0
 32  9  1  0  0  0  0
 35 10  1  0  0  0  0
 36 11  1  0  0  0  0
 38 12  1  0  0  0  0
 40 13  1  0  0  0  0
M  END
>  <HBA>
1

>  <HBD>
0

>  <TPSA>
9.23

>  <cid>
41212

>  <dipole>
1.29

>  <excitation_energy_1>
6.27

>  <excitation_energy_2>
6.481

>  <excitation_energy_3>
6.625

>  <excitation_energy_4>
6.773

>  <homo_energy>
-6.67

>  <homo_lumo_gap>
8.754

>  <logP>
4.164

>  <lumo_energy>
2.084

>  <melting_point>
-17.58

>  <molecular_refractivity>
63.58

>  <oscillator_strength_1>
0.0061

>  <oscillator_strength_2>
0.0141

>  <oscillator_strength_3>
0.0005

>  <oscillator_strength_4>
0.0155

>  <open_babel_can_smiles>
CCCCCOCCC1CCCCC1

>  <mulliken_charges>
40
1   -0.442438
2   -0.24555
3   -0.254463
4   -0.253886
5   -0.259964
6   -0.266764
7   -0.275919
8   -0.267372
9   -0.256762
10   -0.285988
11   -0.013475
12   -0.022082
13   -0.072212
14   -0.47336
15   0.143138
16   0.142327
17   0.141601
18   0.133151
19   0.131142
20   0.128618
21   0.129729
22   0.121063
23   0.123697
24   0.130207
25   0.125502
26   0.120285
27   0.15496
28   0.14295
29   0.134496
30   0.121076
31   0.126663
32   0.118019
33   0.135822
34   0.143064
35   0.126401
36   0.115171
37   0.139825
38   0.124541
39   0.119251
40   0.117537

>  <lowdin_charges>
40
1   -0.446886
2   -0.272188
3   -0.275901
4   -0.279197
5   -0.279237
6   -0.287863
7   -0.29207
8   -0.283163
9   -0.277555
10   -0.285531
11   -0.135766
12   -0.136596
13   -0.129199
14   -0.272907
15   0.151089
16   0.147081
17   0.147199
18   0.141277
19   0.139486
20   0.138776
21   0.138836
22   0.133727
23   0.140542
24   0.134634
25   0.139666
26   0.140269
27   0.149889
28   0.147736
29   0.141354
30   0.139086
31   0.139969
32   0.134389
33   0.146223
34   0.150683
35   0.145181
36   0.12677
37   0.144753
38   0.127067
39   0.127389
40   0.140986

$$$$

