PCCDB-ID:  47554
public computational chemistry database (PCCDB) project, http://pccdb.org

 17 17  0  0  0  0  0  0  0  0999 V2000
    0.8117   -0.2120    0.3125 C   0  0  0  0  0  0  0  0  0  0  0  0
    3.3143    4.5757    0.0210 C   0  0  0  0  0  0  0  0  0  0  0  0
    2.2933   -0.2282    0.1618 C   0  0  0  0  0  0  0  0  0  0  0  0
    3.7894    3.1402   -0.0073 C   0  0  0  0  0  0  0  0  0  0  0  0
    3.1533    0.9506    0.0759 C   0  0  0  0  0  0  0  0  0  0  0  0
    2.7730    2.2082    0.1087 N   0  0  0  0  0  0  0  0  0  0  0  0
    2.9929   -1.3195    0.0885 N   0  0  0  0  0  0  0  0  0  0  0  0
    4.3803    0.4127   -0.0387 N   0  0  0  0  0  0  0  0  0  0  0  0
    4.9917    2.8628   -0.1347 O   0  0  0  0  0  0  0  0  0  0  0  0
    4.3229   -0.9787   -0.0451 O   0  0  0  0  0  0  0  0  0  0  0  0
    0.3575    0.3579   -0.5047 H   0  0  0  0  0  0  0  0  0  0  0  0
    0.5334    0.2881    1.2465 H   0  0  0  0  0  0  0  0  0  0  0  0
    0.4162   -1.2297    0.3135 H   0  0  0  0  0  0  0  0  0  0  0  0
    2.6959    4.7773   -0.8616 H   0  0  0  0  0  0  0  0  0  0  0  0
    4.1685    5.2545    0.0305 H   0  0  0  0  0  0  0  0  0  0  0  0
    2.6822    4.7490    0.8982 H   0  0  0  0  0  0  0  0  0  0  0  0
    5.2636    0.9001   -0.1616 H   0  0  0  0  0  0  0  0  0  0  0  0
  1 13  1  0  0  0  0
  1 12  1  0  0  0  0
  2 15  1  0  0  0  0
  2 16  1  0  0  0  0
  3  1  1  0  0  0  0
  4  2  1  0  0  0  0
  4  6  1  0  0  0  0
  5  6  2  0  0  0  0
  5  3  1  0  0  0  0
  7  3  2  0  0  0  0
  8  5  1  0  0  0  0
  9  4  2  0  0  0  0
 10  8  1  0  0  0  0
 10  7  1  0  0  0  0
 11  1  1  0  0  0  0
 14  2  1  0  0  0  0
 17  8  1  0  0  0  0
M  END
>  <HBA>
5

>  <HBD>
1

>  <TPSA>
68.02

>  <cid>
47554

>  <dipole>
1.64

>  <excitation_energy_1>
3.836

>  <excitation_energy_2>
4.603

>  <excitation_energy_3>
5.141

>  <excitation_energy_4>
5.624

>  <homo_energy>
-6.721

>  <homo_lumo_gap>
4.933

>  <logP>
0.409

>  <lumo_energy>
-1.788

>  <melting_point>
93.68

>  <molecular_refractivity>
33.58

>  <oscillator_strength_1>
0.0003

>  <oscillator_strength_2>
0.1617

>  <oscillator_strength_3>
0.0001

>  <oscillator_strength_4>
0.0001

>  <open_babel_can_smiles>
CC(=O)/N=c/1\[nH]onc1C

>  <mulliken_charges>
17
1   -0.507718
2   -0.516985
3   0.293645
4   0.531311
5   0.533632
6   -0.574579
7   -0.169892
8   -0.32919
9   -0.531151
10   -0.217699
11   0.19263
12   0.192149
13   0.185081
14   0.174189
15   0.169957
16   0.172785
17   0.401836

>  <lowdin_charges>
17
1   -0.431354
2   -0.462852
3   0.016651
4   0.170021
5   0.094235
6   -0.273893
7   -0.020332
8   -0.101715
9   -0.325548
10   -0.058749
11   0.183631
12   0.182417
13   0.177425
14   0.174549
15   0.16788
16   0.173039
17   0.334596

$$$$

