PCCDB-ID:  41683
public computational chemistry database (PCCDB) project, http://pccdb.org

 31 30  0  0  0  0  0  0  0  0999 V2000
    2.3661    0.2736    1.4182 C   0  0  0  0  0  0  0  0  0  0  0  0
    9.0588    1.7851    1.5088 C   0  0  0  0  0  0  0  0  0  0  0  0
    2.6050   -0.6542    0.4910 C   0  0  0  0  0  0  0  0  0  0  0  0
    9.7544    1.6152    0.1529 C   0  0  0  0  0  0  0  0  0  0  0  0
    3.6683   -1.7154    0.5800 C   0  0  0  0  0  0  0  0  0  0  0  0
    8.8061    1.6461   -1.0573 C   0  0  0  0  0  0  0  0  0  0  0  0
    4.7050   -1.6819   -0.5234 C   0  0  0  0  0  0  0  0  0  0  0  0
    7.8259    0.4670   -1.1333 C   0  0  0  0  0  0  0  0  0  0  0  0
    4.9039   -0.6847   -1.3899 C   0  0  0  0  0  0  0  0  0  0  0  0
    6.9324    0.5073   -2.3788 C   0  0  0  0  0  0  0  0  0  0  0  0
    5.9433   -0.6734   -2.4791 C   0  0  0  0  0  0  0  0  0  0  0  0
    1.5725    1.0075    1.3038 H   0  0  0  0  0  0  0  0  0  0  0  0
    2.9532    0.3330    2.3328 H   0  0  0  0  0  0  0  0  0  0  0  0
    9.7884    1.7990    2.3268 H   0  0  0  0  0  0  0  0  0  0  0  0
    8.3534    0.9715    1.7116 H   0  0  0  0  0  0  0  0  0  0  0  0
    8.4975    2.7273    1.5482 H   0  0  0  0  0  0  0  0  0  0  0  0
    1.9965   -0.6714   -0.4142 H   0  0  0  0  0  0  0  0  0  0  0  0
   10.3170    0.6705    0.1464 H   0  0  0  0  0  0  0  0  0  0  0  0
   10.5006    2.4126    0.0347 H   0  0  0  0  0  0  0  0  0  0  0  0
    3.1855   -2.7062    0.5630 H   0  0  0  0  0  0  0  0  0  0  0  0
    4.1711   -1.6548    1.5571 H   0  0  0  0  0  0  0  0  0  0  0  0
    9.4085    1.6658   -1.9772 H   0  0  0  0  0  0  0  0  0  0  0  0
    8.2390    2.5893   -1.0467 H   0  0  0  0  0  0  0  0  0  0  0  0
    5.3384   -2.5688   -0.5888 H   0  0  0  0  0  0  0  0  0  0  0  0
    7.1907    0.4430   -0.2391 H   0  0  0  0  0  0  0  0  0  0  0  0
    8.3942   -0.4760   -1.1279 H   0  0  0  0  0  0  0  0  0  0  0  0
    4.2795    0.2080   -1.3183 H   0  0  0  0  0  0  0  0  0  0  0  0
    7.5616    0.5168   -3.2798 H   0  0  0  0  0  0  0  0  0  0  0  0
    6.3674    1.4511   -2.3921 H   0  0  0  0  0  0  0  0  0  0  0  0
    5.4398   -0.6160   -3.4562 H   0  0  0  0  0  0  0  0  0  0  0  0
    6.4988   -1.6213   -2.4717 H   0  0  0  0  0  0  0  0  0  0  0  0
  1 13  1  0  0  0  0
  2 16  1  0  0  0  0
  2 15  1  0  0  0  0
  2 14  1  0  0  0  0
  3  5  1  0  0  0  0
  3  1  2  0  0  0  0
  4  2  1  0  0  0  0
  5 21  1  0  0  0  0
  6 23  1  0  0  0  0
  6  4  1  0  0  0  0
  7  5  1  0  0  0  0
  8 26  1  0  0  0  0
  8  6  1  0  0  0  0
  8 25  1  0  0  0  0
  9 27  1  0  0  0  0
  9  7  2  0  0  0  0
 10  8  1  0  0  0  0
 11 31  1  0  0  0  0
 11 10  1  0  0  0  0
 11  9  1  0  0  0  0
 12  1  1  0  0  0  0
 17  3  1  0  0  0  0
 18  4  1  0  0  0  0
 19  4  1  0  0  0  0
 20  5  1  0  0  0  0
 22  6  1  0  0  0  0
 24  7  1  0  0  0  0
 28 10  1  0  0  0  0
 29 10  1  0  0  0  0
 30 11  1  0  0  0  0
M  END
>  <HBA>
0

>  <HBD>
0

>  <TPSA>
0.0

>  <cid>
41683

>  <dipole>
0.22

>  <excitation_energy_1>
5.819

>  <excitation_energy_2>
6.055

>  <excitation_energy_3>
6.27

>  <excitation_energy_4>
6.424

>  <homo_energy>
-6.414

>  <homo_lumo_gap>
7.026

>  <logP>
4.089

>  <lumo_energy>
0.612

>  <melting_point>
-40.69

>  <molecular_refractivity>
54.04

>  <oscillator_strength_1>
0.0206

>  <oscillator_strength_2>
0.0361

>  <oscillator_strength_3>
0.0303

>  <oscillator_strength_4>
0.0045

>  <open_babel_can_smiles>
CCCCCC/C=C/CC=C

>  <mulliken_charges>
31
1   -0.342614
2   -0.443314
3   -0.041524
4   -0.247793
5   -0.338838
6   -0.248594
7   -0.124173
8   -0.249522
9   -0.075138
10   -0.258201
11   -0.304624
12   0.138675
13   0.136038
14   0.140209
15   0.14745
16   0.140049
17   0.13085
18   0.128278
19   0.128865
20   0.149739
21   0.151234
22   0.124894
23   0.125005
24   0.115982
25   0.143915
26   0.12211
27   0.12338
28   0.127633
29   0.128825
30   0.137995
31   0.133209

>  <lowdin_charges>
31
1   -0.342468
2   -0.448652
3   -0.142284
4   -0.273137
5   -0.269531
6   -0.275474
7   -0.176257
8   -0.279289
9   -0.168547
10   -0.273361
11   -0.270457
12   0.158259
13   0.154092
14   0.149244
15   0.148471
16   0.145487
17   0.152074
18   0.13786
19   0.141286
20   0.155488
21   0.154761
22   0.138559
23   0.136424
24   0.146268
25   0.145925
26   0.135574
27   0.150667
28   0.139855
29   0.138282
30   0.147917
31   0.142964

$$$$

