PCCDB-ID:  29039
public computational chemistry database (PCCDB) project, http://pccdb.org

 39 39  0  0  0  0  0  0  0  0999 V2000
    3.3729    0.7542    0.2485 C   0  0  0  0  0  0  0  0  0  0  0  0
    0.9992    0.4441   -0.5857 C   0  0  0  0  0  0  0  0  0  0  0  0
    4.3179   -0.8693   -4.7329 C   0  0  0  0  0  0  0  0  0  0  0  0
    6.1962   -2.0641   -3.5229 C   0  0  0  0  0  0  0  0  0  0  0  0
    1.2706   -2.9790    0.7583 C   0  0  0  0  0  0  0  0  0  0  0  0
    3.8505   -4.8790   -3.2121 C   0  0  0  0  0  0  0  0  0  0  0  0
    3.4277   -1.3242   -1.9105 C   0  0  0  0  0  0  0  0  0  0  0  0
    2.2249   -0.2509    0.0424 C   0  0  0  0  0  0  0  0  0  0  0  0
    4.7118   -2.1283   -3.9394 C   0  0  0  0  0  0  0  0  0  0  0  0
    2.1941   -2.7717   -0.4282 C   0  0  0  0  0  0  0  0  0  0  0  0
    3.4117   -3.6914   -2.3768 C   0  0  0  0  0  0  0  0  0  0  0  0
    2.6323   -1.4784   -0.7724 C   0  0  0  0  0  0  0  0  0  0  0  0
    3.8195   -2.3883   -2.7257 C   0  0  0  0  0  0  0  0  0  0  0  0
    2.6073   -3.8565   -1.2298 C   0  0  0  0  0  0  0  0  0  0  0  0
    2.1570   -5.2420   -0.8722 C   0  0  0  0  0  0  0  0  0  0  0  0
    1.4784   -5.9717   -1.5643 O   0  0  0  0  0  0  0  0  0  0  0  0
    2.6144   -5.6386    0.3458 O   0  0  0  0  0  0  0  0  0  0  0  0
    3.0631    1.5381    0.9492 H   0  0  0  0  0  0  0  0  0  0  0  0
    3.6601    1.2515   -0.6850 H   0  0  0  0  0  0  0  0  0  0  0  0
    4.2640    0.2650    0.6569 H   0  0  0  0  0  0  0  0  0  0  0  0
    0.6768    1.2959    0.0255 H   0  0  0  0  0  0  0  0  0  0  0  0
    0.1524   -0.2446   -0.6829 H   0  0  0  0  0  0  0  0  0  0  0  0
    1.2372    0.8178   -1.5888 H   0  0  0  0  0  0  0  0  0  0  0  0
    4.9034   -0.8119   -5.6578 H   0  0  0  0  0  0  0  0  0  0  0  0
    4.5124    0.0517   -4.1715 H   0  0  0  0  0  0  0  0  0  0  0  0
    3.2562   -0.8817   -5.0022 H   0  0  0  0  0  0  0  0  0  0  0  0
    6.8423   -1.9312   -4.3993 H   0  0  0  0  0  0  0  0  0  0  0  0
    6.5096   -2.9774   -3.0050 H   0  0  0  0  0  0  0  0  0  0  0  0
    6.3710   -1.2219   -2.8426 H   0  0  0  0  0  0  0  0  0  0  0  0
    0.4603   -2.2430    0.7614 H   0  0  0  0  0  0  0  0  0  0  0  0
    1.8066   -2.8785    1.7108 H   0  0  0  0  0  0  0  0  0  0  0  0
    0.8082   -3.9668    0.7559 H   0  0  0  0  0  0  0  0  0  0  0  0
    4.9294   -4.8562   -3.3983 H   0  0  0  0  0  0  0  0  0  0  0  0
    3.3515   -4.8827   -4.1894 H   0  0  0  0  0  0  0  0  0  0  0  0
    3.6151   -5.8319   -2.7388 H   0  0  0  0  0  0  0  0  0  0  0  0
    3.7547   -0.3242   -2.1771 H   0  0  0  0  0  0  0  0  0  0  0  0
    1.9324   -0.5917    1.0413 H   0  0  0  0  0  0  0  0  0  0  0  0
    4.6008   -2.9732   -4.6274 H   0  0  0  0  0  0  0  0  0  0  0  0
    2.2537   -6.5365    0.4810 H   0  0  0  0  0  0  0  0  0  0  0  0
  1 20  1  0  0  0  0
  1 18  1  0  0  0  0
  2 21  1  0  0  0  0
  2  8  1  0  0  0  0
  3 25  1  0  0  0  0
  3  9  1  0  0  0  0
  4 28  1  0  0  0  0
  4 29  1  0  0  0  0
  5 30  1  0  0  0  0
  5 31  1  0  0  0  0
  6 35  1  0  0  0  0
  6 11  1  0  0  0  0
  7 12  2  0  0  0  0
  8  1  1  0  0  0  0
  8 37  1  0  0  0  0
  9  4  1  0  0  0  0
  9 13  1  0  0  0  0
 10  5  1  0  0  0  0
 11 14  1  0  0  0  0
 12 10  1  0  0  0  0
 12  8  1  0  0  0  0
 13 11  2  0  0  0  0
 13  7  1  0  0  0  0
 14 15  1  0  0  0  0
 14 10  2  0  0  0  0
 15 17  1  0  0  0  0
 16 15  2  0  0  0  0
 17 39  1  0  0  0  0
 19  1  1  0  0  0  0
 22  2  1  0  0  0  0
 23  2  1  0  0  0  0
 24  3  1  0  0  0  0
 26  3  1  0  0  0  0
 27  4  1  0  0  0  0
 32  5  1  0  0  0  0
 33  6  1  0  0  0  0
 34  6  1  0  0  0  0
 36  7  1  0  0  0  0
 38  9  1  0  0  0  0
M  END
>  <HBA>
2

>  <HBD>
1

>  <TPSA>
37.3

>  <cid>
29039

>  <dipole>
1.68

>  <excitation_energy_1>
4.673

>  <excitation_energy_2>
5.053

>  <excitation_energy_3>
5.558

>  <excitation_energy_4>
5.581

>  <homo_energy>
-6.133

>  <homo_lumo_gap>
5.641

>  <logP>
4.248

>  <lumo_energy>
-0.493

>  <melting_point>
111.34

>  <molecular_refractivity>
72.49

>  <oscillator_strength_1>
0.0298

>  <oscillator_strength_2>
0.044

>  <oscillator_strength_3>
0.0112

>  <oscillator_strength_4>
0.0222

>  <open_babel_can_smiles>
CC(c1cc(C(C)C)c(c(c1C)C(=O)O)C)C

>  <mulliken_charges>
39
1   -0.447446
2   -0.437161
3   -0.447475
4   -0.436933
5   -0.533998
6   -0.539076
7   -0.244433
8   -0.156974
9   -0.15578
10   0.096383
11   0.091382
12   0.12017
13   0.118485
14   0.027565
15   0.426386
16   -0.457938
17   -0.553009
18   0.14252
19   0.143667
20   0.150963
21   0.141185
22   0.149828
23   0.145776
24   0.142506
25   0.143052
26   0.151509
27   0.141355
28   0.149241
29   0.145028
30   0.161054
31   0.168299
32   0.161876
33   0.157392
34   0.170235
35   0.171127
36   0.119924
37   0.134228
38   0.135408
39   0.403676

>  <lowdin_charges>
39
1   -0.444467
2   -0.441313
3   -0.441798
4   -0.442142
5   -0.447443
6   -0.4467
7   -0.165016
8   -0.121699
9   -0.123033
10   -0.00166
11   0.000395
12   -0.012445
13   -0.010348
14   -0.052225
15   0.195762
16   -0.263643
17   -0.356799
18   0.151061
19   0.145858
20   0.153774
21   0.148485
22   0.151598
23   0.148851
24   0.150332
25   0.145419
26   0.152072
27   0.148316
28   0.151211
29   0.149539
30   0.159392
31   0.163358
32   0.161615
33   0.155195
34   0.164525
35   0.167362
36   0.154457
37   0.147138
38   0.149089
39   0.355928

$$$$

