PCCDB-ID:  70511
public computational chemistry database (PCCDB) project, http://pccdb.org

 20 20  0  0  0  0  0  0  0  0999 V2000
    0.8564   -1.4816   -0.5701 C   0  0  0  0  0  0  0  0  0  0  0  0
    5.0998   -3.2226    2.2042 C   0  0  0  0  0  0  0  0  0  0  0  0
    5.0362   -3.9184   -0.0838 C   0  0  0  0  0  0  0  0  0  0  0  0
    5.4950   -4.5196    2.5329 C   0  0  0  0  0  0  0  0  0  0  0  0
    5.4354   -5.1827    0.3504 C   0  0  0  0  0  0  0  0  0  0  0  0
    4.4233   -1.5164    0.4598 C   0  0  0  0  0  0  0  0  0  0  0  0
    2.3476   -1.6724   -0.7135 C   0  0  0  0  0  0  0  0  0  0  0  0
    4.8623   -2.9040    0.8640 C   0  0  0  0  0  0  0  0  0  0  0  0
    5.6658   -5.4953    1.6325 N   0  0  0  0  0  0  0  0  0  0  0  0
    2.9181   -2.0098   -1.7280 O   0  0  0  0  0  0  0  0  0  0  0  0
    2.9770   -1.3961    0.4558 O   0  0  0  0  0  0  0  0  0  0  0  0
    0.3583   -1.8219   -1.4785 H   0  0  0  0  0  0  0  0  0  0  0  0
    0.6325   -0.4222   -0.4039 H   0  0  0  0  0  0  0  0  0  0  0  0
    0.4838   -2.0354    0.2968 H   0  0  0  0  0  0  0  0  0  0  0  0
    4.9823   -2.4732    2.9829 H   0  0  0  0  0  0  0  0  0  0  0  0
    4.8532   -3.7246   -1.1358 H   0  0  0  0  0  0  0  0  0  0  0  0
    5.6864   -4.7875    3.5709 H   0  0  0  0  0  0  0  0  0  0  0  0
    5.5803   -5.9864   -0.3697 H   0  0  0  0  0  0  0  0  0  0  0  0
    4.8004   -1.2564   -0.5312 H   0  0  0  0  0  0  0  0  0  0  0  0
    4.7556   -0.7748    1.1893 H   0  0  0  0  0  0  0  0  0  0  0  0
  1 13  1  0  0  0  0
  1 14  1  0  0  0  0
  2  4  1  0  0  0  0
  2 15  1  0  0  0  0
  3  5  2  0  0  0  0
  3  8  1  0  0  0  0
  4 17  1  0  0  0  0
  5  9  1  0  0  0  0
  6  8  1  0  0  0  0
  6 20  1  0  0  0  0
  7  1  1  0  0  0  0
  7 11  1  0  0  0  0
  8  2  2  0  0  0  0
  9  4  2  0  0  0  0
 10  7  2  0  0  0  0
 11  6  1  0  0  0  0
 12  1  1  0  0  0  0
 16  3  1  0  0  0  0
 18  5  1  0  0  0  0
 19  6  1  0  0  0  0
M  END
>  <HBA>
3

>  <HBD>
0

>  <TPSA>
39.19

>  <cid>
70511

>  <dipole>
2.78

>  <excitation_energy_1>
4.698

>  <excitation_energy_2>
5.149

>  <excitation_energy_3>
5.357

>  <excitation_energy_4>
5.771

>  <homo_energy>
-6.931

>  <homo_lumo_gap>
6.027

>  <logP>
1.145

>  <lumo_energy>
-0.903

>  <melting_point>
33.77

>  <molecular_refractivity>
40.1

>  <oscillator_strength_1>
0.004

>  <oscillator_strength_2>
0.0

>  <oscillator_strength_3>
0.0408

>  <oscillator_strength_4>
0.0034

>  <open_babel_can_smiles>
CC(=O)OCc1ccncc1

>  <mulliken_charges>
20
1   -0.523254
2   -0.177635
3   -0.18172
4   0.039011
5   0.037347
6   -0.13594
7   0.606225
8   0.160286
9   -0.404414
10   -0.46693
11   -0.444889
12   0.185235
13   0.185288
14   0.185295
15   0.136406
16   0.168199
17   0.143013
18   0.145523
19   0.182194
20   0.160759

>  <lowdin_charges>
20
1   -0.463444
2   -0.178822
3   -0.171834
4   -0.086648
5   -0.089115
6   -0.128575
7   0.205762
8   0.001625
9   -0.146365
10   -0.267414
11   -0.197791
12   0.177758
13   0.178952
14   0.179968
15   0.16412
16   0.176456
17   0.156147
18   0.159917
19   0.168041
20   0.161263

$$$$

