PCCDB-ID:  40299
public computational chemistry database (PCCDB) project, http://pccdb.org

 23 23  0  0  0  0  0  0  0  0999 V2000
    1.0526   -0.1021    0.2186 C   0  0  0  0  0  0  0  0  0  0  0  0
    3.2653   -0.8219    1.2193 C   0  0  0  0  0  0  0  0  0  0  0  0
    2.9079   -0.9157   -1.2624 C   0  0  0  0  0  0  0  0  0  0  0  0
    3.1102    1.3133   -0.1070 C   0  0  0  0  0  0  0  0  0  0  0  0
    2.9764    2.3068    0.9041 C   0  0  0  0  0  0  0  0  0  0  0  0
    4.0546    3.7622   -0.4306 C   0  0  0  0  0  0  0  0  0  0  0  0
    2.5874   -0.1210    0.0169 C   0  0  0  0  0  0  0  0  0  0  0  0
    3.4475    3.5302    0.7442 N   0  0  0  0  0  0  0  0  0  0  0  0
    3.7320    1.6638   -1.2289 N   0  0  0  0  0  0  0  0  0  0  0  0
    4.2199    2.8931   -1.4220 N   0  0  0  0  0  0  0  0  0  0  0  0
    2.3605    2.0300    2.0670 O   0  0  0  0  0  0  0  0  0  0  0  0
    4.5491    4.9923   -0.6378 O   0  0  0  0  0  0  0  0  0  0  0  0
    0.6785   -1.1298    0.2931 H   0  0  0  0  0  0  0  0  0  0  0  0
    0.5533    0.3754   -0.6325 H   0  0  0  0  0  0  0  0  0  0  0  0
    0.7641    0.4277    1.1304 H   0  0  0  0  0  0  0  0  0  0  0  0
    2.9015   -1.8531    1.2968 H   0  0  0  0  0  0  0  0  0  0  0  0
    3.0497   -0.3167    2.1646 H   0  0  0  0  0  0  0  0  0  0  0  0
    4.3528   -0.8592    1.0862 H   0  0  0  0  0  0  0  0  0  0  0  0
    2.5264   -1.9375   -1.1534 H   0  0  0  0  0  0  0  0  0  0  0  0
    3.9846   -0.9642   -1.4479 H   0  0  0  0  0  0  0  0  0  0  0  0
    2.4459   -0.4638   -2.1446 H   0  0  0  0  0  0  0  0  0  0  0  0
    2.3816    2.8513    2.5943 H   0  0  0  0  0  0  0  0  0  0  0  0
    4.3593    5.5114    0.1625 H   0  0  0  0  0  0  0  0  0  0  0  0
  1 13  1  0  0  0  0
  1 15  1  0  0  0  0
  2 16  1  0  0  0  0
  2 17  1  0  0  0  0
  3 19  1  0  0  0  0
  3  7  1  0  0  0  0
  4  7  1  0  0  0  0
  4  5  1  0  0  0  0
  5 11  1  0  0  0  0
  6  8  2  0  0  0  0
  7  1  1  0  0  0  0
  7  2  1  0  0  0  0
  8  5  2  0  0  0  0
  9  4  2  0  0  0  0
 10  9  1  0  0  0  0
 10  6  2  0  0  0  0
 11 22  1  0  0  0  0
 12  6  1  0  0  0  0
 12 23  1  0  0  0  0
 14  1  1  0  0  0  0
 18  2  1  0  0  0  0
 20  3  1  0  0  0  0
 21  3  1  0  0  0  0
M  END
>  <HBA>
3

>  <HBD>
2

>  <TPSA>
78.61

>  <cid>
40299

>  <dipole>
4.57

>  <excitation_energy_1>
3.503

>  <excitation_energy_2>
4.775

>  <excitation_energy_3>
4.788

>  <excitation_energy_4>
5.67

>  <homo_energy>
-6.457

>  <homo_lumo_gap>
4.876

>  <logP>
-0.244

>  <lumo_energy>
-1.581

>  <melting_point>
193.05

>  <molecular_refractivity>
44.75

>  <oscillator_strength_1>
0.0033

>  <oscillator_strength_2>
0.0005

>  <oscillator_strength_3>
0.1091

>  <oscillator_strength_4>
0.0001

>  <open_babel_can_smiles>
CC(C1=NN=[C](=[N]=C1O)O)(C)C

>  <mulliken_charges>
23
1   -0.458933
2   -0.459022
3   -0.42769
4   0.289943
5   0.520267
6   0.661596
7   0.024477
8   -0.556849
9   -0.311933
10   -0.29994
11   -0.598386
12   -0.576381
13   0.145619
14   0.148099
15   0.161563
16   0.14565
17   0.161734
18   0.148125
19   0.131811
20   0.156416
21   0.156446
22   0.417972
23   0.419414

>  <lowdin_charges>
23
1   -0.447043
2   -0.443525
3   -0.434381
4   -0.01647
5   0.146871
6   0.14509
7   0.017033
8   -0.220974
9   -0.05804
10   -0.135263
11   -0.332997
12   -0.330059
13   0.150934
14   0.152348
15   0.156662
16   0.150787
17   0.156324
18   0.149548
19   0.144552
20   0.156363
21   0.158643
22   0.366385
23   0.367213

$$$$

