PCCDB-ID:  34711
public computational chemistry database (PCCDB) project, http://pccdb.org

 32 32  0  0  1  0  0  0  0  0999 V2000
    0.6520    1.0664    0.5228 C   0  0  0  0  0  0  0  0  0  0  0  0
    5.6124   -1.2133   -2.0708 C   0  0  0  0  0  0  0  0  0  0  0  0
    2.1826    0.9891    0.5388 C   0  0  0  0  0  0  0  0  0  0  0  0
    4.6929   -1.2883   -0.8465 C   0  0  0  0  0  0  0  0  0  0  0  0
    2.7009   -0.2319    1.3088 C   0  0  0  0  0  0  0  0  0  0  0  0
    5.0332   -0.2226    0.2044 C   0  0  0  0  0  0  0  0  0  0  0  0
    4.6336   -1.4948    2.4176 C   0  0  0  0  0  0  0  0  0  0  0  0
    4.7355    0.5187    3.6523 C   0  0  0  0  0  0  0  0  0  0  0  0
    5.4011   -0.8549    3.5927 C   0  0  2  0  0  0  0  0  0  0  0  0
    4.2284   -0.2872    1.5154 C   0  0  0  0  0  0  0  0  0  0  0  0
    6.7966   -0.7353    3.3336 O   0  0  0  0  0  0  0  0  0  0  0  0
    4.6372    0.8906    2.2782 O   0  0  0  0  0  0  0  0  0  0  0  0
    0.3030    1.9338   -0.0491 H   0  0  0  0  0  0  0  0  0  0  0  0
    0.2485    1.1541    1.5391 H   0  0  0  0  0  0  0  0  0  0  0  0
    0.2108    0.1698    0.0692 H   0  0  0  0  0  0  0  0  0  0  0  0
    5.3412   -1.9665   -2.8190 H   0  0  0  0  0  0  0  0  0  0  0  0
    6.6594   -1.3820   -1.7910 H   0  0  0  0  0  0  0  0  0  0  0  0
    5.5530   -0.2290   -2.5511 H   0  0  0  0  0  0  0  0  0  0  0  0
    2.5971    1.8944    0.9977 H   0  0  0  0  0  0  0  0  0  0  0  0
    2.5519    0.9679   -0.4951 H   0  0  0  0  0  0  0  0  0  0  0  0
    4.7657   -2.2896   -0.4001 H   0  0  0  0  0  0  0  0  0  0  0  0
    3.6507   -1.1744   -1.1711 H   0  0  0  0  0  0  0  0  0  0  0  0
    2.3769   -1.1568    0.8108 H   0  0  0  0  0  0  0  0  0  0  0  0
    2.2297   -0.2484    2.3024 H   0  0  0  0  0  0  0  0  0  0  0  0
    4.9068    0.7766   -0.2310 H   0  0  0  0  0  0  0  0  0  0  0  0
    6.0973   -0.3078    0.4654 H   0  0  0  0  0  0  0  0  0  0  0  0
    3.7463   -2.0239    2.7847 H   0  0  0  0  0  0  0  0  0  0  0  0
    5.2661   -2.2213    1.9006 H   0  0  0  0  0  0  0  0  0  0  0  0
    5.3422    1.2699    4.1658 H   0  0  0  0  0  0  0  0  0  0  0  0
    3.7451    0.4696    4.1336 H   0  0  0  0  0  0  0  0  0  0  0  0
    5.3131   -1.4270    4.5204 H   0  0  0  0  0  0  0  0  0  0  0  0
    6.8884   -0.0484    2.6520 H   0  0  0  0  0  0  0  0  0  0  0  0
  1  3  1  0  0  0  0
  1 14  1  0  0  0  0
  2 17  1  0  0  0  0
  2  4  1  0  0  0  0
  3 19  1  0  0  0  0
  3  5  1  0  0  0  0
  4 21  1  0  0  0  0
  4  6  1  0  0  0  0
  5 10  1  0  0  0  0
  5 24  1  0  0  0  0
  6 26  1  0  0  0  0
  6 10  1  0  0  0  0
  7 27  1  0  0  0  0
  7  9  1  0  0  0  0
  8 30  1  0  0  0  0
  8 29  1  0  0  0  0
  9  8  1  0  0  0  0
  9 31  1  1  0  0  0
 10 12  1  0  0  0  0
 10  7  1  0  0  0  0
 11  9  1  0  0  0  0
 12  8  1  0  0  0  0
 13  1  1  0  0  0  0
 15  1  1  0  0  0  0
 16  2  1  0  0  0  0
 18  2  1  0  0  0  0
 20  3  1  0  0  0  0
 22  4  1  0  0  0  0
 23  5  1  0  0  0  0
 25  6  1  0  0  0  0
 28  7  1  0  0  0  0
 32 11  1  0  0  0  0
M  END
>  <HBA>
2

>  <HBD>
1

>  <TPSA>
29.46

>  <cid>
34711

>  <dipole>
1.53

>  <excitation_energy_1>
6.227

>  <excitation_energy_2>
6.5

>  <excitation_energy_3>
6.646

>  <excitation_energy_4>
6.813

>  <homo_energy>
-6.651

>  <homo_lumo_gap>
8.566

>  <logP>
2.107

>  <lumo_energy>
1.916

>  <melting_point>
14.05

>  <molecular_refractivity>
50.35

>  <oscillator_strength_1>
0.0097

>  <oscillator_strength_2>
0.0075

>  <oscillator_strength_3>
0.0058

>  <oscillator_strength_4>
0.0036

>  <open_babel_can_smiles>
CCCC1(CCC)OC[C@@H](C1)O

>  <mulliken_charges>
32
1   -0.443806
2   -0.442327
3   -0.260159
4   -0.264696
5   -0.277434
6   -0.27838
7   -0.343194
8   -0.060572
9   0.121072
10   0.334606
11   -0.632289
12   -0.521347
13   0.143163
14   0.141336
15   0.139053
16   0.143835
17   0.145188
18   0.144344
19   0.155238
20   0.133285
21   0.136513
22   0.140459
23   0.133119
24   0.12715
25   0.148157
26   0.122219
27   0.140452
28   0.160766
29   0.154946
30   0.124545
31   0.137157
32   0.397602

>  <lowdin_charges>
32
1   -0.444121
2   -0.441864
3   -0.277468
4   -0.274897
5   -0.286484
6   -0.280549
7   -0.314136
8   -0.154419
9   -0.014123
10   0.119304
11   -0.464179
12   -0.289104
13   0.150656
14   0.145237
15   0.145303
16   0.151317
17   0.146784
18   0.147471
19   0.151978
20   0.138605
21   0.140106
22   0.141481
23   0.143667
24   0.140868
25   0.150604
26   0.137658
27   0.152134
28   0.162233
29   0.155704
30   0.130545
31   0.147778
32   0.341909

$$$$

