PCCDB-ID:  70766
public computational chemistry database (PCCDB) project, http://pccdb.org

 19 20  0  0  0  0  0  0  0  0999 V2000
    2.4280   -0.6807   -0.0333 C   0  0  0  0  0  0  0  0  0  0  0  0
    1.2495   -1.3901    0.0053 C   0  0  0  0  0  0  0  0  0  0  0  0
    2.4247    0.7316   -0.0529 C   0  0  0  0  0  0  0  0  0  0  0  0
   -1.2763    1.3641   -0.0952 C   0  0  0  0  0  0  0  0  0  0  0  0
   -2.4165    0.5927   -0.0662 C   0  0  0  0  0  0  0  0  0  0  0  0
   -1.2367   -1.3591    0.0329 C   0  0  0  0  0  0  0  0  0  0  0  0
    0.0175   -0.6882    0.0008 C   0  0  0  0  0  0  0  0  0  0  0  0
   -0.0042    0.7392   -0.0471 C   0  0  0  0  0  0  0  0  0  0  0  0
    1.2407    1.4536   -0.0509 C   0  0  0  0  0  0  0  0  0  0  0  0
    1.2380    2.8505   -0.1129 N   0  0  0  0  0  0  0  0  0  0  0  0
   -2.4121   -0.7654    0.0068 N   0  0  0  0  0  0  0  0  0  0  0  0
    3.3814   -1.2020   -0.0345 H   0  0  0  0  0  0  0  0  0  0  0  0
    1.2455   -2.4761    0.0354 H   0  0  0  0  0  0  0  0  0  0  0  0
    3.3721    1.2665   -0.0615 H   0  0  0  0  0  0  0  0  0  0  0  0
   -1.3659    2.4424   -0.1864 H   0  0  0  0  0  0  0  0  0  0  0  0
   -3.3990    1.0578   -0.1089 H   0  0  0  0  0  0  0  0  0  0  0  0
   -1.2420   -2.4493    0.0800 H   0  0  0  0  0  0  0  0  0  0  0  0
    2.1367    3.2711    0.0919 H   0  0  0  0  0  0  0  0  0  0  0  0
    0.5045    3.2999    0.4220 H   0  0  0  0  0  0  0  0  0  0  0  0
  1  2  2  0  0  0  0
  2 13  1  0  0  0  0
  3  9  2  0  0  0  0
  3  1  1  0  0  0  0
  4  5  2  0  0  0  0
  4  8  1  0  0  0  0
  5 11  1  0  0  0  0
  6 17  1  0  0  0  0
  7  2  1  0  0  0  0
  7  6  1  0  0  0  0
  8  7  2  0  0  0  0
  9  8  1  0  0  0  0
 10  9  1  0  0  0  0
 10 18  1  0  0  0  0
 10 19  1  0  0  0  0
 11  6  2  0  0  0  0
 12  1  1  0  0  0  0
 14  3  1  0  0  0  0
 15  4  1  0  0  0  0
 16  5  1  0  0  0  0
M  END
>  <HBA>
2

>  <HBD>
1

>  <TPSA>
38.91

>  <cid>
70766

>  <dipole>
3.64

>  <excitation_energy_1>
3.791

>  <excitation_energy_2>
4.219

>  <excitation_energy_3>
4.405

>  <excitation_energy_4>
4.704

>  <homo_energy>
-5.459

>  <homo_lumo_gap>
4.329

>  <logP>
2.398

>  <lumo_energy>
-1.129

>  <melting_point>
113.31

>  <molecular_refractivity>
46.15

>  <oscillator_strength_1>
0.0853

>  <oscillator_strength_2>
0.0589

>  <oscillator_strength_3>
0.0015

>  <oscillator_strength_4>
0.006

>  <open_babel_can_smiles>
Nc1cccc2c1ccnc2

>  <mulliken_charges>
19
1   -0.138299
2   -0.197799
3   -0.181732
4   -0.203383
5   0.024612
6   -0.010332
7   0.101822
8   0.123343
9   0.249079
10   -0.786784
11   -0.416308
12   0.132158
13   0.131088
14   0.119501
15   0.128291
16   0.137711
17   0.13972
18   0.322902
19   0.324414

>  <lowdin_charges>
19
1   -0.146371
2   -0.175152
3   -0.201475
4   -0.178814
5   -0.102124
6   -0.082192
7   -0.014925
8   -0.013682
9   0.057498
10   -0.486332
11   -0.15034
12   0.160174
13   0.158013
14   0.154561
15   0.157946
16   0.156096
17   0.152296
18   0.27655
19   0.278276

$$$$

