PCCDB-ID:  16732
public computational chemistry database (PCCDB) project, http://pccdb.org

 27 28  0  0  0  0  0  0  0  0999 V2000
    0.9728    0.1125   -0.2930 C   0  0  0  0  0  0  0  0  0  0  0  0
    5.4829   -4.8418    0.1294 C   0  0  0  0  0  0  0  0  0  0  0  0
    2.5443   -4.9096   -0.2279 C   0  0  0  0  0  0  0  0  0  0  0  0
    4.5718    1.3157    0.1894 C   0  0  0  0  0  0  0  0  0  0  0  0
    3.1678    1.2890    0.0142 C   0  0  0  0  0  0  0  0  0  0  0  0
    5.2840    0.1413    0.2450 C   0  0  0  0  0  0  0  0  0  0  0  0
    5.3200   -2.3380    0.1815 C   0  0  0  0  0  0  0  0  0  0  0  0
    2.5666   -2.4017   -0.1581 C   0  0  0  0  0  0  0  0  0  0  0  0
    2.4712    0.1019   -0.1046 C   0  0  0  0  0  0  0  0  0  0  0  0
    4.6888   -3.5588    0.0708 C   0  0  0  0  0  0  0  0  0  0  0  0
    3.2679   -3.5899   -0.1039 C   0  0  0  0  0  0  0  0  0  0  0  0
    4.6163   -1.1068    0.1289 C   0  0  0  0  0  0  0  0  0  0  0  0
    3.1963   -1.1329   -0.0466 C   0  0  0  0  0  0  0  0  0  0  0  0
    0.5925    1.1380   -0.3188 H   0  0  0  0  0  0  0  0  0  0  0  0
    0.4554   -0.4144    0.5190 H   0  0  0  0  0  0  0  0  0  0  0  0
    0.6768   -0.3762   -1.2302 H   0  0  0  0  0  0  0  0  0  0  0  0
    6.5447   -4.6391    0.2986 H   0  0  0  0  0  0  0  0  0  0  0  0
    5.3968   -5.4155   -0.8030 H   0  0  0  0  0  0  0  0  0  0  0  0
    5.1350   -5.5006    0.9356 H   0  0  0  0  0  0  0  0  0  0  0  0
    1.4702   -4.7582   -0.3710 H   0  0  0  0  0  0  0  0  0  0  0  0
    2.6777   -5.5320    0.6669 H   0  0  0  0  0  0  0  0  0  0  0  0
    2.9155   -5.4990   -1.0766 H   0  0  0  0  0  0  0  0  0  0  0  0
    5.0811    2.2717    0.2779 H   0  0  0  0  0  0  0  0  0  0  0  0
    2.6232    2.2295   -0.0287 H   0  0  0  0  0  0  0  0  0  0  0  0
    6.3633    0.1502    0.3781 H   0  0  0  0  0  0  0  0  0  0  0  0
    6.3999   -2.3055    0.3154 H   0  0  0  0  0  0  0  0  0  0  0  0
    1.4894   -2.4422   -0.2917 H   0  0  0  0  0  0  0  0  0  0  0  0
  1  9  1  0  0  0  0
  1 15  1  0  0  0  0
  2 17  1  0  0  0  0
  2 19  1  0  0  0  0
  3 11  1  0  0  0  0
  3 21  1  0  0  0  0
  4  6  1  0  0  0  0
  4 23  1  0  0  0  0
  5  4  2  0  0  0  0
  6 25  1  0  0  0  0
  7 26  1  0  0  0  0
  8 11  2  0  0  0  0
  8 13  1  0  0  0  0
  9 13  2  0  0  0  0
  9  5  1  0  0  0  0
 10  2  1  0  0  0  0
 10  7  2  0  0  0  0
 11 10  1  0  0  0  0
 12  7  1  0  0  0  0
 12  6  2  0  0  0  0
 13 12  1  0  0  0  0
 14  1  1  0  0  0  0
 16  1  1  0  0  0  0
 18  2  1  0  0  0  0
 20  3  1  0  0  0  0
 22  3  1  0  0  0  0
 24  5  1  0  0  0  0
 27  8  1  0  0  0  0
M  END
>  <HBA>
0

>  <HBD>
0

>  <TPSA>
0.0

>  <cid>
16732

>  <dipole>
0.79

>  <excitation_energy_1>
4.26

>  <excitation_energy_2>
4.334

>  <excitation_energy_3>
5.272

>  <excitation_energy_4>
5.429

>  <homo_energy>
-5.51

>  <homo_lumo_gap>
4.748

>  <logP>
3.765

>  <lumo_energy>
-0.762

>  <melting_point>
62.17

>  <molecular_refractivity>
58.85

>  <oscillator_strength_1>
0.072

>  <oscillator_strength_2>
0.0007

>  <oscillator_strength_3>
0.0013

>  <oscillator_strength_4>
0.0

>  <open_babel_can_smiles>
Cc1cc2c(cc1C)cccc2C

>  <mulliken_charges>
27
1   -0.533475
2   -0.535061
3   -0.535955
4   -0.13072
5   -0.20556
6   -0.197445
7   -0.274358
8   -0.280848
9   0.133098
10   0.141061
11   0.147783
12   0.153524
13   0.089768
14   0.154463
15   0.160841
16   0.160818
17   0.156164
18   0.159073
19   0.158174
20   0.155373
21   0.158821
22   0.158396
23   0.125007
24   0.117941
25   0.124226
26   0.119485
27   0.119403

>  <lowdin_charges>
27
1   -0.443689
2   -0.440043
3   -0.44015
4   -0.161084
5   -0.174193
6   -0.160259
7   -0.166881
8   -0.173164
9   -8e-05
10   -0.008624
11   -0.006267
12   -0.000719
13   -0.011766
14   0.156593
15   0.159731
16   0.158844
17   0.156159
18   0.158149
19   0.158612
20   0.155434
21   0.158195
22   0.158572
23   0.156486
24   0.15321
25   0.153198
26   0.150543
27   0.153193

$$$$

