PCCDB-ID:  43930
public computational chemistry database (PCCDB) project, http://pccdb.org

 29 29  0  0  0  0  0  0  0  0999 V2000
    2.9622   -1.0999    1.6767 C   0  0  0  0  0  0  0  0  0  0  0  0
    7.2846   -4.3704   -3.2368 C   0  0  0  0  0  0  0  0  0  0  0  0
    5.8714   -4.5403   -2.6590 C   0  0  0  0  0  0  0  0  0  0  0  0
    7.9317   -3.0599   -2.7619 C   0  0  0  0  0  0  0  0  0  0  0  0
    4.9861   -3.3203   -2.9664 C   0  0  0  0  0  0  0  0  0  0  0  0
    7.0352   -1.8502   -3.0753 C   0  0  0  0  0  0  0  0  0  0  0  0
    5.5895   -1.7936   -0.9617 C   0  0  0  0  0  0  0  0  0  0  0  0
    4.1941   -1.5715   -0.3705 C   0  0  0  0  0  0  0  0  0  0  0  0
    5.6090   -1.9843   -2.4943 C   0  0  0  0  0  0  0  0  0  0  0  0
    4.2705   -1.2874    1.0613 N   0  0  0  0  0  0  0  0  0  0  0  0
    3.0808   -0.9610    2.7566 H   0  0  0  0  0  0  0  0  0  0  0  0
    2.2541   -1.9347    1.5109 H   0  0  0  0  0  0  0  0  0  0  0  0
    2.4982   -0.1917    1.2732 H   0  0  0  0  0  0  0  0  0  0  0  0
    7.2235   -4.3615   -4.3355 H   0  0  0  0  0  0  0  0  0  0  0  0
    7.9137   -5.2285   -2.9669 H   0  0  0  0  0  0  0  0  0  0  0  0
    5.9384   -4.6905   -1.5721 H   0  0  0  0  0  0  0  0  0  0  0  0
    5.4036   -5.4473   -3.0633 H   0  0  0  0  0  0  0  0  0  0  0  0
    8.9120   -2.9278   -3.2379 H   0  0  0  0  0  0  0  0  0  0  0  0
    8.1211   -3.1158   -1.6806 H   0  0  0  0  0  0  0  0  0  0  0  0
    3.9900   -3.4580   -2.5283 H   0  0  0  0  0  0  0  0  0  0  0  0
    4.8351   -3.2641   -4.0545 H   0  0  0  0  0  0  0  0  0  0  0  0
    6.9585   -1.7473   -4.1679 H   0  0  0  0  0  0  0  0  0  0  0  0
    7.5013   -0.9261   -2.7087 H   0  0  0  0  0  0  0  0  0  0  0  0
    6.0554   -2.6543   -0.4608 H   0  0  0  0  0  0  0  0  0  0  0  0
    6.2027   -0.9218   -0.6995 H   0  0  0  0  0  0  0  0  0  0  0  0
    3.5376   -2.4360   -0.5920 H   0  0  0  0  0  0  0  0  0  0  0  0
    3.7284   -0.7021   -0.8566 H   0  0  0  0  0  0  0  0  0  0  0  0
    5.0054   -1.1686   -2.9203 H   0  0  0  0  0  0  0  0  0  0  0  0
    4.7470   -2.0607    1.5236 H   0  0  0  0  0  0  0  0  0  0  0  0
  1 11  1  0  0  0  0
  2 15  1  0  0  0  0
  2  4  1  0  0  0  0
  2  3  1  0  0  0  0
  3 16  1  0  0  0  0
  4 19  1  0  0  0  0
  5  3  1  0  0  0  0
  5 20  1  0  0  0  0
  5  9  1  0  0  0  0
  6  4  1  0  0  0  0
  6 23  1  0  0  0  0
  6  9  1  0  0  0  0
  7 25  1  0  0  0  0
  7 24  1  0  0  0  0
  7  8  1  0  0  0  0
  8 10  1  0  0  0  0
  9  7  1  0  0  0  0
 10 29  1  0  0  0  0
 10  1  1  0  0  0  0
 12  1  1  0  0  0  0
 13  1  1  0  0  0  0
 14  2  1  0  0  0  0
 17  3  1  0  0  0  0
 18  4  1  0  0  0  0
 21  5  1  0  0  0  0
 22  6  1  0  0  0  0
 26  8  1  0  0  0  0
 27  8  1  0  0  0  0
 28  9  1  0  0  0  0
M  END
>  <HBA>
1

>  <HBD>
1

>  <TPSA>
12.03

>  <cid>
43930

>  <dipole>
0.94

>  <excitation_energy_1>
5.283

>  <excitation_energy_2>
5.722

>  <excitation_energy_3>
5.824

>  <excitation_energy_4>
6.052

>  <homo_energy>
-5.823

>  <homo_lumo_gap>
7.957

>  <logP>
2.567

>  <lumo_energy>
2.133

>  <melting_point>
21.2

>  <molecular_refractivity>
46.06

>  <oscillator_strength_1>
0.001

>  <oscillator_strength_2>
0.0126

>  <oscillator_strength_3>
0.0125

>  <oscillator_strength_4>
0.0322

>  <open_babel_can_smiles>
CNCCC1CCCCC1

>  <mulliken_charges>
29
1   -0.297616
2   -0.254103
3   -0.259237
4   -0.259978
5   -0.268308
6   -0.264701
7   -0.272467
8   -0.11865
9   -0.076767
10   -0.541423
11   0.146198
12   0.116518
13   0.150168
14   0.125834
15   0.127709
16   0.12825
17   0.129141
18   0.129254
19   0.13146
20   0.131521
21   0.125858
22   0.124415
23   0.127887
24   0.12476
25   0.14442
26   0.110316
27   0.134684
28   0.115292
29   0.289566

>  <lowdin_charges>
29
1   -0.359479
2   -0.276301
3   -0.27843
4   -0.277564
5   -0.279662
6   -0.27687
7   -0.285809
8   -0.203553
9   -0.129336
10   -0.364511
11   0.147573
12   0.119312
13   0.147776
14   0.134098
15   0.142477
16   0.134307
17   0.143518
18   0.142612
19   0.136325
20   0.140722
21   0.137027
22   0.135778
23   0.141835
24   0.136061
25   0.149965
26   0.114666
27   0.139419
28   0.137986
29   0.250058

$$$$

