PCCDB-ID:  18898
public computational chemistry database (PCCDB) project, http://pccdb.org

 15 15  0  0  0  0  0  0  0  0999 V2000
    2.9340   -1.5922    0.2290 C   0  0  0  0  0  0  0  0  0  0  0  0
    4.4704    2.1137    2.2807 C   0  0  0  0  0  0  0  0  0  0  0  0
    3.6293    2.9025    1.5482 C   0  0  0  0  0  0  0  0  0  0  0  0
    2.5337   -0.1386    0.0404 C   0  0  0  0  0  0  0  0  0  0  0  0
    4.2110    0.7818    1.8383 C   0  0  0  0  0  0  0  0  0  0  0  0
    3.2296    0.8493    0.8669 C   0  0  0  0  0  0  0  0  0  0  0  0
    1.6732    0.1999   -0.7607 O   0  0  0  0  0  0  0  0  0  0  0  0
    4.7948   -0.3671    2.2660 O   0  0  0  0  0  0  0  0  0  0  0  0
    2.8820    2.1747    0.7019 O   0  0  0  0  0  0  0  0  0  0  0  0
    4.0007   -1.7370    0.0232 H   0  0  0  0  0  0  0  0  0  0  0  0
    2.3384   -2.2040   -0.4513 H   0  0  0  0  0  0  0  0  0  0  0  0
    2.7670   -1.9156    1.2629 H   0  0  0  0  0  0  0  0  0  0  0  0
    5.1791    2.4363    3.0319 H   0  0  0  0  0  0  0  0  0  0  0  0
    3.4644    3.9698    1.5288 H   0  0  0  0  0  0  0  0  0  0  0  0
    5.4507   -0.1513    2.9461 H   0  0  0  0  0  0  0  0  0  0  0  0
  1 12  1  0  0  0  0
  2 13  1  0  0  0  0
  3  2  2  0  0  0  0
  4  1  1  0  0  0  0
  4  6  1  0  0  0  0
  5  8  1  0  0  0  0
  5  2  1  0  0  0  0
  6  5  2  0  0  0  0
  7  4  2  0  0  0  0
  8 15  1  0  0  0  0
  9  6  1  0  0  0  0
  9  3  1  0  0  0  0
 10  1  1  0  0  0  0
 11  1  1  0  0  0  0
 14  3  1  0  0  0  0
M  END
>  <HBA>
3

>  <HBD>
1

>  <TPSA>
50.44

>  <cid>
18898

>  <dipole>
5.69

>  <excitation_energy_1>
3.88

>  <excitation_energy_2>
4.952

>  <excitation_energy_3>
5.119

>  <excitation_energy_4>
5.604

>  <homo_energy>
-6.242

>  <homo_lumo_gap>
5.178

>  <logP>
1.188

>  <lumo_energy>
-1.064

>  <melting_point>
78.42

>  <molecular_refractivity>
30.93

>  <oscillator_strength_1>
0.0001

>  <oscillator_strength_2>
0.3294

>  <oscillator_strength_3>
0.0005

>  <oscillator_strength_4>
0.0486

>  <open_babel_can_smiles>
CC(=O)c1occc1O

>  <mulliken_charges>
15
1   -0.530711
2   -0.213624
3   0.108796
4   0.393927
5   0.242279
6   0.260909
7   -0.464748
8   -0.635534
9   -0.418831
10   0.172636
11   0.173563
12   0.172981
13   0.147699
14   0.170296
15   0.420362

>  <lowdin_charges>
15
1   -0.46976
2   -0.253983
3   -0.037527
4   0.145256
5   0.074876
6   -0.014991
7   -0.250953
8   -0.359312
9   -0.06527
10   0.170059
11   0.172429
12   0.170739
13   0.172486
14   0.175864
15   0.370088

$$$$

