PCCDB-ID:  41326
public computational chemistry database (PCCDB) project, http://pccdb.org

 38 37  0  0  0  0  0  0  0  0999 V2000
    4.4868   -1.7141    2.5318 C   0  0  0  0  0  0  0  0  0  0  0  0
    2.8125    1.8626   -4.4939 C   0  0  0  0  0  0  0  0  0  0  0  0
    9.0939   -1.2958   -4.5836 C   0  0  0  0  0  0  0  0  0  0  0  0
    4.3998   -2.7337   -2.8483 C   0  0  0  0  0  0  0  0  0  0  0  0
    4.4696   -0.8382    1.2749 C   0  0  0  0  0  0  0  0  0  0  0  0
    3.2176    0.5440   -5.1342 C   0  0  0  0  0  0  0  0  0  0  0  0
    8.4682   -2.5053   -3.9062 C   0  0  0  0  0  0  0  0  0  0  0  0
    4.7917   -1.6217   -0.0053 C   0  0  0  0  0  0  0  0  0  0  0  0
    4.7203   -0.7347   -1.2565 C   0  0  0  0  0  0  0  0  0  0  0  0
    4.8812   -0.3804   -3.7010 C   0  0  0  0  0  0  0  0  0  0  0  0
    6.6731   -1.6396   -2.6003 C   0  0  0  0  0  0  0  0  0  0  0  0
    5.1507   -1.4098   -2.5913 C   0  0  0  0  0  0  0  0  0  0  0  0
    5.7010    0.4195   -4.1013 O   0  0  0  0  0  0  0  0  0  0  0  0
    7.4400   -1.2813   -1.7339 O   0  0  0  0  0  0  0  0  0  0  0  0
    3.6053   -0.4332   -4.1352 O   0  0  0  0  0  0  0  0  0  0  0  0
    7.0458   -2.3100   -3.7101 O   0  0  0  0  0  0  0  0  0  0  0  0
    4.2636   -1.1279    3.4306 H   0  0  0  0  0  0  0  0  0  0  0  0
    5.4686   -2.1818    2.6741 H   0  0  0  0  0  0  0  0  0  0  0  0
    3.7436   -2.5183    2.4654 H   0  0  0  0  0  0  0  0  0  0  0  0
    2.4564    2.5548   -5.2656 H   0  0  0  0  0  0  0  0  0  0  0  0
    3.6651    2.3235   -3.9877 H   0  0  0  0  0  0  0  0  0  0  0  0
    2.0060    1.7130   -3.7686 H   0  0  0  0  0  0  0  0  0  0  0  0
   10.1540   -1.4901   -4.7843 H   0  0  0  0  0  0  0  0  0  0  0  0
    9.0173   -0.4135   -3.9426 H   0  0  0  0  0  0  0  0  0  0  0  0
    8.5934   -1.0802   -5.5326 H   0  0  0  0  0  0  0  0  0  0  0  0
    3.3208   -2.5758   -2.7753 H   0  0  0  0  0  0  0  0  0  0  0  0
    4.6906   -3.4882   -2.1114 H   0  0  0  0  0  0  0  0  0  0  0  0
    4.6272   -3.1265   -3.8416 H   0  0  0  0  0  0  0  0  0  0  0  0
    5.1934   -0.0195    1.3878 H   0  0  0  0  0  0  0  0  0  0  0  0
    3.4832   -0.3625    1.1742 H   0  0  0  0  0  0  0  0  0  0  0  0
    4.0479    0.6787   -5.8314 H   0  0  0  0  0  0  0  0  0  0  0  0
    2.3783    0.0749   -5.6532 H   0  0  0  0  0  0  0  0  0  0  0  0
    8.9317   -2.7061   -2.9374 H   0  0  0  0  0  0  0  0  0  0  0  0
    8.5338   -3.3984   -4.5327 H   0  0  0  0  0  0  0  0  0  0  0  0
    4.0859   -2.4584   -0.0953 H   0  0  0  0  0  0  0  0  0  0  0  0
    5.7949   -2.0549    0.0796 H   0  0  0  0  0  0  0  0  0  0  0  0
    5.3537    0.1468   -1.1097 H   0  0  0  0  0  0  0  0  0  0  0  0
    3.6904   -0.3772   -1.3855 H   0  0  0  0  0  0  0  0  0  0  0  0
  1 18  1  0  0  0  0
  1 17  1  0  0  0  0
  2 21  1  0  0  0  0
  2 22  1  0  0  0  0
  3 24  1  0  0  0  0
  3  7  1  0  0  0  0
  4 26  1  0  0  0  0
  4 12  1  0  0  0  0
  4 27  1  0  0  0  0
  5 29  1  0  0  0  0
  5  1  1  0  0  0  0
  6  2  1  0  0  0  0
  6 15  1  0  0  0  0
  7 16  1  0  0  0  0
  7 33  1  0  0  0  0
  8 36  1  0  0  0  0
  8  5  1  0  0  0  0
  9 37  1  0  0  0  0
  9  8  1  0  0  0  0
 10 12  1  0  0  0  0
 11 12  1  0  0  0  0
 11 14  2  0  0  0  0
 12  9  1  0  0  0  0
 13 10  2  0  0  0  0
 15 10  1  0  0  0  0
 16 11  1  0  0  0  0
 19  1  1  0  0  0  0
 20  2  1  0  0  0  0
 23  3  1  0  0  0  0
 25  3  1  0  0  0  0
 28  4  1  0  0  0  0
 30  5  1  0  0  0  0
 31  6  1  0  0  0  0
 32  6  1  0  0  0  0
 34  7  1  0  0  0  0
 35  8  1  0  0  0  0
 38  9  1  0  0  0  0
M  END
>  <HBA>
4

>  <HBD>
0

>  <TPSA>
52.6

>  <cid>
41326

>  <dipole>
2.48

>  <excitation_energy_1>
5.705

>  <excitation_energy_2>
5.73

>  <excitation_energy_3>
6.508

>  <excitation_energy_4>
6.579

>  <homo_energy>
-7.206

>  <homo_lumo_gap>
7.41

>  <logP>
2.309

>  <lumo_energy>
0.204

>  <melting_point>
13.02

>  <molecular_refractivity>
62.11

>  <oscillator_strength_1>
0.0017

>  <oscillator_strength_2>
0.0045

>  <oscillator_strength_3>
0.0017

>  <oscillator_strength_4>
0.007

>  <open_babel_can_smiles>
CCCCC(C(=O)OCC)(C(=O)OCC)C

>  <mulliken_charges>
38
1   -0.442799
2   -0.463848
3   -0.457211
4   -0.461943
5   -0.250137
6   -0.046463
7   -0.049439
8   -0.26026
9   -0.266588
10   0.650637
11   0.663866
12   -0.104229
13   -0.487353
14   -0.485874
15   -0.46702
16   -0.467164
17   0.141728
18   0.145338
19   0.139049
20   0.152348
21   0.179621
22   0.157684
23   0.144841
24   0.184624
25   0.161839
26   0.163833
27   0.156085
28   0.168103
29   0.139586
30   0.127012
31   0.172923
32   0.154499
33   0.170042
34   0.150075
35   0.127985
36   0.156104
37   0.164109
38   0.138396

>  <lowdin_charges>
38
1   -0.444623
2   -0.45767
3   -0.451766
4   -0.439003
5   -0.270155
6   -0.128528
7   -0.12618
8   -0.280014
9   -0.268323
10   0.204526
11   0.207234
12   -0.036458
13   -0.266592
14   -0.259997
15   -0.188337
16   -0.189814
17   0.149729
18   0.147959
19   0.145495
20   0.161133
21   0.167989
22   0.156831
23   0.154753
24   0.170506
25   0.158994
26   0.159655
27   0.157977
28   0.162922
29   0.143881
30   0.1364
31   0.160897
32   0.154484
33   0.158274
34   0.15121
35   0.138134
36   0.151815
37   0.160882
38   0.145777

$$$$

