PCCDB-ID:  5139
public computational chemistry database (PCCDB) project, http://pccdb.org

 14 13  0  0  0  0  0  0  0  0999 V2000
    0.8801    0.1828   -0.7801 C   0  0  0  0  0  0  0  0  0  0  0  0
    2.3132    0.3584   -0.2813 C   0  0  0  0  0  0  0  0  0  0  0  0
    4.2471   -0.1806    1.6616 C   0  0  0  0  0  0  0  0  0  0  0  0
    4.9727    0.4064    0.7907 N   0  0  0  0  0  0  0  0  0  0  0  0
    4.6403   -0.7200    2.8814 N   0  0  0  0  0  0  0  0  0  0  0  0
    2.5047   -0.4787    1.3436 S   0  0  0  0  0  0  0  0  0  0  0  0
    0.7685    0.6782   -1.7511 H   0  0  0  0  0  0  0  0  0  0  0  0
    0.1536    0.6272   -0.0912 H   0  0  0  0  0  0  0  0  0  0  0  0
    0.6250   -0.8743   -0.9103 H   0  0  0  0  0  0  0  0  0  0  0  0
    2.5725    1.4118   -0.1530 H   0  0  0  0  0  0  0  0  0  0  0  0
    3.0419   -0.0796   -0.9664 H   0  0  0  0  0  0  0  0  0  0  0  0
    5.9408    0.4991    1.1143 H   0  0  0  0  0  0  0  0  0  0  0  0
    5.5131   -0.3600    3.2494 H   0  0  0  0  0  0  0  0  0  0  0  0
    3.9224   -0.8091    3.5906 H   0  0  0  0  0  0  0  0  0  0  0  0
  1  2  1  0  0  0  0
  1  8  1  0  0  0  0
  2 10  1  0  0  0  0
  2  6  1  0  0  0  0
  3  5  2  0  0  0  0
  4 12  1  0  0  0  0
  4  3  1  0  0  0  0
  5 13  1  0  0  0  0
  5 14  1  0  0  0  0
  6  3  1  0  0  0  0
  7  1  1  0  0  0  0
  9  1  1  0  0  0  0
 11  2  1  0  0  0  0
M  RAD  1   4   2
M  END
>  <HBA>
3

>  <HBD>
2

>  <TPSA>
75.17

>  <cid>
5139

>  <dipole>
1.91

>  <excitation_energy_1>
5.239

>  <excitation_energy_2>
5.394

>  <excitation_energy_3>
5.839

>  <excitation_energy_4>
6.113

>  <homo_energy>
-6.169

>  <homo_lumo_gap>
6.86

>  <logP>
1.433

>  <lumo_energy>
0.691

>  <melting_point>
69.95

>  <molecular_refractivity>
30.42

>  <oscillator_strength_1>
0.0044

>  <oscillator_strength_2>
0.0022

>  <oscillator_strength_3>
0.0015

>  <oscillator_strength_4>
0.0803

>  <open_babel_can_smiles>
CCSC(=[NH2])[NH]

>  <mulliken_charges>
14
1   -0.463463
2   -0.380879
3   0.275934
4   -0.608174
5   -0.727475
6   0.101192
7   0.157673
8   0.160752
9   0.163743
10   0.188327
11   0.198205
12   0.272518
13   0.323665
14   0.337982

>  <lowdin_charges>
14
1   -0.446643
2   -0.353716
3   -0.006439
4   -0.448814
5   -0.493908
6   0.117004
7   0.159136
8   0.157877
9   0.157022
10   0.166921
11   0.174722
12   0.249127
13   0.279186
14   0.288523

$$$$

