PCCDB-ID:  11494
public computational chemistry database (PCCDB) project, http://pccdb.org

 23 23  0  0  0  0  0  0  0  0999 V2000
    2.9369    0.5623    1.8757 C   0  0  0  0  0  0  0  0  0  0  0  0
    4.3577    6.4775   -0.4591 C   0  0  0  0  0  0  0  0  0  0  0  0
    0.5367    3.5759   -0.3423 C   0  0  0  0  0  0  0  0  0  0  0  0
    1.3430    2.4338   -0.3183 C   0  0  0  0  0  0  0  0  0  0  0  0
    1.0941    4.8477   -0.3669 C   0  0  0  0  0  0  0  0  0  0  0  0
    3.3109    3.8555   -0.3677 C   0  0  0  0  0  0  0  0  0  0  0  0
    3.6526    0.5889    0.5423 C   0  0  0  0  0  0  0  0  0  0  0  0
    2.7384    2.5708   -0.3214 C   0  0  0  0  0  0  0  0  0  0  0  0
    2.4916    4.9857   -0.3815 C   0  0  0  0  0  0  0  0  0  0  0  0
    3.6004    1.4642   -0.3735 N   0  0  0  0  0  0  0  0  0  0  0  0
    4.4925   -0.4647    0.3213 O   0  0  0  0  0  0  0  0  0  0  0  0
    2.9558    6.2710   -0.4101 O   0  0  0  0  0  0  0  0  0  0  0  0
    3.6687    0.4915    2.6908 H   0  0  0  0  0  0  0  0  0  0  0  0
    2.2762   -0.3111    1.9444 H   0  0  0  0  0  0  0  0  0  0  0  0
    2.3358    1.4606    2.0190 H   0  0  0  0  0  0  0  0  0  0  0  0
    4.5001    7.5596   -0.4878 H   0  0  0  0  0  0  0  0  0  0  0  0
    4.8018    6.0290   -1.3575 H   0  0  0  0  0  0  0  0  0  0  0  0
    4.8583    6.0695    0.4292 H   0  0  0  0  0  0  0  0  0  0  0  0
   -0.5449    3.4669   -0.3443 H   0  0  0  0  0  0  0  0  0  0  0  0
    0.9007    1.4421   -0.3286 H   0  0  0  0  0  0  0  0  0  0  0  0
    0.4803    5.7422   -0.3873 H   0  0  0  0  0  0  0  0  0  0  0  0
    4.3910    3.9308   -0.3966 H   0  0  0  0  0  0  0  0  0  0  0  0
    4.4714   -1.0553    1.0899 H   0  0  0  0  0  0  0  0  0  0  0  0
  1 14  1  0  0  0  0
  1 15  1  0  0  0  0
  1 13  1  0  0  0  0
  2 12  1  0  0  0  0
  2 18  1  0  0  0  0
  3  4  1  0  0  0  0
  5  3  2  0  0  0  0
  6  8  1  0  0  0  0
  7  1  1  0  0  0  0
  8  4  2  0  0  0  0
  9  6  2  0  0  0  0
  9  5  1  0  0  0  0
 10  8  1  0  0  0  0
 10  7  2  0  0  0  0
 11  7  1  0  0  0  0
 11 23  1  0  0  0  0
 12  9  1  0  0  0  0
 16  2  1  0  0  0  0
 17  2  1  0  0  0  0
 19  3  1  0  0  0  0
 20  4  1  0  0  0  0
 21  5  1  0  0  0  0
 22  6  1  0  0  0  0
M  END
>  <HBA>
3

>  <HBD>
1

>  <TPSA>
38.33

>  <cid>
11494

>  <dipole>
3.6

>  <excitation_energy_1>
4.603

>  <excitation_energy_2>
4.84

>  <excitation_energy_3>
4.943

>  <excitation_energy_4>
5.385

>  <homo_energy>
-5.524

>  <homo_lumo_gap>
5.448

>  <logP>
1.727

>  <lumo_energy>
-0.076

>  <melting_point>
64.7

>  <molecular_refractivity>
47.25

>  <oscillator_strength_1>
0.1078

>  <oscillator_strength_2>
0.0038

>  <oscillator_strength_3>
0.0187

>  <oscillator_strength_4>
0.014

>  <open_babel_can_smiles>
COc1cccc(c1)/N=C(/O)\C

>  <mulliken_charges>
23
1   -0.555289
2   -0.212693
3   -0.141505
4   -0.167571
5   -0.173882
6   -0.230376
7   0.48261
8   0.235299
9   0.375555
10   -0.466266
11   -0.570493
12   -0.510366
13   0.16957
14   0.175
15   0.200732
16   0.166487
17   0.155297
18   0.149126
19   0.127245
20   0.118999
21   0.131581
22   0.133437
23   0.407503

>  <lowdin_charges>
23
1   -0.485153
2   -0.276386
3   -0.142612
4   -0.212734
5   -0.199623
6   -0.230679
7   0.146942
8   0.056595
9   0.10588
10   -0.17026
11   -0.362094
12   -0.201152
13   0.16766
14   0.170057
15   0.185823
16   0.159102
17   0.147506
18   0.144439
19   0.155316
20   0.154825
21   0.165059
22   0.165166
23   0.356325

$$$$

