PCCDB-ID:  11708
public computational chemistry database (PCCDB) project, http://pccdb.org

 24 23  0  0  1  0  0  0  0  0999 V2000
    1.7755   -0.1838    1.9638 C   0  0  0  0  0  0  0  0  0  0  0  0
    6.4570    0.8545    0.7745 C   0  0  0  0  0  0  0  0  0  0  0  0
    5.1364   -0.4334   -1.8094 C   0  0  0  0  0  0  0  0  0  0  0  0
    3.1636   -0.7072    1.5788 C   0  0  0  0  0  0  0  0  0  0  0  0
    6.1033   -0.6189    0.5402 C   0  0  0  0  0  0  0  0  0  0  0  0
    3.5714   -0.2895    0.1597 C   0  0  0  0  0  0  0  0  0  0  0  0
    4.8835   -0.9019   -0.3673 C   0  0  1  0  0  0  0  0  0  0  0  0
    4.6500   -2.3243   -0.3777 O   0  0  0  0  0  0  0  0  0  0  0  0
    1.5013   -0.4905    2.9798 H   0  0  0  0  0  0  0  0  0  0  0  0
    1.0055   -0.5651    1.2819 H   0  0  0  0  0  0  0  0  0  0  0  0
    1.7357    0.9124    1.9258 H   0  0  0  0  0  0  0  0  0  0  0  0
    7.3454    0.9380    1.4105 H   0  0  0  0  0  0  0  0  0  0  0  0
    5.6438    1.3914    1.2755 H   0  0  0  0  0  0  0  0  0  0  0  0
    6.6746    1.3789   -0.1627 H   0  0  0  0  0  0  0  0  0  0  0  0
    5.2519    0.6540   -1.8771 H   0  0  0  0  0  0  0  0  0  0  0  0
    4.2992   -0.7302   -2.4495 H   0  0  0  0  0  0  0  0  0  0  0  0
    6.0504   -0.8907   -2.2116 H   0  0  0  0  0  0  0  0  0  0  0  0
    3.1814   -1.8007    1.6445 H   0  0  0  0  0  0  0  0  0  0  0  0
    3.8991   -0.3381    2.3061 H   0  0  0  0  0  0  0  0  0  0  0  0
    5.9280   -1.1137    1.5022 H   0  0  0  0  0  0  0  0  0  0  0  0
    6.9724   -1.1257    0.0921 H   0  0  0  0  0  0  0  0  0  0  0  0
    3.6407    0.8050    0.0999 H   0  0  0  0  0  0  0  0  0  0  0  0
    2.7772   -0.5866   -0.5385 H   0  0  0  0  0  0  0  0  0  0  0  0
    5.4687   -2.7483   -0.6812 H   0  0  0  0  0  0  0  0  0  0  0  0
  1  9  1  0  0  0  0
  2 13  1  0  0  0  0
  2 12  1  0  0  0  0
  3  7  1  0  0  0  0
  4 18  1  0  0  0  0
  4  1  1  0  0  0  0
  4 19  1  0  0  0  0
  5  2  1  0  0  0  0
  5 20  1  0  0  0  0
  6  4  1  0  0  0  0
  7  8  1  6  0  0  0
  7  6  1  0  0  0  0
  7  5  1  0  0  0  0
 10  1  1  0  0  0  0
 11  1  1  0  0  0  0
 14  2  1  0  0  0  0
 15  3  1  0  0  0  0
 16  3  1  0  0  0  0
 17  3  1  0  0  0  0
 21  5  1  0  0  0  0
 22  6  1  0  0  0  0
 23  6  1  0  0  0  0
 24  8  1  0  0  0  0
M  END
>  <HBA>
1

>  <HBD>
1

>  <TPSA>
20.23

>  <cid>
11708

>  <dipole>
1.49

>  <excitation_energy_1>
6.378

>  <excitation_energy_2>
7.031

>  <excitation_energy_3>
7.222

>  <excitation_energy_4>
7.331

>  <homo_energy>
-6.988

>  <homo_lumo_gap>
8.879

>  <logP>
1.948

>  <lumo_energy>
1.891

>  <melting_point>
2.41

>  <molecular_refractivity>
36.96

>  <oscillator_strength_1>
0.0162

>  <oscillator_strength_2>
0.0105

>  <oscillator_strength_3>
0.0078

>  <oscillator_strength_4>
0.0076

>  <open_babel_can_smiles>
CCC[C@@](CC)(O)C

>  <mulliken_charges>
24
1   -0.444348
2   -0.456199
3   -0.460706
4   -0.260229
5   -0.274124
6   -0.254086
7   0.311574
8   -0.643076
9   0.140561
10   0.142877
11   0.136589
12   0.145758
13   0.151406
14   0.146526
15   0.142815
16   0.154233
17   0.126323
18   0.159029
19   0.128166
20   0.149547
21   0.112935
22   0.126156
23   0.136707
24   0.381568

>  <lowdin_charges>
24
1   -0.4418
2   -0.450602
3   -0.457092
4   -0.27563
5   -0.290676
6   -0.278477
7   0.121636
8   -0.466595
9   0.147819
10   0.147642
11   0.14132
12   0.153287
13   0.151338
14   0.148516
15   0.149278
16   0.157443
17   0.142626
18   0.151407
19   0.138291
20   0.150346
21   0.134674
22   0.139169
23   0.148911
24   0.337169

$$$$

