PCCDB-ID:  875
public computational chemistry database (PCCDB) project, http://pccdb.org

 16 15  0  0  1  0  0  0  0  0999 V2000
    1.0396    0.0081    0.0750 C   0  0  1  0  0  0  0  0  0  0  0  0
    0.4394   -1.0610    1.0182 C   0  0  1  0  0  0  0  0  0  0  0  0
    0.3748    1.3787    0.3023 C   0  0  0  0  0  0  0  0  0  0  0  0
    0.8266   -0.7829    2.4827 C   0  0  0  0  0  0  0  0  0  0  0  0
    2.4483    0.1123    0.1838 O   0  0  0  0  0  0  0  0  0  0  0  0
   -0.9659   -1.1858    0.8882 O   0  0  0  0  0  0  0  0  0  0  0  0
   -0.8235    1.5014    0.4920 O   0  0  0  0  0  0  0  0  0  0  0  0
    1.2109    2.4076    0.2471 O   0  0  0  0  0  0  0  0  0  0  0  0
    1.9407   -0.4061    2.8048 O   0  0  0  0  0  0  0  0  0  0  0  0
   -0.1437   -1.0134    3.3581 O   0  0  0  0  0  0  0  0  0  0  0  0
    0.8058   -0.2878   -0.9550 H   0  0  0  0  0  0  0  0  0  0  0  0
    0.8858   -2.0271    0.7531 H   0  0  0  0  0  0  0  0  0  0  0  0
    2.6552   -0.0181    1.1399 H   0  0  0  0  0  0  0  0  0  0  0  0
   -1.3049   -0.2715    0.7360 H   0  0  0  0  0  0  0  0  0  0  0  0
    2.1073    2.0137    0.1304 H   0  0  0  0  0  0  0  0  0  0  0  0
   -0.9328   -1.2583    2.8199 H   0  0  0  0  0  0  0  0  0  0  0  0
  1 11  1  6  0  0  0
  1  5  1  0  0  0  0
  1  3  1  0  0  0  0
  1  2  1  0  0  0  0
  2 12  1  6  0  0  0
  2  4  1  0  0  0  0
  3  7  2  0  0  0  0
  4  9  2  0  0  0  0
  4 10  1  0  0  0  0
  5 13  1  0  0  0  0
  6  2  1  0  0  0  0
  8  3  1  0  0  0  0
 14  6  1  0  0  0  0
 15  8  1  0  0  0  0
 16 10  1  0  0  0  0
M  END
>  <HBA>
6

>  <HBD>
4

>  <TPSA>
115.06

>  <cid>
875

>  <dipole>
2.44

>  <excitation_energy_1>
5.481

>  <excitation_energy_2>
5.511

>  <excitation_energy_3>
6.234

>  <excitation_energy_4>
6.271

>  <homo_energy>
-7.823

>  <homo_lumo_gap>
7.026

>  <logP>
-2.123

>  <lumo_energy>
-0.797

>  <melting_point>
166.32

>  <molecular_refractivity>
27.21

>  <oscillator_strength_1>
0.0011

>  <oscillator_strength_2>
0.0

>  <oscillator_strength_3>
0.0009

>  <oscillator_strength_4>
0.0059

>  <open_babel_can_smiles>
O[C@@H]([C@@H](C(=O)O)O)C(=O)O

>  <mulliken_charges>
16
1   0.003178
2   0.002979
3   0.608281
4   0.608329
5   -0.65798
6   -0.657912
7   -0.481457
8   -0.551206
9   -0.481462
10   -0.551175
11   0.201694
12   0.201733
13   0.438657
14   0.438633
15   0.438851
16   0.438858

>  <lowdin_charges>
16
1   -0.05378
2   -0.054872
3   0.174322
4   0.176207
5   -0.455301
6   -0.45628
7   -0.26574
8   -0.308864
9   -0.26655
10   -0.310412
11   0.179886
12   0.180882
13   0.35762
14   0.358256
15   0.371794
16   0.372831

$$$$

