PCCDB-ID:  65298
public computational chemistry database (PCCDB) project, http://pccdb.org

 36 36  0  0  1  0  0  0  0  0999 V2000
    4.1955   -0.7019   -0.9478 C   0  0  0  0  0  0  0  0  0  0  0  0
    3.5804   -3.5885    4.3430 C   0  0  0  0  0  0  0  0  0  0  0  0
    6.2813   -0.7324    2.3641 C   0  0  0  0  0  0  0  0  0  0  0  0
    4.5591    0.5983    6.7165 C   0  0  0  0  0  0  0  0  0  0  0  0
    3.0342   -0.7756    0.0597 C   0  0  0  0  0  0  0  0  0  0  0  0
    2.4525   -4.4506    0.8144 C   0  0  0  0  0  0  0  0  0  0  0  0
    2.8354   -4.5504    2.1499 C   0  0  0  0  0  0  0  0  0  0  0  0
    2.5155   -3.2108    0.1885 C   0  0  0  0  0  0  0  0  0  0  0  0
    5.3114    0.0617    4.5547 C   0  0  0  0  0  0  0  0  0  0  0  0
    3.2914   -3.4408    2.8661 C   0  0  0  0  0  0  0  0  0  0  0  0
    5.2317   -0.9999    3.4561 C   0  0  1  0  0  0  0  0  0  0  0  0
    2.9944   -2.0743    0.8527 C   0  0  0  0  0  0  0  0  0  0  0  0
    3.4104   -2.1909    2.2035 C   0  0  0  0  0  0  0  0  0  0  0  0
    3.8538   -1.0654    2.9437 N   0  0  0  0  0  0  0  0  0  0  0  0
    4.5716   -0.3582    5.6803 O   0  0  0  0  0  0  0  0  0  0  0  0
    4.1548    0.2301   -1.5242 H   0  0  0  0  0  0  0  0  0  0  0  0
    4.1520   -1.5387   -1.6534 H   0  0  0  0  0  0  0  0  0  0  0  0
    5.1656   -0.7470   -0.4424 H   0  0  0  0  0  0  0  0  0  0  0  0
    2.9575   -4.3809    4.7719 H   0  0  0  0  0  0  0  0  0  0  0  0
    3.3857   -2.6560    4.8804 H   0  0  0  0  0  0  0  0  0  0  0  0
    4.6250   -3.8664    4.5432 H   0  0  0  0  0  0  0  0  0  0  0  0
    7.2989   -0.7569    2.7723 H   0  0  0  0  0  0  0  0  0  0  0  0
    6.1299    0.2500    1.8974 H   0  0  0  0  0  0  0  0  0  0  0  0
    6.2125   -1.4935    1.5810 H   0  0  0  0  0  0  0  0  0  0  0  0
    3.9642    0.1813    7.5332 H   0  0  0  0  0  0  0  0  0  0  0  0
    4.1022    1.5471    6.3908 H   0  0  0  0  0  0  0  0  0  0  0  0
    5.5745    0.8142    7.0885 H   0  0  0  0  0  0  0  0  0  0  0  0
    2.0885   -0.6790   -0.4892 H   0  0  0  0  0  0  0  0  0  0  0  0
    3.0759    0.1053    0.7105 H   0  0  0  0  0  0  0  0  0  0  0  0
    2.0832   -5.3211    0.2792 H   0  0  0  0  0  0  0  0  0  0  0  0
    2.7470   -5.5032    2.6678 H   0  0  0  0  0  0  0  0  0  0  0  0
    2.1879   -3.1110   -0.8448 H   0  0  0  0  0  0  0  0  0  0  0  0
    4.9236    1.0250    4.1724 H   0  0  0  0  0  0  0  0  0  0  0  0
    6.3675    0.2277    4.8305 H   0  0  0  0  0  0  0  0  0  0  0  0
    5.4584   -1.9608    3.9229 H   0  0  0  0  0  0  0  0  0  0  0  0
    3.6233   -0.1951    2.4770 H   0  0  0  0  0  0  0  0  0  0  0  0
  1 18  1  0  0  0  0
  1  5  1  0  0  0  0
  2 21  1  0  0  0  0
  2 19  1  0  0  0  0
  2 20  1  0  0  0  0
  3 22  1  0  0  0  0
  3 11  1  0  0  0  0
  4 27  1  0  0  0  0
  4 25  1  0  0  0  0
  5 29  1  0  0  0  0
  5 12  1  0  0  0  0
  6  7  1  0  0  0  0
  7 31  1  0  0  0  0
  7 10  2  0  0  0  0
  8  6  2  0  0  0  0
  8 12  1  0  0  0  0
  9 34  1  0  0  0  0
  9 15  1  0  0  0  0
 10  2  1  0  0  0  0
 11 35  1  1  0  0  0
 11  9  1  0  0  0  0
 12 13  2  0  0  0  0
 13 10  1  0  0  0  0
 13 14  1  0  0  0  0
 14 11  1  0  0  0  0
 15  4  1  0  0  0  0
 16  1  1  0  0  0  0
 17  1  1  0  0  0  0
 23  3  1  0  0  0  0
 24  3  1  0  0  0  0
 26  4  1  0  0  0  0
 28  5  1  0  0  0  0
 30  6  1  0  0  0  0
 32  8  1  0  0  0  0
 33  9  1  0  0  0  0
 36 14  1  0  0  0  0
M  END
>  <HBA>
2

>  <HBD>
1

>  <TPSA>
21.26

>  <cid>
65298

>  <dipole>
2.43

>  <excitation_energy_1>
4.537

>  <excitation_energy_2>
4.811

>  <excitation_energy_3>
5.069

>  <excitation_energy_4>
5.184

>  <homo_energy>
-5.2

>  <homo_lumo_gap>
5.546

>  <logP>
3.077

>  <lumo_energy>
0.346

>  <melting_point>
35.94

>  <molecular_refractivity>
65.99

>  <oscillator_strength_1>
0.0385

>  <oscillator_strength_2>
0.0085

>  <oscillator_strength_3>
0.116

>  <oscillator_strength_4>
0.0032

>  <open_babel_can_smiles>
COC[C@@H](Nc1c(C)cccc1CC)C

>  <mulliken_charges>
36
1   -0.438297
2   -0.551551
3   -0.462465
4   -0.191207
5   -0.347155
6   -0.120763
7   -0.202908
8   -0.204744
9   0.002879
10   0.171293
11   0.007135
12   0.149191
13   0.166767
14   -0.643671
15   -0.451583
16   0.139601
17   0.151762
18   0.151773
19   0.146412
20   0.200179
21   0.151264
22   0.144172
23   0.13617
24   0.168894
25   0.160406
26   0.129709
27   0.127268
28   0.150908
29   0.124711
30   0.118135
31   0.114966
32   0.114164
33   0.10691
34   0.117905
35   0.1612
36   0.300569

>  <lowdin_charges>
36
1   -0.443336
2   -0.451727
3   -0.460546
4   -0.278656
5   -0.273388
6   -0.175584
7   -0.166852
8   -0.166502
9   -0.131388
10   -0.018697
11   -0.063742
12   -0.037454
13   0.027698
14   -0.312601
15   -0.261444
16   0.14723
17   0.152195
18   0.150311
19   0.154858
20   0.176938
21   0.150483
22   0.150909
23   0.143788
24   0.161869
25   0.157291
26   0.13133
27   0.129305
28   0.152627
29   0.138257
30   0.15423
31   0.151298
32   0.148728
33   0.120828
34   0.125774
35   0.158794
36   0.257175

$$$$

