PCCDB-ID:  73216
public computational chemistry database (PCCDB) project, http://pccdb.org

 19 19  0  0  0  0  0  0  0  0999 V2000
    2.3722   -1.9243   -1.1228 C   0  0  0  0  0  0  0  0  0  0  0  0
    2.0332   -0.7760   -0.1852 C   0  0  0  0  0  0  0  0  0  0  0  0
    4.1663    2.7999   -1.2670 C   0  0  0  0  0  0  0  0  0  0  0  0
    4.6407    1.8152   -0.4725 C   0  0  0  0  0  0  0  0  0  0  0  0
    3.9936    0.5635   -0.0481 C   0  0  0  0  0  0  0  0  0  0  0  0
    6.5342    3.2304   -0.4097 C   0  0  0  0  0  0  0  0  0  0  0  0
    7.6782    3.7319   -0.1677 N   0  0  0  0  0  0  0  0  0  0  0  0
    5.9306    2.0488   -0.0047 N   0  0  0  0  0  0  0  0  0  0  0  0
    4.5490   -0.2415    0.6809 O   0  0  0  0  0  0  0  0  0  0  0  0
    2.7522    0.4309   -0.5483 O   0  0  0  0  0  0  0  0  0  0  0  0
    5.3379    4.0859   -1.4666 S   0  0  0  0  0  0  0  0  0  0  0  0
    1.7566   -2.7966   -0.8752 H   0  0  0  0  0  0  0  0  0  0  0  0
    3.4238   -2.2075   -1.0226 H   0  0  0  0  0  0  0  0  0  0  0  0
    2.1758   -1.6492   -2.1640 H   0  0  0  0  0  0  0  0  0  0  0  0
    2.2694   -1.0247    0.8519 H   0  0  0  0  0  0  0  0  0  0  0  0
    0.9814   -0.4908   -0.2605 H   0  0  0  0  0  0  0  0  0  0  0  0
    3.1970    2.8309   -1.7410 H   0  0  0  0  0  0  0  0  0  0  0  0
    8.2371    3.1328    0.4439 H   0  0  0  0  0  0  0  0  0  0  0  0
    6.3820    1.3753    0.6006 H   0  0  0  0  0  0  0  0  0  0  0  0
  1 13  1  0  0  0  0
  1 12  1  0  0  0  0
  1  2  1  0  0  0  0
  2 15  1  0  0  0  0
  3  4  2  0  0  0  0
  4  5  1  0  0  0  0
  4  8  1  0  0  0  0
  5  9  2  0  0  0  0
  6  7  2  0  0  0  0
  6  8  1  0  0  0  0
  7 18  1  0  0  0  0
  8 19  1  0  0  0  0
 10  2  1  0  0  0  0
 10  5  1  0  0  0  0
 11  3  1  0  0  0  0
 11  6  1  0  0  0  0
 14  1  1  0  0  0  0
 16  2  1  0  0  0  0
 17  3  1  0  0  0  0
M  END
>  <HBA>
5

>  <HBD>
1

>  <TPSA>
93.45

>  <cid>
73216

>  <dipole>
4.19

>  <excitation_energy_1>
3.702

>  <excitation_energy_2>
4.523

>  <excitation_energy_3>
4.89

>  <excitation_energy_4>
5.114

>  <homo_energy>
-5.592

>  <homo_lumo_gap>
4.188

>  <logP>
1.483

>  <lumo_energy>
-1.404

>  <melting_point>
93.49

>  <molecular_refractivity>
42.6

>  <oscillator_strength_1>
0.1208

>  <oscillator_strength_2>
0.0

>  <oscillator_strength_3>
0.0005

>  <oscillator_strength_4>
0.0001

>  <open_babel_can_smiles>
CCOC(=O)c1csc(=N)[nH]1

>  <mulliken_charges>
19
1   -0.463137
2   -0.047566
3   -0.406755
4   0.349029
5   0.596029
6   0.313486
7   -0.632278
8   -0.648991
9   -0.506758
10   -0.473718
11   0.258314
12   0.155581
13   0.178038
14   0.161627
15   0.175919
16   0.159309
17   0.199883
18   0.282374
19   0.349615

>  <lowdin_charges>
19
1   -0.45282
2   -0.121663
3   -0.305455
4   -0.00701
5   0.193894
6   -0.009436
7   -0.438586
8   -0.237668
9   -0.282889
10   -0.185016
11   0.280246
12   0.162409
13   0.1652
14   0.157409
15   0.160337
16   0.154471
17   0.200268
18   0.260528
19   0.305779

$$$$

