PCCDB-ID:  15816
public computational chemistry database (PCCDB) project, http://pccdb.org

 35 34  0  0  0  0  0  0  0  0999 V2000
    1.5221    0.2273    0.5186 C   0  0  0  0  0  0  0  0  0  0  0  0
    1.4560   -0.3328   -0.9115 C   0  0  0  0  0  0  0  0  0  0  0  0
    2.9357    0.6387    0.9673 C   0  0  0  0  0  0  0  0  0  0  0  0
    0.0287   -0.5415   -1.4445 C   0  0  0  0  0  0  0  0  0  0  0  0
    3.9818   -0.4909    1.0313 C   0  0  0  0  0  0  0  0  0  0  0  0
   -0.7560   -1.6556   -0.7363 C   0  0  0  0  0  0  0  0  0  0  0  0
    3.6637   -1.6488    1.9940 C   0  0  0  0  0  0  0  0  0  0  0  0
   -2.1639   -1.8800   -1.3309 C   0  0  0  0  0  0  0  0  0  0  0  0
    3.5739   -1.2594    3.4873 C   0  0  0  0  0  0  0  0  0  0  0  0
   -3.0632   -0.6593   -1.1851 C   0  0  0  0  0  0  0  0  0  0  0  0
    4.9198   -0.7688    4.0088 C   0  0  0  0  0  0  0  0  0  0  0  0
   -3.4095    0.0528   -2.0928 O   0  0  0  0  0  0  0  0  0  0  0  0
   -3.4508   -0.3670    0.0920 O   0  0  0  0  0  0  0  0  0  0  0  0
    5.8210   -1.5052    4.3218 O   0  0  0  0  0  0  0  0  0  0  0  0
    5.0982    0.5826    4.0599 O   0  0  0  0  0  0  0  0  0  0  0  0
    1.1054   -0.5003    1.2283 H   0  0  0  0  0  0  0  0  0  0  0  0
    0.8718    1.1114    0.5788 H   0  0  0  0  0  0  0  0  0  0  0  0
    2.0062   -1.2822   -0.9718 H   0  0  0  0  0  0  0  0  0  0  0  0
    1.9773    0.3632   -1.5835 H   0  0  0  0  0  0  0  0  0  0  0  0
    2.8566    1.1298    1.9495 H   0  0  0  0  0  0  0  0  0  0  0  0
    3.3104    1.4138    0.2850 H   0  0  0  0  0  0  0  0  0  0  0  0
    0.0793   -0.7813   -2.5151 H   0  0  0  0  0  0  0  0  0  0  0  0
   -0.5262    0.4039   -1.3737 H   0  0  0  0  0  0  0  0  0  0  0  0
    4.9515   -0.0524    1.3019 H   0  0  0  0  0  0  0  0  0  0  0  0
    4.1194   -0.9108    0.0272 H   0  0  0  0  0  0  0  0  0  0  0  0
   -0.8401   -1.4359    0.3372 H   0  0  0  0  0  0  0  0  0  0  0  0
   -0.1992   -2.5992   -0.8098 H   0  0  0  0  0  0  0  0  0  0  0  0
    4.4419   -2.4149    1.8972 H   0  0  0  0  0  0  0  0  0  0  0  0
    2.7188   -2.1278    1.7094 H   0  0  0  0  0  0  0  0  0  0  0  0
   -2.6401   -2.7425   -0.8439 H   0  0  0  0  0  0  0  0  0  0  0  0
   -2.0937   -2.1005   -2.3993 H   0  0  0  0  0  0  0  0  0  0  0  0
    3.3132   -2.1462    4.0724 H   0  0  0  0  0  0  0  0  0  0  0  0
    2.7845   -0.5148    3.6504 H   0  0  0  0  0  0  0  0  0  0  0  0
   -3.1197   -1.0453    0.7034 H   0  0  0  0  0  0  0  0  0  0  0  0
    4.2866    1.0358    3.7804 H   0  0  0  0  0  0  0  0  0  0  0  0
  1 17  1  0  0  0  0
  1  3  1  0  0  0  0
  1 16  1  0  0  0  0
  2  1  1  0  0  0  0
  3  5  1  0  0  0  0
  3 20  1  0  0  0  0
  4 23  1  0  0  0  0
  4  2  1  0  0  0  0
  4  6  1  0  0  0  0
  5 24  1  0  0  0  0
  5  7  1  0  0  0  0
  6 26  1  0  0  0  0
  7  9  1  0  0  0  0
  8 10  1  0  0  0  0
  8 30  1  0  0  0  0
  8  6  1  0  0  0  0
  9 33  1  0  0  0  0
  9 11  1  0  0  0  0
  9 32  1  0  0  0  0
 10 13  1  0  0  0  0
 11 15  1  0  0  0  0
 11 14  2  0  0  0  0
 12 10  2  0  0  0  0
 13 34  1  0  0  0  0
 18  2  1  0  0  0  0
 19  2  1  0  0  0  0
 21  3  1  0  0  0  0
 22  4  1  0  0  0  0
 25  5  1  0  0  0  0
 27  6  1  0  0  0  0
 28  7  1  0  0  0  0
 29  7  1  0  0  0  0
 31  8  1  0  0  0  0
 35 15  1  0  0  0  0
M  END
>  <HBA>
4

>  <HBD>
2

>  <TPSA>
74.6

>  <cid>
15816

>  <dipole>
2.4

>  <excitation_energy_1>
5.567

>  <excitation_energy_2>
5.598

>  <excitation_energy_3>
6.376

>  <excitation_energy_4>
6.419

>  <homo_energy>
-7.347

>  <homo_lumo_gap>
7.445

>  <logP>
2.667

>  <lumo_energy>
0.098

>  <melting_point>
124.43

>  <molecular_refractivity>
58.53

>  <oscillator_strength_1>
0.0025

>  <oscillator_strength_2>
0.0011

>  <oscillator_strength_3>
0.0089

>  <oscillator_strength_4>
0.0111

>  <open_babel_can_smiles>
OC(=O)CCCCCCCCCC(=O)O

>  <mulliken_charges>
35
1   -0.260481
2   -0.261503
3   -0.261762
4   -0.261675
5   -0.281946
6   -0.272555
7   -0.26719
8   -0.378588
9   -0.366505
10   0.591817
11   0.584648
12   -0.435981
13   -0.564166
14   -0.438781
15   -0.564955
16   0.13034
17   0.138672
18   0.134178
19   0.13849
20   0.102854
21   0.143615
22   0.14289
23   0.15622
24   0.152795
25   0.147298
26   0.127127
27   0.147879
28   0.166623
29   0.142368
30   0.152694
31   0.180268
32   0.179565
33   0.136182
34   0.407958
35   0.411609

>  <lowdin_charges>
35
1   -0.283268
2   -0.278698
3   -0.278088
4   -0.276446
5   -0.287695
6   -0.272303
7   -0.27192
8   -0.317752
9   -0.319883
10   0.197347
11   0.199523
12   -0.236587
13   -0.367311
14   -0.242632
15   -0.363038
16   0.137108
17   0.146451
18   0.139602
19   0.147835
20   0.125025
21   0.149712
22   0.147493
23   0.151313
24   0.151122
25   0.149682
26   0.133061
27   0.149469
28   0.161163
29   0.146073
30   0.158214
31   0.171292
32   0.176235
33   0.145389
34   0.357631
35   0.354879

$$$$

