PCCDB-ID:  19318
public computational chemistry database (PCCDB) project, http://pccdb.org

 22 22  0  0  0  0  0  0  0  0999 V2000
    2.2716    0.2563   -1.5286 C   0  0  0  0  0  0  0  0  0  0  0  0
    3.6497    0.0577   -2.1538 C   0  0  0  0  0  0  0  0  0  0  0  0
    6.4856    0.2691   -2.9390 C   0  0  0  0  0  0  0  0  0  0  0  0
    6.8981    1.5045   -0.8855 C   0  0  0  0  0  0  0  0  0  0  0  0
    7.8384    0.3307   -3.2385 C   0  0  0  0  0  0  0  0  0  0  0  0
    8.2460    1.5625   -1.1842 C   0  0  0  0  0  0  0  0  0  0  0  0
    5.9847    0.8589   -1.7552 C   0  0  0  0  0  0  0  0  0  0  0  0
    8.7151    0.9747   -2.3645 C   0  0  0  0  0  0  0  0  0  0  0  0
    4.6488    0.8424   -1.4434 N   0  0  0  0  0  0  0  0  0  0  0  0
   10.1326    1.0324   -2.6805 N   0  0  0  0  0  0  0  0  0  0  0  0
   10.5141    0.5094   -3.7325 O   0  0  0  0  0  0  0  0  0  0  0  0
   10.8812    1.6020   -1.8798 O   0  0  0  0  0  0  0  0  0  0  0  0
    1.5233   -0.3357   -2.0638 H   0  0  0  0  0  0  0  0  0  0  0  0
    1.9701    1.3085   -1.5693 H   0  0  0  0  0  0  0  0  0  0  0  0
    2.2624   -0.0663   -0.4802 H   0  0  0  0  0  0  0  0  0  0  0  0
    3.6258    0.3781   -3.2035 H   0  0  0  0  0  0  0  0  0  0  0  0
    3.9147   -1.0119   -2.1511 H   0  0  0  0  0  0  0  0  0  0  0  0
    5.8141   -0.2374   -3.6227 H   0  0  0  0  0  0  0  0  0  0  0  0
    6.5277    1.9651    0.0273 H   0  0  0  0  0  0  0  0  0  0  0  0
    8.2304   -0.1189   -4.1428 H   0  0  0  0  0  0  0  0  0  0  0  0
    8.9485    2.0525   -0.5212 H   0  0  0  0  0  0  0  0  0  0  0  0
    4.4101    1.1113   -0.4985 H   0  0  0  0  0  0  0  0  0  0  0  0
  1 15  1  0  0  0  0
  2 17  1  0  0  0  0
  2  1  1  0  0  0  0
  2  9  1  0  0  0  0
  3  7  1  0  0  0  0
  4 19  1  0  0  0  0
  5  3  2  0  0  0  0
  5  8  1  0  0  0  0
  6  4  1  0  0  0  0
  6 21  1  0  0  0  0
  7  9  1  0  0  0  0
  7  4  2  0  0  0  0
  8  6  2  0  0  0  0
  9 22  1  0  0  0  0
 10  8  1  0  0  0  0
 10 12  2  0  0  0  0
 11 10  2  0  0  0  0
 13  1  1  0  0  0  0
 14  1  1  0  0  0  0
 16  2  1  0  0  0  0
 18  3  1  0  0  0  0
 20  5  1  0  0  0  0
M  END
>  <HBA>
1

>  <HBD>
1

>  <TPSA>
57.85

>  <cid>
19318

>  <dipole>
8.0

>  <excitation_energy_1>
3.719

>  <excitation_energy_2>
3.78

>  <excitation_energy_3>
4.353

>  <excitation_energy_4>
4.438

>  <homo_energy>
-5.951

>  <homo_lumo_gap>
4.112

>  <logP>
2.623

>  <lumo_energy>
-1.84

>  <melting_point>
77.0

>  <molecular_refractivity>
49.38

>  <oscillator_strength_1>
0.3937

>  <oscillator_strength_2>
0.0041

>  <oscillator_strength_3>
0.0004

>  <oscillator_strength_4>
0.0003

>  <open_babel_can_smiles>
CCNc1ccc(cc1)N(=O)=O

>  <mulliken_charges>
22
1   -0.479201
2   -0.098677
3   -0.197214
4   -0.202262
5   -0.160194
6   -0.154476
7   0.403861
8   0.272932
9   -0.670329
10   0.365339
11   -0.414301
12   -0.413821
13   0.166253
14   0.166009
15   0.153813
16   0.160522
17   0.151243
18   0.139793
19   0.130751
20   0.178158
21   0.178028
22   0.323774

>  <lowdin_charges>
22
1   -0.447744
2   -0.186312
3   -0.208524
4   -0.196839
5   -0.124136
6   -0.12928
7   0.082081
8   -0.030564
9   -0.273794
10   0.310365
11   -0.268244
12   -0.269578
13   0.166602
14   0.157689
15   0.151238
16   0.149152
17   0.138973
18   0.16702
19   0.15924
20   0.185988
21   0.187359
22   0.279307

$$$$

