PCCDB-ID:  21017
public computational chemistry database (PCCDB) project, http://pccdb.org

 26 26  0  0  0  0  0  0  0  0999 V2000
    2.5987    0.8563    1.2819 C   0  0  0  0  0  0  0  0  0  0  0  0
    6.7969   -2.8494   -1.9586 C   0  0  0  0  0  0  0  0  0  0  0  0
    2.3848    0.1588   -0.0758 C   0  0  0  0  0  0  0  0  0  0  0  0
    6.3462   -3.0044   -0.4946 C   0  0  0  0  0  0  0  0  0  0  0  0
    2.0959   -2.3525    0.0076 C   0  0  0  0  0  0  0  0  0  0  0  0
    3.9859   -3.8612   -0.1548 C   0  0  0  0  0  0  0  0  0  0  0  0
    1.7210   -4.7767    0.1432 C   0  0  0  0  0  0  0  0  0  0  0  0
    2.6040   -3.6592   -0.0017 C   0  0  0  0  0  0  0  0  0  0  0  0
    2.9402   -1.2513   -0.1281 C   0  0  0  0  0  0  0  0  0  0  0  0
    4.8607   -2.7888   -0.3015 C   0  0  0  0  0  0  0  0  0  0  0  0
    4.3204   -1.4877   -0.2837 C   0  0  0  0  0  0  0  0  0  0  0  0
    1.0021   -5.6846    0.2617 N   0  0  0  0  0  0  0  0  0  0  0  0
    5.2166   -0.4635   -0.4244 O   0  0  0  0  0  0  0  0  0  0  0  0
    2.1825    1.8695    1.2695 H   0  0  0  0  0  0  0  0  0  0  0  0
    3.6616    0.9302    1.5406 H   0  0  0  0  0  0  0  0  0  0  0  0
    2.1080    0.2947    2.0833 H   0  0  0  0  0  0  0  0  0  0  0  0
    7.8755   -3.0207   -2.0486 H   0  0  0  0  0  0  0  0  0  0  0  0
    6.5812   -1.8424   -2.3282 H   0  0  0  0  0  0  0  0  0  0  0  0
    6.2836   -3.5685   -2.6066 H   0  0  0  0  0  0  0  0  0  0  0  0
    2.8174    0.7735   -0.8814 H   0  0  0  0  0  0  0  0  0  0  0  0
    1.3122    0.1214   -0.2946 H   0  0  0  0  0  0  0  0  0  0  0  0
    6.9012   -2.2928    0.1273 H   0  0  0  0  0  0  0  0  0  0  0  0
    6.6046   -4.0085   -0.1382 H   0  0  0  0  0  0  0  0  0  0  0  0
    1.0275   -2.1963    0.1249 H   0  0  0  0  0  0  0  0  0  0  0  0
    4.3778   -4.8741   -0.1587 H   0  0  0  0  0  0  0  0  0  0  0  0
    4.7460    0.3834   -0.4270 H   0  0  0  0  0  0  0  0  0  0  0  0
  1 15  1  0  0  0  0
  1 16  1  0  0  0  0
  2  4  1  0  0  0  0
  3  1  1  0  0  0  0
  4 10  1  0  0  0  0
  4 23  1  0  0  0  0
  4 22  1  0  0  0  0
  5 24  1  0  0  0  0
  6  8  2  0  0  0  0
  7 12  3  0  0  0  0
  8  5  1  0  0  0  0
  8  7  1  0  0  0  0
  9  3  1  0  0  0  0
  9  5  2  0  0  0  0
 10 11  2  0  0  0  0
 10  6  1  0  0  0  0
 11  9  1  0  0  0  0
 13 11  1  0  0  0  0
 14  1  1  0  0  0  0
 17  2  1  0  0  0  0
 18  2  1  0  0  0  0
 19  2  1  0  0  0  0
 20  3  1  0  0  0  0
 21  3  1  0  0  0  0
 25  6  1  0  0  0  0
 26 13  1  0  0  0  0
M  END
>  <HBA>
2

>  <HBD>
1

>  <TPSA>
44.02

>  <cid>
21017

>  <dipole>
5.7

>  <excitation_energy_1>
4.81

>  <excitation_energy_2>
5.11

>  <excitation_energy_3>
5.329

>  <excitation_energy_4>
5.936

>  <homo_energy>
-6.332

>  <homo_lumo_gap>
5.391

>  <logP>
2.389

>  <lumo_energy>
-0.942

>  <melting_point>
90.38

>  <molecular_refractivity>
52.73

>  <oscillator_strength_1>
0.011

>  <oscillator_strength_2>
0.211

>  <oscillator_strength_3>
0.0213

>  <oscillator_strength_4>
0.3809

>  <open_babel_can_smiles>
CCc1cc(C#N)cc(c1O)CC

>  <mulliken_charges>
26
1   -0.441196
2   -0.441233
3   -0.390392
4   -0.328466
5   -0.224846
6   -0.221295
7   0.223305
8   0.153114
9   0.168884
10   0.150706
11   0.222455
12   -0.487701
13   -0.642955
14   0.155889
15   0.147798
16   0.166153
17   0.146626
18   0.161977
19   0.14821
20   0.140995
21   0.165772
22   0.16114
23   0.144174
24   0.149295
25   0.150191
26   0.421399

>  <lowdin_charges>
26
1   -0.444598
2   -0.440284
3   -0.279231
4   -0.268435
5   -0.138434
6   -0.137803
7   -0.014899
8   -0.040642
9   -0.04647
10   -0.021924
11   0.099073
12   -0.131865
13   -0.370031
14   0.155041
15   0.146668
16   0.161469
17   0.149936
18   0.155517
19   0.151183
20   0.143672
21   0.160944
22   0.161008
23   0.150071
24   0.168043
25   0.170225
26   0.361766

$$$$

