PCCDB-ID:  41057
public computational chemistry database (PCCDB) project, http://pccdb.org

 30 31  0  0  1  0  0  0  0  0999 V2000
    1.5341   -0.1679    1.6721 C   0  0  0  0  0  0  0  0  0  0  0  0
    4.0038   -1.7915    1.3086 C   0  0  0  0  0  0  0  0  0  0  0  0
    0.2925   -1.6058   -0.9650 C   0  0  0  0  0  0  0  0  0  0  0  0
    1.2792   -2.7217   -1.3212 C   0  0  0  0  0  0  0  0  0  0  0  0
    1.0362   -0.2756   -0.8104 C   0  0  0  0  0  0  0  0  0  0  0  0
    3.1249    0.8583   -0.0336 C   0  0  0  0  0  0  0  0  0  0  0  0
    4.0188   -1.0147   -1.0869 C   0  0  0  0  0  0  0  0  0  0  0  0
    2.3817   -2.8496   -0.2683 C   0  0  2  0  0  0  0  0  0  0  0  0
    2.1509   -0.2930    0.2714 C   0  0  1  0  0  0  0  0  0  0  0  0
    3.1180   -1.5250    0.0738 C   0  0  1  0  0  0  0  0  0  0  0  0
    3.3067   -3.8875   -0.6169 O   0  0  0  0  0  0  0  0  0  0  0  0
    3.9265    0.4126   -1.1236 O   0  0  0  0  0  0  0  0  0  0  0  0
    0.9005    0.7257    1.7264 H   0  0  0  0  0  0  0  0  0  0  0  0
    2.2963   -0.0790    2.4519 H   0  0  0  0  0  0  0  0  0  0  0  0
    0.9024   -1.0282    1.9219 H   0  0  0  0  0  0  0  0  0  0  0  0
    4.6022   -0.9166    1.5840 H   0  0  0  0  0  0  0  0  0  0  0  0
    4.6877   -2.6160    1.0865 H   0  0  0  0  0  0  0  0  0  0  0  0
    3.4076   -2.0846    2.1793 H   0  0  0  0  0  0  0  0  0  0  0  0
   -0.2359   -1.8622   -0.0362 H   0  0  0  0  0  0  0  0  0  0  0  0
   -0.4766   -1.5175   -1.7420 H   0  0  0  0  0  0  0  0  0  0  0  0
    1.7275   -2.5065   -2.3035 H   0  0  0  0  0  0  0  0  0  0  0  0
    0.7753   -3.6910   -1.4131 H   0  0  0  0  0  0  0  0  0  0  0  0
    0.3303    0.5307   -0.5699 H   0  0  0  0  0  0  0  0  0  0  0  0
    1.4876   -0.0126   -1.7761 H   0  0  0  0  0  0  0  0  0  0  0  0
    3.7502    1.0975    0.8418 H   0  0  0  0  0  0  0  0  0  0  0  0
    2.6155    1.7774   -0.3456 H   0  0  0  0  0  0  0  0  0  0  0  0
    3.7055   -1.3939   -2.0706 H   0  0  0  0  0  0  0  0  0  0  0  0
    5.0653   -1.3117   -0.9382 H   0  0  0  0  0  0  0  0  0  0  0  0
    1.9195   -3.2116    0.6593 H   0  0  0  0  0  0  0  0  0  0  0  0
    3.6177   -3.7071   -1.5187 H   0  0  0  0  0  0  0  0  0  0  0  0
  1 13  1  0  0  0  0
  1 15  1  0  0  0  0
  1 14  1  0  0  0  0
  2 16  1  0  0  0  0
  2 18  1  0  0  0  0
  3  5  1  0  0  0  0
  3 19  1  0  0  0  0
  4  3  1  0  0  0  0
  4  8  1  0  0  0  0
  5 23  1  0  0  0  0
  5  9  1  0  0  0  0
  6  9  1  0  0  0  0
  6 25  1  0  0  0  0
  7 28  1  0  0  0  0
  7 10  1  0  0  0  0
  8 10  1  0  0  0  0
  8 29  1  1  0  0  0
  9  1  1  1  0  0  0
 10  9  1  0  0  0  0
 10  2  1  1  0  0  0
 11  8  1  0  0  0  0
 12  7  1  0  0  0  0
 12  6  1  0  0  0  0
 17  2  1  0  0  0  0
 20  3  1  0  0  0  0
 21  4  1  0  0  0  0
 22  4  1  0  0  0  0
 24  5  1  0  0  0  0
 26  6  1  0  0  0  0
 27  7  1  0  0  0  0
 30 11  1  0  0  0  0
M  END
>  <HBA>
2

>  <HBD>
1

>  <TPSA>
29.46

>  <cid>
41057

>  <dipole>
1.4

>  <excitation_energy_1>
6.165

>  <excitation_energy_2>
6.367

>  <excitation_energy_3>
6.457

>  <excitation_energy_4>
6.529

>  <homo_energy>
-6.621

>  <homo_lumo_gap>
8.398

>  <logP>
1.574

>  <lumo_energy>
1.777

>  <melting_point>
62.98

>  <molecular_refractivity>
47.68

>  <oscillator_strength_1>
0.0106

>  <oscillator_strength_2>
0.0007

>  <oscillator_strength_3>
0.0084

>  <oscillator_strength_4>
0.0129

>  <open_babel_can_smiles>
O[C@@H]1CCC[C@]2([C@]1(C)COC2)C

>  <mulliken_charges>
30
1   -0.474427
2   -0.479495
3   -0.270663
4   -0.287812
5   -0.28142
6   -0.02372
7   -0.034405
8   0.118163
9   0.058445
10   0.047367
11   -0.631482
12   -0.495826
13   0.14374
14   0.151577
15   0.148265
16   0.146017
17   0.167764
18   0.142937
19   0.134167
20   0.137469
21   0.121174
22   0.146981
23   0.130327
24   0.149517
25   0.121463
26   0.137647
27   0.117271
28   0.139517
29   0.130844
30   0.388598

>  <lowdin_charges>
30
1   -0.448041
2   -0.451131
3   -0.278716
4   -0.293912
5   -0.281788
6   -0.134174
7   -0.136896
8   -0.005854
9   -0.010504
10   -0.026811
11   -0.459466
12   -0.282744
13   0.151244
14   0.154397
15   0.150985
16   0.149702
17   0.162956
18   0.149341
19   0.140328
20   0.149012
21   0.134492
22   0.152585
23   0.144956
24   0.149751
25   0.127636
26   0.144951
27   0.12692
28   0.140155
29   0.14275
30   0.337876

$$$$

