PCCDB-ID:  32388
public computational chemistry database (PCCDB) project, http://pccdb.org

 27 29  0  0  0  0  0  0  0  0999 V2000
   -1.5365   -0.3061    0.3085 C   0  0  0  0  0  0  0  0  0  0  0  0
   -0.6802   -1.0311    1.1395 C   0  0  0  0  0  0  0  0  0  0  0  0
   -1.0002    0.5226   -0.6782 C   0  0  0  0  0  0  0  0  0  0  0  0
    4.6815    1.5330   -0.2175 C   0  0  0  0  0  0  0  0  0  0  0  0
    0.7020   -0.9312    0.9828 C   0  0  0  0  0  0  0  0  0  0  0  0
    0.3822    0.6239   -0.8337 C   0  0  0  0  0  0  0  0  0  0  0  0
    5.5338    0.4656   -0.3744 C   0  0  0  0  0  0  0  0  0  0  0  0
    3.2880    1.3185   -0.1089 C   0  0  0  0  0  0  0  0  0  0  0  0
    3.1647   -2.4186   -0.4885 C   0  0  0  0  0  0  0  0  0  0  0  0
    4.0883   -3.4218   -0.6754 C   0  0  0  0  0  0  0  0  0  0  0  0
    5.8547   -1.9804   -0.6343 C   0  0  0  0  0  0  0  0  0  0  0  0
    1.2555   -0.1032   -0.0085 C   0  0  0  0  0  0  0  0  0  0  0  0
    5.0112   -0.8497   -0.4482 C   0  0  0  0  0  0  0  0  0  0  0  0
    2.7297    0.0509   -0.1566 C   0  0  0  0  0  0  0  0  0  0  0  0
    3.6015   -1.0738   -0.3500 C   0  0  0  0  0  0  0  0  0  0  0  0
    5.4333   -3.2224   -0.7409 N   0  0  0  0  0  0  0  0  0  0  0  0
   -2.6133   -0.3854    0.4305 H   0  0  0  0  0  0  0  0  0  0  0  0
   -1.0881   -1.6709    1.9176 H   0  0  0  0  0  0  0  0  0  0  0  0
   -1.6582    1.0891   -1.3320 H   0  0  0  0  0  0  0  0  0  0  0  0
    5.0705    2.5459   -0.1629 H   0  0  0  0  0  0  0  0  0  0  0  0
    1.3617   -1.4825    1.6471 H   0  0  0  0  0  0  0  0  0  0  0  0
    0.7954    1.2605   -1.6114 H   0  0  0  0  0  0  0  0  0  0  0  0
    6.6086    0.6125   -0.4487 H   0  0  0  0  0  0  0  0  0  0  0  0
    2.6333    2.1721    0.0441 H   0  0  0  0  0  0  0  0  0  0  0  0
    2.1074   -2.6562   -0.4601 H   0  0  0  0  0  0  0  0  0  0  0  0
    3.7633   -4.4541   -0.7858 H   0  0  0  0  0  0  0  0  0  0  0  0
    6.9324   -1.8215   -0.6998 H   0  0  0  0  0  0  0  0  0  0  0  0
  1 17  1  0  0  0  0
  1  2  2  0  0  0  0
  2 18  1  0  0  0  0
  3  1  1  0  0  0  0
  4 20  1  0  0  0  0
  4  8  1  0  0  0  0
  5  2  1  0  0  0  0
  5 21  1  0  0  0  0
  6  3  2  0  0  0  0
  6 12  1  0  0  0  0
  7  4  2  0  0  0  0
  8 24  1  0  0  0  0
  9 25  1  0  0  0  0
  9 15  2  0  0  0  0
 10  9  1  0  0  0  0
 11 13  2  0  0  0  0
 12  5  2  0  0  0  0
 13  7  1  0  0  0  0
 13 15  1  0  0  0  0
 14  8  2  0  0  0  0
 14 12  1  0  0  0  0
 15 14  1  0  0  0  0
 16 10  2  0  0  0  0
 16 11  1  0  0  0  0
 19  3  1  0  0  0  0
 22  6  1  0  0  0  0
 23  7  1  0  0  0  0
 26 10  1  0  0  0  0
 27 11  1  0  0  0  0
M  END
>  <HBA>
1

>  <HBD>
0

>  <TPSA>
12.89

>  <cid>
32388

>  <dipole>
2.76

>  <excitation_energy_1>
4.062

>  <excitation_energy_2>
4.305

>  <excitation_energy_3>
4.438

>  <excitation_energy_4>
4.786

>  <homo_energy>
-5.987

>  <homo_lumo_gap>
4.555

>  <logP>
3.902

>  <lumo_energy>
-1.431

>  <melting_point>
101.43

>  <molecular_refractivity>
67.18

>  <oscillator_strength_1>
0.1774

>  <oscillator_strength_2>
0.0015

>  <oscillator_strength_3>
0.0415

>  <oscillator_strength_4>
0.0006

>  <open_babel_can_smiles>
c1ccc(cc1)c1cccc2c1ccnc2

>  <mulliken_charges>
27
1   -0.125167
2   -0.134497
3   -0.133318
4   -0.135458
5   -0.168545
6   -0.16415
7   -0.186897
8   -0.178215
9   -0.205017
10   0.023377
11   -0.007708
12   0.06413
13   0.104248
14   0.029615
15   0.108602
16   -0.415463
17   0.132753
18   0.134342
19   0.133531
20   0.137178
21   0.142274
22   0.135234
23   0.13866
24   0.14036
25   0.149305
26   0.140523
27   0.140304

>  <lowdin_charges>
27
1   -0.153361
2   -0.155656
3   -0.155586
4   -0.156293
5   -0.162667
6   -0.160229
7   -0.144938
8   -0.152151
9   -0.177225
10   -0.099284
11   -0.084
12   -0.003784
13   -0.021696
14   -0.004708
15   0.008395
16   -0.148988
17   0.157569
18   0.160821
19   0.161125
20   0.16141
21   0.164661
22   0.161818
23   0.160593
24   0.164673
25   0.170258
26   0.156386
27   0.152857

$$$$

