PCCDB-ID:  18312
public computational chemistry database (PCCDB) project, http://pccdb.org

 29 28  0  0  0  0  0  0  0  0999 V2000
    1.2765   -0.1020   -0.9814 C   0  0  0  0  0  0  0  0  0  0  0  0
    1.0065   -2.5149    2.7661 C   0  0  0  0  0  0  0  0  0  0  0  0
    5.5198   -3.6490   -0.8352 C   0  0  0  0  0  0  0  0  0  0  0  0
    5.3899   -1.4794    0.4444 C   0  0  0  0  0  0  0  0  0  0  0  0
    0.9989   -1.4293   -0.2656 C   0  0  0  0  0  0  0  0  0  0  0  0
    1.7387   -3.0712    1.5389 C   0  0  0  0  0  0  0  0  0  0  0  0
    3.2607   -2.5845   -0.4440 C   0  0  0  0  0  0  0  0  0  0  0  0
    4.6764   -2.8042    0.1323 C   0  0  0  0  0  0  0  0  0  0  0  0
    2.1997   -2.0046    0.5195 C   0  0  0  0  0  0  0  0  0  0  0  0
    0.3858    0.2505   -1.5142 H   0  0  0  0  0  0  0  0  0  0  0  0
    2.0842   -0.1885   -1.7171 H   0  0  0  0  0  0  0  0  0  0  0  0
    1.5653    0.6771   -0.2651 H   0  0  0  0  0  0  0  0  0  0  0  0
    0.7142   -3.3220    3.4478 H   0  0  0  0  0  0  0  0  0  0  0  0
    0.0947   -1.9716    2.4941 H   0  0  0  0  0  0  0  0  0  0  0  0
    1.6476   -1.8231    3.3267 H   0  0  0  0  0  0  0  0  0  0  0  0
    6.5261   -3.8259   -0.4369 H   0  0  0  0  0  0  0  0  0  0  0  0
    5.6305   -3.1425   -1.8032 H   0  0  0  0  0  0  0  0  0  0  0  0
    5.0564   -4.6251   -1.0225 H   0  0  0  0  0  0  0  0  0  0  0  0
    6.3892   -1.6600    0.8582 H   0  0  0  0  0  0  0  0  0  0  0  0
    4.8381   -0.8725    1.1705 H   0  0  0  0  0  0  0  0  0  0  0  0
    5.5111   -0.8788   -0.4670 H   0  0  0  0  0  0  0  0  0  0  0  0
    0.6637   -2.1810   -0.9959 H   0  0  0  0  0  0  0  0  0  0  0  0
    0.1546   -1.2801    0.4194 H   0  0  0  0  0  0  0  0  0  0  0  0
    1.0933   -3.7963    1.0208 H   0  0  0  0  0  0  0  0  0  0  0  0
    2.6090   -3.6422    1.8872 H   0  0  0  0  0  0  0  0  0  0  0  0
    2.8801   -3.5442   -0.8260 H   0  0  0  0  0  0  0  0  0  0  0  0
    3.3588   -1.9324   -1.3235 H   0  0  0  0  0  0  0  0  0  0  0  0
    4.5888   -3.3684    1.0726 H   0  0  0  0  0  0  0  0  0  0  0  0
    2.6522   -1.1749    1.0845 H   0  0  0  0  0  0  0  0  0  0  0  0
  1  5  1  0  0  0  0
  1 12  1  0  0  0  0
  2 15  1  0  0  0  0
  2 13  1  0  0  0  0
  3 16  1  0  0  0  0
  3  8  1  0  0  0  0
  4 19  1  0  0  0  0
  4 20  1  0  0  0  0
  5 23  1  0  0  0  0
  5  9  1  0  0  0  0
  6 25  1  0  0  0  0
  6  2  1  0  0  0  0
  7  8  1  0  0  0  0
  7  9  1  0  0  0  0
  8  4  1  0  0  0  0
  8 28  1  0  0  0  0
  9 29  1  0  0  0  0
  9  6  1  0  0  0  0
 10  1  1  0  0  0  0
 11  1  1  0  0  0  0
 14  2  1  0  0  0  0
 17  3  1  0  0  0  0
 18  3  1  0  0  0  0
 21  4  1  0  0  0  0
 22  5  1  0  0  0  0
 24  6  1  0  0  0  0
 26  7  1  0  0  0  0
 27  7  1  0  0  0  0
M  END
>  <HBA>
0

>  <HBD>
0

>  <TPSA>
0.0

>  <cid>
18312

>  <dipole>
0.1

>  <excitation_energy_1>
7.551

>  <excitation_energy_2>
7.694

>  <excitation_energy_3>
7.819

>  <excitation_energy_4>
7.85

>  <homo_energy>
-7.957

>  <homo_lumo_gap>
10.294

>  <logP>
3.469

>  <lumo_energy>
2.337

>  <melting_point>
-28.56

>  <molecular_refractivity>
45.38

>  <oscillator_strength_1>
0.0151

>  <oscillator_strength_2>
0.0014

>  <oscillator_strength_3>
0.0202

>  <oscillator_strength_4>
0.001

>  <open_babel_can_smiles>
CCC(CC(C)C)CC

>  <mulliken_charges>
29
1   -0.448471
2   -0.449036
3   -0.441928
4   -0.443845
5   -0.259611
6   -0.260912
7   -0.26051
8   -0.072585
9   -0.061124
10   0.141363
11   0.145358
12   0.141418
13   0.141561
14   0.145627
15   0.141033
16   0.13807
17   0.137664
18   0.13899
19   0.138883
20   0.143633
21   0.137169
22   0.127325
23   0.131749
24   0.127456
25   0.133334
26   0.122134
27   0.125331
28   0.123876
29   0.116047

>  <lowdin_charges>
29
1   -0.448441
2   -0.449203
3   -0.44218
4   -0.447684
5   -0.2766
6   -0.27796
7   -0.278478
8   -0.122261
9   -0.12963
10   0.15007
11   0.146431
12   0.146725
13   0.150478
14   0.146365
15   0.147005
16   0.146005
17   0.144366
18   0.146372
19   0.146957
20   0.148543
21   0.144784
22   0.138967
23   0.141894
24   0.139405
25   0.141762
26   0.138248
27   0.139398
28   0.134651
29   0.134011

$$$$

