PCCDB-ID:  56076
public computational chemistry database (PCCDB) project, http://pccdb.org

 29 29  0  0  1  0  0  0  0  0999 V2000
    2.8602   -1.1159    3.3394 C   0  0  0  0  0  0  0  0  0  0  0  0
    6.1671   -1.2230    0.1144 C   0  0  0  0  0  0  0  0  0  0  0  0
    4.1198    1.3719   -2.0517 C   0  0  0  0  0  0  0  0  0  0  0  0
    2.8238    0.2063    2.5910 C   0  0  0  0  0  0  0  0  0  0  0  0
    5.2631   -0.0172   -0.2234 C   0  0  2  0  0  0  0  0  0  0  0  0
    3.9475   -0.1769    0.5174 C   0  0  0  0  0  0  0  0  0  0  0  0
    4.6586   -1.0487   -2.5438 C   0  0  0  0  0  0  0  0  0  0  0  0
    6.5135   -0.3701   -3.2827 C   0  0  0  0  0  0  0  0  0  0  0  0
    5.0873    0.2051   -1.7547 C   0  0  1  0  0  0  0  0  0  0  0  0
    5.5089   -1.3423   -3.4752 N   0  0  0  0  0  0  0  0  0  0  0  0
    6.3928    0.5066   -2.3461 N   0  0  0  0  0  0  0  0  0  0  0  0
    2.9555   -0.7607    0.0878 O   0  0  0  0  0  0  0  0  0  0  0  0
    3.5436   -1.7257   -2.3447 O   0  0  0  0  0  0  0  0  0  0  0  0
    7.5710   -0.4203   -4.1035 O   0  0  0  0  0  0  0  0  0  0  0  0
    3.9941    0.3603    1.7379 O   0  0  0  0  0  0  0  0  0  0  0  0
    2.0112   -1.1697    4.0301 H   0  0  0  0  0  0  0  0  0  0  0  0
    3.7825   -1.2103    3.9214 H   0  0  0  0  0  0  0  0  0  0  0  0
    2.7895   -1.9585    2.6458 H   0  0  0  0  0  0  0  0  0  0  0  0
    6.3575   -1.2704    1.1909 H   0  0  0  0  0  0  0  0  0  0  0  0
    7.1214   -1.1057   -0.4044 H   0  0  0  0  0  0  0  0  0  0  0  0
    5.7094   -2.1681   -0.1973 H   0  0  0  0  0  0  0  0  0  0  0  0
    3.1052    1.1651   -1.6974 H   0  0  0  0  0  0  0  0  0  0  0  0
    4.0821    1.5549   -3.1292 H   0  0  0  0  0  0  0  0  0  0  0  0
    4.4911    2.2808   -1.5684 H   0  0  0  0  0  0  0  0  0  0  0  0
    2.8838    1.0585    3.2709 H   0  0  0  0  0  0  0  0  0  0  0  0
    1.9283    0.2950    1.9723 H   0  0  0  0  0  0  0  0  0  0  0  0
    5.7490    0.8856    0.1592 H   0  0  0  0  0  0  0  0  0  0  0  0
    3.1354   -1.4080   -1.4975 H   0  0  0  0  0  0  0  0  0  0  0  0
    7.4120   -1.1664   -4.7065 H   0  0  0  0  0  0  0  0  0  0  0  0
  1 17  1  0  0  0  0
  1 16  1  0  0  0  0
  2 19  1  0  0  0  0
  3 22  1  0  0  0  0
  3 24  1  0  0  0  0
  4 25  1  0  0  0  0
  4  1  1  0  0  0  0
  5  2  1  0  0  0  0
  5 27  1  1  0  0  0
  5  6  1  0  0  0  0
  6 15  1  0  0  0  0
  7 13  1  0  0  0  0
  7  9  1  0  0  0  0
  8 11  2  0  0  0  0
  9  3  1  6  0  0  0
  9  5  1  0  0  0  0
 10  8  2  0  0  0  0
 10  7  2  0  0  0  0
 11  9  1  0  0  0  0
 12  6  2  0  0  0  0
 13 28  1  0  0  0  0
 14  8  1  0  0  0  0
 15  4  1  0  0  0  0
 18  1  1  0  0  0  0
 20  2  1  0  0  0  0
 21  2  1  0  0  0  0
 23  3  1  0  0  0  0
 26  4  1  0  0  0  0
 29 14  1  0  0  0  0
M  END
>  <HBA>
6

>  <HBD>
2

>  <TPSA>
84.5

>  <cid>
56076

>  <dipole>
4.89

>  <excitation_energy_1>
4.982

>  <excitation_energy_2>
5.273

>  <excitation_energy_3>
5.376

>  <excitation_energy_4>
5.802

>  <homo_energy>
-6.37

>  <homo_lumo_gap>
5.723

>  <logP>
0.441

>  <lumo_energy>
-0.648

>  <melting_point>
124.96

>  <molecular_refractivity>
58.81

>  <oscillator_strength_1>
0.0094

>  <oscillator_strength_2>
0.0022

>  <oscillator_strength_3>
0.0232

>  <oscillator_strength_4>
0.0009

>  <open_babel_can_smiles>
C[C@@H]([C@@]1(C)N=[C](=[N]=C1O)O)C(=O)OCC

>  <mulliken_charges>
29
1   -0.465657
2   -0.475583
3   -0.451491
4   -0.054486
5   -0.173954
6   0.658252
7   0.528181
8   0.630449
9   0.070215
10   -0.520339
11   -0.476046
12   -0.53412
13   -0.609586
14   -0.602854
15   -0.446279
16   0.16097
17   0.165517
18   0.177727
19   0.160883
20   0.19391
21   0.164449
22   0.151186
23   0.170616
24   0.168237
25   0.166509
26   0.178781
27   0.183697
28   0.458368
29   0.422449

>  <lowdin_charges>
29
1   -0.454834
2   -0.44105
3   -0.439767
4   -0.12731
5   -0.146347
6   0.218621
7   0.142522
8   0.1426
9   0.034535
10   -0.246309
11   -0.262881
12   -0.299661
13   -0.326457
14   -0.337459
15   -0.167242
16   0.165428
17   0.160596
18   0.166723
19   0.158362
20   0.176913
21   0.158087
22   0.153018
23   0.165706
24   0.164719
25   0.160431
26   0.163355
27   0.178375
28   0.369334
29   0.36999

$$$$

