PCCDB-ID:  6568
public computational chemistry database (PCCDB) project, http://pccdb.org

 15 14  0  0  1  0  0  0  0  0999 V2000
    2.9465    0.6919   -1.3321 C   0  0  0  0  0  0  0  0  0  0  0  0
    2.6341   -0.0962    2.4982 C   0  0  0  0  0  0  0  0  0  0  0  0
    2.5382   -0.0371   -0.0493 C   0  0  0  0  0  0  0  0  0  0  0  0
    3.1070    0.6064    1.2241 C   0  0  2  0  0  0  0  0  0  0  0  0
    4.5365    0.6789    1.1811 O   0  0  0  0  0  0  0  0  0  0  0  0
    2.5617    0.1796   -2.2209 H   0  0  0  0  0  0  0  0  0  0  0  0
    4.0361    0.7518   -1.4108 H   0  0  0  0  0  0  0  0  0  0  0  0
    2.5570    1.7173   -1.3420 H   0  0  0  0  0  0  0  0  0  0  0  0
    1.5428   -0.0572    2.5952 H   0  0  0  0  0  0  0  0  0  0  0  0
    3.0788    0.3758    3.3800 H   0  0  0  0  0  0  0  0  0  0  0  0
    2.9292   -1.1548    2.4915 H   0  0  0  0  0  0  0  0  0  0  0  0
    2.8768   -1.0847   -0.0900 H   0  0  0  0  0  0  0  0  0  0  0  0
    1.4431   -0.0756    0.0322 H   0  0  0  0  0  0  0  0  0  0  0  0
    2.7914    1.6571    1.2575 H   0  0  0  0  0  0  0  0  0  0  0  0
    4.8675   -0.2344    1.1723 H   0  0  0  0  0  0  0  0  0  0  0  0
  1  3  1  0  0  0  0
  2  9  1  0  0  0  0
  2 10  1  0  0  0  0
  3 13  1  0  0  0  0
  3  4  1  0  0  0  0
  4 14  1  1  0  0  0
  4  2  1  0  0  0  0
  5  4  1  0  0  0  0
  6  1  1  0  0  0  0
  7  1  1  0  0  0  0
  8  1  1  0  0  0  0
 11  2  1  0  0  0  0
 12  3  1  0  0  0  0
 15  5  1  0  0  0  0
M  END
>  <HBA>
1

>  <HBD>
1

>  <TPSA>
20.23

>  <cid>
6568

>  <dipole>
1.59

>  <excitation_energy_1>
6.65

>  <excitation_energy_2>
7.221

>  <excitation_energy_3>
7.416

>  <excitation_energy_4>
7.616

>  <homo_energy>
-7.108

>  <homo_lumo_gap>
9.072

>  <logP>
0.777

>  <lumo_energy>
1.965

>  <melting_point>
-6.62

>  <molecular_refractivity>
22.5

>  <oscillator_strength_1>
0.0175

>  <oscillator_strength_2>
0.0024

>  <oscillator_strength_3>
0.0143

>  <oscillator_strength_4>
0.0056

>  <open_babel_can_smiles>
CC[C@H](O)C

>  <mulliken_charges>
15
1   -0.43971
2   -0.457038
3   -0.260623
4   0.142807
5   -0.617983
6   0.138801
7   0.158733
8   0.141606
9   0.142874
10   0.158078
11   0.130466
12   0.117077
13   0.131143
14   0.134136
15   0.379633

>  <lowdin_charges>
15
1   -0.443874
2   -0.457422
3   -0.286012
4   0.003427
5   -0.465561
6   0.148767
7   0.15386
8   0.146538
9   0.150984
10   0.158667
11   0.141246
12   0.132323
13   0.142304
14   0.139815
15   0.334938

$$$$

