PCCDB-ID:  14528
public computational chemistry database (PCCDB) project, http://pccdb.org

 21 21  0  0  0  0  0  0  0  0999 V2000
    3.6389   -1.1674    0.4547 C   0  0  0  0  0  0  0  0  0  0  0  0
    4.2548    3.3401   -1.9932 C   0  0  0  0  0  0  0  0  0  0  0  0
    5.0301    2.1832   -1.9103 C   0  0  0  0  0  0  0  0  0  0  0  0
    2.9567    3.3352   -1.4776 C   0  0  0  0  0  0  0  0  0  0  0  0
    4.5128    1.0316   -1.3192 C   0  0  0  0  0  0  0  0  0  0  0  0
    2.4375    2.1828   -0.8942 C   0  0  0  0  0  0  0  0  0  0  0  0
    1.3112   -0.4774   -0.2464 C   0  0  0  0  0  0  0  0  0  0  0  0
    0.6003   -1.6154    0.3413 C   0  0  0  0  0  0  0  0  0  0  0  0
    2.6450   -0.2306   -0.1951 C   0  0  0  0  0  0  0  0  0  0  0  0
    3.2003    1.0019   -0.8124 C   0  0  0  0  0  0  0  0  0  0  0  0
   -0.6056   -1.7716    0.2274 O   0  0  0  0  0  0  0  0  0  0  0  0
    3.1613   -1.9516    1.0423 H   0  0  0  0  0  0  0  0  0  0  0  0
    4.3202   -0.6129    1.1094 H   0  0  0  0  0  0  0  0  0  0  0  0
    4.2579   -1.6629   -0.3042 H   0  0  0  0  0  0  0  0  0  0  0  0
    4.6601    4.2399   -2.4476 H   0  0  0  0  0  0  0  0  0  0  0  0
    6.0422    2.1750   -2.3056 H   0  0  0  0  0  0  0  0  0  0  0  0
    2.3499    4.2356   -1.5190 H   0  0  0  0  0  0  0  0  0  0  0  0
    5.1328    0.1423   -1.2715 H   0  0  0  0  0  0  0  0  0  0  0  0
    1.4391    2.2048   -0.4688 H   0  0  0  0  0  0  0  0  0  0  0  0
    0.6564    0.2038   -0.7835 H   0  0  0  0  0  0  0  0  0  0  0  0
    1.1995   -2.3527    0.9136 H   0  0  0  0  0  0  0  0  0  0  0  0
  1 12  1  0  0  0  0
  1 13  1  0  0  0  0
  2  3  2  0  0  0  0
  2  4  1  0  0  0  0
  3  5  1  0  0  0  0
  4  6  2  0  0  0  0
  5 18  1  0  0  0  0
  5 10  2  0  0  0  0
  6 10  1  0  0  0  0
  6 19  1  0  0  0  0
  7  9  2  0  0  0  0
  7  8  1  0  0  0  0
  8 21  1  0  0  0  0
  9  1  1  0  0  0  0
 10  9  1  0  0  0  0
 11  8  2  0  0  0  0
 14  1  1  0  0  0  0
 15  2  1  0  0  0  0
 16  3  1  0  0  0  0
 17  4  1  0  0  0  0
 20  7  1  0  0  0  0
M  END
>  <HBA>
1

>  <HBD>
0

>  <TPSA>
17.07

>  <cid>
14528

>  <dipole>
4.39

>  <excitation_energy_1>
3.383

>  <excitation_energy_2>
4.327

>  <excitation_energy_3>
4.453

>  <excitation_energy_4>
5.402

>  <homo_energy>
-6.514

>  <homo_lumo_gap>
4.615

>  <logP>
2.289

>  <lumo_energy>
-1.899

>  <melting_point>
49.75

>  <molecular_refractivity>
46.35

>  <oscillator_strength_1>
0.0008

>  <oscillator_strength_2>
0.5028

>  <oscillator_strength_3>
0.0346

>  <oscillator_strength_4>
0.0138

>  <open_babel_can_smiles>
O=C/C=C(/c1ccccc1)\C

>  <mulliken_charges>
21
1   -0.533858
2   -0.123237
3   -0.130504
4   -0.132472
5   -0.178478
6   -0.170656
7   -0.234256
8   0.23219
9   0.132008
10   0.106162
11   -0.422356
12   0.169958
13   0.174271
14   0.175058
15   0.137059
16   0.13637
17   0.138434
18   0.131528
19   0.14433
20   0.149227
21   0.099221

>  <lowdin_charges>
21
1   -0.450511
2   -0.148217
3   -0.151556
4   -0.15308
5   -0.158335
6   -0.148449
7   -0.217537
8   0.032045
9   0.041322
10   -0.010619
11   -0.237393
12   0.16516
13   0.16914
14   0.169388
15   0.162028
16   0.159929
17   0.162474
18   0.160891
19   0.164443
20   0.170999
21   0.117877

$$$$

