PCCDB-ID:  7969
public computational chemistry database (PCCDB) project, http://pccdb.org

 13 13  0  0  0  0  0  0  0  0999 V2000
   -1.3910   -0.0685    0.0287 C   0  0  0  0  0  0  0  0  0  0  0  0
   -0.7592    1.1752   -0.0012 C   0  0  0  0  0  0  0  0  0  0  0  0
   -0.6165   -1.2302    0.0158 C   0  0  0  0  0  0  0  0  0  0  0  0
    0.6326    1.2630   -0.0439 C   0  0  0  0  0  0  0  0  0  0  0  0
    0.7746   -1.1533   -0.0265 C   0  0  0  0  0  0  0  0  0  0  0  0
    1.4076    0.0968   -0.0569 C   0  0  0  0  0  0  0  0  0  0  0  0
    3.1955    0.1215   -0.1111 S   0  0  0  0  0  0  0  0  0  0  0  0
   -2.4747   -0.1324    0.0629 H   0  0  0  0  0  0  0  0  0  0  0  0
   -1.3497    2.0876    0.0088 H   0  0  0  0  0  0  0  0  0  0  0  0
   -1.0960   -2.2052    0.0391 H   0  0  0  0  0  0  0  0  0  0  0  0
    1.1100    2.2389   -0.0678 H   0  0  0  0  0  0  0  0  0  0  0  0
    1.3686   -2.0633   -0.0354 H   0  0  0  0  0  0  0  0  0  0  0  0
    3.3399    1.4623   -0.1142 H   0  0  0  0  0  0  0  0  0  0  0  0
  1  8  1  0  0  0  0
  2  9  1  0  0  0  0
  2  1  2  0  0  0  0
  3  1  1  0  0  0  0
  3 10  1  0  0  0  0
  4  2  1  0  0  0  0
  5  3  2  0  0  0  0
  6  4  2  0  0  0  0
  6  5  1  0  0  0  0
  7  6  1  0  0  0  0
 11  4  1  0  0  0  0
 12  5  1  0  0  0  0
 13  7  1  0  0  0  0
M  END
>  <HBA>
1

>  <HBD>
1

>  <TPSA>
38.8

>  <cid>
7969

>  <dipole>
1.28

>  <excitation_energy_1>
4.736

>  <excitation_energy_2>
4.781

>  <excitation_energy_3>
5.2

>  <excitation_energy_4>
5.498

>  <homo_energy>
-5.94

>  <homo_lumo_gap>
5.804

>  <logP>
1.975

>  <lumo_energy>
-0.136

>  <melting_point>
28.08

>  <molecular_refractivity>
33.69

>  <oscillator_strength_1>
0.0024

>  <oscillator_strength_2>
0.0127

>  <oscillator_strength_3>
0.219

>  <oscillator_strength_4>
0.0083

>  <open_babel_can_smiles>
Sc1ccccc1

>  <mulliken_charges>
13
1   -0.135878
2   -0.117029
3   -0.117703
4   -0.154707
5   -0.157513
6   -0.055923
7   -0.027432
8   0.13203
9   0.134045
10   0.134676
11   0.127994
12   0.1422
13   0.095241

>  <lowdin_charges>
13
1   -0.163157
2   -0.148219
3   -0.146261
4   -0.175395
5   -0.169484
6   -0.107926
7   -0.00829
8   0.157397
9   0.160738
10   0.160502
11   0.157325
12   0.165374
13   0.117396

$$$$

