PCCDB-ID:  70627
public computational chemistry database (PCCDB) project, http://pccdb.org

 16 16  0  0  0  0  0  0  0  0999 V2000
    0.9023   -0.1697   -0.0514 C   0  0  0  0  0  0  0  0  0  0  0  0
    4.4106   -1.1558   -0.0692 C   0  0  0  0  0  0  0  0  0  0  0  0
    2.3843    0.0495   -0.0573 C   0  0  0  0  0  0  0  0  0  0  0  0
    5.1638   -0.0318   -0.0691 C   0  0  0  0  0  0  0  0  0  0  0  0
    3.0558    1.2340   -0.0566 C   0  0  0  0  0  0  0  0  0  0  0  0
    4.5297    1.2973   -0.0629 C   0  0  0  0  0  0  0  0  0  0  0  0
    6.5238   -0.0207   -0.0755 O   0  0  0  0  0  0  0  0  0  0  0  0
    2.4644    2.4615   -0.0491 O   0  0  0  0  0  0  0  0  0  0  0  0
    5.1603    2.3473   -0.0627 O   0  0  0  0  0  0  0  0  0  0  0  0
    3.0535   -1.1420   -0.0631 O   0  0  0  0  0  0  0  0  0  0  0  0
    0.3391    0.7681   -0.0613 H   0  0  0  0  0  0  0  0  0  0  0  0
    0.5969   -0.7300    0.8403 H   0  0  0  0  0  0  0  0  0  0  0  0
    0.5944   -0.7495   -0.9295 H   0  0  0  0  0  0  0  0  0  0  0  0
    4.7992   -2.1686   -0.0739 H   0  0  0  0  0  0  0  0  0  0  0  0
    6.8551   -0.9330   -0.0796 H   0  0  0  0  0  0  0  0  0  0  0  0
    1.5006    2.3633   -0.0482 H   0  0  0  0  0  0  0  0  0  0  0  0
  1 12  1  0  0  0  0
  2  4  2  0  0  0  0
  2 10  1  0  0  0  0
  3  5  2  0  0  0  0
  3  1  1  0  0  0  0
  4  6  1  0  0  0  0
  5  8  1  0  0  0  0
  6  9  2  0  0  0  0
  6  5  1  0  0  0  0
  7  4  1  0  0  0  0
  8 16  1  0  0  0  0
 10  3  1  0  0  0  0
 11  1  1  0  0  0  0
 13  1  1  0  0  0  0
 14  2  1  0  0  0  0
 15  7  1  0  0  0  0
M  END
>  <HBA>
4

>  <HBD>
2

>  <TPSA>
70.67

>  <cid>
70627

>  <dipole>
6.06

>  <excitation_energy_1>
3.952

>  <excitation_energy_2>
4.706

>  <excitation_energy_3>
4.951

>  <excitation_energy_4>
5.153

>  <homo_energy>
-5.899

>  <homo_lumo_gap>
4.95

>  <logP>
0.359

>  <lumo_energy>
-0.95

>  <melting_point>
123.78

>  <molecular_refractivity>
33.99

>  <oscillator_strength_1>
0.0

>  <oscillator_strength_2>
0.1483

>  <oscillator_strength_3>
0.0001

>  <oscillator_strength_4>
0.0007

>  <open_babel_can_smiles>
Cc1occ(c(=O)c1O)O

>  <mulliken_charges>
16
1   -0.522446
2   0.025411
3   0.304688
4   0.256142
5   0.20333
6   0.423792
7   -0.612927
8   -0.618984
9   -0.488361
10   -0.464311
11   0.148205
12   0.188323
13   0.188292
14   0.154691
15   0.407193
16   0.406962

>  <lowdin_charges>
16
1   -0.442085
2   -0.107059
3   0.043606
4   0.039753
5   0.026273
6   0.113371
7   -0.349349
8   -0.35233
9   -0.254398
10   -0.104383
11   0.156587
12   0.176222
13   0.176476
14   0.166868
15   0.358479
16   0.351969

$$$$

