PCCDB-ID:  17444
public computational chemistry database (PCCDB) project, http://pccdb.org

 26 26  0  0  0  0  0  0  0  0999 V2000
    1.5861    0.4712   -1.0140 C   0  0  0  0  0  0  0  0  0  0  0  0
    4.1563    3.1023    2.4392 C   0  0  0  0  0  0  0  0  0  0  0  0
    3.1466    3.4473    1.5461 C   0  0  0  0  0  0  0  0  0  0  0  0
    4.6252    1.7858    2.4635 C   0  0  0  0  0  0  0  0  0  0  0  0
    2.6074    2.4882    0.6835 C   0  0  0  0  0  0  0  0  0  0  0  0
    4.6550   -0.6068    1.6322 C   0  0  0  0  0  0  0  0  0  0  0  0
    5.7418   -0.8334    0.5687 C   0  0  0  0  0  0  0  0  0  0  0  0
    4.1112    0.8043    1.6146 C   0  0  0  0  0  0  0  0  0  0  0  0
    3.0895    1.1756    0.7143 C   0  0  0  0  0  0  0  0  0  0  0  0
    7.1886   -2.4232   -0.4603 N   0  0  0  0  0  0  0  0  0  0  0  0
    6.2852   -2.1907    0.6913 N   0  0  0  0  0  0  0  0  0  0  0  0
    2.6230    0.1724   -0.0949 O   0  0  0  0  0  0  0  0  0  0  0  0
    1.3714   -0.4625   -1.5372 H   0  0  0  0  0  0  0  0  0  0  0  0
    1.8988    1.2309   -1.7427 H   0  0  0  0  0  0  0  0  0  0  0  0
    0.6784    0.8174   -0.5018 H   0  0  0  0  0  0  0  0  0  0  0  0
    4.5747    3.8443    3.1131 H   0  0  0  0  0  0  0  0  0  0  0  0
    2.7663    4.4649    1.5130 H   0  0  0  0  0  0  0  0  0  0  0  0
    5.4094    1.5047    3.1633 H   0  0  0  0  0  0  0  0  0  0  0  0
    1.8206    2.7734   -0.0055 H   0  0  0  0  0  0  0  0  0  0  0  0
    5.0832   -0.8259    2.6168 H   0  0  0  0  0  0  0  0  0  0  0  0
    3.8386   -1.3190    1.4630 H   0  0  0  0  0  0  0  0  0  0  0  0
    6.5648   -0.1261    0.7436 H   0  0  0  0  0  0  0  0  0  0  0  0
    5.3426   -0.6305   -0.4376 H   0  0  0  0  0  0  0  0  0  0  0  0
    7.6422   -3.3123   -0.2325 H   0  0  0  0  0  0  0  0  0  0  0  0
    7.9398   -1.7424   -0.3159 H   0  0  0  0  0  0  0  0  0  0  0  0
    5.5050   -2.8219    0.4939 H   0  0  0  0  0  0  0  0  0  0  0  0
  1 15  1  0  0  0  0
  1 12  1  0  0  0  0
  2  4  1  0  0  0  0
  2 16  1  0  0  0  0
  3  2  2  0  0  0  0
  4 18  1  0  0  0  0
  5  9  2  0  0  0  0
  5  3  1  0  0  0  0
  6 20  1  0  0  0  0
  7 11  1  0  0  0  0
  7 22  1  0  0  0  0
  7  6  1  0  0  0  0
  8  6  1  0  0  0  0
  8  4  2  0  0  0  0
  9  8  1  0  0  0  0
 10 25  1  0  0  0  0
 10 24  1  0  0  0  0
 10 11  1  0  0  0  0
 12  9  1  0  0  0  0
 13  1  1  0  0  0  0
 14  1  1  0  0  0  0
 17  3  1  0  0  0  0
 19  5  1  0  0  0  0
 21  6  1  0  0  0  0
 23  7  1  0  0  0  0
 26 11  1  0  0  0  0
M  END
>  <HBA>
3

>  <HBD>
2

>  <TPSA>
47.28

>  <cid>
17444

>  <dipole>
1.14

>  <excitation_energy_1>
4.665

>  <excitation_energy_2>
4.788

>  <excitation_energy_3>
5.013

>  <excitation_energy_4>
5.112

>  <homo_energy>
-5.178

>  <homo_lumo_gap>
5.284

>  <logP>
1.792

>  <lumo_energy>
0.106

>  <melting_point>
94.02

>  <molecular_refractivity>
48.22

>  <oscillator_strength_1>
0.0009

>  <oscillator_strength_2>
0.0033

>  <oscillator_strength_3>
0.0486

>  <oscillator_strength_4>
0.0011

>  <open_babel_can_smiles>
NNCCc1ccccc1OC

>  <mulliken_charges>
26
1   -0.213903
2   -0.128575
3   -0.14002
4   -0.193394
5   -0.192705
6   -0.347525
7   -0.111176
8   0.114209
9   0.328228
10   -0.595606
11   -0.471967
12   -0.513666
13   0.168942
14   0.152787
15   0.151696
16   0.123822
17   0.126896
18   0.124445
19   0.1295
20   0.15083
21   0.151096
22   0.132977
23   0.143708
24   0.302383
25   0.301414
26   0.305602

>  <lowdin_charges>
26
1   -0.278709
2   -0.178936
3   -0.150268
4   -0.158066
5   -0.213256
6   -0.274842
7   -0.20742
8   -0.027453
9   0.092742
10   -0.498884
11   -0.325302
12   -0.202113
13   0.162683
14   0.14633
15   0.145229
16   0.157489
17   0.155689
18   0.156395
19   0.161754
20   0.153997
21   0.154786
22   0.137198
23   0.133782
24   0.25287
25   0.252307
26   0.252

$$$$

