PCCDB-ID:  91
public computational chemistry database (PCCDB) project, http://pccdb.org

 22 22  0  0  0  0  0  0  0  0999 V2000
   -0.6428    1.6593   -0.0802 C   0  0  0  0  0  0  0  0  0  0  0  0
   -1.1629    0.3665   -0.1167 C   0  0  0  0  0  0  0  0  0  0  0  0
    0.7358    1.8725   -0.0993 C   0  0  0  0  0  0  0  0  0  0  0  0
   -0.8566   -2.1470   -0.2488 C   0  0  0  0  0  0  0  0  0  0  0  0
   -1.0395   -2.6190   -1.7003 C   0  0  0  0  0  0  0  0  0  0  0  0
    1.0787   -0.5254   -0.1898 C   0  0  0  0  0  0  0  0  0  0  0  0
   -0.3021   -0.7400   -0.1726 C   0  0  0  0  0  0  0  0  0  0  0  0
    1.5976    0.7726   -0.1533 C   0  0  0  0  0  0  0  0  0  0  0  0
   -1.6228   -4.0238   -1.7945 C   0  0  0  0  0  0  0  0  0  0  0  0
    2.9599    0.9011   -0.1691 O   0  0  0  0  0  0  0  0  0  0  0  0
   -1.9256   -4.7084   -0.8506 O   0  0  0  0  0  0  0  0  0  0  0  0
   -1.7990   -4.4955   -3.0617 O   0  0  0  0  0  0  0  0  0  0  0  0
   -1.3136    2.5130   -0.0311 H   0  0  0  0  0  0  0  0  0  0  0  0
   -2.2387    0.2124   -0.0908 H   0  0  0  0  0  0  0  0  0  0  0  0
    1.1393    2.8830   -0.0660 H   0  0  0  0  0  0  0  0  0  0  0  0
   -0.1938   -2.8499    0.2667 H   0  0  0  0  0  0  0  0  0  0  0  0
   -1.8234   -2.2051    0.2615 H   0  0  0  0  0  0  0  0  0  0  0  0
   -0.0774   -2.5985   -2.2319 H   0  0  0  0  0  0  0  0  0  0  0  0
   -1.6992   -1.9277   -2.2445 H   0  0  0  0  0  0  0  0  0  0  0  0
    1.7738   -1.3602   -0.2210 H   0  0  0  0  0  0  0  0  0  0  0  0
    3.1877    1.8428   -0.1284 H   0  0  0  0  0  0  0  0  0  0  0  0
   -1.5045   -3.8316   -3.7073 H   0  0  0  0  0  0  0  0  0  0  0  0
  1 13  1  0  0  0  0
  2 14  1  0  0  0  0
  2  1  2  0  0  0  0
  3  1  1  0  0  0  0
  3 15  1  0  0  0  0
  4  7  1  0  0  0  0
  4 17  1  0  0  0  0
  4 16  1  0  0  0  0
  5  4  1  0  0  0  0
  6  7  2  0  0  0  0
  6  8  1  0  0  0  0
  7  2  1  0  0  0  0
  8  3  2  0  0  0  0
  9  5  1  0  0  0  0
  9 11  2  0  0  0  0
 10  8  1  0  0  0  0
 10 21  1  0  0  0  0
 12  9  1  0  0  0  0
 18  5  1  0  0  0  0
 19  5  1  0  0  0  0
 20  6  1  0  0  0  0
 22 12  1  0  0  0  0
M  END
>  <HBA>
3

>  <HBD>
2

>  <TPSA>
57.53

>  <cid>
91

>  <dipole>
5.18

>  <excitation_energy_1>
5.004

>  <excitation_energy_2>
5.248

>  <excitation_energy_3>
5.45

>  <excitation_energy_4>
5.612

>  <homo_energy>
-6.109

>  <homo_lumo_gap>
5.929

>  <logP>
1.409

>  <lumo_energy>
-0.18

>  <melting_point>
123.96

>  <molecular_refractivity>
44.82

>  <oscillator_strength_1>
0.0395

>  <oscillator_strength_2>
0.0002

>  <oscillator_strength_3>
0.003

>  <oscillator_strength_4>
0.0156

>  <open_babel_can_smiles>
OC(=O)CCc1cccc(c1)O

>  <mulliken_charges>
22
1   -0.13221
2   -0.187619
3   -0.196689
4   -0.345772
5   -0.401932
6   -0.217051
7   0.159717
8   0.354422
9   0.61149
10   -0.642776
11   -0.436409
12   -0.569334
13   0.13234
14   0.122601
15   0.118469
16   0.168826
17   0.167804
18   0.171856
19   0.171502
20   0.134402
21   0.407616
22   0.408747

>  <lowdin_charges>
22
1   -0.14352
2   -0.190049
3   -0.217922
4   -0.26582
5   -0.323597
6   -0.200259
7   0.007558
8   0.106847
9   0.198713
10   -0.378287
11   -0.236642
12   -0.362992
13   0.160189
14   0.153436
15   0.152952
16   0.165093
17   0.163146
18   0.16466
19   0.166049
20   0.165376
21   0.355901
22   0.35917

$$$$

