PCCDB-ID:  1384
public computational chemistry database (PCCDB) project, http://pccdb.org

 26 27  0  0  0  0  0  0  0  0999 V2000
    0.7894   -0.8637    1.0285 C   0  0  0  0  0  0  0  0  0  0  0  0
    5.0294   -4.8983   -1.9789 C   0  0  0  0  0  0  0  0  0  0  0  0
    6.1026   -4.5444   -2.7334 C   0  0  0  0  0  0  0  0  0  0  0  0
    3.1407   -4.2156   -0.5281 C   0  0  0  0  0  0  0  0  0  0  0  0
    3.8483   -1.5046   -0.8303 C   0  0  0  0  0  0  0  0  0  0  0  0
    6.2654   -0.8292   -2.5562 C   0  0  0  0  0  0  0  0  0  0  0  0
    4.2353   -3.9072   -1.3049 C   0  0  0  0  0  0  0  0  0  0  0  0
    4.6367   -2.5111   -1.4719 C   0  0  0  0  0  0  0  0  0  0  0  0
    5.7455   -2.2209   -2.2480 C   0  0  0  0  0  0  0  0  0  0  0  0
    2.3456   -3.2319    0.1646 C   0  0  0  0  0  0  0  0  0  0  0  0
    2.7601   -1.8160   -0.0603 C   0  0  0  0  0  0  0  0  0  0  0  0
    6.4423   -3.2208   -2.8605 N   0  0  0  0  0  0  0  0  0  0  0  0
    7.6291   -0.8543   -2.9800 O   0  0  0  0  0  0  0  0  0  0  0  0
    1.3917   -3.5277    0.9052 O   0  0  0  0  0  0  0  0  0  0  0  0
    2.1299   -0.7695    0.5218 O   0  0  0  0  0  0  0  0  0  0  0  0
    0.5007    0.1737    1.2193 H   0  0  0  0  0  0  0  0  0  0  0  0
    0.7473   -1.4524    1.9441 H   0  0  0  0  0  0  0  0  0  0  0  0
    0.1142   -1.3078    0.2928 H   0  0  0  0  0  0  0  0  0  0  0  0
    4.7655   -5.9463   -1.8839 H   0  0  0  0  0  0  0  0  0  0  0  0
    6.7339   -5.2510   -3.2585 H   0  0  0  0  0  0  0  0  0  0  0  0
    2.8419   -5.2503   -0.3836 H   0  0  0  0  0  0  0  0  0  0  0  0
    4.0923   -0.4529   -0.9447 H   0  0  0  0  0  0  0  0  0  0  0  0
    6.1260   -0.1700   -1.6927 H   0  0  0  0  0  0  0  0  0  0  0  0
    5.7069   -0.3950   -3.3936 H   0  0  0  0  0  0  0  0  0  0  0  0
    7.2564   -2.9291   -3.3897 H   0  0  0  0  0  0  0  0  0  0  0  0
    8.1842   -0.9368   -2.1881 H   0  0  0  0  0  0  0  0  0  0  0  0
  1 16  1  0  0  0  0
  1 17  1  0  0  0  0
  2 19  1  0  0  0  0
  2  7  1  0  0  0  0
  3  2  2  0  0  0  0
  4 21  1  0  0  0  0
  4 10  1  0  0  0  0
  5 11  2  0  0  0  0
  6  9  1  0  0  0  0
  6 23  1  0  0  0  0
  7  4  2  0  0  0  0
  8  7  1  0  0  0  0
  8  5  1  0  0  0  0
  9  8  2  0  0  0  0
 10 14  2  0  0  0  0
 11 10  1  0  0  0  0
 11 15  1  0  0  0  0
 12  3  1  0  0  0  0
 12  9  1  0  0  0  0
 13  6  1  0  0  0  0
 13 26  1  0  0  0  0
 15  1  1  0  0  0  0
 18  1  1  0  0  0  0
 20  3  1  0  0  0  0
 22  5  1  0  0  0  0
 24  6  1  0  0  0  0
 25 12  1  0  0  0  0
M  END
>  <HBA>
3

>  <HBD>
2

>  <TPSA>
62.32

>  <cid>
1384

>  <dipole>
7.09

>  <excitation_energy_1>
3.262

>  <excitation_energy_2>
3.302

>  <excitation_energy_3>
3.687

>  <excitation_energy_4>
3.844

>  <homo_energy>
-4.898

>  <homo_lumo_gap>
3.57

>  <logP>
1.029

>  <lumo_energy>
-1.328

>  <melting_point>
159.93

>  <molecular_refractivity>
57.19

>  <oscillator_strength_1>
0.0023

>  <oscillator_strength_2>
0.1571

>  <oscillator_strength_3>
0.0042

>  <oscillator_strength_4>
0.0367

>  <open_babel_can_smiles>
COc1cc2c(CO)[nH]ccc2cc1=O

>  <mulliken_charges>
26
1   -0.19546
2   -0.233695
3   0.07433
4   -0.341163
5   -0.302743
6   -0.101012
7   0.221692
8   0.085511
9   0.232489
10   0.413486
11   0.332578
12   -0.645187
13   -0.617229
14   -0.569479
15   -0.517792
16   0.14112
17   0.182586
18   0.158732
19   0.148642
20   0.165509
21   0.123634
22   0.124427
23   0.170701
24   0.19181
25   0.350446
26   0.406065

>  <lowdin_charges>
26
1   -0.270678
2   -0.176324
3   -0.112533
4   -0.242644
5   -0.219577
6   -0.138559
7   0.017762
8   -0.029974
9   0.020178
10   0.099982
11   0.086502
12   -0.164024
13   -0.457635
14   -0.329267
15   -0.195589
16   0.144514
17   0.164726
18   0.1547
19   0.170902
20   0.172936
21   0.160233
22   0.158454
23   0.159649
24   0.172603
25   0.299995
26   0.353669

$$$$

