PCCDB-ID:  3293
public computational chemistry database (PCCDB) project, http://pccdb.org

 35 36  0  0  0  0  0  0  0  0999 V2000
    1.4383    2.2123   -0.2097 C   0  0  0  0  0  0  0  0  0  0  0  0
    7.4108   -1.8432    0.9730 C   0  0  0  0  0  0  0  0  0  0  0  0
   10.5528    1.4944    0.0964 C   0  0  0  0  0  0  0  0  0  0  0  0
   11.1250    1.0051    2.5082 C   0  0  0  0  0  0  0  0  0  0  0  0
    2.7958    2.7053    0.2625 C   0  0  0  0  0  0  0  0  0  0  0  0
    5.5095    3.0165    1.0840 C   0  0  0  0  0  0  0  0  0  0  0  0
    6.8504    3.0939    1.4742 C   0  0  0  0  0  0  0  0  0  0  0  0
    5.7811    0.6460    0.7250 C   0  0  0  0  0  0  0  0  0  0  0  0
    9.3227   -0.2944    1.3467 C   0  0  0  0  0  0  0  0  0  0  0  0
    8.0030   -0.4683    1.1549 C   0  0  0  0  0  0  0  0  0  0  0  0
    4.9685    1.7855    0.7053 C   0  0  0  0  0  0  0  0  0  0  0  0
    7.1211    0.7102    1.1117 C   0  0  0  0  0  0  0  0  0  0  0  0
    7.6679    1.9621    1.4974 C   0  0  0  0  0  0  0  0  0  0  0  0
    9.9877    1.0617    1.4735 C   0  0  0  0  0  0  0  0  0  0  0  0
    8.9803    2.0136    1.9685 N   0  0  0  0  0  0  0  0  0  0  0  0
    3.6709    1.5851    0.3019 O   0  0  0  0  0  0  0  0  0  0  0  0
    0.7277    3.0449   -0.2540 H   0  0  0  0  0  0  0  0  0  0  0  0
    1.0446    1.4547    0.4752 H   0  0  0  0  0  0  0  0  0  0  0  0
    1.5157    1.7673   -1.2068 H   0  0  0  0  0  0  0  0  0  0  0  0
    8.1802   -2.6159    1.0623 H   0  0  0  0  0  0  0  0  0  0  0  0
    6.9405   -1.9503   -0.0131 H   0  0  0  0  0  0  0  0  0  0  0  0
    6.6329   -2.0464    1.7199 H   0  0  0  0  0  0  0  0  0  0  0  0
   11.2748    0.7613   -0.2828 H   0  0  0  0  0  0  0  0  0  0  0  0
   11.0648    2.4632    0.1741 H   0  0  0  0  0  0  0  0  0  0  0  0
    9.7436    1.5865   -0.6351 H   0  0  0  0  0  0  0  0  0  0  0  0
   11.9035    0.3016    2.1915 H   0  0  0  0  0  0  0  0  0  0  0  0
   10.7403    0.6903    3.4826 H   0  0  0  0  0  0  0  0  0  0  0  0
   11.5948    1.9904    2.6235 H   0  0  0  0  0  0  0  0  0  0  0  0
    2.7192    3.1600    1.2618 H   0  0  0  0  0  0  0  0  0  0  0  0
    3.1923    3.4705   -0.4220 H   0  0  0  0  0  0  0  0  0  0  0  0
    4.9100    3.9196    1.0793 H   0  0  0  0  0  0  0  0  0  0  0  0
    7.2618    4.0564    1.7721 H   0  0  0  0  0  0  0  0  0  0  0  0
    5.3349   -0.2964    0.4260 H   0  0  0  0  0  0  0  0  0  0  0  0
    9.9875   -1.1561    1.3625 H   0  0  0  0  0  0  0  0  0  0  0  0
    9.3409    2.9572    2.0622 H   0  0  0  0  0  0  0  0  0  0  0  0
  1  5  1  0  0  0  0
  1 18  1  0  0  0  0
  2 20  1  0  0  0  0
  2 10  1  0  0  0  0
  2 22  1  0  0  0  0
  3 24  1  0  0  0  0
  3 14  1  0  0  0  0
  4 28  1  0  0  0  0
  4 27  1  0  0  0  0
  5 16  1  0  0  0  0
  5 29  1  0  0  0  0
  6  7  2  0  0  0  0
  7 13  1  0  0  0  0
  7 32  1  0  0  0  0
  8 12  1  0  0  0  0
  9 34  1  0  0  0  0
  9 14  1  0  0  0  0
 10  9  2  0  0  0  0
 11  8  2  0  0  0  0
 11  6  1  0  0  0  0
 12 10  1  0  0  0  0
 12 13  2  0  0  0  0
 13 15  1  0  0  0  0
 14 15  1  0  0  0  0
 14  4  1  0  0  0  0
 15 35  1  0  0  0  0
 16 11  1  0  0  0  0
 17  1  1  0  0  0  0
 19  1  1  0  0  0  0
 21  2  1  0  0  0  0
 23  3  1  0  0  0  0
 25  3  1  0  0  0  0
 26  4  1  0  0  0  0
 30  5  1  0  0  0  0
 31  6  1  0  0  0  0
 33  8  1  0  0  0  0
M  END
>  <HBA>
2

>  <HBD>
1

>  <TPSA>
21.26

>  <cid>
3293

>  <dipole>
1.35

>  <excitation_energy_1>
3.458

>  <excitation_energy_2>
4.152

>  <excitation_energy_3>
4.572

>  <excitation_energy_4>
4.574

>  <homo_energy>
-4.607

>  <homo_lumo_gap>
4.18

>  <logP>
3.831

>  <lumo_energy>
-0.427

>  <melting_point>
91.96

>  <molecular_refractivity>
72.42

>  <oscillator_strength_1>
0.0609

>  <oscillator_strength_2>
0.005

>  <oscillator_strength_3>
0.0

>  <oscillator_strength_4>
0.0114

>  <open_babel_can_smiles>
CCOc1ccc2c(c1)C(=CC(N2)(C)C)C

>  <mulliken_charges>
35
1   -0.455868
2   -0.529576
3   -0.436068
4   -0.449391
5   -0.022005
6   -0.201331
7   -0.210259
8   -0.285364
9   -0.225414
10   0.183105
11   0.386219
12   0.094859
13   0.304769
14   0.192428
15   -0.678577
16   -0.529684
17   0.144675
18   0.161419
19   0.161035
20   0.151843
21   0.160008
22   0.162745
23   0.140956
24   0.129319
25   0.158904
26   0.141697
27   0.160716
28   0.13288
29   0.134685
30   0.133979
31   0.127098
32   0.112956
33   0.130272
34   0.116639
35   0.30033

>  <lowdin_charges>
35
1   -0.448694
2   -0.440062
3   -0.457613
4   -0.444522
5   -0.124351
6   -0.205033
7   -0.19812
8   -0.184341
9   -0.188318
10   -0.000983
11   0.081879
12   -0.032949
13   0.047214
14   0.076508
15   -0.289003
16   -0.213886
17   0.155536
18   0.159825
19   0.157938
20   0.157264
21   0.157998
22   0.160744
23   0.152199
24   0.142152
25   0.158678
26   0.151226
27   0.158724
28   0.144783
29   0.133881
30   0.135123
31   0.161127
32   0.150642
33   0.165633
34   0.153721
35   0.26508

$$$$

