PCCDB-ID:  15117
public computational chemistry database (PCCDB) project, http://pccdb.org

 13 13  0  0  1  0  0  0  0  0999 V2000
    1.0328    0.1253    0.3323 C   0  0  0  0  0  0  0  0  0  0  0  0
    2.9173    1.1802   -1.0602 C   0  0  0  0  0  0  0  0  0  0  0  0
    2.5193    0.1742    0.0221 C   0  0  2  0  0  0  0  0  0  0  0  0
    3.1423   -1.2397   -3.0262 O   0  0  0  0  0  0  0  0  0  0  0  0
    4.1449    0.6657   -1.6060 O   0  0  0  0  0  0  0  0  0  0  0  0
    2.9497   -1.1150   -0.4901 O   0  0  0  0  0  0  0  0  0  0  0  0
    3.9633   -0.9953   -1.8331 S   0  0  1  0  0  0  0  0  0  0  0  0
    0.6976    1.0893    0.7335 H   0  0  0  0  0  0  0  0  0  0  0  0
    0.8234   -0.6456    1.0791 H   0  0  0  0  0  0  0  0  0  0  0  0
    0.4591   -0.1013   -0.5716 H   0  0  0  0  0  0  0  0  0  0  0  0
    3.1337    2.1732   -0.6616 H   0  0  0  0  0  0  0  0  0  0  0  0
    2.1561    1.2523   -1.8464 H   0  0  0  0  0  0  0  0  0  0  0  0
    3.1017    0.3626    0.9330 H   0  0  0  0  0  0  0  0  0  0  0  0
  1  8  1  0  0  0  0
  1  9  1  0  0  0  0
  2 11  1  0  0  0  0
  2  3  1  0  0  0  0
  3  1  1  0  0  0  0
  3 13  1  1  0  0  0
  5  2  1  0  0  0  0
  6  3  1  0  0  0  0
  7  4  2  6  0  0  0
  7  5  1  0  0  0  0
  7  6  1  0  0  0  0
 10  1  1  0  0  0  0
 12  2  1  0  0  0  0
M  END
>  <HBA>
3

>  <HBD>
0

>  <TPSA>
54.74

>  <cid>
15117

>  <dipole>
3.64

>  <excitation_energy_1>
5.643

>  <excitation_energy_2>
6.072

>  <excitation_energy_3>
6.665

>  <excitation_energy_4>
7.195

>  <homo_energy>
-7.641

>  <homo_lumo_gap>
7.089

>  <logP>
0.866

>  <lumo_energy>
-0.552

>  <melting_point>
4.11

>  <molecular_refractivity>
24.87

>  <oscillator_strength_1>
0.0181

>  <oscillator_strength_2>
0.0117

>  <oscillator_strength_3>
0.0044

>  <oscillator_strength_4>
0.0014

>  <open_babel_can_smiles>
C[C@@H]1CO[S@](=O)O1

>  <mulliken_charges>
13
1   -0.459686
2   -0.095503
3   0.139124
4   -0.514853
5   -0.540358
6   -0.57553
7   1.041772
8   0.152761
9   0.174448
10   0.172747
11   0.176976
12   0.174056
13   0.154046

>  <lowdin_charges>
13
1   -0.447971
2   -0.156559
3   -0.004349
4   -0.564756
5   -0.422864
6   -0.435516
7   1.060936
8   0.159269
9   0.169455
10   0.166185
11   0.169794
12   0.158126
13   0.14825

$$$$

