PCCDB-ID:  12023
public computational chemistry database (PCCDB) project, http://pccdb.org

 13 13  0  0  0  0  0  0  0  0999 V2000
    0.9758   -0.0784   -0.0616 C   0  0  0  0  0  0  0  0  0  0  0  0
    3.3491   -1.1872   -0.0613 C   0  0  0  0  0  0  0  0  0  0  0  0
    4.6498   -0.7315   -0.0622 C   0  0  0  0  0  0  0  0  0  0  0  0
    3.2948    1.0635   -0.0600 C   0  0  0  0  0  0  0  0  0  0  0  0
    2.4805   -0.0532   -0.0599 C   0  0  0  0  0  0  0  0  0  0  0  0
    4.6048    0.6411   -0.0619 N   0  0  0  0  0  0  0  0  0  0  0  0
    0.6071   -1.1094   -0.0519 H   0  0  0  0  0  0  0  0  0  0  0  0
    0.5543    0.4094   -0.9498 H   0  0  0  0  0  0  0  0  0  0  0  0
    0.5521    0.4268    0.8157 H   0  0  0  0  0  0  0  0  0  0  0  0
    3.0397   -2.2246   -0.0650 H   0  0  0  0  0  0  0  0  0  0  0  0
    5.5914   -1.2613   -0.0633 H   0  0  0  0  0  0  0  0  0  0  0  0
    3.0499    2.1166   -0.0596 H   0  0  0  0  0  0  0  0  0  0  0  0
    5.4088    1.2490   -0.0587 H   0  0  0  0  0  0  0  0  0  0  0  0
  1  5  1  0  0  0  0
  1  7  1  0  0  0  0
  1  9  1  0  0  0  0
  2  5  1  0  0  0  0
  3  6  1  0  0  0  0
  3  2  2  0  0  0  0
  4  5  2  0  0  0  0
  4 12  1  0  0  0  0
  6  4  1  0  0  0  0
  6 13  1  0  0  0  0
  8  1  1  0  0  0  0
 10  2  1  0  0  0  0
 11  3  1  0  0  0  0
M  END
>  <HBA>
0

>  <HBD>
1

>  <TPSA>
15.79

>  <cid>
12023

>  <dipole>
1.75

>  <excitation_energy_1>
4.754

>  <excitation_energy_2>
5.419

>  <excitation_energy_3>
5.549

>  <excitation_energy_4>
5.641

>  <homo_energy>
-5.312

>  <homo_lumo_gap>
6.67

>  <logP>
1.323

>  <lumo_energy>
1.358

>  <melting_point>
54.43

>  <molecular_refractivity>
25.76

>  <oscillator_strength_1>
0.0003

>  <oscillator_strength_2>
0.001

>  <oscillator_strength_3>
0.0009

>  <oscillator_strength_4>
0.0201

>  <open_babel_can_smiles>
Cc1c[nH]cc1

>  <mulliken_charges>
13
1   -0.525776
2   -0.210146
3   0.02622
4   -0.016692
5   0.116293
6   -0.555422
7   0.150295
8   0.152701
9   0.152502
10   0.11399
11   0.13731
12   0.132027
13   0.326698

>  <lowdin_charges>
13
1   -0.43909
2   -0.224006
3   -0.161146
4   -0.174259
5   -0.04925
6   -0.176108
7   0.154871
8   0.154877
9   0.154927
10   0.154344
11   0.160154
12   0.156391
13   0.288295

$$$$

