PCCDB-ID:  62121
public computational chemistry database (PCCDB) project, http://pccdb.org

 21 20  0  0  0  0  0  0  0  0999 V2000
    0.7007    0.4002   -0.2320 C   0  0  0  0  0  0  0  0  0  0  0  0
    2.1732    0.3322   -0.5196 C   0  0  0  0  0  0  0  0  0  0  0  0
    2.9147   -0.7783   -0.4914 C   0  0  0  0  0  0  0  0  0  0  0  0
    4.3884   -0.8412   -0.7870 C   0  0  0  0  0  0  0  0  0  0  0  0
    4.7051   -1.7199   -2.0246 C   0  0  0  0  0  0  0  0  0  0  0  0
    6.1758   -1.8460   -2.2786 C   0  0  0  0  0  0  0  0  0  0  0  0
    6.8190   -1.4690   -3.3952 C   0  0  0  0  0  0  0  0  0  0  0  0
    8.2729   -1.6321   -3.5304 C   0  0  0  0  0  0  0  0  0  0  0  0
    8.9150   -1.3157   -4.5147 O   0  0  0  0  0  0  0  0  0  0  0  0
    0.4912    1.0644    0.6173 H   0  0  0  0  0  0  0  0  0  0  0  0
    0.2898   -0.5878    0.0017 H   0  0  0  0  0  0  0  0  0  0  0  0
    0.1464    0.8041   -1.0900 H   0  0  0  0  0  0  0  0  0  0  0  0
    2.6581    1.2788   -0.7669 H   0  0  0  0  0  0  0  0  0  0  0  0
    2.4345   -1.7288   -0.2472 H   0  0  0  0  0  0  0  0  0  0  0  0
    4.9261   -1.2545    0.0799 H   0  0  0  0  0  0  0  0  0  0  0  0
    4.7837    0.1688   -0.9499 H   0  0  0  0  0  0  0  0  0  0  0  0
    4.1990   -1.3096   -2.9058 H   0  0  0  0  0  0  0  0  0  0  0  0
    4.2854   -2.7231   -1.8538 H   0  0  0  0  0  0  0  0  0  0  0  0
    6.7671   -2.2757   -1.4656 H   0  0  0  0  0  0  0  0  0  0  0  0
    6.2944   -1.0324   -4.2431 H   0  0  0  0  0  0  0  0  0  0  0  0
    8.7735   -2.0813   -2.6413 H   0  0  0  0  0  0  0  0  0  0  0  0
  1 11  1  0  0  0  0
  1 10  1  0  0  0  0
  2  3  2  0  0  0  0
  2  1  1  0  0  0  0
  3 14  1  0  0  0  0
  4  3  1  0  0  0  0
  4 15  1  0  0  0  0
  5 18  1  0  0  0  0
  5  4  1  0  0  0  0
  6  5  1  0  0  0  0
  6 19  1  0  0  0  0
  7  6  2  0  0  0  0
  8  7  1  0  0  0  0
  8 21  1  0  0  0  0
  9  8  2  0  0  0  0
 12  1  1  0  0  0  0
 13  2  1  0  0  0  0
 16  4  1  0  0  0  0
 17  5  1  0  0  0  0
 20  7  1  0  0  0  0
M  END
>  <HBA>
1

>  <HBD>
0

>  <TPSA>
17.07

>  <cid>
62121

>  <dipole>
4.19

>  <excitation_energy_1>
3.699

>  <excitation_energy_2>
4.611

>  <excitation_energy_3>
5.898

>  <excitation_energy_4>
6.229

>  <homo_energy>
-6.678

>  <homo_lumo_gap>
5.192

>  <logP>
2.098

>  <lumo_energy>
-1.486

>  <melting_point>
23.41

>  <molecular_refractivity>
39.82

>  <oscillator_strength_1>
0.0005

>  <oscillator_strength_2>
0.0547

>  <oscillator_strength_3>
0.5992

>  <oscillator_strength_4>
0.0312

>  <open_babel_can_smiles>
C/C=C/CC/C=C/C=O

>  <mulliken_charges>
21
1   -0.48778
2   -0.089031
3   -0.088529
4   -0.307679
5   -0.311361
6   -0.078468
7   -0.151022
8   0.23016
9   -0.416328
10   0.157556
11   0.153036
12   0.157159
13   0.121867
14   0.116911
15   0.144451
16   0.150821
17   0.158019
18   0.156026
19   0.14087
20   0.147294
21   0.096029

>  <lowdin_charges>
21
1   -0.4401
2   -0.160052
3   -0.174294
4   -0.266933
5   -0.271309
6   -0.1078
7   -0.205259
8   0.041537
9   -0.232116
10   0.158713
11   0.15462
12   0.158775
13   0.147748
14   0.145633
15   0.149296
16   0.150998
17   0.156573
18   0.157143
19   0.156814
20   0.167632
21   0.11238

$$$$

