PCCDB-ID:  40067
public computational chemistry database (PCCDB) project, http://pccdb.org

 23 24  0  0  0  0  0  0  0  0999 V2000
    1.3149   -0.0403   -1.0987 C   0  0  0  0  0  0  0  0  0  0  0  0
    3.3455    6.1102    0.6610 C   0  0  0  0  0  0  0  0  0  0  0  0
    4.5977    5.9726    1.2718 C   0  0  0  0  0  0  0  0  0  0  0  0
    2.6630    4.9746    0.2367 C   0  0  0  0  0  0  0  0  0  0  0  0
    5.1601    4.7125    1.4725 C   0  0  0  0  0  0  0  0  0  0  0  0
    2.5754    2.4780   -0.0481 C   0  0  0  0  0  0  0  0  0  0  0  0
    4.2017    1.2063    1.2937 C   0  0  0  0  0  0  0  0  0  0  0  0
    2.4820   -0.0262   -0.1229 C   0  0  0  0  0  0  0  0  0  0  0  0
    3.2039    3.6937    0.4320 C   0  0  0  0  0  0  0  0  0  0  0  0
    3.0540    1.2665    0.3117 C   0  0  0  0  0  0  0  0  0  0  0  0
    4.4608    3.5748    1.0670 C   0  0  0  0  0  0  0  0  0  0  0  0
    2.9469   -1.0739    0.3143 O   0  0  0  0  0  0  0  0  0  0  0  0
    5.0563    2.3631    1.2290 O   0  0  0  0  0  0  0  0  0  0  0  0
    0.4435    0.4777   -0.6810 H   0  0  0  0  0  0  0  0  0  0  0  0
    1.0484   -1.0785   -1.3043 H   0  0  0  0  0  0  0  0  0  0  0  0
    1.5766    0.4595   -2.0385 H   0  0  0  0  0  0  0  0  0  0  0  0
    2.9149    7.0954    0.5102 H   0  0  0  0  0  0  0  0  0  0  0  0
    5.1405    6.8551    1.5991 H   0  0  0  0  0  0  0  0  0  0  0  0
    1.6976    5.0665   -0.2558 H   0  0  0  0  0  0  0  0  0  0  0  0
    6.1307    4.5906    1.9423 H   0  0  0  0  0  0  0  0  0  0  0  0
    1.7263    2.5729   -0.7207 H   0  0  0  0  0  0  0  0  0  0  0  0
    4.8429    0.3486    1.0886 H   0  0  0  0  0  0  0  0  0  0  0  0
    3.8256    1.1014    2.3241 H   0  0  0  0  0  0  0  0  0  0  0  0
  1 14  1  0  0  0  0
  1  8  1  0  0  0  0
  2  3  2  0  0  0  0
  3  5  1  0  0  0  0
  3 18  1  0  0  0  0
  4  9  2  0  0  0  0
  4  2  1  0  0  0  0
  5 20  1  0  0  0  0
  6 10  2  0  0  0  0
  6  9  1  0  0  0  0
  7 23  1  0  0  0  0
  8 10  1  0  0  0  0
  8 12  2  0  0  0  0
  9 11  1  0  0  0  0
 10  7  1  0  0  0  0
 11 13  1  0  0  0  0
 11  5  2  0  0  0  0
 13  7  1  0  0  0  0
 15  1  1  0  0  0  0
 16  1  1  0  0  0  0
 17  2  1  0  0  0  0
 19  4  1  0  0  0  0
 21  6  1  0  0  0  0
 22  7  1  0  0  0  0
M  END
>  <HBA>
2

>  <HBD>
0

>  <TPSA>
26.3

>  <cid>
40067

>  <dipole>
3.41

>  <excitation_energy_1>
3.338

>  <excitation_energy_2>
3.5

>  <excitation_energy_3>
4.254

>  <excitation_energy_4>
5.073

>  <homo_energy>
-5.902

>  <homo_lumo_gap>
3.924

>  <logP>
2.051

>  <lumo_energy>
-1.978

>  <melting_point>
79.01

>  <molecular_refractivity>
50.73

>  <oscillator_strength_1>
0.1282

>  <oscillator_strength_2>
0.0162

>  <oscillator_strength_3>
0.2601

>  <oscillator_strength_4>
0.1289

>  <open_babel_can_smiles>
CC(=O)C1=Cc2c(OC1)cccc2

>  <mulliken_charges>
23
1   -0.541201
2   -0.136961
3   -0.129334
4   -0.198544
5   -0.179588
6   -0.177343
7   -0.087682
8   0.422877
9   0.117694
10   0.011813
11   0.327492
12   -0.465641
13   -0.524558
14   0.169044
15   0.18295
16   0.170502
17   0.132859
18   0.138006
19   0.133196
20   0.145394
21   0.144267
22   0.187244
23   0.157513

>  <lowdin_charges>
23
1   -0.475715
2   -0.176052
3   -0.13599
4   -0.143273
5   -0.181813
6   -0.123549
7   -0.116882
8   0.155285
9   -0.051712
10   -0.072603
11   0.113411
12   -0.251648
13   -0.194832
14   0.169616
15   0.175258
16   0.169428
17   0.160349
18   0.163408
19   0.158633
20   0.169908
21   0.166031
22   0.175525
23   0.147217

$$$$

