PCCDB-ID:  7648
public computational chemistry database (PCCDB) project, http://pccdb.org

 30 31  0  0  0  0  0  0  0  0999 V2000
   -0.4989    1.3268   -2.7627 C   0  0  0  0  0  0  0  0  0  0  0  0
   -0.3851   -0.3997   -1.0408 C   0  0  0  0  0  0  0  0  0  0  0  0
    1.0288    2.6609    3.2230 C   0  0  0  0  0  0  0  0  0  0  0  0
    2.6363    1.7720    1.6163 C   0  0  0  0  0  0  0  0  0  0  0  0
    0.4175    0.4557   -3.6237 C   0  0  0  0  0  0  0  0  0  0  0  0
    0.5262   -1.1998   -1.9735 C   0  0  0  0  0  0  0  0  0  0  0  0
    1.4576    1.5533    4.1873 C   0  0  0  0  0  0  0  0  0  0  0  0
    2.9974    0.7003    2.6461 C   0  0  0  0  0  0  0  0  0  0  0  0
   -0.2371    1.0312   -1.3467 N   0  0  0  0  0  0  0  0  0  0  0  0
    1.2474    2.1980    1.8449 N   0  0  0  0  0  0  0  0  0  0  0  0
    0.2404   -0.9248   -3.3373 O   0  0  0  0  0  0  0  0  0  0  0  0
    2.8095    1.1718    3.9726 O   0  0  0  0  0  0  0  0  0  0  0  0
   -0.9847    2.0956   -0.2131 S   0  0  0  0  0  0  0  0  0  0  0  0
    0.5859    3.2040    0.6093 S   0  0  0  0  0  0  0  0  0  0  0  0
   -1.5495    1.1288   -3.0361 H   0  0  0  0  0  0  0  0  0  0  0  0
   -0.2891    2.3847   -2.9462 H   0  0  0  0  0  0  0  0  0  0  0  0
   -0.0993   -0.5654    0.0019 H   0  0  0  0  0  0  0  0  0  0  0  0
   -1.4256   -0.7419   -1.1744 H   0  0  0  0  0  0  0  0  0  0  0  0
    1.6032    3.5768    3.4441 H   0  0  0  0  0  0  0  0  0  0  0  0
   -0.0346    2.8812    3.3562 H   0  0  0  0  0  0  0  0  0  0  0  0
    2.7146    1.3661    0.6037 H   0  0  0  0  0  0  0  0  0  0  0  0
    3.3445    2.6134    1.7089 H   0  0  0  0  0  0  0  0  0  0  0  0
    1.4665    0.7480   -3.4525 H   0  0  0  0  0  0  0  0  0  0  0  0
    0.1827    0.5858   -4.6846 H   0  0  0  0  0  0  0  0  0  0  0  0
    0.3681   -2.2736   -1.8327 H   0  0  0  0  0  0  0  0  0  0  0  0
    1.5800   -0.9635   -1.7513 H   0  0  0  0  0  0  0  0  0  0  0  0
    0.7928    0.6826    4.0633 H   0  0  0  0  0  0  0  0  0  0  0  0
    1.3940    1.9022    5.2224 H   0  0  0  0  0  0  0  0  0  0  0  0
    4.0538    0.4278    2.5595 H   0  0  0  0  0  0  0  0  0  0  0  0
    2.3827   -0.1985    2.4716 H   0  0  0  0  0  0  0  0  0  0  0  0
  1  9  1  0  0  0  0
  2 17  1  0  0  0  0
  3 20  1  0  0  0  0
  3 19  1  0  0  0  0
  3  7  1  0  0  0  0
  4 22  1  0  0  0  0
  4 10  1  0  0  0  0
  4  8  1  0  0  0  0
  5 23  1  0  0  0  0
  5 11  1  0  0  0  0
  5  1  1  0  0  0  0
  6 25  1  0  0  0  0
  6 26  1  0  0  0  0
  6  2  1  0  0  0  0
  7 28  1  0  0  0  0
  8 12  1  0  0  0  0
  9  2  1  0  0  0  0
  9 13  1  0  0  0  0
 10  3  1  0  0  0  0
 11  6  1  0  0  0  0
 12  7  1  0  0  0  0
 13 14  1  0  0  0  0
 14 10  1  0  0  0  0
 15  1  1  0  0  0  0
 16  1  1  0  0  0  0
 18  2  1  0  0  0  0
 21  4  1  0  0  0  0
 24  5  1  0  0  0  0
 27  7  1  0  0  0  0
 29  8  1  0  0  0  0
 30  8  1  0  0  0  0
M  END
>  <HBA>
6

>  <HBD>
0

>  <TPSA>
75.54

>  <cid>
7648

>  <dipole>
0.53

>  <excitation_energy_1>
4.375

>  <excitation_energy_2>
4.694

>  <excitation_energy_3>
4.886

>  <excitation_energy_4>
5.034

>  <homo_energy>
-5.951

>  <homo_lumo_gap>
5.284

>  <logP>
0.738

>  <lumo_energy>
-0.667

>  <melting_point>
22.58

>  <molecular_refractivity>
67.32

>  <oscillator_strength_1>
0.1294

>  <oscillator_strength_2>
0.0148

>  <oscillator_strength_3>
0.0009

>  <oscillator_strength_4>
0.0022

>  <open_babel_can_smiles>
O1CCN(CC1)SSN1CCOCC1

>  <mulliken_charges>
30
1   -0.128103
2   -0.129394
3   -0.12855
4   -0.129791
5   -0.033723
6   -0.032725
7   -0.03377
8   -0.032622
9   -0.514005
10   -0.513422
11   -0.464247
12   -0.46413
13   0.140787
14   0.140389
15   0.13997
16   0.160128
17   0.161078
18   0.139752
19   0.139956
20   0.160219
21   0.161184
22   0.139674
23   0.132294
24   0.150302
25   0.149888
26   0.128198
27   0.13243
28   0.150254
29   0.149759
30   0.128221

>  <lowdin_charges>
30
1   -0.21357
2   -0.214487
3   -0.215108
4   -0.217246
5   -0.134509
6   -0.134187
7   -0.137175
8   -0.136367
9   -0.329424
10   -0.329171
11   -0.272093
12   -0.271774
13   0.142403
14   0.142326
15   0.133662
16   0.160821
17   0.161169
18   0.133572
19   0.135103
20   0.160826
21   0.161595
22   0.135377
23   0.132196
24   0.152834
25   0.152277
26   0.129547
27   0.134292
28   0.15326
29   0.152587
30   0.131266

$$$$

