PCCDB-ID:  7165
public computational chemistry database (PCCDB) project, http://pccdb.org

 21 21  0  0  0  0  0  0  0  0999 V2000
    3.9452    1.5911   -4.1371 C   0  0  0  0  0  0  0  0  0  0  0  0
    3.3407    1.7401   -2.7488 C   0  0  0  0  0  0  0  0  0  0  0  0
    7.4119   -0.4300    1.7045 C   0  0  0  0  0  0  0  0  0  0  0  0
    6.7085   -1.5103    1.1649 C   0  0  0  0  0  0  0  0  0  0  0  0
    7.1632    0.8661    1.2464 C   0  0  0  0  0  0  0  0  0  0  0  0
    5.7585   -1.2949    0.1699 C   0  0  0  0  0  0  0  0  0  0  0  0
    6.2125    1.0862    0.2512 C   0  0  0  0  0  0  0  0  0  0  0  0
    5.5054    0.0041   -0.2917 C   0  0  0  0  0  0  0  0  0  0  0  0
    4.4776    0.1744   -1.3586 C   0  0  0  0  0  0  0  0  0  0  0  0
    3.8481   -0.7419   -1.8528 O   0  0  0  0  0  0  0  0  0  0  0  0
    4.3174    1.4703   -1.7165 O   0  0  0  0  0  0  0  0  0  0  0  0
    3.2061    1.8722   -4.8963 H   0  0  0  0  0  0  0  0  0  0  0  0
    4.2447    0.5548   -4.3165 H   0  0  0  0  0  0  0  0  0  0  0  0
    4.8208    2.2383   -4.2529 H   0  0  0  0  0  0  0  0  0  0  0  0
    2.4914    1.0663   -2.6136 H   0  0  0  0  0  0  0  0  0  0  0  0
    3.0232    2.7684   -2.5581 H   0  0  0  0  0  0  0  0  0  0  0  0
    8.1542   -0.5983    2.4804 H   0  0  0  0  0  0  0  0  0  0  0  0
    6.9014   -2.5187    1.5206 H   0  0  0  0  0  0  0  0  0  0  0  0
    7.7097    1.7061    1.6662 H   0  0  0  0  0  0  0  0  0  0  0  0
    5.1999   -2.1177   -0.2638 H   0  0  0  0  0  0  0  0  0  0  0  0
    6.0140    2.0891   -0.1093 H   0  0  0  0  0  0  0  0  0  0  0  0
  1  2  1  0  0  0  0
  2 15  1  0  0  0  0
  2 16  1  0  0  0  0
  2 11  1  0  0  0  0
  3 17  1  0  0  0  0
  4 18  1  0  0  0  0
  4  3  2  0  0  0  0
  5 19  1  0  0  0  0
  5  3  1  0  0  0  0
  6  4  1  0  0  0  0
  7  5  2  0  0  0  0
  8  6  2  0  0  0  0
  8  7  1  0  0  0  0
  9  8  1  0  0  0  0
 10  9  2  0  0  0  0
 11  9  1  0  0  0  0
 12  1  1  0  0  0  0
 13  1  1  0  0  0  0
 14  1  1  0  0  0  0
 20  6  1  0  0  0  0
 21  7  1  0  0  0  0
M  END
>  <HBA>
2

>  <HBD>
0

>  <TPSA>
26.3

>  <cid>
7165

>  <dipole>
1.82

>  <excitation_energy_1>
4.86

>  <excitation_energy_2>
4.92

>  <excitation_energy_3>
5.392

>  <excitation_energy_4>
6.217

>  <homo_energy>
-6.974

>  <homo_lumo_gap>
5.812

>  <logP>
1.863

>  <lumo_energy>
-1.162

>  <melting_point>
28.6

>  <molecular_refractivity>
42.53

>  <oscillator_strength_1>
0.0003

>  <oscillator_strength_2>
0.0181

>  <oscillator_strength_3>
0.2705

>  <oscillator_strength_4>
0.0113

>  <open_babel_can_smiles>
CCOC(=O)c1ccccc1

>  <mulliken_charges>
21
1   -0.461642
2   -0.042006
3   -0.117205
4   -0.138413
5   -0.136886
6   -0.152205
7   -0.158202
8   0.049206
9   0.594474
10   -0.494266
11   -0.478112
12   0.149801
13   0.17771
14   0.156539
15   0.171686
16   0.151369
17   0.136453
18   0.137447
19   0.135759
20   0.163032
21   0.155462

>  <lowdin_charges>
21
1   -0.455284
2   -0.126496
3   -0.139883
4   -0.156139
5   -0.159054
6   -0.131893
7   -0.138977
8   -0.045928
9   0.200134
10   -0.275858
11   -0.19471
12   0.159431
13   0.165211
14   0.15612
15   0.160129
16   0.150563
17   0.161191
18   0.160756
19   0.161623
20   0.17787
21   0.171194

$$$$

