PCCDB-ID:  12367
public computational chemistry database (PCCDB) project, http://pccdb.org

 30 29  0  0  1  0  0  0  0  0999 V2000
    4.2591   -2.8856    0.1796 C   0  0  0  0  0  0  0  0  0  0  0  0
    4.0138    4.9695    0.2876 C   0  0  0  0  0  0  0  0  0  0  0  0
    4.9075   -2.0598   -0.9381 C   0  0  0  0  0  0  0  0  0  0  0  0
    5.5247   -0.7281   -0.4760 C   0  0  0  0  0  0  0  0  0  0  0  0
    4.5043    0.3031    0.0295 C   0  0  0  0  0  0  0  0  0  0  0  0
    5.1138    1.6347    0.5015 C   0  0  0  0  0  0  0  0  0  0  0  0
    5.7943    2.4601   -0.6036 C   0  0  0  0  0  0  0  0  0  0  0  0
    6.3026    3.8476   -0.1481 C   0  0  0  0  0  0  0  0  0  0  0  0
    5.3622    5.0314   -0.4322 C   0  0  2  0  0  0  0  0  0  0  0  0
    6.0259    6.2679   -0.1480 O   0  0  0  0  0  0  0  0  0  0  0  0
    4.9807   -3.1020    0.9777 H   0  0  0  0  0  0  0  0  0  0  0  0
    3.8906   -3.8442   -0.2033 H   0  0  0  0  0  0  0  0  0  0  0  0
    3.4081   -2.3665    0.6346 H   0  0  0  0  0  0  0  0  0  0  0  0
    3.4221    4.1023   -0.0253 H   0  0  0  0  0  0  0  0  0  0  0  0
    3.4372    5.8747    0.0711 H   0  0  0  0  0  0  0  0  0  0  0  0
    4.1532    4.9045    1.3755 H   0  0  0  0  0  0  0  0  0  0  0  0
    4.1647   -1.8596   -1.7236 H   0  0  0  0  0  0  0  0  0  0  0  0
    5.6937   -2.6628   -1.4120 H   0  0  0  0  0  0  0  0  0  0  0  0
    6.0910   -0.3011   -1.3139 H   0  0  0  0  0  0  0  0  0  0  0  0
    6.2596   -0.9280    0.3189 H   0  0  0  0  0  0  0  0  0  0  0  0
    3.9360   -0.1280    0.8640 H   0  0  0  0  0  0  0  0  0  0  0  0
    3.7704    0.5031   -0.7664 H   0  0  0  0  0  0  0  0  0  0  0  0
    5.8482    1.4353    1.2962 H   0  0  0  0  0  0  0  0  0  0  0  0
    4.3218    2.2330    0.9694 H   0  0  0  0  0  0  0  0  0  0  0  0
    5.0985    2.5830   -1.4477 H   0  0  0  0  0  0  0  0  0  0  0  0
    6.6416    1.8892   -1.0010 H   0  0  0  0  0  0  0  0  0  0  0  0
    7.2486    4.0831   -0.6493 H   0  0  0  0  0  0  0  0  0  0  0  0
    6.5258    3.8228    0.9307 H   0  0  0  0  0  0  0  0  0  0  0  0
    5.1811    5.0715   -1.5139 H   0  0  0  0  0  0  0  0  0  0  0  0
    6.2059    6.2819    0.8062 H   0  0  0  0  0  0  0  0  0  0  0  0
  1 13  1  0  0  0  0
  1 11  1  0  0  0  0
  2 16  1  0  0  0  0
  3  4  1  0  0  0  0
  3  1  1  0  0  0  0
  4  5  1  0  0  0  0
  4 20  1  0  0  0  0
  5  6  1  0  0  0  0
  5 21  1  0  0  0  0
  6 24  1  0  0  0  0
  6 23  1  0  0  0  0
  7  8  1  0  0  0  0
  7  6  1  0  0  0  0
  8 28  1  0  0  0  0
  9 29  1  6  0  0  0
  9  8  1  0  0  0  0
  9 10  1  0  0  0  0
  9  2  1  0  0  0  0
 10 30  1  0  0  0  0
 12  1  1  0  0  0  0
 14  2  1  0  0  0  0
 15  2  1  0  0  0  0
 17  3  1  0  0  0  0
 18  3  1  0  0  0  0
 19  4  1  0  0  0  0
 22  5  1  0  0  0  0
 25  7  1  0  0  0  0
 26  7  1  0  0  0  0
 27  8  1  0  0  0  0
M  END
>  <HBA>
1

>  <HBD>
1

>  <TPSA>
20.23

>  <cid>
12367

>  <dipole>
1.65

>  <excitation_energy_1>
6.511

>  <excitation_energy_2>
7.0

>  <excitation_energy_3>
7.149

>  <excitation_energy_4>
7.267

>  <homo_energy>
-7.026

>  <homo_lumo_gap>
9.176

>  <logP>
2.728

>  <lumo_energy>
2.15

>  <melting_point>
-9.94

>  <molecular_refractivity>
46.54

>  <oscillator_strength_1>
0.0226

>  <oscillator_strength_2>
0.0061

>  <oscillator_strength_3>
0.005

>  <oscillator_strength_4>
0.0074

>  <open_babel_can_smiles>
CCCCCCC[C@H](O)C

>  <mulliken_charges>
30
1   -0.443243
2   -0.45836
3   -0.248821
4   -0.250974
5   -0.256316
6   -0.263504
7   -0.266311
8   -0.274762
9   0.137862
10   -0.622315
11   0.140261
12   0.142103
13   0.145974
14   0.148735
15   0.15766
16   0.129993
17   0.129552
18   0.130493
19   0.132822
20   0.124706
21   0.132179
22   0.125101
23   0.12797
24   0.133593
25   0.129876
26   0.140227
27   0.146342
28   0.115449
29   0.134148
30   0.37956

>  <lowdin_charges>
30
1   -0.448844
2   -0.462648
3   -0.274861
4   -0.27998
5   -0.279723
6   -0.280665
7   -0.282238
8   -0.293453
9   0.003252
10   -0.464063
11   0.146362
12   0.149664
13   0.147647
14   0.15473
15   0.158569
16   0.140261
17   0.139337
18   0.142861
19   0.142301
20   0.137107
21   0.143108
22   0.137164
23   0.138122
24   0.143225
25   0.139238
26   0.146905
27   0.151725
28   0.132278
29   0.138519
30   0.3341

$$$$

