PCCDB-ID:  7011
public computational chemistry database (PCCDB) project, http://pccdb.org

 25 25  0  0  1  0  0  0  0  0999 V2000
    2.7036   -0.7670   -1.3496 C   0  0  0  0  0  0  0  0  0  0  0  0
    2.6953   -0.2557    0.0970 C   0  0  0  0  0  0  0  0  0  0  0  0
    2.0939    2.8281    4.1112 C   0  0  0  0  0  0  0  0  0  0  0  0
    1.4275    3.2291    2.9533 C   0  0  0  0  0  0  0  0  0  0  0  0
    3.1417    1.9082    4.0218 C   0  0  0  0  0  0  0  0  0  0  0  0
    1.8054    2.7085    1.7134 C   0  0  0  0  0  0  0  0  0  0  0  0
    3.5181    1.3907    2.7832 C   0  0  0  0  0  0  0  0  0  0  0  0
    2.8513    1.7819    1.6124 C   0  0  0  0  0  0  0  0  0  0  0  0
    3.2322    1.1831    0.2588 C   0  0  1  0  0  0  0  0  0  0  0  0
    4.7448    1.3200    0.0333 C   0  0  0  0  0  0  0  0  0  0  0  0
    5.6236    0.4138   -0.1011 N   0  0  0  0  0  0  0  0  0  0  0  0
    5.1756    2.6123   -0.0194 O   0  0  0  0  0  0  0  0  0  0  0  0
    2.3271   -1.7945   -1.4000 H   0  0  0  0  0  0  0  0  0  0  0  0
    3.7074   -0.7539   -1.7861 H   0  0  0  0  0  0  0  0  0  0  0  0
    2.0600   -0.1462   -1.9845 H   0  0  0  0  0  0  0  0  0  0  0  0
    3.2630   -0.9320    0.7506 H   0  0  0  0  0  0  0  0  0  0  0  0
    1.6675   -0.2712    0.4775 H   0  0  0  0  0  0  0  0  0  0  0  0
    1.8030    3.2326    5.0768 H   0  0  0  0  0  0  0  0  0  0  0  0
    0.6123    3.9453    3.0121 H   0  0  0  0  0  0  0  0  0  0  0  0
    3.6723    1.5983    4.9180 H   0  0  0  0  0  0  0  0  0  0  0  0
    1.2770    3.0204    0.8146 H   0  0  0  0  0  0  0  0  0  0  0  0
    4.3466    0.6898    2.7186 H   0  0  0  0  0  0  0  0  0  0  0  0
    2.7529    1.7972   -0.5189 H   0  0  0  0  0  0  0  0  0  0  0  0
    5.1901   -0.5086   -0.0705 H   0  0  0  0  0  0  0  0  0  0  0  0
    4.4548    3.1972    0.2646 H   0  0  0  0  0  0  0  0  0  0  0  0
  1  2  1  0  0  0  0
  2  9  1  0  0  0  0
  2 17  1  0  0  0  0
  2 16  1  0  0  0  0
  3 18  1  0  0  0  0
  4 19  1  0  0  0  0
  4  3  2  0  0  0  0
  5  3  1  0  0  0  0
  5 20  1  0  0  0  0
  6  4  1  0  0  0  0
  7  5  2  0  0  0  0
  8  6  2  0  0  0  0
  8  7  1  0  0  0  0
  9 23  1  6  0  0  0
  9  8  1  0  0  0  0
 10  9  1  0  0  0  0
 11 24  1  0  0  0  0
 11 10  2  0  0  0  0
 12 10  1  0  0  0  0
 12 25  1  0  0  0  0
 13  1  1  0  0  0  0
 14  1  1  0  0  0  0
 15  1  1  0  0  0  0
 21  6  1  0  0  0  0
 22  7  1  0  0  0  0
M  END
>  <HBA>
2

>  <HBD>
1

>  <TPSA>
43.09

>  <cid>
7011

>  <dipole>
4.38

>  <excitation_energy_1>
5.273

>  <excitation_energy_2>
5.733

>  <excitation_energy_3>
5.931

>  <excitation_energy_4>
5.993

>  <homo_energy>
-6.806

>  <homo_lumo_gap>
6.395

>  <logP>
2.366

>  <lumo_energy>
-0.411

>  <melting_point>
80.8

>  <molecular_refractivity>
48.74

>  <oscillator_strength_1>
0.0005

>  <oscillator_strength_2>
0.0454

>  <oscillator_strength_3>
0.0076

>  <oscillator_strength_4>
0.0017

>  <open_babel_can_smiles>
CC[C@@H](c1ccccc1)C(=N)O

>  <mulliken_charges>
25
1   -0.453975
2   -0.272458
3   -0.127752
4   -0.125388
5   -0.129247
6   -0.197677
7   -0.168825
8   0.128255
9   -0.253271
10   0.49528
11   -0.598528
12   -0.579373
13   0.151986
14   0.161313
15   0.147185
16   0.143504
17   0.151154
18   0.135553
19   0.135246
20   0.138496
21   0.128636
22   0.147484
23   0.144085
24   0.290239
25   0.408078

>  <lowdin_charges>
25
1   -0.451417
2   -0.275831
3   -0.154562
4   -0.152071
5   -0.149608
6   -0.177001
7   -0.15896
8   -0.018311
9   -0.163526
10   0.12819
11   -0.399027
12   -0.365837
13   0.154668
14   0.155308
15   0.151345
16   0.146437
17   0.154394
18   0.160643
19   0.160601
20   0.162494
21   0.156075
22   0.165899
23   0.155751
24   0.257325
25   0.357021

$$$$

