PCCDB-ID:  31663
public computational chemistry database (PCCDB) project, http://pccdb.org

 21 22  0  0  0  0  0  0  0  0999 V2000
    2.3813   -1.1086   -0.5310 C   0  0  0  0  0  0  0  0  0  0  0  0
    3.6023    1.2264    1.9951 C   0  0  0  0  0  0  0  0  0  0  0  0
    4.2450    1.3001    3.2199 C   0  0  0  0  0  0  0  0  0  0  0  0
    3.6978   -1.2197    1.9676 C   0  0  0  0  0  0  0  0  0  0  0  0
    4.8823   -2.1274    4.1265 C   0  0  0  0  0  0  0  0  0  0  0  0
    6.0737   -1.8618    6.3986 C   0  0  0  0  0  0  0  0  0  0  0  0
    4.3544   -1.1594    3.2139 C   0  0  0  0  0  0  0  0  0  0  0  0
    3.3282   -0.0186    1.3705 C   0  0  0  0  0  0  0  0  0  0  0  0
    5.4050   -1.4240    5.1785 C   0  0  0  0  0  0  0  0  0  0  0  0
    4.6109    0.0908    3.8091 C   0  0  0  0  0  0  0  0  0  0  0  0
    6.2717   -3.0332    6.6717 O   0  0  0  0  0  0  0  0  0  0  0  0
    2.6873    0.0864    0.1693 O   0  0  0  0  0  0  0  0  0  0  0  0
    5.2499   -0.0638    5.0045 O   0  0  0  0  0  0  0  0  0  0  0  0
    1.8908   -0.7974   -1.4549 H   0  0  0  0  0  0  0  0  0  0  0  0
    1.6997   -1.7491    0.0446 H   0  0  0  0  0  0  0  0  0  0  0  0
    3.2893   -1.6761   -0.7748 H   0  0  0  0  0  0  0  0  0  0  0  0
    3.2889    2.1267    1.4769 H   0  0  0  0  0  0  0  0  0  0  0  0
    4.4554    2.2505    3.6983 H   0  0  0  0  0  0  0  0  0  0  0  0
    3.4943   -2.1770    1.5032 H   0  0  0  0  0  0  0  0  0  0  0  0
    4.8861   -3.2046    4.0379 H   0  0  0  0  0  0  0  0  0  0  0  0
    6.3934   -1.0374    7.0690 H   0  0  0  0  0  0  0  0  0  0  0  0
  1 15  1  0  0  0  0
  1 12  1  0  0  0  0
  2  3  2  0  0  0  0
  3 18  1  0  0  0  0
  3 10  1  0  0  0  0
  4  7  1  0  0  0  0
  5  9  2  0  0  0  0
  6 11  2  0  0  0  0
  6 21  1  0  0  0  0
  7 10  2  0  0  0  0
  7  5  1  0  0  0  0
  8  4  2  0  0  0  0
  8  2  1  0  0  0  0
  9  6  1  0  0  0  0
 10 13  1  0  0  0  0
 12  8  1  0  0  0  0
 13  9  1  0  0  0  0
 14  1  1  0  0  0  0
 16  1  1  0  0  0  0
 17  2  1  0  0  0  0
 19  4  1  0  0  0  0
 20  5  1  0  0  0  0
M  END
>  <HBA>
3

>  <HBD>
0

>  <TPSA>
39.44

>  <cid>
31663

>  <dipole>
3.69

>  <excitation_energy_1>
3.597

>  <excitation_energy_2>
3.621

>  <excitation_energy_3>
4.174

>  <excitation_energy_4>
5.223

>  <homo_energy>
-6.109

>  <homo_lumo_gap>
4.125

>  <logP>
2.254

>  <lumo_energy>
-1.984

>  <melting_point>
87.76

>  <molecular_refractivity>
48.09

>  <oscillator_strength_1>
0.0001

>  <oscillator_strength_2>
0.0821

>  <oscillator_strength_3>
0.4473

>  <oscillator_strength_4>
0.0044

>  <open_babel_can_smiles>
COc1ccc2c(c1)cc(o2)C=O

>  <mulliken_charges>
21
1   -0.215175
2   -0.180702
3   -0.183385
4   -0.273161
5   -0.219362
6   0.173714
7   0.115273
8   0.375756
9   0.294133
10   0.326989
11   -0.406186
12   -0.508206
13   -0.521059
14   0.173638
15   0.153941
16   0.153929
17   0.150504
18   0.154542
19   0.142264
20   0.172061
21   0.120493

>  <lowdin_charges>
21
1   -0.280142
2   -0.16597
3   -0.164541
4   -0.216843
5   -0.161828
6   0.034562
7   -0.021683
8   0.100379
9   0.038708
10   0.081637
11   -0.228567
12   -0.198117
13   -0.111616
14   0.165151
15   0.147778
16   0.146996
17   0.174146
18   0.175158
19   0.168718
20   0.184566
21   0.131508

$$$$

