PCCDB-ID:  31519
public computational chemistry database (PCCDB) project, http://pccdb.org

 23 24  0  0  0  0  0  0  0  0999 V2000
    3.6340    1.5423   -2.9874 C   0  0  0  0  0  0  0  0  0  0  0  0
    5.3907   -4.1525   -1.7556 C   0  0  0  0  0  0  0  0  0  0  0  0
    6.4743   -4.0781   -2.6481 C   0  0  0  0  0  0  0  0  0  0  0  0
    4.9188   -3.0230   -1.0883 C   0  0  0  0  0  0  0  0  0  0  0  0
    8.1917   -1.0638   -3.5656 C   0  0  0  0  0  0  0  0  0  0  0  0
    7.0442   -2.8317   -2.8251 C   0  0  0  0  0  0  0  0  0  0  0  0
    5.5201   -1.7726   -1.2860 C   0  0  0  0  0  0  0  0  0  0  0  0
    6.5921   -1.6975   -2.1570 C   0  0  0  0  0  0  0  0  0  0  0  0
    4.5208    0.3576   -1.1799 C   0  0  0  0  0  0  0  0  0  0  0  0
    4.2533    0.3584   -2.4162 N   0  0  0  0  0  0  0  0  0  0  0  0
    4.3034    1.3160   -0.2470 O   0  0  0  0  0  0  0  0  0  0  0  0
    8.1261   -2.4925   -3.6071 O   0  0  0  0  0  0  0  0  0  0  0  0
    7.3700   -0.6158   -2.4809 O   0  0  0  0  0  0  0  0  0  0  0  0
    5.0980   -0.6854   -0.5332 O   0  0  0  0  0  0  0  0  0  0  0  0
    3.4318    1.3636   -4.0468 H   0  0  0  0  0  0  0  0  0  0  0  0
    4.2837    2.4311   -2.9273 H   0  0  0  0  0  0  0  0  0  0  0  0
    2.6683    1.7937   -2.5159 H   0  0  0  0  0  0  0  0  0  0  0  0
    4.9079   -5.1099   -1.5859 H   0  0  0  0  0  0  0  0  0  0  0  0
    6.8492   -4.9497   -3.1727 H   0  0  0  0  0  0  0  0  0  0  0  0
    4.0794   -3.0859   -0.4040 H   0  0  0  0  0  0  0  0  0  0  0  0
    7.8074   -0.6502   -4.5091 H   0  0  0  0  0  0  0  0  0  0  0  0
    9.2242   -0.7516   -3.3891 H   0  0  0  0  0  0  0  0  0  0  0  0
    3.8742    2.0697   -0.6817 H   0  0  0  0  0  0  0  0  0  0  0  0
  1 16  1  0  0  0  0
  1 17  1  0  0  0  0
  1 10  1  0  0  0  0
  2 18  1  0  0  0  0
  2  4  2  0  0  0  0
  3  2  1  0  0  0  0
  4 20  1  0  0  0  0
  5 22  1  0  0  0  0
  5 13  1  0  0  0  0
  6  3  2  0  0  0  0
  6  8  1  0  0  0  0
  7  4  1  0  0  0  0
  7 14  1  0  0  0  0
  8  7  2  0  0  0  0
  9 14  1  0  0  0  0
  9 11  1  0  0  0  0
 10  9  2  0  0  0  0
 12  5  1  0  0  0  0
 12  6  1  0  0  0  0
 13  8  1  0  0  0  0
 15  1  1  0  0  0  0
 19  3  1  0  0  0  0
 21  5  1  0  0  0  0
 23 11  1  0  0  0  0
M  END
>  <HBA>
5

>  <HBD>
1

>  <TPSA>
56.79

>  <cid>
31519

>  <dipole>
2.27

>  <excitation_energy_1>
4.857

>  <excitation_energy_2>
5.071

>  <excitation_energy_3>
5.356

>  <excitation_energy_4>
5.483

>  <homo_energy>
-5.606

>  <homo_lumo_gap>
5.736

>  <logP>
1.524

>  <lumo_energy>
0.131

>  <melting_point>
102.12

>  <molecular_refractivity>
47.19

>  <oscillator_strength_1>
0.046

>  <oscillator_strength_2>
0.0034

>  <oscillator_strength_3>
0.0264

>  <oscillator_strength_4>
0.0027

>  <open_babel_can_smiles>
C/N=C(/Oc1cccc2c1OCO2)\O

>  <mulliken_charges>
23
1   -0.359221
2   -0.155367
3   -0.177076
4   -0.170376
5   0.191048
6   0.329282
7   0.311841
8   0.330844
9   0.671326
10   -0.424462
11   -0.587293
12   -0.532183
13   -0.530401
14   -0.524352
15   0.174629
16   0.146243
17   0.138689
18   0.134832
19   0.143823
20   0.141119
21   0.155348
22   0.165695
23   0.426011

>  <lowdin_charges>
23
1   -0.364188
2   -0.157229
3   -0.189271
4   -0.177134
5   0.020613
6   0.077673
7   0.084764
8   0.06182
9   0.19017
10   -0.258735
11   -0.354332
12   -0.208583
13   -0.1968
14   -0.137186
15   0.162481
16   0.140188
17   0.135164
18   0.162415
19   0.171474
20   0.170455
21   0.141881
22   0.154613
23   0.369747

$$$$

