PCCDB-ID:  53352
public computational chemistry database (PCCDB) project, http://pccdb.org

 21 20  0  0  0  0  0  0  0  0999 V2000
    1.1895   -0.1944   -0.0446 C   0  0  0  0  0  0  0  0  0  0  0  0
    0.4434   -1.3037   -0.8159 C   0  0  0  0  0  0  0  0  0  0  0  0
   -3.7570   -3.3241   -2.3177 C   0  0  0  0  0  0  0  0  0  0  0  0
    1.0377   -0.3042    1.4107 C   0  0  0  0  0  0  0  0  0  0  0  0
   -5.2215   -3.3148   -2.3375 C   0  0  0  0  0  0  0  0  0  0  0  0
   -1.0757   -1.2465   -0.6403 C   0  0  0  0  0  0  0  0  0  0  0  0
   -3.1751   -2.2701   -1.3556 C   0  0  0  0  0  0  0  0  0  0  0  0
    0.9088   -0.4105    2.5596 N   0  0  0  0  0  0  0  0  0  0  0  0
   -6.3819   -3.2903   -2.3435 N   0  0  0  0  0  0  0  0  0  0  0  0
   -1.7182   -2.3005   -1.4264 N   0  0  0  0  0  0  0  0  0  0  0  0
    0.8296    0.7944   -0.3567 H   0  0  0  0  0  0  0  0  0  0  0  0
    2.2595   -0.2289   -0.2813 H   0  0  0  0  0  0  0  0  0  0  0  0
    0.8208   -2.2808   -0.4873 H   0  0  0  0  0  0  0  0  0  0  0  0
    0.6838   -1.2075   -1.8802 H   0  0  0  0  0  0  0  0  0  0  0  0
   -3.3770   -3.1383   -3.3285 H   0  0  0  0  0  0  0  0  0  0  0  0
   -3.4202   -4.3283   -2.0285 H   0  0  0  0  0  0  0  0  0  0  0  0
   -1.4478   -0.2816   -1.0106 H   0  0  0  0  0  0  0  0  0  0  0  0
   -1.3311   -1.2915    0.4343 H   0  0  0  0  0  0  0  0  0  0  0  0
   -3.5772   -2.4355   -0.3402 H   0  0  0  0  0  0  0  0  0  0  0  0
   -3.5125   -1.2762   -1.6708 H   0  0  0  0  0  0  0  0  0  0  0  0
   -1.3898   -3.2053   -1.0870 H   0  0  0  0  0  0  0  0  0  0  0  0
  1  4  1  0  0  0  0
  2  6  1  0  0  0  0
  2 13  1  0  0  0  0
  2  1  1  0  0  0  0
  3 16  1  0  0  0  0
  3  7  1  0  0  0  0
  4  8  3  0  0  0  0
  5  3  1  0  0  0  0
  6 18  1  0  0  0  0
  7 19  1  0  0  0  0
  9  5  3  0  0  0  0
 10  7  1  0  0  0  0
 10 21  1  0  0  0  0
 10  6  1  0  0  0  0
 11  1  1  0  0  0  0
 12  1  1  0  0  0  0
 14  2  1  0  0  0  0
 15  3  1  0  0  0  0
 17  6  1  0  0  0  0
 20  7  1  0  0  0  0
M  END
>  <HBA>
3

>  <HBD>
1

>  <TPSA>
59.61

>  <cid>
53352

>  <dipole>
4.84

>  <excitation_energy_1>
5.654

>  <excitation_energy_2>
6.001

>  <excitation_energy_3>
6.297

>  <excitation_energy_4>
6.529

>  <homo_energy>
-6.778

>  <homo_lumo_gap>
7.429

>  <logP>
1.184

>  <lumo_energy>
0.65

>  <melting_point>
67.75

>  <molecular_refractivity>
38.06

>  <oscillator_strength_1>
0.0009

>  <oscillator_strength_2>
0.0116

>  <oscillator_strength_3>
0.015

>  <oscillator_strength_4>
0.0381

>  <open_babel_can_smiles>
N#CCCNCCCC#N

>  <mulliken_charges>
21
1   -0.351612
2   -0.272009
3   -0.346477
4   0.352605
5   0.34806
6   -0.121188
7   -0.119023
8   -0.468005
9   -0.468883
10   -0.565301
11   0.195302
12   0.198902
13   0.154131
14   0.166931
15   0.20745
16   0.188291
17   0.145751
18   0.147042
19   0.14533
20   0.166069
21   0.296636

>  <lowdin_charges>
21
1   -0.270389
2   -0.267868
3   -0.273993
4   -0.022679
5   -0.019616
6   -0.20194
7   -0.191342
8   -0.126785
9   -0.124237
10   -0.362172
11   0.180532
12   0.18419
13   0.152023
14   0.159343
15   0.187315
16   0.177084
17   0.145218
18   0.132664
19   0.133811
20   0.155625
21   0.253216

$$$$

