PCCDB-ID:  12416
public computational chemistry database (PCCDB) project, http://pccdb.org

 15 14  0  0  0  0  0  0  0  0999 V2000
    0.8890    0.0578    0.0390 C   0  0  0  0  0  0  0  0  0  0  0  0
    2.9602   -1.0735    0.9693 C   0  0  0  0  0  0  0  0  0  0  0  0
    2.9604   -0.1822   -1.4057 C   0  0  0  0  0  0  0  0  0  0  0  0
    2.9271    1.3415    0.5206 C   0  0  0  0  0  0  0  0  0  0  0  0
    2.4344    0.0366    0.0311 C   0  0  0  0  0  0  0  0  0  0  0  0
    3.3143    2.3667    0.9049 N   0  0  0  0  0  0  0  0  0  0  0  0
    0.5088   -0.9045   -0.3217 H   0  0  0  0  0  0  0  0  0  0  0  0
    0.5015    0.8477   -0.6121 H   0  0  0  0  0  0  0  0  0  0  0  0
    0.5014    0.2248    1.0490 H   0  0  0  0  0  0  0  0  0  0  0  0
    2.6024   -2.0478    0.6181 H   0  0  0  0  0  0  0  0  0  0  0  0
    2.6060   -0.9250    1.9943 H   0  0  0  0  0  0  0  0  0  0  0  0
    4.0545   -1.0928    0.9837 H   0  0  0  0  0  0  0  0  0  0  0  0
    2.6030   -1.1471   -1.7825 H   0  0  0  0  0  0  0  0  0  0  0  0
    4.0547   -0.1869   -1.4293 H   0  0  0  0  0  0  0  0  0  0  0  0
    2.6060    0.6038   -2.0799 H   0  0  0  0  0  0  0  0  0  0  0  0
  1  9  1  0  0  0  0
  2 12  1  0  0  0  0
  2 11  1  0  0  0  0
  3  5  1  0  0  0  0
  4  6  3  0  0  0  0
  5  1  1  0  0  0  0
  5  4  1  0  0  0  0
  5  2  1  0  0  0  0
  7  1  1  0  0  0  0
  8  1  1  0  0  0  0
 10  2  1  0  0  0  0
 13  3  1  0  0  0  0
 14  3  1  0  0  0  0
 15  3  1  0  0  0  0
M  END
>  <HBA>
1

>  <HBD>
0

>  <TPSA>
23.79

>  <cid>
12416

>  <dipole>
3.95

>  <excitation_energy_1>
7.64

>  <excitation_energy_2>
7.886

>  <excitation_energy_3>
7.886

>  <excitation_energy_4>
7.954

>  <homo_energy>
-8.583

>  <homo_lumo_gap>
9.744

>  <logP>
1.556

>  <lumo_energy>
1.162

>  <melting_point>
26.69

>  <molecular_refractivity>
25.64

>  <oscillator_strength_1>
0.0

>  <oscillator_strength_2>
0.0113

>  <oscillator_strength_3>
0.0107

>  <oscillator_strength_4>
0.0458

>  <open_babel_can_smiles>
N#CC(C)(C)C

>  <mulliken_charges>
15
1   -0.437472
2   -0.437534
3   -0.437648
4   0.344213
5   0.001699
6   -0.477128
7   0.153134
8   0.164067
9   0.164047
10   0.153138
11   0.164058
12   0.164086
13   0.153142
14   0.16411
15   0.16409

>  <lowdin_charges>
15
1   -0.43205
2   -0.428564
3   -0.430588
4   -0.016226
5   0.014426
6   -0.137301
7   0.155518
8   0.16228
9   0.160635
10   0.155299
11   0.160343
12   0.159262
13   0.15545
14   0.159273
15   0.162241

$$$$

