PCCDB-ID:  26253
public computational chemistry database (PCCDB) project, http://pccdb.org

 34 33  0  0  0  0  0  0  0  0999 V2000
    4.0639    3.5523    2.9092 C   0  0  0  0  0  0  0  0  0  0  0  0
    6.6793    0.1889    3.8652 C   0  0  0  0  0  0  0  0  0  0  0  0
    3.6711   -1.3006   -0.0411 C   0  0  0  0  0  0  0  0  0  0  0  0
    2.5054    1.4335   -1.8956 C   0  0  0  0  0  0  0  0  0  0  0  0
    4.3016    2.0979    2.4937 C   0  0  0  0  0  0  0  0  0  0  0  0
    6.5889    1.6378    3.3799 C   0  0  0  0  0  0  0  0  0  0  0  0
    4.9505   -0.5421   -0.4037 C   0  0  0  0  0  0  0  0  0  0  0  0
    3.9734    1.0382   -2.0793 C   0  0  0  0  0  0  0  0  0  0  0  0
    6.2116    1.6608    0.9591 C   0  0  0  0  0  0  0  0  0  0  0  0
    5.2795    1.9167   -0.2057 C   0  0  0  0  0  0  0  0  0  0  0  0
    5.7143    1.7897    2.2045 N   0  0  0  0  0  0  0  0  0  0  0  0
    4.7162    0.8532   -0.8176 N   0  0  0  0  0  0  0  0  0  0  0  0
    7.8004    1.2801    0.5745 S   0  0  0  0  0  0  0  0  0  0  0  0
    5.0888    3.5162   -0.6744 S   0  0  0  0  0  0  0  0  0  0  0  0
    3.0004    3.6974    3.1307 H   0  0  0  0  0  0  0  0  0  0  0  0
    4.3498    4.2279    2.0993 H   0  0  0  0  0  0  0  0  0  0  0  0
    4.6307    3.8187    3.8075 H   0  0  0  0  0  0  0  0  0  0  0  0
    7.3071    0.1371    4.7617 H   0  0  0  0  0  0  0  0  0  0  0  0
    7.1296   -0.4449    3.0964 H   0  0  0  0  0  0  0  0  0  0  0  0
    5.6922   -0.2127    4.1224 H   0  0  0  0  0  0  0  0  0  0  0  0
    3.9334   -2.3140    0.2826 H   0  0  0  0  0  0  0  0  0  0  0  0
    2.9880   -1.3914   -0.8911 H   0  0  0  0  0  0  0  0  0  0  0  0
    3.1361   -0.8086    0.7782 H   0  0  0  0  0  0  0  0  0  0  0  0
    2.0358    1.5504   -2.8790 H   0  0  0  0  0  0  0  0  0  0  0  0
    2.4300    2.3876   -1.3685 H   0  0  0  0  0  0  0  0  0  0  0  0
    1.9447    0.6757   -1.3396 H   0  0  0  0  0  0  0  0  0  0  0  0
    3.7075    1.8633    1.6095 H   0  0  0  0  0  0  0  0  0  0  0  0
    3.9793    1.4141    3.2891 H   0  0  0  0  0  0  0  0  0  0  0  0
    7.5786    2.0114    3.1107 H   0  0  0  0  0  0  0  0  0  0  0  0
    6.1848    2.2801    4.1678 H   0  0  0  0  0  0  0  0  0  0  0  0
    5.4705   -1.0507   -1.2260 H   0  0  0  0  0  0  0  0  0  0  0  0
    5.6363   -0.5414    0.4414 H   0  0  0  0  0  0  0  0  0  0  0  0
    4.4931    1.8090   -2.6548 H   0  0  0  0  0  0  0  0  0  0  0  0
    4.0502    0.0939   -2.6284 H   0  0  0  0  0  0  0  0  0  0  0  0
  1 15  1  0  0  0  0
  1 17  1  0  0  0  0
  2 20  1  0  0  0  0
  2 18  1  0  0  0  0
  3 21  1  0  0  0  0
  3 23  1  0  0  0  0
  4 25  1  0  0  0  0
  4 26  1  0  0  0  0
  5  1  1  0  0  0  0
  5 28  1  0  0  0  0
  6  2  1  0  0  0  0
  6 30  1  0  0  0  0
  7  3  1  0  0  0  0
  7 32  1  0  0  0  0
  8  4  1  0  0  0  0
  8 12  1  0  0  0  0
  9 11  1  0  0  0  0
 10  9  1  0  0  0  0
 11  5  1  0  0  0  0
 11  6  1  0  0  0  0
 12  7  1  0  0  0  0
 12 10  1  0  0  0  0
 13  9  2  0  0  0  0
 14 10  2  0  0  0  0
 16  1  1  0  0  0  0
 19  2  1  0  0  0  0
 22  3  1  0  0  0  0
 24  4  1  0  0  0  0
 27  5  1  0  0  0  0
 29  6  1  0  0  0  0
 31  7  1  0  0  0  0
 33  8  1  0  0  0  0
 34  8  1  0  0  0  0
M  END
>  <HBA>
4

>  <HBD>
0

>  <TPSA>
70.66

>  <cid>
26253

>  <dipole>
6.31

>  <excitation_energy_1>
3.057

>  <excitation_energy_2>
3.336

>  <excitation_energy_3>
3.836

>  <excitation_energy_4>
3.931

>  <homo_energy>
-5.393

>  <homo_lumo_gap>
4.261

>  <logP>
2.325

>  <lumo_energy>
-1.132

>  <melting_point>
36.77

>  <molecular_refractivity>
71.56

>  <oscillator_strength_1>
0.0002

>  <oscillator_strength_2>
0.002

>  <oscillator_strength_3>
0.0036

>  <oscillator_strength_4>
0.0772

>  <open_babel_can_smiles>
CCN(C(=S)C(=S)N(CC)CC)CC

>  <mulliken_charges>
34
1   -0.452663
2   -0.448059
3   -0.45268
4   -0.448647
5   -0.162226
6   -0.157456
7   -0.15311
8   -0.153382
9   0.09128
10   0.092362
11   -0.319651
12   -0.324859
13   -0.229672
14   -0.228034
15   0.150767
16   0.203013
17   0.152563
18   0.155907
19   0.180949
20   0.142257
21   0.159978
22   0.16115
23   0.155471
24   0.152738
25   0.186125
26   0.145012
27   0.181782
28   0.155136
29   0.203549
30   0.151867
31   0.169441
32   0.190839
33   0.200068
34   0.148184

>  <lowdin_charges>
34
1   -0.453908
2   -0.451644
3   -0.453356
4   -0.453917
5   -0.197607
6   -0.198606
7   -0.197211
8   -0.195544
9   -0.058143
10   -0.057262
11   -0.045069
12   -0.049205
13   -0.210437
14   -0.205144
15   0.156486
16   0.178914
17   0.152268
18   0.16012
19   0.168347
20   0.146258
21   0.1612
22   0.156194
23   0.154744
24   0.158351
25   0.170151
26   0.149491
27   0.167157
28   0.150959
29   0.180257
30   0.152988
31   0.158232
32   0.175076
33   0.179883
34   0.149978

$$$$

