PCCDB-ID:  19878
public computational chemistry database (PCCDB) project, http://pccdb.org

 23 23  0  0  0  0  0  0  0  0999 V2000
    1.0886    0.3569    0.0597 C   0  0  0  0  0  0  0  0  0  0  0  0
    3.3877    1.0487    0.8434 C   0  0  0  0  0  0  0  0  0  0  0  0
    2.8106   -1.3759    0.6061 C   0  0  0  0  0  0  0  0  0  0  0  0
    2.9586    1.2935   -2.1921 C   0  0  0  0  0  0  0  0  0  0  0  0
    3.6376   -0.9824   -2.1493 C   0  0  0  0  0  0  0  0  0  0  0  0
    3.3949    1.3480   -3.5131 C   0  0  0  0  0  0  0  0  0  0  0  0
    4.0445   -0.8271   -3.4767 C   0  0  0  0  0  0  0  0  0  0  0  0
    3.0731    0.0989   -1.4627 C   0  0  0  0  0  0  0  0  0  0  0  0
    2.5979    0.0225   -0.0034 C   0  0  0  0  0  0  0  0  0  0  0  0
    3.9349    0.3111   -4.1684 N   0  0  0  0  0  0  0  0  0  0  0  0
    0.7363    0.3213    1.0975 H   0  0  0  0  0  0  0  0  0  0  0  0
    0.5021   -0.3620   -0.5235 H   0  0  0  0  0  0  0  0  0  0  0  0
    0.8757    1.3574   -0.3307 H   0  0  0  0  0  0  0  0  0  0  0  0
    3.0468    1.0222    1.8853 H   0  0  0  0  0  0  0  0  0  0  0  0
    3.2543    2.0707    0.4743 H   0  0  0  0  0  0  0  0  0  0  0  0
    4.4606    0.8257    0.8312 H   0  0  0  0  0  0  0  0  0  0  0  0
    2.4631   -1.3814    1.6451 H   0  0  0  0  0  0  0  0  0  0  0  0
    3.8682   -1.6625    0.6104 H   0  0  0  0  0  0  0  0  0  0  0  0
    2.2483   -2.1460    0.0658 H   0  0  0  0  0  0  0  0  0  0  0  0
    2.5315    2.1847   -1.7413 H   0  0  0  0  0  0  0  0  0  0  0  0
    3.7691   -1.9470   -1.6723 H   0  0  0  0  0  0  0  0  0  0  0  0
    3.3071    2.2758   -4.0771 H   0  0  0  0  0  0  0  0  0  0  0  0
    4.4837   -1.6699   -4.0092 H   0  0  0  0  0  0  0  0  0  0  0  0
  1 11  1  0  0  0  0
  2 14  1  0  0  0  0
  3 18  1  0  0  0  0
  3 17  1  0  0  0  0
  4 20  1  0  0  0  0
  4  8  2  0  0  0  0
  5 21  1  0  0  0  0
  5  8  1  0  0  0  0
  6  4  1  0  0  0  0
  7  5  2  0  0  0  0
  8  9  1  0  0  0  0
  9  1  1  0  0  0  0
  9  3  1  0  0  0  0
  9  2  1  0  0  0  0
 10  6  2  0  0  0  0
 10  7  1  0  0  0  0
 12  1  1  0  0  0  0
 13  1  1  0  0  0  0
 15  2  1  0  0  0  0
 16  2  1  0  0  0  0
 19  3  1  0  0  0  0
 22  6  1  0  0  0  0
 23  7  1  0  0  0  0
M  END
>  <HBA>
1

>  <HBD>
0

>  <TPSA>
12.89

>  <cid>
19878

>  <dipole>
2.76

>  <excitation_energy_1>
4.923

>  <excitation_energy_2>
5.191

>  <excitation_energy_3>
5.463

>  <excitation_energy_4>
6.137

>  <homo_energy>
-6.759

>  <homo_lumo_gap>
6.286

>  <logP>
2.379

>  <lumo_energy>
-0.473

>  <melting_point>
27.61

>  <molecular_refractivity>
43.51

>  <oscillator_strength_1>
0.0048

>  <oscillator_strength_2>
0.0002

>  <oscillator_strength_3>
0.0251

>  <oscillator_strength_4>
0.0053

>  <open_babel_can_smiles>
CC(c1ccncc1)(C)C

>  <mulliken_charges>
23
1   -0.440684
2   -0.440705
3   -0.458394
4   -0.190917
5   -0.198823
6   0.034273
7   0.034759
8   0.195378
9   0.016523
10   -0.409359
11   0.143053
12   0.150686
13   0.145733
14   0.143023
15   0.145854
16   0.150657
17   0.144951
18   0.148068
19   0.148049
20   0.130171
21   0.132259
22   0.137673
23   0.137773

>  <lowdin_charges>
23
1   -0.438377
2   -0.434567
3   -0.443227
4   -0.186375
5   -0.19315
6   -0.09122
7   -0.090548
8   0.026241
9   0.015383
10   -0.154363
11   0.148578
12   0.154674
13   0.149532
14   0.148339
15   0.149256
16   0.151618
17   0.151553
18   0.149588
19   0.152129
20   0.16
21   0.164048
22   0.155101
23   0.155786

$$$$

