PCCDB-ID:  31028
public computational chemistry database (PCCDB) project, http://pccdb.org

 25 25  0  0  1  0  0  0  0  0999 V2000
    1.1104    0.3551    0.9409 C   0  0  0  0  0  0  0  0  0  0  0  0
    3.1117   -2.1470   -4.5207 C   0  0  0  0  0  0  0  0  0  0  0  0
    4.3341   -0.0928   -4.7140 C   0  0  0  0  0  0  0  0  0  0  0  0
    2.7632   -0.3963   -2.8853 C   0  0  0  0  0  0  0  0  0  0  0  0
    4.1320   -0.5897   -0.7269 C   0  0  0  0  0  0  0  0  0  0  0  0
    2.5018    0.4912    0.3649 C   0  0  1  0  0  0  0  0  0  0  0  0
    3.4554    0.3523   -1.7403 C   0  0  2  0  0  0  0  0  0  0  0  0
    3.7156   -1.0380   -3.7911 N   0  0  0  0  0  0  0  0  0  0  0  0
    3.1248   -0.7713    0.2648 O   0  0  0  0  0  0  0  0  0  0  0  0
    2.4505    1.0177   -0.9610 O   0  0  0  0  0  0  0  0  0  0  0  0
    1.1614   -0.0512    1.9558 H   0  0  0  0  0  0  0  0  0  0  0  0
    0.5168   -0.3157    0.3134 H   0  0  0  0  0  0  0  0  0  0  0  0
    0.6239    1.3344    0.9775 H   0  0  0  0  0  0  0  0  0  0  0  0
    3.8757   -2.6428   -5.1301 H   0  0  0  0  0  0  0  0  0  0  0  0
    2.2909   -1.8329   -5.1951 H   0  0  0  0  0  0  0  0  0  0  0  0
    2.7106   -2.8818   -3.8150 H   0  0  0  0  0  0  0  0  0  0  0  0
    5.0882   -0.6101   -5.3170 H   0  0  0  0  0  0  0  0  0  0  0  0
    4.8399    0.7075   -4.1659 H   0  0  0  0  0  0  0  0  0  0  0  0
    3.6045    0.3755   -5.4040 H   0  0  0  0  0  0  0  0  0  0  0  0
    2.0803    0.2996   -3.4080 H   0  0  0  0  0  0  0  0  0  0  0  0
    2.1404   -1.1733   -2.4278 H   0  0  0  0  0  0  0  0  0  0  0  0
    5.0307   -0.1307   -0.2868 H   0  0  0  0  0  0  0  0  0  0  0  0
    4.3917   -1.5602   -1.1538 H   0  0  0  0  0  0  0  0  0  0  0  0
    3.1266    1.1623    0.9837 H   0  0  0  0  0  0  0  0  0  0  0  0
    4.1596    1.1003   -2.1242 H   0  0  0  0  0  0  0  0  0  0  0  0
  1 13  1  0  0  0  0
  1 11  1  0  0  0  0
  2 16  1  0  0  0  0
  2  8  1  0  0  0  0
  3 18  1  0  0  0  0
  3  8  1  0  0  0  0
  4 21  1  0  0  0  0
  4  7  1  0  0  0  0
  5 22  1  0  0  0  0
  5  9  1  0  0  0  0
  6  1  1  0  0  0  0
  6 24  1  1  0  0  0
  7 25  1  6  0  0  0
  7 10  1  0  0  0  0
  7  5  1  0  0  0  0
  8  4  1  0  0  0  0
  9  6  1  0  0  0  0
 10  6  1  0  0  0  0
 12  1  1  0  0  0  0
 14  2  1  0  0  0  0
 15  2  1  0  0  0  0
 17  3  1  0  0  0  0
 19  3  1  0  0  0  0
 20  4  1  0  0  0  0
 23  5  1  0  0  0  0
M  END
>  <HBA>
3

>  <HBD>
0

>  <TPSA>
21.7

>  <cid>
31028

>  <dipole>
1.1

>  <excitation_energy_1>
5.437

>  <excitation_energy_2>
5.792

>  <excitation_energy_3>
6.002

>  <excitation_energy_4>
6.072

>  <homo_energy>
-5.864

>  <homo_lumo_gap>
8.068

>  <logP>
0.309

>  <lumo_energy>
2.204

>  <melting_point>
-19.91

>  <molecular_refractivity>
38.72

>  <oscillator_strength_1>
0.0191

>  <oscillator_strength_2>
0.0191

>  <oscillator_strength_3>
0.0083

>  <oscillator_strength_4>
0.0541

>  <open_babel_can_smiles>
CN(C[C@@H]1CO[C@@H](O1)C)C

>  <mulliken_charges>
25
1   -0.460428
2   -0.295246
3   -0.303273
4   -0.13927
5   -0.069733
6   0.377631
7   0.138713
8   -0.377608
9   -0.484145
10   -0.519567
11   0.156116
12   0.160237
13   0.158046
14   0.147932
15   0.12129
16   0.152398
17   0.15065
18   0.15161
19   0.122422
20   0.127973
21   0.146836
22   0.130088
23   0.170225
24   0.107414
25   0.129688

>  <lowdin_charges>
25
1   -0.451937
2   -0.358373
3   -0.362839
4   -0.216552
5   -0.147948
6   0.108664
7   -0.017694
8   -0.187539
9   -0.264406
10   -0.27955
11   0.161161
12   0.163179
13   0.162753
14   0.150815
15   0.12297
16   0.152407
17   0.152428
18   0.150234
19   0.124311
20   0.131343
21   0.153086
22   0.134397
23   0.163478
24   0.116584
25   0.13903

$$$$

