PCCDB-ID:  61171
public computational chemistry database (PCCDB) project, http://pccdb.org

 14 13  0  0  0  0  0  0  0  0999 V2000
    0.9824   -0.2774   -0.0227 C   0  0  0  0  0  0  0  0  0  0  0  0
    5.2274    3.1582    0.3262 C   0  0  0  0  0  0  0  0  0  0  0  0
    2.4832    0.0024   -0.0541 C   0  0  0  0  0  0  0  0  0  0  0  0
    4.6051    1.7889    0.1302 C   0  0  0  0  0  0  0  0  0  0  0  0
    5.2399    0.7799   -0.0831 O   0  0  0  0  0  0  0  0  0  0  0  0
    2.8021    1.7919    0.2390 S   0  0  0  0  0  0  0  0  0  0  0  0
    0.8047   -1.3448   -0.1955 H   0  0  0  0  0  0  0  0  0  0  0  0
    0.4519    0.2829   -0.7997 H   0  0  0  0  0  0  0  0  0  0  0  0
    0.5440   -0.0153    0.9460 H   0  0  0  0  0  0  0  0  0  0  0  0
    6.3144    3.0599    0.2875 H   0  0  0  0  0  0  0  0  0  0  0  0
    4.9274    3.5844    1.2895 H   0  0  0  0  0  0  0  0  0  0  0  0
    4.8923    3.8442   -0.4596 H   0  0  0  0  0  0  0  0  0  0  0  0
    2.9236   -0.2607   -1.0190 H   0  0  0  0  0  0  0  0  0  0  0  0
    3.0155   -0.5609    0.7165 H   0  0  0  0  0  0  0  0  0  0  0  0
  1  9  1  0  0  0  0
  2 11  1  0  0  0  0
  3  1  1  0  0  0  0
  3  6  1  0  0  0  0
  3 14  1  0  0  0  0
  4  6  1  0  0  0  0
  4  2  1  0  0  0  0
  5  4  2  0  0  0  0
  7  1  1  0  0  0  0
  8  1  1  0  0  0  0
 10  2  1  0  0  0  0
 12  2  1  0  0  0  0
 13  3  1  0  0  0  0
M  END
>  <HBA>
2

>  <HBD>
0

>  <TPSA>
42.37

>  <cid>
61171

>  <dipole>
1.07

>  <excitation_energy_1>
4.762

>  <excitation_energy_2>
5.485

>  <excitation_energy_3>
5.706

>  <excitation_energy_4>
6.312

>  <homo_energy>
-6.776

>  <homo_lumo_gap>
6.408

>  <logP>
1.286

>  <lumo_energy>
-0.367

>  <melting_point>
5.13

>  <molecular_refractivity>
29.13

>  <oscillator_strength_1>
0.0

>  <oscillator_strength_2>
0.0514

>  <oscillator_strength_3>
0.0001

>  <oscillator_strength_4>
0.0171

>  <open_babel_can_smiles>
CCSC(=O)C

>  <mulliken_charges>
14
1   -0.461272
2   -0.524128
3   -0.391952
4   0.277542
5   -0.418285
6   0.087929
7   0.159662
8   0.164517
9   0.164486
10   0.186736
11   0.185634
12   0.187176
13   0.191063
14   0.190893

>  <lowdin_charges>
14
1   -0.445228
2   -0.466565
3   -0.360463
4   0.04961
5   -0.238675
6   0.110002
7   0.15853
8   0.160002
9   0.158667
10   0.175298
11   0.17892
12   0.180877
13   0.168888
14   0.170137

$$$$

