PCCDB-ID:  37994
public computational chemistry database (PCCDB) project, http://pccdb.org

 30 29  0  0  1  0  0  0  0  0999 V2000
    2.5714    2.4815   -0.5668 C   0  0  0  0  0  0  0  0  0  0  0  0
    3.8419    1.6970   -0.2237 C   0  0  0  0  0  0  0  0  0  0  0  0
    3.5445    0.2935    0.3190 C   0  0  0  0  0  0  0  0  0  0  0  0
    4.7930   -0.4884    0.7476 C   0  0  0  0  0  0  0  0  0  0  0  0
    3.6494    1.8238    3.7764 C   0  0  0  0  0  0  0  0  0  0  0  0
    5.0925   -0.2850    3.2910 C   0  0  0  0  0  0  0  0  0  0  0  0
    4.7925    0.9029    4.2376 C   0  0  2  0  0  0  0  0  0  0  0  0
    2.2904    1.1634    3.7959 C   0  0  0  0  0  0  0  0  0  0  0  0
    6.7191    0.5424    1.6663 N   0  0  0  0  0  0  0  0  0  0  0  0
    5.4912    0.0534    1.9185 N   0  0  0  0  0  0  0  0  0  0  0  0
    4.5573    0.3976    5.5413 O   0  0  0  0  0  0  0  0  0  0  0  0
    2.0067    0.1304    4.3771 O   0  0  0  0  0  0  0  0  0  0  0  0
    1.3686    1.8604    3.0967 O   0  0  0  0  0  0  0  0  0  0  0  0
    7.3769    0.8288    2.6629 O   0  0  0  0  0  0  0  0  0  0  0  0
    2.8124    3.4744   -0.9621 H   0  0  0  0  0  0  0  0  0  0  0  0
    1.9415    2.6164    0.3206 H   0  0  0  0  0  0  0  0  0  0  0  0
    1.9737    1.9584   -1.3236 H   0  0  0  0  0  0  0  0  0  0  0  0
    4.4354    2.2575    0.5104 H   0  0  0  0  0  0  0  0  0  0  0  0
    4.4783    1.6079   -1.1148 H   0  0  0  0  0  0  0  0  0  0  0  0
    3.0384   -0.2979   -0.4569 H   0  0  0  0  0  0  0  0  0  0  0  0
    2.8357    0.3561    1.1555 H   0  0  0  0  0  0  0  0  0  0  0  0
    5.5299   -0.4889   -0.0612 H   0  0  0  0  0  0  0  0  0  0  0  0
    4.5319   -1.5326    0.9613 H   0  0  0  0  0  0  0  0  0  0  0  0
    3.8361    2.2347    2.7795 H   0  0  0  0  0  0  0  0  0  0  0  0
    3.5945    2.6817    4.4597 H   0  0  0  0  0  0  0  0  0  0  0  0
    4.2158   -0.9352    3.2243 H   0  0  0  0  0  0  0  0  0  0  0  0
    5.9138   -0.8435    3.7537 H   0  0  0  0  0  0  0  0  0  0  0  0
    5.6990    1.5058    4.3054 H   0  0  0  0  0  0  0  0  0  0  0  0
    3.6881   -0.0427    5.5077 H   0  0  0  0  0  0  0  0  0  0  0  0
    0.5228    1.3817    3.1958 H   0  0  0  0  0  0  0  0  0  0  0  0
  1  2  1  0  0  0  0
  1 16  1  0  0  0  0
  2  3  1  0  0  0  0
  2 18  1  0  0  0  0
  3  4  1  0  0  0  0
  3 21  1  0  0  0  0
  4 23  1  0  0  0  0
  4 10  1  0  0  0  0
  5  8  1  0  0  0  0
  5  7  1  0  0  0  0
  5 25  1  0  0  0  0
  6 27  1  0  0  0  0
  6  7  1  0  0  0  0
  7 28  1  1  0  0  0
  7 11  1  0  0  0  0
  8 12  2  0  0  0  0
  9 10  1  0  0  0  0
  9 14  1  0  0  0  0
 10  6  1  0  0  0  0
 13 30  1  0  0  0  0
 13  8  1  0  0  0  0
 15  1  1  0  0  0  0
 17  1  1  0  0  0  0
 19  2  1  0  0  0  0
 20  3  1  0  0  0  0
 22  4  1  0  0  0  0
 24  5  1  0  0  0  0
 26  6  1  0  0  0  0
 29 11  1  0  0  0  0
M  RAD  2   9   2  14   2
M  END
>  <HBA>
6

>  <HBD>
2

>  <TPSA>
90.2

>  <cid>
37994

>  <dipole>
5.29

>  <excitation_energy_1>
3.298

>  <excitation_energy_2>
4.949

>  <excitation_energy_3>
5.429

>  <excitation_energy_4>
5.505

>  <homo_energy>
-6.128

>  <homo_lumo_gap>
5.151

>  <logP>
0.606

>  <lumo_energy>
-0.977

>  <melting_point>
89.57

>  <molecular_refractivity>
51.14

>  <oscillator_strength_1>
0.0011

>  <oscillator_strength_2>
0.0

>  <oscillator_strength_3>
0.0812

>  <oscillator_strength_4>
0.0004

>  <open_babel_can_smiles>
CCCCN(C[C@@H](CC(=O)O)O)[N][O]

>  <mulliken_charges>
30
1   -0.452923
2   -0.253872
3   -0.26737
4   -0.146196
5   -0.387521
6   -0.177563
7   0.131791
8   0.596714
9   0.151169
10   -0.230224
11   -0.638143
12   -0.481932
13   -0.560819
14   -0.375902
15   0.148554
16   0.152604
17   0.141661
18   0.148204
19   0.14116
20   0.142263
21   0.136758
22   0.1768
23   0.155193
24   0.192781
25   0.201654
26   0.159103
27   0.189386
28   0.178818
29   0.412712
30   0.415143

>  <lowdin_charges>
30
1   -0.448507
2   -0.27761
3   -0.288971
4   -0.201242
5   -0.324011
6   -0.237336
7   -0.0062
8   0.202595
9   0.052004
10   -0.052206
11   -0.460524
12   -0.280972
13   -0.343079
14   -0.267225
15   0.152684
16   0.151007
17   0.147697
18   0.14499
19   0.145496
20   0.151287
21   0.141815
22   0.166901
23   0.15062
24   0.179172
25   0.189356
26   0.159878
27   0.175397
28   0.167184
29   0.344508
30   0.365294

$$$$

