PCCDB-ID:  32010
public computational chemistry database (PCCDB) project, http://pccdb.org

 26 27  0  0  0  0  0  0  0  0999 V2000
   -2.6607   -1.3021    0.0584 C   0  0  0  0  0  0  0  0  0  0  0  0
   -1.9678   -2.4359   -0.3701 C   0  0  0  0  0  0  0  0  0  0  0  0
   -1.9471   -0.2285    0.5978 C   0  0  0  0  0  0  0  0  0  0  0  0
   -0.5779   -2.4952   -0.2774 C   0  0  0  0  0  0  0  0  0  0  0  0
   -0.5596   -0.2862    0.7076 C   0  0  0  0  0  0  0  0  0  0  0  0
    1.3366   -0.9810   -2.6460 C   0  0  0  0  0  0  0  0  0  0  0  0
    2.7611   -2.9069   -2.6920 C   0  0  0  0  0  0  0  0  0  0  0  0
    1.1929   -1.1278   -4.0246 C   0  0  0  0  0  0  0  0  0  0  0  0
    2.5410   -2.9676   -4.0687 C   0  0  0  0  0  0  0  0  0  0  0  0
    2.1413   -1.8923   -1.9514 C   0  0  0  0  0  0  0  0  0  0  0  0
    0.1482   -1.4120    0.2500 C   0  0  0  0  0  0  0  0  0  0  0  0
    2.3842   -1.7550   -0.4768 C   0  0  0  0  0  0  0  0  0  0  0  0
    3.6924   -2.0132   -0.1032 N   0  0  0  0  0  0  0  0  0  0  0  0
    1.7762   -2.0991   -4.7402 N   0  0  0  0  0  0  0  0  0  0  0  0
    1.5380   -1.4471    0.4398 N   0  0  0  0  0  0  0  0  0  0  0  0
   -3.7438   -1.2601   -0.0152 H   0  0  0  0  0  0  0  0  0  0  0  0
   -2.5116   -3.2845   -0.7777 H   0  0  0  0  0  0  0  0  0  0  0  0
   -2.4749    0.6556    0.9467 H   0  0  0  0  0  0  0  0  0  0  0  0
   -0.0452   -3.3862   -0.5968 H   0  0  0  0  0  0  0  0  0  0  0  0
    0.0001    0.5360    1.1444 H   0  0  0  0  0  0  0  0  0  0  0  0
    0.8339   -0.1742   -2.1246 H   0  0  0  0  0  0  0  0  0  0  0  0
    3.3887   -3.6436   -2.2007 H   0  0  0  0  0  0  0  0  0  0  0  0
    0.5763   -0.4271   -4.5846 H   0  0  0  0  0  0  0  0  0  0  0  0
    3.0054   -3.7543   -4.6612 H   0  0  0  0  0  0  0  0  0  0  0  0
    4.4191   -1.7431   -0.7541 H   0  0  0  0  0  0  0  0  0  0  0  0
    3.8872   -1.7868    0.8656 H   0  0  0  0  0  0  0  0  0  0  0  0
  1  3  2  0  0  0  0
  2  4  2  0  0  0  0
  2  1  1  0  0  0  0
  3  5  1  0  0  0  0
  3 18  1  0  0  0  0
  4 11  1  0  0  0  0
  5 20  1  0  0  0  0
  6 21  1  0  0  0  0
  6 10  1  0  0  0  0
  7 22  1  0  0  0  0
  7 10  2  0  0  0  0
  8  6  2  0  0  0  0
  9  7  1  0  0  0  0
 10 12  1  0  0  0  0
 11 15  1  0  0  0  0
 11  5  2  0  0  0  0
 12 13  1  0  0  0  0
 12 15  2  0  0  0  0
 13 26  1  0  0  0  0
 14  9  2  0  0  0  0
 14  8  1  0  0  0  0
 16  1  1  0  0  0  0
 17  2  1  0  0  0  0
 19  4  1  0  0  0  0
 23  8  1  0  0  0  0
 24  9  1  0  0  0  0
 25 13  1  0  0  0  0
M  END
>  <HBA>
3

>  <HBD>
1

>  <TPSA>
51.27

>  <cid>
32010

>  <dipole>
2.26

>  <excitation_energy_1>
3.386

>  <excitation_energy_2>
4.348

>  <excitation_energy_3>
4.373

>  <excitation_energy_4>
4.437

>  <homo_energy>
-5.638

>  <homo_lumo_gap>
4.212

>  <logP>
2.819

>  <lumo_energy>
-1.426

>  <melting_point>
128.7

>  <molecular_refractivity>
60.64

>  <oscillator_strength_1>
0.0458

>  <oscillator_strength_2>
0.0165

>  <oscillator_strength_3>
0.0092

>  <oscillator_strength_4>
0.0227

>  <open_babel_can_smiles>
N/C(=N/c1ccccc1)/c1ccncc1

>  <mulliken_charges>
26
1   -0.132238
2   -0.139185
3   -0.137343
4   -0.147505
5   -0.159436
6   -0.158712
7   -0.180871
8   0.033858
9   0.038906
10   0.094262
11   0.246266
12   0.393485
13   -0.737384
14   -0.401879
15   -0.523366
16   0.123688
17   0.127573
18   0.126112
19   0.126655
20   0.125978
21   0.163457
22   0.154598
23   0.148907
24   0.146149
25   0.329552
26   0.338471

>  <lowdin_charges>
26
1   -0.171731
2   -0.15353
3   -0.154761
4   -0.184586
5   -0.181189
6   -0.161738
7   -0.181518
8   -0.08784
9   -0.089376
10   -0.00816
11   0.045414
12   0.109149
13   -0.465239
14   -0.142122
15   -0.205422
16   0.15356
17   0.157574
18   0.156685
19   0.158753
20   0.160414
21   0.179452
22   0.17329
23   0.162355
24   0.160494
25   0.283601
26   0.28647

$$$$

