PCCDB-ID:  31002
public computational chemistry database (PCCDB) project, http://pccdb.org

 22 21  0  0  1  0  0  0  0  0999 V2000
    1.6599   -2.9983   -0.1846 C   0  0  0  0  0  0  0  0  0  0  0  0
    2.6295   -1.8258   -0.3604 C   0  0  0  0  0  0  0  0  0  0  0  0
    3.0305    0.4796   -1.2835 C   0  0  0  0  0  0  0  0  0  0  0  0
    2.1077   -0.7440   -1.3196 C   0  0  1  0  0  0  0  0  0  0  0  0
    1.9204   -1.2984   -2.6620 N   0  0  0  0  0  0  0  0  0  0  0  0
    3.3074    3.5588   -0.9374 O   0  0  0  0  0  0  0  0  0  0  0  0
    4.6727    2.4894   -2.7464 O   0  0  0  0  0  0  0  0  0  0  0  0
    2.4293    3.7560   -3.3811 O   0  0  0  0  0  0  0  0  0  0  0  0
    2.4859    1.4635   -2.2012 O   0  0  0  0  0  0  0  0  0  0  0  0
    3.1441    2.8993   -2.4174 P   0  0  0  0  0  0  0  0  0  0  0  0
    2.0894   -3.7658    0.4688 H   0  0  0  0  0  0  0  0  0  0  0  0
    1.4238   -3.4513   -1.1511 H   0  0  0  0  0  0  0  0  0  0  0  0
    0.7178   -2.6629    0.2656 H   0  0  0  0  0  0  0  0  0  0  0  0
    3.5946   -2.1951   -0.7394 H   0  0  0  0  0  0  0  0  0  0  0  0
    2.8408   -1.3674    0.6155 H   0  0  0  0  0  0  0  0  0  0  0  0
    4.0422    0.2161   -1.6134 H   0  0  0  0  0  0  0  0  0  0  0  0
    3.0853    0.9229   -0.2827 H   0  0  0  0  0  0  0  0  0  0  0  0
    1.1181   -0.4168   -0.9713 H   0  0  0  0  0  0  0  0  0  0  0  0
    2.8245   -1.5842   -3.0413 H   0  0  0  0  0  0  0  0  0  0  0  0
    1.5744   -0.5648   -3.2788 H   0  0  0  0  0  0  0  0  0  0  0  0
    2.6169    4.2320   -0.8171 H   0  0  0  0  0  0  0  0  0  0  0  0
    5.2054    3.2660   -2.9837 H   0  0  0  0  0  0  0  0  0  0  0  0
  1 13  1  0  0  0  0
  1 11  1  0  0  0  0
  2  1  1  0  0  0  0
  2 15  1  0  0  0  0
  3 17  1  0  0  0  0
  4  3  1  0  0  0  0
  4 18  1  1  0  0  0
  4  2  1  0  0  0  0
  5  4  1  0  0  0  0
  6 21  1  0  0  0  0
  7 10  1  0  0  0  0
  8 10  2  0  0  0  0
  9  3  1  0  0  0  0
 10  9  1  0  0  0  0
 10  6  1  0  0  0  0
 12  1  1  0  0  0  0
 14  2  1  0  0  0  0
 16  3  1  0  0  0  0
 19  5  1  0  0  0  0
 20  5  1  0  0  0  0
 22  7  1  0  0  0  0
M  END
>  <HBA>
5

>  <HBD>
3

>  <TPSA>
102.59

>  <cid>
31002

>  <dipole>
3.31

>  <excitation_energy_1>
5.55

>  <excitation_energy_2>
6.186

>  <excitation_energy_3>
6.368

>  <excitation_energy_4>
6.538

>  <homo_energy>
-6.487

>  <homo_lumo_gap>
7.227

>  <logP>
0.533

>  <lumo_energy>
0.74

>  <melting_point>
108.74

>  <molecular_refractivity>
36.12

>  <oscillator_strength_1>
0.0117

>  <oscillator_strength_2>
0.0162

>  <oscillator_strength_3>
0.0061

>  <oscillator_strength_4>
0.0025

>  <open_babel_can_smiles>
CC[C@@H](COP(=O)(O)O)N

>  <mulliken_charges>
22
1   -0.43857
2   -0.257918
3   -0.044821
4   0.00302
5   -0.709888
6   -0.661121
7   -0.652292
8   -0.532582
9   -0.516381
10   1.149796
11   0.138522
12   0.174248
13   0.140771
14   0.127519
15   0.132774
16   0.156555
17   0.15646
18   0.144228
19   0.288746
20   0.318938
21   0.439731
22   0.442268

>  <lowdin_charges>
22
1   -0.444096
2   -0.27558
3   -0.137563
4   -0.074332
5   -0.545432
6   -0.581324
7   -0.56873
8   -0.5773
9   -0.389426
10   1.113758
11   0.14933
12   0.163384
13   0.147485
14   0.138209
15   0.142834
16   0.150279
17   0.152801
18   0.146248
19   0.250206
20   0.266612
21   0.385745
22   0.386892

$$$$

