PCCDB-ID:  23305
public computational chemistry database (PCCDB) project, http://pccdb.org

 21 22  0  0  1  0  0  0  0  0999 V2000
    1.1569    0.0379    0.3826 C   0  0  0  0  0  0  0  0  0  0  0  0
    5.1665   -0.0038    3.9727 C   0  0  0  0  0  0  0  0  0  0  0  0
    5.0998   -1.3696    3.6883 C   0  0  0  0  0  0  0  0  0  0  0  0
    4.6312    0.9263    3.0693 C   0  0  0  0  0  0  0  0  0  0  0  0
    4.5050   -1.8379    2.5111 C   0  0  0  0  0  0  0  0  0  0  0  0
    3.4109    1.2197    0.7409 C   0  0  0  0  0  0  0  0  0  0  0  0
    2.6371    0.1001   -0.0141 C   0  0  1  0  0  0  0  0  0  0  0  0
    4.0340    0.4744    1.9016 C   0  0  0  0  0  0  0  0  0  0  0  0
    3.9754   -0.9017    1.6219 C   0  0  0  0  0  0  0  0  0  0  0  0
    3.3759   -1.1250    0.3753 N   0  0  0  0  0  0  0  0  0  0  0  0
    0.6298    0.9445    0.0618 H   0  0  0  0  0  0  0  0  0  0  0  0
    1.0497   -0.0552    1.4696 H   0  0  0  0  0  0  0  0  0  0  0  0
    0.6580   -0.8192   -0.0868 H   0  0  0  0  0  0  0  0  0  0  0  0
    5.6303    0.3384    4.8933 H   0  0  0  0  0  0  0  0  0  0  0  0
    5.5135   -2.0866    4.3931 H   0  0  0  0  0  0  0  0  0  0  0  0
    4.6772    1.9909    3.2886 H   0  0  0  0  0  0  0  0  0  0  0  0
    4.4573   -2.9029    2.2981 H   0  0  0  0  0  0  0  0  0  0  0  0
    2.7495    2.0397    1.0430 H   0  0  0  0  0  0  0  0  0  0  0  0
    4.1876    1.6502    0.0938 H   0  0  0  0  0  0  0  0  0  0  0  0
    2.7147    0.2351   -1.0988 H   0  0  0  0  0  0  0  0  0  0  0  0
    2.8596   -1.9926    0.2739 H   0  0  0  0  0  0  0  0  0  0  0  0
  1 12  1  0  0  0  0
  2 14  1  0  0  0  0
  3  2  1  0  0  0  0
  3 15  1  0  0  0  0
  4 16  1  0  0  0  0
  4  2  2  0  0  0  0
  5  3  2  0  0  0  0
  6 18  1  0  0  0  0
  6  8  1  0  0  0  0
  7 20  1  6  0  0  0
  7 10  1  0  0  0  0
  7  1  1  0  0  0  0
  7  6  1  0  0  0  0
  8  4  1  0  0  0  0
  9  8  2  0  0  0  0
  9  5  1  0  0  0  0
 10  9  1  0  0  0  0
 11  1  1  0  0  0  0
 13  1  1  0  0  0  0
 17  5  1  0  0  0  0
 19  6  1  0  0  0  0
 21 10  1  0  0  0  0
M  END
>  <HBA>
1

>  <HBD>
1

>  <TPSA>
12.03

>  <cid>
23305

>  <dipole>
1.67

>  <excitation_energy_1>
4.43

>  <excitation_energy_2>
4.612

>  <excitation_energy_3>
5.081

>  <excitation_energy_4>
5.195

>  <homo_energy>
-5.102

>  <homo_lumo_gap>
5.347

>  <logP>
2.181

>  <lumo_energy>
0.245

>  <melting_point>
64.62

>  <molecular_refractivity>
46.34

>  <oscillator_strength_1>
0.0547

>  <oscillator_strength_2>
0.0082

>  <oscillator_strength_3>
0.0137

>  <oscillator_strength_4>
0.0047

>  <open_babel_can_smiles>
C[C@H]1Cc2c(N1)cccc2

>  <mulliken_charges>
21
1   -0.454085
2   -0.139498
3   -0.140667
4   -0.211693
5   -0.188966
6   -0.351009
7   0.036883
8   0.122828
9   0.302272
10   -0.647549
11   0.14699
12   0.159278
13   0.139593
14   0.117938
15   0.121693
16   0.119537
17   0.117139
18   0.148707
19   0.159562
20   0.135518
21   0.305528

>  <lowdin_charges>
21
1   -0.458315
2   -0.186454
3   -0.152001
4   -0.157421
5   -0.202573
6   -0.27956
7   -0.04819
8   -0.043044
9   0.047289
10   -0.310297
11   0.153559
12   0.15467
13   0.148153
14   0.153652
15   0.155845
16   0.151969
17   0.15196
18   0.155081
19   0.158581
20   0.139756
21   0.267339

$$$$

