PCCDB-ID:  57033
public computational chemistry database (PCCDB) project, http://pccdb.org

 31 33  0  0  1  0  0  0  0  0999 V2000
    4.1055    3.8550    0.1991 C   0  0  0  0  0  0  0  0  0  0  0  0
    4.7432    2.8799   -0.5673 C   0  0  0  0  0  0  0  0  0  0  0  0
    3.1669    3.4499    1.1523 C   0  0  0  0  0  0  0  0  0  0  0  0
    4.4598    1.5249   -0.3943 C   0  0  0  0  0  0  0  0  0  0  0  0
    2.8751    2.1027    1.3348 C   0  0  0  0  0  0  0  0  0  0  0  0
    3.1608   -2.6512    0.4256 C   0  0  0  0  0  0  0  0  0  0  0  0
    3.8980   -3.8628   -0.1814 C   0  0  0  0  0  0  0  0  0  0  0  0
    5.2986   -1.4597    1.1544 C   0  0  0  0  0  0  0  0  0  0  0  0
    7.3377   -4.4767    0.6687 C   0  0  0  0  0  0  0  0  0  0  0  0
    3.5134    1.1110    0.5625 C   0  0  0  0  0  0  0  0  0  0  0  0
    3.9819   -1.3490    0.3344 C   0  0  2  0  0  0  0  0  0  0  0  0
    5.3268   -3.8667    0.2721 C   0  0  0  0  0  0  0  0  0  0  0  0
    5.9292   -2.7809    0.8581 C   0  0  0  0  0  0  0  0  0  0  0  0
    6.2111   -4.9205    0.1557 N   0  0  0  0  0  0  0  0  0  0  0  0
    7.2277   -3.1841    1.1108 N   0  0  0  0  0  0  0  0  0  0  0  0
    3.1470   -0.2245    0.7348 N   0  0  0  0  0  0  0  0  0  0  0  0
    4.3337    4.9073    0.0589 H   0  0  0  0  0  0  0  0  0  0  0  0
    5.4769    3.1708   -1.3154 H   0  0  0  0  0  0  0  0  0  0  0  0
    2.6562    4.1898    1.7638 H   0  0  0  0  0  0  0  0  0  0  0  0
    4.9704    0.7937   -1.0122 H   0  0  0  0  0  0  0  0  0  0  0  0
    2.1390    1.8030    2.0788 H   0  0  0  0  0  0  0  0  0  0  0  0
    2.9404   -2.8543    1.4847 H   0  0  0  0  0  0  0  0  0  0  0  0
    2.2005   -2.4959   -0.0778 H   0  0  0  0  0  0  0  0  0  0  0  0
    3.8453   -3.8195   -1.2792 H   0  0  0  0  0  0  0  0  0  0  0  0
    3.3971   -4.7942    0.1091 H   0  0  0  0  0  0  0  0  0  0  0  0
    5.0558   -1.3592    2.2241 H   0  0  0  0  0  0  0  0  0  0  0  0
    5.9588   -0.6181    0.9080 H   0  0  0  0  0  0  0  0  0  0  0  0
    8.2603   -5.0363    0.7500 H   0  0  0  0  0  0  0  0  0  0  0  0
    4.2499   -1.2045   -0.7195 H   0  0  0  0  0  0  0  0  0  0  0  0
    7.9558   -2.6320    1.5408 H   0  0  0  0  0  0  0  0  0  0  0  0
    2.6348   -0.3928    1.5933 H   0  0  0  0  0  0  0  0  0  0  0  0
  1  3  2  0  0  0  0
  2  4  2  0  0  0  0
  2  1  1  0  0  0  0
  3  5  1  0  0  0  0
  3 19  1  0  0  0  0
  4 10  1  0  0  0  0
  5 21  1  0  0  0  0
  6 22  1  0  0  0  0
  7 25  1  0  0  0  0
  7 12  1  0  0  0  0
  7  6  1  0  0  0  0
  8 26  1  0  0  0  0
  9 28  1  0  0  0  0
  9 15  1  0  0  0  0
 10 16  1  0  0  0  0
 10  5  2  0  0  0  0
 11 29  1  6  0  0  0
 11  6  1  0  0  0  0
 11 16  1  0  0  0  0
 11  8  1  0  0  0  0
 12 13  2  0  0  0  0
 13 15  1  0  0  0  0
 13  8  1  0  0  0  0
 14 12  1  0  0  0  0
 14  9  2  0  0  0  0
 15 30  1  0  0  0  0
 16 31  1  0  0  0  0
 17  1  1  0  0  0  0
 18  2  1  0  0  0  0
 20  4  1  0  0  0  0
 23  6  1  0  0  0  0
 24  7  1  0  0  0  0
 27  8  1  0  0  0  0
M  END
>  <HBA>
2

>  <HBD>
2

>  <TPSA>
40.71

>  <cid>
57033

>  <dipole>
2.9

>  <excitation_energy_1>
4.508

>  <excitation_energy_2>
4.639

>  <excitation_energy_3>
4.879

>  <excitation_energy_4>
4.965

>  <homo_energy>
-5.241

>  <homo_lumo_gap>
5.426

>  <logP>
2.452

>  <lumo_energy>
0.185

>  <melting_point>
157.13

>  <molecular_refractivity>
64.85

>  <oscillator_strength_1>
0.0292

>  <oscillator_strength_2>
0.008

>  <oscillator_strength_3>
0.0187

>  <oscillator_strength_4>
0.0026

>  <open_babel_can_smiles>
c1ccc(cc1)N[C@@H]1CCc2c(C1)[nH]cn2

>  <mulliken_charges>
31
1   -0.139288
2   -0.139462
3   -0.13284
4   -0.183495
5   -0.19532
6   -0.293221
7   -0.336148
8   -0.341401
9   0.207427
10   0.364539
11   0.039211
12   0.199359
13   0.314953
14   -0.481378
15   -0.641029
16   -0.674721
17   0.119733
18   0.123693
19   0.124194
20   0.122454
21   0.112501
22   0.133425
23   0.151657
24   0.151927
25   0.156226
26   0.143616
27   0.154409
28   0.151202
29   0.152519
30   0.328201
31   0.307056

>  <lowdin_charges>
31
1   -0.190057
2   -0.146126
3   -0.147899
4   -0.214474
5   -0.203157
6   -0.277056
7   -0.268776
8   -0.288425
9   -0.090256
10   0.062398
11   -0.054431
12   -0.026648
13   -0.030898
14   -0.193945
15   -0.192043
16   -0.291825
17   0.153001
18   0.155525
19   0.156897
20   0.156719
21   0.150378
22   0.138766
23   0.154458
24   0.149821
25   0.159796
26   0.146477
27   0.157344
28   0.164885
29   0.147399
30   0.293299
31   0.268851

$$$$

