PCCDB-ID:  11476
public computational chemistry database (PCCDB) project, http://pccdb.org

 19 19  0  0  0  0  0  0  0  0999 V2000
    0.9992    0.0138    0.2281 C   0  0  0  0  0  0  0  0  0  0  0  0
    4.5274    1.3678   -0.3155 C   0  0  0  0  0  0  0  0  0  0  0  0
    3.1448    1.3105   -0.1424 C   0  0  0  0  0  0  0  0  0  0  0  0
    5.2806    0.1936   -0.3442 C   0  0  0  0  0  0  0  0  0  0  0  0
    3.2622   -1.0901   -0.0351 C   0  0  0  0  0  0  0  0  0  0  0  0
    5.4503   -2.3352   -0.2834 C   0  0  0  0  0  0  0  0  0  0  0  0
    2.4932    0.0784    0.0064 C   0  0  0  0  0  0  0  0  0  0  0  0
    4.6505   -1.0480   -0.2110 C   0  0  0  0  0  0  0  0  0  0  0  0
    4.9415   -3.3740    0.5456 O   0  0  0  0  0  0  0  0  0  0  0  0
    0.4825    0.8362   -0.2784 H   0  0  0  0  0  0  0  0  0  0  0  0
    0.7513    0.0842    1.2959 H   0  0  0  0  0  0  0  0  0  0  0  0
    0.5799   -0.9283   -0.1405 H   0  0  0  0  0  0  0  0  0  0  0  0
    5.0201    2.3306   -0.4249 H   0  0  0  0  0  0  0  0  0  0  0  0
    2.5643    2.2302   -0.1193 H   0  0  0  0  0  0  0  0  0  0  0  0
    6.3600    0.2417   -0.4721 H   0  0  0  0  0  0  0  0  0  0  0  0
    2.7812   -2.0590    0.0743 H   0  0  0  0  0  0  0  0  0  0  0  0
    6.5087   -2.1252   -0.0592 H   0  0  0  0  0  0  0  0  0  0  0  0
    5.4176   -2.7478   -1.2990 H   0  0  0  0  0  0  0  0  0  0  0  0
    4.9011   -3.0237    1.4499 H   0  0  0  0  0  0  0  0  0  0  0  0
  1 11  1  0  0  0  0
  2  3  1  0  0  0  0
  3 14  1  0  0  0  0
  3  7  2  0  0  0  0
  4  2  2  0  0  0  0
  4  8  1  0  0  0  0
  5  7  1  0  0  0  0
  5 16  1  0  0  0  0
  6  8  1  0  0  0  0
  6 17  1  0  0  0  0
  6  9  1  0  0  0  0
  7  1  1  0  0  0  0
  8  5  2  0  0  0  0
  9 19  1  0  0  0  0
 10  1  1  0  0  0  0
 12  1  1  0  0  0  0
 13  2  1  0  0  0  0
 15  4  1  0  0  0  0
 18  6  1  0  0  0  0
M  END
>  <HBA>
1

>  <HBD>
1

>  <TPSA>
20.23

>  <cid>
11476

>  <dipole>
1.53

>  <excitation_energy_1>
5.165

>  <excitation_energy_2>
5.708

>  <excitation_energy_3>
6.006

>  <excitation_energy_4>
6.142

>  <homo_energy>
-6.433

>  <homo_lumo_gap>
6.381

>  <logP>
1.487

>  <lumo_energy>
-0.052

>  <melting_point>
30.61

>  <molecular_refractivity>
37.54

>  <oscillator_strength_1>
0.001

>  <oscillator_strength_2>
0.0318

>  <oscillator_strength_3>
0.0236

>  <oscillator_strength_4>
0.0265

>  <open_babel_can_smiles>
OCc1cccc(c1)C

>  <mulliken_charges>
19
1   -0.528869
2   -0.126048
3   -0.178847
4   -0.18618
5   -0.23125
6   -0.090653
7   0.179938
8   0.105581
9   -0.609216
10   0.156384
11   0.164306
12   0.159242
13   0.127917
14   0.120867
15   0.120969
16   0.134995
17   0.128422
18   0.164193
19   0.388248

>  <lowdin_charges>
19
1   -0.442446
2   -0.153405
3   -0.170295
4   -0.171168
5   -0.175659
6   -0.130562
7   0.004715
8   -0.031556
9   -0.460001
10   0.158818
11   0.159868
12   0.159277
13   0.156818
14   0.154344
15   0.151685
16   0.160971
17   0.130668
18   0.156499
19   0.341431

$$$$

