PCCDB-ID:  43767
public computational chemistry database (PCCDB) project, http://pccdb.org

 30 29  0  0  0  0  0  0  0  0999 V2000
    4.2856    2.3155   -1.2781 C   0  0  0  0  0  0  0  0  0  0  0  0
    2.2050    2.9640   -0.0598 C   0  0  0  0  0  0  0  0  0  0  0  0
    2.0466    1.8656   -2.3327 C   0  0  0  0  0  0  0  0  0  0  0  0
    1.4859   -0.5175    1.5427 C   0  0  0  0  0  0  0  0  0  0  0  0
    1.3784    0.5940    2.5969 C   0  0  0  0  0  0  0  0  0  0  0  0
    1.5186   -0.0727    0.0683 C   0  0  0  0  0  0  0  0  0  0  0  0
    0.0137    1.2734    2.6705 C   0  0  0  0  0  0  0  0  0  0  0  0
    2.8249    1.9169   -1.0010 C   0  0  0  0  0  0  0  0  0  0  0  0
    3.8519   -0.2086   -0.5739 N   0  0  0  0  0  0  0  0  0  0  0  0
    2.7786    0.5671   -0.3577 N   0  0  0  0  0  0  0  0  0  0  0  0
   -0.9533    0.2863    3.0185 O   0  0  0  0  0  0  0  0  0  0  0  0
    3.7155   -1.3927   -0.2649 O   0  0  0  0  0  0  0  0  0  0  0  0
    4.2951    3.3414   -1.6627 H   0  0  0  0  0  0  0  0  0  0  0  0
    4.7585    1.6630   -2.0135 H   0  0  0  0  0  0  0  0  0  0  0  0
    4.8856    2.2817   -0.3641 H   0  0  0  0  0  0  0  0  0  0  0  0
    2.2431    3.9487   -0.5377 H   0  0  0  0  0  0  0  0  0  0  0  0
    2.7614    3.0214    0.8812 H   0  0  0  0  0  0  0  0  0  0  0  0
    1.1566    2.7528    0.1706 H   0  0  0  0  0  0  0  0  0  0  0  0
    2.0778    2.8436   -2.8256 H   0  0  0  0  0  0  0  0  0  0  0  0
    0.9938    1.6034   -2.1820 H   0  0  0  0  0  0  0  0  0  0  0  0
    2.4916    1.1267   -3.0072 H   0  0  0  0  0  0  0  0  0  0  0  0
    0.6251   -1.1865    1.6581 H   0  0  0  0  0  0  0  0  0  0  0  0
    2.3771   -1.1192    1.7328 H   0  0  0  0  0  0  0  0  0  0  0  0
    2.1475    1.3595    2.4340 H   0  0  0  0  0  0  0  0  0  0  0  0
    1.5792    0.1575    3.5832 H   0  0  0  0  0  0  0  0  0  0  0  0
    0.7023    0.6176   -0.1538 H   0  0  0  0  0  0  0  0  0  0  0  0
    1.3908   -0.9614   -0.5604 H   0  0  0  0  0  0  0  0  0  0  0  0
   -0.2417    1.7446    1.7063 H   0  0  0  0  0  0  0  0  0  0  0  0
    0.0470    2.0774    3.4235 H   0  0  0  0  0  0  0  0  0  0  0  0
   -1.8228    0.7127    3.0442 H   0  0  0  0  0  0  0  0  0  0  0  0
  1  8  1  0  0  0  0
  1 15  1  0  0  0  0
  2 18  1  0  0  0  0
  2 17  1  0  0  0  0
  3 20  1  0  0  0  0
  3  8  1  0  0  0  0
  4 22  1  0  0  0  0
  4 23  1  0  0  0  0
  4  5  1  0  0  0  0
  5  7  1  0  0  0  0
  5 25  1  0  0  0  0
  6  4  1  0  0  0  0
  7 11  1  0  0  0  0
  7 29  1  0  0  0  0
  8 10  1  0  0  0  0
  8  2  1  0  0  0  0
  9 10  1  0  0  0  0
  9 12  2  0  0  0  0
 10  6  1  0  0  0  0
 11 30  1  0  0  0  0
 13  1  1  0  0  0  0
 14  1  1  0  0  0  0
 16  2  1  0  0  0  0
 19  3  1  0  0  0  0
 21  3  1  0  0  0  0
 24  5  1  0  0  0  0
 26  6  1  0  0  0  0
 27  6  1  0  0  0  0
 28  7  1  0  0  0  0
M  END
>  <HBA>
4

>  <HBD>
1

>  <TPSA>
52.9

>  <cid>
43767

>  <dipole>
5.27

>  <excitation_energy_1>
3.236

>  <excitation_energy_2>
5.221

>  <excitation_energy_3>
5.639

>  <excitation_energy_4>
5.763

>  <homo_energy>
-5.75

>  <homo_lumo_gap>
5.07

>  <logP>
1.541

>  <lumo_energy>
-0.68

>  <melting_point>
23.44

>  <molecular_refractivity>
49.4

>  <oscillator_strength_1>
0.0006

>  <oscillator_strength_2>
0.0007

>  <oscillator_strength_3>
0.0093

>  <oscillator_strength_4>
0.0594

>  <open_babel_can_smiles>
OCCCCN(C(C)(C)C)N=O

>  <mulliken_charges>
30
1   -0.440174
2   -0.453445
3   -0.440203
4   -0.270676
5   -0.273326
6   -0.156116
7   -0.036862
8   0.188974
9   0.160141
10   -0.232308
11   -0.615018
12   -0.395343
13   0.138611
14   0.172365
15   0.15905
16   0.151608
17   0.161166
18   0.148271
19   0.149752
20   0.147633
21   0.162277
22   0.162962
23   0.174737
24   0.136936
25   0.152446
26   0.148188
27   0.17175
28   0.112092
29   0.121978
30   0.392539

>  <lowdin_charges>
30
1   -0.444697
2   -0.447677
3   -0.448624
4   -0.285354
5   -0.287872
6   -0.218528
7   -0.137499
8   0.077643
9   0.045722
10   -0.047558
11   -0.472895
12   -0.273664
13   0.149069
14   0.166441
15   0.160228
16   0.15665
17   0.157318
18   0.147847
19   0.155618
20   0.149833
21   0.161092
22   0.161378
23   0.165535
24   0.146815
25   0.155143
26   0.15151
27   0.164631
28   0.117788
29   0.129298
30   0.34481

$$$$

