PCCDB-ID:  66032
public computational chemistry database (PCCDB) project, http://pccdb.org

 27 27  0  0  0  0  0  0  0  0999 V2000
    0.7634    1.4996   -1.1173 C   0  0  0  0  0  0  0  0  0  0  0  0
    1.4933    0.2883   -0.5143 C   0  0  0  0  0  0  0  0  0  0  0  0
   -0.5556    1.7634   -0.3737 C   0  0  0  0  0  0  0  0  0  0  0  0
   -1.8416   -0.8430    2.5256 C   0  0  0  0  0  0  0  0  0  0  0  0
    0.5524   -0.9276   -0.4446 C   0  0  0  0  0  0  0  0  0  0  0  0
   -1.4071    0.4845   -0.3045 C   0  0  0  0  0  0  0  0  0  0  0  0
   -0.5364   -0.6092    1.7484 C   0  0  0  0  0  0  0  0  0  0  0  0
   -2.5156   -2.1805    2.1960 C   0  0  0  0  0  0  0  0  0  0  0  0
   -0.7056   -0.6761    0.2808 N   0  0  0  0  0  0  0  0  0  0  0  0
   -2.9815   -2.2414    0.8601 O   0  0  0  0  0  0  0  0  0  0  0  0
    0.5444    1.2954   -2.1763 H   0  0  0  0  0  0  0  0  0  0  0  0
    1.4050    2.3891   -1.0967 H   0  0  0  0  0  0  0  0  0  0  0  0
    1.8537    0.5364    0.4934 H   0  0  0  0  0  0  0  0  0  0  0  0
    2.3789    0.0326   -1.1100 H   0  0  0  0  0  0  0  0  0  0  0  0
   -1.1303    2.5542   -0.8728 H   0  0  0  0  0  0  0  0  0  0  0  0
   -0.3420    2.1278    0.6405 H   0  0  0  0  0  0  0  0  0  0  0  0
   -2.5568   -0.0313    2.3415 H   0  0  0  0  0  0  0  0  0  0  0  0
   -1.6004   -0.8083    3.5975 H   0  0  0  0  0  0  0  0  0  0  0  0
    1.0519   -1.7854    0.0196 H   0  0  0  0  0  0  0  0  0  0  0  0
    0.2825   -1.2293   -1.4669 H   0  0  0  0  0  0  0  0  0  0  0  0
   -1.7053    0.1977   -1.3229 H   0  0  0  0  0  0  0  0  0  0  0  0
   -2.3324    0.6539    0.2530 H   0  0  0  0  0  0  0  0  0  0  0  0
    0.1702   -1.4055    2.0161 H   0  0  0  0  0  0  0  0  0  0  0  0
   -0.0776    0.3375    2.0824 H   0  0  0  0  0  0  0  0  0  0  0  0
   -3.3880   -2.3287    2.8438 H   0  0  0  0  0  0  0  0  0  0  0  0
   -1.8102   -3.0039    2.4159 H   0  0  0  0  0  0  0  0  0  0  0  0
   -2.2140   -1.9512    0.3220 H   0  0  0  0  0  0  0  0  0  0  0  0
  1 12  1  0  0  0  0
  1  2  1  0  0  0  0
  1  3  1  0  0  0  0
  2  5  1  0  0  0  0
  2 13  1  0  0  0  0
  3  6  1  0  0  0  0
  3 16  1  0  0  0  0
  4 18  1  0  0  0  0
  5 19  1  0  0  0  0
  5  9  1  0  0  0  0
  6 22  1  0  0  0  0
  6  9  1  0  0  0  0
  7 23  1  0  0  0  0
  7 24  1  0  0  0  0
  7  4  1  0  0  0  0
  8 26  1  0  0  0  0
  8  4  1  0  0  0  0
  8 25  1  0  0  0  0
  9  7  1  0  0  0  0
 10  8  1  0  0  0  0
 11  1  1  0  0  0  0
 14  2  1  0  0  0  0
 15  3  1  0  0  0  0
 17  4  1  0  0  0  0
 20  5  1  0  0  0  0
 21  6  1  0  0  0  0
 27 10  1  0  0  0  0
M  END
>  <HBA>
2

>  <HBD>
1

>  <TPSA>
23.47

>  <cid>
66032

>  <dipole>
3.2

>  <excitation_energy_1>
5.2

>  <excitation_energy_2>
5.546

>  <excitation_energy_3>
5.693

>  <excitation_energy_4>
5.842

>  <homo_energy>
-5.831

>  <homo_lumo_gap>
7.744

>  <logP>
0.793

>  <lumo_energy>
1.913

>  <melting_point>
15.94

>  <molecular_refractivity>
46.43

>  <oscillator_strength_1>
0.0119

>  <oscillator_strength_2>
0.0102

>  <oscillator_strength_3>
0.0102

>  <oscillator_strength_4>
0.002

>  <open_babel_can_smiles>
OCCCN1CCCCC1

>  <mulliken_charges>
27
1   -0.259803
2   -0.267481
3   -0.268603
4   -0.293676
5   -0.138219
6   -0.144778
7   -0.124003
8   -0.013145
9   -0.422076
10   -0.645551
11   0.130524
12   0.135895
13   0.136627
14   0.135155
15   0.136696
16   0.136931
17   0.145798
18   0.130362
19   0.141055
20   0.139408
21   0.141397
22   0.156416
23   0.137704
24   0.125306
25   0.133487
26   0.10321
27   0.411365

>  <lowdin_charges>
27
1   -0.277467
2   -0.293466
3   -0.293163
4   -0.30143
5   -0.206489
6   -0.209413
7   -0.206162
8   -0.132205
9   -0.190459
10   -0.496759
11   0.137118
12   0.145875
13   0.140774
14   0.148254
15   0.149906
16   0.140362
17   0.146953
18   0.147375
19   0.147253
20   0.14116
21   0.142921
22   0.153583
23   0.145226
24   0.126198
25   0.14162
26   0.116534
27   0.3359

$$$$

