PCCDB-ID:  10456
public computational chemistry database (PCCDB) project, http://pccdb.org

 22 21  0  0  0  0  0  0  0  0999 V2000
    1.2216   -0.1205   -0.4717 C   0  0  0  0  0  0  0  0  0  0  0  0
   -2.9912   -2.4076   -1.5289 C   0  0  0  0  0  0  0  0  0  0  0  0
    0.6127   -1.3085   -1.2362 C   0  0  0  0  0  0  0  0  0  0  0  0
   -1.4838   -2.4299   -1.7762 C   0  0  0  0  0  0  0  0  0  0  0  0
    2.7399   -0.0695   -0.5810 C   0  0  0  0  0  0  0  0  0  0  0  0
   -3.6938   -3.6272   -2.1117 C   0  0  0  0  0  0  0  0  0  0  0  0
   -0.8386   -1.3191   -1.0759 N   0  0  0  0  0  0  0  0  0  0  0  0
    3.3533    0.7686   -1.1901 O   0  0  0  0  0  0  0  0  0  0  0  0
    3.4075   -1.0784    0.0497 O   0  0  0  0  0  0  0  0  0  0  0  0
   -3.1330   -4.5436   -2.6569 O   0  0  0  0  0  0  0  0  0  0  0  0
   -5.0485   -3.6406   -1.9755 O   0  0  0  0  0  0  0  0  0  0  0  0
    0.9164   -0.1822    0.5811 H   0  0  0  0  0  0  0  0  0  0  0  0
    0.8431    0.8230   -0.8749 H   0  0  0  0  0  0  0  0  0  0  0  0
   -3.4425   -1.5007   -1.9593 H   0  0  0  0  0  0  0  0  0  0  0  0
   -3.1831   -2.3633   -0.4479 H   0  0  0  0  0  0  0  0  0  0  0  0
    0.9963   -2.2556   -0.8325 H   0  0  0  0  0  0  0  0  0  0  0  0
    0.9378   -1.2692   -2.2921 H   0  0  0  0  0  0  0  0  0  0  0  0
   -1.2886   -2.4385   -2.8625 H   0  0  0  0  0  0  0  0  0  0  0  0
   -1.0767   -3.3688   -1.3856 H   0  0  0  0  0  0  0  0  0  0  0  0
   -1.2095   -0.4391   -1.4361 H   0  0  0  0  0  0  0  0  0  0  0  0
    2.7820   -1.6523    0.5217 H   0  0  0  0  0  0  0  0  0  0  0  0
   -5.3469   -2.8401   -1.5126 H   0  0  0  0  0  0  0  0  0  0  0  0
  1 12  1  0  0  0  0
  2 15  1  0  0  0  0
  3  7  1  0  0  0  0
  3 16  1  0  0  0  0
  3  1  1  0  0  0  0
  4  2  1  0  0  0  0
  4 19  1  0  0  0  0
  4  7  1  0  0  0  0
  5  1  1  0  0  0  0
  5  9  1  0  0  0  0
  6 11  1  0  0  0  0
  6  2  1  0  0  0  0
  8  5  2  0  0  0  0
  9 21  1  0  0  0  0
 10  6  2  0  0  0  0
 11 22  1  0  0  0  0
 13  1  1  0  0  0  0
 14  2  1  0  0  0  0
 17  3  1  0  0  0  0
 18  4  1  0  0  0  0
 20  7  1  0  0  0  0
M  END
>  <HBA>
5

>  <HBD>
3

>  <TPSA>
86.63

>  <cid>
10456

>  <dipole>
4.87

>  <excitation_energy_1>
5.538

>  <excitation_energy_2>
5.598

>  <excitation_energy_3>
5.711

>  <excitation_energy_4>
5.758

>  <homo_energy>
-6.727

>  <homo_lumo_gap>
6.765

>  <logP>
-0.084

>  <lumo_energy>
0.038

>  <melting_point>
154.93

>  <molecular_refractivity>
37.3

>  <oscillator_strength_1>
0.0015

>  <oscillator_strength_2>
0.0011

>  <oscillator_strength_3>
0.0007

>  <oscillator_strength_4>
0.0083

>  <open_babel_can_smiles>
OC(=O)CCNCCC(=O)O

>  <mulliken_charges>
22
1   -0.387622
2   -0.418278
3   -0.119748
4   -0.110314
5   0.587613
6   0.613876
7   -0.568951
8   -0.430924
9   -0.562301
10   -0.436131
11   -0.565958
12   0.167897
13   0.176092
14   0.159647
15   0.184866
16   0.137193
17   0.146399
18   0.142814
19   0.168375
20   0.294728
21   0.410523
22   0.410206

>  <lowdin_charges>
22
1   -0.318856
2   -0.327278
3   -0.197079
4   -0.194265
5   0.195613
6   0.200011
7   -0.365603
8   -0.234033
9   -0.361294
10   -0.235002
11   -0.358476
12   0.162573
13   0.170754
14   0.158824
15   0.170364
16   0.139491
17   0.132422
18   0.132646
19   0.15808
20   0.252308
21   0.359654
22   0.359147

$$$$

