PCCDB-ID:  54159
public computational chemistry database (PCCDB) project, http://pccdb.org

 27 28  0  0  0  0  0  0  0  0999 V2000
   -1.4897    0.4914    0.8930 C   0  0  0  0  0  0  0  0  0  0  0  0
   -0.8792    1.4728    0.1100 C   0  0  0  0  0  0  0  0  0  0  0  0
   -0.7397   -0.6020    1.3300 C   0  0  0  0  0  0  0  0  0  0  0  0
    0.4672    1.3605   -0.2335 C   0  0  0  0  0  0  0  0  0  0  0  0
    0.6075   -0.7118    0.9890 C   0  0  0  0  0  0  0  0  0  0  0  0
    3.2508   -1.0932   -0.4626 C   0  0  0  0  0  0  0  0  0  0  0  0
    3.5036    1.2786   -0.2207 C   0  0  0  0  0  0  0  0  0  0  0  0
    4.5939   -1.2251   -0.8067 C   0  0  0  0  0  0  0  0  0  0  0  0
    4.8459    1.1662   -0.5617 C   0  0  0  0  0  0  0  0  0  0  0  0
    1.2363    0.2670    0.2002 C   0  0  0  0  0  0  0  0  0  0  0  0
    2.6704    0.1494   -0.1627 C   0  0  0  0  0  0  0  0  0  0  0  0
    5.4066   -0.0845   -0.8592 C   0  0  0  0  0  0  0  0  0  0  0  0
    7.5376   -1.2118   -1.5586 C   0  0  0  0  0  0  0  0  0  0  0  0
    6.7814   -0.1142   -1.1906 N   0  0  0  0  0  0  0  0  0  0  0  0
    7.1313   -2.3433   -1.6784 O   0  0  0  0  0  0  0  0  0  0  0  0
    8.8530   -0.9263   -1.7977 O   0  0  0  0  0  0  0  0  0  0  0  0
   -2.5395    0.5776    1.1597 H   0  0  0  0  0  0  0  0  0  0  0  0
   -1.4548    2.3244   -0.2434 H   0  0  0  0  0  0  0  0  0  0  0  0
   -1.2020   -1.3690    1.9459 H   0  0  0  0  0  0  0  0  0  0  0  0
    0.9235    2.1152   -0.8683 H   0  0  0  0  0  0  0  0  0  0  0  0
    1.1878   -1.5528    1.3585 H   0  0  0  0  0  0  0  0  0  0  0  0
    2.6307   -1.9852   -0.4548 H   0  0  0  0  0  0  0  0  0  0  0  0
    3.1028    2.2568    0.0290 H   0  0  0  0  0  0  0  0  0  0  0  0
    5.0120   -2.1924   -1.0468 H   0  0  0  0  0  0  0  0  0  0  0  0
    5.4688    2.0590   -0.5858 H   0  0  0  0  0  0  0  0  0  0  0  0
    7.2147    0.7979   -1.2373 H   0  0  0  0  0  0  0  0  0  0  0  0
    9.0893   -0.0244   -1.5290 H   0  0  0  0  0  0  0  0  0  0  0  0
  1 17  1  0  0  0  0
  1  3  2  0  0  0  0
  2  1  1  0  0  0  0
  3 19  1  0  0  0  0
  4  2  2  0  0  0  0
  4 10  1  0  0  0  0
  5  3  1  0  0  0  0
  5 21  1  0  0  0  0
  6 22  1  0  0  0  0
  6 11  2  0  0  0  0
  7 11  1  0  0  0  0
  7 23  1  0  0  0  0
  8  6  1  0  0  0  0
  9  7  2  0  0  0  0
 10  5  2  0  0  0  0
 11 10  1  0  0  0  0
 12  8  2  0  0  0  0
 12  9  1  0  0  0  0
 13 14  1  0  0  0  0
 14 12  1  0  0  0  0
 15 13  2  0  0  0  0
 16 13  1  0  0  0  0
 16 27  1  0  0  0  0
 18  2  1  0  0  0  0
 20  4  1  0  0  0  0
 24  8  1  0  0  0  0
 25  9  1  0  0  0  0
 26 14  1  0  0  0  0
M  END
>  <HBA>
3

>  <HBD>
2

>  <TPSA>
49.33

>  <cid>
54159

>  <dipole>
4.56

>  <excitation_energy_1>
4.488

>  <excitation_energy_2>
4.546

>  <excitation_energy_3>
4.653

>  <excitation_energy_4>
4.842

>  <homo_energy>
-5.777

>  <homo_lumo_gap>
5.012

>  <logP>
3.517

>  <lumo_energy>
-0.765

>  <melting_point>
163.64

>  <molecular_refractivity>
63.34

>  <oscillator_strength_1>
0.1294

>  <oscillator_strength_2>
0.5623

>  <oscillator_strength_3>
0.0071

>  <oscillator_strength_4>
0.002

>  <open_babel_can_smiles>
OC(=O)Nc1ccc(cc1)c1ccccc1

>  <mulliken_charges>
27
1   -0.127161
2   -0.133587
3   -0.133607
4   -0.174691
5   -0.174181
6   -0.193834
7   -0.179678
8   -0.167264
9   -0.205011
10   0.089532
11   0.09592
12   0.363895
13   0.772755
14   -0.74322
15   -0.464658
16   -0.585484
17   0.129542
18   0.129733
19   0.131003
20   0.129222
21   0.133322
22   0.13983
23   0.135445
24   0.191044
25   0.119055
26   0.321524
27   0.400554

>  <lowdin_charges>
27
1   -0.156923
2   -0.155411
3   -0.154862
4   -0.164604
5   -0.162919
6   -0.149312
7   -0.152376
8   -0.178979
9   -0.192068
10   -0.000711
11   -0.012427
12   0.063283
13   0.219164
14   -0.262903
15   -0.267805
16   -0.366684
17   0.156509
18   0.158529
19   0.159479
20   0.158841
21   0.160567
22   0.163957
23   0.161475
24   0.189872
25   0.151957
26   0.281131
27   0.353222

$$$$

