PCCDB-ID:  15712
public computational chemistry database (PCCDB) project, http://pccdb.org

 42 42  0  0  0  0  0  0  0  0999 V2000
    3.3309    1.6783   -9.0353 C   0  0  0  0  0  0  0  0  0  0  0  0
    3.3924    1.2395   -7.5688 C   0  0  0  0  0  0  0  0  0  0  0  0
    4.5368    0.2591   -7.2764 C   0  0  0  0  0  0  0  0  0  0  0  0
    4.6018   -0.1632   -5.8018 C   0  0  0  0  0  0  0  0  0  0  0  0
    5.5973   -1.2836   -5.4461 C   0  0  0  0  0  0  0  0  0  0  0  0
    7.0973   -0.9553   -5.6090 C   0  0  0  0  0  0  0  0  0  0  0  0
   11.4777    1.0620   -9.4121 C   0  0  0  0  0  0  0  0  0  0  0  0
    7.6905   -1.2176   -7.0030 C   0  0  0  0  0  0  0  0  0  0  0  0
   11.9666    0.1954   -8.2410 C   0  0  0  0  0  0  0  0  0  0  0  0
    9.9443    1.0556   -9.5111 C   0  0  0  0  0  0  0  0  0  0  0  0
    9.1979   -0.9307   -7.0690 C   0  0  0  0  0  0  0  0  0  0  0  0
   11.4057   -1.2338   -8.3332 C   0  0  0  0  0  0  0  0  0  0  0  0
    9.3937   -0.3785   -9.5925 C   0  0  0  0  0  0  0  0  0  0  0  0
    9.8624   -1.2735   -8.4210 C   0  0  0  0  0  0  0  0  0  0  0  0
    2.5025    2.3741   -9.2113 H   0  0  0  0  0  0  0  0  0  0  0  0
    3.1898    0.8177   -9.7010 H   0  0  0  0  0  0  0  0  0  0  0  0
    4.2578    2.1808   -9.3386 H   0  0  0  0  0  0  0  0  0  0  0  0
    2.4375    0.7746   -7.2849 H   0  0  0  0  0  0  0  0  0  0  0  0
    3.5012    2.1249   -6.9261 H   0  0  0  0  0  0  0  0  0  0  0  0
    5.4849    0.7243   -7.5778 H   0  0  0  0  0  0  0  0  0  0  0  0
    4.4184   -0.6336   -7.9089 H   0  0  0  0  0  0  0  0  0  0  0  0
    3.5989   -0.4939   -5.4941 H   0  0  0  0  0  0  0  0  0  0  0  0
    4.8266    0.7204   -5.1856 H   0  0  0  0  0  0  0  0  0  0  0  0
    5.3574   -2.1855   -6.0289 H   0  0  0  0  0  0  0  0  0  0  0  0
    5.4174   -1.5517   -4.3963 H   0  0  0  0  0  0  0  0  0  0  0  0
    7.6659   -1.5572   -4.8859 H   0  0  0  0  0  0  0  0  0  0  0  0
    7.2735    0.0932   -5.3244 H   0  0  0  0  0  0  0  0  0  0  0  0
   11.8992    0.6687  -10.3495 H   0  0  0  0  0  0  0  0  0  0  0  0
   11.8505    2.0894   -9.3097 H   0  0  0  0  0  0  0  0  0  0  0  0
    7.1625   -0.6186   -7.7531 H   0  0  0  0  0  0  0  0  0  0  0  0
    7.5117   -2.2693   -7.2734 H   0  0  0  0  0  0  0  0  0  0  0  0
   11.6568    0.6568   -7.2929 H   0  0  0  0  0  0  0  0  0  0  0  0
   13.0638    0.1653   -8.2240 H   0  0  0  0  0  0  0  0  0  0  0  0
    9.6187    1.6284  -10.3892 H   0  0  0  0  0  0  0  0  0  0  0  0
    9.5220    1.5702   -8.6364 H   0  0  0  0  0  0  0  0  0  0  0  0
    9.6980   -1.5176   -6.2839 H   0  0  0  0  0  0  0  0  0  0  0  0
    9.3733    0.1220   -6.8083 H   0  0  0  0  0  0  0  0  0  0  0  0
   11.7461   -1.8313   -7.4768 H   0  0  0  0  0  0  0  0  0  0  0  0
   11.8208   -1.7145   -9.2315 H   0  0  0  0  0  0  0  0  0  0  0  0
    9.7405   -0.8324  -10.5324 H   0  0  0  0  0  0  0  0  0  0  0  0
    8.2985   -0.3608   -9.6511 H   0  0  0  0  0  0  0  0  0  0  0  0
    9.5736   -2.3087   -8.6590 H   0  0  0  0  0  0  0  0  0  0  0  0
  1  2  1  0  0  0  0
  2 18  1  0  0  0  0
  2  3  1  0  0  0  0
  2 19  1  0  0  0  0
  3  4  1  0  0  0  0
  4 22  1  0  0  0  0
  4  5  1  0  0  0  0
  4 23  1  0  0  0  0
  5 25  1  0  0  0  0
  6  5  1  0  0  0  0
  6 27  1  0  0  0  0
  6 26  1  0  0  0  0
  7 29  1  0  0  0  0
  7  9  1  0  0  0  0
  8  6  1  0  0  0  0
  9 33  1  0  0  0  0
  9 32  1  0  0  0  0
 10  7  1  0  0  0  0
 10 35  1  0  0  0  0
 11  8  1  0  0  0  0
 11 37  1  0  0  0  0
 11 36  1  0  0  0  0
 12  9  1  0  0  0  0
 12 38  1  0  0  0  0
 13 10  1  0  0  0  0
 13 14  1  0  0  0  0
 14 12  1  0  0  0  0
 14 11  1  0  0  0  0
 15  1  1  0  0  0  0
 16  1  1  0  0  0  0
 17  1  1  0  0  0  0
 20  3  1  0  0  0  0
 21  3  1  0  0  0  0
 24  5  1  0  0  0  0
 28  7  1  0  0  0  0
 30  8  1  0  0  0  0
 31  8  1  0  0  0  0
 34 10  1  0  0  0  0
 39 12  1  0  0  0  0
 40 13  1  0  0  0  0
 41 13  1  0  0  0  0
 42 14  1  0  0  0  0
M  END
>  <HBA>
0

>  <HBD>
0

>  <TPSA>
0.0

>  <cid>
15712

>  <dipole>
0.09

>  <excitation_energy_1>
7.148

>  <excitation_energy_2>
7.262

>  <excitation_energy_3>
7.394

>  <excitation_energy_4>
7.436

>  <homo_energy>
-7.687

>  <homo_lumo_gap>
9.777

>  <logP>
5.317

>  <lumo_energy>
2.09

>  <melting_point>
-9.3

>  <molecular_refractivity>
67.3

>  <oscillator_strength_1>
0.0014

>  <oscillator_strength_2>
0.0002

>  <oscillator_strength_3>
0.0006

>  <oscillator_strength_4>
0.0093

>  <open_babel_can_smiles>
CCCCCCCCC1CCCCC1

>  <mulliken_charges>
42
1   -0.441814
2   -0.24787
3   -0.246018
4   -0.254002
5   -0.259906
6   -0.253211
7   -0.253688
8   -0.267778
9   -0.259832
10   -0.259959
11   -0.260719
12   -0.26441
13   -0.267835
14   -0.073751
15   0.141149
16   0.140979
17   0.140659
18   0.129689
19   0.129767
20   0.134099
21   0.125419
22   0.125847
23   0.12603
24   0.12666
25   0.127624
26   0.127081
27   0.125748
28   0.125185
29   0.127097
30   0.14367
31   0.125318
32   0.131431
33   0.128073
34   0.128273
35   0.129901
36   0.123678
37   0.12982
38   0.124881
39   0.123727
40   0.124725
41   0.131569
42   0.112693

>  <lowdin_charges>
42
1   -0.44612
2   -0.272764
3   -0.279101
4   -0.274657
5   -0.276275
6   -0.276911
7   -0.276855
8   -0.280356
9   -0.277934
10   -0.281601
11   -0.279791
12   -0.280678
13   -0.279645
14   -0.127805
15   0.149518
16   0.146532
17   0.146068
18   0.138244
19   0.138953
20   0.138965
21   0.137158
22   0.138574
23   0.137157
24   0.138298
25   0.141637
26   0.141216
27   0.13602
28   0.136139
29   0.140527
30   0.14363
31   0.134867
32   0.138188
33   0.140242
34   0.143295
35   0.137963
36   0.13941
37   0.136123
38   0.14076
39   0.138073
40   0.13861
41   0.13979
42   0.134533

$$$$

