PCCDB-ID:  65526
public computational chemistry database (PCCDB) project, http://pccdb.org

 20 20  0  0  0  0  0  0  0  0999 V2000
   -0.7069    1.1169   -0.2666 C   0  0  0  0  0  0  0  0  0  0  0  0
    1.4077   -0.0254   -0.0504 C   0  0  0  0  0  0  0  0  0  0  0  0
   -1.3737   -0.1040   -0.2114 C   0  0  0  0  0  0  0  0  0  0  0  0
    0.7481   -1.2482    0.0101 C   0  0  0  0  0  0  0  0  0  0  0  0
    1.4210    2.5022   -0.2049 C   0  0  0  0  0  0  0  0  0  0  0  0
    0.6912    1.1720   -0.1832 C   0  0  0  0  0  0  0  0  0  0  0  0
   -0.6499   -1.2967   -0.0703 C   0  0  0  0  0  0  0  0  0  0  0  0
   -1.3075   -2.6255   -0.0064 C   0  0  0  0  0  0  0  0  0  0  0  0
    0.7324    3.4914   -1.0390 N   0  0  0  0  0  0  0  0  0  0  0  0
   -2.6628   -2.5562   -0.0943 O   0  0  0  0  0  0  0  0  0  0  0  0
   -0.7285   -3.6880    0.1126 O   0  0  0  0  0  0  0  0  0  0  0  0
   -1.2589    2.0436   -0.3843 H   0  0  0  0  0  0  0  0  0  0  0  0
    2.4939    0.0029    0.0029 H   0  0  0  0  0  0  0  0  0  0  0  0
   -2.4558   -0.1387   -0.2765 H   0  0  0  0  0  0  0  0  0  0  0  0
    1.2976   -2.1783    0.1119 H   0  0  0  0  0  0  0  0  0  0  0  0
    2.4732    2.3210   -0.4878 H   0  0  0  0  0  0  0  0  0  0  0  0
    1.4489    2.9064    0.8172 H   0  0  0  0  0  0  0  0  0  0  0  0
    0.7983    3.2212   -2.0194 H   0  0  0  0  0  0  0  0  0  0  0  0
    1.1941    4.3947   -0.9540 H   0  0  0  0  0  0  0  0  0  0  0  0
   -2.9731   -3.4788   -0.0399 H   0  0  0  0  0  0  0  0  0  0  0  0
  1  3  2  0  0  0  0
  1  6  1  0  0  0  0
  2 13  1  0  0  0  0
  2  4  1  0  0  0  0
  3  7  1  0  0  0  0
  4 15  1  0  0  0  0
  5  6  1  0  0  0  0
  5 17  1  0  0  0  0
  6  2  2  0  0  0  0
  7  8  1  0  0  0  0
  7  4  2  0  0  0  0
  8 11  2  0  0  0  0
  9 19  1  0  0  0  0
  9  5  1  0  0  0  0
 10 20  1  0  0  0  0
 10  8  1  0  0  0  0
 12  1  1  0  0  0  0
 14  3  1  0  0  0  0
 16  5  1  0  0  0  0
 18  9  1  0  0  0  0
M  END
>  <HBA>
3

>  <HBD>
2

>  <TPSA>
63.32

>  <cid>
65526

>  <dipole>
2.84

>  <excitation_energy_1>
4.674

>  <excitation_energy_2>
4.838

>  <excitation_energy_3>
4.897

>  <excitation_energy_4>
5.262

>  <homo_energy>
-6.561

>  <homo_lumo_gap>
5.382

>  <logP>
1.544

>  <lumo_energy>
-1.178

>  <melting_point>
153.73

>  <molecular_refractivity>
41.07

>  <oscillator_strength_1>
0.0533

>  <oscillator_strength_2>
0.0162

>  <oscillator_strength_3>
0.003

>  <oscillator_strength_4>
0.2761

>  <open_babel_can_smiles>
NCc1ccc(cc1)C(=O)O

>  <mulliken_charges>
20
1   -0.174227
2   -0.193309
3   -0.164377
4   -0.156709
5   -0.208773
6   0.152748
7   0.072518
8   0.534167
9   -0.716518
10   -0.584074
11   -0.478261
12   0.159377
13   0.128057
14   0.158626
15   0.162156
16   0.127949
17   0.165023
18   0.302062
19   0.3035
20   0.410064

>  <lowdin_charges>
20
1   -0.161345
2   -0.166098
3   -0.133893
4   -0.12918
5   -0.200286
6   0.002452
7   -0.053256
8   0.197904
9   -0.550049
10   -0.364237
11   -0.277423
12   0.173936
13   0.154898
14   0.170618
15   0.176581
16   0.12641
17   0.156692
18   0.25605
19   0.259452
20   0.360773

$$$$

