PCCDB-ID:  10407
public computational chemistry database (PCCDB) project, http://pccdb.org

 39 38  0  0  0  0  0  0  0  0999 V2000
    2.7427    5.0726   -1.9745 C   0  0  0  0  0  0  0  0  0  0  0  0
   12.0559    5.3097    2.0486 C   0  0  0  0  0  0  0  0  0  0  0  0
   12.9533    3.0127    2.6458 C   0  0  0  0  0  0  0  0  0  0  0  0
    1.4802    2.1445   -0.1124 C   0  0  0  0  0  0  0  0  0  0  0  0
    7.0245    5.4489    0.2457 C   0  0  0  0  0  0  0  0  0  0  0  0
    1.9634    4.1826   -1.3439 C   0  0  0  0  0  0  0  0  0  0  0  0
    9.1840    4.0113    2.1420 C   0  0  0  0  0  0  0  0  0  0  0  0
    4.5510    3.5433    0.6457 C   0  0  0  0  0  0  0  0  0  0  0  0
   10.5061    3.3402    2.4006 C   0  0  0  0  0  0  0  0  0  0  0  0
    3.8830    2.6952   -0.4682 C   0  0  0  0  0  0  0  0  0  0  0  0
    8.4746    3.4399    0.8861 C   0  0  0  0  0  0  0  0  0  0  0  0
    6.0077    3.2063    0.8160 C   0  0  0  0  0  0  0  0  0  0  0  0
   11.7399    3.8673    2.3619 C   0  0  0  0  0  0  0  0  0  0  0  0
    2.4027    2.9756   -0.6291 C   0  0  0  0  0  0  0  0  0  0  0  0
    7.0824    3.9953    0.6536 C   0  0  0  0  0  0  0  0  0  0  0  0
    2.3134    5.9279   -2.4879 H   0  0  0  0  0  0  0  0  0  0  0  0
    3.8247    4.9832   -2.0114 H   0  0  0  0  0  0  0  0  0  0  0  0
   12.7059    5.3799    1.1651 H   0  0  0  0  0  0  0  0  0  0  0  0
   12.6091    5.7747    2.8766 H   0  0  0  0  0  0  0  0  0  0  0  0
   11.1682    5.9171    1.8576 H   0  0  0  0  0  0  0  0  0  0  0  0
   13.6480    3.0141    1.7938 H   0  0  0  0  0  0  0  0  0  0  0  0
   12.6812    1.9741    2.8593 H   0  0  0  0  0  0  0  0  0  0  0  0
   13.5179    3.3996    3.5061 H   0  0  0  0  0  0  0  0  0  0  0  0
    0.4155    2.3476   -0.1993 H   0  0  0  0  0  0  0  0  0  0  0  0
    1.7593    1.2337    0.4106 H   0  0  0  0  0  0  0  0  0  0  0  0
    7.6420    5.6213   -0.6469 H   0  0  0  0  0  0  0  0  0  0  0  0
    7.4268    6.1019    1.0315 H   0  0  0  0  0  0  0  0  0  0  0  0
    6.0118    5.7924    0.0229 H   0  0  0  0  0  0  0  0  0  0  0  0
    0.8844    4.3391   -1.3574 H   0  0  0  0  0  0  0  0  0  0  0  0
    9.3040    5.0943    2.0378 H   0  0  0  0  0  0  0  0  0  0  0  0
    8.5217    3.8553    3.0063 H   0  0  0  0  0  0  0  0  0  0  0  0
    4.0183    3.3402    1.5862 H   0  0  0  0  0  0  0  0  0  0  0  0
    4.4013    4.6061    0.4361 H   0  0  0  0  0  0  0  0  0  0  0  0
   10.4283    2.2760    2.6337 H   0  0  0  0  0  0  0  0  0  0  0  0
    4.0232    1.6331   -0.2337 H   0  0  0  0  0  0  0  0  0  0  0  0
    4.4094    2.8735   -1.4143 H   0  0  0  0  0  0  0  0  0  0  0  0
    8.4223    2.3478    0.9795 H   0  0  0  0  0  0  0  0  0  0  0  0
    9.1098    3.6480    0.0123 H   0  0  0  0  0  0  0  0  0  0  0  0
    6.1939    2.1678    1.1001 H   0  0  0  0  0  0  0  0  0  0  0  0
  1  6  2  0  0  0  0
  2 13  1  0  0  0  0
  2 19  1  0  0  0  0
  3 22  1  0  0  0  0
  3 23  1  0  0  0  0
  4 25  1  0  0  0  0
  5 15  1  0  0  0  0
  5 27  1  0  0  0  0
  6 14  1  0  0  0  0
  7  9  1  0  0  0  0
  7 31  1  0  0  0  0
  8 12  1  0  0  0  0
  8 32  1  0  0  0  0
  9 34  1  0  0  0  0
 10 35  1  0  0  0  0
 10  8  1  0  0  0  0
 11 37  1  0  0  0  0
 11  7  1  0  0  0  0
 12 39  1  0  0  0  0
 13  9  2  0  0  0  0
 13  3  1  0  0  0  0
 14 10  1  0  0  0  0
 14  4  2  0  0  0  0
 15 12  2  0  0  0  0
 15 11  1  0  0  0  0
 16  1  1  0  0  0  0
 17  1  1  0  0  0  0
 18  2  1  0  0  0  0
 20  2  1  0  0  0  0
 21  3  1  0  0  0  0
 24  4  1  0  0  0  0
 26  5  1  0  0  0  0
 28  5  1  0  0  0  0
 29  6  1  0  0  0  0
 30  7  1  0  0  0  0
 33  8  1  0  0  0  0
 36 10  1  0  0  0  0
 38 11  1  0  0  0  0
M  END
>  <HBA>
0

>  <HBD>
0

>  <TPSA>
0.0

>  <cid>
10407

>  <dipole>
0.6

>  <excitation_energy_1>
4.758

>  <excitation_energy_2>
5.151

>  <excitation_energy_3>
5.407

>  <excitation_energy_4>
5.521

>  <homo_energy>
-6.025

>  <homo_lumo_gap>
5.464

>  <logP>
5.202

>  <lumo_energy>
-0.561

>  <melting_point>
-43.9

>  <molecular_refractivity>
72.32

>  <oscillator_strength_1>
0.0158

>  <oscillator_strength_2>
0.0148

>  <oscillator_strength_3>
0.4135

>  <oscillator_strength_4>
0.0019

>  <open_babel_can_smiles>
C=CC(=C)CC/C=C(/CCC=C(C)C)\C

>  <mulliken_charges>
39
1   -0.358349
2   -0.513184
3   -0.505765
4   -0.414961
5   -0.52418
6   -0.102326
7   -0.3018
8   -0.302775
9   -0.160751
10   -0.348856
11   -0.325572
12   -0.167439
13   0.188989
14   0.23266
15   0.191441
16   0.143011
17   0.144615
18   0.151346
19   0.151447
20   0.153254
21   0.148043
22   0.150669
23   0.148589
24   0.140079
25   0.139077
26   0.15058
27   0.157461
28   0.15561
29   0.124775
30   0.138599
31   0.143048
32   0.145139
33   0.148524
34   0.109421
35   0.139549
36   0.146946
37   0.136572
38   0.136808
39   0.109704

>  <lowdin_charges>
39
1   -0.340456
2   -0.446422
3   -0.438993
4   -0.343423
5   -0.447875
6   -0.1428
7   -0.272638
8   -0.271914
9   -0.188798
10   -0.270342
11   -0.267794
12   -0.189018
13   -0.01074
14   0.00677
15   -0.012406
16   0.162318
17   0.156482
18   0.1551
19   0.155744
20   0.155066
21   0.152202
22   0.152881
23   0.15278
24   0.15485
25   0.157178
26   0.154854
27   0.157269
28   0.155412
29   0.152067
30   0.142451
31   0.149686
32   0.150836
33   0.148548
34   0.142218
35   0.147785
36   0.150553
37   0.143264
38   0.145107
39   0.142197

$$$$

