PCCDB-ID:  13850
public computational chemistry database (PCCDB) project, http://pccdb.org

 47 46  0  0  0  0  0  0  0  0999 V2000
    4.1221   -8.2693   -5.0470 C   0  0  0  0  0  0  0  0  0  0  0  0
    3.8150   -9.3789   -4.0340 C   0  0  0  0  0  0  0  0  0  0  0  0
    5.0614  -10.1070   -3.5054 C   0  0  0  0  0  0  0  0  0  0  0  0
    5.9669   -9.3449   -2.5696 C   0  0  0  0  0  0  0  0  0  0  0  0
    5.7093   -8.1781   -1.9572 C   0  0  0  0  0  0  0  0  0  0  0  0
    6.6168   -7.4681   -1.0468 C   0  0  0  0  0  0  0  0  0  0  0  0
    7.9596   -7.5008   -1.0717 C   0  0  0  0  0  0  0  0  0  0  0  0
    8.8601   -6.8208   -0.0777 C   0  0  0  0  0  0  0  0  0  0  0  0
    9.9719   -5.9246   -0.6691 C   0  0  0  0  0  0  0  0  0  0  0  0
    9.5072   -4.6148   -1.3349 C   0  0  0  0  0  0  0  0  0  0  0  0
    8.9625   -4.7717   -2.7625 C   0  0  0  0  0  0  0  0  0  0  0  0
    8.4787   -3.4664   -3.4227 C   0  0  0  0  0  0  0  0  0  0  0  0
    9.5772   -2.3966   -3.6495 C   0  0  0  0  0  0  0  0  0  0  0  0
    9.6954   -1.3061   -2.5560 C   0  0  0  0  0  0  0  0  0  0  0  0
    8.9299    0.0050   -2.8211 C   0  0  0  0  0  0  0  0  0  0  0  0
    7.4008   -0.0724   -2.9018 C   0  0  0  0  0  0  0  0  0  0  0  0
    6.9031   -0.6434   -4.1092 O   0  0  0  0  0  0  0  0  0  0  0  0
    3.2018   -7.7870   -5.3957 H   0  0  0  0  0  0  0  0  0  0  0  0
    4.6374   -8.6765   -5.9257 H   0  0  0  0  0  0  0  0  0  0  0  0
    4.7664   -7.4953   -4.6177 H   0  0  0  0  0  0  0  0  0  0  0  0
    3.1620  -10.1233   -4.5078 H   0  0  0  0  0  0  0  0  0  0  0  0
    3.2395   -8.9715   -3.1922 H   0  0  0  0  0  0  0  0  0  0  0  0
    5.6609  -10.4535   -4.3621 H   0  0  0  0  0  0  0  0  0  0  0  0
    4.7482  -11.0318   -2.9942 H   0  0  0  0  0  0  0  0  0  0  0  0
    6.9167   -9.8374   -2.3545 H   0  0  0  0  0  0  0  0  0  0  0  0
    4.7408   -7.7031   -2.1123 H   0  0  0  0  0  0  0  0  0  0  0  0
    6.1332   -6.8437   -0.2929 H   0  0  0  0  0  0  0  0  0  0  0  0
    8.4583   -8.0777   -1.8530 H   0  0  0  0  0  0  0  0  0  0  0  0
    9.3569   -7.5985    0.5247 H   0  0  0  0  0  0  0  0  0  0  0  0
    8.2537   -6.2345    0.6266 H   0  0  0  0  0  0  0  0  0  0  0  0
   10.5675   -6.5090   -1.3861 H   0  0  0  0  0  0  0  0  0  0  0  0
   10.6549   -5.6725    0.1529 H   0  0  0  0  0  0  0  0  0  0  0  0
   10.3580   -3.9210   -1.3520 H   0  0  0  0  0  0  0  0  0  0  0  0
    8.7431   -4.1404   -0.7003 H   0  0  0  0  0  0  0  0  0  0  0  0
    8.1338   -5.4883   -2.7568 H   0  0  0  0  0  0  0  0  0  0  0  0
    9.7471   -5.2134   -3.3952 H   0  0  0  0  0  0  0  0  0  0  0  0
    7.6644   -3.0543   -2.8058 H   0  0  0  0  0  0  0  0  0  0  0  0
    8.0285   -3.7360   -4.3882 H   0  0  0  0  0  0  0  0  0  0  0  0
    9.4157   -1.9024   -4.6153 H   0  0  0  0  0  0  0  0  0  0  0  0
   10.5391   -2.9180   -3.7432 H   0  0  0  0  0  0  0  0  0  0  0  0
   10.7540   -1.0404   -2.4367 H   0  0  0  0  0  0  0  0  0  0  0  0
    9.3819   -1.7164   -1.5865 H   0  0  0  0  0  0  0  0  0  0  0  0
    9.2900    0.4585   -3.7547 H   0  0  0  0  0  0  0  0  0  0  0  0
    9.1797    0.7109   -2.0152 H   0  0  0  0  0  0  0  0  0  0  0  0
    6.9932    0.9443   -2.8813 H   0  0  0  0  0  0  0  0  0  0  0  0
    6.9988   -0.5967   -2.0185 H   0  0  0  0  0  0  0  0  0  0  0  0
    7.0256   -1.6021   -4.0612 H   0  0  0  0  0  0  0  0  0  0  0  0
  1 20  1  0  0  0  0
  1  2  1  0  0  0  0
  2  3  1  0  0  0  0
  2 22  1  0  0  0  0
  3 24  1  0  0  0  0
  3  4  1  0  0  0  0
  4 25  1  0  0  0  0
  4  5  2  0  0  0  0
  5  6  1  0  0  0  0
  6 27  1  0  0  0  0
  7  6  2  0  0  0  0
  7  8  1  0  0  0  0
  8 29  1  0  0  0  0
  8 30  1  0  0  0  0
  9  8  1  0  0  0  0
  9 32  1  0  0  0  0
 10 34  1  0  0  0  0
 10  9  1  0  0  0  0
 11 35  1  0  0  0  0
 11 10  1  0  0  0  0
 12 37  1  0  0  0  0
 12 11  1  0  0  0  0
 13 12  1  0  0  0  0
 13 14  1  0  0  0  0
 14 41  1  0  0  0  0
 14 42  1  0  0  0  0
 15 14  1  0  0  0  0
 15 44  1  0  0  0  0
 16 45  1  0  0  0  0
 16 15  1  0  0  0  0
 16 46  1  0  0  0  0
 17 47  1  0  0  0  0
 17 16  1  0  0  0  0
 18  1  1  0  0  0  0
 19  1  1  0  0  0  0
 21  2  1  0  0  0  0
 23  3  1  0  0  0  0
 26  5  1  0  0  0  0
 28  7  1  0  0  0  0
 31  9  1  0  0  0  0
 33 10  1  0  0  0  0
 36 11  1  0  0  0  0
 38 12  1  0  0  0  0
 39 13  1  0  0  0  0
 40 13  1  0  0  0  0
 43 15  1  0  0  0  0
M  END
>  <HBA>
1

>  <HBD>
1

>  <TPSA>
20.23

>  <cid>
13850

>  <dipole>
2.2

>  <excitation_energy_1>
4.932

>  <excitation_energy_2>
5.302

>  <excitation_energy_3>
5.433

>  <excitation_energy_4>
5.512

>  <homo_energy>
-5.758

>  <homo_lumo_gap>
5.38

>  <logP>
5.012

>  <lumo_energy>
-0.378

>  <melting_point>
4.99

>  <molecular_refractivity>
79.24

>  <oscillator_strength_1>
0.4463

>  <oscillator_strength_2>
0.0047

>  <oscillator_strength_3>
0.0106

>  <oscillator_strength_4>
0.0016

>  <open_babel_can_smiles>
CCC/C=C/C=C/CCCCCCCCCO

>  <mulliken_charges>
47
1   -0.442735
2   -0.254885
3   -0.296353
4   -0.104452
5   -0.126599
6   -0.146787
7   -0.07761
8   -0.305278
9   -0.262963
10   -0.250655
11   -0.268059
12   -0.290747
13   -0.270903
14   -0.26615
15   -0.26986
16   -0.035545
17   -0.632697
18   0.141867
19   0.140392
20   0.153508
21   0.132983
22   0.137531
23   0.139384
24   0.14685
25   0.120788
26   0.122921
27   0.117835
28   0.120931
29   0.143872
30   0.136592
31   0.129909
32   0.130856
33   0.136248
34   0.125262
35   0.151587
36   0.126427
37   0.127484
38   0.136241
39   0.145996
40   0.135686
41   0.132371
42   0.134911
43   0.14304
44   0.125089
45   0.142376
46   0.114706
47   0.408636

>  <lowdin_charges>
47
1   -0.449986
2   -0.276373
3   -0.275057
4   -0.154844
5   -0.179721
6   -0.175622
7   -0.158534
8   -0.27392
9   -0.27771
10   -0.280458
11   -0.282681
12   -0.290401
13   -0.290354
14   -0.281938
15   -0.295437
16   -0.137013
17   -0.47354
18   0.149752
19   0.146655
20   0.153051
21   0.145815
22   0.142498
23   0.149128
24   0.15316
25   0.149323
26   0.151751
27   0.14996
28   0.14894
29   0.153006
30   0.145904
31   0.141196
32   0.144922
33   0.143794
34   0.137762
35   0.15417
36   0.137907
37   0.135471
38   0.143837
39   0.147996
40   0.143711
41   0.143468
42   0.139904
43   0.146988
44   0.145246
45   0.14531
46   0.12319
47   0.339776

$$$$

