PCCDB-ID:  60526
public computational chemistry database (PCCDB) project, http://pccdb.org

 34 36  0  0  1  0  0  0  0  0999 V2000
    1.6965    0.7254    1.7969 C   0  0  0  0  0  0  0  0  0  0  0  0
   -0.6265    0.7082    2.3997 C   0  0  0  0  0  0  0  0  0  0  0  0
    2.0376    0.2482    3.0636 C   0  0  0  0  0  0  0  0  0  0  0  0
   -0.3028    0.2332    3.6667 C   0  0  0  0  0  0  0  0  0  0  0  0
   -2.8385    3.2073   -1.8479 C   0  0  0  0  0  0  0  0  0  0  0  0
   -2.0983    5.2619   -0.6027 C   0  0  0  0  0  0  0  0  0  0  0  0
   -2.9106    2.4592   -0.4795 C   0  0  0  0  0  0  0  0  0  0  0  0
   -2.2780    4.4358    0.7127 C   0  0  0  0  0  0  0  0  0  0  0  0
    0.0276    1.4783    0.0543 C   0  0  0  0  0  0  0  0  0  0  0  0
    0.3654    0.9639    1.4380 C   0  0  0  0  0  0  0  0  0  0  0  0
   -1.7314    4.2865   -1.7475 C   0  0  1  0  0  0  0  0  0  0  0  0
    1.0349   -0.0006    4.0036 C   0  0  0  0  0  0  0  0  0  0  0  0
   -0.5649    2.9035    0.0231 C   0  0  1  0  0  0  0  0  0  0  0  0
   -0.4510    3.5552   -1.3703 C   0  0  0  0  0  0  0  0  0  0  0  0
   -1.9604    3.0112    0.5060 N   0  0  2  0  0  0  0  0  0  0  0  0
    1.2974   -0.4711    5.2632 O   0  0  0  0  0  0  0  0  0  0  0  0
    0.5361    3.4754   -2.0754 O   0  0  0  0  0  0  0  0  0  0  0  0
    2.4876    0.9121    1.0740 H   0  0  0  0  0  0  0  0  0  0  0  0
   -1.6654    0.9031    2.1537 H   0  0  0  0  0  0  0  0  0  0  0  0
    3.0813    0.0681    3.3168 H   0  0  0  0  0  0  0  0  0  0  0  0
   -1.0721    0.0364    4.4072 H   0  0  0  0  0  0  0  0  0  0  0  0
   -3.7912    3.6951   -2.0889 H   0  0  0  0  0  0  0  0  0  0  0  0
   -2.6184    2.5142   -2.6678 H   0  0  0  0  0  0  0  0  0  0  0  0
   -1.3184    6.0231   -0.4890 H   0  0  0  0  0  0  0  0  0  0  0  0
   -3.0214    5.7917   -0.8681 H   0  0  0  0  0  0  0  0  0  0  0  0
   -2.7038    1.3925   -0.6058 H   0  0  0  0  0  0  0  0  0  0  0  0
   -3.9119    2.5348   -0.0424 H   0  0  0  0  0  0  0  0  0  0  0  0
   -3.3081    4.4995    1.0799 H   0  0  0  0  0  0  0  0  0  0  0  0
   -1.6285    4.8166    1.5081 H   0  0  0  0  0  0  0  0  0  0  0  0
   -0.6598    0.7885   -0.4531 H   0  0  0  0  0  0  0  0  0  0  0  0
    0.9340    1.5107   -0.5587 H   0  0  0  0  0  0  0  0  0  0  0  0
   -1.5874    4.8071   -2.6982 H   0  0  0  0  0  0  0  0  0  0  0  0
    0.0482    3.5179    0.6988 H   0  0  0  0  0  0  0  0  0  0  0  0
    2.2547   -0.5950    5.3568 H   0  0  0  0  0  0  0  0  0  0  0  0
  1  3  1  0  0  0  0
  2  4  2  0  0  0  0
  3 20  1  0  0  0  0
  3 12  2  0  0  0  0
  4 12  1  0  0  0  0
  4 21  1  0  0  0  0
  5 11  1  0  0  0  0
  5  7  1  0  0  0  0
  6 24  1  0  0  0  0
  6  8  1  0  0  0  0
  7 27  1  0  0  0  0
  8 28  1  0  0  0  0
  8 29  1  0  0  0  0
  9 10  1  0  0  0  0
 10  1  2  0  0  0  0
 10  2  1  0  0  0  0
 11 32  1  6  0  0  0
 11 14  1  0  0  0  0
 11  6  1  0  0  0  0
 12 16  1  0  0  0  0
 13  9  1  0  0  0  0
 13 15  1  0  0  0  0
 13 33  1  1  0  0  0
 14 13  1  0  0  0  0
 15  7  1  6  0  0  0
 15  8  1  0  0  0  0
 16 34  1  0  0  0  0
 17 14  2  0  0  0  0
 18  1  1  0  0  0  0
 19  2  1  0  0  0  0
 22  5  1  0  0  0  0
 23  5  1  0  0  0  0
 25  6  1  0  0  0  0
 26  7  1  0  0  0  0
 30  9  1  0  0  0  0
 31  9  1  0  0  0  0
M  END
>  <HBA>
3

>  <HBD>
1

>  <TPSA>
40.54

>  <cid>
60526

>  <dipole>
1.53

>  <excitation_energy_1>
3.697

>  <excitation_energy_2>
4.622

>  <excitation_energy_3>
4.846

>  <excitation_energy_4>
5.006

>  <homo_energy>
-5.551

>  <homo_lumo_gap>
5.08

>  <logP>
1.536

>  <lumo_energy>
-0.471

>  <melting_point>
112.66

>  <molecular_refractivity>
69.86

>  <oscillator_strength_1>
0.0017

>  <oscillator_strength_2>
0.0028

>  <oscillator_strength_3>
0.0212

>  <oscillator_strength_4>
0.0036

>  <open_babel_can_smiles>
O=C1[C@@H]2CCN([C@H]1Cc1ccc(cc1)O)CC2

>  <mulliken_charges>
34
1   -0.199165
2   -0.176324
3   -0.193569
4   -0.161231
5   -0.298341
6   -0.301378
7   -0.158461
8   -0.147466
9   -0.373964
10   0.161519
11   -0.17018
12   0.348772
13   -0.050848
14   0.451246
15   -0.389101
16   -0.645324
17   -0.462813
18   0.127997
19   0.143519
20   0.115001
21   0.135646
22   0.146285
23   0.155288
24   0.151974
25   0.145883
26   0.153982
27   0.148977
28   0.14554
29   0.153071
30   0.148634
31   0.173249
32   0.148315
33   0.167934
34   0.405332

>  <lowdin_charges>
34
1   -0.158757
2   -0.149261
3   -0.216442
4   -0.18823
5   -0.296424
6   -0.298987
7   -0.214352
8   -0.211845
9   -0.274408
10   -0.025605
11   -0.15598
12   0.100787
13   -0.100585
14   0.143313
15   -0.183408
16   -0.380801
17   -0.234831
18   0.157491
19   0.16404
20   0.150466
21   0.166253
22   0.150369
23   0.154197
24   0.152101
25   0.151187
26   0.147899
27   0.149502
28   0.146974
29   0.151597
30   0.15323
31   0.167436
32   0.159558
33   0.169517
34   0.353997

$$$$

