PCCDB-ID:  26307
public computational chemistry database (PCCDB) project, http://pccdb.org

 36 36  0  0  0  0  0  0  0  0999 V2000
    1.1119   -0.2730   -1.4690 C   0  0  0  0  0  0  0  0  0  0  0  0
    2.5728    0.0925   -1.7501 C   0  0  0  0  0  0  0  0  0  0  0  0
    3.0506    1.3170   -0.9593 C   0  0  0  0  0  0  0  0  0  0  0  0
    4.5135    1.6883   -1.2343 C   0  0  0  0  0  0  0  0  0  0  0  0
    4.9783    2.9182   -0.4427 C   0  0  0  0  0  0  0  0  0  0  0  0
   10.3176    4.9900   -0.8286 C   0  0  0  0  0  0  0  0  0  0  0  0
    9.0487    4.4143   -0.8032 C   0  0  0  0  0  0  0  0  0  0  0  0
    6.4330    3.2695   -0.7202 C   0  0  0  0  0  0  0  0  0  0  0  0
    9.5837    6.6698    0.7189 C   0  0  0  0  0  0  0  0  0  0  0  0
   10.6091    6.1295   -0.0653 C   0  0  0  0  0  0  0  0  0  0  0  0
    8.3030    6.1122    0.7617 C   0  0  0  0  0  0  0  0  0  0  0  0
    8.0362    4.9611   -0.0121 C   0  0  0  0  0  0  0  0  0  0  0  0
    7.3120    6.8236    1.6531 C   0  0  0  0  0  0  0  0  0  0  0  0
   11.8997    6.6731   -0.0383 N   0  0  0  0  0  0  0  0  0  0  0  0
    7.6190    7.8076    2.2918 O   0  0  0  0  0  0  0  0  0  0  0  0
    6.0592    6.3336    1.7205 O   0  0  0  0  0  0  0  0  0  0  0  0
    6.7643    4.4277    0.0535 O   0  0  0  0  0  0  0  0  0  0  0  0
    0.8012   -1.1497   -2.0484 H   0  0  0  0  0  0  0  0  0  0  0  0
    0.4390    0.5534   -1.7285 H   0  0  0  0  0  0  0  0  0  0  0  0
    0.9577   -0.5034   -0.4077 H   0  0  0  0  0  0  0  0  0  0  0  0
    2.7029    0.2825   -2.8250 H   0  0  0  0  0  0  0  0  0  0  0  0
    3.2171   -0.7662   -1.5131 H   0  0  0  0  0  0  0  0  0  0  0  0
    2.9200    1.1286    0.1164 H   0  0  0  0  0  0  0  0  0  0  0  0
    2.4070    2.1766   -1.1972 H   0  0  0  0  0  0  0  0  0  0  0  0
    4.6442    1.8741   -2.3105 H   0  0  0  0  0  0  0  0  0  0  0  0
    5.1572    0.8302   -0.9913 H   0  0  0  0  0  0  0  0  0  0  0  0
    4.8565    2.7394    0.6335 H   0  0  0  0  0  0  0  0  0  0  0  0
    4.3518    3.7840   -0.6942 H   0  0  0  0  0  0  0  0  0  0  0  0
   11.0919    4.5407   -1.4462 H   0  0  0  0  0  0  0  0  0  0  0  0
    8.8625    3.5343   -1.4073 H   0  0  0  0  0  0  0  0  0  0  0  0
    6.5886    3.4870   -1.7859 H   0  0  0  0  0  0  0  0  0  0  0  0
    7.0981    2.4419   -0.4383 H   0  0  0  0  0  0  0  0  0  0  0  0
    9.7548    7.5515    1.3289 H   0  0  0  0  0  0  0  0  0  0  0  0
   12.4391    6.5234   -0.8824 H   0  0  0  0  0  0  0  0  0  0  0  0
   11.9371    7.6438    0.2486 H   0  0  0  0  0  0  0  0  0  0  0  0
    5.9840    5.5456    1.1441 H   0  0  0  0  0  0  0  0  0  0  0  0
  1 20  1  0  0  0  0
  2 22  1  0  0  0  0
  2  1  1  0  0  0  0
  2  3  1  0  0  0  0
  3 23  1  0  0  0  0
  4 26  1  0  0  0  0
  4  3  1  0  0  0  0
  4  5  1  0  0  0  0
  5 27  1  0  0  0  0
  6  7  2  0  0  0  0
  6 10  1  0  0  0  0
  7 12  1  0  0  0  0
  8  5  1  0  0  0  0
  8 32  1  0  0  0  0
  8 17  1  0  0  0  0
  9 11  1  0  0  0  0
  9 33  1  0  0  0  0
 10 14  1  0  0  0  0
 10  9  2  0  0  0  0
 11 13  1  0  0  0  0
 12 17  1  0  0  0  0
 12 11  2  0  0  0  0
 13 16  1  0  0  0  0
 13 15  2  0  0  0  0
 14 35  1  0  0  0  0
 18  1  1  0  0  0  0
 19  1  1  0  0  0  0
 21  2  1  0  0  0  0
 24  3  1  0  0  0  0
 25  4  1  0  0  0  0
 28  5  1  0  0  0  0
 29  6  1  0  0  0  0
 30  7  1  0  0  0  0
 31  8  1  0  0  0  0
 34 14  1  0  0  0  0
 36 16  1  0  0  0  0
M  END
>  <HBA>
4

>  <HBD>
2

>  <TPSA>
72.55

>  <cid>
26307

>  <dipole>
6.75

>  <excitation_energy_1>
3.824

>  <excitation_energy_2>
4.668

>  <excitation_energy_3>
4.768

>  <excitation_energy_4>
5.126

>  <homo_energy>
-5.491

>  <homo_lumo_gap>
4.479

>  <logP>
3.507

>  <lumo_energy>
-1.012

>  <melting_point>
147.59

>  <molecular_refractivity>
68.33

>  <oscillator_strength_1>
0.0745

>  <oscillator_strength_2>
0.0

>  <oscillator_strength_3>
0.0057

>  <oscillator_strength_4>
0.0249

>  <open_babel_can_smiles>
CCCCCCOc1ccc(cc1C(=O)O)N

>  <mulliken_charges>
36
1   -0.442468
2   -0.248975
3   -0.246623
4   -0.265694
5   -0.28942
6   -0.173718
7   -0.194973
8   -0.024683
9   -0.231035
10   0.321647
11   -0.010991
12   0.338308
13   0.572519
14   -0.790801
15   -0.468547
16   -0.60489
17   -0.589232
18   0.144755
19   0.144
20   0.144112
21   0.131792
22   0.131984
23   0.133612
24   0.133387
25   0.13419
26   0.134558
27   0.154785
28   0.153728
29   0.12691
30   0.139835
31   0.147091
32   0.148508
33   0.164318
34   0.318622
35   0.325311
36   0.438076

>  <lowdin_charges>
36
1   -0.444058
2   -0.270909
3   -0.271821
4   -0.27305
5   -0.280814
6   -0.176504
7   -0.197367
8   -0.123526
9   -0.160464
10   0.047629
11   -0.075949
12   0.084385
13   0.19367
14   -0.488353
15   -0.263828
16   -0.364666
17   -0.221962
18   0.151626
19   0.148441
20   0.146371
21   0.137712
22   0.14018
23   0.13916
24   0.141421
25   0.13901
26   0.141573
27   0.150703
28   0.152495
29   0.159027
30   0.166116
31   0.140729
32   0.144151
33   0.179779
34   0.274804
35   0.276723
36   0.357567

$$$$

