PCCDB-ID:  33142
public computational chemistry database (PCCDB) project, http://pccdb.org

 35 36  0  0  0  0  0  0  0  0999 V2000
   -1.3965   -0.1782   -1.1193 C   0  0  0  0  0  0  0  0  0  0  0  0
    7.4529   -6.9120    1.4985 C   0  0  0  0  0  0  0  0  0  0  0  0
   -0.6603   -0.2984    0.0627 C   0  0  0  0  0  0  0  0  0  0  0  0
   -0.7298   -0.0348   -2.3358 C   0  0  0  0  0  0  0  0  0  0  0  0
    7.8971   -5.8910    2.3388 C   0  0  0  0  0  0  0  0  0  0  0  0
    6.7368   -6.5907    0.3423 C   0  0  0  0  0  0  0  0  0  0  0  0
    0.7328   -0.2711    0.0266 C   0  0  0  0  0  0  0  0  0  0  0  0
    0.6665   -0.0112   -2.3694 C   0  0  0  0  0  0  0  0  0  0  0  0
    7.6256   -4.5577    2.0236 C   0  0  0  0  0  0  0  0  0  0  0  0
    6.4720   -5.2583    0.0282 C   0  0  0  0  0  0  0  0  0  0  0  0
    2.9257   -0.0758   -1.2271 C   0  0  0  0  0  0  0  0  0  0  0  0
    6.6592   -2.7730    0.5127 C   0  0  0  0  0  0  0  0  0  0  0  0
    1.4120   -0.1251   -1.1915 C   0  0  0  0  0  0  0  0  0  0  0  0
    6.9159   -4.2240    0.8647 C   0  0  0  0  0  0  0  0  0  0  0  0
    4.8946   -1.3251   -0.3938 C   0  0  0  0  0  0  0  0  0  0  0  0
    5.7837   -0.4399   -0.6676 N   0  0  0  0  0  0  0  0  0  0  0  0
    3.5042   -1.2323   -0.5520 N   0  0  0  0  0  0  0  0  0  0  0  0
    5.2625   -2.5587    0.1403 N   0  0  0  0  0  0  0  0  0  0  0  0
   -2.4826   -0.1996   -1.0907 H   0  0  0  0  0  0  0  0  0  0  0  0
    7.6599   -7.9506    1.7426 H   0  0  0  0  0  0  0  0  0  0  0  0
   -1.1734   -0.4106    1.0143 H   0  0  0  0  0  0  0  0  0  0  0  0
   -1.2937    0.0534   -3.2607 H   0  0  0  0  0  0  0  0  0  0  0  0
    8.4507   -6.1302    3.2431 H   0  0  0  0  0  0  0  0  0  0  0  0
    6.3867   -7.3807   -0.3175 H   0  0  0  0  0  0  0  0  0  0  0  0
    1.3058   -0.3677    0.9450 H   0  0  0  0  0  0  0  0  0  0  0  0
    1.1825    0.0958   -3.3211 H   0  0  0  0  0  0  0  0  0  0  0  0
    7.9694   -3.7656    2.6853 H   0  0  0  0  0  0  0  0  0  0  0  0
    5.9111   -5.0081   -0.8682 H   0  0  0  0  0  0  0  0  0  0  0  0
    3.2813    0.8207   -0.7021 H   0  0  0  0  0  0  0  0  0  0  0  0
    3.2672    0.0137   -2.2717 H   0  0  0  0  0  0  0  0  0  0  0  0
    7.2641   -2.4639   -0.3460 H   0  0  0  0  0  0  0  0  0  0  0  0
    6.9647   -2.1217    1.3451 H   0  0  0  0  0  0  0  0  0  0  0  0
    5.3829    0.3490   -1.1739 H   0  0  0  0  0  0  0  0  0  0  0  0
    3.0729   -2.1108   -0.8203 H   0  0  0  0  0  0  0  0  0  0  0  0
    4.6012   -2.9183    0.8202 H   0  0  0  0  0  0  0  0  0  0  0  0
  1 19  1  0  0  0  0
  1  3  2  0  0  0  0
  2 20  1  0  0  0  0
  2  5  2  0  0  0  0
  3 21  1  0  0  0  0
  4  1  1  0  0  0  0
  5 23  1  0  0  0  0
  6  2  1  0  0  0  0
  7  3  1  0  0  0  0
  7 25  1  0  0  0  0
  8  4  2  0  0  0  0
  8 13  1  0  0  0  0
  9  5  1  0  0  0  0
  9 27  1  0  0  0  0
 10  6  2  0  0  0  0
 10 14  1  0  0  0  0
 11 13  1  0  0  0  0
 11 29  1  0  0  0  0
 11 17  1  0  0  0  0
 12 14  1  0  0  0  0
 12 32  1  0  0  0  0
 13  7  2  0  0  0  0
 14  9  2  0  0  0  0
 15 18  1  0  0  0  0
 16 15  2  0  0  0  0
 17 15  1  0  0  0  0
 18 12  1  0  0  0  0
 18 35  1  0  0  0  0
 22  4  1  0  0  0  0
 24  6  1  0  0  0  0
 26  8  1  0  0  0  0
 28 10  1  0  0  0  0
 30 11  1  0  0  0  0
 31 12  1  0  0  0  0
 33 16  1  0  0  0  0
 34 17  1  0  0  0  0
M  END
>  <HBA>
3

>  <HBD>
2

>  <TPSA>
50.41

>  <cid>
33142

>  <dipole>
2.98

>  <excitation_energy_1>
5.143

>  <excitation_energy_2>
5.245

>  <excitation_energy_3>
5.247

>  <excitation_energy_4>
5.315

>  <homo_energy>
-6.071

>  <homo_lumo_gap>
5.802

>  <logP>
3.382

>  <lumo_energy>
-0.269

>  <melting_point>
135.51

>  <molecular_refractivity>
74.7

>  <oscillator_strength_1>
0.0007

>  <oscillator_strength_2>
0.0043

>  <oscillator_strength_3>
0.0017

>  <oscillator_strength_4>
0.0025

>  <open_babel_can_smiles>
N=C(NCc1ccccc1)NCc1ccccc1

>  <mulliken_charges>
35
1   -0.12757
2   -0.129734
3   -0.130746
4   -0.128478
5   -0.127817
6   -0.130486
7   -0.161955
8   -0.184382
9   -0.1882
10   -0.165482
11   -0.203776
12   -0.17304
13   0.123487
14   0.127043
15   0.654466
16   -0.673213
17   -0.627284
18   -0.63345
19   0.13209
20   0.1274
21   0.132861
22   0.132563
23   0.128288
24   0.127592
25   0.139532
26   0.128319
27   0.12631
28   0.134418
29   0.170033
30   0.144053
31   0.19052
32   0.147101
33   0.282579
34   0.320711
35   0.316249

>  <lowdin_charges>
35
1   -0.153139
2   -0.159017
3   -0.15414
4   -0.155259
5   -0.155617
6   -0.1577
7   -0.159088
8   -0.166748
9   -0.169002
10   -0.161059
11   -0.194699
12   -0.188032
13   -0.01656
14   -0.01597
15   0.124099
16   -0.479966
17   -0.32647
18   -0.313698
19   0.156843
20   0.155446
21   0.15906
22   0.159477
23   0.157044
24   0.157485
25   0.163512
26   0.156539
27   0.156792
28   0.160916
29   0.159836
30   0.13541
31   0.175555
32   0.143846
33   0.252623
34   0.277229
35   0.274453

$$$$

