PCCDB-ID:  11074
public computational chemistry database (PCCDB) project, http://pccdb.org

 19 20  0  0  0  0  0  0  0  0999 V2000
    1.2367    0.0949   -0.0285 C   0  0  0  0  0  0  0  0  0  0  0  0
    7.3079   -0.1054    0.0532 C   0  0  0  0  0  0  0  0  0  0  0  0
    7.0993   -1.4903    0.0421 C   0  0  0  0  0  0  0  0  0  0  0  0
    6.2286    0.7885    0.0456 C   0  0  0  0  0  0  0  0  0  0  0  0
    5.8047   -2.0268    0.0228 C   0  0  0  0  0  0  0  0  0  0  0  0
    4.9519    0.2471    0.0258 C   0  0  0  0  0  0  0  0  0  0  0  0
    4.7438   -1.1338    0.0147 C   0  0  0  0  0  0  0  0  0  0  0  0
    3.6197    0.9227    0.0100 C   0  0  0  0  0  0  0  0  0  0  0  0
    3.2710   -1.3838   -0.0078 C   0  0  0  0  0  0  0  0  0  0  0  0
    2.6726   -0.1151   -0.0099 N   0  0  0  0  0  0  0  0  0  0  0  0
    3.3646    2.1105    0.0115 O   0  0  0  0  0  0  0  0  0  0  0  0
    2.6699   -2.4394   -0.0232 O   0  0  0  0  0  0  0  0  0  0  0  0
    1.0624    1.1676   -0.1247 H   0  0  0  0  0  0  0  0  0  0  0  0
    0.7807   -0.2719    0.8964 H   0  0  0  0  0  0  0  0  0  0  0  0
    0.7895   -0.4365   -0.8730 H   0  0  0  0  0  0  0  0  0  0  0  0
    8.3234    0.2802    0.0679 H   0  0  0  0  0  0  0  0  0  0  0  0
    7.9562   -2.1581    0.0483 H   0  0  0  0  0  0  0  0  0  0  0  0
    6.3784    1.8637    0.0536 H   0  0  0  0  0  0  0  0  0  0  0  0
    5.6318   -3.0986    0.0134 H   0  0  0  0  0  0  0  0  0  0  0  0
  1 10  1  0  0  0  0
  1 14  1  0  0  0  0
  2 16  1  0  0  0  0
  3 17  1  0  0  0  0
  3  2  2  0  0  0  0
  4  2  1  0  0  0  0
  4 18  1  0  0  0  0
  5  3  1  0  0  0  0
  6  4  2  0  0  0  0
  7  5  2  0  0  0  0
  7  6  1  0  0  0  0
  8 11  2  0  0  0  0
  8  6  1  0  0  0  0
  9  7  1  0  0  0  0
 10  9  1  0  0  0  0
 10  8  1  0  0  0  0
 12  9  2  0  0  0  0
 13  1  1  0  0  0  0
 15  1  1  0  0  0  0
 19  5  1  0  0  0  0
M  END
>  <HBA>
3

>  <HBD>
0

>  <TPSA>
37.38

>  <cid>
11074

>  <dipole>
2.33

>  <excitation_energy_1>
3.819

>  <excitation_energy_2>
4.125

>  <excitation_energy_3>
4.401

>  <excitation_energy_4>
4.545

>  <homo_energy>
-7.238

>  <homo_lumo_gap>
5.05

>  <logP>
0.85

>  <lumo_energy>
-2.188

>  <melting_point>
99.99

>  <molecular_refractivity>
46.72

>  <oscillator_strength_1>
0.0001

>  <oscillator_strength_2>
0.0001

>  <oscillator_strength_3>
0.0

>  <oscillator_strength_4>
0.0438

>  <open_babel_can_smiles>
CN1C(=O)c2c(C1=O)cccc2

>  <mulliken_charges>
19
1   -0.322436
2   -0.128563
3   -0.12855
4   -0.180339
5   -0.180747
6   0.042593
7   0.047441
8   0.573727
9   0.56932
10   -0.518093
11   -0.477989
12   -0.478739
13   0.194572
14   0.179041
15   0.181552
16   0.14783
17   0.147835
18   0.165837
19   0.165707

>  <lowdin_charges>
19
1   -0.347565
2   -0.138729
3   -0.140149
4   -0.126916
5   -0.127588
6   -0.036687
7   -0.036697
8   0.167421
9   0.170482
10   -0.089923
11   -0.246477
12   -0.247052
13   0.178757
14   0.166184
15   0.169676
16   0.166061
17   0.167557
18   0.175829
19   0.175816

$$$$

