PCCDB-ID:  62166
public computational chemistry database (PCCDB) project, http://pccdb.org

 22 21  0  0  1  0  0  0  0  0999 V2000
    1.6548   -1.3623    1.1683 C   0  0  0  0  0  0  0  0  0  0  0  0
    8.0204   -1.9123    0.1071 C   0  0  0  0  0  0  0  0  0  0  0  0
    3.6835    0.4633   -2.6420 C   0  0  0  0  0  0  0  0  0  0  0  0
    2.5317   -0.6553    0.5042 C   0  0  0  0  0  0  0  0  0  0  0  0
    7.6111   -1.6324   -1.3306 C   0  0  0  0  0  0  0  0  0  0  0  0
    3.4106    0.0442   -0.1661 C   0  0  0  0  0  0  0  0  0  0  0  0
    4.0793   -0.4290   -1.4470 C   0  0  2  0  0  0  0  0  0  0  0  0
    5.5928   -0.3669   -1.2581 C   0  0  0  0  0  0  0  0  0  0  0  0
    6.2006    0.6441   -0.9728 O   0  0  0  0  0  0  0  0  0  0  0  0
    6.1686   -1.5706   -1.4624 O   0  0  0  0  0  0  0  0  0  0  0  0
    0.5890   -1.2982    0.9560 H   0  0  0  0  0  0  0  0  0  0  0  0
    1.9557   -2.0423    1.9634 H   0  0  0  0  0  0  0  0  0  0  0  0
    9.1086   -2.0294    0.1671 H   0  0  0  0  0  0  0  0  0  0  0  0
    7.5542   -2.8324    0.4743 H   0  0  0  0  0  0  0  0  0  0  0  0
    7.7289   -1.0839    0.7592 H   0  0  0  0  0  0  0  0  0  0  0  0
    2.5983    0.4432   -2.7808 H   0  0  0  0  0  0  0  0  0  0  0  0
    4.1584    0.1143   -3.5661 H   0  0  0  0  0  0  0  0  0  0  0  0
    3.9954    1.4973   -2.4653 H   0  0  0  0  0  0  0  0  0  0  0  0
    7.9079   -2.4456   -1.9979 H   0  0  0  0  0  0  0  0  0  0  0  0
    8.0374   -0.6926   -1.6889 H   0  0  0  0  0  0  0  0  0  0  0  0
    3.7064    1.0329    0.1854 H   0  0  0  0  0  0  0  0  0  0  0  0
    3.7932   -1.4648   -1.6454 H   0  0  0  0  0  0  0  0  0  0  0  0
  1 12  1  0  0  0  0
  2 13  1  0  0  0  0
  2 14  1  0  0  0  0
  2 15  1  0  0  0  0
  3 18  1  0  0  0  0
  3  7  1  0  0  0  0
  4  1  2  0  0  0  0
  5  2  1  0  0  0  0
  6 21  1  0  0  0  0
  6  4  2  0  0  0  0
  7 22  1  6  0  0  0
  7  8  1  0  0  0  0
  7  6  1  0  0  0  0
  8  9  2  0  0  0  0
 10  5  1  0  0  0  0
 10  8  1  0  0  0  0
 11  1  1  0  0  0  0
 16  3  1  0  0  0  0
 17  3  1  0  0  0  0
 19  5  1  0  0  0  0
 20  5  1  0  0  0  0
M  END
>  <HBA>
2

>  <HBD>
0

>  <TPSA>
26.3

>  <cid>
62166

>  <dipole>
1.64

>  <excitation_energy_1>
5.437

>  <excitation_energy_2>
5.745

>  <excitation_energy_3>
5.936

>  <excitation_energy_4>
6.353

>  <homo_energy>
-6.814

>  <homo_lumo_gap>
6.784

>  <logP>
1.527

>  <lumo_energy>
-0.03

>  <melting_point>
-35.38

>  <molecular_refractivity>
40.09

>  <oscillator_strength_1>
0.022

>  <oscillator_strength_2>
0.0076

>  <oscillator_strength_3>
0.0018

>  <oscillator_strength_4>
0.0422

>  <open_babel_can_smiles>
C[C@@H](C(=O)OCC)C=C=C

>  <mulliken_charges>
22
1   -0.530998
2   -0.460432
3   -0.45013
4   0.345353
5   -0.048979
6   -0.308688
7   -0.19571
8   0.633201
9   -0.487394
10   -0.457646
11   0.166122
12   0.167046
13   0.15056
14   0.158803
15   0.17634
16   0.158191
17   0.152939
18   0.170325
19   0.152941
20   0.172244
21   0.173519
22   0.162393

>  <lowdin_charges>
22
1   -0.36118
2   -0.453017
3   -0.433338
4   -0.003647
5   -0.128924
6   -0.185882
7   -0.130769
8   0.200874
9   -0.275942
10   -0.191666
11   0.175289
12   0.17798
13   0.157176
14   0.157232
15   0.16634
16   0.156475
17   0.154846
18   0.161307
19   0.153313
20   0.160087
21   0.180153
22   0.163293

$$$$

