PCCDB-ID:  43551
public computational chemistry database (PCCDB) project, http://pccdb.org

 34 35  0  0  0  0  0  0  0  0999 V2000
    0.8492   -0.6478   -0.6567 C   0  0  0  0  0  0  0  0  0  0  0  0
    2.2140    3.5246    1.8574 C   0  0  0  0  0  0  0  0  0  0  0  0
    2.3475   -0.3056   -0.5469 C   0  0  0  0  0  0  0  0  0  0  0  0
    2.2991    2.1849    1.1198 C   0  0  0  0  0  0  0  0  0  0  0  0
    4.1554    7.3485   -4.1732 C   0  0  0  0  0  0  0  0  0  0  0  0
    3.1421    7.2412   -3.2189 C   0  0  0  0  0  0  0  0  0  0  0  0
    4.8837    6.2121   -4.5302 C   0  0  0  0  0  0  0  0  0  0  0  0
    2.8598    6.0101   -2.6288 C   0  0  0  0  0  0  0  0  0  0  0  0
    4.6020    4.9820   -3.9377 C   0  0  0  0  0  0  0  0  0  0  0  0
    3.0416    1.1396   -2.4799 C   0  0  0  0  0  0  0  0  0  0  0  0
    3.3308    2.3570   -3.0901 C   0  0  0  0  0  0  0  0  0  0  0  0
    2.9413    3.4557   -0.9893 C   0  0  0  0  0  0  0  0  0  0  0  0
    2.6924    1.0527   -1.1278 C   0  0  0  0  0  0  0  0  0  0  0  0
    2.6449    2.2416   -0.3628 C   0  0  0  0  0  0  0  0  0  0  0  0
    3.5843    4.8569   -2.9764 C   0  0  0  0  0  0  0  0  0  0  0  0
    3.2826    3.5447   -2.3493 C   0  0  0  0  0  0  0  0  0  0  0  0
    0.6434   -1.6407   -0.2402 H   0  0  0  0  0  0  0  0  0  0  0  0
    0.5263   -0.6438   -1.7036 H   0  0  0  0  0  0  0  0  0  0  0  0
    0.2300    0.0788   -0.1189 H   0  0  0  0  0  0  0  0  0  0  0  0
    1.9454    3.3577    2.9060 H   0  0  0  0  0  0  0  0  0  0  0  0
    1.4534    4.1813    1.4200 H   0  0  0  0  0  0  0  0  0  0  0  0
    3.1699    4.0598    1.8422 H   0  0  0  0  0  0  0  0  0  0  0  0
    2.9223   -1.0746   -1.0779 H   0  0  0  0  0  0  0  0  0  0  0  0
    2.6556   -0.3672    0.5030 H   0  0  0  0  0  0  0  0  0  0  0  0
    1.3427    1.6589    1.2421 H   0  0  0  0  0  0  0  0  0  0  0  0
    3.0393    1.5532    1.6321 H   0  0  0  0  0  0  0  0  0  0  0  0
    4.3749    8.3077   -4.6343 H   0  0  0  0  0  0  0  0  0  0  0  0
    2.5624    8.1171   -2.9390 H   0  0  0  0  0  0  0  0  0  0  0  0
    5.6798    6.2841   -5.2668 H   0  0  0  0  0  0  0  0  0  0  0  0
    2.0500    5.9332   -1.9085 H   0  0  0  0  0  0  0  0  0  0  0  0
    5.1932    4.1101   -4.2037 H   0  0  0  0  0  0  0  0  0  0  0  0
    3.0779    0.2271   -3.0721 H   0  0  0  0  0  0  0  0  0  0  0  0
    3.5682    2.3873   -4.1498 H   0  0  0  0  0  0  0  0  0  0  0  0
    2.9351    4.3689   -0.4040 H   0  0  0  0  0  0  0  0  0  0  0  0
  1  3  1  0  0  0  0
  1 17  1  0  0  0  0
  1 19  1  0  0  0  0
  2 20  1  0  0  0  0
  3 24  1  0  0  0  0
  4 25  1  0  0  0  0
  4 26  1  0  0  0  0
  4  2  1  0  0  0  0
  5  6  1  0  0  0  0
  6 28  1  0  0  0  0
  6  8  2  0  0  0  0
  7  5  2  0  0  0  0
  7  9  1  0  0  0  0
  8 30  1  0  0  0  0
  9 15  2  0  0  0  0
 10 13  1  0  0  0  0
 11 10  2  0  0  0  0
 11 16  1  0  0  0  0
 12 34  1  0  0  0  0
 12 14  1  0  0  0  0
 13  3  1  0  0  0  0
 13 14  2  0  0  0  0
 14  4  1  0  0  0  0
 15  8  1  0  0  0  0
 15 16  1  0  0  0  0
 16 12  2  0  0  0  0
 18  1  1  0  0  0  0
 21  2  1  0  0  0  0
 22  2  1  0  0  0  0
 23  3  1  0  0  0  0
 27  5  1  0  0  0  0
 29  7  1  0  0  0  0
 31  9  1  0  0  0  0
 32 10  1  0  0  0  0
 33 11  1  0  0  0  0
M  END
>  <HBA>
0

>  <HBD>
0

>  <TPSA>
0.0

>  <cid>
43551

>  <dipole>
0.77

>  <excitation_energy_1>
4.706

>  <excitation_energy_2>
4.804

>  <excitation_energy_3>
4.886

>  <excitation_energy_4>
5.406

>  <homo_energy>
-5.788

>  <homo_lumo_gap>
5.216

>  <logP>
4.478

>  <lumo_energy>
-0.571

>  <melting_point>
48.94

>  <molecular_refractivity>
71.42

>  <oscillator_strength_1>
0.5064

>  <oscillator_strength_2>
0.0282

>  <oscillator_strength_3>
0.0056

>  <oscillator_strength_4>
0.0028

>  <open_babel_can_smiles>
CCc1cc(ccc1CC)c1ccccc1

>  <mulliken_charges>
34
1   -0.438276
2   -0.452907
3   -0.340983
4   -0.344682
5   -0.127681
6   -0.134248
7   -0.133884
8   -0.173482
9   -0.174167
10   -0.189926
11   -0.177492
12   -0.251049
13   0.120397
14   0.127701
15   0.087518
16   0.098666
17   0.143216
18   0.150952
19   0.150503
20   0.145207
21   0.15019
22   0.153861
23   0.142663
24   0.141883
25   0.152224
26   0.153457
27   0.127462
28   0.128165
29   0.128329
30   0.130231
31   0.13069
32   0.119718
33   0.127705
34   0.128042

>  <lowdin_charges>
34
1   -0.44066
2   -0.446159
3   -0.274092
4   -0.275845
5   -0.160277
6   -0.156585
7   -0.154759
8   -0.162351
9   -0.163681
10   -0.165766
11   -0.16388
12   -0.176553
13   -0.010675
14   -0.009893
15   0.000312
16   -0.005829
17   0.148682
18   0.150195
19   0.150129
20   0.152014
21   0.15137
22   0.151447
23   0.150845
24   0.147437
25   0.152015
26   0.153783
27   0.156845
28   0.157584
29   0.15724
30   0.158533
31   0.159251
32   0.153324
33   0.155934
34   0.160065

$$$$

