PCCDB-ID:  11318
public computational chemistry database (PCCDB) project, http://pccdb.org

 20 21  0  0  0  0  0  0  0  0999 V2000
    2.4271    0.7508   -0.0014 C   0  0  0  0  0  0  0  0  0  0  0  0
    2.4554   -0.6641    0.0474 C   0  0  0  0  0  0  0  0  0  0  0  0
    1.2202    1.4091   -0.0325 C   0  0  0  0  0  0  0  0  0  0  0  0
    1.2836   -1.3854    0.0648 C   0  0  0  0  0  0  0  0  0  0  0  0
   -1.2588    1.3666   -0.0478 C   0  0  0  0  0  0  0  0  0  0  0  0
   -2.4329    0.6474   -0.0287 C   0  0  0  0  0  0  0  0  0  0  0  0
   -0.0107    0.6995   -0.0160 C   0  0  0  0  0  0  0  0  0  0  0  0
    0.0157   -0.7374    0.0352 C   0  0  0  0  0  0  0  0  0  0  0  0
   -2.4240   -0.7628    0.0229 C   0  0  0  0  0  0  0  0  0  0  0  0
   -1.2168   -1.4516    0.0544 C   0  0  0  0  0  0  0  0  0  0  0  0
   -3.5756   -1.5015    0.0463 O   0  0  0  0  0  0  0  0  0  0  0  0
   -1.2928   -2.8157    0.1038 O   0  0  0  0  0  0  0  0  0  0  0  0
    3.3584    1.3097   -0.0141 H   0  0  0  0  0  0  0  0  0  0  0  0
    3.4091   -1.1840    0.0712 H   0  0  0  0  0  0  0  0  0  0  0  0
    1.1871    2.4956   -0.0708 H   0  0  0  0  0  0  0  0  0  0  0  0
    1.3521   -2.4713    0.1012 H   0  0  0  0  0  0  0  0  0  0  0  0
   -1.2812    2.4520   -0.0876 H   0  0  0  0  0  0  0  0  0  0  0  0
   -3.3922    1.1622   -0.0531 H   0  0  0  0  0  0  0  0  0  0  0  0
   -4.3297   -0.8939    0.0026 H   0  0  0  0  0  0  0  0  0  0  0  0
   -0.3988   -3.1853    0.1287 H   0  0  0  0  0  0  0  0  0  0  0  0
  1  2  2  0  0  0  0
  2  4  1  0  0  0  0
  2 14  1  0  0  0  0
  3  7  2  0  0  0  0
  3  1  1  0  0  0  0
  4 16  1  0  0  0  0
  5  6  2  0  0  0  0
  5  7  1  0  0  0  0
  6  9  1  0  0  0  0
  7  8  1  0  0  0  0
  8 10  1  0  0  0  0
  8  4  2  0  0  0  0
  9 11  1  0  0  0  0
  9 10  2  0  0  0  0
 10 12  1  0  0  0  0
 12 20  1  0  0  0  0
 13  1  1  0  0  0  0
 15  3  1  0  0  0  0
 17  5  1  0  0  0  0
 18  6  1  0  0  0  0
 19 11  1  0  0  0  0
M  END
>  <HBA>
2

>  <HBD>
2

>  <TPSA>
40.46

>  <cid>
11318

>  <dipole>
1.36

>  <excitation_energy_1>
3.741

>  <excitation_energy_2>
4.279

>  <excitation_energy_3>
4.501

>  <excitation_energy_4>
4.699

>  <homo_energy>
-5.148

>  <homo_lumo_gap>
4.261

>  <logP>
2.251

>  <lumo_energy>
-0.887

>  <melting_point>
129.6

>  <molecular_refractivity>
47.99

>  <oscillator_strength_1>
0.0565

>  <oscillator_strength_2>
0.0203

>  <oscillator_strength_3>
0.0022

>  <oscillator_strength_4>
0.0

>  <open_babel_can_smiles>
Oc1ccc2c(c1O)cccc2

>  <mulliken_charges>
20
1   -0.137521
2   -0.135461
3   -0.195414
4   -0.21438
5   -0.205343
6   -0.194534
7   0.138149
8   0.12261
9   0.321066
10   0.198851
11   -0.633926
12   -0.636625
13   0.12925
14   0.129726
15   0.12994
16   0.110133
17   0.128974
18   0.1209
19   0.406629
20   0.416977

>  <lowdin_charges>
20
1   -0.167756
2   -0.155262
3   -0.147313
4   -0.172071
5   -0.168409
6   -0.195242
7   -0.004319
8   -0.031518
9   0.069705
10   0.070107
11   -0.371031
12   -0.369342
13   0.159034
14   0.158808
15   0.155788
16   0.143692
17   0.157095
18   0.155198
19   0.358253
20   0.354581

$$$$

