PCCDB-ID:  73480
public computational chemistry database (PCCDB) project, http://pccdb.org

 22 23  0  0  1  0  0  0  0  0999 V2000
    1.1736    0.7172   -0.9221 C   0  0  0  0  0  0  0  0  0  0  0  0
    1.1382   -0.8414   -0.8729 C   0  0  0  0  0  0  0  0  0  0  0  0
   -1.2285    1.2951   -0.1317 C   0  0  0  0  0  0  0  0  0  0  0  0
   -1.2851   -1.2599   -0.0525 C   0  0  0  0  0  0  0  0  0  0  0  0
    0.2530    1.1437    0.2603 C   0  0  1  0  0  0  0  0  0  0  0  0
    0.2017   -1.1497    0.3335 C   0  0  2  0  0  0  0  0  0  0  0  0
   -1.8348    0.0106   -0.7431 C   0  0  2  0  0  0  0  0  0  0  0  0
    0.3284    0.0245    1.2264 N   0  0  0  0  0  0  0  0  0  0  0  0
   -1.6934   -0.0363   -2.1706 O   0  0  0  0  0  0  0  0  0  0  0  0
    0.8555    1.1390   -1.8827 H   0  0  0  0  0  0  0  0  0  0  0  0
    2.1935    1.0799   -0.7521 H   0  0  0  0  0  0  0  0  0  0  0  0
    0.7988   -1.3089   -1.8047 H   0  0  0  0  0  0  0  0  0  0  0  0
    2.1409   -1.2393   -0.6813 H   0  0  0  0  0  0  0  0  0  0  0  0
   -1.3693    2.1178   -0.8425 H   0  0  0  0  0  0  0  0  0  0  0  0
   -1.7798    1.5469    0.7822 H   0  0  0  0  0  0  0  0  0  0  0  0
   -1.8482   -1.4337    0.8720 H   0  0  0  0  0  0  0  0  0  0  0  0
   -1.4597   -2.1169   -0.7139 H   0  0  0  0  0  0  0  0  0  0  0  0
    0.5979    2.0681    0.7353 H   0  0  0  0  0  0  0  0  0  0  0  0
    0.5058   -2.0561    0.8673 H   0  0  0  0  0  0  0  0  0  0  0  0
   -2.9206    0.0394   -0.6068 H   0  0  0  0  0  0  0  0  0  0  0  0
    1.2610    0.0167    1.6438 H   0  0  0  0  0  0  0  0  0  0  0  0
   -0.7509   -0.0725   -2.3855 H   0  0  0  0  0  0  0  0  0  0  0  0
  1  2  1  0  0  0  0
  1 11  1  0  0  0  0
  1  5  1  0  0  0  0
  2 13  1  0  0  0  0
  2  6  1  0  0  0  0
  3  5  1  0  0  0  0
  3 15  1  0  0  0  0
  4  6  1  0  0  0  0
  4 16  1  0  0  0  0
  5 18  1  1  0  0  0
  5  8  1  0  0  0  0
  6 19  1  1  0  0  0
  6  8  1  0  0  0  0
  7 20  1  1  0  0  0
  7  3  1  0  0  0  0
  7  4  1  0  0  0  0
  8 21  1  0  0  0  0
  9  7  1  0  0  0  0
 10  1  1  0  0  0  0
 12  2  1  0  0  0  0
 14  3  1  0  0  0  0
 17  4  1  0  0  0  0
 22  9  1  0  0  0  0
M  END
>  <HBA>
2

>  <HBD>
2

>  <TPSA>
32.26

>  <cid>
73480

>  <dipole>
2.38

>  <excitation_energy_1>
5.38

>  <excitation_energy_2>
6.259

>  <excitation_energy_3>
6.27

>  <excitation_energy_4>
6.394

>  <homo_energy>
-6.27

>  <homo_lumo_gap>
7.75

>  <logP>
0.591

>  <lumo_energy>
1.48

>  <melting_point>
63.73

>  <molecular_refractivity>
39.41

>  <oscillator_strength_1>
0.0227

>  <oscillator_strength_2>
0.0028

>  <oscillator_strength_3>
0.0003

>  <oscillator_strength_4>
0.02

>  <open_babel_can_smiles>
O[C@@H]1C[C@@H]2CC[C@H](C1)N2

>  <mulliken_charges>
22
1   -0.304212
2   -0.305007
3   -0.263447
4   -0.264489
5   -0.005779
6   -0.005372
7   0.119423
8   -0.52663
9   -0.642496
10   0.137535
11   0.13968
12   0.137151
13   0.139826
14   0.141399
15   0.144005
16   0.144269
17   0.141303
18   0.126051
19   0.126133
20   0.136245
21   0.288491
22   0.395922

>  <lowdin_charges>
22
1   -0.311706
2   -0.312368
3   -0.299923
4   -0.299863
5   -0.076504
6   -0.076628
7   0.00099
8   -0.358734
9   -0.473205
10   0.143033
11   0.147232
12   0.143039
13   0.147514
14   0.150728
15   0.155219
16   0.155192
17   0.150547
18   0.143968
19   0.144117
20   0.144743
21   0.247385
22   0.335225

$$$$

