PCCDB-ID:  30315
public computational chemistry database (PCCDB) project, http://pccdb.org

 28 27  0  0  0  0  0  0  0  0999 V2000
    2.7477    2.2088    4.8980 C   0  0  0  0  0  0  0  0  0  0  0  0
    1.9804    0.0452   -0.0387 C   0  0  0  0  0  0  0  0  0  0  0  0
    2.9139    1.7844   -1.6317 C   0  0  0  0  0  0  0  0  0  0  0  0
    2.7433    3.3598    3.8863 C   0  0  0  0  0  0  0  0  0  0  0  0
    4.1091    3.6312    3.2345 C   0  0  0  0  0  0  0  0  0  0  0  0
    4.6614    2.4849    2.3783 C   0  0  0  0  0  0  0  0  0  0  0  0
    4.2630    1.0787    0.4185 C   0  0  0  0  0  0  0  0  0  0  0  0
    3.2513    0.6430   -0.6589 C   0  0  0  0  0  0  0  0  0  0  0  0
    3.7540    2.1403    1.2849 N   0  0  0  0  0  0  0  0  0  0  0  0
    1.7670    2.1036    5.3763 H   0  0  0  0  0  0  0  0  0  0  0  0
    3.4879    2.3761    5.6913 H   0  0  0  0  0  0  0  0  0  0  0  0
    2.9808    1.2519    4.4183 H   0  0  0  0  0  0  0  0  0  0  0  0
    1.2714   -0.2664   -0.8151 H   0  0  0  0  0  0  0  0  0  0  0  0
    1.4872    0.7772    0.6084 H   0  0  0  0  0  0  0  0  0  0  0  0
    2.2153   -0.8343    0.5730 H   0  0  0  0  0  0  0  0  0  0  0  0
    2.3024    1.4184   -2.4646 H   0  0  0  0  0  0  0  0  0  0  0  0
    3.8207    2.2333   -2.0566 H   0  0  0  0  0  0  0  0  0  0  0  0
    2.3392    2.5777   -1.1373 H   0  0  0  0  0  0  0  0  0  0  0  0
    2.4109    4.2788    4.3880 H   0  0  0  0  0  0  0  0  0  0  0  0
    2.0096    3.1470    3.1002 H   0  0  0  0  0  0  0  0  0  0  0  0
    4.8502    3.8654    4.0119 H   0  0  0  0  0  0  0  0  0  0  0  0
    4.0343    4.5334    2.6084 H   0  0  0  0  0  0  0  0  0  0  0  0
    4.7949    1.5864    2.9949 H   0  0  0  0  0  0  0  0  0  0  0  0
    5.6729    2.7620    2.0193 H   0  0  0  0  0  0  0  0  0  0  0  0
    5.2173    1.3568   -0.0736 H   0  0  0  0  0  0  0  0  0  0  0  0
    4.4898    0.2155    1.0593 H   0  0  0  0  0  0  0  0  0  0  0  0
    3.7535   -0.1455   -1.2392 H   0  0  0  0  0  0  0  0  0  0  0  0
    3.5934    2.9777    0.7261 H   0  0  0  0  0  0  0  0  0  0  0  0
  1 10  1  0  0  0  0
  1 11  1  0  0  0  0
  2 15  1  0  0  0  0
  2 14  1  0  0  0  0
  3 18  1  0  0  0  0
  3  8  1  0  0  0  0
  4 19  1  0  0  0  0
  4  1  1  0  0  0  0
  5  4  1  0  0  0  0
  5 21  1  0  0  0  0
  6 23  1  0  0  0  0
  6  5  1  0  0  0  0
  7 26  1  0  0  0  0
  7  9  1  0  0  0  0
  8  2  1  0  0  0  0
  8  7  1  0  0  0  0
  9  6  1  0  0  0  0
 12  1  1  0  0  0  0
 13  2  1  0  0  0  0
 16  3  1  0  0  0  0
 17  3  1  0  0  0  0
 20  4  1  0  0  0  0
 22  5  1  0  0  0  0
 24  6  1  0  0  0  0
 25  7  1  0  0  0  0
 27  8  1  0  0  0  0
 28  9  1  0  0  0  0
M  END
>  <HBA>
1

>  <HBD>
1

>  <TPSA>
12.03

>  <cid>
30315

>  <dipole>
0.89

>  <excitation_energy_1>
5.306

>  <excitation_energy_2>
5.668

>  <excitation_energy_3>
5.855

>  <excitation_energy_4>
5.982

>  <homo_energy>
-5.85

>  <homo_lumo_gap>
7.897

>  <logP>
2.423

>  <lumo_energy>
2.046

>  <melting_point>
-0.71

>  <molecular_refractivity>
43.37

>  <oscillator_strength_1>
0.0077

>  <oscillator_strength_2>
0.0125

>  <oscillator_strength_3>
0.0145

>  <oscillator_strength_4>
0.0368

>  <open_babel_can_smiles>
CCCCNCC(C)C

>  <mulliken_charges>
28
1   -0.445795
2   -0.436567
3   -0.455195
4   -0.236445
5   -0.272594
6   -0.111155
7   -0.112967
8   -0.072692
9   -0.554898
10   0.140287
11   0.135006
12   0.151377
13   0.132756
14   0.160437
15   0.134556
16   0.14495
17   0.137351
18   0.142324
19   0.12443
20   0.148299
21   0.129138
22   0.122631
23   0.138878
24   0.106385
25   0.104114
26   0.132213
27   0.120384
28   0.292792

>  <lowdin_charges>
28
1   -0.44677
2   -0.448621
3   -0.452628
4   -0.275982
5   -0.282495
6   -0.201263
7   -0.203312
8   -0.125951
9   -0.365042
10   0.14892
11   0.143196
12   0.149755
13   0.145218
14   0.157179
15   0.146289
16   0.151994
17   0.14623
18   0.146636
19   0.13889
20   0.149177
21   0.14329
22   0.137093
23   0.140088
24   0.114786
25   0.113573
26   0.140953
27   0.139296
28   0.249503

$$$$

