PCCDB-ID:  32805
public computational chemistry database (PCCDB) project, http://pccdb.org

 19 19  0  0  1  0  0  0  0  0999 V2000
    2.4880   -0.3117    1.5111 C   0  0  0  0  0  0  0  0  0  0  0  0
    3.7749    1.0205   -1.8659 C   0  0  0  0  0  0  0  0  0  0  0  0
    2.9499    1.1764   -0.5573 C   0  0  0  0  0  0  0  0  0  0  0  0
    4.3318   -0.4304   -1.8455 C   0  0  0  0  0  0  0  0  0  0  0  0
    3.4239    0.0297    0.3529 C   0  0  2  0  0  0  0  0  0  0  0  0
    3.6459   -1.1146   -0.6557 C   0  0  2  0  0  0  0  0  0  0  0  0
    4.4589   -2.1821   -0.1826 O   0  0  0  0  0  0  0  0  0  0  0  0
    2.3746    0.5327    2.2007 H   0  0  0  0  0  0  0  0  0  0  0  0
    2.8694   -1.1580    2.0979 H   0  0  0  0  0  0  0  0  0  0  0  0
    1.4879   -0.5788    1.1444 H   0  0  0  0  0  0  0  0  0  0  0  0
    4.5942    1.7462   -1.9014 H   0  0  0  0  0  0  0  0  0  0  0  0
    3.1551    1.2087   -2.7488 H   0  0  0  0  0  0  0  0  0  0  0  0
    1.8783    1.0543   -0.7675 H   0  0  0  0  0  0  0  0  0  0  0  0
    3.0694    2.1609   -0.0919 H   0  0  0  0  0  0  0  0  0  0  0  0
    5.4107   -0.4367   -1.6518 H   0  0  0  0  0  0  0  0  0  0  0  0
    4.1701   -0.9699   -2.7838 H   0  0  0  0  0  0  0  0  0  0  0  0
    4.4164    0.2812    0.7566 H   0  0  0  0  0  0  0  0  0  0  0  0
    2.6584   -1.5018   -0.9669 H   0  0  0  0  0  0  0  0  0  0  0  0
    3.9650   -2.6436    0.5126 H   0  0  0  0  0  0  0  0  0  0  0  0
  1  9  1  0  0  0  0
  1  8  1  0  0  0  0
  2  4  1  0  0  0  0
  2  3  1  0  0  0  0
  3 14  1  0  0  0  0
  3  5  1  0  0  0  0
  4 15  1  0  0  0  0
  4  6  1  0  0  0  0
  5 17  1  1  0  0  0
  5  1  1  0  0  0  0
  6 18  1  6  0  0  0
  6  7  1  0  0  0  0
  6  5  1  0  0  0  0
  7 19  1  0  0  0  0
 10  1  1  0  0  0  0
 11  2  1  0  0  0  0
 12  2  1  0  0  0  0
 13  3  1  0  0  0  0
 16  4  1  0  0  0  0
M  END
>  <HBA>
1

>  <HBD>
1

>  <TPSA>
20.23

>  <cid>
32805

>  <dipole>
1.49

>  <excitation_energy_1>
6.28

>  <excitation_energy_2>
6.912

>  <excitation_energy_3>
7.067

>  <excitation_energy_4>
7.318

>  <homo_energy>
-6.931

>  <homo_lumo_gap>
8.806

>  <logP>
1.167

>  <lumo_energy>
1.875

>  <melting_point>
14.63

>  <molecular_refractivity>
30.0

>  <oscillator_strength_1>
0.0034

>  <oscillator_strength_2>
0.0048

>  <oscillator_strength_3>
0.0171

>  <oscillator_strength_4>
0.0217

>  <open_babel_can_smiles>
O[C@@H]1CCC[C@H]1C

>  <mulliken_charges>
19
1   -0.459057
2   -0.279682
3   -0.273452
4   -0.281937
5   -0.092575
6   0.145286
7   -0.632898
8   0.149532
9   0.130294
10   0.139643
11   0.140183
12   0.136865
13   0.130071
14   0.135536
15   0.151522
16   0.139932
17   0.129845
18   0.101442
19   0.38945

>  <lowdin_charges>
19
1   -0.447749
2   -0.28604
3   -0.281444
4   -0.28716
5   -0.146331
6   -0.008283
7   -0.463442
8   0.154333
9   0.142724
10   0.144761
11   0.147116
12   0.145804
13   0.137391
14   0.145612
15   0.151447
16   0.148885
17   0.141222
18   0.117773
19   0.343381

$$$$

