PCCDB-ID:  18097
public computational chemistry database (PCCDB) project, http://pccdb.org

 22 23  0  0  0  0  0  0  0  0999 V2000
   -1.2248    0.1038   -0.1950 C   0  0  0  0  0  0  0  0  0  0  0  0
   -0.5849   -1.1264   -0.0375 C   0  0  0  0  0  0  0  0  0  0  0  0
   -0.4793    1.2788   -0.2596 C   0  0  0  0  0  0  0  0  0  0  0  0
    0.8005   -1.1722    0.0832 C   0  0  0  0  0  0  0  0  0  0  0  0
    2.4576    4.5968    0.1662 C   0  0  0  0  0  0  0  0  0  0  0  0
    3.1999    4.0769   -0.8155 C   0  0  0  0  0  0  0  0  0  0  0  0
    0.9129    1.2535   -0.1326 C   0  0  0  0  0  0  0  0  0  0  0  0
    1.5398    0.0100    0.0623 C   0  0  0  0  0  0  0  0  0  0  0  0
    1.4201    3.5983    0.5804 C   0  0  0  0  0  0  0  0  0  0  0  0
    2.7111    2.6952   -1.1195 C   0  0  0  0  0  0  0  0  0  0  0  0
    1.6273    2.4693   -0.2408 N   0  0  0  0  0  0  0  0  0  0  0  0
    2.9861   -0.1150    0.3188 N   0  0  0  0  0  0  0  0  0  0  0  0
    0.5640    3.7142    1.4284 O   0  0  0  0  0  0  0  0  0  0  0  0
    3.1174    1.9177   -1.9516 O   0  0  0  0  0  0  0  0  0  0  0  0
    3.5191   -1.1819    0.0252 O   0  0  0  0  0  0  0  0  0  0  0  0
    3.5608    0.8309    0.8562 O   0  0  0  0  0  0  0  0  0  0  0  0
   -2.3058    0.1510   -0.2859 H   0  0  0  0  0  0  0  0  0  0  0  0
   -1.1589   -2.0470   -0.0035 H   0  0  0  0  0  0  0  0  0  0  0  0
   -0.9665    2.2346   -0.4144 H   0  0  0  0  0  0  0  0  0  0  0  0
    1.3290   -2.1090    0.2096 H   0  0  0  0  0  0  0  0  0  0  0  0
    2.5252    5.5684    0.6383 H   0  0  0  0  0  0  0  0  0  0  0  0
    4.0297    4.5138   -1.3558 H   0  0  0  0  0  0  0  0  0  0  0  0
  1  2  1  0  0  0  0
  2 18  1  0  0  0  0
  2  4  2  0  0  0  0
  3  1  2  0  0  0  0
  3  7  1  0  0  0  0
  4 20  1  0  0  0  0
  5  9  1  0  0  0  0
  5 21  1  0  0  0  0
  6  5  2  0  0  0  0
  7  8  2  0  0  0  0
  8  4  1  0  0  0  0
  8 12  1  0  0  0  0
  9 13  2  0  0  0  0
 10  6  1  0  0  0  0
 10 11  1  0  0  0  0
 11  7  1  0  0  0  0
 11  9  1  0  0  0  0
 12 16  2  0  0  0  0
 14 10  2  0  0  0  0
 15 12  2  0  0  0  0
 17  1  1  0  0  0  0
 19  3  1  0  0  0  0
 22  6  1  0  0  0  0
M  END
>  <HBA>
3

>  <HBD>
0

>  <TPSA>
83.2

>  <cid>
18097

>  <dipole>
3.67

>  <excitation_energy_1>
3.456

>  <excitation_energy_2>
3.603

>  <excitation_energy_3>
3.71

>  <excitation_energy_4>
3.897

>  <homo_energy>
-7.241

>  <homo_lumo_gap>
4.392

>  <logP>
1.612

>  <lumo_energy>
-2.849

>  <melting_point>
126.28

>  <molecular_refractivity>
59.83

>  <oscillator_strength_1>
0.0007

>  <oscillator_strength_2>
0.0042

>  <oscillator_strength_3>
0.0105

>  <oscillator_strength_4>
0.0342

>  <open_babel_can_smiles>
O=C1C=CC(=O)N1c1ccccc1N(=O)=O

>  <mulliken_charges>
22
1   -0.125857
2   -0.129682
3   -0.140581
4   -0.157118
5   -0.161883
6   -0.154616
7   0.307457
8   0.28786
9   0.60281
10   0.608458
11   -0.6333
12   0.361199
13   -0.461755
14   -0.461672
15   -0.37337
16   -0.394812
17   0.154593
18   0.154041
19   0.164881
20   0.187602
21   0.182
22   0.183744

>  <lowdin_charges>
22
1   -0.12747
2   -0.145428
3   -0.141356
4   -0.134045
5   -0.145826
6   -0.143483
7   0.066686
8   0.009954
9   0.177638
10   0.179818
11   -0.084969
12   0.313908
13   -0.220633
14   -0.217439
15   -0.231485
16   -0.244265
17   0.16913
18   0.171416
19   0.179173
20   0.189749
21   0.18835
22   0.190576

$$$$

