PCCDB-ID:  12089
public computational chemistry database (PCCDB) project, http://pccdb.org

 19 19  0  0  0  0  0  0  0  0999 V2000
   -0.7703    1.2959   -0.0228 C   0  0  0  0  0  0  0  0  0  0  0  0
    1.4231    0.2950   -0.1720 C   0  0  0  0  0  0  0  0  0  0  0  0
   -1.3541    0.0351   -0.0669 C   0  0  0  0  0  0  0  0  0  0  0  0
    0.8528   -0.9639   -0.2181 C   0  0  0  0  0  0  0  0  0  0  0  0
    0.6219    1.4465   -0.0759 C   0  0  0  0  0  0  0  0  0  0  0  0
   -0.5504   -1.1167   -0.1669 C   0  0  0  0  0  0  0  0  0  0  0  0
    1.2864    2.7634   -0.0353 C   0  0  0  0  0  0  0  0  0  0  0  0
   -2.4416   -2.6437   -0.4978 N   0  0  0  0  0  0  0  0  0  0  0  0
   -1.0944   -2.3919   -0.1781 N   0  0  0  0  0  0  0  0  0  0  0  0
    0.4113    3.8043    0.0569 O   0  0  0  0  0  0  0  0  0  0  0  0
    2.4892    2.9471   -0.0789 O   0  0  0  0  0  0  0  0  0  0  0  0
   -1.4001    2.1756    0.0542 H   0  0  0  0  0  0  0  0  0  0  0  0
    2.5007    0.4158   -0.2147 H   0  0  0  0  0  0  0  0  0  0  0  0
   -2.4336   -0.0601   -0.0148 H   0  0  0  0  0  0  0  0  0  0  0  0
    1.4831   -1.8471   -0.2937 H   0  0  0  0  0  0  0  0  0  0  0  0
   -2.7483   -2.0270   -1.2537 H   0  0  0  0  0  0  0  0  0  0  0  0
   -3.0158   -2.4406    0.3186 H   0  0  0  0  0  0  0  0  0  0  0  0
   -0.4887   -3.1276   -0.5173 H   0  0  0  0  0  0  0  0  0  0  0  0
    0.9675    4.6045    0.0752 H   0  0  0  0  0  0  0  0  0  0  0  0
  1 12  1  0  0  0  0
  2  5  1  0  0  0  0
  3  1  1  0  0  0  0
  3 14  1  0  0  0  0
  4  2  2  0  0  0  0
  4  6  1  0  0  0  0
  5  7  1  0  0  0  0
  5  1  2  0  0  0  0
  6  3  2  0  0  0  0
  7 10  1  0  0  0  0
  8  9  1  0  0  0  0
  8 17  1  0  0  0  0
  9  6  1  0  0  0  0
 10 19  1  0  0  0  0
 11  7  2  0  0  0  0
 13  2  1  0  0  0  0
 15  4  1  0  0  0  0
 16  8  1  0  0  0  0
 18  9  1  0  0  0  0
M  END
>  <HBA>
4

>  <HBD>
3

>  <TPSA>
75.35

>  <cid>
12089

>  <dipole>
2.9

>  <excitation_energy_1>
4.556

>  <excitation_energy_2>
4.683

>  <excitation_energy_3>
5.009

>  <excitation_energy_4>
5.083

>  <homo_energy>
-5.829

>  <homo_lumo_gap>
4.917

>  <logP>
1.444

>  <lumo_energy>
-0.912

>  <melting_point>
185.11

>  <molecular_refractivity>
40.61

>  <oscillator_strength_1>
0.3979

>  <oscillator_strength_2>
0.0598

>  <oscillator_strength_3>
0.0

>  <oscillator_strength_4>
0.0082

>  <open_babel_can_smiles>
NNc1ccc(cc1)C(=O)O

>  <mulliken_charges>
19
1   -0.169591
2   -0.16289
3   -0.189382
4   -0.195784
5   0.069159
6   0.36648
7   0.528403
8   -0.570611
9   -0.543555
10   -0.590478
11   -0.486367
12   0.158788
13   0.16365
14   0.113235
15   0.128824
16   0.310898
17   0.326733
18   0.334377
19   0.408111

>  <lowdin_charges>
19
1   -0.123967
2   -0.114702
3   -0.213121
4   -0.197685
5   -0.075386
6   0.062607
7   0.189463
8   -0.463081
9   -0.23662
10   -0.369571
11   -0.284607
12   0.173945
13   0.175734
14   0.151761
15   0.158493
16   0.255525
17   0.266907
18   0.28309
19   0.361215

$$$$

