PCCDB-ID:  22148
public computational chemistry database (PCCDB) project, http://pccdb.org

 20 20  0  0  1  0  0  0  0  0999 V2000
    1.0700    0.2694    0.6038 C   0  0  0  0  0  0  0  0  0  0  0  0
    5.2014   -1.8987   -1.8367 C   0  0  0  0  0  0  0  0  0  0  0  0
    3.4376   -1.2905   -3.5417 C   0  0  0  0  0  0  0  0  0  0  0  0
    2.8147    1.2000   -1.0133 C   0  0  0  0  0  0  0  0  0  0  0  0
    2.4639    0.1063   -0.0058 C   0  0  2  0  0  0  0  0  0  0  0  0
    3.9472   -1.0587   -2.1123 C   0  0  0  0  0  0  0  0  0  0  0  0
    4.3785    0.7369   -1.8377 S   0  0  0  0  0  0  0  0  0  0  0  0
    2.5779   -1.5011   -0.9127 S   0  0  0  0  0  0  0  0  0  0  0  0
    1.0138    1.2133    1.1594 H   0  0  0  0  0  0  0  0  0  0  0  0
    0.8449   -0.5421    1.3035 H   0  0  0  0  0  0  0  0  0  0  0  0
    0.2975    0.2752   -0.1723 H   0  0  0  0  0  0  0  0  0  0  0  0
    6.0122   -1.6067   -2.5162 H   0  0  0  0  0  0  0  0  0  0  0  0
    4.9897   -2.9608   -2.0050 H   0  0  0  0  0  0  0  0  0  0  0  0
    5.5462   -1.7709   -0.8082 H   0  0  0  0  0  0  0  0  0  0  0  0
    4.2333   -1.0800   -4.2659 H   0  0  0  0  0  0  0  0  0  0  0  0
    2.5822   -0.6493   -3.7679 H   0  0  0  0  0  0  0  0  0  0  0  0
    3.1256   -2.3346   -3.6702 H   0  0  0  0  0  0  0  0  0  0  0  0
    2.9835    2.1604   -0.5126 H   0  0  0  0  0  0  0  0  0  0  0  0
    2.0102    1.3251   -1.7459 H   0  0  0  0  0  0  0  0  0  0  0  0
    3.2172    0.1017    0.7888 H   0  0  0  0  0  0  0  0  0  0  0  0
  1  9  1  0  0  0  0
  1 10  1  0  0  0  0
  2 14  1  0  0  0  0
  3  6  1  0  0  0  0
  4 18  1  0  0  0  0
  4  5  1  0  0  0  0
  5  1  1  0  0  0  0
  5 20  1  1  0  0  0
  6  7  1  0  0  0  0
  6  2  1  0  0  0  0
  6  8  1  0  0  0  0
  7  4  1  0  0  0  0
  8  5  1  0  0  0  0
 11  1  1  0  0  0  0
 12  2  1  0  0  0  0
 13  2  1  0  0  0  0
 15  3  1  0  0  0  0
 16  3  1  0  0  0  0
 17  3  1  0  0  0  0
 19  4  1  0  0  0  0
M  END
>  <HBA>
2

>  <HBD>
0

>  <TPSA>
50.6

>  <cid>
22148

>  <dipole>
0.99

>  <excitation_energy_1>
4.665

>  <excitation_energy_2>
4.74

>  <excitation_energy_3>
5.622

>  <excitation_energy_4>
5.681

>  <homo_energy>
-6.065

>  <homo_lumo_gap>
6.052

>  <logP>
2.591

>  <lumo_energy>
-0.014

>  <melting_point>
24.98

>  <molecular_refractivity>
44.06

>  <oscillator_strength_1>
0.0008

>  <oscillator_strength_2>
0.0009

>  <oscillator_strength_3>
0.0396

>  <oscillator_strength_4>
0.0154

>  <open_babel_can_smiles>
C[C@@H]1CSC(S1)(C)C

>  <mulliken_charges>
20
1   -0.452363
2   -0.427742
3   -0.415844
4   -0.413937
5   -0.231934
6   -0.239038
7   0.104778
8   0.093715
9   0.152974
10   0.166797
11   0.164675
12   0.154851
13   0.157365
14   0.172048
15   0.154849
16   0.163971
17   0.154908
18   0.178968
19   0.180972
20   0.179986

>  <lowdin_charges>
20
1   -0.445598
2   -0.442171
3   -0.443838
4   -0.377703
5   -0.217153
6   -0.165797
7   0.095748
8   0.075488
9   0.155647
10   0.163478
11   0.160424
12   0.15597
13   0.155655
14   0.164778
15   0.155976
16   0.161926
17   0.154039
18   0.171103
19   0.161431
20   0.160595

$$$$

