PCCDB-ID:  40433
public computational chemistry database (PCCDB) project, http://pccdb.org

 46 48  0  0  1  0  0  0  0  0999 V2000
   11.6307    1.0079    0.5887 C   0  0  0  0  0  0  0  0  0  0  0  0
   10.8743   -0.9253   -0.6077 C   0  0  0  0  0  0  0  0  0  0  0  0
    8.9836    1.6727   -2.7107 C   0  0  0  0  0  0  0  0  0  0  0  0
    8.4940    0.8332   -1.5227 C   0  0  0  0  0  0  0  0  0  0  0  0
    8.1069    1.4853   -3.9580 C   0  0  0  0  0  0  0  0  0  0  0  0
    9.3756    0.9588   -0.2729 C   0  0  0  0  0  0  0  0  0  0  0  0
   10.1360    4.2639   -6.7272 C   0  0  0  0  0  0  0  0  0  0  0  0
    7.6990    4.2358   -7.3584 C   0  0  0  0  0  0  0  0  0  0  0  0
    9.2177    2.3743   -8.1151 C   0  0  0  0  0  0  0  0  0  0  0  0
    8.3904    3.8249   -4.9684 C   0  0  0  0  0  0  0  0  0  0  0  0
    9.9066    1.9656   -5.7243 C   0  0  0  0  0  0  0  0  0  0  0  0
    7.4786    1.9422   -6.3500 C   0  0  0  0  0  0  0  0  0  0  0  0
    8.7092    4.6135   -6.2561 C   0  0  1  0  0  0  0  0  0  0  0  0
   10.2289    2.7507   -7.0133 C   0  0  2  0  0  0  0  0  0  0  0  0
    7.7918    2.7226   -7.6421 C   0  0  1  0  0  0  0  0  0  0  0  0
    8.4792    2.2978   -5.2189 C   0  0  1  0  0  0  0  0  0  0  0  0
   10.7595    0.5205   -0.4715 N   0  0  0  0  0  0  0  0  0  0  0  0
   12.6661    0.7178    0.3776 H   0  0  0  0  0  0  0  0  0  0  0  0
   11.3662    0.6146    1.5912 H   0  0  0  0  0  0  0  0  0  0  0  0
   11.5869    2.1016    0.6323 H   0  0  0  0  0  0  0  0  0  0  0  0
   11.9205   -1.1934   -0.7912 H   0  0  0  0  0  0  0  0  0  0  0  0
   10.2872   -1.2794   -1.4598 H   0  0  0  0  0  0  0  0  0  0  0  0
   10.5334   -1.4732    0.2945 H   0  0  0  0  0  0  0  0  0  0  0  0
   10.0242    1.4036   -2.9224 H   0  0  0  0  0  0  0  0  0  0  0  0
    8.9943    2.7296   -2.4103 H   0  0  0  0  0  0  0  0  0  0  0  0
    8.4082   -0.2198   -1.8238 H   0  0  0  0  0  0  0  0  0  0  0  0
    7.4770    1.1433   -1.2431 H   0  0  0  0  0  0  0  0  0  0  0  0
    7.0645    1.7248   -3.6959 H   0  0  0  0  0  0  0  0  0  0  0  0
    8.1089    0.4177   -4.2283 H   0  0  0  0  0  0  0  0  0  0  0  0
    8.8999    0.4148    0.5698 H   0  0  0  0  0  0  0  0  0  0  0  0
    9.4089    2.0157    0.0218 H   0  0  0  0  0  0  0  0  0  0  0  0
   10.8674    4.5475   -5.9574 H   0  0  0  0  0  0  0  0  0  0  0  0
   10.3866    4.8357   -7.6316 H   0  0  0  0  0  0  0  0  0  0  0  0
    7.9057    4.8074   -8.2740 H   0  0  0  0  0  0  0  0  0  0  0  0
    6.6796    4.4978   -7.0419 H   0  0  0  0  0  0  0  0  0  0  0  0
    9.2887    1.3012   -8.3420 H   0  0  0  0  0  0  0  0  0  0  0  0
    9.4517    2.9126   -9.0443 H   0  0  0  0  0  0  0  0  0  0  0  0
    7.3815    4.0802   -4.6117 H   0  0  0  0  0  0  0  0  0  0  0  0
    9.0903    4.1220   -4.1763 H   0  0  0  0  0  0  0  0  0  0  0  0
   10.6487    2.2080   -4.9525 H   0  0  0  0  0  0  0  0  0  0  0  0
    9.9872    0.8847   -5.9125 H   0  0  0  0  0  0  0  0  0  0  0  0
    7.5174    0.8609   -6.5473 H   0  0  0  0  0  0  0  0  0  0  0  0
    6.4542    2.1649   -6.0174 H   0  0  0  0  0  0  0  0  0  0  0  0
    8.6437    5.6901   -6.0484 H   0  0  0  0  0  0  0  0  0  0  0  0
   11.2458    2.5014   -7.3452 H   0  0  0  0  0  0  0  0  0  0  0  0
    7.0663    2.4471   -8.4196 H   0  0  0  0  0  0  0  0  0  0  0  0
  1 20  1  0  0  0  0
  1 19  1  0  0  0  0
  2 17  1  0  0  0  0
  2 23  1  0  0  0  0
  3 25  1  0  0  0  0
  3  4  1  0  0  0  0
  4 27  1  0  0  0  0
  4  6  1  0  0  0  0
  5 28  1  0  0  0  0
  5  3  1  0  0  0  0
  6 31  1  0  0  0  0
  6 30  1  0  0  0  0
  7 13  1  0  0  0  0
  7 32  1  0  0  0  0
  8 35  1  0  0  0  0
  8 13  1  0  0  0  0
  9 15  1  0  0  0  0
  9 14  1  0  0  0  0
 10 38  1  0  0  0  0
 10 39  1  0  0  0  0
 11 16  1  0  0  0  0
 11 40  1  0  0  0  0
 12 43  1  0  0  0  0
 12 16  1  0  0  0  0
 13 44  1  1  0  0  0
 13 10  1  0  0  0  0
 14 45  1  6  0  0  0
 14  7  1  0  0  0  0
 14 11  1  0  0  0  0
 15 46  1  6  0  0  0
 15  8  1  0  0  0  0
 15 12  1  0  0  0  0
 16 10  1  0  0  0  0
 16  5  1  1  0  0  0
 17  6  1  0  0  0  0
 17  1  1  0  0  0  0
 18  1  1  0  0  0  0
 21  2  1  0  0  0  0
 22  2  1  0  0  0  0
 24  3  1  0  0  0  0
 26  4  1  0  0  0  0
 29  5  1  0  0  0  0
 33  7  1  0  0  0  0
 34  8  1  0  0  0  0
 36  9  1  0  0  0  0
 37  9  1  0  0  0  0
 41 11  1  0  0  0  0
 42 12  1  0  0  0  0
M  END
>  <HBA>
1

>  <HBD>
0

>  <TPSA>
3.24

>  <cid>
40433

>  <dipole>
0.58

>  <excitation_energy_1>
5.197

>  <excitation_energy_2>
5.483

>  <excitation_energy_3>
5.593

>  <excitation_energy_4>
5.664

>  <homo_energy>
-5.63

>  <homo_lumo_gap>
7.587

>  <logP>
3.935

>  <lumo_energy>
1.957

>  <melting_point>
55.85

>  <molecular_refractivity>
75.32

>  <oscillator_strength_1>
0.0213

>  <oscillator_strength_2>
0.0231

>  <oscillator_strength_3>
0.0066

>  <oscillator_strength_4>
0.007

>  <open_babel_can_smiles>
CN(CCCC[C@]12C[C@H]3C[C@@H](C2)C[C@@H](C1)C3)C

>  <mulliken_charges>
46
1   -0.292266
2   -0.299865
3   -0.261117
4   -0.270901
5   -0.261908
6   -0.114711
7   -0.264286
8   -0.263269
9   -0.263473
10   -0.275527
11   -0.276408
12   -0.272352
13   -0.090347
14   -0.089999
15   -0.088995
16   0.092602
17   -0.360626
18   0.145864
19   0.115039
20   0.147787
21   0.146994
22   0.152711
23   0.114908
24   0.156588
25   0.126576
26   0.131397
27   0.128557
28   0.117944
29   0.118382
30   0.105579
31   0.130684
32   0.123964
33   0.122867
34   0.122768
35   0.122966
36   0.123121
37   0.122638
38   0.119263
39   0.128239
40   0.131067
41   0.119612
42   0.120554
43   0.120508
44   0.112223
45   0.112556
46   0.112093

>  <lowdin_charges>
46
1   -0.351411
2   -0.358946
3   -0.278525
4   -0.277651
5   -0.269986
6   -0.19883
7   -0.282578
8   -0.280574
9   -0.279337
10   -0.281425
11   -0.280083
12   -0.275741
13   -0.12886
14   -0.129881
15   -0.132329
16   0.000975
17   -0.183667
18   0.147049
19   0.117885
20   0.146677
21   0.148498
22   0.15136
23   0.119435
24   0.149446
25   0.136437
26   0.137208
27   0.14168
28   0.134258
29   0.134466
30   0.116858
31   0.140144
32   0.139632
33   0.138967
34   0.138646
35   0.137463
36   0.136687
37   0.1384
38   0.13641
39   0.141046
40   0.142549
41   0.13549
42   0.135463
43   0.136367
44   0.135412
45   0.136643
46   0.138268

$$$$

