PCCDB-ID:  27527
public computational chemistry database (PCCDB) project, http://pccdb.org

 34 35  0  0  0  0  0  0  0  0999 V2000
   -2.0135    0.4084    0.9848 C   0  0  0  0  0  0  0  0  0  0  0  0
   -0.8785    1.4430    1.0081 C   0  0  0  0  0  0  0  0  0  0  0  0
   -1.9669   -0.6144   -0.1579 C   0  0  0  0  0  0  0  0  0  0  0  0
    0.5339    0.8589    1.1950 C   0  0  0  0  0  0  0  0  0  0  0  0
   -0.7167   -1.5243   -0.1713 C   0  0  0  0  0  0  0  0  0  0  0  0
    1.1887    0.3034   -0.0798 C   0  0  0  0  0  0  0  0  0  0  0  0
    2.8864   -3.1900   -5.2085 C   0  0  0  0  0  0  0  0  0  0  0  0
    0.6579   -2.6189   -4.5361 C   0  0  0  0  0  0  0  0  0  0  0  0
    2.3307   -4.1368   -6.0650 C   0  0  0  0  0  0  0  0  0  0  0  0
    0.2085   -3.5834   -5.4400 C   0  0  0  0  0  0  0  0  0  0  0  0
    2.0367   -2.4146   -4.4097 C   0  0  0  0  0  0  0  0  0  0  0  0
    0.5185   -0.8808   -0.7546 C   0  0  0  0  0  0  0  0  0  0  0  0
    2.6988   -1.3736   -3.5515 C   0  0  0  0  0  0  0  0  0  0  0  0
    1.0129   -4.3435   -6.1920 N   0  0  0  0  0  0  0  0  0  0  0  0
    0.9443   -1.4009   -1.8550 N   0  0  0  0  0  0  0  0  0  0  0  0
    2.0575   -0.8584   -2.4394 N   0  0  0  0  0  0  0  0  0  0  0  0
    3.8118   -0.9411   -3.8298 O   0  0  0  0  0  0  0  0  0  0  0  0
   -2.9728    0.9408    0.9391 H   0  0  0  0  0  0  0  0  0  0  0  0
   -2.0125   -0.1338    1.9423 H   0  0  0  0  0  0  0  0  0  0  0  0
   -1.0749    2.1423    1.8310 H   0  0  0  0  0  0  0  0  0  0  0  0
   -0.9030    2.0448    0.0872 H   0  0  0  0  0  0  0  0  0  0  0  0
   -2.0487   -0.1030   -1.1271 H   0  0  0  0  0  0  0  0  0  0  0  0
   -2.8513   -1.2590   -0.0771 H   0  0  0  0  0  0  0  0  0  0  0  0
    0.5154    0.0883    1.9775 H   0  0  0  0  0  0  0  0  0  0  0  0
    1.1956    1.6496    1.5699 H   0  0  0  0  0  0  0  0  0  0  0  0
   -0.9184   -2.4170   -0.7702 H   0  0  0  0  0  0  0  0  0  0  0  0
   -0.5126   -1.8651    0.8545 H   0  0  0  0  0  0  0  0  0  0  0  0
    2.2284    0.0257    0.1596 H   0  0  0  0  0  0  0  0  0  0  0  0
    1.2647    1.1225   -0.8134 H   0  0  0  0  0  0  0  0  0  0  0  0
    3.9587   -3.0384   -5.1554 H   0  0  0  0  0  0  0  0  0  0  0  0
   -0.0492   -2.0497   -3.9486 H   0  0  0  0  0  0  0  0  0  0  0  0
    2.9741   -4.7581   -6.6858 H   0  0  0  0  0  0  0  0  0  0  0  0
   -0.8600   -3.7543   -5.5617 H   0  0  0  0  0  0  0  0  0  0  0  0
    2.6276   -0.1723   -1.9500 H   0  0  0  0  0  0  0  0  0  0  0  0
  1  2  1  0  0  0  0
  1 19  1  0  0  0  0
  2  4  1  0  0  0  0
  2 20  1  0  0  0  0
  3 23  1  0  0  0  0
  3  1  1  0  0  0  0
  4 25  1  0  0  0  0
  4 24  1  0  0  0  0
  5  3  1  0  0  0  0
  5 27  1  0  0  0  0
  6 28  1  0  0  0  0
  6  4  1  0  0  0  0
  7 30  1  0  0  0  0
  7 11  2  0  0  0  0
  8 11  1  0  0  0  0
  8 31  1  0  0  0  0
  9  7  1  0  0  0  0
 10  8  2  0  0  0  0
 11 13  1  0  0  0  0
 12  5  1  0  0  0  0
 12  6  1  0  0  0  0
 13 16  1  0  0  0  0
 14  9  2  0  0  0  0
 14 10  1  0  0  0  0
 15 12  2  0  0  0  0
 16 34  1  0  0  0  0
 16 15  1  0  0  0  0
 17 13  2  0  0  0  0
 18  1  1  0  0  0  0
 21  2  1  0  0  0  0
 22  3  1  0  0  0  0
 26  5  1  0  0  0  0
 29  6  1  0  0  0  0
 32  9  1  0  0  0  0
 33 10  1  0  0  0  0
M  END
>  <HBA>
4

>  <HBD>
1

>  <TPSA>
54.35

>  <cid>
27527

>  <dipole>
5.64

>  <excitation_energy_1>
4.208

>  <excitation_energy_2>
4.383

>  <excitation_energy_3>
4.521

>  <excitation_energy_4>
4.826

>  <homo_energy>
-6.474

>  <homo_lumo_gap>
5.021

>  <logP>
2.913

>  <lumo_energy>
-1.453

>  <melting_point>
117.35

>  <molecular_refractivity>
67.65

>  <oscillator_strength_1>
0.0094

>  <oscillator_strength_2>
0.1023

>  <oscillator_strength_3>
0.0714

>  <oscillator_strength_4>
0.0458

>  <open_babel_can_smiles>
O=C(c1ccncc1)NN=C1CCCCCC1

>  <mulliken_charges>
34
1   -0.259755
2   -0.256872
3   -0.262117
4   -0.266565
5   -0.332515
6   -0.376231
7   -0.160894
8   -0.154514
9   0.031481
10   0.028657
11   0.094861
12   0.339479
13   0.557875
14   -0.401383
15   -0.289908
16   -0.486074
17   -0.496719
18   0.1375
19   0.131662
20   0.139524
21   0.133094
22   0.140462
23   0.143111
24   0.142175
25   0.142984
26   0.165786
27   0.145285
28   0.162825
29   0.164223
30   0.16599
31   0.160982
32   0.143691
33   0.141239
34   0.330661

>  <lowdin_charges>
34
1   -0.277676
2   -0.27983
3   -0.27624
4   -0.278168
5   -0.279913
6   -0.303196
7   -0.149967
8   -0.164382
9   -0.094187
10   -0.092675
11   -0.013989
12   0.025882
13   0.167758
14   -0.140562
15   -0.110203
16   -0.195373
17   -0.289789
18   0.147184
19   0.13881
20   0.149533
21   0.140654
22   0.143395
23   0.151113
24   0.145435
25   0.153263
26   0.166412
27   0.149419
28   0.158652
29   0.15813
30   0.178707
31   0.178398
32   0.159972
33   0.154753
34   0.278678

$$$$

