PCCDB-ID:  16821
public computational chemistry database (PCCDB) project, http://pccdb.org

 36 36  0  0  1  0  0  0  0  0999 V2000
    1.0646    0.2577    4.7015 C   0  0  0  0  0  0  0  0  0  0  0  0
    1.4191   -0.3618    3.3441 C   0  0  0  0  0  0  0  0  0  0  0  0
    2.8422   -0.9391    3.2591 C   0  0  0  0  0  0  0  0  0  0  0  0
    3.0874   -2.1590    4.1607 C   0  0  0  0  0  0  0  0  0  0  0  0
    4.4537   -2.8401    3.9607 C   0  0  0  0  0  0  0  0  0  0  0  0
    5.6891   -1.9939    4.3276 C   0  0  0  0  0  0  0  0  0  0  0  0
    5.8468   -1.6293    5.8227 C   0  0  0  0  0  0  0  0  0  0  0  0
    6.6966   -2.5805    6.6862 C   0  0  0  0  0  0  0  0  0  0  0  0
    6.8975   -4.7742    8.0267 C   0  0  0  0  0  0  0  0  0  0  0  0
    6.7635   -6.2242    7.5588 C   0  0  0  0  0  0  0  0  0  0  0  0
    6.1657   -3.9903    6.9202 C   0  0  2  0  0  0  0  0  0  0  0  0
    6.6565   -6.0942    6.0419 C   0  0  0  0  0  0  0  0  0  0  0  0
    6.8017   -6.9450    5.2045 O   0  0  0  0  0  0  0  0  0  0  0  0
    6.3459   -4.8018    5.7270 O   0  0  0  0  0  0  0  0  0  0  0  0
    1.7735    1.0516    4.9694 H   0  0  0  0  0  0  0  0  0  0  0  0
    1.0805   -0.4854    5.5068 H   0  0  0  0  0  0  0  0  0  0  0  0
    0.0620    0.7002    4.6834 H   0  0  0  0  0  0  0  0  0  0  0  0
    1.3028    0.4033    2.5645 H   0  0  0  0  0  0  0  0  0  0  0  0
    0.6940   -1.1527    3.1035 H   0  0  0  0  0  0  0  0  0  0  0  0
    3.5621   -0.1434    3.4983 H   0  0  0  0  0  0  0  0  0  0  0  0
    3.0441   -1.2276    2.2172 H   0  0  0  0  0  0  0  0  0  0  0  0
    2.3028   -2.9033    3.9605 H   0  0  0  0  0  0  0  0  0  0  0  0
    2.9612   -1.8736    5.2141 H   0  0  0  0  0  0  0  0  0  0  0  0
    4.5440   -3.1306    2.9042 H   0  0  0  0  0  0  0  0  0  0  0  0
    4.4768   -3.7777    4.5265 H   0  0  0  0  0  0  0  0  0  0  0  0
    5.6629   -1.0638    3.7455 H   0  0  0  0  0  0  0  0  0  0  0  0
    6.5869   -2.5296    3.9948 H   0  0  0  0  0  0  0  0  0  0  0  0
    4.8592   -1.5103    6.2897 H   0  0  0  0  0  0  0  0  0  0  0  0
    6.3221   -0.6425    5.8944 H   0  0  0  0  0  0  0  0  0  0  0  0
    6.8137   -2.1230    7.6795 H   0  0  0  0  0  0  0  0  0  0  0  0
    7.7078   -2.6705    6.2660 H   0  0  0  0  0  0  0  0  0  0  0  0
    7.9527   -4.4755    8.0489 H   0  0  0  0  0  0  0  0  0  0  0  0
    6.4717   -4.5798    9.0151 H   0  0  0  0  0  0  0  0  0  0  0  0
    5.8424   -6.6954    7.9255 H   0  0  0  0  0  0  0  0  0  0  0  0
    7.5963   -6.8789    7.8245 H   0  0  0  0  0  0  0  0  0  0  0  0
    5.0863   -3.9608    7.1262 H   0  0  0  0  0  0  0  0  0  0  0  0
  1 15  1  0  0  0  0
  1 16  1  0  0  0  0
  2  1  1  0  0  0  0
  3  2  1  0  0  0  0
  3 20  1  0  0  0  0
  3  4  1  0  0  0  0
  4 23  1  0  0  0  0
  5  4  1  0  0  0  0
  5  6  1  0  0  0  0
  5 25  1  0  0  0  0
  6  7  1  0  0  0  0
  7 29  1  0  0  0  0
  7 28  1  0  0  0  0
  7  8  1  0  0  0  0
  8 11  1  0  0  0  0
  8 30  1  0  0  0  0
  9 32  1  0  0  0  0
  9 33  1  0  0  0  0
 10 35  1  0  0  0  0
 10 34  1  0  0  0  0
 10  9  1  0  0  0  0
 11 36  1  1  0  0  0
 11  9  1  0  0  0  0
 12 10  1  0  0  0  0
 13 12  2  0  0  0  0
 14 12  1  0  0  0  0
 14 11  1  0  0  0  0
 17  1  1  0  0  0  0
 18  2  1  0  0  0  0
 19  2  1  0  0  0  0
 21  3  1  0  0  0  0
 22  4  1  0  0  0  0
 24  5  1  0  0  0  0
 26  6  1  0  0  0  0
 27  6  1  0  0  0  0
 31  8  1  0  0  0  0
M  END
>  <HBA>
2

>  <HBD>
0

>  <TPSA>
26.3

>  <cid>
16821

>  <dipole>
4.21

>  <excitation_energy_1>
5.666

>  <excitation_energy_2>
6.671

>  <excitation_energy_3>
7.083

>  <excitation_energy_4>
7.14

>  <homo_energy>
-7.17

>  <homo_lumo_gap>
7.527

>  <logP>
3.443

>  <lumo_energy>
0.356

>  <melting_point>
4.47

>  <molecular_refractivity>
58.97

>  <oscillator_strength_1>
0.0005

>  <oscillator_strength_2>
0.0098

>  <oscillator_strength_3>
0.0109

>  <oscillator_strength_4>
0.001

>  <open_babel_can_smiles>
CCCCCCCC[C@@H]1CCC(=O)O1

>  <mulliken_charges>
36
1   -0.442489
2   -0.248745
3   -0.248586
4   -0.259561
5   -0.266981
6   -0.259635
7   -0.270088
8   -0.278339
9   -0.310235
10   -0.388694
11   0.14712
12   0.61547
13   -0.454255
14   -0.457575
15   0.138648
16   0.144044
17   0.141286
18   0.129454
19   0.129438
20   0.127529
21   0.127522
22   0.127398
23   0.12738
24   0.12947
25   0.150122
26   0.131954
27   0.144621
28   0.135236
29   0.13442
30   0.137281
31   0.14783
32   0.158923
33   0.154892
34   0.181593
35   0.184675
36   0.138877

>  <lowdin_charges>
36
1   -0.448042
2   -0.274013
3   -0.277927
4   -0.280996
5   -0.279509
6   -0.282426
7   -0.279522
8   -0.280646
9   -0.289259
10   -0.316559
11   0.006698
12   0.195536
13   -0.237492
14   -0.196033
15   0.145463
16   0.146532
17   0.148551
18   0.141572
19   0.139097
20   0.137366
21   0.138873
22   0.141132
23   0.132939
24   0.141168
25   0.149395
26   0.141224
27   0.150117
28   0.140313
29   0.146292
30   0.150095
31   0.150246
32   0.153421
33   0.157836
34   0.174052
35   0.177095
36   0.137414

$$$$

