PCCDB-ID:  70787
public computational chemistry database (PCCDB) project, http://pccdb.org

 26 26  0  0  0  0  0  0  0  0999 V2000
    0.7781    0.1026    0.3595 C   0  0  0  0  0  0  0  0  0  0  0  0
    2.5215    1.8747   -0.1452 C   0  0  0  0  0  0  0  0  0  0  0  0
    5.3292    1.4021    4.9437 C   0  0  0  0  0  0  0  0  0  0  0  0
    5.4812    0.2205    5.6673 C   0  0  0  0  0  0  0  0  0  0  0  0
    5.0375    1.3379    3.5791 C   0  0  0  0  0  0  0  0  0  0  0  0
    5.3414   -1.0108    5.0259 C   0  0  0  0  0  0  0  0  0  0  0  0
    3.0981   -0.2112    1.1722 C   0  0  0  0  0  0  0  0  0  0  0  0
    4.5641    0.0579    1.4278 C   0  0  0  0  0  0  0  0  0  0  0  0
    2.2142    0.5493    0.5090 C   0  0  0  0  0  0  0  0  0  0  0  0
    4.8928    0.1199    2.9103 C   0  0  0  0  0  0  0  0  0  0  0  0
    5.0468   -1.0590    3.6611 C   0  0  0  0  0  0  0  0  0  0  0  0
    4.8986   -2.2494    2.9915 O   0  0  0  0  0  0  0  0  0  0  0  0
    0.5019    0.0004   -0.6998 H   0  0  0  0  0  0  0  0  0  0  0  0
    0.0865    0.8407    0.7904 H   0  0  0  0  0  0  0  0  0  0  0  0
    0.5963   -0.8585    0.8507 H   0  0  0  0  0  0  0  0  0  0  0  0
    2.3109    1.8333   -1.2232 H   0  0  0  0  0  0  0  0  0  0  0  0
    3.5600    2.1910   -0.0223 H   0  0  0  0  0  0  0  0  0  0  0  0
    1.8793    2.6668    0.2650 H   0  0  0  0  0  0  0  0  0  0  0  0
    5.4381    2.3654    5.4335 H   0  0  0  0  0  0  0  0  0  0  0  0
    5.7102    0.2490    6.7291 H   0  0  0  0  0  0  0  0  0  0  0  0
    4.9194    2.2579    3.0108 H   0  0  0  0  0  0  0  0  0  0  0  0
    5.4600   -1.9383    5.5845 H   0  0  0  0  0  0  0  0  0  0  0  0
    2.7421   -1.1497    1.5965 H   0  0  0  0  0  0  0  0  0  0  0  0
    4.8838    0.9915    0.9560 H   0  0  0  0  0  0  0  0  0  0  0  0
    5.1540   -0.7479    0.9703 H   0  0  0  0  0  0  0  0  0  0  0  0
    5.0278   -2.9780    3.6181 H   0  0  0  0  0  0  0  0  0  0  0  0
  1  9  1  0  0  0  0
  1 14  1  0  0  0  0
  1 15  1  0  0  0  0
  2 17  1  0  0  0  0
  2 18  1  0  0  0  0
  2  9  1  0  0  0  0
  3 19  1  0  0  0  0
  3  4  2  0  0  0  0
  4 20  1  0  0  0  0
  5  3  1  0  0  0  0
  6 22  1  0  0  0  0
  6  4  1  0  0  0  0
  7  8  1  0  0  0  0
  7 23  1  0  0  0  0
  8 10  1  0  0  0  0
  9  7  2  0  0  0  0
 10  5  2  0  0  0  0
 10 11  1  0  0  0  0
 11  6  2  0  0  0  0
 12 26  1  0  0  0  0
 12 11  1  0  0  0  0
 13  1  1  0  0  0  0
 16  2  1  0  0  0  0
 21  5  1  0  0  0  0
 24  8  1  0  0  0  0
 25  8  1  0  0  0  0
M  END
>  <HBA>
1

>  <HBD>
1

>  <TPSA>
20.23

>  <cid>
70787

>  <dipole>
1.08

>  <excitation_energy_1>
4.981

>  <excitation_energy_2>
5.11

>  <excitation_energy_3>
5.271

>  <excitation_energy_4>
5.546

>  <homo_energy>
-5.81

>  <homo_lumo_gap>
5.897

>  <logP>
2.901

>  <lumo_energy>
0.087

>  <melting_point>
58.68

>  <molecular_refractivity>
52.19

>  <oscillator_strength_1>
0.066

>  <oscillator_strength_2>
0.0005

>  <oscillator_strength_3>
0.0132

>  <oscillator_strength_4>
0.022

>  <open_babel_can_smiles>
CC(=CCc1ccccc1O)C

>  <mulliken_charges>
26
1   -0.504462
2   -0.51237
3   -0.129826
4   -0.138059
5   -0.189803
6   -0.187438
7   -0.152152
8   -0.389481
9   0.188538
10   0.141052
11   0.296411
12   -0.649223
13   0.146413
14   0.146963
15   0.150877
16   0.150935
17   0.150295
18   0.150488
19   0.123741
20   0.127546
21   0.123131
22   0.114129
23   0.127622
24   0.141857
25   0.165508
26   0.407306

>  <lowdin_charges>
26
1   -0.438322
2   -0.443118
3   -0.178417
4   -0.148842
5   -0.154384
6   -0.213981
7   -0.183593
8   -0.271403
9   -0.012942
10   -0.024797
11   0.093687
12   -0.386017
13   0.149457
14   0.152145
15   0.154086
16   0.152692
17   0.151937
18   0.155064
19   0.156344
20   0.15563
21   0.155832
22   0.151284
23   0.152888
24   0.15155
25   0.164823
26   0.358398

$$$$

