PCCDB-ID:  12638
public computational chemistry database (PCCDB) project, http://pccdb.org

 14 14  0  0  0  0  0  0  0  0999 V2000
    0.9433    0.9476   -1.3830 C   0  0  0  0  0  0  0  0  0  0  0  0
    1.3626   -2.8782    0.5893 C   0  0  0  0  0  0  0  0  0  0  0  0
   -0.1002   -3.2097    0.6255 C   0  0  0  0  0  0  0  0  0  0  0  0
    0.1131   -1.1431   -0.7135 C   0  0  0  0  0  0  0  0  0  0  0  0
    0.4676   -2.4695   -0.4837 N   0  0  0  0  0  0  0  0  0  0  0  0
   -1.0213   -0.7120   -0.7040 O   0  0  0  0  0  0  0  0  0  0  0  0
    1.2114   -0.4143   -1.0191 O   0  0  0  0  0  0  0  0  0  0  0  0
    1.9188    1.3908   -1.5866 H   0  0  0  0  0  0  0  0  0  0  0  0
    0.4438    1.4766   -0.5668 H   0  0  0  0  0  0  0  0  0  0  0  0
    0.3100    0.9909   -2.2732 H   0  0  0  0  0  0  0  0  0  0  0  0
    2.0939   -3.6390    0.3267 H   0  0  0  0  0  0  0  0  0  0  0  0
    1.7248   -2.1070    1.2662 H   0  0  0  0  0  0  0  0  0  0  0  0
   -0.7338   -2.6599    1.3185 H   0  0  0  0  0  0  0  0  0  0  0  0
   -0.4371   -4.2164    0.3908 H   0  0  0  0  0  0  0  0  0  0  0  0
  1  7  1  0  0  0  0
  1  9  1  0  0  0  0
  2  3  1  0  0  0  0
  2 12  1  0  0  0  0
  3 13  1  0  0  0  0
  4  6  2  0  0  0  0
  4  5  1  0  0  0  0
  5  2  1  0  0  0  0
  5  3  1  0  0  0  0
  7  4  1  0  0  0  0
  8  1  1  0  0  0  0
 10  1  1  0  0  0  0
 11  2  1  0  0  0  0
 14  3  1  0  0  0  0
M  END
>  <HBA>
3

>  <HBD>
0

>  <TPSA>
29.31

>  <cid>
12638

>  <dipole>
2.29

>  <excitation_energy_1>
6.159

>  <excitation_energy_2>
6.653

>  <excitation_energy_3>
6.944

>  <excitation_energy_4>
7.181

>  <homo_energy>
-7.007

>  <homo_lumo_gap>
7.796

>  <logP>
0.006

>  <lumo_energy>
0.789

>  <melting_point>
8.83

>  <molecular_refractivity>
27.71

>  <oscillator_strength_1>
0.0182

>  <oscillator_strength_2>
0.0307

>  <oscillator_strength_3>
0.0234

>  <oscillator_strength_4>
0.0375

>  <open_babel_can_smiles>
COC(=O)N1CC1

>  <mulliken_charges>
14
1   -0.21198
2   -0.190023
3   -0.189496
4   0.726652
5   -0.382751
6   -0.490747
7   -0.450333
8   0.163345
9   0.167739
10   0.171969
11   0.169268
12   0.170015
13   0.176834
14   0.169507

>  <lowdin_charges>
14
1   -0.274926
2   -0.219414
3   -0.216799
4   0.198722
5   -0.146931
6   -0.283468
7   -0.195291
8   0.159636
9   0.158809
10   0.159952
11   0.165969
12   0.162317
13   0.166713
14   0.164711

$$$$

