PCCDB-ID:  49886
public computational chemistry database (PCCDB) project, http://pccdb.org

 27 28  0  0  0  0  0  0  0  0999 V2000
   -2.2976   -0.8291    1.8457 C   0  0  0  0  0  0  0  0  0  0  0  0
   -1.2317   -1.2406    2.6506 C   0  0  0  0  0  0  0  0  0  0  0  0
   -2.0778   -0.5695    0.4936 C   0  0  0  0  0  0  0  0  0  0  0  0
    0.0416   -1.3912    2.1046 C   0  0  0  0  0  0  0  0  0  0  0  0
   -0.7992   -0.7197   -0.0496 C   0  0  0  0  0  0  0  0  0  0  0  0
    3.4599   -2.8872    0.9852 C   0  0  0  0  0  0  0  0  0  0  0  0
    1.6048   -3.7813   -0.2752 C   0  0  0  0  0  0  0  0  0  0  0  0
    4.0031   -4.1620    1.1048 C   0  0  0  0  0  0  0  0  0  0  0  0
    2.1450   -5.0576   -0.1614 C   0  0  0  0  0  0  0  0  0  0  0  0
    1.6702   -1.2813    0.1573 C   0  0  0  0  0  0  0  0  0  0  0  0
    3.9158   -6.6194    0.6485 C   0  0  0  0  0  0  0  0  0  0  0  0
    0.2757   -1.1303    0.7466 C   0  0  0  0  0  0  0  0  0  0  0  0
    2.2566   -2.6764    0.2940 C   0  0  0  0  0  0  0  0  0  0  0  0
    3.3482   -5.2597    0.5299 C   0  0  0  0  0  0  0  0  0  0  0  0
    4.9513   -6.8927    1.2262 O   0  0  0  0  0  0  0  0  0  0  0  0
   -3.2907   -0.7128    2.2712 H   0  0  0  0  0  0  0  0  0  0  0  0
   -1.3936   -1.4454    3.7057 H   0  0  0  0  0  0  0  0  0  0  0  0
   -2.8994   -0.2494   -0.1419 H   0  0  0  0  0  0  0  0  0  0  0  0
    0.8640   -1.7199    2.7358 H   0  0  0  0  0  0  0  0  0  0  0  0
   -0.6342   -0.5101   -1.1043 H   0  0  0  0  0  0  0  0  0  0  0  0
    3.9743   -2.0383    1.4295 H   0  0  0  0  0  0  0  0  0  0  0  0
    0.6652   -3.6341   -0.8016 H   0  0  0  0  0  0  0  0  0  0  0  0
    4.9335   -4.3316    1.6384 H   0  0  0  0  0  0  0  0  0  0  0  0
    1.6343   -5.9082   -0.6085 H   0  0  0  0  0  0  0  0  0  0  0  0
    2.3513   -0.5640    0.6328 H   0  0  0  0  0  0  0  0  0  0  0  0
    1.6345   -1.0091   -0.9056 H   0  0  0  0  0  0  0  0  0  0  0  0
    3.3138   -7.4163    0.1564 H   0  0  0  0  0  0  0  0  0  0  0  0
  1 16  1  0  0  0  0
  1  2  2  0  0  0  0
  2 17  1  0  0  0  0
  3  1  1  0  0  0  0
  4  2  1  0  0  0  0
  4 19  1  0  0  0  0
  5  3  2  0  0  0  0
  5 12  1  0  0  0  0
  6  8  1  0  0  0  0
  6 21  1  0  0  0  0
  7  9  2  0  0  0  0
  7 13  1  0  0  0  0
  8 23  1  0  0  0  0
  9 14  1  0  0  0  0
 10 13  1  0  0  0  0
 10 25  1  0  0  0  0
 10 12  1  0  0  0  0
 11 15  2  0  0  0  0
 12  4  2  0  0  0  0
 13  6  2  0  0  0  0
 14 11  1  0  0  0  0
 14  8  2  0  0  0  0
 18  3  1  0  0  0  0
 20  5  1  0  0  0  0
 22  7  1  0  0  0  0
 24  9  1  0  0  0  0
 26 10  1  0  0  0  0
 27 11  1  0  0  0  0
M  END
>  <HBA>
1

>  <HBD>
0

>  <TPSA>
17.07

>  <cid>
49886

>  <dipole>
3.71

>  <excitation_energy_1>
3.695

>  <excitation_energy_2>
4.358

>  <excitation_energy_3>
4.643

>  <excitation_energy_4>
4.677

>  <homo_energy>
-6.604

>  <homo_lumo_gap>
4.955

>  <logP>
3.09

>  <lumo_energy>
-1.649

>  <melting_point>
72.32

>  <molecular_refractivity>
61.28

>  <oscillator_strength_1>
0.0001

>  <oscillator_strength_2>
0.0756

>  <oscillator_strength_3>
0.0041

>  <oscillator_strength_4>
0.0216

>  <open_babel_can_smiles>
O=Cc1ccc(cc1)Cc1ccccc1

>  <mulliken_charges>
27
1   -0.130603
2   -0.128138
3   -0.125308
4   -0.174538
5   -0.196942
6   -0.196267
7   -0.17573
8   -0.155438
9   -0.178672
10   -0.443874
11   0.192384
12   0.18415
13   0.191916
14   0.09541
15   -0.409557
16   0.131034
17   0.132474
18   0.130884
19   0.131414
20   0.123995
21   0.133998
22   0.140059
23   0.16274
24   0.140131
25   0.161663
26   0.162284
27   0.10053

>  <lowdin_charges>
27
1   -0.157914
2   -0.150028
3   -0.155628
4   -0.162234
5   -0.169613
6   -0.169659
7   -0.158352
8   -0.122433
9   -0.140757
10   -0.271592
11   0.042076
12   -0.003296
13   0.01869
14   -0.059095
15   -0.229944
16   0.158025
17   0.157365
18   0.159432
19   0.159885
20   0.15271
21   0.160149
22   0.163203
23   0.175438
24   0.162754
25   0.161925
26   0.160555
27   0.118337

$$$$

