PCCDB-ID:  40495
public computational chemistry database (PCCDB) project, http://pccdb.org

 26 25  0  0  0  0  0  0  0  0999 V2000
    2.2723    1.3831    3.2926 C   0  0  0  0  0  0  0  0  0  0  0  0
    0.3296   -0.0907    2.6037 C   0  0  0  0  0  0  0  0  0  0  0  0
    2.0838   -1.0709   -0.9748 C   0  0  0  0  0  0  0  0  0  0  0  0
    2.3325    2.2224   -0.3971 C   0  0  0  0  0  0  0  0  0  0  0  0
    4.5830   -0.4873    1.4069 C   0  0  0  0  0  0  0  0  0  0  0  0
    1.8449    0.1373    2.5058 C   0  0  0  0  0  0  0  0  0  0  0  0
    2.3083    0.2289    1.0333 C   0  0  0  0  0  0  0  0  0  0  0  0
    1.9786   -1.0080    0.4426 O   0  0  0  0  0  0  0  0  0  0  0  0
    1.6231    1.2848    0.4097 O   0  0  0  0  0  0  0  0  0  0  0  0
    3.6910    0.4951    0.8957 O   0  0  0  0  0  0  0  0  0  0  0  0
    1.9826    1.2844    4.3448 H   0  0  0  0  0  0  0  0  0  0  0  0
    1.7818    2.2759    2.8898 H   0  0  0  0  0  0  0  0  0  0  0  0
    3.3539    1.5449    3.2496 H   0  0  0  0  0  0  0  0  0  0  0  0
    0.0309   -0.1911    3.6538 H   0  0  0  0  0  0  0  0  0  0  0  0
    0.0318   -0.9975    2.0714 H   0  0  0  0  0  0  0  0  0  0  0  0
   -0.2164    0.7550    2.1734 H   0  0  0  0  0  0  0  0  0  0  0  0
    1.8437   -2.1005   -1.2509 H   0  0  0  0  0  0  0  0  0  0  0  0
    3.0989   -0.8336   -1.3186 H   0  0  0  0  0  0  0  0  0  0  0  0
    1.3703   -0.3919   -1.4544 H   0  0  0  0  0  0  0  0  0  0  0  0
    1.5684    2.9158   -0.7583 H   0  0  0  0  0  0  0  0  0  0  0  0
    2.8243    1.7514   -1.2555 H   0  0  0  0  0  0  0  0  0  0  0  0
    3.0824    2.7720    0.1794 H   0  0  0  0  0  0  0  0  0  0  0  0
    5.5658   -0.2513    0.9905 H   0  0  0  0  0  0  0  0  0  0  0  0
    4.2869   -1.4953    1.0988 H   0  0  0  0  0  0  0  0  0  0  0  0
    4.6460   -0.4488    2.5024 H   0  0  0  0  0  0  0  0  0  0  0  0
    2.3450   -0.7425    2.9314 H   0  0  0  0  0  0  0  0  0  0  0  0
  1 11  1  0  0  0  0
  2 14  1  0  0  0  0
  3  8  1  0  0  0  0
  4 22  1  0  0  0  0
  4  9  1  0  0  0  0
  5 25  1  0  0  0  0
  6  2  1  0  0  0  0
  6 26  1  0  0  0  0
  6  1  1  0  0  0  0
  7  6  1  0  0  0  0
  8  7  1  0  0  0  0
  9  7  1  0  0  0  0
 10  7  1  0  0  0  0
 10  5  1  0  0  0  0
 12  1  1  0  0  0  0
 13  1  1  0  0  0  0
 15  2  1  0  0  0  0
 16  2  1  0  0  0  0
 17  3  1  0  0  0  0
 18  3  1  0  0  0  0
 19  3  1  0  0  0  0
 20  4  1  0  0  0  0
 21  4  1  0  0  0  0
 23  5  1  0  0  0  0
 24  5  1  0  0  0  0
M  END
>  <HBA>
3

>  <HBD>
0

>  <TPSA>
27.69

>  <cid>
40495

>  <dipole>
1.56

>  <excitation_energy_1>
6.601

>  <excitation_energy_2>
6.836

>  <excitation_energy_3>
6.905

>  <excitation_energy_4>
7.064

>  <homo_energy>
-6.92

>  <homo_lumo_gap>
9.227

>  <logP>
1.235

>  <lumo_energy>
2.308

>  <melting_point>
-43.05

>  <molecular_refractivity>
39.06

>  <oscillator_strength_1>
0.0142

>  <oscillator_strength_2>
0.0007

>  <oscillator_strength_3>
0.0054

>  <oscillator_strength_4>
0.0045

>  <open_babel_can_smiles>
COC(C(C)C)(OC)OC

>  <mulliken_charges>
26
1   -0.45425
2   -0.448802
3   -0.217333
4   -0.191068
5   -0.212505
6   -0.118257
7   0.796268
8   -0.491735
9   -0.52397
10   -0.514369
11   0.139012
12   0.154392
13   0.14734
14   0.132193
15   0.159005
16   0.156652
17   0.155245
18   0.141154
19   0.156023
20   0.151198
21   0.139231
22   0.155323
23   0.15646
24   0.159909
25   0.143321
26   0.129562

>  <lowdin_charges>
26
1   -0.444658
2   -0.444456
3   -0.285951
4   -0.281319
5   -0.281131
6   -0.139475
7   0.277825
8   -0.258979
9   -0.254566
10   -0.262882
11   0.147615
12   0.154408
13   0.149016
14   0.143795
15   0.158073
16   0.155558
17   0.154119
18   0.13752
19   0.148333
20   0.153625
21   0.139364
22   0.148706
23   0.154771
24   0.148455
25   0.136586
26   0.145648

$$$$

