PCCDB-ID:  17121
public computational chemistry database (PCCDB) project, http://pccdb.org

 30 29  0  0  1  0  0  0  0  0999 V2000
    0.7133    0.5573   -0.2283 C   0  0  0  0  0  0  0  0  0  0  0  0
    8.2060    1.4278   -0.4295 C   0  0  0  0  0  0  0  0  0  0  0  0
    8.7029    4.4961    3.6594 C   0  0  0  0  0  0  0  0  0  0  0  0
    2.2340    0.3774   -0.1804 C   0  0  0  0  0  0  0  0  0  0  0  0
    7.3887    2.3781    0.0234 C   0  0  0  0  0  0  0  0  0  0  0  0
    2.9566    1.5296    0.5290 C   0  0  0  0  0  0  0  0  0  0  0  0
    4.4796    1.3536    0.5828 C   0  0  0  0  0  0  0  0  0  0  0  0
    5.1903    2.5139    1.2921 C   0  0  0  0  0  0  0  0  0  0  0  0
    8.2831    3.2276    2.9514 C   0  0  0  0  0  0  0  0  0  0  0  0
    6.7095    2.3396    1.3651 C   0  0  2  0  0  0  0  0  0  0  0  0
    8.8281    2.1520    3.0661 O   0  0  0  0  0  0  0  0  0  0  0  0
    7.2031    3.4599    2.1659 O   0  0  0  0  0  0  0  0  0  0  0  0
    0.2267   -0.2806   -0.7402 H   0  0  0  0  0  0  0  0  0  0  0  0
    0.4394    1.4770   -0.7600 H   0  0  0  0  0  0  0  0  0  0  0  0
    0.2898    0.6221    0.7816 H   0  0  0  0  0  0  0  0  0  0  0  0
    8.6723    1.4937   -1.4090 H   0  0  0  0  0  0  0  0  0  0  0  0
    8.4454    0.5513    0.1678 H   0  0  0  0  0  0  0  0  0  0  0  0
    9.5090    4.2719    4.3589 H   0  0  0  0  0  0  0  0  0  0  0  0
    7.8535    4.9368    4.1904 H   0  0  0  0  0  0  0  0  0  0  0  0
    9.0475    5.2330    2.9257 H   0  0  0  0  0  0  0  0  0  0  0  0
    2.6243    0.2817   -1.2036 H   0  0  0  0  0  0  0  0  0  0  0  0
    2.4757   -0.5679    0.3260 H   0  0  0  0  0  0  0  0  0  0  0  0
    7.1752    3.2578   -0.5852 H   0  0  0  0  0  0  0  0  0  0  0  0
    2.5641    1.6296    1.5519 H   0  0  0  0  0  0  0  0  0  0  0  0
    2.7178    2.4754    0.0199 H   0  0  0  0  0  0  0  0  0  0  0  0
    4.8732    1.2495   -0.4371 H   0  0  0  0  0  0  0  0  0  0  0  0
    4.7195    0.4117    1.0979 H   0  0  0  0  0  0  0  0  0  0  0  0
    4.8119    2.6135    2.3176 H   0  0  0  0  0  0  0  0  0  0  0  0
    4.9645    3.4610    0.7827 H   0  0  0  0  0  0  0  0  0  0  0  0
    6.9704    1.4156    1.8878 H   0  0  0  0  0  0  0  0  0  0  0  0
  1  4  1  0  0  0  0
  1 15  1  0  0  0  0
  2  5  2  0  0  0  0
  2 17  1  0  0  0  0
  3 19  1  0  0  0  0
  3 18  1  0  0  0  0
  4 22  1  0  0  0  0
  4  6  1  0  0  0  0
  5 10  1  0  0  0  0
  6  7  1  0  0  0  0
  6 24  1  0  0  0  0
  7 27  1  0  0  0  0
  7  8  1  0  0  0  0
  8 10  1  0  0  0  0
  8 28  1  0  0  0  0
  9 11  2  0  0  0  0
  9  3  1  0  0  0  0
 10 30  1  1  0  0  0
 10 12  1  0  0  0  0
 12  9  1  0  0  0  0
 13  1  1  0  0  0  0
 14  1  1  0  0  0  0
 16  2  1  0  0  0  0
 20  3  1  0  0  0  0
 21  4  1  0  0  0  0
 23  5  1  0  0  0  0
 25  6  1  0  0  0  0
 26  7  1  0  0  0  0
 29  8  1  0  0  0  0
M  END
>  <HBA>
2

>  <HBD>
0

>  <TPSA>
26.3

>  <cid>
17121

>  <dipole>
1.86

>  <excitation_energy_1>
5.779

>  <excitation_energy_2>
6.442

>  <excitation_energy_3>
6.76

>  <excitation_energy_4>
6.819

>  <homo_energy>
-7.08

>  <homo_lumo_gap>
7.249

>  <logP>
2.684

>  <lumo_energy>
0.169

>  <melting_point>
-37.38

>  <molecular_refractivity>
50.99

>  <oscillator_strength_1>
0.0006

>  <oscillator_strength_2>
0.0167

>  <oscillator_strength_3>
0.0561

>  <oscillator_strength_4>
0.046

>  <open_babel_can_smiles>
CCCCC[C@H](OC(=O)C)C=C

>  <mulliken_charges>
30
1   -0.441884
2   -0.329617
3   -0.52423
4   -0.247716
5   -0.055169
6   -0.245691
7   -0.263006
8   -0.279789
9   0.605153
10   0.085168
11   -0.466504
12   -0.474769
13   0.142742
14   0.141454
15   0.14184
16   0.144786
17   0.157535
18   0.180656
19   0.178345
20   0.181221
21   0.13147
22   0.131654
23   0.13083
24   0.128641
25   0.12798
26   0.14118
27   0.13226
28   0.143401
29   0.138409
30   0.163649

>  <lowdin_charges>
30
1   -0.445091
2   -0.315328
3   -0.467152
4   -0.271002
5   -0.160731
6   -0.272291
7   -0.276041
8   -0.277688
9   0.202488
10   0.004249
11   -0.26596
12   -0.201474
13   0.150791
14   0.146559
15   0.145865
16   0.160766
17   0.165897
18   0.175275
19   0.176317
20   0.178506
21   0.138534
22   0.139495
23   0.154147
24   0.13722
25   0.137921
26   0.144561
27   0.140601
28   0.1491
29   0.145233
30   0.159231

$$$$

