PCCDB-ID:  9240
public computational chemistry database (PCCDB) project, http://pccdb.org

 24 25  0  0  1  0  0  0  0  0999 V2000
    1.3831    0.8474    0.7999 C   0  0  0  0  0  0  0  0  0  0  0  0
    1.3590   -0.6980    0.9527 C   0  0  0  0  0  0  0  0  0  0  0  0
    0.3806    0.6870   -1.5069 C   0  0  0  0  0  0  0  0  0  0  0  0
    0.4413   -0.8695   -1.4001 C   0  0  0  0  0  0  0  0  0  0  0  0
   -1.1530    1.2387    0.4731 C   0  0  0  0  0  0  0  0  0  0  0  0
   -1.1416   -1.2309    0.5847 C   0  0  0  0  0  0  0  0  0  0  0  0
    0.2761    1.3771   -0.1312 C   0  0  1  0  0  0  0  0  0  0  0  0
    0.3113   -1.3815    0.0493 C   0  0  2  0  0  0  0  0  0  0  0  0
   -1.8660   -0.0127    0.2282 N   0  0  0  0  0  0  0  0  0  0  0  0
    2.3528    1.1621    0.3922 H   0  0  0  0  0  0  0  0  0  0  0  0
    1.2964    1.3332    1.7799 H   0  0  0  0  0  0  0  0  0  0  0  0
    1.1658   -0.9787    1.9957 H   0  0  0  0  0  0  0  0  0  0  0  0
    2.3489   -1.1055    0.7102 H   0  0  0  0  0  0  0  0  0  0  0  0
   -0.4616    0.9961   -2.1401 H   0  0  0  0  0  0  0  0  0  0  0  0
    1.2831    1.0540   -2.0112 H   0  0  0  0  0  0  0  0  0  0  0  0
    1.3956   -1.2267   -1.8068 H   0  0  0  0  0  0  0  0  0  0  0  0
   -0.3388   -1.3268   -2.0229 H   0  0  0  0  0  0  0  0  0  0  0  0
   -1.7859    2.0408    0.0728 H   0  0  0  0  0  0  0  0  0  0  0  0
   -1.1016    1.3982    1.5601 H   0  0  0  0  0  0  0  0  0  0  0  0
   -1.1277   -1.3155    1.6812 H   0  0  0  0  0  0  0  0  0  0  0  0
   -1.7446   -2.0710    0.2174 H   0  0  0  0  0  0  0  0  0  0  0  0
    0.4540    2.4533   -0.2711 H   0  0  0  0  0  0  0  0  0  0  0  0
    0.5309   -2.4591    0.0536 H   0  0  0  0  0  0  0  0  0  0  0  0
   -2.1288   -0.0576   -0.7537 H   0  0  0  0  0  0  0  0  0  0  0  0
  1  2  1  0  0  0  0
  1 11  1  0  0  0  0
  2 12  1  0  0  0  0
  3  4  1  0  0  0  0
  3  7  1  0  0  0  0
  4  8  1  0  0  0  0
  5 19  1  0  0  0  0
  6 20  1  0  0  0  0
  7 22  1  6  0  0  0
  7  5  1  0  0  0  0
  7  1  1  0  0  0  0
  8 23  1  6  0  0  0
  8  6  1  0  0  0  0
  8  2  1  0  0  0  0
  9  5  1  0  0  0  0
  9  6  1  0  0  0  0
 10  1  1  0  0  0  0
 13  2  1  0  0  0  0
 14  3  1  0  0  0  0
 15  3  1  0  0  0  0
 16  4  1  0  0  0  0
 17  4  1  0  0  0  0
 18  5  1  0  0  0  0
 21  6  1  0  0  0  0
 24  9  1  0  0  0  0
M  END
>  <HBA>
1

>  <HBD>
1

>  <TPSA>
12.03

>  <cid>
9240

>  <dipole>
1.18

>  <excitation_energy_1>
4.983

>  <excitation_energy_2>
5.574

>  <excitation_energy_3>
5.647

>  <excitation_energy_4>
5.851

>  <homo_energy>
-5.657

>  <homo_lumo_gap>
7.328

>  <logP>
1.725

>  <lumo_energy>
1.671

>  <melting_point>
44.44

>  <molecular_refractivity>
43.06

>  <oscillator_strength_1>
0.0027

>  <oscillator_strength_2>
0.0125

>  <oscillator_strength_3>
0.0262

>  <oscillator_strength_4>
0.0136

>  <open_babel_can_smiles>
N1C[C@@H]2CC[C@H](C1)CC2

>  <mulliken_charges>
24
1   -0.269718
2   -0.269662
3   -0.275897
4   -0.274078
5   -0.150063
6   -0.148613
7   -0.084593
8   -0.085715
9   -0.530932
10   0.12906
11   0.130972
12   0.131012
13   0.129892
14   0.124408
15   0.133037
16   0.133046
17   0.125459
18   0.133105
19   0.133773
20   0.133356
21   0.13186
22   0.113985
23   0.114203
24   0.292105

>  <lowdin_charges>
24
1   -0.284737
2   -0.284532
3   -0.287635
4   -0.287299
5   -0.212743
6   -0.212172
7   -0.148468
8   -0.148064
9   -0.355464
10   0.141018
11   0.141506
12   0.140358
13   0.141657
14   0.138405
15   0.14459
16   0.144034
17   0.140177
18   0.144623
19   0.13732
20   0.136272
21   0.143772
22   0.138829
23   0.139368
24   0.249186

$$$$

