PCCDB-ID:  16644
public computational chemistry database (PCCDB) project, http://pccdb.org

 22 22  0  0  0  0  0  0  0  0999 V2000
   -1.4947   -0.5526    0.5827 C   0  0  0  0  0  0  0  0  0  0  0  0
   -1.1388   -0.0760   -0.6790 C   0  0  0  0  0  0  0  0  0  0  0  0
   -0.4954   -0.9105    1.4916 C   0  0  0  0  0  0  0  0  0  0  0  0
    0.2084    0.0391   -1.0291 C   0  0  0  0  0  0  0  0  0  0  0  0
    0.8485   -0.7892    1.1407 C   0  0  0  0  0  0  0  0  0  0  0  0
    2.6757   -0.1479   -0.5009 C   0  0  0  0  0  0  0  0  0  0  0  0
    1.2174   -0.3112   -0.1251 C   0  0  0  0  0  0  0  0  0  0  0  0
    4.8309   -1.2985   -0.2761 C   0  0  0  0  0  0  0  0  0  0  0  0
    5.4345   -0.1962   -0.5367 N   0  0  0  0  0  0  0  0  0  0  0  0
    5.4072   -2.5692   -0.0994 N   0  0  0  0  0  0  0  0  0  0  0  0
    3.4461   -1.3428   -0.1630 N   0  0  0  0  0  0  0  0  0  0  0  0
   -2.5422   -0.6466    0.8568 H   0  0  0  0  0  0  0  0  0  0  0  0
   -1.9082    0.2011   -1.3951 H   0  0  0  0  0  0  0  0  0  0  0  0
   -0.7648   -1.2825    2.4770 H   0  0  0  0  0  0  0  0  0  0  0  0
    0.4804    0.4057   -2.0165 H   0  0  0  0  0  0  0  0  0  0  0  0
    1.6258   -1.0696    1.8463 H   0  0  0  0  0  0  0  0  0  0  0  0
    3.1313    0.6847    0.0451 H   0  0  0  0  0  0  0  0  0  0  0  0
    2.7671    0.1061   -1.5674 H   0  0  0  0  0  0  0  0  0  0  0  0
    6.4475   -0.3107   -0.4706 H   0  0  0  0  0  0  0  0  0  0  0  0
    6.4137   -2.5426    0.0109 H   0  0  0  0  0  0  0  0  0  0  0  0
    4.9729   -3.1162    0.6373 H   0  0  0  0  0  0  0  0  0  0  0  0
    3.0378   -2.2034   -0.5117 H   0  0  0  0  0  0  0  0  0  0  0  0
  1 12  1  0  0  0  0
  1  3  2  0  0  0  0
  2  1  1  0  0  0  0
  3 14  1  0  0  0  0
  4  2  2  0  0  0  0
  4  7  1  0  0  0  0
  5  3  1  0  0  0  0
  5 16  1  0  0  0  0
  6 11  1  0  0  0  0
  6  7  1  0  0  0  0
  6 17  1  0  0  0  0
  7  5  2  0  0  0  0
  8 11  1  0  0  0  0
  8 10  2  0  0  0  0
  9 19  1  0  0  0  0
  9  8  1  0  0  0  0
 10 20  1  0  0  0  0
 10 21  1  0  0  0  0
 13  2  1  0  0  0  0
 15  4  1  0  0  0  0
 18  6  1  0  0  0  0
 22 11  1  0  0  0  0
M  RAD  1   9   2
M  END
>  <HBA>
3

>  <HBD>
2

>  <TPSA>
64.4

>  <cid>
16644

>  <dipole>
2.71

>  <excitation_energy_1>
5.232

>  <excitation_energy_2>
5.253

>  <excitation_energy_3>
5.405

>  <excitation_energy_4>
5.553

>  <homo_energy>
-6.079

>  <homo_lumo_gap>
6.079

>  <logP>
1.861

>  <lumo_energy>
0.0

>  <melting_point>
132.85

>  <molecular_refractivity>
45.31

>  <oscillator_strength_1>
0.0031

>  <oscillator_strength_2>
0.0013

>  <oscillator_strength_3>
0.002

>  <oscillator_strength_4>
0.0132

>  <open_babel_can_smiles>
[NH]C(=[NH2])NCc1ccccc1

>  <mulliken_charges>
22
1   -0.129536
2   -0.12778
3   -0.130408
4   -0.187537
5   -0.1656
6   -0.174673
7   0.125388
8   0.589683
9   -0.64518
10   -0.756721
11   -0.606805
12   0.127794
13   0.128811
14   0.127676
15   0.12709
16   0.13377
17   0.191114
18   0.149085
19   0.264087
20   0.318457
21   0.321789
22   0.319496

>  <lowdin_charges>
22
1   -0.158393
2   -0.15743
3   -0.155056
4   -0.165749
5   -0.163649
6   -0.186637
7   -0.015974
8   0.123617
9   -0.474643
10   -0.512128
11   -0.310307
12   0.155495
13   0.158392
14   0.155805
15   0.155462
16   0.161605
17   0.175821
18   0.142437
19   0.244338
20   0.273176
21   0.278342
22   0.275477

$$$$

