PCCDB-ID:  1383
public computational chemistry database (PCCDB) project, http://pccdb.org

 25 24  0  0  0  0  0  0  0  0999 V2000
    2.6978    1.3386   -0.9604 C   0  0  0  0  0  0  0  0  0  0  0  0
    8.1856    2.8292    0.6133 C   0  0  0  0  0  0  0  0  0  0  0  0
    5.6713    0.2590   -0.6901 C   0  0  0  0  0  0  0  0  0  0  0  0
    4.3461   -0.2778   -0.1297 C   0  0  0  0  0  0  0  0  0  0  0  0
    6.3902    1.1564    0.3148 C   0  0  0  0  0  0  0  0  0  0  0  0
    3.4004    0.7927    0.1981 N   0  0  0  0  0  0  0  0  0  0  0  0
    8.9094    1.0736   -2.0257 N   0  0  0  0  0  0  0  0  0  0  0  0
    7.5589    1.8386   -0.2745 N   0  0  0  0  0  0  0  0  0  0  0  0
    8.4707    0.9615   -0.7892 N   0  0  0  0  0  0  0  0  0  0  0  0
    9.8679    0.3091   -2.2591 O   0  0  0  0  0  0  0  0  0  0  0  0
    9.1729    0.1193    0.0884 O   0  0  0  0  0  0  0  0  0  0  0  0
    1.9469    2.0597   -0.6215 H   0  0  0  0  0  0  0  0  0  0  0  0
    2.1927    0.5743   -1.5804 H   0  0  0  0  0  0  0  0  0  0  0  0
    3.3990    1.8771   -1.6068 H   0  0  0  0  0  0  0  0  0  0  0  0
    7.4376    3.5934    0.8398 H   0  0  0  0  0  0  0  0  0  0  0  0
    9.0181    3.2983    0.0835 H   0  0  0  0  0  0  0  0  0  0  0  0
    8.5504    2.3904    1.5524 H   0  0  0  0  0  0  0  0  0  0  0  0
    5.4994    0.8243   -1.6137 H   0  0  0  0  0  0  0  0  0  0  0  0
    6.3051   -0.5947   -0.9587 H   0  0  0  0  0  0  0  0  0  0  0  0
    4.5500   -0.8336    0.7945 H   0  0  0  0  0  0  0  0  0  0  0  0
    3.9263   -1.0029   -0.8525 H   0  0  0  0  0  0  0  0  0  0  0  0
    6.6810    0.5806    1.2085 H   0  0  0  0  0  0  0  0  0  0  0  0
    5.7085    1.9469    0.6398 H   0  0  0  0  0  0  0  0  0  0  0  0
    2.7141    0.4322    0.8563 H   0  0  0  0  0  0  0  0  0  0  0  0
    9.8449   -0.2256   -0.5668 H   0  0  0  0  0  0  0  0  0  0  0  0
  1 12  1  0  0  0  0
  1  6  1  0  0  0  0
  2 15  1  0  0  0  0
  2 17  1  0  0  0  0
  3  4  1  0  0  0  0
  3  5  1  0  0  0  0
  4  6  1  0  0  0  0
  4 20  1  0  0  0  0
  5 23  1  0  0  0  0
  5 22  1  0  0  0  0
  6 24  1  0  0  0  0
  7  9  1  0  0  0  0
  8  5  1  0  0  0  0
  8  2  1  0  0  0  0
  9  8  1  0  0  0  0
  9 11  1  0  0  0  0
 10  7  1  0  0  0  0
 13  1  1  0  0  0  0
 14  1  1  0  0  0  0
 16  2  1  0  0  0  0
 18  3  1  0  0  0  0
 19  3  1  0  0  0  0
 21  4  1  0  0  0  0
 25 11  1  0  0  0  0
M  RAD  2   7   2  10   2
M  END
>  <HBA>
6

>  <HBD>
2

>  <TPSA>
68.17

>  <cid>
1383

>  <dipole>
4.07

>  <excitation_energy_1>
3.914

>  <excitation_energy_2>
4.485

>  <excitation_energy_3>
4.821

>  <excitation_energy_4>
5.402

>  <homo_energy>
-6.212

>  <homo_lumo_gap>
5.159

>  <logP>
0.206

>  <lumo_energy>
-1.053

>  <melting_point>
79.51

>  <molecular_refractivity>
40.21

>  <oscillator_strength_1>
0.0016

>  <oscillator_strength_2>
0.0012

>  <oscillator_strength_3>
0.0001

>  <oscillator_strength_4>
0.0014

>  <open_babel_can_smiles>
CNCCCN(N([N][O])O)C

>  <mulliken_charges>
25
1   -0.310416
2   -0.2993
3   -0.274491
4   -0.140741
5   -0.117728
6   -0.537684
7   0.163397
8   -0.276586
9   0.168357
10   -0.422972
11   -0.515816
12   0.150797
13   0.124398
14   0.159811
15   0.169432
16   0.17486
17   0.162281
18   0.157864
19   0.153164
20   0.135851
21   0.121741
22   0.142394
23   0.177679
24   0.29986
25   0.433848

>  <lowdin_charges>
25
1   -0.367422
2   -0.359373
3   -0.289869
4   -0.204078
5   -0.205795
6   -0.367611
7   0.056901
8   -0.089964
9   0.121203
10   -0.312279
11   -0.393589
12   0.153488
13   0.124991
14   0.152208
15   0.164866
16   0.166921
17   0.14811
18   0.153968
19   0.154749
20   0.143705
21   0.125849
22   0.137493
23   0.166952
24   0.257961
25   0.360615

$$$$

