PCCDB-ID:  28679
public computational chemistry database (PCCDB) project, http://pccdb.org

 36 35  0  0  0  0  0  0  0  0999 V2000
    3.4247    0.7250   -1.5535 C   0  0  0  0  0  0  0  0  0  0  0  0
    4.9579   -5.6009    2.6308 C   0  0  0  0  0  0  0  0  0  0  0  0
    1.0834   -2.3588    0.8258 C   0  0  0  0  0  0  0  0  0  0  0  0
    1.4294   -2.2202   -1.6404 C   0  0  0  0  0  0  0  0  0  0  0  0
    1.7050   -5.0461   -0.2039 C   0  0  0  0  0  0  0  0  0  0  0  0
    3.6067   -4.2062   -1.5972 C   0  0  0  0  0  0  0  0  0  0  0  0
    3.2447   -1.4070   -0.0754 C   0  0  0  0  0  0  0  0  0  0  0  0
    3.7551   -4.1048    0.9205 C   0  0  0  0  0  0  0  0  0  0  0  0
    2.7996    0.0300   -0.3561 C   0  0  0  0  0  0  0  0  0  0  0  0
    4.3612   -5.4744    1.2356 C   0  0  0  0  0  0  0  0  0  0  0  0
    2.1390   -2.4991   -0.2944 C   0  0  0  0  0  0  0  0  0  0  0  0
    2.8022   -3.9588   -0.2990 C   0  0  0  0  0  0  0  0  0  0  0  0
    1.9987    0.6065    0.3588 O   0  0  0  0  0  0  0  0  0  0  0  0
    4.4025   -6.4096    0.4571 O   0  0  0  0  0  0  0  0  0  0  0  0
    3.2648    0.1406   -2.4679 H   0  0  0  0  0  0  0  0  0  0  0  0
    4.5113    0.8040   -1.4159 H   0  0  0  0  0  0  0  0  0  0  0  0
    2.9995    1.7237   -1.6711 H   0  0  0  0  0  0  0  0  0  0  0  0
    5.5745   -4.7303    2.8839 H   0  0  0  0  0  0  0  0  0  0  0  0
    5.5536   -6.5135    2.6963 H   0  0  0  0  0  0  0  0  0  0  0  0
    4.1507   -5.6478    3.3736 H   0  0  0  0  0  0  0  0  0  0  0  0
    0.7608   -1.3180    0.9060 H   0  0  0  0  0  0  0  0  0  0  0  0
    1.4758   -2.6495    1.8074 H   0  0  0  0  0  0  0  0  0  0  0  0
    0.2034   -2.9762    0.6220 H   0  0  0  0  0  0  0  0  0  0  0  0
    0.8678   -1.2812   -1.5821 H   0  0  0  0  0  0  0  0  0  0  0  0
    0.7098   -3.0063   -1.8887 H   0  0  0  0  0  0  0  0  0  0  0  0
    2.1327   -2.1388   -2.4752 H   0  0  0  0  0  0  0  0  0  0  0  0
    2.1476   -6.0329   -0.3549 H   0  0  0  0  0  0  0  0  0  0  0  0
    0.9326   -4.9065   -0.9670 H   0  0  0  0  0  0  0  0  0  0  0  0
    1.2104   -5.0465    0.7733 H   0  0  0  0  0  0  0  0  0  0  0  0
    4.1294   -5.1620   -1.5264 H   0  0  0  0  0  0  0  0  0  0  0  0
    4.3551   -3.4264   -1.7816 H   0  0  0  0  0  0  0  0  0  0  0  0
    2.9489   -4.2507   -2.4707 H   0  0  0  0  0  0  0  0  0  0  0  0
    3.5674   -1.4274    0.9717 H   0  0  0  0  0  0  0  0  0  0  0  0
    4.1183   -1.6323   -0.6959 H   0  0  0  0  0  0  0  0  0  0  0  0
    4.6246   -3.4398    0.8048 H   0  0  0  0  0  0  0  0  0  0  0  0
    3.2607   -3.7616    1.8383 H   0  0  0  0  0  0  0  0  0  0  0  0
  1 16  1  0  0  0  0
  1  9  1  0  0  0  0
  2 19  1  0  0  0  0
  2 18  1  0  0  0  0
  2 20  1  0  0  0  0
  3 21  1  0  0  0  0
  3 22  1  0  0  0  0
  4 24  1  0  0  0  0
  4 11  1  0  0  0  0
  5 29  1  0  0  0  0
  6 30  1  0  0  0  0
  6 12  1  0  0  0  0
  7 33  1  0  0  0  0
  8 10  1  0  0  0  0
  8 36  1  0  0  0  0
  9  7  1  0  0  0  0
  9 13  2  0  0  0  0
 10  2  1  0  0  0  0
 11  7  1  0  0  0  0
 11  3  1  0  0  0  0
 12 11  1  0  0  0  0
 12  5  1  0  0  0  0
 12  8  1  0  0  0  0
 14 10  2  0  0  0  0
 15  1  1  0  0  0  0
 17  1  1  0  0  0  0
 23  3  1  0  0  0  0
 25  4  1  0  0  0  0
 26  4  1  0  0  0  0
 27  5  1  0  0  0  0
 28  5  1  0  0  0  0
 31  6  1  0  0  0  0
 32  6  1  0  0  0  0
 34  7  1  0  0  0  0
 35  8  1  0  0  0  0
M  END
>  <HBA>
2

>  <HBD>
0

>  <TPSA>
34.14

>  <cid>
28679

>  <dipole>
1.58

>  <excitation_energy_1>
4.254

>  <excitation_energy_2>
4.333

>  <excitation_energy_3>
5.578

>  <excitation_energy_4>
5.599

>  <homo_energy>
-6.558

>  <homo_lumo_gap>
6.068

>  <logP>
2.997

>  <lumo_energy>
-0.49

>  <melting_point>
49.61

>  <molecular_refractivity>
59.68

>  <oscillator_strength_1>
0.0003

>  <oscillator_strength_2>
0.0001

>  <oscillator_strength_3>
0.0015

>  <oscillator_strength_4>
0.021

>  <open_babel_can_smiles>
CC(=O)CC(C(CC(=O)C)(C)C)(C)C

>  <mulliken_charges>
36
1   -0.533475
2   -0.529498
3   -0.479433
4   -0.486391
5   -0.481955
6   -0.485073
7   -0.364108
8   -0.385941
9   0.450342
10   0.460843
11   0.112795
12   0.120526
13   -0.441268
14   -0.438685
15   0.171903
16   0.168988
17   0.178183
18   0.163702
19   0.180391
20   0.174611
21   0.184153
22   0.1334
23   0.144158
24   0.156949
25   0.151271
26   0.144501
27   0.178016
28   0.14061
29   0.138318
30   0.183262
31   0.128711
32   0.144242
33   0.161407
34   0.137635
35   0.163598
36   0.153314

>  <lowdin_charges>
36
1   -0.473693
2   -0.476768
3   -0.454741
4   -0.453693
5   -0.453192
6   -0.458004
7   -0.315816
8   -0.316423
9   0.169762
10   0.172681
11   0.021916
12   0.017816
13   -0.241573
14   -0.238495
15   0.169746
16   0.168293
17   0.170543
18   0.166156
19   0.173217
20   0.173852
21   0.168929
22   0.141847
23   0.150425
24   0.156244
25   0.153992
26   0.148111
27   0.166591
28   0.148419
29   0.146193
30   0.169438
31   0.1399
32   0.150625
33   0.163952
34   0.148578
35   0.166793
36   0.158378

$$$$

