PCCDB-ID:  43775
public computational chemistry database (PCCDB) project, http://pccdb.org

 18 17  0  0  0  0  0  0  0  0999 V2000
    3.5991    1.3513   -0.9562 C   0  0  0  0  0  0  0  0  0  0  0  0
    1.0493   -1.3561    0.3986 C   0  0  0  0  0  0  0  0  0  0  0  0
    4.1299    1.2582    0.4770 C   0  0  0  0  0  0  0  0  0  0  0  0
    2.1449    0.2695    1.7414 C   0  0  0  0  0  0  0  0  0  0  0  0
    4.3124   -0.8869    1.4887 N   0  0  0  0  0  0  0  0  0  0  0  0
    3.5208    0.1825    1.2571 N   0  0  0  0  0  0  0  0  0  0  0  0
    3.7931   -1.8128    2.1005 O   0  0  0  0  0  0  0  0  0  0  0  0
    1.1687    0.0158    0.7618 O   0  0  0  0  0  0  0  0  0  0  0  0
    4.0885    2.1796   -1.4807 H   0  0  0  0  0  0  0  0  0  0  0  0
    2.5187    1.5174   -0.9685 H   0  0  0  0  0  0  0  0  0  0  0  0
    3.8097    0.4258   -1.5025 H   0  0  0  0  0  0  0  0  0  0  0  0
    0.2304   -1.4119   -0.3222 H   0  0  0  0  0  0  0  0  0  0  0  0
    0.8133   -1.9801    1.2710 H   0  0  0  0  0  0  0  0  0  0  0  0
    1.9678   -1.7370   -0.0654 H   0  0  0  0  0  0  0  0  0  0  0  0
    3.9629    2.2030    1.0101 H   0  0  0  0  0  0  0  0  0  0  0  0
    5.2050    1.0574    0.4810 H   0  0  0  0  0  0  0  0  0  0  0  0
    1.9757    1.2972    2.0727 H   0  0  0  0  0  0  0  0  0  0  0  0
    2.0678   -0.4261    2.5836 H   0  0  0  0  0  0  0  0  0  0  0  0
  1  3  1  0  0  0  0
  2  8  1  0  0  0  0
  2 13  1  0  0  0  0
  3 16  1  0  0  0  0
  3 15  1  0  0  0  0
  3  6  1  0  0  0  0
  4 17  1  0  0  0  0
  4 18  1  0  0  0  0
  5  7  2  0  0  0  0
  6  5  1  0  0  0  0
  6  4  1  0  0  0  0
  8  4  1  0  0  0  0
  9  1  1  0  0  0  0
 10  1  1  0  0  0  0
 11  1  1  0  0  0  0
 12  2  1  0  0  0  0
 14  2  1  0  0  0  0
M  END
>  <HBA>
4

>  <HBD>
0

>  <TPSA>
41.9

>  <cid>
43775

>  <dipole>
2.55

>  <excitation_energy_1>
3.228

>  <excitation_energy_2>
5.329

>  <excitation_energy_3>
5.772

>  <excitation_energy_4>
5.929

>  <homo_energy>
-6.169

>  <homo_lumo_gap>
5.056

>  <logP>
0.594

>  <lumo_energy>
-1.113

>  <melting_point>
-12.5

>  <molecular_refractivity>
30.06

>  <oscillator_strength_1>
0.0008

>  <oscillator_strength_2>
0.0224

>  <oscillator_strength_3>
0.1401

>  <oscillator_strength_4>
0.0064

>  <open_babel_can_smiles>
COCN(N=O)CC

>  <mulliken_charges>
18
1   -0.446165
2   -0.210688
3   -0.138725
4   0.077875
5   0.156805
6   -0.228014
7   -0.374309
8   -0.448215
9   0.149303
10   0.176086
11   0.159095
12   0.159539
13   0.150777
14   0.152567
15   0.151669
16   0.177518
17   0.158936
18   0.175948

>  <lowdin_charges>
18
1   -0.453926
2   -0.284064
3   -0.195587
4   -0.088177
5   0.057882
6   -0.059221
7   -0.266034
8   -0.26414
9   0.156949
10   0.162636
11   0.15745
12   0.157045
13   0.145662
14   0.144183
15   0.148734
16   0.164041
17   0.156627
18   0.159941

$$$$

