PCCDB-ID:  12249
public computational chemistry database (PCCDB) project, http://pccdb.org

 19 18  0  0  0  0  0  0  0  0999 V2000
    0.9385    0.4480   -0.5259 C   0  0  0  0  0  0  0  0  0  0  0  0
    3.1131    1.7517   -0.5789 C   0  0  0  0  0  0  0  0  0  0  0  0
    4.4840   -0.6920    2.7472 C   0  0  0  0  0  0  0  0  0  0  0  0
    2.7487   -0.0710    1.1543 C   0  0  0  0  0  0  0  0  0  0  0  0
    2.4528    0.3995   -0.2790 C   0  0  0  0  0  0  0  0  0  0  0  0
    4.1780   -0.2613    1.3884 N   0  0  0  0  0  0  0  0  0  0  0  0
    0.7170    0.7576   -1.5537 H   0  0  0  0  0  0  0  0  0  0  0  0
    0.4553    1.1684    0.1471 H   0  0  0  0  0  0  0  0  0  0  0  0
    0.4696   -0.5296   -0.3604 H   0  0  0  0  0  0  0  0  0  0  0  0
    2.9574    2.0442   -1.6242 H   0  0  0  0  0  0  0  0  0  0  0  0
    4.1876    1.7137   -0.3797 H   0  0  0  0  0  0  0  0  0  0  0  0
    2.6833    2.5389    0.0549 H   0  0  0  0  0  0  0  0  0  0  0  0
    5.5586   -0.8829    2.8386 H   0  0  0  0  0  0  0  0  0  0  0  0
    3.9422   -1.6013    3.0712 H   0  0  0  0  0  0  0  0  0  0  0  0
    4.2276    0.1105    3.4492 H   0  0  0  0  0  0  0  0  0  0  0  0
    2.1600   -0.9870    1.3666 H   0  0  0  0  0  0  0  0  0  0  0  0
    2.3940    0.6913    1.8638 H   0  0  0  0  0  0  0  0  0  0  0  0
    2.8804   -0.3503   -0.9652 H   0  0  0  0  0  0  0  0  0  0  0  0
    4.5256   -0.9603    0.7329 H   0  0  0  0  0  0  0  0  0  0  0  0
  1  9  1  0  0  0  0
  1  5  1  0  0  0  0
  1  8  1  0  0  0  0
  2 11  1  0  0  0  0
  2  5  1  0  0  0  0
  2 12  1  0  0  0  0
  3 13  1  0  0  0  0
  3 14  1  0  0  0  0
  3 15  1  0  0  0  0
  4 16  1  0  0  0  0
  4  6  1  0  0  0  0
  4 17  1  0  0  0  0
  5  4  1  0  0  0  0
  6  3  1  0  0  0  0
  7  1  1  0  0  0  0
 10  2  1  0  0  0  0
 18  5  1  0  0  0  0
 19  6  1  0  0  0  0
M  END
>  <HBA>
1

>  <HBD>
1

>  <TPSA>
12.03

>  <cid>
12249

>  <dipole>
0.99

>  <excitation_energy_1>
5.336

>  <excitation_energy_2>
5.864

>  <excitation_energy_3>
5.95

>  <excitation_energy_4>
6.256

>  <homo_energy>
-5.861

>  <homo_lumo_gap>
8.18

>  <logP>
1.253

>  <lumo_energy>
2.318

>  <melting_point>
1.28

>  <molecular_refractivity>
28.95

>  <oscillator_strength_1>
0.0033

>  <oscillator_strength_2>
0.0157

>  <oscillator_strength_3>
0.0095

>  <oscillator_strength_4>
0.0501

>  <open_babel_can_smiles>
CNCC(C)C

>  <mulliken_charges>
19
1   -0.443985
2   -0.434522
3   -0.297831
4   -0.105791
5   -0.081988
6   -0.540571
7   0.142217
8   0.139724
9   0.13864
10   0.132545
11   0.163606
12   0.133255
13   0.146514
14   0.117325
15   0.151266
16   0.10366
17   0.131726
18   0.114087
19   0.290123

>  <lowdin_charges>
19
1   -0.444678
2   -0.444387
3   -0.358655
4   -0.204803
5   -0.124846
6   -0.362986
7   0.148748
8   0.14723
9   0.146284
10   0.143056
11   0.157784
12   0.144729
13   0.147905
14   0.119688
15   0.14889
16   0.114182
17   0.139204
18   0.132069
19   0.250587

$$$$

