PCCDB-ID:  10708
public computational chemistry database (PCCDB) project, http://pccdb.org

 21 21  0  0  0  0  0  0  0  0999 V2000
   -1.1776    0.2456    0.3605 C   0  0  0  0  0  0  0  0  0  0  0  0
   -0.6397    1.4694   -0.0051 C   0  0  0  0  0  0  0  0  0  0  0  0
    0.9538   -0.7831   -0.0776 C   0  0  0  0  0  0  0  0  0  0  0  0
   -0.3774   -0.9017    0.3170 C   0  0  0  0  0  0  0  0  0  0  0  0
    0.7144    1.6013   -0.3646 C   0  0  0  0  0  0  0  0  0  0  0  0
    1.5364    0.4491   -0.4121 C   0  0  0  0  0  0  0  0  0  0  0  0
   -1.0045   -2.2085    0.7229 C   0  0  0  0  0  0  0  0  0  0  0  0
    1.0854    3.0136   -0.7009 C   0  0  0  0  0  0  0  0  0  0  0  0
    2.9756    0.2989   -0.9025 C   0  0  0  0  0  0  0  0  0  0  0  0
   -2.0097   -2.2622    1.3899 O   0  0  0  0  0  0  0  0  0  0  0  0
   -0.3934   -3.3454    0.3106 O   0  0  0  0  0  0  0  0  0  0  0  0
    0.3755    3.7862   -1.2970 O   0  0  0  0  0  0  0  0  0  0  0  0
    2.2894    3.4120   -0.1825 O   0  0  0  0  0  0  0  0  0  0  0  0
    3.3540   -0.7735   -1.3211 O   0  0  0  0  0  0  0  0  0  0  0  0
    3.8156    1.3376   -0.8573 O   0  0  0  0  0  0  0  0  0  0  0  0
   -2.2134    0.1558    0.6692 H   0  0  0  0  0  0  0  0  0  0  0  0
   -1.2620    2.3575   -0.0144 H   0  0  0  0  0  0  0  0  0  0  0  0
    1.6092   -1.6457   -0.1380 H   0  0  0  0  0  0  0  0  0  0  0  0
    0.3156   -3.1503   -0.3240 H   0  0  0  0  0  0  0  0  0  0  0  0
    2.4282    4.3370   -0.4660 H   0  0  0  0  0  0  0  0  0  0  0  0
    3.4069    2.1241   -0.4430 H   0  0  0  0  0  0  0  0  0  0  0  0
  1 16  1  0  0  0  0
  2  1  2  0  0  0  0
  3  4  2  0  0  0  0
  4  1  1  0  0  0  0
  4  7  1  0  0  0  0
  5  2  1  0  0  0  0
  6  5  2  0  0  0  0
  6  3  1  0  0  0  0
  7 10  2  0  0  0  0
  8  5  1  0  0  0  0
  8 13  1  0  0  0  0
  9 15  1  0  0  0  0
  9  6  1  0  0  0  0
 11  7  1  0  0  0  0
 12  8  2  0  0  0  0
 14  9  2  0  0  0  0
 15 21  1  0  0  0  0
 17  2  1  0  0  0  0
 18  3  1  0  0  0  0
 19 11  1  0  0  0  0
 20 13  1  0  0  0  0
M  END
>  <HBA>
6

>  <HBD>
3

>  <TPSA>
111.9

>  <cid>
10708

>  <dipole>
4.44

>  <excitation_energy_1>
4.173

>  <excitation_energy_2>
4.256

>  <excitation_energy_3>
4.585

>  <excitation_energy_4>
4.816

>  <homo_energy>
-7.728

>  <homo_lumo_gap>
5.031

>  <logP>
0.781

>  <lumo_energy>
-2.697

>  <melting_point>
279.31

>  <molecular_refractivity>
47.32

>  <oscillator_strength_1>
0.0187

>  <oscillator_strength_2>
0.0113

>  <oscillator_strength_3>
0.0344

>  <oscillator_strength_4>
0.0764

>  <open_babel_can_smiles>
OC(=O)c1cc(ccc1C(=O)O)C(=O)O

>  <mulliken_charges>
21
1   -0.145753
2   -0.159146
3   -0.240822
4   0.071352
5   0.045292
6   0.004773
7   0.564274
8   0.507195
9   0.569824
10   -0.436877
11   -0.568151
12   -0.425165
13   -0.597238
14   -0.448457
15   -0.594411
16   0.186423
17   0.180025
18   0.177286
19   0.423915
20   0.43427
21   0.451391

>  <lowdin_charges>
21
1   -0.111355
2   -0.127545
3   -0.135853
4   -0.040233
5   -0.032347
6   -0.043227
7   0.191831
8   0.206166
9   0.191475
10   -0.228812
11   -0.342231
12   -0.226208
13   -0.361716
14   -0.248313
15   -0.349382
16   0.188032
17   0.184549
18   0.18256
19   0.36549
20   0.375931
21   0.361187

$$$$

