PCCDB-ID:  22721
public computational chemistry database (PCCDB) project, http://pccdb.org

 21 21  0  0  0  0  0  0  0  0999 V2000
    5.5017    1.7360   -0.1239 C   0  0  0  0  0  0  0  0  0  0  0  0
    4.8296    0.5889   -0.0502 C   0  0  0  0  0  0  0  0  0  0  0  0
    5.1410   -0.6766   -0.7878 C   0  0  0  0  0  0  0  0  0  0  0  0
    6.5869   -3.6756   -3.1399 C   0  0  0  0  0  0  0  0  0  0  0  0
    8.4140   -2.1501   -3.9314 C   0  0  0  0  0  0  0  0  0  0  0  0
    6.7041   -1.5194   -2.3478 C   0  0  0  0  0  0  0  0  0  0  0  0
    6.0039   -4.8126   -3.1549 N   0  0  0  0  0  0  0  0  0  0  0  0
    9.4503   -1.8074   -4.5946 N   0  0  0  0  0  0  0  0  0  0  0  0
    7.7459   -3.3662   -3.9068 N   0  0  0  0  0  0  0  0  0  0  0  0
    6.0934   -2.6516   -2.3399 N   0  0  0  0  0  0  0  0  0  0  0  0
    7.8160   -1.2156   -3.0876 N   0  0  0  0  0  0  0  0  0  0  0  0
    6.3081   -0.4775   -1.6112 O   0  0  0  0  0  0  0  0  0  0  0  0
    5.1948    2.6027    0.4536 H   0  0  0  0  0  0  0  0  0  0  0  0
    6.3746    1.8486   -0.7585 H   0  0  0  0  0  0  0  0  0  0  0  0
    3.9567    0.5071    0.5971 H   0  0  0  0  0  0  0  0  0  0  0  0
    4.3051   -0.9861   -1.4264 H   0  0  0  0  0  0  0  0  0  0  0  0
    5.3319   -1.5074   -0.0979 H   0  0  0  0  0  0  0  0  0  0  0  0
    6.4775   -5.4642   -3.7859 H   0  0  0  0  0  0  0  0  0  0  0  0
    9.7977   -2.5707   -5.1755 H   0  0  0  0  0  0  0  0  0  0  0  0
    8.1206   -4.0969   -4.4962 H   0  0  0  0  0  0  0  0  0  0  0  0
    8.2431   -0.3006   -3.0369 H   0  0  0  0  0  0  0  0  0  0  0  0
  1  2  2  0  0  0  0
  1 13  1  0  0  0  0
  2 15  1  0  0  0  0
  3 17  1  0  0  0  0
  3  2  1  0  0  0  0
  4 10  2  0  0  0  0
  5  9  1  0  0  0  0
  5 11  1  0  0  0  0
  6 10  2  0  0  0  0
  6 12  1  0  0  0  0
  7  4  1  0  0  0  0
  8  5  2  0  0  0  0
  9  4  1  0  0  0  0
 11 21  1  0  0  0  0
 11  6  1  0  0  0  0
 12  3  1  0  0  0  0
 14  1  1  0  0  0  0
 16  3  1  0  0  0  0
 18  7  1  0  0  0  0
 19  8  1  0  0  0  0
 20  9  1  0  0  0  0
M  RAD  1   7   2
M  END
>  <HBA>
6

>  <HBD>
2

>  <TPSA>
99.94

>  <cid>
22721

>  <dipole>
1.47

>  <excitation_energy_1>
5.437

>  <excitation_energy_2>
5.542

>  <excitation_energy_3>
5.651

>  <excitation_energy_4>
5.652

>  <homo_energy>
-6.493

>  <homo_lumo_gap>
6.278

>  <logP>
0.763

>  <lumo_energy>
-0.215

>  <melting_point>
133.33

>  <molecular_refractivity>
44.27

>  <oscillator_strength_1>
0.0022

>  <oscillator_strength_2>
0.0721

>  <oscillator_strength_3>
0.0187

>  <oscillator_strength_4>
0.0033

>  <open_babel_can_smiles>
C=CCOC1=[N]=C(NC(=N)N1)[NH]

>  <mulliken_charges>
21
1   -0.31606
2   -0.104618
3   -0.055803
4   0.615106
5   0.694264
6   0.786196
7   -0.61317
8   -0.650479
9   -0.699877
10   -0.520603
11   -0.677193
12   -0.502254
13   0.146356
14   0.15128
15   0.143176
16   0.183762
17   0.182553
18   0.264459
19   0.280995
20   0.329539
21   0.362372

>  <lowdin_charges>
21
1   -0.330133
2   -0.163648
3   -0.116254
4   0.131998
5   0.139743
6   0.187699
7   -0.414692
8   -0.45794
9   -0.285225
10   -0.23121
11   -0.227271
12   -0.173301
13   0.164408
14   0.163405
15   0.162586
16   0.169542
17   0.168603
18   0.246369
19   0.258586
20   0.292193
21   0.31454

$$$$

