PCCDB-ID:  23112
public computational chemistry database (PCCDB) project, http://pccdb.org

 19 18  0  0  0  0  0  0  0  0999 V2000
    1.6142    1.4364    0.6820 C   0  0  0  0  0  0  0  0  0  0  0  0
    2.6504    0.3846    0.3156 C   0  0  0  0  0  0  0  0  0  0  0  0
    5.8725    1.9059   -3.3523 C   0  0  0  0  0  0  0  0  0  0  0  0
    6.8545    2.0684   -4.4226 C   0  0  0  0  0  0  0  0  0  0  0  0
    4.5626    1.2564   -3.8373 C   0  0  0  0  0  0  0  0  0  0  0  0
    3.6160    1.1176   -1.7241 C   0  0  0  0  0  0  0  0  0  0  0  0
    7.5812    2.1767   -5.3224 N   0  0  0  0  0  0  0  0  0  0  0  0
    3.5940    0.8768   -3.0979 N   0  0  0  0  0  0  0  0  0  0  0  0
    4.4202    1.0756   -5.1552 O   0  0  0  0  0  0  0  0  0  0  0  0
    4.2493    1.9833   -1.1347 O   0  0  0  0  0  0  0  0  0  0  0  0
    2.7847    0.2549   -1.1194 O   0  0  0  0  0  0  0  0  0  0  0  0
    1.4764    1.4568    1.7693 H   0  0  0  0  0  0  0  0  0  0  0  0
    0.6497    1.2095    0.2168 H   0  0  0  0  0  0  0  0  0  0  0  0
    1.9411    2.4287    0.3591 H   0  0  0  0  0  0  0  0  0  0  0  0
    2.3428   -0.6115    0.6426 H   0  0  0  0  0  0  0  0  0  0  0  0
    3.6270    0.6224    0.7448 H   0  0  0  0  0  0  0  0  0  0  0  0
    5.6290    2.8748   -2.9041 H   0  0  0  0  0  0  0  0  0  0  0  0
    6.2954    1.3118   -2.5364 H   0  0  0  0  0  0  0  0  0  0  0  0
    5.2224    1.3502   -5.6364 H   0  0  0  0  0  0  0  0  0  0  0  0
  1 12  1  0  0  0  0
  2 15  1  0  0  0  0
  2  1  1  0  0  0  0
  2 16  1  0  0  0  0
  3 17  1  0  0  0  0
  3 18  1  0  0  0  0
  4  3  1  0  0  0  0
  5  3  1  0  0  0  0
  5  8  2  0  0  0  0
  6 10  2  0  0  0  0
  6 11  1  0  0  0  0
  7  4  3  0  0  0  0
  8  6  1  0  0  0  0
  9  5  1  0  0  0  0
 11  2  1  0  0  0  0
 13  1  1  0  0  0  0
 14  1  1  0  0  0  0
 19  9  1  0  0  0  0
M  END
>  <HBA>
5

>  <HBD>
1

>  <TPSA>
79.19

>  <cid>
23112

>  <dipole>
2.21

>  <excitation_energy_1>
4.559

>  <excitation_energy_2>
5.923

>  <excitation_energy_3>
6.229

>  <excitation_energy_4>
6.335

>  <homo_energy>
-7.325

>  <homo_lumo_gap>
5.995

>  <logP>
0.564

>  <lumo_energy>
-1.331

>  <melting_point>
78.68

>  <molecular_refractivity>
35.38

>  <oscillator_strength_1>
0.0006

>  <oscillator_strength_2>
0.083

>  <oscillator_strength_3>
0.0083

>  <oscillator_strength_4>
0.0726

>  <open_babel_can_smiles>
CCOC(=O)/N=C(\CC#N)/O

>  <mulliken_charges>
19
1   -0.462392
2   -0.042809
3   -0.409847
4   0.339073
5   0.519553
6   0.714466
7   -0.465728
8   -0.460075
9   -0.54683
10   -0.506218
11   -0.438341
12   0.151197
13   0.163955
14   0.175309
15   0.15797
16   0.166377
17   0.264891
18   0.24272
19   0.436726

>  <lowdin_charges>
19
1   -0.452226
2   -0.12398
3   -0.309733
4   -0.028758
5   0.186276
6   0.207082
7   -0.107109
8   -0.188424
9   -0.311928
10   -0.30888
11   -0.168699
12   0.157742
13   0.159384
14   0.164695
15   0.154633
16   0.156256
17   0.22481
18   0.215927
19   0.372934

$$$$

