PCCDB-ID:  59008
public computational chemistry database (PCCDB) project, http://pccdb.org

 36 37  0  0  1  0  0  0  0  0999 V2000
    2.2886   -1.3359   -1.5112 C   0  0  0  0  0  0  0  0  0  0  0  0
    2.9716   -1.4888    0.9117 C   0  0  0  0  0  0  0  0  0  0  0  0
   -3.0847    2.5901    0.4051 C   0  0  0  0  0  0  0  0  0  0  0  0
   -1.1871   -0.8820    3.8234 C   0  0  0  0  0  0  0  0  0  0  0  0
   -2.5351   -0.5557    3.5709 C   0  0  0  0  0  0  0  0  0  0  0  0
   -0.1565   -0.2682    3.1222 C   0  0  0  0  0  0  0  0  0  0  0  0
   -2.8778    0.3930    2.6140 C   0  0  0  0  0  0  0  0  0  0  0  0
    1.8176    1.5492    1.1094 C   0  0  0  0  0  0  0  0  0  0  0  0
   -0.5828    2.2762    0.5537 C   0  0  0  0  0  0  0  0  0  0  0  0
    2.1058   -0.7328   -0.1104 C   0  0  0  0  0  0  0  0  0  0  0  0
    0.3203    1.5199    1.2614 C   0  0  0  0  0  0  0  0  0  0  0  0
   -0.4672    0.6941    2.1453 C   0  0  0  0  0  0  0  0  0  0  0  0
    2.3806    0.7919   -0.1298 C   0  0  2  0  0  0  0  0  0  0  0  0
   -1.8359    1.0091    1.9107 C   0  0  0  0  0  0  0  0  0  0  0  0
    3.8129    1.0452   -0.3570 N   0  0  0  0  0  0  0  0  0  0  0  0
   -1.8823    1.9781    0.9286 N   0  0  0  0  0  0  0  0  0  0  0  0
    2.0945   -2.4153   -1.5038 H   0  0  0  0  0  0  0  0  0  0  0  0
    3.3102   -1.1699   -1.8686 H   0  0  0  0  0  0  0  0  0  0  0  0
    1.6005   -0.8779   -2.2324 H   0  0  0  0  0  0  0  0  0  0  0  0
    2.6637   -2.5389    0.9688 H   0  0  0  0  0  0  0  0  0  0  0  0
    2.8901   -1.0719    1.9227 H   0  0  0  0  0  0  0  0  0  0  0  0
    4.0290   -1.4744    0.6211 H   0  0  0  0  0  0  0  0  0  0  0  0
   -2.8108    3.2980   -0.3804 H   0  0  0  0  0  0  0  0  0  0  0  0
   -3.6280    3.1328    1.1886 H   0  0  0  0  0  0  0  0  0  0  0  0
   -3.7540    1.8357   -0.0253 H   0  0  0  0  0  0  0  0  0  0  0  0
   -0.9532   -1.6263    4.5798 H   0  0  0  0  0  0  0  0  0  0  0  0
   -3.3200   -1.0533    4.1340 H   0  0  0  0  0  0  0  0  0  0  0  0
    0.8778   -0.5294    3.3299 H   0  0  0  0  0  0  0  0  0  0  0  0
   -3.9174    0.6450    2.4234 H   0  0  0  0  0  0  0  0  0  0  0  0
    2.2912    1.1580    2.0199 H   0  0  0  0  0  0  0  0  0  0  0  0
    2.1541    2.5925    1.0254 H   0  0  0  0  0  0  0  0  0  0  0  0
   -0.4051    3.0274   -0.2056 H   0  0  0  0  0  0  0  0  0  0  0  0
    1.0546   -0.8579    0.1809 H   0  0  0  0  0  0  0  0  0  0  0  0
    1.8574    1.1961   -1.0078 H   0  0  0  0  0  0  0  0  0  0  0  0
    4.3380    0.8200    0.4878 H   0  0  0  0  0  0  0  0  0  0  0  0
    3.9612    2.0414   -0.5149 H   0  0  0  0  0  0  0  0  0  0  0  0
  1 17  1  0  0  0  0
  1 10  1  0  0  0  0
  2 20  1  0  0  0  0
  2 21  1  0  0  0  0
  3 16  1  0  0  0  0
  3 24  1  0  0  0  0
  4 26  1  0  0  0  0
  5  4  1  0  0  0  0
  5 27  1  0  0  0  0
  6 28  1  0  0  0  0
  6  4  2  0  0  0  0
  7  5  2  0  0  0  0
  8 11  1  0  0  0  0
  8 30  1  0  0  0  0
  9 16  1  0  0  0  0
  9 11  2  0  0  0  0
 10 33  1  0  0  0  0
 10  2  1  0  0  0  0
 11 12  1  0  0  0  0
 12  6  1  0  0  0  0
 13 34  1  6  0  0  0
 13 10  1  0  0  0  0
 13  8  1  0  0  0  0
 14 12  2  0  0  0  0
 14  7  1  0  0  0  0
 15 13  1  0  0  0  0
 15 35  1  0  0  0  0
 16 14  1  0  0  0  0
 18  1  1  0  0  0  0
 19  1  1  0  0  0  0
 22  2  1  0  0  0  0
 23  3  1  0  0  0  0
 25  3  1  0  0  0  0
 29  7  1  0  0  0  0
 31  8  1  0  0  0  0
 32  9  1  0  0  0  0
 36 15  1  0  0  0  0
M  END
>  <HBA>
2

>  <HBD>
1

>  <TPSA>
30.95

>  <cid>
59008

>  <dipole>
2.77

>  <excitation_energy_1>
4.337

>  <excitation_energy_2>
4.636

>  <excitation_energy_3>
4.748

>  <excitation_energy_4>
4.895

>  <homo_energy>
-5.151

>  <homo_lumo_gap>
5.056

>  <logP>
3.404

>  <lumo_energy>
-0.095

>  <melting_point>
107.25

>  <molecular_refractivity>
70.1

>  <oscillator_strength_1>
0.0858

>  <oscillator_strength_2>
0.0058

>  <oscillator_strength_3>
0.0196

>  <oscillator_strength_4>
0.0168

>  <open_babel_can_smiles>
CC([C@@H](Cc1cn(c2c1cccc2)C)N)C

>  <mulliken_charges>
36
1   -0.445646
2   -0.469566
3   -0.321188
4   -0.140536
5   -0.151794
6   -0.211971
7   -0.168142
8   -0.361797
9   -0.016973
10   -0.056877
11   0.067588
12   0.065172
13   0.028585
14   0.302477
15   -0.713716
16   -0.498308
17   0.131083
18   0.163314
19   0.130806
20   0.14507
21   0.136015
22   0.147839
23   0.168002
24   0.170469
25   0.171284
26   0.118618
27   0.120598
28   0.125605
29   0.121228
30   0.13288
31   0.126516
32   0.14033
33   0.138762
34   0.119795
35   0.293311
36   0.291167

>  <lowdin_charges>
36
1   -0.443644
2   -0.448446
3   -0.348347
4   -0.176592
5   -0.167325
6   -0.163983
7   -0.19054
8   -0.288947
9   -0.141087
10   -0.12596
11   -0.066032
12   -0.034539
13   -0.069326
14   0.023995
15   -0.54789
16   -0.027994
17   0.141776
18   0.156151
19   0.144366
20   0.151012
21   0.140432
22   0.147108
23   0.166601
24   0.159252
25   0.160431
26   0.154202
27   0.155836
28   0.153723
29   0.15453
30   0.145706
31   0.142714
32   0.159628
33   0.14627
34   0.136931
35   0.2506
36   0.249388

$$$$

