PCCDB-ID:  20911
public computational chemistry database (PCCDB) project, http://pccdb.org

 34 35  0  0  0  0  0  0  0  0999 V2000
    0.1200   -0.7058   -0.2101 C   0  0  0  0  0  0  0  0  0  0  0  0
    3.9817   -4.5237   -1.0518 C   0  0  0  0  0  0  0  0  0  0  0  0
    3.8085   -4.5409    1.4783 C   0  0  0  0  0  0  0  0  0  0  0  0
    8.4697   -0.3245    0.9331 C   0  0  0  0  0  0  0  0  0  0  0  0
    2.1985    0.7578   -0.1326 C   0  0  0  0  0  0  0  0  0  0  0  0
    3.5829    0.9282   -0.0412 C   0  0  0  0  0  0  0  0  0  0  0  0
    2.1865   -3.0931    0.0985 C   0  0  0  0  0  0  0  0  0  0  0  0
    1.6140   -0.5177   -0.1062 C   0  0  0  0  0  0  0  0  0  0  0  0
    2.4726   -1.6129    0.0237 C   0  0  0  0  0  0  0  0  0  0  0  0
    4.4243   -0.1726    0.0874 C   0  0  0  0  0  0  0  0  0  0  0  0
    3.8505   -1.4427    0.1301 C   0  0  0  0  0  0  0  0  0  0  0  0
    6.6897   -0.5180   -0.5963 C   0  0  0  0  0  0  0  0  0  0  0  0
    3.6106   -3.7304    0.2002 C   0  0  0  0  0  0  0  0  0  0  0  0
    7.9223   -0.6674   -0.3679 N   0  0  0  0  0  0  0  0  0  0  0  0
    6.1378   -0.8463   -1.7865 O   0  0  0  0  0  0  0  0  0  0  0  0
    5.7906    0.0238    0.2715 O   0  0  0  0  0  0  0  0  0  0  0  0
    4.5515   -2.5957    0.2726 O   0  0  0  0  0  0  0  0  0  0  0  0
   -0.3952    0.2555   -0.2986 H   0  0  0  0  0  0  0  0  0  0  0  0
   -0.2845   -1.2217    0.6706 H   0  0  0  0  0  0  0  0  0  0  0  0
   -0.1509   -1.3114   -1.0849 H   0  0  0  0  0  0  0  0  0  0  0  0
    3.3246   -5.3941   -1.1633 H   0  0  0  0  0  0  0  0  0  0  0  0
    5.0168   -4.8750   -0.9918 H   0  0  0  0  0  0  0  0  0  0  0  0
    3.8821   -3.8965   -1.9440 H   0  0  0  0  0  0  0  0  0  0  0  0
    3.1518   -5.4186    1.4815 H   0  0  0  0  0  0  0  0  0  0  0  0
    3.5770   -3.9320    2.3584 H   0  0  0  0  0  0  0  0  0  0  0  0
    4.8449   -4.8841    1.5599 H   0  0  0  0  0  0  0  0  0  0  0  0
    7.7101   -0.1598    1.7073 H   0  0  0  0  0  0  0  0  0  0  0  0
    9.0811    0.5837    0.8513 H   0  0  0  0  0  0  0  0  0  0  0  0
    9.1362   -1.1305    1.2615 H   0  0  0  0  0  0  0  0  0  0  0  0
    1.5624    1.6335   -0.2297 H   0  0  0  0  0  0  0  0  0  0  0  0
    4.0264    1.9188   -0.0650 H   0  0  0  0  0  0  0  0  0  0  0  0
    1.6518   -3.4607   -0.7868 H   0  0  0  0  0  0  0  0  0  0  0  0
    1.5701   -3.3519    0.9698 H   0  0  0  0  0  0  0  0  0  0  0  0
    6.8712   -1.2291   -2.2990 H   0  0  0  0  0  0  0  0  0  0  0  0
  1  8  1  0  0  0  0
  1 19  1  0  0  0  0
  2 22  1  0  0  0  0
  2 13  1  0  0  0  0
  3 24  1  0  0  0  0
  3 26  1  0  0  0  0
  3 25  1  0  0  0  0
  4 29  1  0  0  0  0
  4 27  1  0  0  0  0
  5  8  2  0  0  0  0
  5  6  1  0  0  0  0
  6 10  2  0  0  0  0
  7 13  1  0  0  0  0
  7 33  1  0  0  0  0
  8  9  1  0  0  0  0
  9  7  1  0  0  0  0
  9 11  2  0  0  0  0
 10 11  1  0  0  0  0
 10 16  1  0  0  0  0
 11 17  1  0  0  0  0
 12 14  2  0  0  0  0
 12 16  1  0  0  0  0
 13 17  1  0  0  0  0
 13  3  1  0  0  0  0
 14  4  1  0  0  0  0
 15 12  1  0  0  0  0
 18  1  1  0  0  0  0
 20  1  1  0  0  0  0
 21  2  1  0  0  0  0
 23  2  1  0  0  0  0
 28  4  1  0  0  0  0
 30  5  1  0  0  0  0
 31  6  1  0  0  0  0
 32  7  1  0  0  0  0
 34 15  1  0  0  0  0
M  END
>  <HBA>
4

>  <HBD>
1

>  <TPSA>
47.56

>  <cid>
20911

>  <dipole>
3.21

>  <excitation_energy_1>
4.812

>  <excitation_energy_2>
5.117

>  <excitation_energy_3>
5.485

>  <excitation_energy_4>
5.536

>  <homo_energy>
-5.63

>  <homo_lumo_gap>
5.655

>  <logP>
2.818

>  <lumo_energy>
0.024

>  <melting_point>
114.72

>  <molecular_refractivity>
65.09

>  <oscillator_strength_1>
0.069

>  <oscillator_strength_2>
0.0048

>  <oscillator_strength_3>
0.0207

>  <oscillator_strength_4>
0.002

>  <open_babel_can_smiles>
C/N=C(\Oc1ccc(c2c1OC(C2)(C)C)C)/O

>  <mulliken_charges>
34
1   -0.532166
2   -0.450724
3   -0.453997
4   -0.321665
5   -0.211923
6   -0.170057
7   -0.390552
8   0.129617
9   0.040941
10   0.288362
11   0.36516
12   0.717787
13   0.312345
14   -0.484491
15   -0.5919
16   -0.541008
17   -0.55818
18   0.157492
19   0.159112
20   0.159656
21   0.143534
22   0.158533
23   0.15991
24   0.145007
25   0.157166
26   0.160174
27   0.153606
28   0.150595
29   0.150456
30   0.120879
31   0.139094
32   0.158447
33   0.158126
34   0.420661

>  <lowdin_charges>
34
1   -0.441277
2   -0.447158
3   -0.446241
4   -0.354431
5   -0.185739
6   -0.16344
7   -0.28456
8   -0.003375
9   -0.05267
10   0.068773
11   0.079056
12   0.191652
13   0.146405
14   -0.261903
15   -0.361675
16   -0.156839
17   -0.205628
18   0.158791
19   0.159037
20   0.159173
21   0.153235
22   0.158297
23   0.160291
24   0.154177
25   0.158938
26   0.159214
27   0.145066
28   0.149397
29   0.15081
30   0.156529
31   0.168299
32   0.158586
33   0.157425
34   0.371782

$$$$

