PCCDB-ID:  11820
public computational chemistry database (PCCDB) project, http://pccdb.org

 21 22  0  0  0  0  0  0  0  0999 V2000
    0.9035    0.0791   -0.2232 C   0  0  0  0  0  0  0  0  0  0  0  0
    4.4978   -3.5463    0.1461 C   0  0  0  0  0  0  0  0  0  0  0  0
    3.1047   -3.5521   -0.0070 C   0  0  0  0  0  0  0  0  0  0  0  0
    5.1610   -2.3323    0.2297 C   0  0  0  0  0  0  0  0  0  0  0  0
    2.3852   -2.3654   -0.0764 C   0  0  0  0  0  0  0  0  0  0  0  0
    5.1281    0.1569    0.2508 C   0  0  0  0  0  0  0  0  0  0  0  0
    4.4342    1.3150    0.1846 C   0  0  0  0  0  0  0  0  0  0  0  0
    4.4615   -1.1136    0.1647 C   0  0  0  0  0  0  0  0  0  0  0  0
    3.0488   -1.1251    0.0080 C   0  0  0  0  0  0  0  0  0  0  0  0
    2.9842    1.3439    0.0209 C   0  0  0  0  0  0  0  0  0  0  0  0
    2.3563    0.0800   -0.0595 N   0  0  0  0  0  0  0  0  0  0  0  0
    2.3348    2.3850   -0.0447 O   0  0  0  0  0  0  0  0  0  0  0  0
    0.4200   -0.4294    0.6176 H   0  0  0  0  0  0  0  0  0  0  0  0
    0.6206   -0.4200   -1.1561 H   0  0  0  0  0  0  0  0  0  0  0  0
    0.5866    1.1197   -0.2532 H   0  0  0  0  0  0  0  0  0  0  0  0
    5.0490   -4.4801    0.1986 H   0  0  0  0  0  0  0  0  0  0  0  0
    2.5709   -4.4962   -0.0726 H   0  0  0  0  0  0  0  0  0  0  0  0
    6.2413   -2.3017    0.3493 H   0  0  0  0  0  0  0  0  0  0  0  0
    1.3096   -2.4042   -0.1950 H   0  0  0  0  0  0  0  0  0  0  0  0
    6.2091    0.1654    0.3731 H   0  0  0  0  0  0  0  0  0  0  0  0
    4.9109    2.2865    0.2486 H   0  0  0  0  0  0  0  0  0  0  0  0
  1 11  1  0  0  0  0
  1 13  1  0  0  0  0
  2 16  1  0  0  0  0
  2  4  2  0  0  0  0
  3  2  1  0  0  0  0
  4 18  1  0  0  0  0
  5  3  2  0  0  0  0
  5  9  1  0  0  0  0
  6 20  1  0  0  0  0
  7 21  1  0  0  0  0
  7  6  2  0  0  0  0
  8  4  1  0  0  0  0
  8  6  1  0  0  0  0
  9  8  2  0  0  0  0
 10  7  1  0  0  0  0
 11  9  1  0  0  0  0
 11 10  1  0  0  0  0
 12 10  2  0  0  0  0
 14  1  1  0  0  0  0
 15  1  1  0  0  0  0
 17  3  1  0  0  0  0
 19  5  1  0  0  0  0
M  END
>  <HBA>
2

>  <HBD>
0

>  <TPSA>
22.0

>  <cid>
11820

>  <dipole>
3.67

>  <excitation_energy_1>
3.937

>  <excitation_energy_2>
4.328

>  <excitation_energy_3>
4.638

>  <excitation_energy_4>
5.296

>  <homo_energy>
-5.908

>  <homo_lumo_gap>
4.449

>  <logP>
1.538

>  <lumo_energy>
-1.459

>  <melting_point>
86.26

>  <molecular_refractivity>
49.47

>  <oscillator_strength_1>
0.1105

>  <oscillator_strength_2>
0.0

>  <oscillator_strength_3>
0.052

>  <oscillator_strength_4>
0.086

>  <open_babel_can_smiles>
Cn1c(=O)ccc2c1cccc2

>  <mulliken_charges>
21
1   -0.345265
2   -0.132369
3   -0.134862
4   -0.207108
5   -0.179654
6   -0.120051
7   -0.219047
8   0.115889
9   0.341187
10   0.605883
11   -0.591219
12   -0.534124
13   0.166235
14   0.166179
15   0.219201
16   0.13419
17   0.137018
18   0.136583
19   0.141091
20   0.145753
21   0.154489

>  <lowdin_charges>
21
1   -0.360471
2   -0.172903
3   -0.138851
4   -0.14265
5   -0.191678
6   -0.120118
7   -0.1889
8   -0.030742
9   0.06259
10   0.155413
11   -0.056054
12   -0.313547
13   0.158538
14   0.157712
15   0.192316
16   0.161758
17   0.162459
18   0.159171
19   0.165023
20   0.163442
21   0.177492

$$$$

