PCCDB-ID:  62271
public computational chemistry database (PCCDB) project, http://pccdb.org

 21 21  0  0  0  0  0  0  0  0999 V2000
    1.0385    0.1973   -0.4551 C   0  0  0  0  0  0  0  0  0  0  0  0
    2.7307   -0.0572    1.4120 C   0  0  0  0  0  0  0  0  0  0  0  0
    2.4126   -2.5208   -0.5741 C   0  0  0  0  0  0  0  0  0  0  0  0
    3.4189    0.9942   -0.8037 C   0  0  0  0  0  0  0  0  0  0  0  0
    3.4038   -0.9030   -2.1079 C   0  0  0  0  0  0  0  0  0  0  0  0
    2.5233   -0.0423   -0.1051 C   0  0  0  0  0  0  0  0  0  0  0  0
    3.1032   -1.2550   -0.7256 N   0  0  0  0  0  0  0  0  0  0  0  0
    3.5819    0.5042   -2.1336 O   0  0  0  0  0  0  0  0  0  0  0  0
    0.6830    1.1297   -0.0017 H   0  0  0  0  0  0  0  0  0  0  0  0
    0.4034   -0.6136   -0.0817 H   0  0  0  0  0  0  0  0  0  0  0  0
    0.8944    0.2758   -1.5382 H   0  0  0  0  0  0  0  0  0  0  0  0
    2.4522    0.9086    1.8500 H   0  0  0  0  0  0  0  0  0  0  0  0
    3.7778   -0.2653    1.6530 H   0  0  0  0  0  0  0  0  0  0  0  0
    2.1095   -0.8221    1.8923 H   0  0  0  0  0  0  0  0  0  0  0  0
    3.0436   -3.3245   -0.9723 H   0  0  0  0  0  0  0  0  0  0  0  0
    1.4394   -2.5703   -1.0970 H   0  0  0  0  0  0  0  0  0  0  0  0
    2.2455   -2.7320    0.4866 H   0  0  0  0  0  0  0  0  0  0  0  0
    4.3922    1.0675   -0.2956 H   0  0  0  0  0  0  0  0  0  0  0  0
    2.9690    1.9907   -0.8591 H   0  0  0  0  0  0  0  0  0  0  0  0
    2.5872   -1.1624   -2.8111 H   0  0  0  0  0  0  0  0  0  0  0  0
    4.3182   -1.4174   -2.4422 H   0  0  0  0  0  0  0  0  0  0  0  0
  1  6  1  0  0  0  0
  1 10  1  0  0  0  0
  1  9  1  0  0  0  0
  2 13  1  0  0  0  0
  2 12  1  0  0  0  0
  2 14  1  0  0  0  0
  3 17  1  0  0  0  0
  4 18  1  0  0  0  0
  4  6  1  0  0  0  0
  5  7  1  0  0  0  0
  6  2  1  0  0  0  0
  7  3  1  0  0  0  0
  7  6  1  0  0  0  0
  8  5  1  0  0  0  0
  8  4  1  0  0  0  0
 11  1  1  0  0  0  0
 15  3  1  0  0  0  0
 16  3  1  0  0  0  0
 19  4  1  0  0  0  0
 20  5  1  0  0  0  0
 21  5  1  0  0  0  0
M  END
>  <HBA>
2

>  <HBD>
0

>  <TPSA>
12.47

>  <cid>
62271

>  <dipole>
1.74

>  <excitation_energy_1>
5.207

>  <excitation_energy_2>
5.686

>  <excitation_energy_3>
5.801

>  <excitation_energy_4>
5.874

>  <homo_energy>
-5.704

>  <homo_lumo_gap>
7.698

>  <logP>
0.622

>  <lumo_energy>
1.995

>  <melting_point>
0.72

>  <molecular_refractivity>
36.78

>  <oscillator_strength_1>
0.0037

>  <oscillator_strength_2>
0.0172

>  <oscillator_strength_3>
0.0061

>  <oscillator_strength_4>
0.0228

>  <open_babel_can_smiles>
CN1COCC1(C)C

>  <mulliken_charges>
21
1   -0.464752
2   -0.45646
3   -0.308986
4   -0.014657
5   0.14609
6   0.188983
7   -0.427086
8   -0.501407
9   0.143479
10   0.144658
11   0.159415
12   0.14308
13   0.156284
14   0.143914
15   0.153789
16   0.126632
17   0.15486
18   0.130424
19   0.138782
20   0.109628
21   0.13333

>  <lowdin_charges>
21
1   -0.459975
2   -0.44573
3   -0.356565
4   -0.129154
5   -0.0629
6   0.053358
7   -0.198912
8   -0.278534
9   0.152752
10   0.151671
11   0.155777
12   0.151892
13   0.156347
14   0.151384
15   0.154083
16   0.124083
17   0.152029
18   0.135012
19   0.145386
20   0.113339
21   0.134656

$$$$

