PCCDB-ID:  67955
public computational chemistry database (PCCDB) project, http://pccdb.org

 18 19  0  0  0  0  0  0  0  0999 V2000
    2.5993    1.3131   -0.1874 C   0  0  0  0  0  0  0  0  0  0  0  0
    2.3960   -4.3246    0.7082 C   0  0  0  0  0  0  0  0  0  0  0  0
    4.4428   -1.0300    2.6905 C   0  0  0  0  0  0  0  0  0  0  0  0
    2.8418   -2.2820    0.9086 C   0  0  0  0  0  0  0  0  0  0  0  0
    3.0204   -0.8911    0.8748 C   0  0  0  0  0  0  0  0  0  0  0  0
    3.5177   -3.0362    1.8964 C   0  0  0  0  0  0  0  0  0  0  0  0
    2.3959   -0.1162   -0.0348 N   0  0  0  0  0  0  0  0  0  0  0  0
    2.1121   -3.1459    0.1386 N   0  0  0  0  0  0  0  0  0  0  0  0
    3.8418   -0.2896    1.7919 N   0  0  0  0  0  0  0  0  0  0  0  0
    3.2468   -4.3346    1.7861 N   0  0  0  0  0  0  0  0  0  0  0  0
    4.3258   -2.3768    2.7937 N   0  0  0  0  0  0  0  0  0  0  0  0
    1.7646    1.7256   -0.7592 H   0  0  0  0  0  0  0  0  0  0  0  0
    3.5363    1.5440   -0.7117 H   0  0  0  0  0  0  0  0  0  0  0  0
    2.6316    1.7904    0.7941 H   0  0  0  0  0  0  0  0  0  0  0  0
    1.9726   -5.2517    0.3378 H   0  0  0  0  0  0  0  0  0  0  0  0
    5.0914   -0.5506    3.4182 H   0  0  0  0  0  0  0  0  0  0  0  0
    1.8498   -0.6191   -0.7216 H   0  0  0  0  0  0  0  0  0  0  0  0
    4.8223   -2.8931    3.5113 H   0  0  0  0  0  0  0  0  0  0  0  0
  1  7  1  0  0  0  0
  1 14  1  0  0  0  0
  2 10  1  0  0  0  0
  3 11  1  0  0  0  0
  3 16  1  0  0  0  0
  4  6  1  0  0  0  0
  5  4  2  0  0  0  0
  5  9  1  0  0  0  0
  6 11  1  0  0  0  0
  7  5  1  0  0  0  0
  8  2  2  0  0  0  0
  8  4  1  0  0  0  0
  9  3  2  0  0  0  0
 10  6  2  0  0  0  0
 11 18  1  0  0  0  0
 12  1  1  0  0  0  0
 13  1  1  0  0  0  0
 15  2  1  0  0  0  0
 17  7  1  0  0  0  0
M  END
>  <HBA>
4

>  <HBD>
2

>  <TPSA>
66.49

>  <cid>
67955

>  <dipole>
4.3

>  <excitation_energy_1>
4.238

>  <excitation_energy_2>
4.536

>  <excitation_energy_3>
4.714

>  <excitation_energy_4>
4.911

>  <homo_energy>
-5.663

>  <homo_lumo_gap>
4.574

>  <logP>
0.468

>  <lumo_energy>
-1.088

>  <melting_point>
177.0

>  <molecular_refractivity>
40.99

>  <oscillator_strength_1>
0.161

>  <oscillator_strength_2>
0.0735

>  <oscillator_strength_3>
0.0002

>  <oscillator_strength_4>
0.0006

>  <open_babel_can_smiles>
CNc1nc[nH]c2c1ncn2

>  <mulliken_charges>
18
1   -0.292657
2   0.162142
3   0.23242
4   0.214909
5   0.50597
6   0.48457
7   -0.619418
8   -0.537361
9   -0.523494
10   -0.515021
11   -0.642634
12   0.16003
13   0.166188
14   0.189801
15   0.132549
16   0.171828
17   0.357601
18   0.352574

>  <lowdin_charges>
18
1   -0.3461
2   -0.068582
3   -0.023017
4   -0.064265
5   0.11715
6   0.034226
7   -0.240257
8   -0.23664
9   -0.204106
10   -0.243716
11   -0.152247
12   0.161397
13   0.153972
14   0.172043
15   0.155471
16   0.173036
17   0.30299
18   0.308646

$$$$

