PCCDB-ID:  24509
public computational chemistry database (PCCDB) project, http://pccdb.org

 19 18  0  0  1  0  0  0  0  0999 V2000
    1.1443   -0.0923   -0.0295 C   0  0  0  0  0  0  0  0  0  0  0  0
    4.6475    2.6445   -2.0070 C   0  0  0  0  0  0  0  0  0  0  0  0
    4.3998    0.2659    1.5773 C   0  0  0  0  0  0  0  0  0  0  0  0
    2.9240    1.4195   -0.9719 C   0  0  0  0  0  0  0  0  0  0  0  0
    2.6388    0.2248   -0.0600 C   0  0  1  0  0  0  0  0  0  0  0  0
    4.3171    1.5288   -1.2081 O   0  0  0  0  0  0  0  0  0  0  0  0
    3.0269    0.4710    1.2867 O   0  0  0  0  0  0  0  0  0  0  0  0
    0.7747   -0.3610   -1.0249 H   0  0  0  0  0  0  0  0  0  0  0  0
    0.5757    0.7716    0.3331 H   0  0  0  0  0  0  0  0  0  0  0  0
    0.9582   -0.9280    0.6507 H   0  0  0  0  0  0  0  0  0  0  0  0
    5.7326    2.6380   -2.1404 H   0  0  0  0  0  0  0  0  0  0  0  0
    4.3506    3.5919   -1.5290 H   0  0  0  0  0  0  0  0  0  0  0  0
    4.1654    2.5922   -2.9971 H   0  0  0  0  0  0  0  0  0  0  0  0
    4.5050    0.3699    2.6614 H   0  0  0  0  0  0  0  0  0  0  0  0
    5.0450    0.9933    1.0731 H   0  0  0  0  0  0  0  0  0  0  0  0
    4.7231   -0.7465    1.2864 H   0  0  0  0  0  0  0  0  0  0  0  0
    2.5379    2.3341   -0.4912 H   0  0  0  0  0  0  0  0  0  0  0  0
    2.3906    1.2922   -1.9306 H   0  0  0  0  0  0  0  0  0  0  0  0
    3.1951   -0.6425   -0.4530 H   0  0  0  0  0  0  0  0  0  0  0  0
  1  9  1  0  0  0  0
  1 10  1  0  0  0  0
  2 12  1  0  0  0  0
  2  6  1  0  0  0  0
  3 14  1  0  0  0  0
  4 17  1  0  0  0  0
  4  5  1  0  0  0  0
  5 19  1  6  0  0  0
  5  1  1  0  0  0  0
  5  7  1  0  0  0  0
  6  4  1  0  0  0  0
  7  3  1  0  0  0  0
  8  1  1  0  0  0  0
 11  2  1  0  0  0  0
 13  2  1  0  0  0  0
 15  3  1  0  0  0  0
 16  3  1  0  0  0  0
 18  4  1  0  0  0  0
M  END
>  <HBA>
2

>  <HBD>
0

>  <TPSA>
18.46

>  <cid>
24509

>  <dipole>
1.42

>  <excitation_energy_1>
6.354

>  <excitation_energy_2>
6.573

>  <excitation_energy_3>
6.654

>  <excitation_energy_4>
6.771

>  <homo_energy>
-6.517

>  <homo_lumo_gap>
8.961

>  <logP>
0.668

>  <lumo_energy>
2.444

>  <melting_point>
-43.8

>  <molecular_refractivity>
28.32

>  <oscillator_strength_1>
0.0139

>  <oscillator_strength_2>
0.0133

>  <oscillator_strength_3>
0.0187

>  <oscillator_strength_4>
0.0172

>  <open_babel_can_smiles>
COC[C@@H](OC)C

>  <mulliken_charges>
19
1   -0.456934
2   -0.191828
3   -0.196596
4   -0.007801
5   0.132675
6   -0.464908
7   -0.475601
8   0.140659
9   0.153442
10   0.160247
11   0.158088
12   0.133015
13   0.129438
14   0.146147
15   0.155901
16   0.124254
17   0.126384
18   0.112489
19   0.120929

>  <lowdin_charges>
19
1   -0.449317
2   -0.276461
3   -0.281375
4   -0.144782
5   -0.000988
6   -0.270918
7   -0.2765
8   0.150743
9   0.155881
10   0.161928
11   0.152987
12   0.133025
13   0.130516
14   0.146392
15   0.146074
16   0.129113
17   0.13353
18   0.127535
19   0.132617

$$$$

