PCCDB-ID:  53238
public computational chemistry database (PCCDB) project, http://pccdb.org

 32 33  0  0  1  0  0  0  0  0999 V2000
    1.1170   -0.0047    0.2650 C   0  0  0  0  0  0  0  0  0  0  0  0
    4.1748    1.4573   -8.3896 C   0  0  0  0  0  0  0  0  0  0  0  0
    4.6775    2.3275   -7.4206 C   0  0  0  0  0  0  0  0  0  0  0  0
    3.4314    0.3442   -7.9929 C   0  0  0  0  0  0  0  0  0  0  0  0
    4.4395    2.0861   -6.0683 C   0  0  0  0  0  0  0  0  0  0  0  0
    3.1922    0.1048   -6.6406 C   0  0  0  0  0  0  0  0  0  0  0  0
    3.1977   -0.8286   -2.3435 C   0  0  0  0  0  0  0  0  0  0  0  0
    2.9546    1.5319   -1.9663 C   0  0  0  0  0  0  0  0  0  0  0  0
    3.4347   -0.5915   -3.6963 C   0  0  0  0  0  0  0  0  0  0  0  0
    3.1948    1.7709   -3.3170 C   0  0  0  0  0  0  0  0  0  0  0  0
    2.6313   -0.0469    0.0075 C   0  0  1  0  0  0  0  0  0  0  0  0
    2.9475    0.2257   -1.4579 C   0  0  0  0  0  0  0  0  0  0  0  0
    3.6920    0.9709   -5.6529 C   0  0  0  0  0  0  0  0  0  0  0  0
    3.4369    0.7146   -4.2124 C   0  0  0  0  0  0  0  0  0  0  0  0
    4.7223    0.6510    0.9515 N   0  0  0  0  0  0  0  0  0  0  0  0
    3.2767    0.9553    0.8693 N   0  0  0  0  0  0  0  0  0  0  0  0
    0.5990   -0.7182   -0.3829 H   0  0  0  0  0  0  0  0  0  0  0  0
    0.7208    0.9959    0.0630 H   0  0  0  0  0  0  0  0  0  0  0  0
    0.8896   -0.2648    1.3067 H   0  0  0  0  0  0  0  0  0  0  0  0
    4.3606    1.6449   -9.4437 H   0  0  0  0  0  0  0  0  0  0  0  0
    5.2653    3.1925   -7.7169 H   0  0  0  0  0  0  0  0  0  0  0  0
    3.0277   -0.3356   -8.7388 H   0  0  0  0  0  0  0  0  0  0  0  0
    4.8592    2.7548   -5.3219 H   0  0  0  0  0  0  0  0  0  0  0  0
    2.5888   -0.7490   -6.3449 H   0  0  0  0  0  0  0  0  0  0  0  0
    3.2188   -1.8495   -1.9675 H   0  0  0  0  0  0  0  0  0  0  0  0
    2.7723    2.3592   -1.2868 H   0  0  0  0  0  0  0  0  0  0  0  0
    3.6536   -1.4274   -4.3549 H   0  0  0  0  0  0  0  0  0  0  0  0
    3.1688    2.7911   -3.6904 H   0  0  0  0  0  0  0  0  0  0  0  0
    3.0014   -1.0590    0.2493 H   0  0  0  0  0  0  0  0  0  0  0  0
    5.1323    1.5211    1.3010 H   0  0  0  0  0  0  0  0  0  0  0  0
    5.0231    0.6325   -0.0267 H   0  0  0  0  0  0  0  0  0  0  0  0
    2.9480    0.7603    1.8166 H   0  0  0  0  0  0  0  0  0  0  0  0
  1 19  1  0  0  0  0
  2  4  2  0  0  0  0
  2  3  1  0  0  0  0
  3  5  2  0  0  0  0
  4  6  1  0  0  0  0
  5 13  1  0  0  0  0
  5 23  1  0  0  0  0
  6 24  1  0  0  0  0
  6 13  2  0  0  0  0
  7 25  1  0  0  0  0
  7 12  2  0  0  0  0
  8 12  1  0  0  0  0
  8 26  1  0  0  0  0
  9  7  1  0  0  0  0
 10  8  2  0  0  0  0
 11 29  1  1  0  0  0
 11  1  1  0  0  0  0
 11 16  1  0  0  0  0
 12 11  1  0  0  0  0
 13 14  1  0  0  0  0
 14  9  2  0  0  0  0
 14 10  1  0  0  0  0
 15 30  1  0  0  0  0
 16 15  1  0  0  0  0
 16 32  1  0  0  0  0
 17  1  1  0  0  0  0
 18  1  1  0  0  0  0
 20  2  1  0  0  0  0
 21  3  1  0  0  0  0
 22  4  1  0  0  0  0
 27  9  1  0  0  0  0
 28 10  1  0  0  0  0
 31 15  1  0  0  0  0
M  END
>  <HBA>
2

>  <HBD>
2

>  <TPSA>
38.05

>  <cid>
53238

>  <dipole>
0.44

>  <excitation_energy_1>
4.085

>  <excitation_energy_2>
4.606

>  <excitation_energy_3>
4.76

>  <excitation_energy_4>
4.845

>  <homo_energy>
-5.382

>  <homo_lumo_gap>
4.667

>  <logP>
3.969

>  <lumo_energy>
-0.716

>  <melting_point>
126.19

>  <molecular_refractivity>
67.16

>  <oscillator_strength_1>
0.0007

>  <oscillator_strength_2>
0.0

>  <oscillator_strength_3>
0.5825

>  <oscillator_strength_4>
0.0004

>  <open_babel_can_smiles>
NN[C@H](c1ccc(cc1)c1ccccc1)C

>  <mulliken_charges>
32
1   -0.452568
2   -0.126834
3   -0.13375
4   -0.13363
5   -0.174194
6   -0.174387
7   -0.193402
8   -0.179512
9   -0.176182
10   -0.177037
11   -0.026903
12   0.141118
13   0.090607
14   0.090089
15   -0.602453
16   -0.469143
17   0.156618
18   0.161418
19   0.14073
20   0.129114
21   0.129906
22   0.129943
23   0.131222
24   0.131648
25   0.127174
26   0.147099
27   0.132065
28   0.131855
29   0.125001
30   0.304933
31   0.310071
32   0.309384

>  <lowdin_charges>
32
1   -0.443462
2   -0.156895
3   -0.154521
4   -0.15631
5   -0.16369
6   -0.161704
7   -0.165439
8   -0.162341
9   -0.16299
10   -0.16039
11   -0.066915
12   -0.018676
13   -0.001151
14   -0.003203
15   -0.498564
16   -0.315762
17   0.161039
18   0.157553
19   0.146475
20   0.15631
21   0.15818
22   0.159127
23   0.160113
24   0.159412
25   0.155339
26   0.16768
27   0.160218
28   0.158029
29   0.129054
30   0.254034
31   0.255126
32   0.254325

$$$$

