PCCDB-ID:  69195
public computational chemistry database (PCCDB) project, http://pccdb.org

 17 17  0  0  0  0  0  0  0  0999 V2000
    0.9145   -0.2000   -0.0754 C   0  0  0  0  0  0  0  0  0  0  0  0
    4.5319   -1.4069   -0.4147 C   0  0  0  0  0  0  0  0  0  0  0  0
    5.2484   -0.2293   -0.1961 C   0  0  0  0  0  0  0  0  0  0  0  0
    3.1366   -1.3916   -0.3746 C   0  0  0  0  0  0  0  0  0  0  0  0
    4.5685    0.9571    0.0616 C   0  0  0  0  0  0  0  0  0  0  0  0
    1.9719    3.1759    0.5809 C   0  0  0  0  0  0  0  0  0  0  0  0
    2.4208   -0.2190   -0.1189 C   0  0  0  0  0  0  0  0  0  0  0  0
    3.1656    0.9613    0.1001 C   0  0  0  0  0  0  0  0  0  0  0  0
    2.5029    2.1391    0.3559 N   0  0  0  0  0  0  0  0  0  0  0  0
    1.2481    4.5655    0.8825 S   0  0  0  0  0  0  0  0  0  0  0  0
    0.5093   -1.1983   -0.2635 H   0  0  0  0  0  0  0  0  0  0  0  0
    0.5002    0.4828   -0.8270 H   0  0  0  0  0  0  0  0  0  0  0  0
    0.5455    0.1389    0.9000 H   0  0  0  0  0  0  0  0  0  0  0  0
    5.0568   -2.3362   -0.6163 H   0  0  0  0  0  0  0  0  0  0  0  0
    6.3341   -0.2318   -0.2256 H   0  0  0  0  0  0  0  0  0  0  0  0
    2.5839   -2.3119   -0.5457 H   0  0  0  0  0  0  0  0  0  0  0  0
    5.1032    1.8854    0.2347 H   0  0  0  0  0  0  0  0  0  0  0  0
  1 13  1  0  0  0  0
  2  4  2  0  0  0  0
  2  3  1  0  0  0  0
  3  5  2  0  0  0  0
  4  7  1  0  0  0  0
  5  8  1  0  0  0  0
  5 17  1  0  0  0  0
  6 10  2  0  0  0  0
  7  1  1  0  0  0  0
  7  8  2  0  0  0  0
  8  9  1  0  0  0  0
  9  6  2  0  0  0  0
 11  1  1  0  0  0  0
 12  1  1  0  0  0  0
 14  2  1  0  0  0  0
 15  3  1  0  0  0  0
 16  4  1  0  0  0  0
M  END
>  <HBA>
2

>  <HBD>
0

>  <TPSA>
44.45

>  <cid>
69195

>  <dipole>
3.8

>  <excitation_energy_1>
4.416

>  <excitation_energy_2>
4.507

>  <excitation_energy_3>
4.757

>  <excitation_energy_4>
5.017

>  <homo_energy>
-6.191

>  <homo_lumo_gap>
4.958

>  <logP>
2.729

>  <lumo_energy>
-1.233

>  <melting_point>
64.94

>  <molecular_refractivity>
46.09

>  <oscillator_strength_1>
0.0

>  <oscillator_strength_2>
0.3842

>  <oscillator_strength_3>
0.0084

>  <oscillator_strength_4>
0.0

>  <open_babel_can_smiles>
S=C=Nc1ccccc1C

>  <mulliken_charges>
17
1   -0.527065
2   -0.111235
3   -0.148988
4   -0.205129
5   -0.117819
6   0.127456
7   0.188065
8   0.219671
9   -0.378927
10   -0.125553
11   0.160334
12   0.175865
13   0.175882
14   0.138213
15   0.141595
16   0.134574
17   0.153058

>  <lowdin_charges>
17
1   -0.440817
2   -0.151801
3   -0.150393
4   -0.1603
5   -0.155223
6   -0.043968
7   0.000998
8   0.044575
9   -0.051024
10   -0.050563
11   0.161123
12   0.169809
13   0.168585
14   0.163375
15   0.162457
16   0.161484
17   0.171681

$$$$

