PCCDB-ID:  34154
public computational chemistry database (PCCDB) project, http://pccdb.org

 37 38  0  0  1  0  0  0  0  0999 V2000
    5.2337   -0.6966   -0.5844 C   0  0  0  0  0  0  0  0  0  0  0  0
    3.2557   -2.0973    0.1758 C   0  0  0  0  0  0  0  0  0  0  0  0
    4.0860    2.0426    5.2869 C   0  0  0  0  0  0  0  0  0  0  0  0
    4.6369    0.0966    3.7565 C   0  0  0  0  0  0  0  0  0  0  0  0
    4.5701   -0.5326    2.5116 C   0  0  0  0  0  0  0  0  0  0  0  0
    0.2894    4.4105   -2.2662 C   0  0  0  0  0  0  0  0  0  0  0  0
    0.1539    2.8874   -2.5415 C   0  0  0  0  0  0  0  0  0  0  0  0
    3.3148    1.9036    2.8858 C   0  0  0  0  0  0  0  0  0  0  0  0
    1.8974    3.0401    0.7252 C   0  0  0  0  0  0  0  0  0  0  0  0
    3.8414   -0.6764    0.0762 C   0  0  0  0  0  0  0  0  0  0  0  0
    4.0109    1.3268    3.9580 C   0  0  0  0  0  0  0  0  0  0  0  0
    3.8833    0.0223    1.4306 C   0  0  0  0  0  0  0  0  0  0  0  0
    3.2488    1.2657    1.6445 C   0  0  0  0  0  0  0  0  0  0  0  0
    1.2023    3.3491   -0.5691 C   0  0  3  0  0  0  0  0  0  0  0  0
    1.1480    4.5275   -1.0709 N   0  0  0  0  0  0  0  0  0  0  0  0
    0.4908    2.3438   -1.2166 N   0  0  0  0  0  0  0  0  0  0  0  0
    2.5750    1.7956    0.5684 O   0  0  0  0  0  0  0  0  0  0  0  0
    5.1855   -1.1624   -1.5764 H   0  0  0  0  0  0  0  0  0  0  0  0
    5.9509   -1.2667    0.0182 H   0  0  0  0  0  0  0  0  0  0  0  0
    5.6295    0.3179   -0.7025 H   0  0  0  0  0  0  0  0  0  0  0  0
    3.1812   -2.5525   -0.8193 H   0  0  0  0  0  0  0  0  0  0  0  0
    2.2547   -2.0844    0.6211 H   0  0  0  0  0  0  0  0  0  0  0  0
    3.8847   -2.7519    0.7906 H   0  0  0  0  0  0  0  0  0  0  0  0
    4.4975    1.3927    6.0654 H   0  0  0  0  0  0  0  0  0  0  0  0
    3.0972    2.3809    5.6190 H   0  0  0  0  0  0  0  0  0  0  0  0
    4.7266    2.9322    5.2262 H   0  0  0  0  0  0  0  0  0  0  0  0
    5.1813   -0.3743    4.5711 H   0  0  0  0  0  0  0  0  0  0  0  0
    5.0702   -1.4891    2.3797 H   0  0  0  0  0  0  0  0  0  0  0  0
   -0.6884    4.8612   -2.0465 H   0  0  0  0  0  0  0  0  0  0  0  0
    0.7222    4.9600   -3.1079 H   0  0  0  0  0  0  0  0  0  0  0  0
    0.8679    2.5495   -3.3074 H   0  0  0  0  0  0  0  0  0  0  0  0
   -0.8524    2.5915   -2.8521 H   0  0  0  0  0  0  0  0  0  0  0  0
    2.8280    2.8612    3.0359 H   0  0  0  0  0  0  0  0  0  0  0  0
    1.1568    2.9653    1.5351 H   0  0  0  0  0  0  0  0  0  0  0  0
    2.5940    3.8528    0.9564 H   0  0  0  0  0  0  0  0  0  0  0  0
    3.1821   -0.0940   -0.5741 H   0  0  0  0  0  0  0  0  0  0  0  0
    0.8800    1.4100   -1.1581 H   0  0  0  0  0  0  0  0  0  0  0  0
  1 19  1  0  0  0  0
  1 10  1  0  0  0  0
  2 22  1  0  0  0  0
  2 23  1  0  0  0  0
  3 25  1  0  0  0  0
  3 24  1  0  0  0  0
  4 11  1  0  0  0  0
  4 27  1  0  0  0  0
  5  4  2  0  0  0  0
  6 29  1  0  0  0  0
  6 15  1  0  0  0  0
  7  6  1  0  0  0  0
  7 16  1  0  0  0  0
  8 33  1  0  0  0  0
  8 11  2  0  0  0  0
  9 35  1  0  0  0  0
  9 34  1  0  0  0  0
 10  2  1  0  0  0  0
 10 12  1  0  0  0  0
 11  3  1  0  0  0  0
 12 13  2  0  0  0  0
 12  5  1  0  0  0  0
 13  8  1  0  0  0  0
 14  9  1  0  0  0  0
 15 14  1  0  0  0  0
 16 37  1  0  0  0  0
 16 14  1  0  0  0  0
 17  9  1  0  0  0  0
 17 13  1  0  0  0  0
 18  1  1  0  0  0  0
 20  1  1  0  0  0  0
 21  2  1  0  0  0  0
 26  3  1  0  0  0  0
 28  5  1  0  0  0  0
 30  6  1  0  0  0  0
 31  7  1  0  0  0  0
 32  7  1  0  0  0  0
 36 10  1  0  0  0  0
M  RAD  2  14   2  15   2
M  END
>  <HBA>
3

>  <HBD>
1

>  <TPSA>
33.62

>  <cid>
34154

>  <dipole>
1.59

>  <excitation_energy_1>
4.94

>  <excitation_energy_2>
5.295

>  <excitation_energy_3>
5.309

>  <excitation_energy_4>
5.396

>  <homo_energy>
-5.84

>  <homo_lumo_gap>
5.848

>  <logP>
2.263

>  <lumo_energy>
0.008

>  <melting_point>
82.4

>  <molecular_refractivity>
78.51

>  <oscillator_strength_1>
0.0573

>  <oscillator_strength_2>
0.0041

>  <oscillator_strength_3>
0.0031

>  <oscillator_strength_4>
0.0056

>  <open_babel_can_smiles>
Cc1ccc(c(c1)OC[C]1[N]CCN1)C(C)C

>  <mulliken_charges>
37
1   -0.435538
2   -0.43969
3   -0.53012
4   -0.18359
5   -0.197905
6   -0.161736
7   -0.148974
8   -0.245945
9   -0.09456
10   -0.154489
11   0.172316
12   0.127272
13   0.321858
14   0.461916
15   -0.465434
16   -0.601193
17   -0.546436
18   0.137705
19   0.141503
20   0.151502
21   0.138441
22   0.147308
23   0.142274
24   0.155674
25   0.158388
26   0.164242
27   0.117224
28   0.124223
29   0.152089
30   0.151119
31   0.143129
32   0.151832
33   0.13172
34   0.164269
35   0.175607
36   0.141336
37   0.332666

>  <lowdin_charges>
37
1   -0.439998
2   -0.441841
3   -0.442514
4   -0.187643
5   -0.153573
6   -0.209079
7   -0.210971
8   -0.219945
9   -0.130372
10   -0.122509
11   0.007434
12   -0.031789
13   0.093751
14   0.071587
15   -0.236574
16   -0.311929
17   -0.212599
18   0.145627
19   0.147686
20   0.152985
21   0.146396
22   0.150715
23   0.147562
24   0.158424
25   0.158336
26   0.161437
27   0.154429
28   0.154655
29   0.147244
30   0.152434
31   0.138201
32   0.15048
33   0.160415
34   0.156759
35   0.165808
36   0.149902
37   0.27907

$$$$

