PCCDB-ID:  71029
public computational chemistry database (PCCDB) project, http://pccdb.org

 25 27  0  0  0  0  0  0  0  0999 V2000
   -1.4720    0.2100    1.1431 C   0  0  0  0  0  0  0  0  0  0  0  0
   -1.0262   -1.1117    1.1703 C   0  0  0  0  0  0  0  0  0  0  0  0
   -0.5672    1.2243    0.8223 C   0  0  0  0  0  0  0  0  0  0  0  0
    0.2997   -1.4381    0.8840 C   0  0  0  0  0  0  0  0  0  0  0  0
    0.7586    0.9173    0.5340 C   0  0  0  0  0  0  0  0  0  0  0  0
    6.6586   -1.0922   -0.6851 C   0  0  0  0  0  0  0  0  0  0  0  0
    3.6385   -4.0497    0.3488 C   0  0  0  0  0  0  0  0  0  0  0  0
    1.2059   -0.4153    0.5616 C   0  0  0  0  0  0  0  0  0  0  0  0
    4.6829   -1.6576   -0.1511 C   0  0  0  0  0  0  0  0  0  0  0  0
    5.4063   -2.8515   -0.2011 C   0  0  0  0  0  0  0  0  0  0  0  0
    3.3150   -1.7682    0.1915 C   0  0  0  0  0  0  0  0  0  0  0  0
    5.4782   -0.5675   -0.4555 N   0  0  0  0  0  0  0  0  0  0  0  0
    6.6830   -2.4648   -0.5491 N   0  0  0  0  0  0  0  0  0  0  0  0
    4.9364   -4.0829    0.0395 N   0  0  0  0  0  0  0  0  0  0  0  0
    2.8144   -2.9892    0.4385 N   0  0  0  0  0  0  0  0  0  0  0  0
    2.5620   -0.6316    0.2559 N   0  0  0  0  0  0  0  0  0  0  0  0
   -2.5077    0.4477    1.3678 H   0  0  0  0  0  0  0  0  0  0  0  0
   -1.7189   -1.9122    1.4174 H   0  0  0  0  0  0  0  0  0  0  0  0
   -0.8917    2.2610    0.7950 H   0  0  0  0  0  0  0  0  0  0  0  0
    0.6422   -2.4629    0.9062 H   0  0  0  0  0  0  0  0  0  0  0  0
    1.4579    1.7133    0.2848 H   0  0  0  0  0  0  0  0  0  0  0  0
    7.5460   -0.5356   -0.9565 H   0  0  0  0  0  0  0  0  0  0  0  0
    3.1760   -5.0114    0.5603 H   0  0  0  0  0  0  0  0  0  0  0  0
    7.4749   -3.0797   -0.6730 H   0  0  0  0  0  0  0  0  0  0  0  0
    3.0945    0.2035    0.0409 H   0  0  0  0  0  0  0  0  0  0  0  0
  1  2  1  0  0  0  0
  1 17  1  0  0  0  0
  2 18  1  0  0  0  0
  3  1  2  0  0  0  0
  4 20  1  0  0  0  0
  4  2  2  0  0  0  0
  5  8  2  0  0  0  0
  5  3  1  0  0  0  0
  6 13  1  0  0  0  0
  6 12  2  0  0  0  0
  7 15  1  0  0  0  0
  7 23  1  0  0  0  0
  8  4  1  0  0  0  0
  9 11  1  0  0  0  0
 10  9  2  0  0  0  0
 10 14  1  0  0  0  0
 11 16  1  0  0  0  0
 11 15  2  0  0  0  0
 12  9  1  0  0  0  0
 13 10  1  0  0  0  0
 14  7  2  0  0  0  0
 16  8  1  0  0  0  0
 19  3  1  0  0  0  0
 21  5  1  0  0  0  0
 22  6  1  0  0  0  0
 24 13  1  0  0  0  0
 25 16  1  0  0  0  0
M  END
>  <HBA>
3

>  <HBD>
2

>  <TPSA>
66.49

>  <cid>
71029

>  <dipole>
3.07

>  <excitation_energy_1>
4.153

>  <excitation_energy_2>
4.622

>  <excitation_energy_3>
4.769

>  <excitation_energy_4>
4.794

>  <homo_energy>
-5.491

>  <homo_lumo_gap>
4.607

>  <logP>
2.17

>  <lumo_energy>
-0.884

>  <melting_point>
216.57

>  <molecular_refractivity>
61.23

>  <oscillator_strength_1>
0.5473

>  <oscillator_strength_2>
0.1131

>  <oscillator_strength_3>
0.0007

>  <oscillator_strength_4>
0.0471

>  <open_babel_can_smiles>
c1ccc(cc1)Nc1ncnc2c1nc[nH]2

>  <mulliken_charges>
25
1   -0.129198
2   -0.144575
3   -0.132419
4   -0.154998
5   -0.204202
6   0.236486
7   0.165652
8   0.365252
9   0.160362
10   0.526558
11   0.577141
12   -0.520769
13   -0.654946
14   -0.494835
15   -0.525298
16   -0.782087
17   0.125788
18   0.130773
19   0.129352
20   0.180493
21   0.125256
22   0.170276
23   0.148643
24   0.345314
25   0.355982

>  <lowdin_charges>
25
1   -0.171746
2   -0.148118
3   -0.148341
4   -0.185327
5   -0.191396
6   -0.054376
7   -0.031841
8   0.063267
9   -0.058119
10   0.062779
11   0.116345
12   -0.194844
13   -0.192432
14   -0.199018
15   -0.211051
16   -0.208466
17   0.155706
18   0.159498
19   0.157132
20   0.184198
21   0.155552
22   0.174732
23   0.15992
24   0.305614
25   0.300331

$$$$

