PCCDB-ID:  61983
public computational chemistry database (PCCDB) project, http://pccdb.org

 29 28  0  0  0  0  0  0  0  0999 V2000
    1.1815    0.6761    0.7780 C   0  0  0  0  0  0  0  0  0  0  0  0
    2.8598    2.3169   -0.1867 C   0  0  0  0  0  0  0  0  0  0  0  0
    7.9882   -0.4528    2.2244 C   0  0  0  0  0  0  0  0  0  0  0  0
    5.0969    0.4825    1.0616 C   0  0  0  0  0  0  0  0  0  0  0  0
    3.6064    0.2815    1.1194 C   0  0  0  0  0  0  0  0  0  0  0  0
    5.7143    0.6955    2.4687 C   0  0  0  0  0  0  0  0  0  0  0  0
    7.7894    2.0338    2.6533 C   0  0  0  0  0  0  0  0  0  0  0  0
    9.2462    2.3736    2.6577 C   0  0  0  0  0  0  0  0  0  0  0  0
    2.6349    1.0499    0.6024 C   0  0  0  0  0  0  0  0  0  0  0  0
    7.2250    0.8293    2.4586 C   0  0  0  0  0  0  0  0  0  0  0  0
    9.7308    3.5111    1.2663 S   0  0  0  0  0  0  0  0  0  0  0  0
    0.6281    1.4714    1.2974 H   0  0  0  0  0  0  0  0  0  0  0  0
    1.0628   -0.2493    1.3504 H   0  0  0  0  0  0  0  0  0  0  0  0
    0.6872    0.5403   -0.1945 H   0  0  0  0  0  0  0  0  0  0  0  0
    2.3378    3.1619    0.2836 H   0  0  0  0  0  0  0  0  0  0  0  0
    2.4426    2.2220   -1.1990 H   0  0  0  0  0  0  0  0  0  0  0  0
    3.9134    2.5881   -0.2839 H   0  0  0  0  0  0  0  0  0  0  0  0
    7.6526   -0.9496    1.3052 H   0  0  0  0  0  0  0  0  0  0  0  0
    7.8054   -1.1619    3.0437 H   0  0  0  0  0  0  0  0  0  0  0  0
    9.0683   -0.3094    2.1445 H   0  0  0  0  0  0  0  0  0  0  0  0
    5.3665    1.3334    0.4280 H   0  0  0  0  0  0  0  0  0  0  0  0
    5.5560   -0.4039    0.5999 H   0  0  0  0  0  0  0  0  0  0  0  0
    3.2959   -0.6078    1.6722 H   0  0  0  0  0  0  0  0  0  0  0  0
    5.4246   -0.1515    3.1088 H   0  0  0  0  0  0  0  0  0  0  0  0
    5.2638    1.5907    2.9125 H   0  0  0  0  0  0  0  0  0  0  0  0
    7.1298    2.8869    2.8123 H   0  0  0  0  0  0  0  0  0  0  0  0
    9.8932    1.4954    2.6361 H   0  0  0  0  0  0  0  0  0  0  0  0
    9.5084    2.9514    3.5512 H   0  0  0  0  0  0  0  0  0  0  0  0
    9.2530    2.7363    0.2687 H   0  0  0  0  0  0  0  0  0  0  0  0
  1 12  1  0  0  0  0
  1 13  1  0  0  0  0
  2 15  1  0  0  0  0
  2  9  1  0  0  0  0
  3 10  1  0  0  0  0
  3 19  1  0  0  0  0
  4  5  1  0  0  0  0
  4  6  1  0  0  0  0
  5 23  1  0  0  0  0
  6 25  1  0  0  0  0
  6 24  1  0  0  0  0
  7  8  1  0  0  0  0
  7 26  1  0  0  0  0
  8 28  1  0  0  0  0
  9  1  1  0  0  0  0
  9  5  2  0  0  0  0
 10  6  1  0  0  0  0
 10  7  2  0  0  0  0
 11  8  1  0  0  0  0
 14  1  1  0  0  0  0
 16  2  1  0  0  0  0
 17  2  1  0  0  0  0
 18  3  1  0  0  0  0
 20  3  1  0  0  0  0
 21  4  1  0  0  0  0
 22  4  1  0  0  0  0
 27  8  1  0  0  0  0
 29 11  1  0  0  0  0
M  END
>  <HBA>
1

>  <HBD>
1

>  <TPSA>
38.8

>  <cid>
61983

>  <dipole>
2.12

>  <excitation_energy_1>
5.073

>  <excitation_energy_2>
5.318

>  <excitation_energy_3>
5.505

>  <excitation_energy_4>
5.666

>  <homo_energy>
-6.055

>  <homo_lumo_gap>
6.202

>  <logP>
3.609

>  <lumo_energy>
0.147

>  <melting_point>
17.46

>  <molecular_refractivity>
57.16

>  <oscillator_strength_1>
0.0143

>  <oscillator_strength_2>
0.1174

>  <oscillator_strength_3>
0.0332

>  <oscillator_strength_4>
0.0282

>  <open_babel_can_smiles>
SC/C=C(/CCC=C(C)C)\C

>  <mulliken_charges>
29
1   -0.506007
2   -0.513592
3   -0.524671
4   -0.302516
5   -0.161664
6   -0.325495
7   -0.158193
8   -0.457055
9   0.189023
10   0.193884
11   -0.088057
12   0.149418
13   0.150663
14   0.149402
15   0.152299
16   0.152701
17   0.15608
18   0.160263
19   0.159168
20   0.154228
21   0.143787
22   0.139989
23   0.109189
24   0.134838
25   0.147287
26   0.131773
27   0.181591
28   0.185722
29   0.095943

>  <lowdin_charges>
29
1   -0.44036
2   -0.443771
3   -0.445808
4   -0.274355
5   -0.193102
6   -0.270773
7   -0.200708
8   -0.363846
9   -0.008154
10   -0.005775
11   -0.096917
12   0.153706
13   0.154089
14   0.152411
15   0.156261
16   0.154879
17   0.154886
18   0.158148
19   0.159921
20   0.153962
21   0.148986
22   0.146752
23   0.144213
24   0.144748
25   0.151813
26   0.156796
27   0.16252
28   0.173658
29   0.115819

$$$$

