PCCDB-ID:  6130
public computational chemistry database (PCCDB) project, http://pccdb.org

 20 21  0  0  1  0  0  0  0  0999 V2000
   -1.6210   -1.0183    0.4191 C   0  0  2  0  0  0  0  0  0  0  0  0
    1.4109    0.8880    0.4321 C   0  0  2  0  0  0  0  0  0  0  0  0
   -0.2297   -0.8028    1.0303 C   0  0  2  0  0  0  0  0  0  0  0  0
   -0.0265    0.7248    0.9158 C   0  0  2  0  0  0  0  0  0  0  0  0
   -1.6336    0.0515   -0.6865 C   0  0  2  0  0  0  0  0  0  0  0  0
    1.7745   -0.4926   -0.1266 C   0  0  0  0  0  0  0  0  0  0  0  0
   -2.6212   -0.7822    1.3938 O   0  0  0  0  0  0  0  0  0  0  0  0
    2.2438    1.1601    1.5506 O   0  0  0  0  0  0  0  0  0  0  0  0
   -1.0295   -0.3476   -1.8806 O   0  0  0  0  0  0  0  0  0  0  0  0
    2.7760   -0.8023   -0.7137 O   0  0  0  0  0  0  0  0  0  0  0  0
    0.7919   -1.3969    0.1863 O   0  0  0  0  0  0  0  0  0  0  0  0
   -0.9853    1.1700   -0.0541 O   0  0  0  0  0  0  0  0  0  0  0  0
   -1.7687   -2.0308    0.0381 H   0  0  0  0  0  0  0  0  0  0  0  0
    1.4869    1.6541   -0.3487 H   0  0  0  0  0  0  0  0  0  0  0  0
   -0.1374   -1.2150    2.0362 H   0  0  0  0  0  0  0  0  0  0  0  0
   -0.1839    1.2700    1.8500 H   0  0  0  0  0  0  0  0  0  0  0  0
   -2.6383    0.3922   -0.9432 H   0  0  0  0  0  0  0  0  0  0  0  0
   -2.6789    0.1784    1.5307 H   0  0  0  0  0  0  0  0  0  0  0  0
    3.1652    1.0817    1.2510 H   0  0  0  0  0  0  0  0  0  0  0  0
   -0.3091   -0.9692   -1.6855 H   0  0  0  0  0  0  0  0  0  0  0  0
  1 13  1  6  0  0  0
  1  3  1  0  0  0  0
  1  7  1  0  0  0  0
  2 14  1  6  0  0  0
  2  4  1  0  0  0  0
  2  8  1  0  0  0  0
  3 15  1  1  0  0  0
  4  3  1  0  0  0  0
  4 16  1  1  0  0  0
  5 17  1  6  0  0  0
  5 12  1  0  0  0  0
  5  1  1  0  0  0  0
  6 11  1  0  0  0  0
  6  2  1  0  0  0  0
  7 18  1  0  0  0  0
  9 20  1  0  0  0  0
  9  5  1  0  0  0  0
 10  6  2  0  0  0  0
 11  3  1  0  0  0  0
 12  4  1  0  0  0  0
 19  8  1  0  0  0  0
M  END
>  <HBA>
6

>  <HBD>
3

>  <TPSA>
96.22

>  <cid>
6130

>  <dipole>
2.12

>  <excitation_energy_1>
5.202

>  <excitation_energy_2>
6.203

>  <excitation_energy_3>
6.328

>  <excitation_energy_4>
6.579

>  <homo_energy>
-7.532

>  <homo_lumo_gap>
6.817

>  <logP>
-2.649

>  <lumo_energy>
-0.716

>  <melting_point>
77.94

>  <molecular_refractivity>
32.58

>  <oscillator_strength_1>
0.0008

>  <oscillator_strength_2>
0.0062

>  <oscillator_strength_3>
0.0039

>  <oscillator_strength_4>
0.0008

>  <open_babel_can_smiles>
O[C@H]1[C@H](O)O[C@H]2[C@@H]1OC(=O)[C@@H]2O

>  <mulliken_charges>
20
1   0.083146
2   0.042268
3   0.058233
4   0.102357
5   0.29003
6   0.586784
7   -0.620599
8   -0.621982
9   -0.60935
10   -0.443732
11   -0.482146
12   -0.502696
13   0.174675
14   0.18338
15   0.185408
16   0.173219
17   0.164272
18   0.407629
19   0.41453
20   0.414577

>  <lowdin_charges>
20
1   -0.03575
2   -0.041
3   -0.030127
4   -0.025501
5   0.068213
6   0.170263
7   -0.436239
8   -0.440368
9   -0.43116
10   -0.217399
11   -0.194411
12   -0.271383
13   0.165719
14   0.167114
15   0.170923
16   0.165074
17   0.157937
18   0.349042
19   0.359197
20   0.349856

$$$$

