PCCDB-ID:  18852
public computational chemistry database (PCCDB) project, http://pccdb.org

 21 20  0  0  0  0  0  0  0  0999 V2000
    1.3973    0.0540    0.9503 C   0  0  0  0  0  0  0  0  0  0  0  0
    5.1770    0.6917    0.9358 C   0  0  0  0  0  0  0  0  0  0  0  0
    2.7089    1.5795   -1.9894 C   0  0  0  0  0  0  0  0  0  0  0  0
    2.7787    2.5823    0.3094 C   0  0  0  0  0  0  0  0  0  0  0  0
    2.2891    0.1132   -0.0399 C   0  0  0  0  0  0  0  0  0  0  0  0
    4.6018    0.9751   -0.4561 C   0  0  0  0  0  0  0  0  0  0  0  0
    3.0835    1.3177   -0.5108 C   0  0  0  0  0  0  0  0  0  0  0  0
    0.8793   -0.8720    1.1862 H   0  0  0  0  0  0  0  0  0  0  0  0
    1.1448    0.9146    1.5636 H   0  0  0  0  0  0  0  0  0  0  0  0
    6.2324    0.4049    0.8632 H   0  0  0  0  0  0  0  0  0  0  0  0
    4.6397   -0.1241    1.4318 H   0  0  0  0  0  0  0  0  0  0  0  0
    5.1215    1.5705    1.5875 H   0  0  0  0  0  0  0  0  0  0  0  0
    1.6461    1.8280   -2.0865 H   0  0  0  0  0  0  0  0  0  0  0  0
    2.9059    0.6981   -2.6118 H   0  0  0  0  0  0  0  0  0  0  0  0
    3.2939    2.4139   -2.3958 H   0  0  0  0  0  0  0  0  0  0  0  0
    1.7261    2.8707    0.2102 H   0  0  0  0  0  0  0  0  0  0  0  0
    3.3889    3.4216   -0.0449 H   0  0  0  0  0  0  0  0  0  0  0  0
    2.9870    2.4429    1.3750 H   0  0  0  0  0  0  0  0  0  0  0  0
    2.4867   -0.7974   -0.6110 H   0  0  0  0  0  0  0  0  0  0  0  0
    4.7768    0.1008   -1.0993 H   0  0  0  0  0  0  0  0  0  0  0  0
    5.1547    1.8058   -0.9172 H   0  0  0  0  0  0  0  0  0  0  0  0
  1  8  1  0  0  0  0
  1  9  1  0  0  0  0
  2 11  1  0  0  0  0
  2 12  1  0  0  0  0
  3  7  1  0  0  0  0
  4 18  1  0  0  0  0
  5  1  2  0  0  0  0
  6  2  1  0  0  0  0
  7  6  1  0  0  0  0
  7  5  1  0  0  0  0
  7  4  1  0  0  0  0
 10  2  1  0  0  0  0
 13  3  1  0  0  0  0
 14  3  1  0  0  0  0
 15  3  1  0  0  0  0
 16  4  1  0  0  0  0
 17  4  1  0  0  0  0
 19  5  1  0  0  0  0
 20  6  1  0  0  0  0
 21  6  1  0  0  0  0
M  END
>  <HBA>
0

>  <HBD>
0

>  <TPSA>
0.0

>  <cid>
18852

>  <dipole>
0.3

>  <excitation_energy_1>
6.398

>  <excitation_energy_2>
6.796

>  <excitation_energy_3>
6.884

>  <excitation_energy_4>
6.966

>  <homo_energy>
-6.789

>  <homo_lumo_gap>
7.516

>  <logP>
2.609

>  <lumo_energy>
0.727

>  <melting_point>
-29.14

>  <molecular_refractivity>
35.03

>  <oscillator_strength_1>
0.0343

>  <oscillator_strength_2>
0.0093

>  <oscillator_strength_3>
0.0122

>  <oscillator_strength_4>
0.3236

>  <open_babel_can_smiles>
CCC(C=C)(C)C

>  <mulliken_charges>
21
1   -0.35112
2   -0.44919
3   -0.445587
4   -0.463753
5   -0.045148
6   -0.250951
7   0.069871
8   0.135395
9   0.137244
10   0.140164
11   0.152423
12   0.144494
13   0.146852
14   0.138033
15   0.139062
16   0.144543
17   0.138013
18   0.149427
19   0.116179
20   0.12629
21   0.127761

>  <lowdin_charges>
21
1   -0.353237
2   -0.44959
3   -0.438854
4   -0.442371
5   -0.142445
6   -0.272062
7   0.011441
8   0.157839
9   0.157049
10   0.148416
11   0.153855
12   0.147963
13   0.149846
14   0.147258
15   0.148002
16   0.149443
17   0.149739
18   0.149866
19   0.147212
20   0.13968
21   0.140951

$$$$

