PCCDB-ID:  11460
public computational chemistry database (PCCDB) project, http://pccdb.org

 21 21  0  0  0  0  0  0  0  0999 V2000
    1.7983   -0.3514    1.0718 C   0  0  0  0  0  0  0  0  0  0  0  0
    4.1934   -4.2226   -3.5801 C   0  0  0  0  0  0  0  0  0  0  0  0
    4.5488   -0.0267   -3.1125 C   0  0  0  0  0  0  0  0  0  0  0  0
    3.9440    0.5775   -2.0193 C   0  0  0  0  0  0  0  0  0  0  0  0
    4.4600   -1.4100   -3.3130 C   0  0  0  0  0  0  0  0  0  0  0  0
    3.1375   -1.5876   -1.2911 C   0  0  0  0  0  0  0  0  0  0  0  0
    2.5882    0.4796    0.0734 C   0  0  0  0  0  0  0  0  0  0  0  0
    3.2300   -0.2075   -1.0971 C   0  0  0  0  0  0  0  0  0  0  0  0
    3.7503   -2.1935   -2.3966 C   0  0  0  0  0  0  0  0  0  0  0  0
    2.6982    1.6871    0.2214 O   0  0  0  0  0  0  0  0  0  0  0  0
    3.5947   -3.5473   -2.4849 O   0  0  0  0  0  0  0  0  0  0  0  0
    0.9708   -0.8772    0.5809 H   0  0  0  0  0  0  0  0  0  0  0  0
    1.4007    0.3123    1.8414 H   0  0  0  0  0  0  0  0  0  0  0  0
    2.4338   -1.1120    1.5410 H   0  0  0  0  0  0  0  0  0  0  0  0
    3.9454   -5.2777   -3.4523 H   0  0  0  0  0  0  0  0  0  0  0  0
    5.2851   -4.1041   -3.5796 H   0  0  0  0  0  0  0  0  0  0  0  0
    3.7933   -3.8699   -4.5400 H   0  0  0  0  0  0  0  0  0  0  0  0
    5.1023    0.5750   -3.8285 H   0  0  0  0  0  0  0  0  0  0  0  0
    4.0057    1.6470   -1.8524 H   0  0  0  0  0  0  0  0  0  0  0  0
    4.9415   -1.8581   -4.1746 H   0  0  0  0  0  0  0  0  0  0  0  0
    2.5967   -2.2271   -0.6020 H   0  0  0  0  0  0  0  0  0  0  0  0
  1 14  1  0  0  0  0
  1 13  1  0  0  0  0
  2 16  1  0  0  0  0
  2 15  1  0  0  0  0
  2 11  1  0  0  0  0
  3  4  1  0  0  0  0
  4 19  1  0  0  0  0
  4  8  2  0  0  0  0
  5  3  2  0  0  0  0
  5  9  1  0  0  0  0
  6  8  1  0  0  0  0
  6 21  1  0  0  0  0
  7 10  2  0  0  0  0
  7  1  1  0  0  0  0
  8  7  1  0  0  0  0
  9  6  2  0  0  0  0
 11  9  1  0  0  0  0
 12  1  1  0  0  0  0
 17  2  1  0  0  0  0
 18  3  1  0  0  0  0
 20  5  1  0  0  0  0
M  END
>  <HBA>
2

>  <HBD>
0

>  <TPSA>
26.3

>  <cid>
11460

>  <dipole>
3.98

>  <excitation_energy_1>
3.747

>  <excitation_energy_2>
4.113

>  <excitation_energy_3>
5.133

>  <excitation_energy_4>
5.672

>  <homo_energy>
-6.166

>  <homo_lumo_gap>
4.778

>  <logP>
1.898

>  <lumo_energy>
-1.388

>  <melting_point>
44.32

>  <molecular_refractivity>
43.13

>  <oscillator_strength_1>
0.0001

>  <oscillator_strength_2>
0.0459

>  <oscillator_strength_3>
0.1061

>  <oscillator_strength_4>
0.0051

>  <open_babel_can_smiles>
COc1cccc(c1)C(=O)C

>  <mulliken_charges>
21
1   -0.542165
2   -0.216982
3   -0.137614
4   -0.162757
5   -0.189994
6   -0.239902
7   0.408236
8   0.076941
9   0.383437
10   -0.451985
11   -0.508416
12   0.171863
13   0.180351
14   0.172059
15   0.172739
16   0.15389
17   0.153853
18   0.137233
19   0.159901
20   0.13705
21   0.142264

>  <lowdin_charges>
21
1   -0.478212
2   -0.274073
3   -0.146165
4   -0.149802
5   -0.200764
6   -0.177796
7   0.161781
8   -0.04172
9   0.101732
10   -0.240279
11   -0.199833
12   0.171312
13   0.175534
14   0.171683
15   0.16291
16   0.143835
17   0.145846
18   0.162725
19   0.174327
20   0.165434
21   0.171526

$$$$

