PCCDB-ID:  28660
public computational chemistry database (PCCDB) project, http://pccdb.org

  9  8  0  0  0  0  0  0  0  0999 V2000
    1.0350    0.0574   -0.0063 C   0  0  0  0  0  0  0  0  0  0  0  0
    4.3709   -0.0501    1.4489 C   0  0  0  0  0  0  0  0  0  0  0  0
    3.0392    0.4889    1.1377 C   0  0  0  0  0  0  0  0  0  0  0  0
    5.4337   -0.4208    1.7301 N   0  0  0  0  0  0  0  0  0  0  0  0
    2.6519    1.5572    1.5444 O   0  0  0  0  0  0  0  0  0  0  0  0
    2.3662   -0.3670    0.3649 O   0  0  0  0  0  0  0  0  0  0  0  0
    0.6452   -0.7456   -0.6301 H   0  0  0  0  0  0  0  0  0  0  0  0
    1.0813    0.9968   -0.5619 H   0  0  0  0  0  0  0  0  0  0  0  0
    0.4210    0.1913    0.8872 H   0  0  0  0  0  0  0  0  0  0  0  0
  1  6  1  0  0  0  0
  1  9  1  0  0  0  0
  2  4  3  0  0  0  0
  3  2  1  0  0  0  0
  3  5  2  0  0  0  0
  6  3  1  0  0  0  0
  7  1  1  0  0  0  0
  8  1  1  0  0  0  0
M  END
>  <HBA>
3

>  <HBD>
0

>  <TPSA>
50.09

>  <cid>
28660

>  <dipole>
4.09

>  <excitation_energy_1>
5.016

>  <excitation_energy_2>
6.332

>  <excitation_energy_3>
6.757

>  <excitation_energy_4>
6.793

>  <homo_energy>
-8.727

>  <homo_lumo_gap>
6.705

>  <logP>
-0.317

>  <lumo_energy>
-2.022

>  <melting_point>
21.77

>  <molecular_refractivity>
17.57

>  <oscillator_strength_1>
0.0

>  <oscillator_strength_2>
0.0

>  <oscillator_strength_3>
0.1209

>  <oscillator_strength_4>
0.042

>  <open_babel_can_smiles>
COC(=O)C#N

>  <mulliken_charges>
9
1   -0.231566
2   0.341197
3   0.616774
4   -0.442133
5   -0.425263
6   -0.420232
7   0.186779
8   0.187312
9   0.187132

>  <lowdin_charges>
9
1   -0.275309
2   -0.019887
3   0.194073
4   -0.054709
5   -0.204263
6   -0.153358
7   0.174392
8   0.169258
9   0.169803

$$$$

