PCCDB-ID:  6929
public computational chemistry database (PCCDB) project, http://pccdb.org

 41 41  0  0  0  0  0  0  0  0999 V2000
    3.7244    1.5110    0.1941 C   0  0  0  0  0  0  0  0  0  0  0  0
    1.5060    0.5823    0.7614 C   0  0  0  0  0  0  0  0  0  0  0  0
    1.8145    1.4945   -1.5155 C   0  0  0  0  0  0  0  0  0  0  0  0
    4.7642   -1.5971   -4.8889 C   0  0  0  0  0  0  0  0  0  0  0  0
    6.6957   -1.5971   -3.2394 C   0  0  0  0  0  0  0  0  0  0  0  0
    5.6200   -3.7285   -3.9355 C   0  0  0  0  0  0  0  0  0  0  0  0
    2.5050   -1.8618   -0.3124 C   0  0  0  0  0  0  0  0  0  0  0  0
    3.8054   -3.2251   -1.7976 C   0  0  0  0  0  0  0  0  0  0  0  0
    2.3752   -4.3770   -0.0629 C   0  0  0  0  0  0  0  0  0  0  0  0
    2.8990   -3.1268   -0.7391 C   0  0  0  0  0  0  0  0  0  0  0  0
    2.9979   -0.6854   -0.8943 C   0  0  0  0  0  0  0  0  0  0  0  0
    4.3383   -2.1023   -2.4347 C   0  0  0  0  0  0  0  0  0  0  0  0
    3.9226   -0.8348   -1.9558 C   0  0  0  0  0  0  0  0  0  0  0  0
    2.5310    0.7034   -0.3870 C   0  0  0  0  0  0  0  0  0  0  0  0
    5.3383   -2.2474   -3.6057 C   0  0  0  0  0  0  0  0  0  0  0  0
    2.0773   -5.4340   -0.9716 O   0  0  0  0  0  0  0  0  0  0  0  0
    4.4680    0.2569   -2.5957 O   0  0  0  0  0  0  0  0  0  0  0  0
    3.3804    2.4890    0.5509 H   0  0  0  0  0  0  0  0  0  0  0  0
    4.5419    1.6944   -0.5123 H   0  0  0  0  0  0  0  0  0  0  0  0
    4.1632    0.9747    1.0423 H   0  0  0  0  0  0  0  0  0  0  0  0
    1.2017    1.5850    1.0814 H   0  0  0  0  0  0  0  0  0  0  0  0
    1.9251    0.0705    1.6340 H   0  0  0  0  0  0  0  0  0  0  0  0
    0.6024    0.0484    0.4483 H   0  0  0  0  0  0  0  0  0  0  0  0
    1.4964    2.4765   -1.1460 H   0  0  0  0  0  0  0  0  0  0  0  0
    0.9225    0.9508   -1.8449 H   0  0  0  0  0  0  0  0  0  0  0  0
    2.4239    1.6620   -2.4095 H   0  0  0  0  0  0  0  0  0  0  0  0
    5.4722   -1.7206   -5.7180 H   0  0  0  0  0  0  0  0  0  0  0  0
    4.5758   -0.5308   -4.7563 H   0  0  0  0  0  0  0  0  0  0  0  0
    3.8232   -2.0807   -5.1775 H   0  0  0  0  0  0  0  0  0  0  0  0
    7.4072   -1.7308   -4.0640 H   0  0  0  0  0  0  0  0  0  0  0  0
    7.1230   -2.0730   -2.3487 H   0  0  0  0  0  0  0  0  0  0  0  0
    6.5960   -0.5284   -3.0437 H   0  0  0  0  0  0  0  0  0  0  0  0
    6.3294   -3.7808   -4.7689 H   0  0  0  0  0  0  0  0  0  0  0  0
    4.7144   -4.2648   -4.2411 H   0  0  0  0  0  0  0  0  0  0  0  0
    6.0667   -4.2632   -3.0897 H   0  0  0  0  0  0  0  0  0  0  0  0
    1.7883   -1.7986    0.4988 H   0  0  0  0  0  0  0  0  0  0  0  0
    4.0852   -4.2187   -2.1248 H   0  0  0  0  0  0  0  0  0  0  0  0
    1.4991   -4.1227    0.5564 H   0  0  0  0  0  0  0  0  0  0  0  0
    3.1284   -4.7998    0.6132 H   0  0  0  0  0  0  0  0  0  0  0  0
    1.4906   -5.0653   -1.6512 H   0  0  0  0  0  0  0  0  0  0  0  0
    4.1593    1.0659   -2.1705 H   0  0  0  0  0  0  0  0  0  0  0  0
  1 18  1  0  0  0  0
  1 20  1  0  0  0  0
  2 21  1  0  0  0  0
  2 22  1  0  0  0  0
  3 24  1  0  0  0  0
  3 14  1  0  0  0  0
  4 28  1  0  0  0  0
  4 15  1  0  0  0  0
  5 32  1  0  0  0  0
  5 31  1  0  0  0  0
  6 15  1  0  0  0  0
  6 35  1  0  0  0  0
  7 36  1  0  0  0  0
  8 10  2  0  0  0  0
  9 38  1  0  0  0  0
  9 39  1  0  0  0  0
 10  7  1  0  0  0  0
 10  9  1  0  0  0  0
 11 14  1  0  0  0  0
 11  7  2  0  0  0  0
 12 13  2  0  0  0  0
 12  8  1  0  0  0  0
 13 11  1  0  0  0  0
 14  1  1  0  0  0  0
 14  2  1  0  0  0  0
 15  5  1  0  0  0  0
 15 12  1  0  0  0  0
 16  9  1  0  0  0  0
 17 41  1  0  0  0  0
 17 13  1  0  0  0  0
 19  1  1  0  0  0  0
 23  2  1  0  0  0  0
 25  3  1  0  0  0  0
 26  3  1  0  0  0  0
 27  4  1  0  0  0  0
 29  4  1  0  0  0  0
 30  5  1  0  0  0  0
 33  6  1  0  0  0  0
 34  6  1  0  0  0  0
 37  8  1  0  0  0  0
 40 16  1  0  0  0  0
M  END
>  <HBA>
2

>  <HBD>
2

>  <TPSA>
40.46

>  <cid>
6929

>  <dipole>
3.25

>  <excitation_energy_1>
4.882

>  <excitation_energy_2>
5.15

>  <excitation_energy_3>
5.375

>  <excitation_energy_4>
5.571

>  <homo_energy>
-5.709

>  <homo_lumo_gap>
5.812

>  <logP>
3.479

>  <lumo_energy>
0.103

>  <melting_point>
86.33

>  <molecular_refractivity>
73.13

>  <oscillator_strength_1>
0.0427

>  <oscillator_strength_2>
0.0066

>  <oscillator_strength_3>
0.0726

>  <oscillator_strength_4>
0.0022

>  <open_babel_can_smiles>
OCc1cc(c(c(c1)C(C)(C)C)O)C(C)(C)C

>  <mulliken_charges>
41
1   -0.457668
2   -0.45502
3   -0.456303
4   -0.449372
5   -0.44874
6   -0.454832
7   -0.286399
8   -0.273949
9   -0.092677
10   0.129274
11   0.173748
12   0.152522
13   0.187653
14   -0.01657
15   0.035802
16   -0.610369
17   -0.654753
18   0.147491
19   0.139924
20   0.161332
21   0.143336
22   0.151483
23   0.150608
24   0.145767
25   0.158642
26   0.14169
27   0.131251
28   0.168546
29   0.134567
30   0.131065
31   0.136846
32   0.16708
33   0.139247
34   0.143229
35   0.145179
36   0.118379
37   0.14136
38   0.122787
39   0.157313
40   0.385512
41   0.415017

>  <lowdin_charges>
41
1   -0.44884
2   -0.440973
3   -0.44909
4   -0.445445
5   -0.445798
6   -0.445697
7   -0.177325
8   -0.169157
9   -0.133393
10   -0.055981
11   -0.052314
12   -0.023655
13   0.090118
14   0.010158
15   0.022877
16   -0.465844
17   -0.383628
18   0.151083
19   0.144871
20   0.160636
21   0.150933
22   0.152789
23   0.152191
24   0.150191
25   0.159048
26   0.146363
27   0.144214
28   0.158715
29   0.145212
30   0.144139
31   0.14684
32   0.158098
33   0.150048
34   0.148324
35   0.149709
36   0.156841
37   0.167591
38   0.12957
39   0.154461
40   0.341708
41   0.350413

$$$$

