PCCDB-ID:  67171
public computational chemistry database (PCCDB) project, http://pccdb.org

 10  9  0  0  0  0  0  0  0  0999 V2000
    1.0539   -0.0706    0.0431 C   0  0  0  0  0  0  0  0  0  0  0  0
    2.5691   -0.0626    0.1134 C   0  0  0  0  0  0  0  0  0  0  0  0
    3.2925    0.3477    1.0880 N   0  0  0  0  0  0  0  0  0  0  0  0
    3.1861   -0.6292   -0.9939 N   0  0  0  0  0  0  0  0  0  0  0  0
    0.6198    0.3751    0.9413 H   0  0  0  0  0  0  0  0  0  0  0  0
    0.6795   -1.0957   -0.0594 H   0  0  0  0  0  0  0  0  0  0  0  0
    0.6976    0.4973   -0.8262 H   0  0  0  0  0  0  0  0  0  0  0  0
    2.7004    0.6579    1.8600 H   0  0  0  0  0  0  0  0  0  0  0  0
    2.7257   -0.5090   -1.8868 H   0  0  0  0  0  0  0  0  0  0  0  0
    4.1854   -0.4626   -1.0241 H   0  0  0  0  0  0  0  0  0  0  0  0
  1  2  1  0  0  0  0
  1  5  1  0  0  0  0
  2  3  1  0  0  0  0
  3  8  1  0  0  0  0
  4  2  2  0  0  0  0
  6  1  1  0  0  0  0
  7  1  1  0  0  0  0
  9  4  1  0  0  0  0
 10  4  1  0  0  0  0
M  RAD  1   3   2
M  END
>  <HBA>
2

>  <HBD>
2

>  <TPSA>
49.87

>  <cid>
67171

>  <dipole>
2.74

>  <excitation_energy_1>
5.662

>  <excitation_energy_2>
6.155

>  <excitation_energy_3>
6.312

>  <excitation_energy_4>
6.527

>  <homo_energy>
-6.297

>  <homo_lumo_gap>
7.323

>  <logP>
0.742

>  <lumo_energy>
1.026

>  <melting_point>
61.64

>  <molecular_refractivity>
18.03

>  <oscillator_strength_1>
0.0027

>  <oscillator_strength_2>
0.0129

>  <oscillator_strength_3>
0.0349

>  <oscillator_strength_4>
0.0438

>  <open_babel_can_smiles>
CC(=[NH2])[NH]

>  <mulliken_charges>
10
1   -0.511163
2   0.429383
3   -0.617137
4   -0.718794
5   0.160993
6   0.178704
7   0.157495
8   0.273789
9   0.31597
10   0.330759

>  <lowdin_charges>
10
1   -0.468109
2   0.096119
3   -0.443706
4   -0.483998
5   0.163332
6   0.169986
7   0.161199
8   0.249968
9   0.2742
10   0.281009

$$$$

