PCCDB-ID:  57504
public computational chemistry database (PCCDB) project, http://pccdb.org

 29 31  0  0  0  0  0  0  0  0999 V2000
    0.9975   -0.1861    0.0201 C   0  0  0  0  0  0  0  0  0  0  0  0
    7.0537    4.5115    0.0157 C   0  0  0  0  0  0  0  0  0  0  0  0
    3.4881    5.9435    0.0185 C   0  0  0  0  0  0  0  0  0  0  0  0
    4.6607   -1.3180    0.0171 C   0  0  0  0  0  0  0  0  0  0  0  0
    3.2356   -1.3222    0.0172 C   0  0  0  0  0  0  0  0  0  0  0  0
    4.9093    5.8378    0.0183 C   0  0  0  0  0  0  0  0  0  0  0  0
    2.7066    4.8200    0.0176 C   0  0  0  0  0  0  0  0  0  0  0  0
    5.3570   -0.1404    0.0178 C   0  0  0  0  0  0  0  0  0  0  0  0
    2.5741    2.3421    0.0176 C   0  0  0  0  0  0  0  0  0  0  0  0
    2.5064   -0.1576    0.0183 C   0  0  0  0  0  0  0  0  0  0  0  0
    5.5527    4.6229    0.0172 C   0  0  0  0  0  0  0  0  0  0  0  0
    3.3148    3.5286    0.0173 C   0  0  0  0  0  0  0  0  0  0  0  0
    3.2129    1.0982    0.0182 C   0  0  0  0  0  0  0  0  0  0  0  0
    4.6589    1.1067    0.0180 C   0  0  0  0  0  0  0  0  0  0  0  0
    4.7541    3.4215    0.0174 C   0  0  0  0  0  0  0  0  0  0  0  0
    5.3858    2.2371    0.0177 N   0  0  0  0  0  0  0  0  0  0  0  0
    0.6282   -1.2159    0.0225 H   0  0  0  0  0  0  0  0  0  0  0  0
    0.5796    0.3149   -0.8627 H   0  0  0  0  0  0  0  0  0  0  0  0
    0.5818    0.3182    0.9020 H   0  0  0  0  0  0  0  0  0  0  0  0
    7.5187    5.5022    0.0143 H   0  0  0  0  0  0  0  0  0  0  0  0
    7.4064    3.9554   -0.8599 H   0  0  0  0  0  0  0  0  0  0  0  0
    7.4085    3.9570    0.8916 H   0  0  0  0  0  0  0  0  0  0  0  0
    3.0307    6.9292    0.0194 H   0  0  0  0  0  0  0  0  0  0  0  0
    5.1902   -2.2671    0.0170 H   0  0  0  0  0  0  0  0  0  0  0  0
    2.7139   -2.2763    0.0164 H   0  0  0  0  0  0  0  0  0  0  0  0
    5.5008    6.7504    0.0185 H   0  0  0  0  0  0  0  0  0  0  0  0
    1.6214    4.8900    0.0169 H   0  0  0  0  0  0  0  0  0  0  0  0
    6.4418   -0.1078    0.0184 H   0  0  0  0  0  0  0  0  0  0  0  0
    1.4889    2.4009    0.0175 H   0  0  0  0  0  0  0  0  0  0  0  0
  1 17  1  0  0  0  0
  1 19  1  0  0  0  0
  2 11  1  0  0  0  0
  2 22  1  0  0  0  0
  3 23  1  0  0  0  0
  4  5  2  0  0  0  0
  4  8  1  0  0  0  0
  5 10  1  0  0  0  0
  6  3  1  0  0  0  0
  6 26  1  0  0  0  0
  7  3  2  0  0  0  0
  8 14  2  0  0  0  0
  8 28  1  0  0  0  0
  9 13  1  0  0  0  0
 10  1  1  0  0  0  0
 11 15  1  0  0  0  0
 11  6  2  0  0  0  0
 12 15  1  0  0  0  0
 12  7  1  0  0  0  0
 12  9  2  0  0  0  0
 13 10  2  0  0  0  0
 14 13  1  0  0  0  0
 15 16  2  0  0  0  0
 16 14  1  0  0  0  0
 18  1  1  0  0  0  0
 20  2  1  0  0  0  0
 21  2  1  0  0  0  0
 24  4  1  0  0  0  0
 25  5  1  0  0  0  0
 27  7  1  0  0  0  0
 29  9  1  0  0  0  0
M  END
>  <HBA>
1

>  <HBD>
0

>  <TPSA>
12.89

>  <cid>
57504

>  <dipole>
1.81

>  <excitation_energy_1>
3.203

>  <excitation_energy_2>
3.756

>  <excitation_energy_3>
3.885

>  <excitation_energy_4>
4.107

>  <homo_energy>
-5.527

>  <homo_lumo_gap>
3.644

>  <logP>
4.005

>  <lumo_energy>
-1.883

>  <melting_point>
118.17

>  <molecular_refractivity>
69.18

>  <oscillator_strength_1>
0.0679

>  <oscillator_strength_2>
0.0005

>  <oscillator_strength_3>
0.0329

>  <oscillator_strength_4>
0.0004

>  <open_babel_can_smiles>
Cc1cccc2c1nc1cccc(c1c2)C

>  <mulliken_charges>
29
1   -0.534676
2   -0.507263
3   -0.130362
4   -0.129317
5   -0.208807
6   -0.206471
7   -0.194434
8   -0.147259
9   -0.246927
10   0.138321
11   0.165064
12   0.178898
13   0.102012
14   0.258981
15   0.190191
16   -0.615116
17   0.159349
18   0.163264
19   0.163278
20   0.141371
21   0.169904
22   0.169883
23   0.131264
24   0.132899
25   0.1247
26   0.125478
27   0.1287
28   0.140199
29   0.136878

>  <lowdin_charges>
29
1   -0.443592
2   -0.43651
3   -0.155513
4   -0.151444
5   -0.171261
6   -0.16734
7   -0.160266
8   -0.155169
9   -0.13086
10   0.002333
11   0.003656
12   -0.016253
13   -0.027628
14   0.048434
15   0.037773
16   -0.158993
17   0.159558
18   0.160778
19   0.160797
20   0.150286
21   0.168174
22   0.168157
23   0.159106
24   0.160498
25   0.156216
26   0.1574
27   0.155262
28   0.166281
29   0.160118

$$$$

