PCCDB-ID:  9348
public computational chemistry database (PCCDB) project, http://pccdb.org

 26 27  0  0  0  0  0  0  0  0999 V2000
   -1.4189   -0.6439   -1.4254 C   0  0  0  0  0  0  0  0  0  0  0  0
   -0.6923   -1.7417   -0.9645 C   0  0  0  0  0  0  0  0  0  0  0  0
   -0.7936    0.6005   -1.5368 C   0  0  0  0  0  0  0  0  0  0  0  0
    4.4618    0.9901    0.8916 C   0  0  0  0  0  0  0  0  0  0  0  0
    0.6530   -1.5983   -0.6177 C   0  0  0  0  0  0  0  0  0  0  0  0
    0.5510    0.7442   -1.1994 C   0  0  0  0  0  0  0  0  0  0  0  0
    3.1232    0.8177    0.5406 C   0  0  0  0  0  0  0  0  0  0  0  0
    5.4276    0.1607    0.3347 C   0  0  0  0  0  0  0  0  0  0  0  0
    1.2973   -0.3515   -0.7325 C   0  0  0  0  0  0  0  0  0  0  0  0
    2.7296   -0.1813   -0.3579 C   0  0  0  0  0  0  0  0  0  0  0  0
    5.0856   -0.8424   -0.5830 C   0  0  0  0  0  0  0  0  0  0  0  0
    3.7290   -1.0016   -0.9202 C   0  0  0  0  0  0  0  0  0  0  0  0
    6.2292   -1.6603   -1.1343 C   0  0  0  0  0  0  0  0  0  0  0  0
    3.4012   -1.9772   -1.8334 O   0  0  0  0  0  0  0  0  0  0  0  0
    7.3700   -1.4808   -0.7669 O   0  0  0  0  0  0  0  0  0  0  0  0
    5.9542   -2.6025   -2.0574 O   0  0  0  0  0  0  0  0  0  0  0  0
   -2.4656   -0.7552   -1.6940 H   0  0  0  0  0  0  0  0  0  0  0  0
   -1.1734   -2.7103   -0.8596 H   0  0  0  0  0  0  0  0  0  0  0  0
   -1.3525    1.4601   -1.8966 H   0  0  0  0  0  0  0  0  0  0  0  0
    4.7450    1.7632    1.5992 H   0  0  0  0  0  0  0  0  0  0  0  0
    1.1979   -2.4491   -0.2154 H   0  0  0  0  0  0  0  0  0  0  0  0
    1.0380    1.7096   -1.3057 H   0  0  0  0  0  0  0  0  0  0  0  0
    2.3569    1.4506    0.9797 H   0  0  0  0  0  0  0  0  0  0  0  0
    6.4774    0.2623    0.5868 H   0  0  0  0  0  0  0  0  0  0  0  0
    2.4552   -1.9130   -2.0569 H   0  0  0  0  0  0  0  0  0  0  0  0
    4.9957   -2.6235   -2.2471 H   0  0  0  0  0  0  0  0  0  0  0  0
  1  2  1  0  0  0  0
  2 18  1  0  0  0  0
  2  5  2  0  0  0  0
  3  1  2  0  0  0  0
  3  6  1  0  0  0  0
  4 20  1  0  0  0  0
  5 21  1  0  0  0  0
  6  9  2  0  0  0  0
  7  4  1  0  0  0  0
  7 23  1  0  0  0  0
  8 24  1  0  0  0  0
  8  4  2  0  0  0  0
  9  5  1  0  0  0  0
  9 10  1  0  0  0  0
 10  7  2  0  0  0  0
 11  8  1  0  0  0  0
 12 11  2  0  0  0  0
 12 10  1  0  0  0  0
 13 15  2  0  0  0  0
 13 11  1  0  0  0  0
 14 12  1  0  0  0  0
 16 13  1  0  0  0  0
 17  1  1  0  0  0  0
 19  3  1  0  0  0  0
 22  6  1  0  0  0  0
 25 14  1  0  0  0  0
 26 16  1  0  0  0  0
M  END
>  <HBA>
3

>  <HBD>
2

>  <TPSA>
57.53

>  <cid>
9348

>  <dipole>
7.46

>  <excitation_energy_1>
4.423

>  <excitation_energy_2>
4.638

>  <excitation_energy_3>
4.896

>  <excitation_energy_4>
4.938

>  <homo_energy>
-6.531

>  <homo_lumo_gap>
5.197

>  <logP>
2.757

>  <lumo_energy>
-1.333

>  <melting_point>
173.89

>  <molecular_refractivity>
60.86

>  <oscillator_strength_1>
0.1232

>  <oscillator_strength_2>
0.0019

>  <oscillator_strength_3>
0.0034

>  <oscillator_strength_4>
0.0677

>  <open_babel_can_smiles>
OC(=O)c1cccc(c1O)c1ccccc1

>  <mulliken_charges>
26
1   -0.124253
2   -0.126847
3   -0.131111
4   -0.132635
5   -0.209748
6   -0.157549
7   -0.178613
8   -0.173122
9   0.02051
10   0.083116
11   0.020345
12   0.235707
13   0.574211
14   -0.697334
15   -0.463763
16   -0.599479
17   0.141767
18   0.143908
19   0.142983
20   0.140805
21   0.15641
22   0.144932
23   0.143451
24   0.176406
25   0.428069
26   0.441834

>  <lowdin_charges>
26
1   -0.148591
2   -0.150083
3   -0.147909
4   -0.17064
5   -0.182756
6   -0.155753
7   -0.137453
8   -0.114183
9   -0.014524
10   -0.050933
11   -0.08678
12   0.104243
13   0.194333
14   -0.387828
15   -0.257962
16   -0.358445
17   0.162432
18   0.164274
19   0.165087
20   0.165391
21   0.167876
22   0.165568
23   0.166791
24   0.183761
25   0.365357
26   0.358728

$$$$

