PCCDB-ID:  10870
public computational chemistry database (PCCDB) project, http://pccdb.org

 24 24  0  0  0  0  0  0  0  0999 V2000
    3.6551   -2.2849   -0.0832 C   0  0  0  0  0  0  0  0  0  0  0  0
    1.9813   -0.5751   -0.9037 C   0  0  0  0  0  0  0  0  0  0  0  0
    8.2945   -0.0251    1.0285 C   0  0  0  0  0  0  0  0  0  0  0  0
    7.4154   -0.5127    1.9960 C   0  0  0  0  0  0  0  0  0  0  0  0
    7.7831    0.5425   -0.1408 C   0  0  0  0  0  0  0  0  0  0  0  0
    6.0360   -0.4342    1.7932 C   0  0  0  0  0  0  0  0  0  0  0  0
    6.4044    0.6192   -0.3368 C   0  0  0  0  0  0  0  0  0  0  0  0
    4.0130    0.2048    0.3891 C   0  0  0  0  0  0  0  0  0  0  0  0
    3.4602   -0.8532   -0.5995 C   0  0  0  0  0  0  0  0  0  0  0  0
    5.5074    0.1304    0.6248 C   0  0  0  0  0  0  0  0  0  0  0  0
    3.2939   -3.0171   -0.8150 H   0  0  0  0  0  0  0  0  0  0  0  0
    3.0955   -2.4439    0.8485 H   0  0  0  0  0  0  0  0  0  0  0  0
    4.7092   -2.5011    0.1184 H   0  0  0  0  0  0  0  0  0  0  0  0
    1.5809   -1.3025   -1.6197 H   0  0  0  0  0  0  0  0  0  0  0  0
    1.8391    0.4266   -1.3271 H   0  0  0  0  0  0  0  0  0  0  0  0
    1.3744   -0.6403    0.0090 H   0  0  0  0  0  0  0  0  0  0  0  0
    9.3684   -0.0825    1.1849 H   0  0  0  0  0  0  0  0  0  0  0  0
    7.8016   -0.9521    2.9123 H   0  0  0  0  0  0  0  0  0  0  0  0
    8.4588    0.9311   -0.8985 H   0  0  0  0  0  0  0  0  0  0  0  0
    5.3579   -0.8128    2.5549 H   0  0  0  0  0  0  0  0  0  0  0  0
    6.0155    1.0712   -1.2473 H   0  0  0  0  0  0  0  0  0  0  0  0
    3.4828    0.1016    1.3460 H   0  0  0  0  0  0  0  0  0  0  0  0
    3.7603    1.2011    0.0012 H   0  0  0  0  0  0  0  0  0  0  0  0
    4.0253   -0.7519   -1.5382 H   0  0  0  0  0  0  0  0  0  0  0  0
  1 13  1  0  0  0  0
  1 12  1  0  0  0  0
  2  9  1  0  0  0  0
  2 16  1  0  0  0  0
  3 17  1  0  0  0  0
  3  4  2  0  0  0  0
  4 18  1  0  0  0  0
  5  3  1  0  0  0  0
  6  4  1  0  0  0  0
  6 20  1  0  0  0  0
  7  5  2  0  0  0  0
  7 10  1  0  0  0  0
  8 10  1  0  0  0  0
  8 22  1  0  0  0  0
  9  1  1  0  0  0  0
  9  8  1  0  0  0  0
 10  6  2  0  0  0  0
 11  1  1  0  0  0  0
 14  2  1  0  0  0  0
 15  2  1  0  0  0  0
 19  5  1  0  0  0  0
 21  7  1  0  0  0  0
 23  8  1  0  0  0  0
 24  9  1  0  0  0  0
M  END
>  <HBA>
0

>  <HBD>
0

>  <TPSA>
0.0

>  <cid>
10870

>  <dipole>
0.23

>  <excitation_energy_1>
5.283

>  <excitation_energy_2>
5.846

>  <excitation_energy_3>
6.004

>  <excitation_energy_4>
6.202

>  <homo_energy>
-6.403

>  <homo_lumo_gap>
6.495

>  <logP>
2.885

>  <lumo_energy>
0.093

>  <melting_point>
5.16

>  <molecular_refractivity>
45.83

>  <oscillator_strength_1>
0.0012

>  <oscillator_strength_2>
0.0453

>  <oscillator_strength_3>
0.0035

>  <oscillator_strength_4>
0.0035

>  <open_babel_can_smiles>
CC(Cc1ccccc1)C

>  <mulliken_charges>
24
1   -0.445886
2   -0.440668
3   -0.131997
4   -0.127971
5   -0.128443
6   -0.185063
7   -0.180446
8   -0.343632
9   -0.064234
10   0.175136
11   0.1395
12   0.133848
13   0.156214
14   0.141799
15   0.13885
16   0.139123
17   0.126445
18   0.126927
19   0.126871
20   0.122428
21   0.121237
22   0.133913
23   0.13937
24   0.126678

>  <lowdin_charges>
24
1   -0.448314
2   -0.445669
3   -0.160542
4   -0.156395
5   -0.157231
6   -0.170891
7   -0.167405
8   -0.274186
9   -0.117019
10   -0.000284
11   0.149259
12   0.143176
13   0.154922
14   0.150247
15   0.146182
16   0.145849
17   0.154426
18   0.156536
19   0.15743
20   0.155097
21   0.153471
22   0.144995
23   0.14897
24   0.137378

$$$$

