PCCDB-ID:  30693
public computational chemistry database (PCCDB) project, http://pccdb.org

 28 29  0  0  1  0  0  0  0  0999 V2000
    0.9776    0.1256    0.0530 C   0  0  0  0  0  0  0  0  0  0  0  0
    2.4306   -2.4930    0.5536 C   0  0  0  0  0  0  0  0  0  0  0  0
    6.6818    2.5538    1.1826 C   0  0  0  0  0  0  0  0  0  0  0  0
    7.3742    1.3451    1.2907 C   0  0  0  0  0  0  0  0  0  0  0  0
    5.3090    2.5398    0.9510 C   0  0  0  0  0  0  0  0  0  0  0  0
    6.6815    0.1442    1.1635 C   0  0  0  0  0  0  0  0  0  0  0  0
    3.1017    1.3598    0.6053 C   0  0  0  0  0  0  0  0  0  0  0  0
    4.5865   -1.2077    0.7565 C   0  0  0  0  0  0  0  0  0  0  0  0
    2.5095    0.0414    0.0765 C   0  0  1  0  0  0  0  0  0  0  0  0
    3.0567   -1.1385    0.9112 C   0  0  1  0  0  0  0  0  0  0  0  0
    4.6025    1.3352    0.8229 C   0  0  0  0  0  0  0  0  0  0  0  0
    5.2994    0.1201    0.9272 C   0  0  0  0  0  0  0  0  0  0  0  0
    0.6476    1.0256   -0.4799 H   0  0  0  0  0  0  0  0  0  0  0  0
    0.5705    0.1776    1.0715 H   0  0  0  0  0  0  0  0  0  0  0  0
    0.5248   -0.7369   -0.4460 H   0  0  0  0  0  0  0  0  0  0  0  0
    2.9170   -3.3031    1.1102 H   0  0  0  0  0  0  0  0  0  0  0  0
    2.5485   -2.7108   -0.5162 H   0  0  0  0  0  0  0  0  0  0  0  0
    1.3621   -2.5279    0.7876 H   0  0  0  0  0  0  0  0  0  0  0  0
    7.2093    3.4996    1.2759 H   0  0  0  0  0  0  0  0  0  0  0  0
    8.4454    1.3400    1.4747 H   0  0  0  0  0  0  0  0  0  0  0  0
    4.7669    3.4801    0.8678 H   0  0  0  0  0  0  0  0  0  0  0  0
    7.2179   -0.7993    1.2473 H   0  0  0  0  0  0  0  0  0  0  0  0
    2.6059    1.6031    1.5591 H   0  0  0  0  0  0  0  0  0  0  0  0
    2.8431    2.1801   -0.0777 H   0  0  0  0  0  0  0  0  0  0  0  0
    4.8148   -1.6098   -0.2440 H   0  0  0  0  0  0  0  0  0  0  0  0
    4.9959   -1.9385    1.4669 H   0  0  0  0  0  0  0  0  0  0  0  0
    2.8608   -0.0995   -0.9588 H   0  0  0  0  0  0  0  0  0  0  0  0
    2.8300   -0.9246    1.9684 H   0  0  0  0  0  0  0  0  0  0  0  0
  1  9  1  0  0  0  0
  1 14  1  0  0  0  0
  2 18  1  0  0  0  0
  2 10  1  0  0  0  0
  2 16  1  0  0  0  0
  3 19  1  0  0  0  0
  3  4  1  0  0  0  0
  4 20  1  0  0  0  0
  5  3  2  0  0  0  0
  6 22  1  0  0  0  0
  6  4  2  0  0  0  0
  7 11  1  0  0  0  0
  7 23  1  0  0  0  0
  8 10  1  0  0  0  0
  8 12  1  0  0  0  0
  8 26  1  0  0  0  0
  9 27  1  6  0  0  0
  9  7  1  0  0  0  0
  9 10  1  0  0  0  0
 10 28  1  1  0  0  0
 11 12  2  0  0  0  0
 11  5  1  0  0  0  0
 12  6  1  0  0  0  0
 13  1  1  0  0  0  0
 15  1  1  0  0  0  0
 17  2  1  0  0  0  0
 21  5  1  0  0  0  0
 24  7  1  0  0  0  0
 25  8  1  0  0  0  0
M  END
>  <HBA>
0

>  <HBD>
0

>  <TPSA>
0.0

>  <cid>
30693

>  <dipole>
0.6

>  <excitation_energy_1>
5.155

>  <excitation_energy_2>
5.73

>  <excitation_energy_3>
5.908

>  <excitation_energy_4>
6.086

>  <homo_energy>
-6.199

>  <homo_lumo_gap>
6.346

>  <logP>
3.057

>  <lumo_energy>
0.147

>  <melting_point>
31.91

>  <molecular_refractivity>
53.49

>  <oscillator_strength_1>
0.0094

>  <oscillator_strength_2>
0.0031

>  <oscillator_strength_3>
0.0062

>  <oscillator_strength_4>
0.0088

>  <open_babel_can_smiles>
C[C@H]1Cc2ccccc2C[C@@H]1C

>  <mulliken_charges>
28
1   -0.454718
2   -0.454765
3   -0.130469
4   -0.130805
5   -0.18937
6   -0.189232
7   -0.347321
8   -0.347204
9   -0.074597
10   -0.075238
11   0.121152
12   0.121244
13   0.140856
14   0.138859
15   0.147214
16   0.140897
17   0.138902
18   0.147229
19   0.123418
20   0.123488
21   0.117315
22   0.117333
23   0.145606
24   0.141025
25   0.145638
26   0.141006
27   0.121215
28   0.121322

>  <lowdin_charges>
28
1   -0.446472
2   -0.443477
3   -0.161914
4   -0.158901
5   -0.165588
6   -0.165716
7   -0.276496
8   -0.276615
9   -0.123605
10   -0.12344
11   -0.014754
12   -0.015413
13   0.149778
14   0.145229
15   0.151891
16   0.150318
17   0.144438
18   0.149475
19   0.155178
20   0.153186
21   0.152256
22   0.15222
23   0.149281
24   0.150567
25   0.148754
26   0.150985
27   0.134591
28   0.134246

$$$$

