PCCDB-ID:  44615
public computational chemistry database (PCCDB) project, http://pccdb.org

 35 37  0  0  0  0  0  0  0  0999 V2000
    1.1974   -0.2020    1.2125 C   0  0  0  0  0  0  0  0  0  0  0  0
    2.6472    0.2251    1.3693 C   0  0  0  0  0  0  0  0  0  0  0  0
    9.0062    3.5896    2.5158 C   0  0  0  0  0  0  0  0  0  0  0  0
   10.2797    2.9630    1.9224 C   0  0  0  0  0  0  0  0  0  0  0  0
    7.7280    2.9222    1.9687 C   0  0  0  0  0  0  0  0  0  0  0  0
   10.4110    1.4728    2.2996 C   0  0  0  0  0  0  0  0  0  0  0  0
    5.4771    0.3951    1.6791 C   0  0  0  0  0  0  0  0  0  0  0  0
    6.8807   -2.0722    1.8378 C   0  0  0  0  0  0  0  0  0  0  0  0
    7.8722    1.4263    1.9785 C   0  0  0  0  0  0  0  0  0  0  0  0
    6.8760    0.3940    1.8495 C   0  0  0  0  0  0  0  0  0  0  0  0
    5.4985   -2.0622    1.6650 C   0  0  0  0  0  0  0  0  0  0  0  0
    9.0859    0.7998    2.1232 C   0  0  0  0  0  0  0  0  0  0  0  0
    7.5523   -0.8486    1.9296 C   0  0  0  0  0  0  0  0  0  0  0  0
    4.8065   -0.8155    1.5902 C   0  0  0  0  0  0  0  0  0  0  0  0
    4.7628   -3.2463    1.5052 N   0  0  0  0  0  0  0  0  0  0  0  0
    8.8972   -0.5755    2.1038 N   0  0  0  0  0  0  0  0  0  0  0  0
    3.4410   -0.9518    1.4385 O   0  0  0  0  0  0  0  0  0  0  0  0
    0.5484    0.6783    1.1505 H   0  0  0  0  0  0  0  0  0  0  0  0
    0.8780   -0.8077    2.0669 H   0  0  0  0  0  0  0  0  0  0  0  0
    1.0669   -0.7946    0.3014 H   0  0  0  0  0  0  0  0  0  0  0  0
    2.7837    0.8239    2.2822 H   0  0  0  0  0  0  0  0  0  0  0  0
    2.9673    0.8408    0.5158 H   0  0  0  0  0  0  0  0  0  0  0  0
    8.9854    4.6664    2.3076 H   0  0  0  0  0  0  0  0  0  0  0  0
    9.0311    3.4790    3.6091 H   0  0  0  0  0  0  0  0  0  0  0  0
   11.1677    3.5087    2.2637 H   0  0  0  0  0  0  0  0  0  0  0  0
   10.2504    3.0554    0.8282 H   0  0  0  0  0  0  0  0  0  0  0  0
    7.5321    3.2859    0.9472 H   0  0  0  0  0  0  0  0  0  0  0  0
    6.8618    3.2364    2.5678 H   0  0  0  0  0  0  0  0  0  0  0  0
   10.7558    1.3828    3.3425 H   0  0  0  0  0  0  0  0  0  0  0  0
   11.1851    0.9946    1.6817 H   0  0  0  0  0  0  0  0  0  0  0  0
    4.9370    1.3336    1.6230 H   0  0  0  0  0  0  0  0  0  0  0  0
    7.4129   -3.0195    1.8907 H   0  0  0  0  0  0  0  0  0  0  0  0
    5.1424   -4.0364    2.0129 H   0  0  0  0  0  0  0  0  0  0  0  0
    3.7761   -3.1195    1.6957 H   0  0  0  0  0  0  0  0  0  0  0  0
    9.6316   -1.2640    2.1528 H   0  0  0  0  0  0  0  0  0  0  0  0
  1  2  1  0  0  0  0
  1 19  1  0  0  0  0
  2 17  1  0  0  0  0
  2 21  1  0  0  0  0
  3 24  1  0  0  0  0
  4 25  1  0  0  0  0
  4  6  1  0  0  0  0
  4  3  1  0  0  0  0
  5  9  1  0  0  0  0
  5  3  1  0  0  0  0
  5 28  1  0  0  0  0
  6 29  1  0  0  0  0
  7 10  2  0  0  0  0
  8 32  1  0  0  0  0
  8 13  2  0  0  0  0
  9 12  2  0  0  0  0
 10 13  1  0  0  0  0
 10  9  1  0  0  0  0
 11  8  1  0  0  0  0
 12  6  1  0  0  0  0
 13 16  1  0  0  0  0
 14 11  2  0  0  0  0
 14  7  1  0  0  0  0
 15 11  1  0  0  0  0
 15 34  1  0  0  0  0
 15 33  1  0  0  0  0
 16 12  1  0  0  0  0
 16 35  1  0  0  0  0
 17 14  1  0  0  0  0
 18  1  1  0  0  0  0
 20  1  1  0  0  0  0
 22  2  1  0  0  0  0
 23  3  1  0  0  0  0
 26  4  1  0  0  0  0
 27  5  1  0  0  0  0
 30  6  1  0  0  0  0
 31  7  1  0  0  0  0
M  END
>  <HBA>
2

>  <HBD>
2

>  <TPSA>
51.04

>  <cid>
44615

>  <dipole>
1.33

>  <excitation_energy_1>
4.009

>  <excitation_energy_2>
4.129

>  <excitation_energy_3>
4.303

>  <excitation_energy_4>
4.341

>  <homo_energy>
-4.381

>  <homo_lumo_gap>
4.767

>  <logP>
3.609

>  <lumo_energy>
0.386

>  <melting_point>
181.46

>  <molecular_refractivity>
71.43

>  <oscillator_strength_1>
0.0023

>  <oscillator_strength_2>
0.1484

>  <oscillator_strength_3>
0.0614

>  <oscillator_strength_4>
0.0087

>  <open_babel_can_smiles>
CCOc1cc2c(cc1N)[nH]c1c2CCCC1

>  <mulliken_charges>
35
1   -0.458919
2   -0.015541
3   -0.266301
4   -0.262725
5   -0.333982
6   -0.341847
7   -0.297267
8   -0.243427
9   0.044575
10   0.056277
11   0.245667
12   0.301138
13   0.33551
14   0.349042
15   -0.793898
16   -0.782325
17   -0.554109
18   0.146943
19   0.156463
20   0.162518
21   0.136084
22   0.139026
23   0.128666
24   0.136288
25   0.13024
26   0.140967
27   0.138131
28   0.135568
29   0.14608
30   0.137244
31   0.123697
32   0.106582
33   0.309642
34   0.330753
35   0.313239

>  <lowdin_charges>
35
1   -0.450006
2   -0.123339
3   -0.269305
4   -0.269458
5   -0.26955
6   -0.278517
7   -0.216525
8   -0.231475
9   -0.079852
10   -0.046568
11   0.033614
12   0.004696
13   0.033627
14   0.062599
15   -0.495044
16   -0.219758
17   -0.224145
18   0.156633
19   0.15669
20   0.159208
21   0.135763
22   0.138095
23   0.141045
24   0.139167
25   0.14428
26   0.141732
27   0.14197
28   0.146438
29   0.14592
30   0.148224
31   0.159761
32   0.150423
33   0.270546
34   0.277208
35   0.285907

$$$$

