PCCDB-ID:  16680
public computational chemistry database (PCCDB) project, http://pccdb.org

 31 30  0  0  0  0  0  0  0  0999 V2000
    3.1428   -1.0097    1.5032 C   0  0  0  0  0  0  0  0  0  0  0  0
    8.5152    6.7246   -1.1907 C   0  0  0  0  0  0  0  0  0  0  0  0
    7.2469    1.6455    0.3525 C   0  0  0  0  0  0  0  0  0  0  0  0
    7.1425   -0.2296   -1.3350 C   0  0  0  0  0  0  0  0  0  0  0  0
    3.1058    0.3209    1.6101 C   0  0  0  0  0  0  0  0  0  0  0  0
    7.6837    5.7242   -1.4897 C   0  0  0  0  0  0  0  0  0  0  0  0
    5.2552    1.4484   -1.1973 C   0  0  0  0  0  0  0  0  0  0  0  0
    7.4709    2.0994   -2.1260 C   0  0  0  0  0  0  0  0  0  0  0  0
    3.8069    1.2662    0.7055 C   0  0  0  0  0  0  0  0  0  0  0  0
    8.1915    4.3381   -1.6452 C   0  0  0  0  0  0  0  0  0  0  0  0
    6.7748    1.2398   -1.0549 C   0  0  0  0  0  0  0  0  0  0  0  0
    3.7288    2.4727    0.8234 O   0  0  0  0  0  0  0  0  0  0  0  0
    9.3477    3.9906   -1.5181 O   0  0  0  0  0  0  0  0  0  0  0  0
    4.5291    0.6326   -0.2532 O   0  0  0  0  0  0  0  0  0  0  0  0
    7.1674    3.4995   -1.9582 O   0  0  0  0  0  0  0  0  0  0  0  0
    2.6035   -1.6445    2.2006 H   0  0  0  0  0  0  0  0  0  0  0  0
    3.7087   -1.5007    0.7183 H   0  0  0  0  0  0  0  0  0  0  0  0
    8.1614    7.7441   -1.0717 H   0  0  0  0  0  0  0  0  0  0  0  0
    9.5768    6.5363   -1.0577 H   0  0  0  0  0  0  0  0  0  0  0  0
    6.8084    0.9873    1.1093 H   0  0  0  0  0  0  0  0  0  0  0  0
    6.9544    2.6727    0.5911 H   0  0  0  0  0  0  0  0  0  0  0  0
    8.3372    1.5728    0.4310 H   0  0  0  0  0  0  0  0  0  0  0  0
    6.6393   -0.8913   -0.6239 H   0  0  0  0  0  0  0  0  0  0  0  0
    8.2229   -0.3878   -1.2395 H   0  0  0  0  0  0  0  0  0  0  0  0
    6.8441   -0.5346   -2.3461 H   0  0  0  0  0  0  0  0  0  0  0  0
    2.5379    0.8166    2.3920 H   0  0  0  0  0  0  0  0  0  0  0  0
    6.6174    5.8748   -1.6288 H   0  0  0  0  0  0  0  0  0  0  0  0
    4.9176    1.1282   -2.1898 H   0  0  0  0  0  0  0  0  0  0  0  0
    4.9858    2.4937   -1.0428 H   0  0  0  0  0  0  0  0  0  0  0  0
    7.1144    1.8324   -3.1275 H   0  0  0  0  0  0  0  0  0  0  0  0
    8.5538    1.9644   -2.0836 H   0  0  0  0  0  0  0  0  0  0  0  0
  1  5  2  0  0  0  0
  1 16  1  0  0  0  0
  2 18  1  0  0  0  0
  2 19  1  0  0  0  0
  3 22  1  0  0  0  0
  3 21  1  0  0  0  0
  3 20  1  0  0  0  0
  4 24  1  0  0  0  0
  4 11  1  0  0  0  0
  4 23  1  0  0  0  0
  5 26  1  0  0  0  0
  6  2  2  0  0  0  0
  7 11  1  0  0  0  0
  7 29  1  0  0  0  0
  7 14  1  0  0  0  0
  8 31  1  0  0  0  0
  8 15  1  0  0  0  0
  8 11  1  0  0  0  0
  9 12  2  0  0  0  0
  9  5  1  0  0  0  0
 10 13  2  0  0  0  0
 10  6  1  0  0  0  0
 11  3  1  0  0  0  0
 14  9  1  0  0  0  0
 15 10  1  0  0  0  0
 17  1  1  0  0  0  0
 25  4  1  0  0  0  0
 27  6  1  0  0  0  0
 28  7  1  0  0  0  0
 30  8  1  0  0  0  0
M  END
>  <HBA>
4

>  <HBD>
0

>  <TPSA>
52.6

>  <cid>
16680

>  <dipole>
1.89

>  <excitation_energy_1>
4.73

>  <excitation_energy_2>
4.81

>  <excitation_energy_3>
5.733

>  <excitation_energy_4>
5.752

>  <homo_energy>
-7.47

>  <homo_lumo_gap>
6.182

>  <logP>
1.471

>  <lumo_energy>
-1.287

>  <melting_point>
-27.51

>  <molecular_refractivity>
56.35

>  <oscillator_strength_1>
0.0

>  <oscillator_strength_2>
0.0

>  <oscillator_strength_3>
0.0034

>  <oscillator_strength_4>
0.0398

>  <open_babel_can_smiles>
C=CC(=O)OCC(COC(=O)C=C)(C)C

>  <mulliken_charges>
31
1   -0.311749
2   -0.301576
3   -0.467249
4   -0.458423
5   -0.132012
6   -0.134828
7   -0.056756
8   -0.060625
9   0.615906
10   0.61365
11   0.053729
12   -0.482007
13   -0.487794
14   -0.487794
15   -0.485084
16   0.159097
17   0.175194
18   0.159348
19   0.181048
20   0.152692
21   0.163799
22   0.15516
23   0.163324
24   0.14996
25   0.139439
26   0.159579
27   0.158802
28   0.140876
29   0.194523
30   0.145758
31   0.184016

>  <lowdin_charges>
31
1   -0.27844
2   -0.260451
3   -0.446962
4   -0.444055
5   -0.178614
6   -0.183455
7   -0.137778
8   -0.133312
9   0.191732
10   0.195694
11   -0.006554
12   -0.261564
13   -0.269068
14   -0.194348
15   -0.19523
16   0.170746
17   0.176002
18   0.169032
19   0.178108
20   0.156542
21   0.159088
22   0.155157
23   0.161283
24   0.151591
25   0.146948
26   0.175693
27   0.170717
28   0.146638
29   0.169892
30   0.148482
31   0.166486

$$$$

