PCCDB-ID:  18785
public computational chemistry database (PCCDB) project, http://pccdb.org

 36 36  0  0  1  0  0  0  0  0999 V2000
    2.6152    1.4437   -1.4919 C   0  0  0  0  0  0  0  0  0  0  0  0
    2.9472    3.5878    1.5336 C   0  0  0  0  0  0  0  0  0  0  0  0
    9.1048    0.2447   -1.0789 C   0  0  0  0  0  0  0  0  0  0  0  0
    2.6873    0.5894   -0.2204 C   0  0  0  0  0  0  0  0  0  0  0  0
    2.7186    2.0973    1.8036 C   0  0  0  0  0  0  0  0  0  0  0  0
    6.5061   -2.2731   -0.0287 C   0  0  0  0  0  0  0  0  0  0  0  0
    5.5958   -1.3646    0.8064 C   0  0  0  0  0  0  0  0  0  0  0  0
    7.8927   -1.6493   -0.2064 C   0  0  0  0  0  0  0  0  0  0  0  0
    7.0055    0.5853    0.0549 C   0  0  0  0  0  0  0  0  0  0  0  0
    5.5670    0.0633    0.2156 C   0  0  2  0  0  0  0  0  0  0  0  0
    4.7720    1.0005    1.1297 C   0  0  0  0  0  0  0  0  0  0  0  0
    7.7919   -0.3134   -0.7924 N   0  0  0  0  0  0  0  0  0  0  0  0
    3.4339    1.2003    0.8820 N   0  0  0  0  0  0  0  0  0  0  0  0
    5.3223    1.5417    2.0898 O   0  0  0  0  0  0  0  0  0  0  0  0
    2.0556    0.9156   -2.2730 H   0  0  0  0  0  0  0  0  0  0  0  0
    3.6177    1.6603   -1.8765 H   0  0  0  0  0  0  0  0  0  0  0  0
    2.1134    2.3980   -1.3024 H   0  0  0  0  0  0  0  0  0  0  0  0
    2.4087    4.1890    2.2759 H   0  0  0  0  0  0  0  0  0  0  0  0
    2.5935    3.8811    0.5393 H   0  0  0  0  0  0  0  0  0  0  0  0
    4.0118    3.8225    1.6120 H   0  0  0  0  0  0  0  0  0  0  0  0
    9.6481   -0.4206   -1.7594 H   0  0  0  0  0  0  0  0  0  0  0  0
    9.7267    0.3893   -0.1731 H   0  0  0  0  0  0  0  0  0  0  0  0
    8.9941    1.2178   -1.5702 H   0  0  0  0  0  0  0  0  0  0  0  0
    3.1201   -0.3868   -0.4513 H   0  0  0  0  0  0  0  0  0  0  0  0
    1.6730    0.3892    0.1447 H   0  0  0  0  0  0  0  0  0  0  0  0
    1.6528    1.8550    1.7322 H   0  0  0  0  0  0  0  0  0  0  0  0
    3.0523    1.8620    2.8179 H   0  0  0  0  0  0  0  0  0  0  0  0
    6.0614   -2.4333   -1.0196 H   0  0  0  0  0  0  0  0  0  0  0  0
    6.6030   -3.2563    0.4485 H   0  0  0  0  0  0  0  0  0  0  0  0
    5.9717   -1.3000    1.8363 H   0  0  0  0  0  0  0  0  0  0  0  0
    4.5825   -1.7826    0.8653 H   0  0  0  0  0  0  0  0  0  0  0  0
    8.5019   -2.2717   -0.8731 H   0  0  0  0  0  0  0  0  0  0  0  0
    8.4128   -1.6221    0.7751 H   0  0  0  0  0  0  0  0  0  0  0  0
    7.4537    0.7192    1.0553 H   0  0  0  0  0  0  0  0  0  0  0  0
    6.9859    1.5734   -0.4206 H   0  0  0  0  0  0  0  0  0  0  0  0
    5.1297    0.0180   -0.7871 H   0  0  0  0  0  0  0  0  0  0  0  0
  1 17  1  0  0  0  0
  1  4  1  0  0  0  0
  2 20  1  0  0  0  0
  2  5  1  0  0  0  0
  2 18  1  0  0  0  0
  3 12  1  0  0  0  0
  3 22  1  0  0  0  0
  4 25  1  0  0  0  0
  4 13  1  0  0  0  0
  5 27  1  0  0  0  0
  6 29  1  0  0  0  0
  6  7  1  0  0  0  0
  7 31  1  0  0  0  0
  7 30  1  0  0  0  0
  8  6  1  0  0  0  0
  8 33  1  0  0  0  0
  9 10  1  0  0  0  0
  9 34  1  0  0  0  0
 10 36  1  6  0  0  0
 10  7  1  0  0  0  0
 10 11  1  0  0  0  0
 11 14  2  0  0  0  0
 12  8  1  0  0  0  0
 12  9  1  0  0  0  0
 13 11  1  0  0  0  0
 13  5  1  0  0  0  0
 15  1  1  0  0  0  0
 16  1  1  0  0  0  0
 19  2  1  0  0  0  0
 21  3  1  0  0  0  0
 23  3  1  0  0  0  0
 24  4  1  0  0  0  0
 26  5  1  0  0  0  0
 28  6  1  0  0  0  0
 32  8  1  0  0  0  0
 35  9  1  0  0  0  0
M  END
>  <HBA>
3

>  <HBD>
0

>  <TPSA>
23.55

>  <cid>
18785

>  <dipole>
2.94

>  <excitation_energy_1>
5.112

>  <excitation_energy_2>
5.242

>  <excitation_energy_3>
5.483

>  <excitation_energy_4>
5.542

>  <homo_energy>
-5.587

>  <homo_lumo_gap>
6.414

>  <logP>
1.135

>  <lumo_energy>
0.827

>  <melting_point>
19.36

>  <molecular_refractivity>
62.78

>  <oscillator_strength_1>
0.0061

>  <oscillator_strength_2>
0.0053

>  <oscillator_strength_3>
0.0231

>  <oscillator_strength_4>
0.0124

>  <open_babel_can_smiles>
CCN(C(=O)[C@@H]1CCCN(C1)C)CC

>  <mulliken_charges>
36
1   -0.442238
2   -0.447547
3   -0.289909
4   -0.153142
5   -0.13203
6   -0.262541
7   -0.275229
8   -0.114893
9   -0.11739
10   -0.193532
11   0.610032
12   -0.391736
13   -0.423579
14   -0.542538
15   0.146863
16   0.159558
17   0.157171
18   0.142235
19   0.1404
20   0.180926
21   0.144637
22   0.119718
23   0.146494
24   0.162638
25   0.14953
26   0.131522
27   0.175333
28   0.137479
29   0.133868
30   0.154239
31   0.134111
32   0.133846
33   0.108433
34   0.14369
35   0.135237
36   0.138342

>  <lowdin_charges>
36
1   -0.45588
2   -0.452765
3   -0.356441
4   -0.195877
5   -0.19002
6   -0.279086
7   -0.27369
8   -0.200602
9   -0.197471
10   -0.161721
11   0.161992
12   -0.190674
13   -0.106312
14   -0.325506
15   0.155293
16   0.15469
17   0.154101
18   0.153512
19   0.144147
20   0.165721
21   0.149264
22   0.122098
23   0.148474
24   0.154388
25   0.148492
26   0.14023
27   0.163777
28   0.143232
29   0.146877
30   0.150652
31   0.14178
32   0.145648
33   0.11395
34   0.134579
35   0.145235
36   0.147912

$$$$

