PCCDB-ID:  66550
public computational chemistry database (PCCDB) project, http://pccdb.org

 28 29  0  0  0  0  0  0  0  0999 V2000
    1.3862    0.9586   -0.4550 C   0  0  0  0  0  0  0  0  0  0  0  0
    7.7017   -0.8303    0.1812 C   0  0  0  0  0  0  0  0  0  0  0  0
    6.9073   -1.9961    0.0846 C   0  0  0  0  0  0  0  0  0  0  0  0
    7.1054    0.4086    0.1315 C   0  0  0  0  0  0  0  0  0  0  0  0
    5.5385   -1.9052   -0.0465 C   0  0  0  0  0  0  0  0  0  0  0  0
    3.7133    1.9096   -0.2384 C   0  0  0  0  0  0  0  0  0  0  0  0
    5.0730    1.8072   -0.0852 C   0  0  0  0  0  0  0  0  0  0  0  0
    2.5945   -1.7551   -0.2546 C   0  0  0  0  0  0  0  0  0  0  0  0
    2.8818    0.7577   -0.3037 C   0  0  0  0  0  0  0  0  0  0  0  0
    5.6982    0.5363   -0.0091 C   0  0  0  0  0  0  0  0  0  0  0  0
    4.8845   -0.6414   -0.0874 C   0  0  0  0  0  0  0  0  0  0  0  0
    3.4590   -0.5081   -0.2129 C   0  0  0  0  0  0  0  0  0  0  0  0
    2.5547   -2.4745   -1.6109 C   0  0  0  0  0  0  0  0  0  0  0  0
    2.3824   -3.7170   -1.8074 N   0  0  0  0  0  0  0  0  0  0  0  0
    2.6439   -1.6643   -2.6973 O   0  0  0  0  0  0  0  0  0  0  0  0
    1.1529    2.0176   -0.5972 H   0  0  0  0  0  0  0  0  0  0  0  0
    0.8362    0.6196    0.4323 H   0  0  0  0  0  0  0  0  0  0  0  0
    0.9787    0.4130   -1.3142 H   0  0  0  0  0  0  0  0  0  0  0  0
    8.7795   -0.9166    0.2869 H   0  0  0  0  0  0  0  0  0  0  0  0
    7.3812   -2.9735    0.1079 H   0  0  0  0  0  0  0  0  0  0  0  0
    7.7052    1.3135    0.1939 H   0  0  0  0  0  0  0  0  0  0  0  0
    4.9579   -2.8159   -0.1450 H   0  0  0  0  0  0  0  0  0  0  0  0
    3.2491    2.8901   -0.3053 H   0  0  0  0  0  0  0  0  0  0  0  0
    5.6896    2.7010   -0.0290 H   0  0  0  0  0  0  0  0  0  0  0  0
    1.5610   -1.4938   -0.0039 H   0  0  0  0  0  0  0  0  0  0  0  0
    2.9171   -2.4731    0.5056 H   0  0  0  0  0  0  0  0  0  0  0  0
    2.2976   -4.2016   -0.9121 H   0  0  0  0  0  0  0  0  0  0  0  0
    2.9533   -0.7894   -2.4044 H   0  0  0  0  0  0  0  0  0  0  0  0
  1  9  1  0  0  0  0
  1 17  1  0  0  0  0
  2 19  1  0  0  0  0
  3 20  1  0  0  0  0
  3  2  1  0  0  0  0
  4  2  2  0  0  0  0
  4 21  1  0  0  0  0
  5  3  2  0  0  0  0
  6  7  1  0  0  0  0
  7 24  1  0  0  0  0
  7 10  2  0  0  0  0
  8 12  1  0  0  0  0
  8 25  1  0  0  0  0
  8 26  1  0  0  0  0
  9  6  2  0  0  0  0
  9 12  1  0  0  0  0
 10  4  1  0  0  0  0
 11  5  1  0  0  0  0
 11 10  1  0  0  0  0
 12 11  2  0  0  0  0
 13  8  1  0  0  0  0
 14 13  2  0  0  0  0
 14 27  1  0  0  0  0
 15 28  1  0  0  0  0
 15 13  1  0  0  0  0
 16  1  1  0  0  0  0
 18  1  1  0  0  0  0
 22  5  1  0  0  0  0
 23  6  1  0  0  0  0
M  END
>  <HBA>
2

>  <HBD>
1

>  <TPSA>
43.09

>  <cid>
66550

>  <dipole>
4.64

>  <excitation_energy_1>
4.19

>  <excitation_energy_2>
4.357

>  <excitation_energy_3>
5.042

>  <excitation_energy_4>
5.066

>  <homo_energy>
-6.049

>  <homo_lumo_gap>
4.637

>  <logP>
2.876

>  <lumo_energy>
-1.412

>  <melting_point>
132.3

>  <molecular_refractivity>
61.59

>  <oscillator_strength_1>
0.0954

>  <oscillator_strength_2>
0.0041

>  <oscillator_strength_3>
0.0099

>  <oscillator_strength_4>
0.0006

>  <open_babel_can_smiles>
OC(=N)Cc1c(C)ccc2c1cccc2

>  <mulliken_charges>
28
1   -0.544606
2   -0.130967
3   -0.134348
4   -0.195059
5   -0.192459
6   -0.184211
7   -0.185432
8   -0.444836
9   0.114309
10   0.142564
11   0.103437
12   -0.036434
13   0.49434
14   -0.587392
15   -0.580408
16   0.163673
17   0.171578
18   0.168526
19   0.135098
20   0.13726
21   0.133886
22   0.141556
23   0.12996
24   0.135763
25   0.183148
26   0.166118
27   0.27992
28   0.415017

>  <lowdin_charges>
28
1   -0.449862
2   -0.152999
3   -0.149478
4   -0.15409
5   -0.164127
6   -0.16825
7   -0.149733
8   -0.31452
9   -0.015013
10   -0.000537
11   -0.005196
12   -0.043192
13   0.120729
14   -0.400621
15   -0.361271
16   0.160583
17   0.164625
18   0.163084
19   0.159342
20   0.162049
21   0.159937
22   0.165058
23   0.158735
24   0.161573
25   0.175561
26   0.167222
27   0.253398
28   0.356992

$$$$

