PCCDB-ID:  38665
public computational chemistry database (PCCDB) project, http://pccdb.org

 25 24  0  0  0  0  0  0  0  0999 V2000
    0.8396   -0.3307   -2.3850 C   0  0  0  0  0  0  0  0  0  0  0  0
    7.1188   -2.0236    1.6239 C   0  0  0  0  0  0  0  0  0  0  0  0
    2.3707   -0.2789   -2.3927 C   0  0  0  0  0  0  0  0  0  0  0  0
    6.6164   -1.5072    0.2715 C   0  0  0  0  0  0  0  0  0  0  0  0
    2.9998   -1.0073   -1.1991 C   0  0  0  0  0  0  0  0  0  0  0  0
    5.0891   -1.5585    0.1374 C   0  0  0  0  0  0  0  0  0  0  0  0
    4.5382   -1.0116   -1.1984 C   0  0  0  0  0  0  0  0  0  0  0  0
    5.0171   -1.7186   -2.3990 N   0  0  0  0  0  0  0  0  0  0  0  0
    0.4178    0.2009   -3.2459 H   0  0  0  0  0  0  0  0  0  0  0  0
    0.4266    0.1274   -1.4772 H   0  0  0  0  0  0  0  0  0  0  0  0
    0.4771   -1.3657   -2.4248 H   0  0  0  0  0  0  0  0  0  0  0  0
    8.2116   -1.9731    1.6911 H   0  0  0  0  0  0  0  0  0  0  0  0
    6.8228   -3.0677    1.7839 H   0  0  0  0  0  0  0  0  0  0  0  0
    6.7060   -1.4336    2.4513 H   0  0  0  0  0  0  0  0  0  0  0  0
    2.7011    0.7699   -2.3861 H   0  0  0  0  0  0  0  0  0  0  0  0
    2.7609   -0.7157   -3.3183 H   0  0  0  0  0  0  0  0  0  0  0  0
    7.0781   -2.0980   -0.5317 H   0  0  0  0  0  0  0  0  0  0  0  0
    6.9580   -0.4720    0.1255 H   0  0  0  0  0  0  0  0  0  0  0  0
    2.6460   -2.0509   -1.1785 H   0  0  0  0  0  0  0  0  0  0  0  0
    2.6469   -0.5518   -0.2628 H   0  0  0  0  0  0  0  0  0  0  0  0
    4.6417   -0.9882    0.9649 H   0  0  0  0  0  0  0  0  0  0  0  0
    4.7460   -2.5979    0.2643 H   0  0  0  0  0  0  0  0  0  0  0  0
    4.8800    0.0296   -1.3029 H   0  0  0  0  0  0  0  0  0  0  0  0
    4.8132   -2.7151   -2.3068 H   0  0  0  0  0  0  0  0  0  0  0  0
    6.0301   -1.6434   -2.4712 H   0  0  0  0  0  0  0  0  0  0  0  0
  1 10  1  0  0  0  0
  2 12  1  0  0  0  0
  2 13  1  0  0  0  0
  2 14  1  0  0  0  0
  3 15  1  0  0  0  0
  3  1  1  0  0  0  0
  3  5  1  0  0  0  0
  4  2  1  0  0  0  0
  5  7  1  0  0  0  0
  5 19  1  0  0  0  0
  5 20  1  0  0  0  0
  6 22  1  0  0  0  0
  6  4  1  0  0  0  0
  6 21  1  0  0  0  0
  7  6  1  0  0  0  0
  8 24  1  0  0  0  0
  8  7  1  0  0  0  0
  9  1  1  0  0  0  0
 11  1  1  0  0  0  0
 16  3  1  0  0  0  0
 17  4  1  0  0  0  0
 18  4  1  0  0  0  0
 23  7  1  0  0  0  0
 25  8  1  0  0  0  0
M  END
>  <HBA>
1

>  <HBD>
1

>  <TPSA>
26.02

>  <cid>
38665

>  <dipole>
1.37

>  <excitation_energy_1>
5.747

>  <excitation_energy_2>
6.207

>  <excitation_energy_3>
6.424

>  <excitation_energy_4>
6.5

>  <homo_energy>
-6.202

>  <homo_lumo_gap>
8.278

>  <logP>
2.614

>  <lumo_energy>
2.076

>  <melting_point>
27.02

>  <molecular_refractivity>
38.47

>  <oscillator_strength_1>
0.038

>  <oscillator_strength_2>
0.0062

>  <oscillator_strength_3>
0.0084

>  <oscillator_strength_4>
0.0027

>  <open_babel_can_smiles>
CCCC(CCC)N

>  <mulliken_charges>
25
1   -0.442653
2   -0.440715
3   -0.243772
4   -0.252898
5   -0.243122
6   -0.248957
7   0.018726
8   -0.712098
9   0.140054
10   0.136072
11   0.137757
12   0.142221
13   0.141852
14   0.143377
15   0.122884
16   0.159513
17   0.118525
18   0.131042
19   0.11665
20   0.124142
21   0.12549
22   0.117533
23   0.123431
24   0.28633
25   0.29862

>  <lowdin_charges>
25
1   -0.445268
2   -0.440854
3   -0.272422
4   -0.277025
5   -0.276143
6   -0.292214
7   -0.065823
8   -0.545434
9   0.149049
10   0.143368
11   0.143161
12   0.147383
13   0.145465
14   0.148014
15   0.135158
16   0.154077
17   0.133862
18   0.137784
19   0.132618
20   0.139153
21   0.141602
22   0.132866
23   0.133659
24   0.246645
25   0.25132

$$$$

