PCCDB-ID:  8031
public computational chemistry database (PCCDB) project, http://pccdb.org

 28 27  0  0  0  0  0  0  0  0999 V2000
    2.7769   -0.5207   -1.2776 C   0  0  0  0  0  0  0  0  0  0  0  0
    0.8065    0.6565   -0.2359 C   0  0  0  0  0  0  0  0  0  0  0  0
    4.2312   -0.3983    3.9413 C   0  0  0  0  0  0  0  0  0  0  0  0
    2.2268    0.7208    4.9816 C   0  0  0  0  0  0  0  0  0  0  0  0
    2.6782   -0.3065    1.2264 C   0  0  0  0  0  0  0  0  0  0  0  0
    2.3351    0.5118    2.4777 C   0  0  0  0  0  0  0  0  0  0  0  0
    2.3104    0.3650   -0.1111 C   0  0  0  0  0  0  0  0  0  0  0  0
    2.7196   -0.1505    3.8150 C   0  0  0  0  0  0  0  0  0  0  0  0
    3.0475    1.6030   -0.1317 O   0  0  0  0  0  0  0  0  0  0  0  0
    2.0182   -1.4090    3.8344 O   0  0  0  0  0  0  0  0  0  0  0  0
    2.2635   -1.4892   -1.2765 H   0  0  0  0  0  0  0  0  0  0  0  0
    3.8554   -0.6987   -1.2120 H   0  0  0  0  0  0  0  0  0  0  0  0
    2.5694   -0.0357   -2.2408 H   0  0  0  0  0  0  0  0  0  0  0  0
    0.2123   -0.2595   -0.1386 H   0  0  0  0  0  0  0  0  0  0  0  0
    0.5819    1.0940   -1.2180 H   0  0  0  0  0  0  0  0  0  0  0  0
    0.4782    1.3654    0.5293 H   0  0  0  0  0  0  0  0  0  0  0  0
    4.7978    0.5357    3.8511 H   0  0  0  0  0  0  0  0  0  0  0  0
    4.5825   -1.0925    3.1729 H   0  0  0  0  0  0  0  0  0  0  0  0
    4.4665   -0.8347    4.9213 H   0  0  0  0  0  0  0  0  0  0  0  0
    2.7075    1.7060    4.9779 H   0  0  0  0  0  0  0  0  0  0  0  0
    2.4528    0.2445    5.9450 H   0  0  0  0  0  0  0  0  0  0  0  0
    1.1428    0.8625    4.9182 H   0  0  0  0  0  0  0  0  0  0  0  0
    2.1836   -1.2823    1.2823 H   0  0  0  0  0  0  0  0  0  0  0  0
    3.7578   -0.4967    1.1949 H   0  0  0  0  0  0  0  0  0  0  0  0
    1.2537    0.6911    2.5144 H   0  0  0  0  0  0  0  0  0  0  0  0
    2.8199    1.4922    2.4151 H   0  0  0  0  0  0  0  0  0  0  0  0
    2.8282    2.0563   -0.9614 H   0  0  0  0  0  0  0  0  0  0  0  0
    2.2472   -1.8547    4.6655 H   0  0  0  0  0  0  0  0  0  0  0  0
  1 11  1  0  0  0  0
  1 12  1  0  0  0  0
  1  7  1  0  0  0  0
  2 14  1  0  0  0  0
  2  7  1  0  0  0  0
  2 16  1  0  0  0  0
  3 19  1  0  0  0  0
  4 21  1  0  0  0  0
  5 23  1  0  0  0  0
  5  6  1  0  0  0  0
  6 25  1  0  0  0  0
  6  8  1  0  0  0  0
  7  5  1  0  0  0  0
  8 10  1  0  0  0  0
  8  3  1  0  0  0  0
  8  4  1  0  0  0  0
  9  7  1  0  0  0  0
 10 28  1  0  0  0  0
 13  1  1  0  0  0  0
 15  2  1  0  0  0  0
 17  3  1  0  0  0  0
 18  3  1  0  0  0  0
 20  4  1  0  0  0  0
 22  4  1  0  0  0  0
 24  5  1  0  0  0  0
 26  6  1  0  0  0  0
 27  9  1  0  0  0  0
M  END
>  <HBA>
2

>  <HBD>
2

>  <TPSA>
40.46

>  <cid>
8031

>  <dipole>
0.03

>  <excitation_energy_1>
6.36

>  <excitation_energy_2>
6.393

>  <excitation_energy_3>
6.936

>  <excitation_energy_4>
6.957

>  <homo_energy>
-6.958

>  <homo_lumo_gap>
8.746

>  <logP>
1.308

>  <lumo_energy>
1.788

>  <melting_point>
31.39

>  <molecular_refractivity>
42.97

>  <oscillator_strength_1>
0.0

>  <oscillator_strength_2>
0.0408

>  <oscillator_strength_3>
0.0022

>  <oscillator_strength_4>
0.0

>  <open_babel_can_smiles>
CC(CCC(O)(C)C)(O)C

>  <mulliken_charges>
28
1   -0.452581
2   -0.462394
3   -0.461632
4   -0.453097
5   -0.262929
6   -0.264219
7   0.30295
8   0.303144
9   -0.639931
10   -0.63999
11   0.141889
12   0.151838
13   0.12529
14   0.145896
15   0.125859
16   0.158201
17   0.145997
18   0.158153
19   0.12575
20   0.141948
21   0.125417
22   0.151831
23   0.150821
24   0.134121
25   0.13368
26   0.150891
27   0.381534
28   0.381562

>  <lowdin_charges>
28
1   -0.453334
2   -0.461353
3   -0.461105
4   -0.453236
5   -0.277609
6   -0.277796
7   0.125528
8   0.125722
9   -0.469018
10   -0.46901
11   0.151635
12   0.152996
13   0.141297
14   0.154564
15   0.141836
16   0.15742
17   0.154497
18   0.15741
19   0.141812
20   0.151509
21   0.141327
22   0.152843
23   0.154409
24   0.144446
25   0.144103
26   0.154325
27   0.337381
28   0.3374

$$$$

