PCCDB-ID:  70019
public computational chemistry database (PCCDB) project, http://pccdb.org

 26 26  0  0  0  0  0  0  0  0999 V2000
    2.6802   -0.7792   -0.3575 C   0  0  0  0  0  0  0  0  0  0  0  0
    3.7705    5.1010   -2.4807 C   0  0  0  0  0  0  0  0  0  0  0  0
    5.5452   -1.6442   -4.3204 C   0  0  0  0  0  0  0  0  0  0  0  0
    3.5947    2.3589   -1.9641 C   0  0  0  0  0  0  0  0  0  0  0  0
    4.1926    0.0787   -2.5843 C   0  0  0  0  0  0  0  0  0  0  0  0
    5.7897    2.5356   -5.0523 C   0  0  0  0  0  0  0  0  0  0  0  0
    3.5325    0.9776   -1.7430 C   0  0  0  0  0  0  0  0  0  0  0  0
    5.0230    1.9663   -3.9277 C   0  0  0  0  0  0  0  0  0  0  0  0
    4.3315    2.8393   -3.0419 C   0  0  0  0  0  0  0  0  0  0  0  0
    4.9329    0.5747   -3.6680 C   0  0  0  0  0  0  0  0  0  0  0  0
    6.4302    1.9156   -5.8860 O   0  0  0  0  0  0  0  0  0  0  0  0
    2.7911    0.6031   -0.6665 O   0  0  0  0  0  0  0  0  0  0  0  0
    4.4387    4.1679   -3.3171 O   0  0  0  0  0  0  0  0  0  0  0  0
    5.5947   -0.2402   -4.5173 O   0  0  0  0  0  0  0  0  0  0  0  0
    2.0573   -0.8339    0.5368 H   0  0  0  0  0  0  0  0  0  0  0  0
    3.6609   -1.2233   -0.1448 H   0  0  0  0  0  0  0  0  0  0  0  0
    2.1971   -1.3353   -1.1709 H   0  0  0  0  0  0  0  0  0  0  0  0
    3.9913    6.0836   -2.9009 H   0  0  0  0  0  0  0  0  0  0  0  0
    4.1423    5.0532   -1.4496 H   0  0  0  0  0  0  0  0  0  0  0  0
    2.6855    4.9381   -2.4842 H   0  0  0  0  0  0  0  0  0  0  0  0
    4.5186   -2.0267   -4.3908 H   0  0  0  0  0  0  0  0  0  0  0  0
    5.9763   -1.9326   -3.3528 H   0  0  0  0  0  0  0  0  0  0  0  0
    6.1457   -2.0711   -5.1251 H   0  0  0  0  0  0  0  0  0  0  0  0
    3.0647    3.0098   -1.2824 H   0  0  0  0  0  0  0  0  0  0  0  0
    4.1390   -0.9840   -2.4019 H   0  0  0  0  0  0  0  0  0  0  0  0
    5.7468    3.6398   -5.0990 H   0  0  0  0  0  0  0  0  0  0  0  0
  1 16  1  0  0  0  0
  1 15  1  0  0  0  0
  2 19  1  0  0  0  0
  3 22  1  0  0  0  0
  4  7  1  0  0  0  0
  4 24  1  0  0  0  0
  5 25  1  0  0  0  0
  5  7  2  0  0  0  0
  6  8  1  0  0  0  0
  7 12  1  0  0  0  0
  8 10  2  0  0  0  0
  8  9  1  0  0  0  0
  9  4  2  0  0  0  0
 10  5  1  0  0  0  0
 11  6  2  0  0  0  0
 12  1  1  0  0  0  0
 13  9  1  0  0  0  0
 13  2  1  0  0  0  0
 14  3  1  0  0  0  0
 14 10  1  0  0  0  0
 17  1  1  0  0  0  0
 18  2  1  0  0  0  0
 20  2  1  0  0  0  0
 21  3  1  0  0  0  0
 23  3  1  0  0  0  0
 26  6  1  0  0  0  0
M  END
>  <HBA>
4

>  <HBD>
0

>  <TPSA>
44.76

>  <cid>
70019

>  <dipole>
5.62

>  <excitation_energy_1>
3.493

>  <excitation_energy_2>
4.33

>  <excitation_energy_3>
4.692

>  <excitation_energy_4>
5.398

>  <homo_energy>
-5.886

>  <homo_lumo_gap>
4.963

>  <logP>
1.525

>  <lumo_energy>
-0.922

>  <melting_point>
55.41

>  <molecular_refractivity>
51.31

>  <oscillator_strength_1>
0.0002

>  <oscillator_strength_2>
0.0555

>  <oscillator_strength_3>
0.3242

>  <oscillator_strength_4>
0.0002

>  <open_babel_can_smiles>
COc1cc(OC)cc(c1C=O)OC

>  <mulliken_charges>
26
1   -0.217102
2   -0.215577
3   -0.216719
4   -0.268672
5   -0.28989
6   0.190764
7   0.400788
8   -0.013575
9   0.338787
10   0.338811
11   -0.420666
12   -0.506817
13   -0.511274
14   -0.467239
15   0.174883
16   0.156952
17   0.156874
18   0.175171
19   0.158147
20   0.158187
21   0.151069
22   0.150946
23   0.182754
24   0.141184
25   0.134852
26   0.11736

>  <lowdin_charges>
26
1   -0.278152
2   -0.272946
3   -0.275756
4   -0.267137
5   -0.289399
6   0.036101
7   0.133527
8   -0.128312
9   0.130573
10   0.140876
11   -0.244824
12   -0.188736
13   -0.190332
14   -0.157451
15   0.165939
16   0.148206
17   0.149453
18   0.165225
19   0.147925
20   0.147079
21   0.144461
22   0.145016
23   0.171004
24   0.174858
25   0.167588
26   0.125213

$$$$

