PCCDB-ID:  66031
public computational chemistry database (PCCDB) project, http://pccdb.org

 20 20  0  0  0  0  0  0  0  0999 V2000
    1.3848    0.3401   -0.5477 C   0  0  0  0  0  0  0  0  0  0  0  0
    3.6451    2.8570    1.9959 C   0  0  0  0  0  0  0  0  0  0  0  0
    4.8624    0.9162    2.7203 C   0  0  0  0  0  0  0  0  0  0  0  0
    2.8747    2.0689    1.1374 C   0  0  0  0  0  0  0  0  0  0  0  0
    4.1072    0.1180    1.8720 C   0  0  0  0  0  0  0  0  0  0  0  0
    5.4661    3.1677    3.7359 C   0  0  0  0  0  0  0  0  0  0  0  0
    4.8579    3.3093    5.0680 C   0  0  0  0  0  0  0  0  0  0  0  0
    4.6431    2.2990    2.7950 C   0  0  0  0  0  0  0  0  0  0  0  0
    3.1050    0.6896    1.0735 C   0  0  0  0  0  0  0  0  0  0  0  0
    4.3689    3.4168    6.1154 N   0  0  0  0  0  0  0  0  0  0  0  0
    2.4212   -0.1764    0.2734 O   0  0  0  0  0  0  0  0  0  0  0  0
    0.9753   -0.5166   -1.0856 H   0  0  0  0  0  0  0  0  0  0  0  0
    1.7693    1.0716   -1.2707 H   0  0  0  0  0  0  0  0  0  0  0  0
    0.5909    0.8059    0.0506 H   0  0  0  0  0  0  0  0  0  0  0  0
    3.4554    3.9271    2.0382 H   0  0  0  0  0  0  0  0  0  0  0  0
    5.6336    0.4578    3.3350 H   0  0  0  0  0  0  0  0  0  0  0  0
    2.1098    2.5377    0.5294 H   0  0  0  0  0  0  0  0  0  0  0  0
    4.2743   -0.9525    1.8078 H   0  0  0  0  0  0  0  0  0  0  0  0
    6.4715    2.7490    3.8651 H   0  0  0  0  0  0  0  0  0  0  0  0
    5.5979    4.1723    3.3158 H   0  0  0  0  0  0  0  0  0  0  0  0
  1 14  1  0  0  0  0
  1 11  1  0  0  0  0
  2 15  1  0  0  0  0
  2  8  2  0  0  0  0
  3  8  1  0  0  0  0
  3 16  1  0  0  0  0
  4  2  1  0  0  0  0
  5  3  2  0  0  0  0
  6 19  1  0  0  0  0
  6  7  1  0  0  0  0
  7 10  3  0  0  0  0
  8  6  1  0  0  0  0
  9  4  2  0  0  0  0
  9  5  1  0  0  0  0
 11  9  1  0  0  0  0
 12  1  1  0  0  0  0
 13  1  1  0  0  0  0
 17  4  1  0  0  0  0
 18  5  1  0  0  0  0
 20  6  1  0  0  0  0
M  END
>  <HBA>
2

>  <HBD>
0

>  <TPSA>
33.02

>  <cid>
66031

>  <dipole>
4.61

>  <excitation_energy_1>
4.932

>  <excitation_energy_2>
5.383

>  <excitation_energy_3>
5.633

>  <excitation_energy_4>
5.888

>  <homo_energy>
-6.193

>  <homo_lumo_gap>
5.815

>  <logP>
1.761

>  <lumo_energy>
-0.378

>  <melting_point>
46.5

>  <molecular_refractivity>
42.46

>  <oscillator_strength_1>
0.0264

>  <oscillator_strength_2>
0.0801

>  <oscillator_strength_3>
0.0751

>  <oscillator_strength_4>
0.0072

>  <open_babel_can_smiles>
COc1ccc(cc1)CC#N

>  <mulliken_charges>
20
1   -0.217872
2   -0.177795
3   -0.172572
4   -0.192554
5   -0.169217
6   -0.444914
7   0.367058
8   0.163066
9   0.379065
10   -0.467063
11   -0.504143
12   0.173683
13   0.153397
14   0.156071
15   0.134903
16   0.135757
17   0.137538
18   0.14516
19   0.200309
20   0.200125

>  <lowdin_charges>
20
1   -0.280813
2   -0.146144
3   -0.149864
4   -0.209489
5   -0.174648
6   -0.266371
7   -0.016914
8   -0.024439
9   0.105096
10   -0.128947
11   -0.193808
12   0.166147
13   0.14702
14   0.148679
15   0.158285
16   0.162054
17   0.166414
18   0.168604
19   0.184566
20   0.184572

$$$$

