PCCDB-ID:  1145
public computational chemistry database (PCCDB) project, http://pccdb.org

 14 13  0  0  0  0  0  0  0  0999 V2000
    1.2783    0.0132   -0.1034 C   0  0  0  0  0  0  0  0  0  0  0  0
    3.1074    1.4311    0.7162 C   0  0  0  0  0  0  0  0  0  0  0  0
    3.1315    0.6120   -1.5977 C   0  0  0  0  0  0  0  0  0  0  0  0
    2.7570    0.2759   -0.1805 N   0  0  0  0  0  0  0  0  0  0  0  0
    3.4351   -0.8293    0.2180 O   0  0  0  0  0  0  0  0  0  0  0  0
    0.6875    0.8805   -0.4201 H   0  0  0  0  0  0  0  0  0  0  0  0
    1.0649   -0.2515    0.9319 H   0  0  0  0  0  0  0  0  0  0  0  0
    1.0844   -0.8488   -0.7414 H   0  0  0  0  0  0  0  0  0  0  0  0
    2.5863    2.3511    0.4271 H   0  0  0  0  0  0  0  0  0  0  0  0
    4.1882    1.5543    0.6522 H   0  0  0  0  0  0  0  0  0  0  0  0
    2.8402    1.1294    1.7287 H   0  0  0  0  0  0  0  0  0  0  0  0
    2.6011    1.4977   -1.9661 H   0  0  0  0  0  0  0  0  0  0  0  0
    2.8932   -0.2668   -2.1964 H   0  0  0  0  0  0  0  0  0  0  0  0
    4.2100    0.7686   -1.6039 H   0  0  0  0  0  0  0  0  0  0  0  0
  1  7  1  0  0  0  0
  2 11  1  0  0  0  0
  3  4  1  0  0  0  0
  4  1  1  0  0  0  0
  4  5  1  0  0  0  0
  4  2  1  0  0  0  0
  6  1  1  0  0  0  0
  8  1  1  0  0  0  0
  9  2  1  0  0  0  0
 10  2  1  0  0  0  0
 12  3  1  0  0  0  0
 13  3  1  0  0  0  0
 14  3  1  0  0  0  0
M  RAD  1   5   2
M  END
>  <HBA>
1

>  <HBD>
0

>  <TPSA>
29.43

>  <cid>
1145

>  <dipole>
4.38

>  <excitation_energy_1>
4.701

>  <excitation_energy_2>
4.701

>  <excitation_energy_3>
5.525

>  <excitation_energy_4>
5.526

>  <homo_energy>
-4.928

>  <homo_lumo_gap>
6.653

>  <logP>
0.211

>  <lumo_energy>
1.725

>  <melting_point>
-28.1

>  <molecular_refractivity>
22.8

>  <oscillator_strength_1>
0.0174

>  <oscillator_strength_2>
0.0174

>  <oscillator_strength_3>
0.0001

>  <oscillator_strength_4>
0.0044

>  <open_babel_can_smiles>
C[N]([O])(C)C

>  <mulliken_charges>
14
1   -0.279784
2   -0.279746
3   -0.279826
4   -0.07528
5   -0.585122
6   0.138199
7   0.180765
8   0.180968
9   0.138198
10   0.181082
11   0.180626
12   0.138198
13   0.181075
14   0.180649

>  <lowdin_charges>
14
1   -0.36462
2   -0.362543
3   -0.363499
4   0.206325
5   -0.578168
6   0.145745
7   0.170575
8   0.172291
9   0.145319
10   0.169953
11   0.170754
12   0.145619
13   0.172465
14   0.169783

$$$$

