PCCDB-ID:  20995
public computational chemistry database (PCCDB) project, http://pccdb.org

 24 24  0  0  0  0  0  0  0  0999 V2000
    0.8125    0.2841    0.6127 C   0  0  0  0  0  0  0  0  0  0  0  0
    2.3409    0.1786    0.6070 C   0  0  0  0  0  0  0  0  0  0  0  0
    2.8648   -1.0528    1.3573 C   0  0  0  0  0  0  0  0  0  0  0  0
    4.3945   -1.1600    1.3578 C   0  0  0  0  0  0  0  0  0  0  0  0
    8.5765   -3.2972    1.6262 C   0  0  0  0  0  0  0  0  0  0  0  0
    4.9083   -2.4041    2.1109 C   0  0  0  0  0  0  0  0  0  0  0  0
    7.1710   -3.4507    1.4144 C   0  0  0  0  0  0  0  0  0  0  0  0
    8.8725   -2.2787    2.4864 C   0  0  0  0  0  0  0  0  0  0  0  0
    6.4044   -2.5533    2.1103 C   0  0  0  0  0  0  0  0  0  0  0  0
    7.4313   -1.4889    3.0507 S   0  0  0  0  0  0  0  0  0  0  0  0
    0.4710    1.1715    0.0675 H   0  0  0  0  0  0  0  0  0  0  0  0
    0.4233    0.3522    1.6361 H   0  0  0  0  0  0  0  0  0  0  0  0
    0.3524   -0.5934    0.1418 H   0  0  0  0  0  0  0  0  0  0  0  0
    2.7726    1.0851    1.0544 H   0  0  0  0  0  0  0  0  0  0  0  0
    2.7024    0.1509   -0.4307 H   0  0  0  0  0  0  0  0  0  0  0  0
    2.4349   -1.9609    0.9084 H   0  0  0  0  0  0  0  0  0  0  0  0
    2.5011   -1.0265    2.3955 H   0  0  0  0  0  0  0  0  0  0  0  0
    4.8257   -0.2576    1.8127 H   0  0  0  0  0  0  0  0  0  0  0  0
    4.7672   -1.1897    0.3250 H   0  0  0  0  0  0  0  0  0  0  0  0
    9.3297   -3.9235    1.1598 H   0  0  0  0  0  0  0  0  0  0  0  0
    4.4823   -3.3056    1.6514 H   0  0  0  0  0  0  0  0  0  0  0  0
    4.5301   -2.3793    3.1426 H   0  0  0  0  0  0  0  0  0  0  0  0
    6.7386   -4.2090    0.7686 H   0  0  0  0  0  0  0  0  0  0  0  0
    9.8437   -1.9436    2.8251 H   0  0  0  0  0  0  0  0  0  0  0  0
  1 12  1  0  0  0  0
  2  1  1  0  0  0  0
  2 14  1  0  0  0  0
  2  3  1  0  0  0  0
  3  4  1  0  0  0  0
  3 17  1  0  0  0  0
  4 18  1  0  0  0  0
  4  6  1  0  0  0  0
  5  8  2  0  0  0  0
  6 22  1  0  0  0  0
  7  5  1  0  0  0  0
  7  9  2  0  0  0  0
  8 24  1  0  0  0  0
  8 10  1  0  0  0  0
  9  6  1  0  0  0  0
  9 10  1  0  0  0  0
 11  1  1  0  0  0  0
 13  1  1  0  0  0  0
 15  2  1  0  0  0  0
 16  3  1  0  0  0  0
 19  4  1  0  0  0  0
 20  5  1  0  0  0  0
 21  6  1  0  0  0  0
 23  7  1  0  0  0  0
M  END
>  <HBA>
1

>  <HBD>
0

>  <TPSA>
28.24

>  <cid>
20995

>  <dipole>
0.74

>  <excitation_energy_1>
5.363

>  <excitation_energy_2>
5.491

>  <excitation_energy_3>
5.682

>  <excitation_energy_4>
5.705

>  <homo_energy>
-5.992

>  <homo_lumo_gap>
5.889

>  <logP>
3.481

>  <lumo_energy>
-0.103

>  <melting_point>
3.72

>  <molecular_refractivity>
48.51

>  <oscillator_strength_1>
0.1369

>  <oscillator_strength_2>
0.0243

>  <oscillator_strength_3>
0.0203

>  <oscillator_strength_4>
0.0631

>  <open_babel_can_smiles>
CCCCCc1cccs1

>  <mulliken_charges>
24
1   -0.441709
2   -0.247777
3   -0.247393
4   -0.253135
5   -0.096985
6   -0.323688
7   -0.127102
8   -0.346792
9   -0.11064
10   0.22792
11   0.142839
12   0.141821
13   0.141404
14   0.132651
15   0.132133
16   0.127363
17   0.128395
18   0.142456
19   0.140215
20   0.137143
21   0.150048
22   0.15165
23   0.130955
24   0.168227

>  <lowdin_charges>
24
1   -0.444943
2   -0.270821
3   -0.274839
4   -0.273167
5   -0.184248
6   -0.267616
7   -0.201023
8   -0.324126
9   -0.151277
10   0.291114
11   0.150443
12   0.145673
13   0.146976
14   0.14048
15   0.1387
16   0.137926
17   0.136912
18   0.145719
19   0.143764
20   0.164903
21   0.155254
22   0.152323
23   0.161727
24   0.180144

$$$$

