PCCDB-ID:  66732
public computational chemistry database (PCCDB) project, http://pccdb.org

 21 22  0  0  0  0  0  0  0  0999 V2000
    1.2186    1.4109   -0.0403 C   0  0  0  0  0  0  0  0  0  0  0  0
   -1.2693    1.3705    0.0175 C   0  0  0  0  0  0  0  0  0  0  0  0
    2.4176    0.7449   -0.0853 C   0  0  0  0  0  0  0  0  0  0  0  0
   -2.4493    0.6619    0.0286 C   0  0  0  0  0  0  0  0  0  0  0  0
    1.2623   -1.3879   -0.1058 C   0  0  0  0  0  0  0  0  0  0  0  0
   -1.2184   -1.4333   -0.0522 C   0  0  0  0  0  0  0  0  0  0  0  0
   -0.0167    0.7104   -0.0290 C   0  0  0  0  0  0  0  0  0  0  0  0
    0.0098   -0.7242   -0.0651 C   0  0  0  0  0  0  0  0  0  0  0  0
    2.4534   -0.6806   -0.1195 C   0  0  0  0  0  0  0  0  0  0  0  0
   -2.4194   -0.7560   -0.0065 C   0  0  0  0  0  0  0  0  0  0  0  0
    3.6893   -1.3254   -0.2214 N   0  0  0  0  0  0  0  0  0  0  0  0
   -3.5751   -1.4916    0.0046 O   0  0  0  0  0  0  0  0  0  0  0  0
    1.2043    2.4983   -0.0130 H   0  0  0  0  0  0  0  0  0  0  0  0
   -1.2902    2.4576    0.0432 H   0  0  0  0  0  0  0  0  0  0  0  0
    3.3538    1.2980   -0.1048 H   0  0  0  0  0  0  0  0  0  0  0  0
   -3.4059    1.1805    0.0637 H   0  0  0  0  0  0  0  0  0  0  0  0
    1.2791   -2.4758   -0.1325 H   0  0  0  0  0  0  0  0  0  0  0  0
   -1.2243   -2.5189   -0.0804 H   0  0  0  0  0  0  0  0  0  0  0  0
    4.4679   -0.8194    0.1826 H   0  0  0  0  0  0  0  0  0  0  0  0
    3.6881   -2.2949    0.0713 H   0  0  0  0  0  0  0  0  0  0  0  0
   -4.3311   -0.8853    0.0250 H   0  0  0  0  0  0  0  0  0  0  0  0
  1  7  1  0  0  0  0
  1 13  1  0  0  0  0
  2  4  1  0  0  0  0
  2 14  1  0  0  0  0
  3  1  2  0  0  0  0
  4 16  1  0  0  0  0
  5  8  1  0  0  0  0
  6 10  1  0  0  0  0
  7  2  2  0  0  0  0
  8  6  2  0  0  0  0
  8  7  1  0  0  0  0
  9  5  2  0  0  0  0
  9  3  1  0  0  0  0
 10 12  1  0  0  0  0
 10  4  2  0  0  0  0
 11  9  1  0  0  0  0
 11 20  1  0  0  0  0
 11 19  1  0  0  0  0
 12 21  1  0  0  0  0
 15  3  1  0  0  0  0
 17  5  1  0  0  0  0
 18  6  1  0  0  0  0
M  END
>  <HBA>
2

>  <HBD>
2

>  <TPSA>
46.25

>  <cid>
66732

>  <dipole>
1.57

>  <excitation_energy_1>
3.967

>  <excitation_energy_2>
4.157

>  <excitation_energy_3>
4.628

>  <excitation_energy_4>
4.779

>  <homo_energy>
-5.146

>  <homo_lumo_gap>
4.493

>  <logP>
2.709

>  <lumo_energy>
-0.653

>  <melting_point>
138.78

>  <molecular_refractivity>
50.38

>  <oscillator_strength_1>
0.0475

>  <oscillator_strength_2>
0.0173

>  <oscillator_strength_3>
0.0075

>  <oscillator_strength_4>
0.0024

>  <open_babel_can_smiles>
Nc1ccc2c(c1)cc(cc2)O

>  <mulliken_charges>
21
1   -0.200583
2   -0.199846
3   -0.173519
4   -0.201773
5   -0.262845
6   -0.251341
7   0.135769
8   0.145296
9   0.314865
10   0.354069
11   -0.78995
12   -0.646764
13   0.126571
14   0.128518
15   0.117775
16   0.114841
17   0.112887
18   0.13056
19   0.319111
20   0.320548
21   0.40581

>  <lowdin_charges>
21
1   -0.141732
2   -0.140823
3   -0.197055
4   -0.219129
5   -0.218538
6   -0.204636
7   -0.029806
8   0.021626
9   0.061672
10   0.102548
11   -0.485806
12   -0.381555
13   0.154321
14   0.155123
15   0.153865
16   0.151899
17   0.14916
18   0.161755
19   0.276059
20   0.274274
21   0.356779

$$$$

