PCCDB-ID:  2545
public computational chemistry database (PCCDB) project, http://pccdb.org

 26 28  0  0  1  0  0  0  0  0999 V2000
    1.9113    0.2063    1.4349 C   0  0  0  0  0  0  0  0  0  0  0  0
    3.9176   -2.1081    1.3380 C   0  0  0  0  0  0  0  0  0  0  0  0
   -0.0269   -1.8447   -0.6938 C   0  0  0  0  0  0  0  0  0  0  0  0
    0.7843   -3.2588   -0.8318 C   0  0  0  0  0  0  0  0  0  0  0  0
    1.1272   -0.7366   -0.9718 C   0  0  1  0  0  0  0  0  0  0  0  0
    2.1245   -2.4830   -0.5780 C   0  0  1  0  0  0  0  0  0  0  0  0
    3.1762    0.7262   -0.6860 C   0  0  0  0  0  0  0  0  0  0  0  0
    4.3995   -1.2233   -0.9658 C   0  0  0  0  0  0  0  0  0  0  0  0
    2.3466   -0.3016    0.0682 C   0  0  1  0  0  0  0  0  0  0  0  0
    3.3166   -1.6290    0.0236 C   0  0  2  0  0  0  0  0  0  0  0  0
    2.9471    1.8949   -0.8361 O   0  0  0  0  0  0  0  0  0  0  0  0
    5.2748   -1.8892   -1.4365 O   0  0  0  0  0  0  0  0  0  0  0  0
    1.9379   -1.5763   -1.7416 O   0  0  0  0  0  0  0  0  0  0  0  0
    4.2992    0.1392   -1.2467 O   0  0  0  0  0  0  0  0  0  0  0  0
    2.7602    0.4682    2.0749 H   0  0  0  0  0  0  0  0  0  0  0  0
    1.3080   -0.5446    1.9590 H   0  0  0  0  0  0  0  0  0  0  0  0
    1.3008    1.1066    1.3101 H   0  0  0  0  0  0  0  0  0  0  0  0
    4.5045   -1.3185    1.8195 H   0  0  0  0  0  0  0  0  0  0  0  0
    4.5841   -2.9535    1.1455 H   0  0  0  0  0  0  0  0  0  0  0  0
    3.1381   -2.4272    2.0385 H   0  0  0  0  0  0  0  0  0  0  0  0
   -0.5100   -1.7856    0.2887 H   0  0  0  0  0  0  0  0  0  0  0  0
   -0.7967   -1.7274   -1.4645 H   0  0  0  0  0  0  0  0  0  0  0  0
    0.6911   -3.7270   -1.8131 H   0  0  0  0  0  0  0  0  0  0  0  0
    0.5031   -3.9549   -0.0371 H   0  0  0  0  0  0  0  0  0  0  0  0
    0.7527    0.1409   -1.5108 H   0  0  0  0  0  0  0  0  0  0  0  0
    1.6239   -2.1620    0.3510 H   0  0  0  0  0  0  0  0  0  0  0  0
  1 16  1  0  0  0  0
  1 15  1  0  0  0  0
  2 18  1  0  0  0  0
  2 20  1  0  0  0  0
  3 21  1  0  0  0  0
  4  3  1  0  0  0  0
  4  6  1  0  0  0  0
  4 24  1  0  0  0  0
  5 25  1  6  0  0  0
  5  3  1  0  0  0  0
  5  9  1  0  0  0  0
  6 10  1  0  0  0  0
  6 26  1  1  0  0  0
  7  9  1  0  0  0  0
  8 10  1  0  0  0  0
  9  1  1  1  0  0  0
 10  9  1  0  0  0  0
 10  2  1  1  0  0  0
 11  7  2  0  0  0  0
 12  8  2  0  0  0  0
 13  5  1  0  0  0  0
 13  6  1  0  0  0  0
 14  8  1  0  0  0  0
 14  7  1  0  0  0  0
 17  1  1  0  0  0  0
 19  2  1  0  0  0  0
 22  3  1  0  0  0  0
 23  4  1  0  0  0  0
M  END
>  <HBA>
4

>  <HBD>
0

>  <TPSA>
52.6

>  <cid>
2545

>  <dipole>
6.39

>  <excitation_energy_1>
4.979

>  <excitation_energy_2>
5.083

>  <excitation_energy_3>
5.224

>  <excitation_energy_4>
5.291

>  <homo_energy>
-7.154

>  <homo_lumo_gap>
6.267

>  <logP>
0.644

>  <lumo_energy>
-0.887

>  <melting_point>
100.77

>  <molecular_refractivity>
45.89

>  <oscillator_strength_1>
0.0029

>  <oscillator_strength_2>
0.0012

>  <oscillator_strength_3>
0.0047

>  <oscillator_strength_4>
0.0051

>  <open_babel_can_smiles>
O=C1OC(=O)[C@@]2([C@@]1(C)[C@@H]1CC[C@@H]2O1)C

>  <mulliken_charges>
26
1   -0.468138
2   -0.467072
3   -0.322143
4   -0.275372
5   0.11625
6   0.092701
7   0.636254
8   0.658741
9   -0.09155
10   -0.085509
11   -0.44184
12   -0.431596
13   -0.479631
14   -0.445355
15   0.164339
16   0.152047
17   0.184763
18   0.166236
19   0.193585
20   0.155662
21   0.150728
22   0.163495
23   0.17604
24   0.153369
25   0.160974
26   0.183022

>  <lowdin_charges>
26
1   -0.443487
2   -0.440245
3   -0.30143
4   -0.258596
5   -0.015245
6   -0.043325
7   0.201459
8   0.21261
9   -0.052286
10   -0.014829
11   -0.206117
12   -0.195044
13   -0.266282
14   -0.142415
15   0.162129
16   0.154157
17   0.175382
18   0.164282
19   0.178875
20   0.158433
21   0.148722
22   0.161199
23   0.163226
24   0.15587
25   0.157381
26   0.185578

$$$$

