PCCDB-ID:  27547
public computational chemistry database (PCCDB) project, http://pccdb.org

 31 33  0  0  0  0  0  0  0  0999 V2000
    0.9096    0.0931   -0.4807 C   0  0  0  0  0  0  0  0  0  0  0  0
    4.4989   -1.1147    0.2062 C   0  0  0  0  0  0  0  0  0  0  0  0
    3.1121   -1.1108   -0.0468 C   0  0  0  0  0  0  0  0  0  0  0  0
    5.2142    0.0708    0.3101 C   0  0  0  0  0  0  0  0  0  0  0  0
    6.3305    3.1983    0.3912 C   0  0  0  0  0  0  0  0  0  0  0  0
    3.6281    4.9156   -0.0590 C   0  0  0  0  0  0  0  0  0  0  0  0
    6.6098    4.5029   -0.3686 C   0  0  0  0  0  0  0  0  0  0  0  0
    4.6925    5.6303    0.8071 C   0  0  0  0  0  0  0  0  0  0  0  0
    2.3927    0.0720   -0.2069 C   0  0  0  0  0  0  0  0  0  0  0  0
    4.9306    2.6744    0.1953 C   0  0  0  0  0  0  0  0  0  0  0  0
    4.5300    1.2896    0.1564 C   0  0  0  0  0  0  0  0  0  0  0  0
    3.7974    3.4245   -0.0311 C   0  0  0  0  0  0  0  0  0  0  0  0
    3.1332    1.2598   -0.0993 C   0  0  0  0  0  0  0  0  0  0  0  0
    6.0596    5.6962    0.2898 N   0  0  0  0  0  0  0  0  0  0  0  0
    2.7165    2.5716   -0.2092 N   0  0  0  0  0  0  0  0  0  0  0  0
    0.5034   -0.9219   -0.5239 H   0  0  0  0  0  0  0  0  0  0  0  0
    0.6782    0.5819   -1.4376 H   0  0  0  0  0  0  0  0  0  0  0  0
    0.3581    0.6356    0.3000 H   0  0  0  0  0  0  0  0  0  0  0  0
    5.0113   -2.0659    0.3240 H   0  0  0  0  0  0  0  0  0  0  0  0
    2.5834   -2.0585   -0.1213 H   0  0  0  0  0  0  0  0  0  0  0  0
    6.2828    0.0554    0.5093 H   0  0  0  0  0  0  0  0  0  0  0  0
    6.5727    3.3430    1.4546 H   0  0  0  0  0  0  0  0  0  0  0  0
    7.0377    2.4433    0.0246 H   0  0  0  0  0  0  0  0  0  0  0  0
    3.6598    5.3077   -1.0877 H   0  0  0  0  0  0  0  0  0  0  0  0
    2.6323    5.1718    0.3327 H   0  0  0  0  0  0  0  0  0  0  0  0
    6.2388    4.3711   -1.4009 H   0  0  0  0  0  0  0  0  0  0  0  0
    7.6949    4.6531   -0.4394 H   0  0  0  0  0  0  0  0  0  0  0  0
    4.7077    5.1374    1.7873 H   0  0  0  0  0  0  0  0  0  0  0  0
    4.3749    6.6638    0.9862 H   0  0  0  0  0  0  0  0  0  0  0  0
    6.1363    6.4798   -0.3542 H   0  0  0  0  0  0  0  0  0  0  0  0
    1.7699    2.8734   -0.3789 H   0  0  0  0  0  0  0  0  0  0  0  0
  1  9  1  0  0  0  0
  1 18  1  0  0  0  0
  2  4  1  0  0  0  0
  2 19  1  0  0  0  0
  3  2  2  0  0  0  0
  4 21  1  0  0  0  0
  5 22  1  0  0  0  0
  6 12  1  0  0  0  0
  6 25  1  0  0  0  0
  6  8  1  0  0  0  0
  7 14  1  0  0  0  0
  7  5  1  0  0  0  0
  8 29  1  0  0  0  0
  8 28  1  0  0  0  0
  9 13  2  0  0  0  0
  9  3  1  0  0  0  0
 10  5  1  0  0  0  0
 11 10  1  0  0  0  0
 11  4  2  0  0  0  0
 12 10  2  0  0  0  0
 13 11  1  0  0  0  0
 14  8  1  0  0  0  0
 15 13  1  0  0  0  0
 15 12  1  0  0  0  0
 16  1  1  0  0  0  0
 17  1  1  0  0  0  0
 20  3  1  0  0  0  0
 23  5  1  0  0  0  0
 24  6  1  0  0  0  0
 26  7  1  0  0  0  0
 27  7  1  0  0  0  0
 30 14  1  0  0  0  0
 31 15  1  0  0  0  0
M  END
>  <HBA>
1

>  <HBD>
2

>  <TPSA>
27.82

>  <cid>
27547

>  <dipole>
2.92

>  <excitation_energy_1>
4.418

>  <excitation_energy_2>
4.557

>  <excitation_energy_3>
4.744

>  <excitation_energy_4>
4.827

>  <homo_energy>
-5.078

>  <homo_lumo_gap>
5.148

>  <logP>
2.493

>  <lumo_energy>
0.071

>  <melting_point>
157.87

>  <molecular_refractivity>
67.41

>  <oscillator_strength_1>
0.0027

>  <oscillator_strength_2>
0.1088

>  <oscillator_strength_3>
0.0227

>  <oscillator_strength_4>
0.0041

>  <open_babel_can_smiles>
Cc1cccc2c1[nH]c1c2CCNCC1

>  <mulliken_charges>
31
1   -0.544494
2   -0.134031
3   -0.220397
4   -0.217093
5   -0.351922
6   -0.353932
7   -0.123403
8   -0.139537
9   0.182271
10   0.041674
11   0.075816
12   0.302904
13   0.250651
14   -0.547484
15   -0.77189
16   0.161461
17   0.152792
18   0.152173
19   0.115306
20   0.110231
21   0.118327
22   0.156512
23   0.145727
24   0.148981
25   0.135144
26   0.11966
27   0.135389
28   0.154049
29   0.135438
30   0.291493
31   0.318183

>  <lowdin_charges>
31
1   -0.444627
2   -0.177047
3   -0.181015
4   -0.168274
5   -0.274392
6   -0.295093
7   -0.198947
8   -0.202344
9   -0.026707
10   -0.079648
11   -0.033651
12   0.012954
13   0.021901
14   -0.370239
15   -0.207944
16   0.161072
17   0.153074
18   0.153989
19   0.152462
20   0.150544
21   0.151447
22   0.152259
23   0.156869
24   0.14926
25   0.149605
26   0.120749
27   0.14163
28   0.146679
29   0.146064
30   0.25365
31   0.285719

$$$$

