PCCDB-ID:  20176
public computational chemistry database (PCCDB) project, http://pccdb.org

 20 20  0  0  0  0  0  0  0  0999 V2000
    0.9383   -0.0292    0.1008 C   0  0  0  0  0  0  0  0  0  0  0  0
    5.3212   -2.5432    0.0916 C   0  0  0  0  0  0  0  0  0  0  0  0
    3.1545    1.1980    0.0951 C   0  0  0  0  0  0  0  0  0  0  0  0
    5.2603   -0.0069    0.0907 C   0  0  0  0  0  0  0  0  0  0  0  0
    5.2659    2.4535    0.0906 C   0  0  0  0  0  0  0  0  0  0  0  0
    2.4491   -0.0036    0.0970 C   0  0  0  0  0  0  0  0  0  0  0  0
    4.5893   -1.2254    0.0925 C   0  0  0  0  0  0  0  0  0  0  0  0
    4.5571    1.2098    0.0920 C   0  0  0  0  0  0  0  0  0  0  0  0
    3.1816   -1.2053    0.0957 C   0  0  0  0  0  0  0  0  0  0  0  0
    5.8417    3.4653    0.0896 N   0  0  0  0  0  0  0  0  0  0  0  0
    2.5662   -2.4244    0.0974 O   0  0  0  0  0  0  0  0  0  0  0  0
    0.5320    0.9856    0.1024 H   0  0  0  0  0  0  0  0  0  0  0  0
    0.5352   -0.5369    0.9890 H   0  0  0  0  0  0  0  0  0  0  0  0
    0.5307   -0.5361   -0.7857 H   0  0  0  0  0  0  0  0  0  0  0  0
    6.4038   -2.3876    0.0885 H   0  0  0  0  0  0  0  0  0  0  0  0
    5.0555   -3.1437   -0.7862 H   0  0  0  0  0  0  0  0  0  0  0  0
    5.0604   -3.1422    0.9718 H   0  0  0  0  0  0  0  0  0  0  0  0
    2.6119    2.1386    0.0960 H   0  0  0  0  0  0  0  0  0  0  0  0
    6.3461    0.0057    0.0882 H   0  0  0  0  0  0  0  0  0  0  0  0
    1.6044   -2.3038    0.1012 H   0  0  0  0  0  0  0  0  0  0  0  0
  1 12  1  0  0  0  0
  1 13  1  0  0  0  0
  2  7  1  0  0  0  0
  2 17  1  0  0  0  0
  3 18  1  0  0  0  0
  3  6  2  0  0  0  0
  4  8  2  0  0  0  0
  4  7  1  0  0  0  0
  5  8  1  0  0  0  0
  6  1  1  0  0  0  0
  7  9  2  0  0  0  0
  8  3  1  0  0  0  0
  9  6  1  0  0  0  0
  9 11  1  0  0  0  0
 10  5  3  0  0  0  0
 11 20  1  0  0  0  0
 14  1  1  0  0  0  0
 15  2  1  0  0  0  0
 16  2  1  0  0  0  0
 19  4  1  0  0  0  0
M  END
>  <HBA>
2

>  <HBD>
1

>  <TPSA>
44.02

>  <cid>
20176

>  <dipole>
5.72

>  <excitation_energy_1>
4.872

>  <excitation_energy_2>
5.139

>  <excitation_energy_3>
5.295

>  <excitation_energy_4>
6.021

>  <homo_energy>
-6.335

>  <homo_lumo_gap>
5.391

>  <logP>
1.881

>  <lumo_energy>
-0.944

>  <melting_point>
91.71

>  <molecular_refractivity>
43.11

>  <oscillator_strength_1>
0.0051

>  <oscillator_strength_2>
0.2462

>  <oscillator_strength_3>
0.0021

>  <oscillator_strength_4>
0.4065

>  <open_babel_can_smiles>
N#Cc1cc(C)c(c(c1)C)O

>  <mulliken_charges>
20
1   -0.582397
2   -0.514383
3   -0.219391
4   -0.214422
5   0.223423
6   0.168713
7   0.148101
8   0.150522
9   0.223271
10   -0.487729
11   -0.634877
12   0.181037
13   0.168071
14   0.168207
15   0.156013
16   0.172691
17   0.172673
18   0.149467
19   0.150146
20   0.420865

>  <lowdin_charges>
20
1   -0.453544
2   -0.434698
3   -0.140936
4   -0.137197
5   -0.01534
6   -0.045343
7   -0.020577
8   -0.040033
9   0.098114
10   -0.131954
11   -0.365103
12   0.172578
13   0.160265
14   0.160348
15   0.157268
16   0.167948
17   0.167923
18   0.170439
19   0.16913
20   0.360711

$$$$

