PCCDB-ID:  15718
public computational chemistry database (PCCDB) project, http://pccdb.org

 31 31  0  0  0  0  0  0  0  0999 V2000
    0.8153   -0.4778   -0.0975 C   0  0  0  0  0  0  0  0  0  0  0  0
    2.7523   -1.1318    1.3407 C   0  0  0  0  0  0  0  0  0  0  0  0
    2.8950   -1.3605   -1.1686 C   0  0  0  0  0  0  0  0  0  0  0  0
    4.3433    1.1049   -0.0354 C   0  0  0  0  0  0  0  0  0  0  0  0
    2.1750    2.0799   -0.2641 C   0  0  0  0  0  0  0  0  0  0  0  0
    4.9398    2.3642   -0.1180 C   0  0  0  0  0  0  0  0  0  0  0  0
    2.7474    3.3466   -0.3500 C   0  0  0  0  0  0  0  0  0  0  0  0
    6.0179    5.0053   -0.3174 C   0  0  0  0  0  0  0  0  0  0  0  0
    2.9547    0.9235   -0.1053 C   0  0  0  0  0  0  0  0  0  0  0  0
    4.1332    3.4929   -0.2771 C   0  0  0  0  0  0  0  0  0  0  0  0
    6.2837    6.5046   -0.4750 C   0  0  0  0  0  0  0  0  0  0  0  0
    2.3535   -0.4903   -0.0095 C   0  0  0  0  0  0  0  0  0  0  0  0
    7.4035    6.9489   -0.4479 O   0  0  0  0  0  0  0  0  0  0  0  0
    5.1929    7.2699   -0.6471 O   0  0  0  0  0  0  0  0  0  0  0  0
    4.6163    4.7807   -0.3700 O   0  0  0  0  0  0  0  0  0  0  0  0
    0.4343   -1.5025   -0.0248 H   0  0  0  0  0  0  0  0  0  0  0  0
    0.4627   -0.0622   -1.0483 H   0  0  0  0  0  0  0  0  0  0  0  0
    0.3643    0.0996    0.7177 H   0  0  0  0  0  0  0  0  0  0  0  0
    2.3331   -2.1421    1.4225 H   0  0  0  0  0  0  0  0  0  0  0  0
    2.3773   -0.5390    2.1827 H   0  0  0  0  0  0  0  0  0  0  0  0
    3.8391   -1.2139    1.4481 H   0  0  0  0  0  0  0  0  0  0  0  0
    2.4788   -2.3738   -1.1126 H   0  0  0  0  0  0  0  0  0  0  0  0
    3.9863   -1.4477   -1.1375 H   0  0  0  0  0  0  0  0  0  0  0  0
    2.6214   -0.9338   -2.1403 H   0  0  0  0  0  0  0  0  0  0  0  0
    4.9951    0.2445    0.0881 H   0  0  0  0  0  0  0  0  0  0  0  0
    1.0949    2.0064   -0.3233 H   0  0  0  0  0  0  0  0  0  0  0  0
    6.0193    2.4467   -0.0574 H   0  0  0  0  0  0  0  0  0  0  0  0
    2.1283    4.2301   -0.4734 H   0  0  0  0  0  0  0  0  0  0  0  0
    6.4421    4.6774    0.6399 H   0  0  0  0  0  0  0  0  0  0  0  0
    6.5397    4.4768   -1.1252 H   0  0  0  0  0  0  0  0  0  0  0  0
    4.4118    6.6817   -0.6291 H   0  0  0  0  0  0  0  0  0  0  0  0
  1 16  1  0  0  0  0
  1 12  1  0  0  0  0
  1 18  1  0  0  0  0
  2 19  1  0  0  0  0
  2 21  1  0  0  0  0
  2 20  1  0  0  0  0
  3 23  1  0  0  0  0
  3 22  1  0  0  0  0
  3 12  1  0  0  0  0
  4 25  1  0  0  0  0
  5  9  2  0  0  0  0
  6 27  1  0  0  0  0
  6  4  2  0  0  0  0
  7 10  2  0  0  0  0
  7  5  1  0  0  0  0
  8 29  1  0  0  0  0
  9  4  1  0  0  0  0
  9 12  1  0  0  0  0
 10  6  1  0  0  0  0
 11 13  2  0  0  0  0
 11  8  1  0  0  0  0
 12  2  1  0  0  0  0
 14 31  1  0  0  0  0
 14 11  1  0  0  0  0
 15  8  1  0  0  0  0
 15 10  1  0  0  0  0
 17  1  1  0  0  0  0
 24  3  1  0  0  0  0
 26  5  1  0  0  0  0
 28  7  1  0  0  0  0
 30  8  1  0  0  0  0
M  END
>  <HBA>
3

>  <HBD>
1

>  <TPSA>
46.53

>  <cid>
15718

>  <dipole>
4.99

>  <excitation_energy_1>
5.023

>  <excitation_energy_2>
5.568

>  <excitation_energy_3>
5.604

>  <excitation_energy_4>
5.764

>  <homo_energy>
-6.283

>  <homo_lumo_gap>
5.889

>  <logP>
2.447

>  <lumo_energy>
-0.395

>  <melting_point>
94.71

>  <molecular_refractivity>
58.78

>  <oscillator_strength_1>
0.0275

>  <oscillator_strength_2>
0.001

>  <oscillator_strength_3>
0.073

>  <oscillator_strength_4>
0.0594

>  <open_babel_can_smiles>
OC(=O)COc1ccc(cc1)C(C)(C)C

>  <mulliken_charges>
31
1   -0.458573
2   -0.43875
3   -0.438282
4   -0.199227
5   -0.198923
6   -0.191862
7   -0.178852
8   -0.130997
9   0.183094
10   0.387478
11   0.576622
12   0.015782
13   -0.444705
14   -0.56483
15   -0.567695
16   0.144139
17   0.146026
18   0.146081
19   0.140665
20   0.148107
21   0.14198
22   0.140592
23   0.141964
24   0.148017
25   0.132509
26   0.13395
27   0.140623
28   0.134731
29   0.188052
30   0.187783
31   0.434503

>  <lowdin_charges>
31
1   -0.44486
2   -0.437493
3   -0.436063
4   -0.152071
5   -0.155812
6   -0.203828
7   -0.18281
8   -0.168655
9   -0.010853
10   0.097911
11   0.182785
12   0.017595
13   -0.241079
14   -0.341362
15   -0.222908
16   0.151329
17   0.149799
18   0.150818
19   0.147242
20   0.152767
21   0.146107
22   0.147102
23   0.146056
24   0.151675
25   0.159071
26   0.161637
27   0.162917
28   0.164982
29   0.170585
30   0.171607
31   0.365809

$$$$

