PCCDB-ID:  23239
public computational chemistry database (PCCDB) project, http://pccdb.org

 20 21  0  0  0  0  0  0  0  0999 V2000
    1.2793   -0.7925   -0.5289 C   0  0  0  0  0  0  0  0  0  0  0  0
    2.3585    0.1432    0.0445 C   0  0  0  0  0  0  0  0  0  0  0  0
    3.6879    4.7231   -3.5060 C   0  0  0  0  0  0  0  0  0  0  0  0
    4.1164    3.6867   -4.3554 C   0  0  0  0  0  0  0  0  0  0  0  0
    3.1469    4.4602   -2.2472 C   0  0  0  0  0  0  0  0  0  0  0  0
    4.0207    2.3442   -3.9786 C   0  0  0  0  0  0  0  0  0  0  0  0
    3.0459    3.1226   -1.8583 C   0  0  0  0  0  0  0  0  0  0  0  0
    3.4796    2.1096   -2.7238 C   0  0  0  0  0  0  0  0  0  0  0  0
    2.7131    1.2627   -0.8749 C   0  0  0  0  0  0  0  0  0  0  0  0
    2.5612    2.5342   -0.6860 N   0  0  0  0  0  0  0  0  0  0  0  0
    3.2656    0.9089   -2.0911 O   0  0  0  0  0  0  0  0  0  0  0  0
    1.0623   -1.5976    0.1805 H   0  0  0  0  0  0  0  0  0  0  0  0
    1.6103   -1.2449   -1.4687 H   0  0  0  0  0  0  0  0  0  0  0  0
    0.3496   -0.2467   -0.7203 H   0  0  0  0  0  0  0  0  0  0  0  0
    3.2657   -0.4352    0.2640 H   0  0  0  0  0  0  0  0  0  0  0  0
    2.0224    0.5955    0.9814 H   0  0  0  0  0  0  0  0  0  0  0  0
    3.7815    5.7520   -3.8415 H   0  0  0  0  0  0  0  0  0  0  0  0
    4.5323    3.9343   -5.3278 H   0  0  0  0  0  0  0  0  0  0  0  0
    2.8160    5.2569   -1.5887 H   0  0  0  0  0  0  0  0  0  0  0  0
    4.3478    1.5369   -4.6252 H   0  0  0  0  0  0  0  0  0  0  0  0
  1  2  1  0  0  0  0
  1 12  1  0  0  0  0
  2 15  1  0  0  0  0
  2 16  1  0  0  0  0
  3  5  2  0  0  0  0
  4  6  2  0  0  0  0
  4  3  1  0  0  0  0
  5  7  1  0  0  0  0
  5 19  1  0  0  0  0
  6  8  1  0  0  0  0
  7 10  1  0  0  0  0
  8 11  1  0  0  0  0
  8  7  2  0  0  0  0
  9 10  2  0  0  0  0
  9  2  1  0  0  0  0
 11  9  1  0  0  0  0
 13  1  1  0  0  0  0
 14  1  1  0  0  0  0
 17  3  1  0  0  0  0
 18  4  1  0  0  0  0
 20  6  1  0  0  0  0
M  END
>  <HBA>
2

>  <HBD>
0

>  <TPSA>
26.03

>  <cid>
23239

>  <dipole>
1.25

>  <excitation_energy_1>
5.021

>  <excitation_energy_2>
5.352

>  <excitation_energy_3>
5.936

>  <excitation_energy_4>
5.973

>  <homo_energy>
-6.297

>  <homo_lumo_gap>
5.704

>  <logP>
2.39

>  <lumo_energy>
-0.593

>  <melting_point>
66.56

>  <molecular_refractivity>
43.78

>  <oscillator_strength_1>
0.0896

>  <oscillator_strength_2>
0.2065

>  <oscillator_strength_3>
0.0017

>  <oscillator_strength_4>
0.0556

>  <open_babel_can_smiles>
CCc1nc2c(o1)cccc2

>  <mulliken_charges>
20
1   -0.451663
2   -0.34299
3   -0.143926
4   -0.144971
5   -0.172681
6   -0.185094
7   0.232111
8   0.328461
9   0.513455
10   -0.51059
11   -0.507439
12   0.15448
13   0.166014
14   0.162044
15   0.16761
16   0.179383
17   0.131813
18   0.133442
19   0.144826
20   0.145715

>  <lowdin_charges>
20
1   -0.440949
2   -0.276243
3   -0.163255
4   -0.155799
5   -0.158155
6   -0.177946
7   0.006434
8   0.069672
9   0.13224
10   -0.181189
11   -0.127791
12   0.15703
13   0.158988
14   0.157421
15   0.165782
16   0.173719
17   0.159001
18   0.160276
19   0.169983
20   0.170781

$$$$

