PCCDB-ID:  7983
public computational chemistry database (PCCDB) project, http://pccdb.org

 26 25  0  0  0  0  0  0  0  0999 V2000
   10.8263    2.8845    2.0208 C   0  0  0  0  0  0  0  0  0  0  0  0
    4.2692    6.4585   -1.3573 C   0  0  0  0  0  0  0  0  0  0  0  0
    9.3988    2.4131    1.7271 C   0  0  0  0  0  0  0  0  0  0  0  0
    4.7534    6.0236    0.0289 C   0  0  0  0  0  0  0  0  0  0  0  0
    8.3979    2.8335    2.8107 C   0  0  0  0  0  0  0  0  0  0  0  0
    5.3892    4.6321    0.0148 C   0  0  0  0  0  0  0  0  0  0  0  0
    6.9624    2.3963    2.5341 C   0  0  0  0  0  0  0  0  0  0  0  0
    5.8778    4.1826    1.3788 C   0  0  0  0  0  0  0  0  0  0  0  0
    5.7691    4.8154    2.4075 O   0  0  0  0  0  0  0  0  0  0  0  0
    6.4551    2.9594    1.2996 O   0  0  0  0  0  0  0  0  0  0  0  0
   11.5199    2.5706    1.2325 H   0  0  0  0  0  0  0  0  0  0  0  0
   11.1939    2.4755    2.9701 H   0  0  0  0  0  0  0  0  0  0  0  0
   10.8754    3.9780    2.0919 H   0  0  0  0  0  0  0  0  0  0  0  0
    3.8191    7.4566   -1.3219 H   0  0  0  0  0  0  0  0  0  0  0  0
    3.5146    5.7673   -1.7530 H   0  0  0  0  0  0  0  0  0  0  0  0
    5.0960    6.4920   -2.0778 H   0  0  0  0  0  0  0  0  0  0  0  0
    9.3856    1.3181    1.6274 H   0  0  0  0  0  0  0  0  0  0  0  0
    9.0694    2.8113    0.7593 H   0  0  0  0  0  0  0  0  0  0  0  0
    3.9184    6.0290    0.7392 H   0  0  0  0  0  0  0  0  0  0  0  0
    5.4805    6.7462    0.4177 H   0  0  0  0  0  0  0  0  0  0  0  0
    8.4137    3.9227    2.9423 H   0  0  0  0  0  0  0  0  0  0  0  0
    8.6940    2.4003    3.7774 H   0  0  0  0  0  0  0  0  0  0  0  0
    6.2408    4.5921   -0.6780 H   0  0  0  0  0  0  0  0  0  0  0  0
    4.6809    3.8772   -0.3535 H   0  0  0  0  0  0  0  0  0  0  0  0
    6.3000    2.6892    3.3521 H   0  0  0  0  0  0  0  0  0  0  0  0
    6.8999    1.3144    2.3831 H   0  0  0  0  0  0  0  0  0  0  0  0
  1 13  1  0  0  0  0
  1 12  1  0  0  0  0
  2 14  1  0  0  0  0
  2  4  1  0  0  0  0
  3  1  1  0  0  0  0
  3  5  1  0  0  0  0
  4 20  1  0  0  0  0
  4 19  1  0  0  0  0
  5 21  1  0  0  0  0
  5 22  1  0  0  0  0
  6  4  1  0  0  0  0
  6  8  1  0  0  0  0
  7  5  1  0  0  0  0
  7 25  1  0  0  0  0
  8  9  2  0  0  0  0
 10  8  1  0  0  0  0
 10  7  1  0  0  0  0
 11  1  1  0  0  0  0
 15  2  1  0  0  0  0
 16  2  1  0  0  0  0
 17  3  1  0  0  0  0
 18  3  1  0  0  0  0
 23  6  1  0  0  0  0
 24  6  1  0  0  0  0
 26  7  1  0  0  0  0
M  END
>  <HBA>
2

>  <HBD>
0

>  <TPSA>
26.3

>  <cid>
7983

>  <dipole>
1.59

>  <excitation_energy_1>
5.835

>  <excitation_energy_2>
6.962

>  <excitation_energy_3>
7.386

>  <excitation_energy_4>
7.5

>  <homo_energy>
-7.268

>  <homo_lumo_gap>
7.734

>  <logP>
2.13

>  <lumo_energy>
0.465

>  <melting_point>
-15.45

>  <molecular_refractivity>
41.85

>  <oscillator_strength_1>
0.0006

>  <oscillator_strength_2>
0.0165

>  <oscillator_strength_3>
0.0434

>  <oscillator_strength_4>
0.0468

>  <open_babel_can_smiles>
CCCCOC(=O)CCC

>  <mulliken_charges>
26
1   -0.442551
2   -0.447026
3   -0.247462
4   -0.242593
5   -0.274197
6   -0.354443
7   -0.051661
8   0.622525
9   -0.480073
10   -0.467183
11   0.143947
12   0.141795
13   0.144625
14   0.148043
15   0.14192
16   0.141583
17   0.129241
18   0.144799
19   0.152112
20   0.150324
21   0.159028
22   0.135554
23   0.167511
24   0.169133
25   0.168304
26   0.146743

>  <lowdin_charges>
26
1   -0.443034
2   -0.445891
3   -0.272377
4   -0.269905
5   -0.284664
6   -0.30334
7   -0.131128
8   0.20007
9   -0.268993
10   -0.201282
11   0.15138
12   0.146358
13   0.146021
14   0.152291
15   0.147613
16   0.146883
17   0.136507
18   0.145241
19   0.152436
20   0.152165
21   0.152726
22   0.148127
23   0.166377
24   0.168116
25   0.160701
26   0.147601

$$$$

