PCCDB-ID:  45906
public computational chemistry database (PCCDB) project, http://pccdb.org

 26 28  0  0  0  0  0  0  0  0999 V2000
    3.4108   -0.6988   -0.4021 C   0  0  0  0  0  0  0  0  0  0  0  0
    3.4679    0.6568    0.3097 C   0  0  0  0  0  0  0  0  0  0  0  0
    2.1692   -1.4801    0.0444 C   0  0  0  0  0  0  0  0  0  0  0  0
    2.2534    1.5117   -0.0745 C   0  0  0  0  0  0  0  0  0  0  0  0
   -0.3421   -1.3156    0.0417 C   0  0  0  0  0  0  0  0  0  0  0  0
   -0.2662    1.4827    0.0082 C   0  0  0  0  0  0  0  0  0  0  0  0
    0.8950   -0.6517    0.0166 C   0  0  0  0  0  0  0  0  0  0  0  0
    0.9361    0.7550   -0.0029 C   0  0  0  0  0  0  0  0  0  0  0  0
   -1.5220   -0.5832    0.0520 C   0  0  0  0  0  0  0  0  0  0  0  0
   -1.4842    0.8215    0.0355 C   0  0  0  0  0  0  0  0  0  0  0  0
   -3.8572   -0.1425    0.0765 C   0  0  0  0  0  0  0  0  0  0  0  0
   -5.1208   -0.2974    0.0909 N   0  0  0  0  0  0  0  0  0  0  0  0
   -2.8249   -1.0752    0.0758 N   0  0  0  0  0  0  0  0  0  0  0  0
   -3.1215    1.5018    0.0502 S   0  0  0  0  0  0  0  0  0  0  0  0
    4.3131   -1.2873   -0.1968 H   0  0  0  0  0  0  0  0  0  0  0  0
    3.3775   -0.5376   -1.4890 H   0  0  0  0  0  0  0  0  0  0  0  0
    4.3919    1.1919    0.0598 H   0  0  0  0  0  0  0  0  0  0  0  0
    3.4797    0.4947    1.3969 H   0  0  0  0  0  0  0  0  0  0  0  0
    2.3313   -1.8455    1.0703 H   0  0  0  0  0  0  0  0  0  0  0  0
    2.0389   -2.3767   -0.5752 H   0  0  0  0  0  0  0  0  0  0  0  0
    2.3939    1.8842   -1.1010 H   0  0  0  0  0  0  0  0  0  0  0  0
    2.2003    2.4042    0.5622 H   0  0  0  0  0  0  0  0  0  0  0  0
   -0.3712   -2.4032    0.0530 H   0  0  0  0  0  0  0  0  0  0  0  0
   -0.2341    2.5694   -0.0067 H   0  0  0  0  0  0  0  0  0  0  0  0
   -5.3844   -1.2858    0.1055 H   0  0  0  0  0  0  0  0  0  0  0  0
   -3.0317   -2.0642    0.0903 H   0  0  0  0  0  0  0  0  0  0  0  0
  1 15  1  0  0  0  0
  1  3  1  0  0  0  0
  1  2  1  0  0  0  0
  2 18  1  0  0  0  0
  3 19  1  0  0  0  0
  4  8  1  0  0  0  0
  4  2  1  0  0  0  0
  4 22  1  0  0  0  0
  5  9  2  0  0  0  0
  5 23  1  0  0  0  0
  6 10  2  0  0  0  0
  7  5  1  0  0  0  0
  7  3  1  0  0  0  0
  8  6  1  0  0  0  0
  8  7  2  0  0  0  0
  9 13  1  0  0  0  0
 10 14  1  0  0  0  0
 10  9  1  0  0  0  0
 11 12  2  0  0  0  0
 12 25  1  0  0  0  0
 13 11  1  0  0  0  0
 13 26  1  0  0  0  0
 14 11  1  0  0  0  0
 16  1  1  0  0  0  0
 17  2  1  0  0  0  0
 20  3  1  0  0  0  0
 21  4  1  0  0  0  0
 24  6  1  0  0  0  0
M  END
>  <HBA>
3

>  <HBD>
1

>  <TPSA>
67.15

>  <cid>
45906

>  <dipole>
4.5

>  <excitation_energy_1>
4.287

>  <excitation_energy_2>
4.326

>  <excitation_energy_3>
4.682

>  <excitation_energy_4>
4.799

>  <homo_energy>
-5.361

>  <homo_lumo_gap>
5.083

>  <logP>
3.338

>  <lumo_energy>
-0.278

>  <melting_point>
143.47

>  <molecular_refractivity>
61.46

>  <oscillator_strength_1>
0.1337

>  <oscillator_strength_2>
0.0002

>  <oscillator_strength_3>
0.0009

>  <oscillator_strength_4>
0.0601

>  <open_babel_can_smiles>
N=c1sc2c([nH]1)cc1c(c2)CCCC1

>  <mulliken_charges>
26
1   -0.266029
2   -0.266935
3   -0.341668
4   -0.340885
5   -0.230197
6   -0.255946
7   0.105183
8   0.13378
9   0.392956
10   -0.142591
11   0.32707
12   -0.636896
13   -0.704506
14   0.229413
15   0.134573
16   0.138429
17   0.135197
18   0.137781
19   0.151697
20   0.14388
21   0.151275
22   0.145983
23   0.118722
24   0.135406
25   0.276404
26   0.327902

>  <lowdin_charges>
26
1   -0.274356
2   -0.274286
3   -0.274529
4   -0.274106
5   -0.196595
6   -0.16348
7   -0.01025
8   -0.024767
9   0.042446
10   -0.150446
11   -0.010913
12   -0.430442
13   -0.243687
14   0.249816
15   0.146629
16   0.140333
17   0.146833
18   0.139934
19   0.150561
20   0.15118
21   0.14996
22   0.152322
23   0.153564
24   0.160898
25   0.25281
26   0.290571

$$$$

