PCCDB-ID:  8069
public computational chemistry database (PCCDB) project, http://pccdb.org

 15 14  0  0  0  0  0  0  0  0999 V2000
    3.0844    0.0072    1.6123 C   0  0  0  0  0  0  0  0  0  0  0  0
    2.8273    0.0869    0.1044 C   0  0  0  0  0  0  0  0  0  0  0  0
    3.1365   -1.2269   -0.6442 C   0  0  0  0  0  0  0  0  0  0  0  0
    4.5935   -1.5845   -0.6305 C   0  0  0  0  0  0  0  0  0  0  0  0
    4.9862   -2.6775   -0.1010 N   0  0  0  0  0  0  0  0  0  0  0  0
    6.3868   -2.8115   -0.1998 O   0  0  0  0  0  0  0  0  0  0  0  0
    2.8493    0.9585    2.1027 H   0  0  0  0  0  0  0  0  0  0  0  0
    4.1313   -0.2335    1.8277 H   0  0  0  0  0  0  0  0  0  0  0  0
    2.4665   -0.7712    2.0761 H   0  0  0  0  0  0  0  0  0  0  0  0
    3.4244    0.9002   -0.3312 H   0  0  0  0  0  0  0  0  0  0  0  0
    1.7770    0.3483   -0.0781 H   0  0  0  0  0  0  0  0  0  0  0  0
    2.8123   -1.1232   -1.6901 H   0  0  0  0  0  0  0  0  0  0  0  0
    2.5680   -2.0567   -0.2085 H   0  0  0  0  0  0  0  0  0  0  0  0
    5.3174   -0.8930   -1.0743 H   0  0  0  0  0  0  0  0  0  0  0  0
    6.5410   -3.6678    0.2286 H   0  0  0  0  0  0  0  0  0  0  0  0
  1  8  1  0  0  0  0
  1  9  1  0  0  0  0
  1  7  1  0  0  0  0
  2  1  1  0  0  0  0
  3  4  1  0  0  0  0
  3 13  1  0  0  0  0
  3  2  1  0  0  0  0
  4  5  2  0  0  0  0
  6  5  1  0  0  0  0
  6 15  1  0  0  0  0
 10  2  1  0  0  0  0
 11  2  1  0  0  0  0
 12  3  1  0  0  0  0
 14  4  1  0  0  0  0
M  END
>  <HBA>
2

>  <HBD>
1

>  <TPSA>
32.59

>  <cid>
8069

>  <dipole>
0.66

>  <excitation_energy_1>
6.032

>  <excitation_energy_2>
6.356

>  <excitation_energy_3>
6.506

>  <excitation_energy_4>
6.691

>  <homo_energy>
-6.74

>  <homo_lumo_gap>
6.953

>  <logP>
1.246

>  <lumo_energy>
0.212

>  <melting_point>
46.54

>  <molecular_refractivity>
25.76

>  <oscillator_strength_1>
0.0015

>  <oscillator_strength_2>
0.196

>  <oscillator_strength_3>
0.0015

>  <oscillator_strength_4>
0.0077

>  <open_babel_can_smiles>
CCC/C=N/O

>  <mulliken_charges>
15
1   -0.440152
2   -0.258977
3   -0.305351
4   0.107026
5   -0.173248
6   -0.510411
7   0.143731
8   0.155962
9   0.14615
10   0.135825
11   0.13926
12   0.148573
13   0.158537
14   0.13929
15   0.413784

>  <lowdin_charges>
15
1   -0.44683
2   -0.270833
3   -0.276461
4   -0.110603
5   -0.060999
6   -0.38729
7   0.150751
8   0.152244
9   0.150399
10   0.142194
11   0.144317
12   0.154101
13   0.15937
14   0.14671
15   0.352933

$$$$

