PCCDB-ID:  40997
public computational chemistry database (PCCDB) project, http://pccdb.org

 51 51  0  0  0  0  0  0  0  0999 V2000
    5.4448   -9.2126   -4.3013 C   0  0  0  0  0  0  0  0  0  0  0  0
    5.2921   -7.8318   -4.9505 C   0  0  0  0  0  0  0  0  0  0  0  0
    5.0999   -6.6774   -3.9510 C   0  0  0  0  0  0  0  0  0  0  0  0
    6.2636   -6.4402   -2.9697 C   0  0  0  0  0  0  0  0  0  0  0  0
    7.6240   -6.1060   -3.6072 C   0  0  0  0  0  0  0  0  0  0  0  0
    7.6512   -4.8062   -4.4237 C   0  0  0  0  0  0  0  0  0  0  0  0
    9.0430   -4.4684   -4.9746 C   0  0  0  0  0  0  0  0  0  0  0  0
    9.0859   -3.1631   -5.7804 C   0  0  0  0  0  0  0  0  0  0  0  0
   10.4790   -2.8438   -6.3405 C   0  0  0  0  0  0  0  0  0  0  0  0
   12.3395    2.8204   -5.7092 C   0  0  0  0  0  0  0  0  0  0  0  0
   10.5484   -1.5764   -7.2111 C   0  0  0  0  0  0  0  0  0  0  0  0
   10.8420    2.6897   -5.3901 C   0  0  0  0  0  0  0  0  0  0  0  0
   12.8724    1.5668   -6.4207 C   0  0  0  0  0  0  0  0  0  0  0  0
   10.1992   -0.2484   -6.5109 C   0  0  0  0  0  0  0  0  0  0  0  0
   10.5485    1.4068   -4.5936 C   0  0  0  0  0  0  0  0  0  0  0  0
   12.5698    0.2931   -5.6135 C   0  0  0  0  0  0  0  0  0  0  0  0
   11.0673    0.1256   -5.2886 C   0  0  0  0  0  0  0  0  0  0  0  0
    6.3476   -9.2767   -3.6834 H   0  0  0  0  0  0  0  0  0  0  0  0
    5.5113   -9.9999   -5.0611 H   0  0  0  0  0  0  0  0  0  0  0  0
    4.5863   -9.4435   -3.6578 H   0  0  0  0  0  0  0  0  0  0  0  0
    4.4266   -7.8493   -5.6266 H   0  0  0  0  0  0  0  0  0  0  0  0
    6.1639   -7.6314   -5.5880 H   0  0  0  0  0  0  0  0  0  0  0  0
    4.1903   -6.8699   -3.3638 H   0  0  0  0  0  0  0  0  0  0  0  0
    4.9026   -5.7548   -4.5129 H   0  0  0  0  0  0  0  0  0  0  0  0
    6.3845   -7.3259   -2.3317 H   0  0  0  0  0  0  0  0  0  0  0  0
    5.9809   -5.6218   -2.2921 H   0  0  0  0  0  0  0  0  0  0  0  0
    7.9531   -6.9394   -4.2440 H   0  0  0  0  0  0  0  0  0  0  0  0
    8.3724   -6.0326   -2.8051 H   0  0  0  0  0  0  0  0  0  0  0  0
    7.2963   -3.9758   -3.7946 H   0  0  0  0  0  0  0  0  0  0  0  0
    6.9440   -4.8745   -5.2620 H   0  0  0  0  0  0  0  0  0  0  0  0
    9.3924   -5.2975   -5.6081 H   0  0  0  0  0  0  0  0  0  0  0  0
    9.7583   -4.4032   -4.1411 H   0  0  0  0  0  0  0  0  0  0  0  0
    8.7385   -2.3388   -5.1418 H   0  0  0  0  0  0  0  0  0  0  0  0
    8.3680   -3.2249   -6.6123 H   0  0  0  0  0  0  0  0  0  0  0  0
   10.8162   -3.6958   -6.9482 H   0  0  0  0  0  0  0  0  0  0  0  0
   11.1959   -2.7698   -5.5108 H   0  0  0  0  0  0  0  0  0  0  0  0
   12.8959    2.9626   -4.7703 H   0  0  0  0  0  0  0  0  0  0  0  0
   12.5240    3.7144   -6.3189 H   0  0  0  0  0  0  0  0  0  0  0  0
    9.8653   -1.7002   -8.0637 H   0  0  0  0  0  0  0  0  0  0  0  0
   11.5542   -1.5059   -7.6461 H   0  0  0  0  0  0  0  0  0  0  0  0
   10.2697    2.6884   -6.3283 H   0  0  0  0  0  0  0  0  0  0  0  0
   10.4972    3.5646   -4.8238 H   0  0  0  0  0  0  0  0  0  0  0  0
   13.9545    1.6551   -6.5829 H   0  0  0  0  0  0  0  0  0  0  0  0
   12.4186    1.4944   -7.4195 H   0  0  0  0  0  0  0  0  0  0  0  0
    9.1504   -0.2770   -6.1839 H   0  0  0  0  0  0  0  0  0  0  0  0
   10.2496    0.5497   -7.2627 H   0  0  0  0  0  0  0  0  0  0  0  0
    9.4706    1.3184   -4.4013 H   0  0  0  0  0  0  0  0  0  0  0  0
   11.0316    1.4899   -3.6087 H   0  0  0  0  0  0  0  0  0  0  0  0
   13.1238    0.3409   -4.6643 H   0  0  0  0  0  0  0  0  0  0  0  0
   12.9518   -0.5889   -6.1422 H   0  0  0  0  0  0  0  0  0  0  0  0
   10.9761   -0.6939   -4.5615 H   0  0  0  0  0  0  0  0  0  0  0  0
  1 18  1  0  0  0  0
  1 20  1  0  0  0  0
  2  1  1  0  0  0  0
  2  3  1  0  0  0  0
  3 23  1  0  0  0  0
  3  4  1  0  0  0  0
  4 25  1  0  0  0  0
  4 26  1  0  0  0  0
  5  4  1  0  0  0  0
  5 28  1  0  0  0  0
  6 29  1  0  0  0  0
  6  5  1  0  0  0  0
  7  6  1  0  0  0  0
  7 32  1  0  0  0  0
  8 33  1  0  0  0  0
  8  7  1  0  0  0  0
  9  8  1  0  0  0  0
  9 36  1  0  0  0  0
 10 12  1  0  0  0  0
 10 37  1  0  0  0  0
 11 14  1  0  0  0  0
 11  9  1  0  0  0  0
 12 42  1  0  0  0  0
 12 15  1  0  0  0  0
 13 10  1  0  0  0  0
 13 16  1  0  0  0  0
 14 45  1  0  0  0  0
 14 17  1  0  0  0  0
 15 47  1  0  0  0  0
 15 48  1  0  0  0  0
 16 17  1  0  0  0  0
 16 49  1  0  0  0  0
 17 15  1  0  0  0  0
 17 51  1  0  0  0  0
 19  1  1  0  0  0  0
 21  2  1  0  0  0  0
 22  2  1  0  0  0  0
 24  3  1  0  0  0  0
 27  5  1  0  0  0  0
 30  6  1  0  0  0  0
 31  7  1  0  0  0  0
 34  8  1  0  0  0  0
 35  9  1  0  0  0  0
 38 10  1  0  0  0  0
 39 11  1  0  0  0  0
 40 11  1  0  0  0  0
 41 12  1  0  0  0  0
 43 13  1  0  0  0  0
 44 13  1  0  0  0  0
 46 14  1  0  0  0  0
 50 16  1  0  0  0  0
M  END
>  <HBA>
0

>  <HBD>
0

>  <TPSA>
0.0

>  <cid>
40997

>  <dipole>
0.04

>  <excitation_energy_1>
7.148

>  <excitation_energy_2>
7.207

>  <excitation_energy_3>
7.376

>  <excitation_energy_4>
7.409

>  <homo_energy>
-7.706

>  <homo_lumo_gap>
9.704

>  <logP>
6.488

>  <lumo_energy>
1.997

>  <melting_point>
-11.29

>  <molecular_refractivity>
81.72

>  <oscillator_strength_1>
0.0006

>  <oscillator_strength_2>
0.0011

>  <oscillator_strength_3>
0.0056

>  <oscillator_strength_4>
0.002

>  <open_babel_can_smiles>
CCCCCCCCCCCC1CCCCC1

>  <mulliken_charges>
51
1   -0.443587
2   -0.251
3   -0.253167
4   -0.258987
5   -0.256999
6   -0.254192
7   -0.252542
8   -0.254393
9   -0.257611
10   -0.253835
11   -0.264867
12   -0.259418
13   -0.260485
14   -0.265341
15   -0.264536
16   -0.267934
17   -0.076697
18   0.146291
19   0.140929
20   0.140265
21   0.129811
22   0.133767
23   0.12542
24   0.131336
25   0.130327
26   0.125949
27   0.130794
28   0.126288
29   0.1252
30   0.131982
31   0.125859
32   0.125971
33   0.132106
34   0.125199
35   0.125955
36   0.132631
37   0.125125
38   0.127265
39   0.125553
40   0.130904
41   0.13144
42   0.128057
43   0.128255
44   0.1309
45   0.129336
46   0.130043
47   0.124455
48   0.123641
49   0.124179
50   0.131787
51   0.118571

>  <lowdin_charges>
51
1   -0.448996
2   -0.276988
3   -0.280235
4   -0.280291
5   -0.279799
6   -0.278279
7   -0.274648
8   -0.278303
9   -0.280026
10   -0.278038
11   -0.27835
12   -0.281014
13   -0.277325
14   -0.283132
15   -0.276341
16   -0.282829
17   -0.132645
18   0.147292
19   0.149801
20   0.146288
21   0.142112
22   0.139609
23   0.139928
24   0.140809
25   0.141244
26   0.140834
27   0.138891
28   0.140849
29   0.137536
30   0.139227
31   0.137697
32   0.137371
33   0.139497
34   0.137191
35   0.141014
36   0.138907
37   0.135983
38   0.141937
39   0.140722
40   0.139808
41   0.137986
42   0.143119
43   0.140759
44   0.137001
45   0.138683
46   0.141177
47   0.138135
48   0.136968
49   0.138299
50   0.142764
51   0.1378

$$$$

