PCCDB-ID:  28793
public computational chemistry database (PCCDB) project, http://pccdb.org

 16 16  0  0  0  0  0  0  0  0999 V2000
    1.0131    0.1328   -0.0751 C   0  0  0  0  0  0  0  0  0  0  0  0
    2.9659   -2.5722   -0.0714 C   0  0  0  0  0  0  0  0  0  0  0  0
    2.5015   -0.0244   -0.0745 C   0  0  0  0  0  0  0  0  0  0  0  0
    3.2809   -1.1174   -0.0737 C   0  0  0  0  0  0  0  0  0  0  0  0
    3.4729    1.1305   -0.0749 C   0  0  0  0  0  0  0  0  0  0  0  0
    4.7224   -0.5983   -0.0746 C   0  0  0  0  0  0  0  0  0  0  0  0
    4.7248    0.8235   -0.0738 N   0  0  0  0  0  0  0  0  0  0  0  0
    3.0680    2.4035   -0.0751 O   0  0  0  0  0  0  0  0  0  0  0  0
    5.7055   -1.3039   -0.0773 O   0  0  0  0  0  0  0  0  0  0  0  0
    0.5132   -0.8396   -0.0704 H   0  0  0  0  0  0  0  0  0  0  0  0
    0.6601    0.6750   -0.9640 H   0  0  0  0  0  0  0  0  0  0  0  0
    0.6603    0.6836    0.8086 H   0  0  0  0  0  0  0  0  0  0  0  0
    1.8888   -2.7643   -0.0681 H   0  0  0  0  0  0  0  0  0  0  0  0
    3.4109   -3.0588    0.8049 H   0  0  0  0  0  0  0  0  0  0  0  0
    3.4056   -3.0606   -0.9495 H   0  0  0  0  0  0  0  0  0  0  0  0
    2.0976    2.4391   -0.0791 H   0  0  0  0  0  0  0  0  0  0  0  0
  1  3  1  0  0  0  0
  1 10  1  0  0  0  0
  1 12  1  0  0  0  0
  2 13  1  0  0  0  0
  2 14  1  0  0  0  0
  3  4  2  0  0  0  0
  4  2  1  0  0  0  0
  5  3  1  0  0  0  0
  5  7  2  0  0  0  0
  6  7  1  0  0  0  0
  6  4  1  0  0  0  0
  8  5  1  0  0  0  0
  9  6  2  0  0  0  0
 11  1  1  0  0  0  0
 15  2  1  0  0  0  0
 16  8  1  0  0  0  0
M  END
>  <HBA>
3

>  <HBD>
1

>  <TPSA>
46.17

>  <cid>
28793

>  <dipole>
6.8

>  <excitation_energy_1>
3.144

>  <excitation_energy_2>
3.597

>  <excitation_energy_3>
4.202

>  <excitation_energy_4>
5.641

>  <homo_energy>
-6.917

>  <homo_lumo_gap>
4.536

>  <logP>
0.308

>  <lumo_energy>
-2.381

>  <melting_point>
82.61

>  <molecular_refractivity>
35.48

>  <oscillator_strength_1>
0.0001

>  <oscillator_strength_2>
0.0066

>  <oscillator_strength_3>
0.0003

>  <oscillator_strength_4>
0.0

>  <open_babel_can_smiles>
OC1=NC(=O)C(=C1C)C

>  <mulliken_charges>
16
1   -0.570595
2   -0.52725
3   0.071365
4   0.052786
5   0.483152
6   0.515446
7   -0.497037
8   -0.571542
9   -0.439688
10   0.186503
11   0.172073
12   0.17188
13   0.155217
14   0.18632
15   0.186311
16   0.425057

>  <lowdin_charges>
16
1   -0.454307
2   -0.436589
3   -0.064835
4   -0.024156
5   0.149485
6   0.169511
7   -0.222398
8   -0.305085
9   -0.198715
10   0.176049
11   0.165108
12   0.165035
13   0.156719
14   0.178963
15   0.178949
16   0.366266

$$$$

