PCCDB-ID:  43037
public computational chemistry database (PCCDB) project, http://pccdb.org

 26 27  0  0  1  0  0  0  0  0999 V2000
    1.0140   -0.2995    0.2873 C   0  0  0  0  0  0  0  0  0  0  0  0
    5.3404   -4.6256    3.0925 C   0  0  0  0  0  0  0  0  0  0  0  0
    4.6963    0.1210    3.4193 C   0  0  0  0  0  0  0  0  0  0  0  0
    5.1471   -1.0776    3.9419 C   0  0  0  0  0  0  0  0  0  0  0  0
    3.6382    1.4094    1.5336 C   0  0  0  0  0  0  0  0  0  0  0  0
    4.3544   -2.2377    1.9502 C   0  0  0  0  0  0  0  0  0  0  0  0
    2.5159    2.5581   -0.2959 C   0  0  0  0  0  0  0  0  0  0  0  0
    2.4379    0.0390   -0.1617 C   0  0  1  0  0  0  0  0  0  0  0  0
    4.0573    0.1814    2.1664 C   0  0  0  0  0  0  0  0  0  0  0  0
    2.9137    1.3771    0.3901 C   0  0  0  0  0  0  0  0  0  0  0  0
    4.9814   -2.2642    3.2013 C   0  0  0  0  0  0  0  0  0  0  0  0
    3.8910   -1.0210    1.4490 C   0  0  0  0  0  0  0  0  0  0  0  0
    2.1651    3.5018   -0.8840 N   0  0  0  0  0  0  0  0  0  0  0  0
    5.4598   -3.3913    3.7883 O   0  0  0  0  0  0  0  0  0  0  0  0
    3.3409   -1.0300    0.2033 O   0  0  0  0  0  0  0  0  0  0  0  0
    0.3172    0.4692   -0.0642 H   0  0  0  0  0  0  0  0  0  0  0  0
    0.9533   -0.3458    1.3796 H   0  0  0  0  0  0  0  0  0  0  0  0
    0.7086   -1.2660   -0.1265 H   0  0  0  0  0  0  0  0  0  0  0  0
    5.7928   -5.3769    3.7416 H   0  0  0  0  0  0  0  0  0  0  0  0
    5.8765   -4.5992    2.1356 H   0  0  0  0  0  0  0  0  0  0  0  0
    4.2891   -4.8841    2.9131 H   0  0  0  0  0  0  0  0  0  0  0  0
    4.8364    1.0409    3.9816 H   0  0  0  0  0  0  0  0  0  0  0  0
    5.6370   -1.1310    4.9079 H   0  0  0  0  0  0  0  0  0  0  0  0
    3.9389    2.3585    1.9694 H   0  0  0  0  0  0  0  0  0  0  0  0
    4.2120   -3.1284    1.3516 H   0  0  0  0  0  0  0  0  0  0  0  0
    2.4819    0.0535   -1.2544 H   0  0  0  0  0  0  0  0  0  0  0  0
  1 17  1  0  0  0  0
  2 19  1  0  0  0  0
  2 14  1  0  0  0  0
  3  4  1  0  0  0  0
  3 22  1  0  0  0  0
  4 23  1  0  0  0  0
  5 24  1  0  0  0  0
  5  9  1  0  0  0  0
  6 11  1  0  0  0  0
  7 10  1  0  0  0  0
  8 26  1  6  0  0  0
  8 15  1  0  0  0  0
  8  1  1  0  0  0  0
  8 10  1  0  0  0  0
  9  3  2  0  0  0  0
 10  5  2  0  0  0  0
 11 14  1  0  0  0  0
 11  4  2  0  0  0  0
 12  6  2  0  0  0  0
 12  9  1  0  0  0  0
 13  7  3  0  0  0  0
 15 12  1  0  0  0  0
 16  1  1  0  0  0  0
 18  1  1  0  0  0  0
 20  2  1  0  0  0  0
 21  2  1  0  0  0  0
 25  6  1  0  0  0  0
M  END
>  <HBA>
3

>  <HBD>
0

>  <TPSA>
42.25

>  <cid>
43037

>  <dipole>
5.32

>  <excitation_energy_1>
3.629

>  <excitation_energy_2>
4.302

>  <excitation_energy_3>
4.975

>  <excitation_energy_4>
5.205

>  <homo_energy>
-5.753

>  <homo_lumo_gap>
4.052

>  <logP>
2.383

>  <lumo_energy>
-1.701

>  <melting_point>
97.63

>  <molecular_refractivity>
56.77

>  <oscillator_strength_1>
0.3075

>  <oscillator_strength_2>
0.1218

>  <oscillator_strength_3>
0.2811

>  <oscillator_strength_4>
0.0084

>  <open_babel_can_smiles>
N#CC1=Cc2ccc(cc2O[C@H]1C)OC

>  <mulliken_charges>
26
1   -0.450118
2   -0.219273
3   -0.202495
4   -0.177332
5   -0.150097
6   -0.265473
7   0.253482
8   0.078083
9   0.119868
10   0.071431
11   0.389289
12   0.330281
13   -0.487851
14   -0.502246
15   -0.537578
16   0.168504
17   0.16161
18   0.162785
19   0.176429
20   0.160287
21   0.158571
22   0.141493
23   0.144144
24   0.161405
25   0.146672
26   0.168128

>  <lowdin_charges>
26
1   -0.453997
2   -0.276644
3   -0.133373
4   -0.197303
5   -0.107464
6   -0.242067
7   -0.020344
8   0.026272
9   -0.071948
10   -0.064684
11   0.121541
12   0.123582
13   -0.128875
14   -0.186003
15   -0.190795
16   0.168399
17   0.159009
18   0.161288
19   0.167912
20   0.14996
21   0.148153
22   0.164504
23   0.170661
24   0.175802
25   0.175349
26   0.161067

$$$$

