PCCDB-ID:  19944
public computational chemistry database (PCCDB) project, http://pccdb.org

 32 31  0  0  1  0  0  0  0  0999 V2000
    1.1324   -1.7303   -2.0695 C   0  0  0  0  0  0  0  0  0  0  0  0
    3.2770   -1.2551   -0.8265 C   0  0  0  0  0  0  0  0  0  0  0  0
    4.8374    1.8017   -6.5611 C   0  0  0  0  0  0  0  0  0  0  0  0
    6.0815    0.4363   -4.8391 C   0  0  0  0  0  0  0  0  0  0  0  0
    4.9159    3.1481   -3.7407 C   0  0  0  0  0  0  0  0  0  0  0  0
    2.7748   -0.0691   -3.0408 C   0  0  0  0  0  0  0  0  0  0  0  0
    3.7260    1.1191   -2.8335 C   0  0  0  0  0  0  0  0  0  0  0  0
    2.1932   -0.6675   -1.7436 C   0  0  0  0  0  0  0  0  0  0  0  0
    4.7228    1.0420   -5.2289 C   0  0  0  0  0  0  0  0  0  0  0  0
    4.0776    1.9133   -4.1124 C   0  0  2  0  0  0  0  0  0  0  0  0
    0.6897   -2.1434   -1.1554 H   0  0  0  0  0  0  0  0  0  0  0  0
    1.5729   -2.5643   -2.6312 H   0  0  0  0  0  0  0  0  0  0  0  0
    0.3208   -1.3116   -2.6767 H   0  0  0  0  0  0  0  0  0  0  0  0
    2.8332   -1.6765    0.0834 H   0  0  0  0  0  0  0  0  0  0  0  0
    4.0110   -0.5032   -0.5165 H   0  0  0  0  0  0  0  0  0  0  0  0
    3.8206   -2.0629   -1.3347 H   0  0  0  0  0  0  0  0  0  0  0  0
    5.1522    1.1254   -7.3652 H   0  0  0  0  0  0  0  0  0  0  0  0
    5.5746    2.6117   -6.5115 H   0  0  0  0  0  0  0  0  0  0  0  0
    3.8765    2.2429   -6.8532 H   0  0  0  0  0  0  0  0  0  0  0  0
    6.4443   -0.2303   -5.6306 H   0  0  0  0  0  0  0  0  0  0  0  0
    6.0246   -0.1522   -3.9165 H   0  0  0  0  0  0  0  0  0  0  0  0
    6.8425    1.2124   -4.6937 H   0  0  0  0  0  0  0  0  0  0  0  0
    4.3820    3.7662   -3.0090 H   0  0  0  0  0  0  0  0  0  0  0  0
    5.1302    3.7808   -4.6084 H   0  0  0  0  0  0  0  0  0  0  0  0
    5.8735    2.8633   -3.2889 H   0  0  0  0  0  0  0  0  0  0  0  0
    3.2834   -0.8717   -3.5942 H   0  0  0  0  0  0  0  0  0  0  0  0
    1.9379    0.2553   -3.6773 H   0  0  0  0  0  0  0  0  0  0  0  0
    4.6514    0.7807   -2.3485 H   0  0  0  0  0  0  0  0  0  0  0  0
    3.2602    1.8187   -2.1238 H   0  0  0  0  0  0  0  0  0  0  0  0
    1.6949    0.1475   -1.1959 H   0  0  0  0  0  0  0  0  0  0  0  0
    4.0332    0.2054   -5.4093 H   0  0  0  0  0  0  0  0  0  0  0  0
    3.1255    2.2802   -4.5291 H   0  0  0  0  0  0  0  0  0  0  0  0
  1  8  1  0  0  0  0
  1 11  1  0  0  0  0
  2 15  1  0  0  0  0
  2 14  1  0  0  0  0
  3 18  1  0  0  0  0
  3  9  1  0  0  0  0
  4 22  1  0  0  0  0
  4 21  1  0  0  0  0
  5 25  1  0  0  0  0
  5 23  1  0  0  0  0
  6  7  1  0  0  0  0
  6  8  1  0  0  0  0
  7 28  1  0  0  0  0
  7 29  1  0  0  0  0
  8 30  1  0  0  0  0
  8  2  1  0  0  0  0
  9  4  1  0  0  0  0
  9 10  1  0  0  0  0
 10 32  1  6  0  0  0
 10  5  1  0  0  0  0
 10  7  1  0  0  0  0
 12  1  1  0  0  0  0
 13  1  1  0  0  0  0
 16  2  1  0  0  0  0
 17  3  1  0  0  0  0
 19  3  1  0  0  0  0
 20  4  1  0  0  0  0
 24  5  1  0  0  0  0
 26  6  1  0  0  0  0
 27  6  1  0  0  0  0
 31  9  1  0  0  0  0
M  END
>  <HBA>
0

>  <HBD>
0

>  <TPSA>
0.0

>  <cid>
19944

>  <dipole>
0.1

>  <excitation_energy_1>
7.505

>  <excitation_energy_2>
7.546

>  <excitation_energy_3>
7.769

>  <excitation_energy_4>
7.842

>  <homo_energy>
-7.989

>  <homo_lumo_gap>
10.115

>  <logP>
3.715

>  <lumo_energy>
2.125

>  <melting_point>
-29.22

>  <molecular_refractivity>
50.18

>  <oscillator_strength_1>
0.0055

>  <oscillator_strength_2>
0.0007

>  <oscillator_strength_3>
0.0219

>  <oscillator_strength_4>
0.0195

>  <open_babel_can_smiles>
CC(CC[C@H](C(C)C)C)C

>  <mulliken_charges>
32
1   -0.44178
2   -0.445034
3   -0.449301
4   -0.453696
5   -0.457656
6   -0.254371
7   -0.263819
8   -0.0668
9   -0.068074
10   -0.067316
11   0.138352
12   0.137534
13   0.138502
14   0.13895
15   0.145202
16   0.136434
17   0.138181
18   0.141781
19   0.137704
20   0.138874
21   0.143632
22   0.142208
23   0.138606
24   0.143465
25   0.141879
26   0.129193
27   0.123758
28   0.132525
29   0.123722
30   0.118771
31   0.125965
32   0.112609

>  <lowdin_charges>
32
1   -0.446581
2   -0.449298
3   -0.447433
4   -0.451144
5   -0.450692
6   -0.280697
7   -0.281503
8   -0.12119
9   -0.125747
10   -0.125132
11   0.14751
12   0.145663
13   0.147559
14   0.148149
15   0.149718
16   0.145308
17   0.148369
18   0.145814
19   0.146265
20   0.149565
21   0.147986
22   0.147127
23   0.149339
24   0.149442
25   0.146173
26   0.139096
27   0.139039
28   0.13945
29   0.140505
30   0.134658
31   0.139533
32   0.133148

$$$$

