PCCDB-ID:  7005
public computational chemistry database (PCCDB) project, http://pccdb.org

 19 20  0  0  0  0  0  0  0  0999 V2000
    2.4213    0.7321   -0.0172 C   0  0  0  0  0  0  0  0  0  0  0  0
    2.4459   -0.6821    0.0332 C   0  0  0  0  0  0  0  0  0  0  0  0
   -2.4395    0.6602   -0.0050 C   0  0  0  0  0  0  0  0  0  0  0  0
    1.2206    1.4058   -0.0382 C   0  0  0  0  0  0  0  0  0  0  0  0
   -1.2668    1.3776   -0.0333 C   0  0  0  0  0  0  0  0  0  0  0  0
    1.2689   -1.3977    0.0600 C   0  0  0  0  0  0  0  0  0  0  0  0
   -2.4232   -0.7537    0.0447 C   0  0  0  0  0  0  0  0  0  0  0  0
   -0.0146    0.7042   -0.0110 C   0  0  0  0  0  0  0  0  0  0  0  0
    0.0188   -0.7267    0.0395 C   0  0  0  0  0  0  0  0  0  0  0  0
   -1.2223   -1.4327    0.0671 C   0  0  0  0  0  0  0  0  0  0  0  0
   -1.1423   -2.7981    0.1167 O   0  0  0  0  0  0  0  0  0  0  0  0
    3.3560    1.2861   -0.0381 H   0  0  0  0  0  0  0  0  0  0  0  0
    3.3989   -1.2038    0.0496 H   0  0  0  0  0  0  0  0  0  0  0  0
   -3.3966    1.1745   -0.0211 H   0  0  0  0  0  0  0  0  0  0  0  0
    1.1998    2.4925   -0.0755 H   0  0  0  0  0  0  0  0  0  0  0  0
   -1.2813    2.4636   -0.0714 H   0  0  0  0  0  0  0  0  0  0  0  0
    1.2795   -2.4815    0.0983 H   0  0  0  0  0  0  0  0  0  0  0  0
   -3.3605   -1.3068    0.0672 H   0  0  0  0  0  0  0  0  0  0  0  0
   -2.0410   -3.1623    0.1234 H   0  0  0  0  0  0  0  0  0  0  0  0
  1  2  1  0  0  0  0
  2 13  1  0  0  0  0
  2  6  2  0  0  0  0
  3  7  2  0  0  0  0
  4  1  2  0  0  0  0
  4  8  1  0  0  0  0
  5  8  2  0  0  0  0
  5  3  1  0  0  0  0
  6 17  1  0  0  0  0
  7 10  1  0  0  0  0
  7 18  1  0  0  0  0
  8  9  1  0  0  0  0
  9  6  1  0  0  0  0
  9 10  2  0  0  0  0
 10 11  1  0  0  0  0
 11 19  1  0  0  0  0
 12  1  1  0  0  0  0
 14  3  1  0  0  0  0
 15  4  1  0  0  0  0
 16  5  1  0  0  0  0
M  END
>  <HBA>
1

>  <HBD>
1

>  <TPSA>
20.23

>  <cid>
7005

>  <dipole>
1.3

>  <excitation_energy_1>
4.154

>  <excitation_energy_2>
4.351

>  <excitation_energy_3>
4.75

>  <excitation_energy_4>
5.323

>  <homo_energy>
-5.423

>  <homo_lumo_gap>
4.659

>  <logP>
2.545

>  <lumo_energy>
-0.765

>  <melting_point>
88.63

>  <molecular_refractivity>
45.97

>  <oscillator_strength_1>
0.0733

>  <oscillator_strength_2>
0.0245

>  <oscillator_strength_3>
0.0

>  <oscillator_strength_4>
0.0006

>  <open_babel_can_smiles>
Oc1cccc2c1cccc2

>  <mulliken_charges>
19
1   -0.129374
2   -0.138613
3   -0.140209
4   -0.199808
5   -0.1933
6   -0.171364
7   -0.202085
8   0.132391
9   0.081046
10   0.28877
11   -0.641997
12   0.12845
13   0.128507
14   0.129401
15   0.128334
16   0.124861
17   0.151146
18   0.114258
19   0.409586

>  <lowdin_charges>
19
1   -0.156459
2   -0.161295
3   -0.148523
4   -0.156207
5   -0.178023
6   -0.146451
7   -0.226851
8   0.007242
9   -0.025647
10   0.105681
11   -0.377011
12   0.15804
13   0.157866
14   0.158811
15   0.154926
16   0.15477
17   0.167719
18   0.152831
19   0.358581

$$$$

