PCCDB-ID:  6766
public computational chemistry database (PCCDB) project, http://pccdb.org

 32 34  0  0  0  0  0  0  0  0999 V2000
   -1.7612    0.4989   -2.4717 C   0  0  0  0  0  0  0  0  0  0  0  0
    0.7670    5.4070    0.7179 C   0  0  0  0  0  0  0  0  0  0  0  0
   -0.8753    1.5332   -2.7821 C   0  0  0  0  0  0  0  0  0  0  0  0
   -1.3653   -0.5015   -1.5833 C   0  0  0  0  0  0  0  0  0  0  0  0
    0.1711    4.1967    1.0798 C   0  0  0  0  0  0  0  0  0  0  0  0
    2.0060    5.3979    0.0762 C   0  0  0  0  0  0  0  0  0  0  0  0
    4.2478   -0.7053   -0.3977 C   0  0  0  0  0  0  0  0  0  0  0  0
    4.8378    0.4044    0.2056 C   0  0  0  0  0  0  0  0  0  0  0  0
    0.3936    1.5698   -2.2067 C   0  0  0  0  0  0  0  0  0  0  0  0
   -0.0931   -0.4668   -1.0112 C   0  0  0  0  0  0  0  0  0  0  0  0
    0.8059    2.9879    0.7999 C   0  0  0  0  0  0  0  0  0  0  0  0
    2.6430    4.1875   -0.1997 C   0  0  0  0  0  0  0  0  0  0  0  0
    2.9364   -0.6184   -0.8587 C   0  0  0  0  0  0  0  0  0  0  0  0
    4.1018    1.5779    0.3498 C   0  0  0  0  0  0  0  0  0  0  0  0
    0.8058    0.5704   -1.3099 C   0  0  0  0  0  0  0  0  0  0  0  0
    2.0527    2.9630    0.1534 C   0  0  0  0  0  0  0  0  0  0  0  0
    2.1813    0.5599   -0.7315 C   0  0  0  0  0  0  0  0  0  0  0  0
    2.7746    1.6818   -0.0999 C   0  0  0  0  0  0  0  0  0  0  0  0
   -2.7510    0.4732   -2.9197 H   0  0  0  0  0  0  0  0  0  0  0  0
    0.2695    6.3484    0.9352 H   0  0  0  0  0  0  0  0  0  0  0  0
   -1.1716    2.3134   -3.4784 H   0  0  0  0  0  0  0  0  0  0  0  0
   -2.0469   -1.3100   -1.3320 H   0  0  0  0  0  0  0  0  0  0  0  0
   -0.7905    4.1933    1.5863 H   0  0  0  0  0  0  0  0  0  0  0  0
    2.4782    6.3332   -0.2134 H   0  0  0  0  0  0  0  0  0  0  0  0
    4.8053   -1.6302   -0.5189 H   0  0  0  0  0  0  0  0  0  0  0  0
    5.8598    0.3564    0.5716 H   0  0  0  0  0  0  0  0  0  0  0  0
    1.0771    2.3745   -2.4588 H   0  0  0  0  0  0  0  0  0  0  0  0
    0.2063   -1.2433   -0.3120 H   0  0  0  0  0  0  0  0  0  0  0  0
    0.3373    2.0528    1.0905 H   0  0  0  0  0  0  0  0  0  0  0  0
    3.6034    4.1863   -0.7088 H   0  0  0  0  0  0  0  0  0  0  0  0
    2.4866   -1.4703   -1.3610 H   0  0  0  0  0  0  0  0  0  0  0  0
    4.5472    2.4327    0.8513 H   0  0  0  0  0  0  0  0  0  0  0  0
  1  4  1  0  0  0  0
  2 20  1  0  0  0  0
  2  5  2  0  0  0  0
  3  1  2  0  0  0  0
  3  9  1  0  0  0  0
  4 22  1  0  0  0  0
  4 10  2  0  0  0  0
  5 23  1  0  0  0  0
  6  2  1  0  0  0  0
  7  8  2  0  0  0  0
  8 14  1  0  0  0  0
  8 26  1  0  0  0  0
  9 15  2  0  0  0  0
 10 28  1  0  0  0  0
 11  5  1  0  0  0  0
 11 29  1  0  0  0  0
 12  6  2  0  0  0  0
 12 16  1  0  0  0  0
 13 17  2  0  0  0  0
 13  7  1  0  0  0  0
 14 32  1  0  0  0  0
 15 10  1  0  0  0  0
 15 17  1  0  0  0  0
 16 11  2  0  0  0  0
 17 18  1  0  0  0  0
 18 16  1  0  0  0  0
 18 14  2  0  0  0  0
 19  1  1  0  0  0  0
 21  3  1  0  0  0  0
 24  6  1  0  0  0  0
 25  7  1  0  0  0  0
 27  9  1  0  0  0  0
 30 12  1  0  0  0  0
 31 13  1  0  0  0  0
M  END
>  <HBA>
0

>  <HBD>
0

>  <TPSA>
0.0

>  <cid>
6766

>  <dipole>
0.11

>  <excitation_energy_1>
4.523

>  <excitation_energy_2>
4.645

>  <excitation_energy_3>
4.847

>  <excitation_energy_4>
5.021

>  <homo_energy>
-5.891

>  <homo_lumo_gap>
5.162

>  <logP>
5.021

>  <lumo_energy>
-0.729

>  <melting_point>
78.86

>  <molecular_refractivity>
77.31

>  <oscillator_strength_1>
0.2053

>  <oscillator_strength_2>
0.0049

>  <oscillator_strength_3>
0.0016

>  <oscillator_strength_4>
0.0176

>  <open_babel_can_smiles>
c1ccc(cc1)c1ccccc1c1ccccc1

>  <mulliken_charges>
32
1   -0.126583
2   -0.126748
3   -0.135119
4   -0.1347
5   -0.135024
6   -0.134789
7   -0.128715
8   -0.129036
9   -0.150116
10   -0.170775
11   -0.149425
12   -0.17009
13   -0.178055
14   -0.17759
15   0.058366
16   0.056974
17   0.042095
18   0.041497
19   0.12799
20   0.128089
21   0.130358
22   0.128679
23   0.130394
24   0.128729
25   0.130173
26   0.130257
27   0.139606
28   0.131428
29   0.139451
30   0.131436
31   0.13562
32   0.135622

>  <lowdin_charges>
32
1   -0.15758
2   -0.159064
3   -0.155582
4   -0.158521
5   -0.153676
6   -0.158088
7   -0.157307
8   -0.155141
9   -0.152818
10   -0.167
11   -0.152343
12   -0.165115
13   -0.15968
14   -0.159612
15   -0.00327
16   -0.003579
17   -0.006331
18   -0.007187
19   0.15646
20   0.15737
21   0.158862
22   0.158042
23   0.157587
24   0.157513
25   0.158678
26   0.157331
27   0.164883
28   0.159355
29   0.164215
30   0.158077
31   0.161772
32   0.161747

$$$$

