PCCDB-ID:  14305
public computational chemistry database (PCCDB) project, http://pccdb.org

 23 24  0  0  0  0  0  0  0  0999 V2000
   -2.4865    0.6786   -0.3509 C   0  0  0  0  0  0  0  0  0  0  0  0
   -2.4838   -0.6853    0.3486 C   0  0  0  0  0  0  0  0  0  0  0  0
   -1.2610    1.4969    0.0755 C   0  0  0  0  0  0  0  0  0  0  0  0
   -1.2514   -1.4975   -0.0690 C   0  0  0  0  0  0  0  0  0  0  0  0
    1.2639    1.3786    0.0260 C   0  0  0  0  0  0  0  0  0  0  0  0
    2.4775    0.6968    0.0096 C   0  0  0  0  0  0  0  0  0  0  0  0
    1.2617   -1.3889   -0.0282 C   0  0  0  0  0  0  0  0  0  0  0  0
    0.0358    0.7059    0.0172 C   0  0  0  0  0  0  0  0  0  0  0  0
    0.0431   -0.7020   -0.0138 C   0  0  0  0  0  0  0  0  0  0  0  0
    2.4747   -0.7015   -0.0165 C   0  0  0  0  0  0  0  0  0  0  0  0
    3.6263   -1.4450   -0.0326 O   0  0  0  0  0  0  0  0  0  0  0  0
   -3.4041    1.2334   -0.1198 H   0  0  0  0  0  0  0  0  0  0  0  0
   -2.4727    0.5276   -1.4397 H   0  0  0  0  0  0  0  0  0  0  0  0
   -3.3958   -1.2471    0.1130 H   0  0  0  0  0  0  0  0  0  0  0  0
   -2.4778   -0.5338    1.4375 H   0  0  0  0  0  0  0  0  0  0  0  0
   -1.4190    1.8547    1.1051 H   0  0  0  0  0  0  0  0  0  0  0  0
   -1.1724    2.3995   -0.5432 H   0  0  0  0  0  0  0  0  0  0  0  0
   -1.3972   -1.8587   -1.0987 H   0  0  0  0  0  0  0  0  0  0  0  0
   -1.1570   -2.3974    0.5520 H   0  0  0  0  0  0  0  0  0  0  0  0
    1.2706    2.4667    0.0464 H   0  0  0  0  0  0  0  0  0  0  0  0
    3.4182    1.2451    0.0168 H   0  0  0  0  0  0  0  0  0  0  0  0
    1.2812   -2.4754   -0.0497 H   0  0  0  0  0  0  0  0  0  0  0  0
    4.3856   -0.8422   -0.0158 H   0  0  0  0  0  0  0  0  0  0  0  0
  1 12  1  0  0  0  0
  1  3  1  0  0  0  0
  1  2  1  0  0  0  0
  2 15  1  0  0  0  0
  3 16  1  0  0  0  0
  4  9  1  0  0  0  0
  4  2  1  0  0  0  0
  4 19  1  0  0  0  0
  5 20  1  0  0  0  0
  6 21  1  0  0  0  0
  6  5  2  0  0  0  0
  7 10  2  0  0  0  0
  7  9  1  0  0  0  0
  8  5  1  0  0  0  0
  8  3  1  0  0  0  0
  9  8  2  0  0  0  0
 10  6  1  0  0  0  0
 11 10  1  0  0  0  0
 11 23  1  0  0  0  0
 13  1  1  0  0  0  0
 14  2  1  0  0  0  0
 17  3  1  0  0  0  0
 18  4  1  0  0  0  0
 22  7  1  0  0  0  0
M  END
>  <HBA>
1

>  <HBD>
1

>  <TPSA>
20.23

>  <cid>
14305

>  <dipole>
1.15

>  <excitation_energy_1>
4.814

>  <excitation_energy_2>
5.009

>  <excitation_energy_3>
5.382

>  <excitation_energy_4>
5.604

>  <homo_energy>
-5.638

>  <homo_lumo_gap>
5.728

>  <logP>
2.271

>  <lumo_energy>
0.09

>  <melting_point>
74.22

>  <molecular_refractivity>
45.9

>  <oscillator_strength_1>
0.0409

>  <oscillator_strength_2>
0.0008

>  <oscillator_strength_3>
0.0249

>  <oscillator_strength_4>
0.0093

>  <open_babel_can_smiles>
Oc1ccc2c(c1)CCCC2

>  <mulliken_charges>
23
1   -0.264946
2   -0.265813
3   -0.338881
4   -0.340566
5   -0.196125
6   -0.194515
7   -0.227138
8   0.12064
9   0.117724
10   0.35342
11   -0.648296
12   0.131347
13   0.135739
14   0.132067
15   0.136378
16   0.146219
17   0.14069
18   0.151105
19   0.145693
20   0.119715
21   0.113024
22   0.127775
23   0.404743

>  <lowdin_charges>
23
1   -0.274412
2   -0.274684
3   -0.274139
4   -0.274931
5   -0.150923
6   -0.218371
7   -0.194074
8   -0.036887
9   -0.003487
10   0.099411
11   -0.384423
12   0.144716
13   0.138848
14   0.145217
15   0.139193
16   0.146999
17   0.149497
18   0.150785
19   0.152439
20   0.151481
21   0.150981
22   0.160212
23   0.356553

$$$$

