PCCDB-ID:  69757
public computational chemistry database (PCCDB) project, http://pccdb.org

 28 29  0  0  0  0  0  0  0  0999 V2000
    3.4941   -1.2443    0.0361 C   0  0  0  0  0  0  0  0  0  0  0  0
   -0.2599    3.8070   -8.5967 C   0  0  0  0  0  0  0  0  0  0  0  0
   -0.2069    4.5799   -7.4352 C   0  0  0  0  0  0  0  0  0  0  0  0
    0.2428    2.5047   -8.5796 C   0  0  0  0  0  0  0  0  0  0  0  0
    0.3447    4.0555   -6.2675 C   0  0  0  0  0  0  0  0  0  0  0  0
    0.7926    1.9799   -7.4113 C   0  0  0  0  0  0  0  0  0  0  0  0
    1.2571    0.8367   -4.6464 C   0  0  0  0  0  0  0  0  0  0  0  0
    2.2016    2.9934   -4.1234 C   0  0  0  0  0  0  0  0  0  0  0  0
    1.8079    0.3081   -3.4837 C   0  0  0  0  0  0  0  0  0  0  0  0
    2.7526    2.4708   -2.9598 C   0  0  0  0  0  0  0  0  0  0  0  0
    0.8540    2.7460   -6.2345 C   0  0  0  0  0  0  0  0  0  0  0  0
    1.4420    2.1876   -4.9913 C   0  0  0  0  0  0  0  0  0  0  0  0
    2.5620    1.1229   -2.6281 C   0  0  0  0  0  0  0  0  0  0  0  0
    3.1768    0.6180   -1.3706 C   0  0  0  0  0  0  0  0  0  0  0  0
    3.8339    1.2950   -0.6032 O   0  0  0  0  0  0  0  0  0  0  0  0
    2.9266   -0.6970   -1.1629 O   0  0  0  0  0  0  0  0  0  0  0  0
    3.1885   -2.2910    0.0528 H   0  0  0  0  0  0  0  0  0  0  0  0
    3.1152   -0.7183    0.9164 H   0  0  0  0  0  0  0  0  0  0  0  0
    4.5843   -1.1624    0.0177 H   0  0  0  0  0  0  0  0  0  0  0  0
   -0.6888    4.2162   -9.5073 H   0  0  0  0  0  0  0  0  0  0  0  0
   -0.6035    5.5917   -7.4351 H   0  0  0  0  0  0  0  0  0  0  0  0
    0.2147    1.8974   -9.4805 H   0  0  0  0  0  0  0  0  0  0  0  0
    0.3565    4.6565   -5.3627 H   0  0  0  0  0  0  0  0  0  0  0  0
    1.2055    0.9751   -7.4168 H   0  0  0  0  0  0  0  0  0  0  0  0
    0.6512    0.2008   -5.2853 H   0  0  0  0  0  0  0  0  0  0  0  0
    2.3824    4.0330   -4.3802 H   0  0  0  0  0  0  0  0  0  0  0  0
    1.6474   -0.7334   -3.2287 H   0  0  0  0  0  0  0  0  0  0  0  0
    3.3459    3.0909   -2.2957 H   0  0  0  0  0  0  0  0  0  0  0  0
  1 17  1  0  0  0  0
  1 18  1  0  0  0  0
  2  4  2  0  0  0  0
  2  3  1  0  0  0  0
  3 21  1  0  0  0  0
  3  5  2  0  0  0  0
  4  6  1  0  0  0  0
  5 11  1  0  0  0  0
  5 23  1  0  0  0  0
  6 11  2  0  0  0  0
  7  9  1  0  0  0  0
  8 10  2  0  0  0  0
  9 27  1  0  0  0  0
  9 13  2  0  0  0  0
 10 13  1  0  0  0  0
 10 28  1  0  0  0  0
 11 12  1  0  0  0  0
 12  7  2  0  0  0  0
 12  8  1  0  0  0  0
 13 14  1  0  0  0  0
 14 16  1  0  0  0  0
 14 15  2  0  0  0  0
 16  1  1  0  0  0  0
 19  1  1  0  0  0  0
 20  2  1  0  0  0  0
 22  4  1  0  0  0  0
 24  6  1  0  0  0  0
 25  7  1  0  0  0  0
 26  8  1  0  0  0  0
M  END
>  <HBA>
2

>  <HBD>
0

>  <TPSA>
26.3

>  <cid>
69757

>  <dipole>
2.1

>  <excitation_energy_1>
4.375

>  <excitation_energy_2>
4.666

>  <excitation_energy_3>
4.718

>  <excitation_energy_4>
4.784

>  <homo_energy>
-6.278

>  <homo_lumo_gap>
4.83

>  <logP>
3.14

>  <lumo_energy>
-1.448

>  <melting_point>
67.54

>  <molecular_refractivity>
63.16

>  <oscillator_strength_1>
0.6385

>  <oscillator_strength_2>
0.0062

>  <oscillator_strength_3>
0.0092

>  <oscillator_strength_4>
0.0023

>  <open_babel_can_smiles>
COC(=O)c1ccc(cc1)c1ccccc1

>  <mulliken_charges>
28
1   -0.215497
2   -0.124908
3   -0.133737
4   -0.133769
5   -0.172607
6   -0.172458
7   -0.183001
8   -0.184124
9   -0.166558
10   -0.160287
11   0.088459
12   0.100671
13   0.057446
14   0.589217
15   -0.492528
16   -0.468171
17   0.162838
18   0.171422
19   0.170795
20   0.132592
21   0.133599
22   0.133244
23   0.135962
24   0.134842
25   0.137778
26   0.139375
27   0.156145
28   0.16326

>  <lowdin_charges>
28
1   -0.274147
2   -0.15466
3   -0.151581
4   -0.15421
5   -0.159627
6   -0.157567
7   -0.164762
8   -0.160733
9   -0.13621
10   -0.130176
11   -0.00391
12   0.01423
13   -0.048442
14   0.197962
15   -0.271846
16   -0.194358
17   0.15801
18   0.160578
19   0.157405
20   0.159887
21   0.158625
22   0.159888
23   0.161283
24   0.159453
25   0.16361
26   0.161633
27   0.170991
28   0.178673

$$$$

