PCCDB-ID:  51815
public computational chemistry database (PCCDB) project, http://pccdb.org

 23 23  0  0  0  0  0  0  0  0999 V2000
    0.3550    1.5354   -0.3842 C   0  0  0  0  0  0  0  0  0  0  0  0
    1.1740    0.2571   -0.1487 C   0  0  0  0  0  0  0  0  0  0  0  0
   -1.0162    1.4406    0.3005 C   0  0  0  0  0  0  0  0  0  0  0  0
    0.3732   -0.9893   -0.5485 C   0  0  0  0  0  0  0  0  0  0  0  0
   -1.7586    0.1624   -0.1127 C   0  0  0  0  0  0  0  0  0  0  0  0
   -3.4938   -1.4946    1.8891 C   0  0  0  0  0  0  0  0  0  0  0  0
   -2.3525   -3.5692    2.4273 C   0  0  0  0  0  0  0  0  0  0  0  0
   -1.2437   -2.0596    0.9287 C   0  0  0  0  0  0  0  0  0  0  0  0
   -2.3544   -2.3312    1.7136 C   0  0  0  0  0  0  0  0  0  0  0  0
   -4.4318   -0.8205    2.0496 N   0  0  0  0  0  0  0  0  0  0  0  0
   -2.3394   -4.5811    3.0049 N   0  0  0  0  0  0  0  0  0  0  0  0
   -0.9262   -1.0243    0.1396 N   0  0  0  0  0  0  0  0  0  0  0  0
    0.2125    1.6810   -1.4649 H   0  0  0  0  0  0  0  0  0  0  0  0
    0.9048    2.4102   -0.0194 H   0  0  0  0  0  0  0  0  0  0  0  0
    1.4485    0.1776    0.9112 H   0  0  0  0  0  0  0  0  0  0  0  0
    2.1068    0.2798   -0.7249 H   0  0  0  0  0  0  0  0  0  0  0  0
   -1.6387    2.3058    0.0448 H   0  0  0  0  0  0  0  0  0  0  0  0
   -0.8950    1.4426    1.3914 H   0  0  0  0  0  0  0  0  0  0  0  0
    0.9208   -1.9053   -0.3119 H   0  0  0  0  0  0  0  0  0  0  0  0
    0.1876   -0.9835   -1.6326 H   0  0  0  0  0  0  0  0  0  0  0  0
   -1.9789    0.1863   -1.1899 H   0  0  0  0  0  0  0  0  0  0  0  0
   -2.7046    0.0694    0.4148 H   0  0  0  0  0  0  0  0  0  0  0  0
   -0.4777   -2.8299    0.9529 H   0  0  0  0  0  0  0  0  0  0  0  0
  1  2  1  0  0  0  0
  1 14  1  0  0  0  0
  1  3  1  0  0  0  0
  2 15  1  0  0  0  0
  3 18  1  0  0  0  0
  4 19  1  0  0  0  0
  4  2  1  0  0  0  0
  4 12  1  0  0  0  0
  5 12  1  0  0  0  0
  5  3  1  0  0  0  0
  5 22  1  0  0  0  0
  6 10  3  0  0  0  0
  7 11  3  0  0  0  0
  8 23  1  0  0  0  0
  8  9  2  0  0  0  0
  9  6  1  0  0  0  0
  9  7  1  0  0  0  0
 12  8  1  0  0  0  0
 13  1  1  0  0  0  0
 16  2  1  0  0  0  0
 17  3  1  0  0  0  0
 20  4  1  0  0  0  0
 21  5  1  0  0  0  0
M  END
>  <HBA>
3

>  <HBD>
0

>  <TPSA>
50.82

>  <cid>
51815

>  <dipole>
9.08

>  <excitation_energy_1>
4.733

>  <excitation_energy_2>
5.007

>  <excitation_energy_3>
5.309

>  <excitation_energy_4>
5.834

>  <homo_energy>
-6.212

>  <homo_lumo_gap>
5.021

>  <logP>
1.341

>  <lumo_energy>
-1.192

>  <melting_point>
77.67

>  <molecular_refractivity>
49.1

>  <oscillator_strength_1>
0.4873

>  <oscillator_strength_2>
0.0093

>  <oscillator_strength_3>
0.0095

>  <oscillator_strength_4>
0.0071

>  <open_babel_can_smiles>
N#CC(=CN1CCCCC1)C#N

>  <mulliken_charges>
23
1   -0.272675
2   -0.2639
3   -0.264854
4   -0.157208
5   -0.18301
6   0.298597
7   0.256231
8   0.090969
9   0.06673
10   -0.51793
11   -0.48317
12   -0.369525
13   0.139566
14   0.154296
15   0.153084
16   0.152699
17   0.158142
18   0.157897
19   0.167853
20   0.16143
21   0.160708
22   0.208316
23   0.185751

>  <lowdin_charges>
23
1   -0.279279
2   -0.282565
3   -0.279901
4   -0.189645
5   -0.202289
6   -0.012957
7   -0.013411
8   -0.03296
9   -0.135761
10   -0.137872
11   -0.137237
12   -0.047536
13   0.141628
14   0.15665
15   0.149831
16   0.157063
17   0.160818
18   0.151817
19   0.162079
20   0.148887
21   0.150698
22   0.187708
23   0.184235

$$$$

