PCCDB-ID:  10667
public computational chemistry database (PCCDB) project, http://pccdb.org

 18 19  0  0  0  0  0  0  0  0999 V2000
   -2.4417   -0.7088   -0.0190 C   0  0  0  0  0  0  0  0  0  0  0  0
   -2.4668    0.6879   -0.0400 C   0  0  0  0  0  0  0  0  0  0  0  0
   -1.2238   -1.3904    0.0072 C   0  0  0  0  0  0  0  0  0  0  0  0
   -1.2688    1.4029   -0.0349 C   0  0  0  0  0  0  0  0  0  0  0  0
    1.2660   -1.3921    0.0389 C   0  0  0  0  0  0  0  0  0  0  0  0
    2.4622   -0.7667    0.0428 C   0  0  0  0  0  0  0  0  0  0  0  0
   -0.0133   -0.6855    0.0122 C   0  0  0  0  0  0  0  0  0  0  0  0
   -0.0460    0.7288   -0.0096 C   0  0  0  0  0  0  0  0  0  0  0  0
    2.5586    0.6994    0.0221 C   0  0  0  0  0  0  0  0  0  0  0  0
    1.2252    1.5026   -0.0066 C   0  0  0  0  0  0  0  0  0  0  0  0
    3.6208    1.2974    0.0266 O   0  0  0  0  0  0  0  0  0  0  0  0
    1.2589    2.7192   -0.0248 O   0  0  0  0  0  0  0  0  0  0  0  0
   -3.3722   -1.2696   -0.0228 H   0  0  0  0  0  0  0  0  0  0  0  0
   -3.4156    1.2159   -0.0601 H   0  0  0  0  0  0  0  0  0  0  0  0
   -1.2090   -2.4772    0.0239 H   0  0  0  0  0  0  0  0  0  0  0  0
   -1.2585    2.4883   -0.0504 H   0  0  0  0  0  0  0  0  0  0  0  0
    1.2245   -2.4796    0.0564 H   0  0  0  0  0  0  0  0  0  0  0  0
    3.3989   -1.3158    0.0622 H   0  0  0  0  0  0  0  0  0  0  0  0
  1  3  2  0  0  0  0
  2  4  2  0  0  0  0
  2  1  1  0  0  0  0
  3  7  1  0  0  0  0
  3 15  1  0  0  0  0
  4  8  1  0  0  0  0
  5  6  2  0  0  0  0
  5 17  1  0  0  0  0
  6 18  1  0  0  0  0
  7  5  1  0  0  0  0
  8 10  1  0  0  0  0
  8  7  2  0  0  0  0
  9 11  2  0  0  0  0
  9  6  1  0  0  0  0
 10  9  1  0  0  0  0
 12 10  2  0  0  0  0
 13  1  1  0  0  0  0
 14  2  1  0  0  0  0
 16  4  1  0  0  0  0
M  END
>  <HBA>
2

>  <HBD>
0

>  <TPSA>
34.14

>  <cid>
10667

>  <dipole>
6.07

>  <excitation_energy_1>
2.085

>  <excitation_energy_2>
3.007

>  <excitation_energy_3>
3.304

>  <excitation_energy_4>
3.723

>  <homo_energy>
-6.631

>  <homo_lumo_gap>
3.44

>  <logP>
1.465

>  <lumo_energy>
-3.192

>  <melting_point>
106.71

>  <molecular_refractivity>
44.81

>  <oscillator_strength_1>
0.0

>  <oscillator_strength_2>
0.053

>  <oscillator_strength_3>
0.0

>  <oscillator_strength_4>
0.0592

>  <open_babel_can_smiles>
O=C1C=Cc2c(C1=O)cccc2

>  <mulliken_charges>
18
1   -0.116996
2   -0.129886
3   -0.20698
4   -0.163018
5   -0.157934
6   -0.187693
7   0.136689
8   0.038383
9   0.393245
10   0.327518
11   -0.433087
12   -0.42786
13   0.147601
14   0.148628
15   0.145262
16   0.172997
17   0.153628
18   0.159502

>  <lowdin_charges>
18
1   -0.134358
2   -0.14615
3   -0.147958
4   -0.113396
5   -0.11169
6   -0.190439
7   -0.002068
8   -0.048028
9   0.121639
10   0.123641
11   -0.186378
12   -0.184398
13   0.167175
14   0.167451
15   0.162237
16   0.17913
17   0.166496
18   0.177093

$$$$

