PCCDB-ID:  35028
public computational chemistry database (PCCDB) project, http://pccdb.org

 27 27  0  0  0  0  0  0  0  0999 V2000
    2.6903    0.8243    0.5598 C   0  0  0  0  0  0  0  0  0  0  0  0
    4.1439   -7.1861   -3.0863 C   0  0  0  0  0  0  0  0  0  0  0  0
    3.7656    1.4265    0.0559 C   0  0  0  0  0  0  0  0  0  0  0  0
    5.2905   -6.8777   -3.6888 C   0  0  0  0  0  0  0  0  0  0  0  0
    4.8012    0.8048   -0.8298 C   0  0  0  0  0  0  0  0  0  0  0  0
    5.9744   -5.5458   -3.6767 C   0  0  0  0  0  0  0  0  0  0  0  0
    7.1671   -1.6372   -3.1829 C   0  0  0  0  0  0  0  0  0  0  0  0
    5.3083   -1.2635   -1.8472 C   0  0  0  0  0  0  0  0  0  0  0  0
    5.6999   -3.3761   -2.7963 C   0  0  0  0  0  0  0  0  0  0  0  0
    8.2367   -1.2356   -3.7549 N   0  0  0  0  0  0  0  0  0  0  0  0
    6.3685   -0.7784   -2.3753 N   0  0  0  0  0  0  0  0  0  0  0  0
    6.7739   -2.9825   -3.3637 N   0  0  0  0  0  0  0  0  0  0  0  0
    4.8929   -2.5689   -2.0130 N   0  0  0  0  0  0  0  0  0  0  0  0
    4.4651   -0.5755   -1.0689 O   0  0  0  0  0  0  0  0  0  0  0  0
    5.2092   -4.6178   -2.8819 O   0  0  0  0  0  0  0  0  0  0  0  0
    1.9929    1.3624    1.1946 H   0  0  0  0  0  0  0  0  0  0  0  0
    2.4706   -0.2186    0.3563 H   0  0  0  0  0  0  0  0  0  0  0  0
    3.7253   -8.1856   -3.1557 H   0  0  0  0  0  0  0  0  0  0  0  0
    3.5868   -6.4559   -2.5084 H   0  0  0  0  0  0  0  0  0  0  0  0
    3.9595    2.4756    0.2776 H   0  0  0  0  0  0  0  0  0  0  0  0
    5.8268   -7.6331   -4.2627 H   0  0  0  0  0  0  0  0  0  0  0  0
    5.7985    0.8535   -0.3757 H   0  0  0  0  0  0  0  0  0  0  0  0
    4.8692    1.3253   -1.7931 H   0  0  0  0  0  0  0  0  0  0  0  0
    6.0827   -5.1396   -4.6897 H   0  0  0  0  0  0  0  0  0  0  0  0
    6.9871   -5.6173   -3.2614 H   0  0  0  0  0  0  0  0  0  0  0  0
    8.3678   -0.2482   -3.5194 H   0  0  0  0  0  0  0  0  0  0  0  0
    4.0543   -2.9204   -1.5727 H   0  0  0  0  0  0  0  0  0  0  0  0
  1 16  1  0  0  0  0
  2 19  1  0  0  0  0
  3 20  1  0  0  0  0
  3  1  2  0  0  0  0
  4  6  1  0  0  0  0
  4  2  2  0  0  0  0
  5 22  1  0  0  0  0
  5  3  1  0  0  0  0
  6 25  1  0  0  0  0
  6 15  1  0  0  0  0
  7 11  2  0  0  0  0
  8 14  1  0  0  0  0
  9 13  1  0  0  0  0
 10 26  1  0  0  0  0
 10  7  1  0  0  0  0
 11  8  2  0  0  0  0
 12  7  2  0  0  0  0
 12  9  2  0  0  0  0
 13  8  1  0  0  0  0
 13 27  1  0  0  0  0
 14  5  1  0  0  0  0
 15  9  1  0  0  0  0
 17  1  1  0  0  0  0
 18  2  1  0  0  0  0
 21  4  1  0  0  0  0
 23  5  1  0  0  0  0
 24  6  1  0  0  0  0
M  RAD  1  10   2
M  END
>  <HBA>
6

>  <HBD>
1

>  <TPSA>
83.15

>  <cid>
35028

>  <dipole>
5.15

>  <excitation_energy_1>
5.081

>  <excitation_energy_2>
5.382

>  <excitation_energy_3>
5.591

>  <excitation_energy_4>
5.618

>  <homo_energy>
-6.041

>  <homo_lumo_gap>
6.041

>  <logP>
1.165

>  <lumo_energy>
0.0

>  <melting_point>
67.35

>  <molecular_refractivity>
55.5

>  <oscillator_strength_1>
0.0003

>  <oscillator_strength_2>
0.0006

>  <oscillator_strength_3>
0.0047

>  <oscillator_strength_4>
0.004

>  <open_babel_can_smiles>
C=CCOC1=[N]=[C](=[N]=C(N1)OCC=C)[NH]

>  <mulliken_charges>
27
1   -0.315376
2   -0.316628
3   -0.104113
4   -0.103657
5   -0.054323
6   -0.056921
7   0.520313
8   0.783916
9   0.780766
10   -0.616862
11   -0.532322
12   -0.497079
13   -0.714054
14   -0.50625
15   -0.508567
16   0.147331
17   0.149494
18   0.145898
19   0.14767
20   0.143433
21   0.143548
22   0.179309
23   0.179077
24   0.184529
25   0.182836
26   0.28065
27   0.357383

>  <lowdin_charges>
27
1   -0.329226
2   -0.332398
3   -0.16184
4   -0.163755
5   -0.112951
6   -0.113888
7   0.106707
8   0.182619
9   0.178973
10   -0.395187
11   -0.253721
12   -0.217043
13   -0.238026
14   -0.178812
15   -0.179289
16   0.165628
17   0.16126
18   0.163053
19   0.162987
20   0.161244
21   0.164142
22   0.165386
23   0.165947
24   0.168118
25   0.167228
26   0.250413
27   0.312434

$$$$

