PCCDB-ID:  10747
public computational chemistry database (PCCDB) project, http://pccdb.org

 23 24  0  0  1  0  0  0  0  0999 V2000
    2.4775    0.7021    0.0107 C   0  0  0  0  0  0  0  0  0  0  0  0
    2.4783   -0.6947   -0.0088 C   0  0  0  0  0  0  0  0  0  0  0  0
    1.2659    1.3876    0.0210 C   0  0  0  0  0  0  0  0  0  0  0  0
    1.2673   -1.3814   -0.0213 C   0  0  0  0  0  0  0  0  0  0  0  0
   -1.2575    1.4941    0.0737 C   0  0  0  0  0  0  0  0  0  0  0  0
   -2.4858    0.6777   -0.3504 C   0  0  0  0  0  0  0  0  0  0  0  0
   -1.2548   -1.4914   -0.0777 C   0  0  0  0  0  0  0  0  0  0  0  0
    0.0404    0.7060    0.0116 C   0  0  0  0  0  0  0  0  0  0  0  0
    0.0416   -0.7002   -0.0177 C   0  0  0  0  0  0  0  0  0  0  0  0
   -2.4892   -0.6863    0.3428 C   0  0  2  0  0  0  0  0  0  0  0  0
   -3.6929   -1.4156    0.1154 O   0  0  0  0  0  0  0  0  0  0  0  0
    3.4149    1.2520    0.0166 H   0  0  0  0  0  0  0  0  0  0  0  0
    3.4161   -1.2438   -0.0126 H   0  0  0  0  0  0  0  0  0  0  0  0
    1.2625    2.4758    0.0405 H   0  0  0  0  0  0  0  0  0  0  0  0
    1.2643   -2.4696   -0.0377 H   0  0  0  0  0  0  0  0  0  0  0  0
   -1.4079    1.8470    1.1055 H   0  0  0  0  0  0  0  0  0  0  0  0
   -1.1725    2.3997   -0.5397 H   0  0  0  0  0  0  0  0  0  0  0  0
   -2.4748    0.5228   -1.4406 H   0  0  0  0  0  0  0  0  0  0  0  0
   -3.4096    1.2153   -0.1091 H   0  0  0  0  0  0  0  0  0  0  0  0
   -1.1808   -2.3986    0.5337 H   0  0  0  0  0  0  0  0  0  0  0  0
   -1.4160   -1.8370   -1.1130 H   0  0  0  0  0  0  0  0  0  0  0  0
   -2.4679   -0.5311    1.4289 H   0  0  0  0  0  0  0  0  0  0  0  0
   -3.7584   -1.5717   -0.8410 H   0  0  0  0  0  0  0  0  0  0  0  0
  1 12  1  0  0  0  0
  1  3  1  0  0  0  0
  2  1  2  0  0  0  0
  3 14  1  0  0  0  0
  4  9  2  0  0  0  0
  4  2  1  0  0  0  0
  5 16  1  0  0  0  0
  6 19  1  0  0  0  0
  6  5  1  0  0  0  0
  6 10  1  0  0  0  0
  7  9  1  0  0  0  0
  7 10  1  0  0  0  0
  7 20  1  0  0  0  0
  8  3  2  0  0  0  0
  8  5  1  0  0  0  0
  9  8  1  0  0  0  0
 10 22  1  1  0  0  0
 11 10  1  0  0  0  0
 13  2  1  0  0  0  0
 15  4  1  0  0  0  0
 17  5  1  0  0  0  0
 18  6  1  0  0  0  0
 21  7  1  0  0  0  0
 23 11  1  0  0  0  0
M  END
>  <HBA>
1

>  <HBD>
1

>  <TPSA>
20.23

>  <cid>
10747

>  <dipole>
1.43

>  <excitation_energy_1>
5.153

>  <excitation_energy_2>
5.704

>  <excitation_energy_3>
5.999

>  <excitation_energy_4>
6.126

>  <homo_energy>
-6.362

>  <homo_lumo_gap>
6.357

>  <logP>
1.536

>  <lumo_energy>
-0.005

>  <melting_point>
51.86

>  <molecular_refractivity>
45.04

>  <oscillator_strength_1>
0.0062

>  <oscillator_strength_2>
0.0076

>  <oscillator_strength_3>
0.0173

>  <oscillator_strength_4>
0.0487

>  <open_babel_can_smiles>
O[C@@H]1CCc2c(C1)cccc2

>  <mulliken_charges>
23
1   -0.128647
2   -0.130009
3   -0.187437
4   -0.188567
5   -0.349945
6   -0.286834
7   -0.36077
8   0.117547
9   0.119051
10   0.141149
11   -0.627621
12   0.126259
13   0.126413
14   0.120169
15   0.121057
16   0.155747
17   0.148178
18   0.124253
19   0.146968
20   0.157452
21   0.134766
22   0.139891
23   0.380932

>  <lowdin_charges>
23
1   -0.159704
2   -0.160241
3   -0.161232
4   -0.16067
5   -0.275036
6   -0.291701
7   -0.289419
8   -0.016516
9   -0.0177
10   -0.002144
11   -0.45641
12   0.156631
13   0.156754
14   0.151172
15   0.15176
16   0.152842
17   0.154293
18   0.13471
19   0.153324
20   0.158642
21   0.144133
22   0.141786
23   0.334726

$$$$

