PCCDB-ID:  15778
public computational chemistry database (PCCDB) project, http://pccdb.org

 19 18  0  0  0  0  0  0  0  0999 V2000
    0.5871   -0.8131   -0.8353 C   0  0  0  0  0  0  0  0  0  0  0  0
    2.4447    0.9133   -1.0854 C   0  0  0  0  0  0  0  0  0  0  0  0
    0.7450    1.7266    3.3358 C   0  0  0  0  0  0  0  0  0  0  0  0
    1.7239   -0.0559   -0.1577 C   0  0  0  0  0  0  0  0  0  0  0  0
   -0.1347   -0.7237    2.5948 O   0  0  0  0  0  0  0  0  0  0  0  0
    2.4324   -0.4976    2.8920 O   0  0  0  0  0  0  0  0  0  0  0  0
    1.1777    0.7477    0.9344 O   0  0  0  0  0  0  0  0  0  0  0  0
    1.2020    0.2157    2.4558 P   0  0  2  0  0  0  0  0  0  0  0  0
    0.9755   -1.4187   -1.6624 H   0  0  0  0  0  0  0  0  0  0  0  0
   -0.1524   -0.1116   -1.2364 H   0  0  0  0  0  0  0  0  0  0  0  0
    0.0810   -1.4751   -0.1268 H   0  0  0  0  0  0  0  0  0  0  0  0
    2.8886    0.3732   -1.9292 H   0  0  0  0  0  0  0  0  0  0  0  0
    3.2435    1.4362   -0.5511 H   0  0  0  0  0  0  0  0  0  0  0  0
    1.7439    1.6570   -1.4803 H   0  0  0  0  0  0  0  0  0  0  0  0
    0.6220    1.4985    4.3977 H   0  0  0  0  0  0  0  0  0  0  0  0
   -0.1915    2.1295    2.9411 H   0  0  0  0  0  0  0  0  0  0  0  0
    1.5367    2.4708    3.2172 H   0  0  0  0  0  0  0  0  0  0  0  0
    2.4461   -0.7581    0.2729 H   0  0  0  0  0  0  0  0  0  0  0  0
    0.1300   -1.5825    2.9648 H   0  0  0  0  0  0  0  0  0  0  0  0
  1  4  1  0  0  0  0
  1 11  1  0  0  0  0
  2 13  1  0  0  0  0
  2  4  1  0  0  0  0
  3 15  1  0  0  0  0
  4 18  1  0  0  0  0
  4  7  1  0  0  0  0
  5 19  1  0  0  0  0
  7  8  1  0  0  0  0
  8  5  1  0  0  0  0
  8  6  2  1  0  0  0
  8  3  1  0  0  0  0
  9  1  1  0  0  0  0
 10  1  1  0  0  0  0
 12  2  1  0  0  0  0
 14  2  1  0  0  0  0
 16  3  1  0  0  0  0
 17  3  1  0  0  0  0
M  END
>  <HBA>
3

>  <HBD>
1

>  <TPSA>
56.34

>  <cid>
15778

>  <dipole>
1.71

>  <excitation_energy_1>
6.806

>  <excitation_energy_2>
6.915

>  <excitation_energy_3>
7.556

>  <excitation_energy_4>
7.604

>  <homo_energy>
-7.587

>  <homo_lumo_gap>
9.067

>  <logP>
1.227

>  <lumo_energy>
1.48

>  <melting_point>
16.7

>  <molecular_refractivity>
32.25

>  <oscillator_strength_1>
0.0149

>  <oscillator_strength_2>
0.045

>  <oscillator_strength_3>
0.0452

>  <oscillator_strength_4>
0.0065

>  <open_babel_can_smiles>
CC(O[P@](=O)(O)C)C

>  <mulliken_charges>
19
1   -0.444127
2   -0.446756
3   -0.64852
4   0.122841
5   -0.664553
6   -0.57074
7   -0.539961
8   1.077106
9   0.145766
10   0.15565
11   0.163085
12   0.147056
13   0.163825
14   0.154763
15   0.192613
16   0.19836
17   0.19619
18   0.164774
19   0.432628

>  <lowdin_charges>
19
1   -0.454915
2   -0.449725
3   -0.622334
4   0.016933
5   -0.591061
6   -0.611044
7   -0.406996
8   1.05655
9   0.15602
10   0.15815
11   0.162596
12   0.156897
13   0.162856
14   0.157252
15   0.187516
16   0.192041
17   0.191237
18   0.158048
19   0.379981

$$$$

