PCCDB-ID:  43532
public computational chemistry database (PCCDB) project, http://pccdb.org

 25 26  0  0  0  0  0  0  0  0999 V2000
    1.3052    0.3802   -0.8864 C   0  0  0  0  0  0  0  0  0  0  0  0
    6.3762    0.6623    3.2471 C   0  0  0  0  0  0  0  0  0  0  0  0
    2.4469    2.5631    0.5676 C   0  0  0  0  0  0  0  0  0  0  0  0
    4.5035    4.4313    2.9897 C   0  0  0  0  0  0  0  0  0  0  0  0
    3.0806    3.5122    1.3735 C   0  0  0  0  0  0  0  0  0  0  0  0
    4.0305    3.1712    2.3211 C   0  0  0  0  0  0  0  0  0  0  0  0
    2.8072    1.2381    0.7727 C   0  0  0  0  0  0  0  0  0  0  0  0
    3.7655    0.8673    1.7542 C   0  0  0  0  0  0  0  0  0  0  0  0
    4.4062    1.8438    2.5328 C   0  0  0  0  0  0  0  0  0  0  0  0
    2.9136    4.9795    1.3856 C   0  0  0  0  0  0  0  0  0  0  0  0
    4.0451   -0.4528    1.9350 O   0  0  0  0  0  0  0  0  0  0  0  0
    2.1951    5.6819    0.7175 O   0  0  0  0  0  0  0  0  0  0  0  0
    2.3007    0.1511    0.1039 O   0  0  0  0  0  0  0  0  0  0  0  0
    5.3128    1.5836    3.5216 O   0  0  0  0  0  0  0  0  0  0  0  0
    3.7633    5.4860    2.3463 O   0  0  0  0  0  0  0  0  0  0  0  0
    1.0391   -0.6022   -1.2792 H   0  0  0  0  0  0  0  0  0  0  0  0
    1.6939    1.0079   -1.6974 H   0  0  0  0  0  0  0  0  0  0  0  0
    0.4182    0.8553   -0.4501 H   0  0  0  0  0  0  0  0  0  0  0  0
    7.0907    0.7917    4.0627 H   0  0  0  0  0  0  0  0  0  0  0  0
    6.8635    0.9026    2.2941 H   0  0  0  0  0  0  0  0  0  0  0  0
    6.0189   -0.3692    3.2222 H   0  0  0  0  0  0  0  0  0  0  0  0
    1.7146    2.8678   -0.1704 H   0  0  0  0  0  0  0  0  0  0  0  0
    5.5742    4.6200    2.8505 H   0  0  0  0  0  0  0  0  0  0  0  0
    4.2877    4.4582    4.0637 H   0  0  0  0  0  0  0  0  0  0  0  0
    3.4983   -0.9418    1.2928 H   0  0  0  0  0  0  0  0  0  0  0  0
  1 18  1  0  0  0  0
  1 13  1  0  0  0  0
  2 14  1  0  0  0  0
  2 19  1  0  0  0  0
  3  7  2  0  0  0  0
  3  5  1  0  0  0  0
  4 24  1  0  0  0  0
  5 10  1  0  0  0  0
  5  6  2  0  0  0  0
  6  9  1  0  0  0  0
  6  4  1  0  0  0  0
  7  8  1  0  0  0  0
  8 11  1  0  0  0  0
  8  9  2  0  0  0  0
  9 14  1  0  0  0  0
 10 15  1  0  0  0  0
 12 10  2  0  0  0  0
 13  7  1  0  0  0  0
 15  4  1  0  0  0  0
 16  1  1  0  0  0  0
 17  1  1  0  0  0  0
 20  2  1  0  0  0  0
 21  2  1  0  0  0  0
 22  3  1  0  0  0  0
 23  4  1  0  0  0  0
 25 11  1  0  0  0  0
M  END
>  <HBA>
5

>  <HBD>
1

>  <TPSA>
64.99

>  <cid>
43532

>  <dipole>
5.67

>  <excitation_energy_1>
4.6

>  <excitation_energy_2>
4.801

>  <excitation_energy_3>
4.914

>  <excitation_energy_4>
5.235

>  <homo_energy>
-6.087

>  <homo_lumo_gap>
5.143

>  <logP>
1.08

>  <lumo_energy>
-0.944

>  <melting_point>
110.54

>  <molecular_refractivity>
50.77

>  <oscillator_strength_1>
0.0236

>  <oscillator_strength_2>
0.1345

>  <oscillator_strength_3>
0.0092

>  <oscillator_strength_4>
0.004

>  <open_babel_can_smiles>
COc1cc2C(=O)OCc2c(c1O)OC

>  <mulliken_charges>
25
1   -0.216631
2   -0.21762
3   -0.256716
4   -0.074431
5   0.022418
6   0.018053
7   0.352177
8   0.273116
9   0.27168
10   0.573116
11   -0.653437
12   -0.473382
13   -0.559248
14   -0.530041
15   -0.480084
16   0.175563
17   0.16645
18   0.167399
19   0.163337
20   0.147292
21   0.181696
22   0.163099
23   0.173325
24   0.179763
25   0.433105

>  <lowdin_charges>
25
1   -0.274755
2   -0.274344
3   -0.192338
4   -0.109683
5   -0.062845
6   -0.039005
7   0.064514
8   0.06465
9   0.06671
10   0.193893
11   -0.37233
12   -0.248702
13   -0.218068
14   -0.2135
15   -0.198165
16   0.166222
17   0.154626
18   0.154856
19   0.159307
20   0.145123
21   0.158673
22   0.180647
23   0.161699
24   0.164562
25   0.368253

$$$$

