PCCDB-ID:  15953
public computational chemistry database (PCCDB) project, http://pccdb.org

 21 20  0  0  0  0  0  0  0  0999 V2000
    5.1300    0.7362    2.7711 C   0  0  0  0  0  0  0  0  0  0  0  0
   -0.5134   -0.4869   -0.2537 C   0  0  0  0  0  0  0  0  0  0  0  0
    4.1152   -0.2194    2.1363 C   0  0  0  0  0  0  0  0  0  0  0  0
    4.3230   -0.3840    0.6254 C   0  0  0  0  0  0  0  0  0  0  0  0
    3.3466   -1.3421   -0.0386 C   0  0  0  0  0  0  0  0  0  0  0  0
    1.0132   -1.8458   -1.9764 O   0  0  0  0  0  0  0  0  0  0  0  0
    0.5908   -2.8523    0.3058 O   0  0  0  0  0  0  0  0  0  0  0  0
    2.0110   -0.7648    0.0829 O   0  0  0  0  0  0  0  0  0  0  0  0
    0.7985   -1.6776   -0.5396 S   0  0  0  0  0  0  0  0  0  0  0  0
    4.9628    0.8329    3.8495 H   0  0  0  0  0  0  0  0  0  0  0  0
    5.0600    1.7391    2.3322 H   0  0  0  0  0  0  0  0  0  0  0  0
    6.1577    0.3818    2.6238 H   0  0  0  0  0  0  0  0  0  0  0  0
   -1.4369   -0.9505   -0.6066 H   0  0  0  0  0  0  0  0  0  0  0  0
   -0.2970    0.4186   -0.8215 H   0  0  0  0  0  0  0  0  0  0  0  0
   -0.5738   -0.2799    0.8154 H   0  0  0  0  0  0  0  0  0  0  0  0
    3.0973    0.1432    2.3222 H   0  0  0  0  0  0  0  0  0  0  0  0
    4.1840   -1.2045    2.6186 H   0  0  0  0  0  0  0  0  0  0  0  0
    5.3343   -0.7670    0.4276 H   0  0  0  0  0  0  0  0  0  0  0  0
    4.2559    0.5914    0.1256 H   0  0  0  0  0  0  0  0  0  0  0  0
    3.3471   -2.3218    0.4522 H   0  0  0  0  0  0  0  0  0  0  0  0
    3.5686   -1.4721   -1.1023 H   0  0  0  0  0  0  0  0  0  0  0  0
  1 10  1  0  0  0  0
  2 15  1  0  0  0  0
  3 16  1  0  0  0  0
  3 17  1  0  0  0  0
  3  1  1  0  0  0  0
  4  3  1  0  0  0  0
  5  8  1  0  0  0  0
  5 20  1  0  0  0  0
  5  4  1  0  0  0  0
  6  9  1  0  0  0  0
  9  2  1  0  0  0  0
  9  8  1  0  0  0  0
  9  7  1  0  0  0  0
 11  1  1  0  0  0  0
 12  1  1  0  0  0  0
 13  2  1  0  0  0  0
 14  2  1  0  0  0  0
 18  4  1  0  0  0  0
 19  4  1  0  0  0  0
 21  5  1  0  0  0  0
M  RAD  2   6   2   7   2
M  END
>  <HBA>
3

>  <HBD>
0

>  <TPSA>
51.75

>  <cid>
15953

>  <dipole>
3.31

>  <excitation_energy_1>
7.036

>  <excitation_energy_2>
7.699

>  <excitation_energy_3>
7.758

>  <excitation_energy_4>
7.815

>  <homo_energy>
-7.815

>  <homo_lumo_gap>
9.072

>  <logP>
1.843

>  <lumo_energy>
1.257

>  <melting_point>
-2.86

>  <molecular_refractivity>
36.2

>  <oscillator_strength_1>
0.0018

>  <oscillator_strength_2>
0.0044

>  <oscillator_strength_3>
0.0033

>  <oscillator_strength_4>
0.0082

>  <open_babel_can_smiles>
CCCCOS([O])([O])C

>  <mulliken_charges>
21
1   -0.443971
2   -0.635807
3   -0.249555
4   -0.274375
5   -0.058697
6   -0.51318
7   -0.506783
8   -0.542827
9   1.208124
10   0.147752
11   0.144274
12   0.143134
13   0.218317
14   0.216583
15   0.216974
16   0.151387
17   0.137146
18   0.144737
19   0.151011
20   0.170894
21   0.174866

>  <lowdin_charges>
21
1   -0.440454
2   -0.583481
3   -0.272768
4   -0.279009
5   -0.124128
6   -0.579373
7   -0.57795
8   -0.427902
9   1.335933
10   0.150948
11   0.147135
12   0.146025
13   0.200046
14   0.198806
15   0.197153
16   0.148131
17   0.142527
18   0.152337
19   0.151173
20   0.156169
21   0.15868

$$$$

