PCCDB-ID:  7481
public computational chemistry database (PCCDB) project, http://pccdb.org

 18 18  0  0  0  0  0  0  0  0999 V2000
    2.7064    1.0401   -0.1539 C   0  0  0  0  0  0  0  0  0  0  0  0
    2.2372   -0.2111   -0.0663 C   0  0  0  0  0  0  0  0  0  0  0  0
    2.3424   -2.6832    0.0487 C   0  0  0  0  0  0  0  0  0  0  0  0
    4.4320   -1.4708    0.0367 C   0  0  0  0  0  0  0  0  0  0  0  0
    3.0279   -3.8908    0.1150 C   0  0  0  0  0  0  0  0  0  0  0  0
    5.1327   -2.6665    0.1028 C   0  0  0  0  0  0  0  0  0  0  0  0
    3.0231   -1.4519    0.0069 C   0  0  0  0  0  0  0  0  0  0  0  0
    4.4202   -3.8666    0.1409 C   0  0  0  0  0  0  0  0  0  0  0  0
    5.1574   -5.1338    0.2112 N   0  0  0  0  0  0  0  0  0  0  0  0
    4.5026   -6.1763    0.2475 O   0  0  0  0  0  0  0  0  0  0  0  0
    6.3878   -5.0803    0.2296 O   0  0  0  0  0  0  0  0  0  0  0  0
    2.0281    1.8861   -0.2018 H   0  0  0  0  0  0  0  0  0  0  0  0
    3.7669    1.2743   -0.1831 H   0  0  0  0  0  0  0  0  0  0  0  0
    1.1576   -0.3561   -0.0482 H   0  0  0  0  0  0  0  0  0  0  0  0
    1.2559   -2.6896    0.0284 H   0  0  0  0  0  0  0  0  0  0  0  0
    4.9879   -0.5393    0.0105 H   0  0  0  0  0  0  0  0  0  0  0  0
    2.5085   -4.8405    0.1476 H   0  0  0  0  0  0  0  0  0  0  0  0
    6.2151   -2.6895    0.1260 H   0  0  0  0  0  0  0  0  0  0  0  0
  1  2  2  0  0  0  0
  2 14  1  0  0  0  0
  2  7  1  0  0  0  0
  3  5  2  0  0  0  0
  4  6  1  0  0  0  0
  5  8  1  0  0  0  0
  5 17  1  0  0  0  0
  6 18  1  0  0  0  0
  6  8  2  0  0  0  0
  7  4  2  0  0  0  0
  7  3  1  0  0  0  0
  8  9  1  0  0  0  0
  9 11  2  0  0  0  0
  9 10  2  0  0  0  0
 12  1  1  0  0  0  0
 13  1  1  0  0  0  0
 15  3  1  0  0  0  0
 16  4  1  0  0  0  0
M  END
>  <HBA>
0

>  <HBD>
0

>  <TPSA>
45.82

>  <cid>
7481

>  <dipole>
5.08

>  <excitation_energy_1>
3.693

>  <excitation_energy_2>
3.884

>  <excitation_energy_3>
4.192

>  <excitation_energy_4>
4.221

>  <homo_energy>
-6.836

>  <homo_lumo_gap>
4.291

>  <logP>
2.761

>  <lumo_energy>
-2.544

>  <melting_point>
36.25

>  <molecular_refractivity>
45.35

>  <oscillator_strength_1>
0.0001

>  <oscillator_strength_2>
0.4089

>  <oscillator_strength_3>
0.0207

>  <oscillator_strength_4>
0.0003

>  <open_babel_can_smiles>
C=Cc1ccc(cc1)N(=O)=O

>  <mulliken_charges>
18
1   -0.340033
2   -0.118299
3   -0.20989
4   -0.193123
5   -0.146765
6   -0.149804
7   0.191106
8   0.274563
9   0.377788
10   -0.397022
11   -0.397323
12   0.157532
13   0.152056
14   0.138703
15   0.147576
16   0.144725
17   0.184233
18   0.183977

>  <lowdin_charges>
18
1   -0.30883
2   -0.146881
3   -0.151094
4   -0.147992
5   -0.134658
6   -0.132863
7   0.019038
8   0.000471
9   0.305473
10   -0.249463
11   -0.247146
12   0.170586
13   0.159957
14   0.158208
15   0.163925
16   0.166633
17   0.188546
18   0.18609

$$$$

