PCCDB-ID:  49661
public computational chemistry database (PCCDB) project, http://pccdb.org

 31 31  0  0  1  0  0  0  0  0999 V2000
    1.1522    0.8201   -0.7678 C   0  0  0  0  0  0  0  0  0  0  0  0
    5.4189    4.3479    0.2453 C   0  0  0  0  0  0  0  0  0  0  0  0
    1.7787    1.8331   -0.1687 C   0  0  0  0  0  0  0  0  0  0  0  0
    8.4665   -0.5306    0.6327 C   0  0  0  0  0  0  0  0  0  0  0  0
    8.4624   -0.7529    2.1281 C   0  0  0  0  0  0  0  0  0  0  0  0
    7.5015    0.3084    0.2482 C   0  0  0  0  0  0  0  0  0  0  0  0
    7.5351    0.3787    2.6388 C   0  0  0  0  0  0  0  0  0  0  0  0
    3.1329    2.3546   -0.5631 C   0  0  0  0  0  0  0  0  0  0  0  0
    6.3624    2.3204    1.4081 C   0  0  0  0  0  0  0  0  0  0  0  0
    5.4044    2.8148    0.3084 C   0  0  1  0  0  0  0  0  0  0  0  0
    6.6731    0.8110    1.4173 C   0  0  1  0  0  0  0  0  0  0  0  0
    4.0421    2.3326    0.5861 N   0  0  0  0  0  0  0  0  0  0  0  0
    0.1693    0.4839   -0.4483 H   0  0  0  0  0  0  0  0  0  0  0  0
    1.5960    0.2918   -1.6097 H   0  0  0  0  0  0  0  0  0  0  0  0
    6.4258    4.7138    0.0130 H   0  0  0  0  0  0  0  0  0  0  0  0
    5.1046    4.7674    1.2073 H   0  0  0  0  0  0  0  0  0  0  0  0
    4.7436    4.7317   -0.5267 H   0  0  0  0  0  0  0  0  0  0  0  0
    1.3168    2.3360    0.6807 H   0  0  0  0  0  0  0  0  0  0  0  0
    9.1579   -1.0365   -0.0363 H   0  0  0  0  0  0  0  0  0  0  0  0
    9.4645   -0.7088    2.5731 H   0  0  0  0  0  0  0  0  0  0  0  0
    8.0622   -1.7498    2.3693 H   0  0  0  0  0  0  0  0  0  0  0  0
    7.2921    0.5830   -0.7824 H   0  0  0  0  0  0  0  0  0  0  0  0
    8.1470    1.2321    2.9571 H   0  0  0  0  0  0  0  0  0  0  0  0
    6.9249    0.0793    3.4971 H   0  0  0  0  0  0  0  0  0  0  0  0
    3.0307    3.3966   -0.8957 H   0  0  0  0  0  0  0  0  0  0  0  0
    3.5161    1.7856   -1.4326 H   0  0  0  0  0  0  0  0  0  0  0  0
    5.9322    2.6057    2.3787 H   0  0  0  0  0  0  0  0  0  0  0  0
    7.3129    2.8617    1.3118 H   0  0  0  0  0  0  0  0  0  0  0  0
    5.7664    2.4332   -0.6674 H   0  0  0  0  0  0  0  0  0  0  0  0
    5.7216    0.2516    1.4383 H   0  0  0  0  0  0  0  0  0  0  0  0
    4.0897    1.3719    0.9198 H   0  0  0  0  0  0  0  0  0  0  0  0
  1 13  1  0  0  0  0
  1  3  2  0  0  0  0
  2 10  1  0  0  0  0
  2 16  1  0  0  0  0
  3 18  1  0  0  0  0
  4  5  1  0  0  0  0
  5 21  1  0  0  0  0
  5 20  1  0  0  0  0
  5  7  1  0  0  0  0
  6  4  2  0  0  0  0
  6 11  1  0  0  0  0
  7 23  1  0  0  0  0
  7 24  1  0  0  0  0
  8  3  1  0  0  0  0
  8 12  1  0  0  0  0
  9 11  1  0  0  0  0
  9 27  1  0  0  0  0
 10 29  1  6  0  0  0
 10 12  1  0  0  0  0
 10  9  1  0  0  0  0
 11 30  1  1  0  0  0
 11  7  1  0  0  0  0
 12 31  1  0  0  0  0
 14  1  1  0  0  0  0
 15  2  1  0  0  0  0
 17  2  1  0  0  0  0
 19  4  1  0  0  0  0
 22  6  1  0  0  0  0
 25  8  1  0  0  0  0
 26  8  1  0  0  0  0
 28  9  1  0  0  0  0
M  END
>  <HBA>
1

>  <HBD>
1

>  <TPSA>
12.03

>  <cid>
49661

>  <dipole>
0.87

>  <excitation_energy_1>
5.325

>  <excitation_energy_2>
5.674

>  <excitation_energy_3>
5.78

>  <excitation_energy_4>
5.945

>  <homo_energy>
-5.943

>  <homo_lumo_gap>
6.49

>  <logP>
2.898

>  <lumo_energy>
0.547

>  <melting_point>
9.07

>  <molecular_refractivity>
54.73

>  <oscillator_strength_1>
0.0057

>  <oscillator_strength_2>
0.0055

>  <oscillator_strength_3>
0.0182

>  <oscillator_strength_4>
0.0291

>  <open_babel_can_smiles>
C[C@H](NCC=C)C[C@@H]1CCC=C1

>  <mulliken_charges>
31
1   -0.339628
2   -0.439851
3   -0.056942
4   -0.115428
5   -0.303356
6   -0.101044
7   -0.287525
8   -0.162922
9   -0.280438
10   0.062375
11   -0.127418
12   -0.572526
13   0.140724
14   0.136148
15   0.137027
16   0.151411
17   0.141602
18   0.137491
19   0.123891
20   0.140851
21   0.143826
22   0.12533
23   0.142169
24   0.135426
25   0.15077
26   0.114979
27   0.141539
28   0.13338
29   0.102624
30   0.125806
31   0.299709

>  <lowdin_charges>
31
1   -0.340735
2   -0.448654
3   -0.150574
4   -0.170594
5   -0.276537
6   -0.178285
7   -0.276021
8   -0.197783
9   -0.281854
10   -0.05872
11   -0.128038
12   -0.366169
13   0.158402
14   0.154612
15   0.147527
16   0.15343
17   0.149161
18   0.157395
19   0.154275
20   0.146381
21   0.146253
22   0.151602
23   0.147119
24   0.146328
25   0.148067
26   0.121065
27   0.148156
28   0.146287
29   0.113503
30   0.135237
31   0.249162

$$$$

