PCCDB-ID:  18937
public computational chemistry database (PCCDB) project, http://pccdb.org

 25 24  0  0  0  0  0  0  0  0999 V2000
    4.1850    2.2121    3.9567 C   0  0  0  0  0  0  0  0  0  0  0  0
    9.2365    1.7231   -1.8977 C   0  0  0  0  0  0  0  0  0  0  0  0
    3.7325    2.4465    2.8612 C   0  0  0  0  0  0  0  0  0  0  0  0
    7.7224    1.7461   -1.6659 C   0  0  0  0  0  0  0  0  0  0  0  0
    3.1874    2.7315    1.5318 C   0  0  0  0  0  0  0  0  0  0  0  0
    7.3019    2.7455   -0.5787 C   0  0  0  0  0  0  0  0  0  0  0  0
    3.6163    1.7089    0.4522 C   0  0  0  0  0  0  0  0  0  0  0  0
    5.7848    2.8603   -0.3506 C   0  0  0  0  0  0  0  0  0  0  0  0
    5.1321    1.5963    0.2272 C   0  0  0  0  0  0  0  0  0  0  0  0
    4.5842    2.0025    4.9228 H   0  0  0  0  0  0  0  0  0  0  0  0
    9.5141    1.0009   -2.6741 H   0  0  0  0  0  0  0  0  0  0  0  0
    9.7723    1.4474   -0.9807 H   0  0  0  0  0  0  0  0  0  0  0  0
    9.6065    2.7073   -2.2108 H   0  0  0  0  0  0  0  0  0  0  0  0
    7.3854    0.7358   -1.3999 H   0  0  0  0  0  0  0  0  0  0  0  0
    7.2104    2.0004   -2.6056 H   0  0  0  0  0  0  0  0  0  0  0  0
    3.4894    3.7431    1.2306 H   0  0  0  0  0  0  0  0  0  0  0  0
    2.0906    2.7475    1.5886 H   0  0  0  0  0  0  0  0  0  0  0  0
    7.6942    3.7369   -0.8468 H   0  0  0  0  0  0  0  0  0  0  0  0
    7.7901    2.4763    0.3701 H   0  0  0  0  0  0  0  0  0  0  0  0
    3.1214    1.9884   -0.4881 H   0  0  0  0  0  0  0  0  0  0  0  0
    3.2212    0.7254    0.7346 H   0  0  0  0  0  0  0  0  0  0  0  0
    5.2948    3.1235   -1.3009 H   0  0  0  0  0  0  0  0  0  0  0  0
    5.6049    3.7041    0.3287 H   0  0  0  0  0  0  0  0  0  0  0  0
    5.3108    0.7483   -0.4460 H   0  0  0  0  0  0  0  0  0  0  0  0
    5.6153    1.3404    1.1804 H   0  0  0  0  0  0  0  0  0  0  0  0
  1 10  1  0  0  0  0
  2  4  1  0  0  0  0
  2 12  1  0  0  0  0
  3  1  3  0  0  0  0
  4 14  1  0  0  0  0
  4  6  1  0  0  0  0
  5 17  1  0  0  0  0
  5  3  1  0  0  0  0
  6  8  1  0  0  0  0
  6 19  1  0  0  0  0
  7 21  1  0  0  0  0
  7  5  1  0  0  0  0
  8  9  1  0  0  0  0
  8 23  1  0  0  0  0
  9  7  1  0  0  0  0
  9 25  1  0  0  0  0
 11  2  1  0  0  0  0
 13  2  1  0  0  0  0
 15  4  1  0  0  0  0
 16  5  1  0  0  0  0
 18  6  1  0  0  0  0
 20  7  1  0  0  0  0
 22  8  1  0  0  0  0
 24  9  1  0  0  0  0
M  END
>  <HBA>
0

>  <HBD>
0

>  <TPSA>
0.0

>  <cid>
18937

>  <dipole>
0.61

>  <excitation_energy_1>
6.352

>  <excitation_energy_2>
6.493

>  <excitation_energy_3>
6.601

>  <excitation_energy_4>
6.797

>  <homo_energy>
-7.007

>  <homo_lumo_gap>
8.528

>  <logP>
2.98

>  <lumo_energy>
1.521

>  <melting_point>
-11.21

>  <molecular_refractivity>
43.54

>  <oscillator_strength_1>
0.0006

>  <oscillator_strength_2>
0.019

>  <oscillator_strength_3>
0.0017

>  <oscillator_strength_4>
0.0261

>  <open_babel_can_smiles>
CCCCCCCC#C

>  <mulliken_charges>
25
1   -0.492062
2   -0.441394
3   0.331474
4   -0.248856
5   -0.40566
6   -0.24821
7   -0.257588
8   -0.258522
9   -0.258726
10   0.183622
11   0.140827
12   0.141799
13   0.140808
14   0.135632
15   0.128154
16   0.171324
17   0.168024
18   0.126252
19   0.129375
20   0.133639
21   0.143089
22   0.123279
23   0.132914
24   0.134453
25   0.146352

>  <lowdin_charges>
25
1   -0.268001
2   -0.445066
3   -0.038334
4   -0.274116
5   -0.263602
6   -0.274414
7   -0.268419
8   -0.278536
9   -0.281557
10   0.202042
11   0.14952
12   0.1468
13   0.145455
14   0.139361
15   0.137708
16   0.164518
17   0.165745
18   0.139402
19   0.138933
20   0.14305
21   0.148739
22   0.135437
23   0.142567
24   0.143974
25   0.148793

$$$$

