PCCDB-ID:  13357
public computational chemistry database (PCCDB) project, http://pccdb.org

 20 19  0  0  1  0  0  0  0  0999 V2000
    3.4150    0.4392    1.1455 C   0  0  0  0  0  0  0  0  0  0  0  0
    2.4136   -1.1105   -2.3278 C   0  0  0  0  0  0  0  0  0  0  0  0
    6.5399   -2.3955   -1.6612 C   0  0  0  0  0  0  0  0  0  0  0  0
    2.7966    0.3202   -0.2513 C   0  0  0  0  0  0  0  0  0  0  0  0
    3.1842   -0.9661   -0.9983 C   0  0  2  0  0  0  0  0  0  0  0  0
    4.6759   -0.9949   -1.3031 C   0  0  0  0  0  0  0  0  0  0  0  0
    5.3638   -0.0261   -1.5486 O   0  0  0  0  0  0  0  0  0  0  0  0
    5.1517   -2.2625   -1.3155 O   0  0  0  0  0  0  0  0  0  0  0  0
    3.0734    1.3514    1.6471 H   0  0  0  0  0  0  0  0  0  0  0  0
    4.5080    0.4813    1.0904 H   0  0  0  0  0  0  0  0  0  0  0  0
    3.1377   -0.4127    1.7790 H   0  0  0  0  0  0  0  0  0  0  0  0
    1.3350   -1.1319   -2.1383 H   0  0  0  0  0  0  0  0  0  0  0  0
    2.6873   -2.0343   -2.8480 H   0  0  0  0  0  0  0  0  0  0  0  0
    2.6271   -0.2651   -2.9914 H   0  0  0  0  0  0  0  0  0  0  0  0
    6.7492   -3.4653   -1.6288 H   0  0  0  0  0  0  0  0  0  0  0  0
    7.1673   -1.8592   -0.9442 H   0  0  0  0  0  0  0  0  0  0  0  0
    6.7281   -1.9970   -2.6618 H   0  0  0  0  0  0  0  0  0  0  0  0
    3.0957    1.1803   -0.8618 H   0  0  0  0  0  0  0  0  0  0  0  0
    1.7018    0.3493   -0.1725 H   0  0  0  0  0  0  0  0  0  0  0  0
    2.9589   -1.8392   -0.3735 H   0  0  0  0  0  0  0  0  0  0  0  0
  1  9  1  0  0  0  0
  1 11  1  0  0  0  0
  2 12  1  0  0  0  0
  2  5  1  0  0  0  0
  3 15  1  0  0  0  0
  3  8  1  0  0  0  0
  3 16  1  0  0  0  0
  4 19  1  0  0  0  0
  4  1  1  0  0  0  0
  5 20  1  1  0  0  0
  5  4  1  0  0  0  0
  6  5  1  0  0  0  0
  7  6  2  0  0  0  0
  8  6  1  0  0  0  0
 10  1  1  0  0  0  0
 13  2  1  0  0  0  0
 14  2  1  0  0  0  0
 17  3  1  0  0  0  0
 18  4  1  0  0  0  0
M  END
>  <HBA>
2

>  <HBD>
0

>  <TPSA>
26.3

>  <cid>
13357

>  <dipole>
1.59

>  <excitation_energy_1>
5.746

>  <excitation_energy_2>
6.911

>  <excitation_energy_3>
7.342

>  <excitation_energy_4>
7.507

>  <homo_energy>
-7.233

>  <homo_lumo_gap>
7.622

>  <logP>
1.206

>  <lumo_energy>
0.389

>  <melting_point>
-14.12

>  <molecular_refractivity>
32.24

>  <oscillator_strength_1>
0.0024

>  <oscillator_strength_2>
0.0051

>  <oscillator_strength_3>
0.0044

>  <oscillator_strength_4>
0.0026

>  <open_babel_can_smiles>
CC[C@H](C(=O)OC)C

>  <mulliken_charges>
20
1   -0.456086
2   -0.457654
3   -0.218395
4   -0.245619
5   -0.154395
6   0.621443
7   -0.486776
8   -0.453489
9   0.145669
10   0.16067
11   0.138773
12   0.152918
13   0.157327
14   0.160938
15   0.163054
16   0.169854
17   0.168959
18   0.155923
19   0.129499
20   0.147386

>  <lowdin_charges>
20
1   -0.447595
2   -0.436415
3   -0.277562
4   -0.268856
5   -0.14795
6   0.198824
7   -0.270442
8   -0.195833
9   0.152934
10   0.153358
11   0.145311
12   0.152997
13   0.156601
14   0.157387
15   0.158008
16   0.160595
17   0.157842
18   0.155037
19   0.140469
20   0.155289

$$$$

