PCCDB-ID:  73136
public computational chemistry database (PCCDB) project, http://pccdb.org

 28 30  0  0  0  0  0  0  0  0999 V2000
   -2.6157    1.1901   -0.0697 C   0  0  0  0  0  0  0  0  0  0  0  0
    2.4591    6.2392    0.2590 C   0  0  0  0  0  0  0  0  0  0  0  0
   -1.9518    0.1149    0.5297 C   0  0  0  0  0  0  0  0  0  0  0  0
   -1.8848    2.1901   -0.7131 C   0  0  0  0  0  0  0  0  0  0  0  0
    3.4407    5.6852   -0.5692 C   0  0  0  0  0  0  0  0  0  0  0  0
    1.5503    5.4079    0.9155 C   0  0  0  0  0  0  0  0  0  0  0  0
   -0.5640    0.0398    0.4854 C   0  0  0  0  0  0  0  0  0  0  0  0
   -0.4923    2.1302   -0.7442 C   0  0  0  0  0  0  0  0  0  0  0  0
    3.5127    4.3072   -0.7403 C   0  0  0  0  0  0  0  0  0  0  0  0
    1.6058    4.0268    0.7334 C   0  0  0  0  0  0  0  0  0  0  0  0
    0.1837    1.0553   -0.1404 C   0  0  0  0  0  0  0  0  0  0  0  0
    2.5859    3.4615   -0.1014 C   0  0  0  0  0  0  0  0  0  0  0  0
    1.6432    0.9100   -0.2179 C   0  0  0  0  0  0  0  0  0  0  0  0
    2.7313    2.0089   -0.2611 C   0  0  0  0  0  0  0  0  0  0  0  0
    3.6200    0.0326   -0.4516 C   0  0  0  0  0  0  0  0  0  0  0  0
    2.2090   -0.2447   -0.3027 N   0  0  0  0  0  0  0  0  0  0  0  0
    3.8821    1.4538   -0.4300 N   0  0  0  0  0  0  0  0  0  0  0  0
    4.4668   -0.8111   -0.5782 O   0  0  0  0  0  0  0  0  0  0  0  0
   -3.7005    1.2445   -0.0386 H   0  0  0  0  0  0  0  0  0  0  0  0
    2.4075    7.3160    0.3954 H   0  0  0  0  0  0  0  0  0  0  0  0
   -2.5192   -0.6673    1.0259 H   0  0  0  0  0  0  0  0  0  0  0  0
   -2.3981    3.0178   -1.1942 H   0  0  0  0  0  0  0  0  0  0  0  0
    4.1529    6.3301   -1.0761 H   0  0  0  0  0  0  0  0  0  0  0  0
    0.7976    5.8334    1.5730 H   0  0  0  0  0  0  0  0  0  0  0  0
   -0.0361   -0.7975    0.9295 H   0  0  0  0  0  0  0  0  0  0  0  0
    0.0671    2.9037   -1.2587 H   0  0  0  0  0  0  0  0  0  0  0  0
    4.2798    3.8619   -1.3649 H   0  0  0  0  0  0  0  0  0  0  0  0
    0.9055    3.3876    1.2595 H   0  0  0  0  0  0  0  0  0  0  0  0
  1 19  1  0  0  0  0
  1  3  2  0  0  0  0
  2 20  1  0  0  0  0
  2  6  2  0  0  0  0
  3 21  1  0  0  0  0
  4  1  1  0  0  0  0
  5  2  1  0  0  0  0
  6 24  1  0  0  0  0
  7  3  1  0  0  0  0
  7 25  1  0  0  0  0
  8  4  2  0  0  0  0
  8 11  1  0  0  0  0
  9  5  2  0  0  0  0
  9 12  1  0  0  0  0
 10  6  1  0  0  0  0
 10 28  1  0  0  0  0
 11  7  2  0  0  0  0
 12 10  2  0  0  0  0
 13 11  1  0  0  0  0
 14 13  2  0  0  0  0
 14 12  1  0  0  0  0
 15 17  1  0  0  0  0
 15 16  2  0  0  0  0
 16 13  1  0  0  0  0
 17 14  1  0  0  0  0
 18 15  2  0  0  0  0
 22  4  1  0  0  0  0
 23  5  1  0  0  0  0
 26  8  1  0  0  0  0
 27  9  1  0  0  0  0
M  RAD  1  17   2
M  END
>  <HBA>
3

>  <HBD>
0

>  <TPSA>
41.79

>  <cid>
73136

>  <dipole>
7.37

>  <excitation_energy_1>
2.707

>  <excitation_energy_2>
3.23

>  <excitation_energy_3>
3.369

>  <excitation_energy_4>
3.573

>  <homo_energy>
-7.034

>  <homo_lumo_gap>
3.826

>  <logP>
1.97

>  <lumo_energy>
-3.208

>  <melting_point>
126.25

>  <molecular_refractivity>
78.01

>  <oscillator_strength_1>
0.009

>  <oscillator_strength_2>
0.0896

>  <oscillator_strength_3>
0.0105

>  <oscillator_strength_4>
0.0409

>  <open_babel_can_smiles>
O=[C]1=NC(=C([N]1)c1ccccc1)c1ccccc1

>  <mulliken_charges>
28
1   -0.116414
2   -0.11638
3   -0.13613
4   -0.138079
5   -0.136106
6   -0.138277
7   -0.141983
8   -0.166673
9   -0.141948
10   -0.166811
11   0.082812
12   0.082754
13   0.22353
14   0.224158
15   0.652024
16   -0.486445
17   -0.48725
18   -0.407318
19   0.143355
20   0.143418
21   0.145536
22   0.143059
23   0.145568
24   0.143058
25   0.170032
26   0.154897
27   0.170438
28   0.155176

>  <lowdin_charges>
28
1   -0.134373
2   -0.134488
3   -0.15272
4   -0.156152
5   -0.15306
6   -0.155987
7   -0.127834
8   -0.148067
9   -0.127445
10   -0.148239
11   -0.024791
12   -0.025146
13   0.060086
14   0.060153
15   0.185329
16   -0.175151
17   -0.175561
18   -0.160646
19   0.162399
20   0.162589
21   0.166894
22   0.165305
23   0.167082
24   0.165354
25   0.180357
26   0.171558
27   0.18065
28   0.171904

$$$$

