PCCDB-ID:  48233
public computational chemistry database (PCCDB) project, http://pccdb.org

 38 38  0  0  0  0  0  0  0  0999 V2000
    2.7715    1.9191    0.8988 C   0  0  0  0  0  0  0  0  0  0  0  0
   13.3107    2.7791   -3.3756 C   0  0  0  0  0  0  0  0  0  0  0  0
   13.8657    0.6020   -2.5447 C   0  0  0  0  0  0  0  0  0  0  0  0
    3.2813    0.4973    1.1095 C   0  0  0  0  0  0  0  0  0  0  0  0
    6.9562    1.0510   -1.0274 C   0  0  0  0  0  0  0  0  0  0  0  0
    6.1053   -0.4441   -2.7069 C   0  0  0  0  0  0  0  0  0  0  0  0
    5.7839    0.9078   -0.2890 C   0  0  0  0  0  0  0  0  0  0  0  0
    4.9301   -0.5953   -1.9819 C   0  0  0  0  0  0  0  0  0  0  0  0
   10.3929    1.8063   -3.4503 C   0  0  0  0  0  0  0  0  0  0  0  0
   11.5574    1.2899   -2.5846 C   0  0  0  0  0  0  0  0  0  0  0  0
    7.1457    0.3766   -2.2393 C   0  0  0  0  0  0  0  0  0  0  0  0
    4.7597    0.0733   -0.7611 C   0  0  0  0  0  0  0  0  0  0  0  0
    8.4202    0.5610   -2.9925 C   0  0  0  0  0  0  0  0  0  0  0  0
    8.6951   -0.4351   -3.9320 N   0  0  0  0  0  0  0  0  0  0  0  0
    9.1259    1.6111   -2.7645 N   0  0  0  0  0  0  0  0  0  0  0  0
   12.8620    1.3981   -3.2393 N   0  0  0  0  0  0  0  0  0  0  0  0
    3.5784   -0.1677   -0.1218 O   0  0  0  0  0  0  0  0  0  0  0  0
    2.4959    2.3654    1.8614 H   0  0  0  0  0  0  0  0  0  0  0  0
    1.8860    1.9118    0.2554 H   0  0  0  0  0  0  0  0  0  0  0  0
    3.5281    2.5558    0.4303 H   0  0  0  0  0  0  0  0  0  0  0  0
   14.2769    2.7980   -3.8916 H   0  0  0  0  0  0  0  0  0  0  0  0
   13.4331    3.2927   -2.4008 H   0  0  0  0  0  0  0  0  0  0  0  0
   12.6032    3.3567   -3.9766 H   0  0  0  0  0  0  0  0  0  0  0  0
   14.8147    0.6485   -3.0907 H   0  0  0  0  0  0  0  0  0  0  0  0
   13.5480   -0.4458   -2.5053 H   0  0  0  0  0  0  0  0  0  0  0  0
   14.0546    0.9407   -1.5062 H   0  0  0  0  0  0  0  0  0  0  0  0
    2.5031   -0.1208    1.5667 H   0  0  0  0  0  0  0  0  0  0  0  0
    4.1540    0.4726    1.7745 H   0  0  0  0  0  0  0  0  0  0  0  0
    7.7497    1.7001   -0.6732 H   0  0  0  0  0  0  0  0  0  0  0  0
    6.1955   -0.9452   -3.6665 H   0  0  0  0  0  0  0  0  0  0  0  0
    5.6803    1.4498    0.6440 H   0  0  0  0  0  0  0  0  0  0  0  0
    4.1228   -1.2237   -2.3448 H   0  0  0  0  0  0  0  0  0  0  0  0
   10.4597    1.3349   -4.4447 H   0  0  0  0  0  0  0  0  0  0  0  0
   10.5046    2.8832   -3.6204 H   0  0  0  0  0  0  0  0  0  0  0  0
   11.3797    0.2272   -2.3766 H   0  0  0  0  0  0  0  0  0  0  0  0
   11.5330    1.8091   -1.6066 H   0  0  0  0  0  0  0  0  0  0  0  0
    8.3473   -1.3570   -3.7052 H   0  0  0  0  0  0  0  0  0  0  0  0
    9.6371   -0.4562   -4.2976 H   0  0  0  0  0  0  0  0  0  0  0  0
  1  4  1  0  0  0  0
  1 18  1  0  0  0  0
  2 16  1  0  0  0  0
  2 22  1  0  0  0  0
  3 25  1  0  0  0  0
  3 26  1  0  0  0  0
  4 27  1  0  0  0  0
  4 28  1  0  0  0  0
  5 29  1  0  0  0  0
  5  7  2  0  0  0  0
  6 11  2  0  0  0  0
  6  8  1  0  0  0  0
  7 31  1  0  0  0  0
  8 12  2  0  0  0  0
  9 15  1  0  0  0  0
  9 10  1  0  0  0  0
 10 35  1  0  0  0  0
 10 36  1  0  0  0  0
 11  5  1  0  0  0  0
 12  7  1  0  0  0  0
 12 17  1  0  0  0  0
 13 15  2  0  0  0  0
 13 11  1  0  0  0  0
 14 37  1  0  0  0  0
 14 13  1  0  0  0  0
 16 10  1  0  0  0  0
 16  3  1  0  0  0  0
 17  4  1  0  0  0  0
 19  1  1  0  0  0  0
 20  1  1  0  0  0  0
 21  2  1  0  0  0  0
 23  2  1  0  0  0  0
 24  3  1  0  0  0  0
 30  6  1  0  0  0  0
 32  8  1  0  0  0  0
 33  9  1  0  0  0  0
 34  9  1  0  0  0  0
 38 14  1  0  0  0  0
M  END
>  <HBA>
4

>  <HBD>
1

>  <TPSA>
50.85

>  <cid>
48233

>  <dipole>
1.92

>  <excitation_energy_1>
4.522

>  <excitation_energy_2>
4.727

>  <excitation_energy_3>
4.833

>  <excitation_energy_4>
4.951

>  <homo_energy>
-5.51

>  <homo_lumo_gap>
5.178

>  <logP>
2.053

>  <lumo_energy>
-0.332

>  <melting_point>
84.69

>  <molecular_refractivity>
71.22

>  <oscillator_strength_1>
0.0845

>  <oscillator_strength_2>
0.0101

>  <oscillator_strength_3>
0.2801

>  <oscillator_strength_4>
0.0471

>  <open_babel_can_smiles>
CCOc1ccc(cc1)/C(=N/CCN(C)C)/N

>  <mulliken_charges>
38
1   -0.463263
2   -0.301355
3   -0.291527
4   -0.03774
5   -0.172928
6   -0.196668
7   -0.197486
8   -0.181414
9   -0.173554
10   -0.109538
11   0.104812
12   0.384866
13   0.423172
14   -0.776558
15   -0.468263
16   -0.37098
17   -0.520947
18   0.148283
19   0.164545
20   0.166711
21   0.146489
22   0.11815
23   0.15581
24   0.146168
25   0.143974
26   0.11789
27   0.156322
28   0.143998
29   0.157627
30   0.134912
31   0.133368
32   0.136193
33   0.11992
34   0.147518
35   0.126338
36   0.123282
37   0.325888
38   0.335987

>  <lowdin_charges>
38
1   -0.461061
2   -0.359734
3   -0.352767
4   -0.127954
5   -0.127347
6   -0.156482
7   -0.21422
8   -0.186973
9   -0.209979
10   -0.202388
11   -0.041982
12   0.108239
13   0.094959
14   -0.494444
15   -0.246559
16   -0.187419
17   -0.20045
18   0.157337
19   0.160822
20   0.161195
21   0.149195
22   0.120671
23   0.153379
24   0.148247
25   0.145444
26   0.118934
27   0.155816
28   0.140638
29   0.176145
30   0.1598
31   0.161568
32   0.166673
33   0.123585
34   0.146039
35   0.137089
36   0.123464
37   0.280405
38   0.280116

$$$$

