PCCDB-ID:  16912
public computational chemistry database (PCCDB) project, http://pccdb.org

 27 26  0  0  0  0  0  0  0  0999 V2000
    5.1862   -0.9116    2.7646 C   0  0  0  0  0  0  0  0  0  0  0  0
    4.6951    3.9550   -1.4081 C   0  0  0  0  0  0  0  0  0  0  0  0
    4.7280    4.3692    1.0716 C   0  0  0  0  0  0  0  0  0  0  0  0
    4.6930   -0.1606    1.5237 C   0  0  0  0  0  0  0  0  0  0  0  0
    5.2697    1.2574    1.4038 C   0  0  0  0  0  0  0  0  0  0  0  0
    4.7736    1.9934    0.1487 C   0  0  0  0  0  0  0  0  0  0  0  0
    6.7877    3.5511   -0.0807 C   0  0  0  0  0  0  0  0  0  0  0  0
    5.2448    3.4581   -0.0575 C   0  0  0  0  0  0  0  0  0  0  0  0
    7.4072    2.7520   -1.0844 O   0  0  0  0  0  0  0  0  0  0  0  0
    4.7529   -1.9165    2.8223 H   0  0  0  0  0  0  0  0  0  0  0  0
    4.9150   -0.3785    3.6842 H   0  0  0  0  0  0  0  0  0  0  0  0
    6.2779   -1.0202    2.7562 H   0  0  0  0  0  0  0  0  0  0  0  0
    3.6044    3.8487   -1.4540 H   0  0  0  0  0  0  0  0  0  0  0  0
    5.1334    3.3884   -2.2357 H   0  0  0  0  0  0  0  0  0  0  0  0
    4.9346    5.0143   -1.5632 H   0  0  0  0  0  0  0  0  0  0  0  0
    3.6325    4.3469    1.1200 H   0  0  0  0  0  0  0  0  0  0  0  0
    5.0297    5.4100    0.9009 H   0  0  0  0  0  0  0  0  0  0  0  0
    5.1119    4.0719    2.0542 H   0  0  0  0  0  0  0  0  0  0  0  0
    3.5956   -0.1013    1.5431 H   0  0  0  0  0  0  0  0  0  0  0  0
    4.9485   -0.7347    0.6215 H   0  0  0  0  0  0  0  0  0  0  0  0
    6.3684    1.1914    1.4018 H   0  0  0  0  0  0  0  0  0  0  0  0
    5.0061    1.8248    2.3066 H   0  0  0  0  0  0  0  0  0  0  0  0
    3.6741    1.9897    0.1525 H   0  0  0  0  0  0  0  0  0  0  0  0
    5.0621    1.4103   -0.7386 H   0  0  0  0  0  0  0  0  0  0  0  0
    7.1962    3.3134    0.9142 H   0  0  0  0  0  0  0  0  0  0  0  0
    7.0823    4.5817   -0.3091 H   0  0  0  0  0  0  0  0  0  0  0  0
    7.3113    1.8242   -0.8214 H   0  0  0  0  0  0  0  0  0  0  0  0
  1 10  1  0  0  0  0
  1 11  1  0  0  0  0
  2  8  1  0  0  0  0
  3 16  1  0  0  0  0
  3 18  1  0  0  0  0
  4 19  1  0  0  0  0
  4  1  1  0  0  0  0
  5  4  1  0  0  0  0
  5 22  1  0  0  0  0
  6 23  1  0  0  0  0
  6  5  1  0  0  0  0
  7  8  1  0  0  0  0
  7 25  1  0  0  0  0
  8  6  1  0  0  0  0
  8  3  1  0  0  0  0
  9 27  1  0  0  0  0
  9  7  1  0  0  0  0
 12  1  1  0  0  0  0
 13  2  1  0  0  0  0
 14  2  1  0  0  0  0
 15  2  1  0  0  0  0
 17  3  1  0  0  0  0
 20  4  1  0  0  0  0
 21  5  1  0  0  0  0
 24  6  1  0  0  0  0
 26  7  1  0  0  0  0
M  END
>  <HBA>
1

>  <HBD>
1

>  <TPSA>
20.23

>  <cid>
16912

>  <dipole>
1.74

>  <excitation_energy_1>
6.355

>  <excitation_energy_2>
6.953

>  <excitation_energy_3>
7.136

>  <excitation_energy_4>
7.317

>  <homo_energy>
-7.034

>  <homo_lumo_gap>
8.583

>  <logP>
2.195

>  <lumo_energy>
1.548

>  <melting_point>
9.41

>  <molecular_refractivity>
41.47

>  <oscillator_strength_1>
0.002

>  <oscillator_strength_2>
0.0235

>  <oscillator_strength_3>
0.0073

>  <oscillator_strength_4>
0.0103

>  <open_babel_can_smiles>
CCCCC(CO)(C)C

>  <mulliken_charges>
27
1   -0.442489
2   -0.447276
3   -0.456521
4   -0.246536
5   -0.263211
6   -0.275591
7   -0.038158
8   0.082843
9   -0.622566
10   0.144119
11   0.142809
12   0.141019
13   0.133723
14   0.158873
15   0.134999
16   0.142208
17   0.141092
18   0.142021
19   0.133827
20   0.129275
21   0.119748
22   0.136774
23   0.13059
24   0.124149
25   0.120615
26   0.139653
27   0.394011

>  <lowdin_charges>
27
1   -0.442196
2   -0.441536
3   -0.441468
4   -0.269372
5   -0.279531
6   -0.281242
7   -0.139424
8   -0.007613
9   -0.464143
10   0.149882
11   0.14718
12   0.144022
13   0.142925
14   0.157575
15   0.144516
16   0.148137
17   0.14767
18   0.146289
19   0.138298
20   0.13849
21   0.129744
22   0.142473
23   0.141045
24   0.137753
25   0.12589
26   0.144628
27   0.340008

$$$$

