PCCDB-ID:  66789
public computational chemistry database (PCCDB) project, http://pccdb.org

 24 23  0  0  1  0  0  0  0  0999 V2000
    1.7062    1.1284   -0.1519 C   0  0  0  0  0  0  0  0  0  0  0  0
    3.3649   -0.2540   -1.4710 C   0  0  0  0  0  0  0  0  0  0  0  0
    3.2163    2.1229    2.7148 C   0  0  0  0  0  0  0  0  0  0  0  0
    2.4825   -0.1924   -0.2149 C   0  0  0  0  0  0  0  0  0  0  0  0
    4.3597    1.4974    1.9366 C   0  0  0  0  0  0  0  0  0  0  0  0
    3.3295   -0.5065    1.0471 C   0  0  2  0  0  0  0  0  0  0  0  0
    2.4807   -0.8227    2.2941 C   0  0  0  0  0  0  0  0  0  0  0  0
    4.4395    0.4163    1.2725 N   0  0  0  0  0  0  0  0  0  0  0  0
    5.5149    2.2266    1.9937 O   0  0  0  0  0  0  0  0  0  0  0  0
    1.2840   -0.9770    2.3082 O   0  0  0  0  0  0  0  0  0  0  0  0
    3.2078   -0.9896    3.4319 O   0  0  0  0  0  0  0  0  0  0  0  0
    2.3810    1.9899   -0.0814 H   0  0  0  0  0  0  0  0  0  0  0  0
    1.1174    1.2546   -1.0675 H   0  0  0  0  0  0  0  0  0  0  0  0
    1.0113    1.1461    0.6924 H   0  0  0  0  0  0  0  0  0  0  0  0
    2.7578   -0.1099   -2.3719 H   0  0  0  0  0  0  0  0  0  0  0  0
    3.8715   -1.2226   -1.5587 H   0  0  0  0  0  0  0  0  0  0  0  0
    4.1360    0.5232   -1.4498 H   0  0  0  0  0  0  0  0  0  0  0  0
    2.2847    1.5674    2.6323 H   0  0  0  0  0  0  0  0  0  0  0  0
    3.0345    3.1407    2.3484 H   0  0  0  0  0  0  0  0  0  0  0  0
    3.4816    2.1880    3.7774 H   0  0  0  0  0  0  0  0  0  0  0  0
    1.7468   -1.0047   -0.2667 H   0  0  0  0  0  0  0  0  0  0  0  0
    3.8148   -1.4720    0.8281 H   0  0  0  0  0  0  0  0  0  0  0  0
    5.3636    3.0278    2.5189 H   0  0  0  0  0  0  0  0  0  0  0  0
    4.1462   -0.8213    3.2289 H   0  0  0  0  0  0  0  0  0  0  0  0
  1 12  1  0  0  0  0
  1 14  1  0  0  0  0
  2 17  1  0  0  0  0
  2  4  1  0  0  0  0
  3 20  1  0  0  0  0
  4  1  1  0  0  0  0
  4  6  1  0  0  0  0
  5  9  1  0  0  0  0
  5  3  1  0  0  0  0
  6 22  1  6  0  0  0
  6  8  1  0  0  0  0
  6  7  1  0  0  0  0
  7 10  2  0  0  0  0
  7 11  1  0  0  0  0
  8  5  2  0  0  0  0
  9 23  1  0  0  0  0
 13  1  1  0  0  0  0
 15  2  1  0  0  0  0
 16  2  1  0  0  0  0
 18  3  1  0  0  0  0
 19  3  1  0  0  0  0
 21  4  1  0  0  0  0
 24 11  1  0  0  0  0
M  END
>  <HBA>
4

>  <HBD>
2

>  <TPSA>
66.4

>  <cid>
66789

>  <dipole>
3.36

>  <excitation_energy_1>
5.193

>  <excitation_energy_2>
5.271

>  <excitation_energy_3>
5.752

>  <excitation_energy_4>
6.062

>  <homo_energy>
-6.675

>  <homo_lumo_gap>
6.631

>  <logP>
0.623

>  <lumo_energy>
-0.044

>  <melting_point>
98.5

>  <molecular_refractivity>
40.54

>  <oscillator_strength_1>
0.0046

>  <oscillator_strength_2>
0.0017

>  <oscillator_strength_3>
0.0062

>  <oscillator_strength_4>
0.0004

>  <open_babel_can_smiles>
C/C(=N\[C@@H](C(=O)O)C(C)C)/O

>  <mulliken_charges>
24
1   -0.463351
2   -0.448321
3   -0.567217
4   -0.06111
5   0.483276
6   -0.105681
7   0.590615
8   -0.442998
9   -0.566249
10   -0.456275
11   -0.578287
12   0.136249
13   0.148252
14   0.1646
15   0.141442
16   0.140322
17   0.163341
18   0.2118
19   0.177135
20   0.183722
21   0.150652
22   0.171758
23   0.409572
24   0.416751

>  <lowdin_charges>
24
1   -0.452635
2   -0.445126
3   -0.487192
4   -0.118623
5   0.135047
6   -0.106863
7   0.173365
8   -0.224711
9   -0.36022
10   -0.240884
11   -0.357075
12   0.144406
13   0.154997
14   0.158087
15   0.149621
16   0.148298
17   0.157986
18   0.187747
19   0.171264
20   0.173457
21   0.156038
22   0.166749
23   0.357003
24   0.359262

$$$$

