PCCDB-ID:  70546
public computational chemistry database (PCCDB) project, http://pccdb.org

 29 30  0  0  0  0  0  0  0  0999 V2000
    2.2675    0.4604    0.9988 C   0  0  0  0  0  0  0  0  0  0  0  0
    4.4153    2.7412   -5.2735 C   0  0  0  0  0  0  0  0  0  0  0  0
    4.0041   -3.2557   -2.8090 C   0  0  0  0  0  0  0  0  0  0  0  0
    3.8552   -2.2805   -1.6419 C   0  0  0  0  0  0  0  0  0  0  0  0
    5.1051   -2.7682   -3.7497 C   0  0  0  0  0  0  0  0  0  0  0  0
    3.0964    1.4349   -1.5177 C   0  0  0  0  0  0  0  0  0  0  0  0
    3.5133    1.8740   -2.7759 C   0  0  0  0  0  0  0  0  0  0  0  0
    3.7565   -0.8331   -2.0821 C   0  0  0  0  0  0  0  0  0  0  0  0
    4.7879   -1.3854   -4.3109 C   0  0  0  0  0  0  0  0  0  0  0  0
    3.2189    0.0944   -1.1668 C   0  0  0  0  0  0  0  0  0  0  0  0
    4.0565    0.9815   -3.7003 C   0  0  0  0  0  0  0  0  0  0  0  0
    4.1863   -0.3970   -3.3545 C   0  0  0  0  0  0  0  0  0  0  0  0
    5.0324   -1.1327   -5.4791 O   0  0  0  0  0  0  0  0  0  0  0  0
    2.8437   -0.4194    0.0503 O   0  0  0  0  0  0  0  0  0  0  0  0
    4.4909    1.3699   -4.9258 O   0  0  0  0  0  0  0  0  0  0  0  0
    2.0366   -0.1506    1.8737 H   0  0  0  0  0  0  0  0  0  0  0  0
    1.3417    0.9151    0.6205 H   0  0  0  0  0  0  0  0  0  0  0  0
    2.9654    1.2575    1.2894 H   0  0  0  0  0  0  0  0  0  0  0  0
    4.8332    2.8108   -6.2792 H   0  0  0  0  0  0  0  0  0  0  0  0
    5.0047    3.3681   -4.5905 H   0  0  0  0  0  0  0  0  0  0  0  0
    3.3775    3.1010   -5.2872 H   0  0  0  0  0  0  0  0  0  0  0  0
    3.0558   -3.3250   -3.3592 H   0  0  0  0  0  0  0  0  0  0  0  0
    4.2272   -4.2616   -2.4343 H   0  0  0  0  0  0  0  0  0  0  0  0
    4.7187   -2.3835   -0.9658 H   0  0  0  0  0  0  0  0  0  0  0  0
    2.9799   -2.5283   -1.0336 H   0  0  0  0  0  0  0  0  0  0  0  0
    5.2637   -3.4347   -4.6022 H   0  0  0  0  0  0  0  0  0  0  0  0
    6.0568   -2.7045   -3.1990 H   0  0  0  0  0  0  0  0  0  0  0  0
    2.6777    2.1569   -0.8259 H   0  0  0  0  0  0  0  0  0  0  0  0
    3.4099    2.9244   -3.0182 H   0  0  0  0  0  0  0  0  0  0  0  0
  1 18  1  0  0  0  0
  1 16  1  0  0  0  0
  2 15  1  0  0  0  0
  2 20  1  0  0  0  0
  3 23  1  0  0  0  0
  3  4  1  0  0  0  0
  4 25  1  0  0  0  0
  4 24  1  0  0  0  0
  5 27  1  0  0  0  0
  5  3  1  0  0  0  0
  6 10  1  0  0  0  0
  6 28  1  0  0  0  0
  7  6  2  0  0  0  0
  8  4  1  0  0  0  0
  8 10  2  0  0  0  0
  9  5  1  0  0  0  0
  9 12  1  0  0  0  0
 10 14  1  0  0  0  0
 11 12  2  0  0  0  0
 11  7  1  0  0  0  0
 12  8  1  0  0  0  0
 13  9  2  0  0  0  0
 14  1  1  0  0  0  0
 15 11  1  0  0  0  0
 17  1  1  0  0  0  0
 19  2  1  0  0  0  0
 21  2  1  0  0  0  0
 22  3  1  0  0  0  0
 26  5  1  0  0  0  0
 29  7  1  0  0  0  0
M  END
>  <HBA>
3

>  <HBD>
0

>  <TPSA>
35.53

>  <cid>
70546

>  <dipole>
4.47

>  <excitation_energy_1>
3.47

>  <excitation_energy_2>
3.774

>  <excitation_energy_3>
4.98

>  <excitation_energy_4>
5.057

>  <homo_energy>
-5.483

>  <homo_lumo_gap>
4.378

>  <logP>
2.223

>  <lumo_energy>
-1.105

>  <melting_point>
77.18

>  <molecular_refractivity>
57.28

>  <oscillator_strength_1>
0.0001

>  <oscillator_strength_2>
0.0966

>  <oscillator_strength_3>
0.0006

>  <oscillator_strength_4>
0.02

>  <open_babel_can_smiles>
COc1ccc(c2c1C(=O)CCC2)OC

>  <mulliken_charges>
29
1   -0.213157
2   -0.215463
3   -0.279398
4   -0.3305
5   -0.348438
6   -0.192378
7   -0.211736
8   0.036037
9   0.396038
10   0.325594
11   0.338809
12   -0.004693
13   -0.451165
14   -0.516572
15   -0.472493
16   0.169847
17   0.150592
18   0.150314
19   0.177012
20   0.147107
21   0.148397
22   0.147867
23   0.139251
24   0.155761
25   0.166202
26   0.1612
27   0.1553
28   0.135871
29   0.134792

>  <lowdin_charges>
29
1   -0.279745
2   -0.276747
3   -0.273255
4   -0.274788
5   -0.302892
6   -0.188345
7   -0.212162
8   -0.009347
9   0.148977
10   0.073497
11   0.108938
12   -0.077728
13   -0.233636
14   -0.20505
15   -0.169491
16   0.163362
17   0.144258
18   0.144846
19   0.165744
20   0.144283
21   0.142219
22   0.146327
23   0.148014
24   0.156413
25   0.164508
26   0.163814
27   0.158468
28   0.165863
29   0.163655

$$$$

