PCCDB-ID:  35446
public computational chemistry database (PCCDB) project, http://pccdb.org

 30 30  0  0  0  0  0  0  0  0999 V2000
    1.1411    0.2821   -1.0716 C   0  0  0  0  0  0  0  0  0  0  0  0
    5.7063    2.2413   -2.5446 C   0  0  0  0  0  0  0  0  0  0  0  0
    5.8211    1.9025   -1.1947 C   0  0  0  0  0  0  0  0  0  0  0  0
    4.5554    1.8806   -3.2457 C   0  0  0  0  0  0  0  0  0  0  0  0
    4.7985    1.2041   -0.5575 C   0  0  0  0  0  0  0  0  0  0  0  0
    3.5305    1.1844   -2.6061 C   0  0  0  0  0  0  0  0  0  0  0  0
    3.0559   -3.6802    0.9408 C   0  0  0  0  0  0  0  0  0  0  0  0
    3.0881   -4.9873    1.7386 C   0  0  0  0  0  0  0  0  0  0  0  0
    2.8574   -0.8117    0.4189 C   0  0  0  0  0  0  0  0  0  0  0  0
    2.5517    0.0634   -0.5683 C   0  0  0  0  0  0  0  0  0  0  0  0
    3.6370    0.8179   -1.2525 C   0  0  0  0  0  0  0  0  0  0  0  0
    1.9131   -1.6135    1.2343 C   0  0  0  0  0  0  0  0  0  0  0  0
    2.0025   -2.8504    1.5083 N   0  0  0  0  0  0  0  0  0  0  0  0
    1.8071   -5.5839    1.7733 O   0  0  0  0  0  0  0  0  0  0  0  0
    0.8378   -0.9502    1.7704 O   0  0  0  0  0  0  0  0  0  0  0  0
    0.3982   -0.2261   -0.4560 H   0  0  0  0  0  0  0  0  0  0  0  0
    1.0377   -0.1086   -2.0915 H   0  0  0  0  0  0  0  0  0  0  0  0
    0.8980    1.3504   -1.1187 H   0  0  0  0  0  0  0  0  0  0  0  0
    6.5021    2.7892   -3.0416 H   0  0  0  0  0  0  0  0  0  0  0  0
    6.7039    2.1942   -0.6321 H   0  0  0  0  0  0  0  0  0  0  0  0
    4.4521    2.1413   -4.2955 H   0  0  0  0  0  0  0  0  0  0  0  0
    4.8862    0.9796    0.5014 H   0  0  0  0  0  0  0  0  0  0  0  0
    2.6488    0.9086   -3.1756 H   0  0  0  0  0  0  0  0  0  0  0  0
    2.8219   -3.9080   -0.1089 H   0  0  0  0  0  0  0  0  0  0  0  0
    4.0488   -3.2022    0.9585 H   0  0  0  0  0  0  0  0  0  0  0  0
    3.4623   -4.7785    2.7557 H   0  0  0  0  0  0  0  0  0  0  0  0
    3.7715   -5.7042    1.2702 H   0  0  0  0  0  0  0  0  0  0  0  0
    3.9061   -1.0155    0.6190 H   0  0  0  0  0  0  0  0  0  0  0  0
    1.2072   -4.8492    2.0003 H   0  0  0  0  0  0  0  0  0  0  0  0
    0.9991    0.0020    1.6806 H   0  0  0  0  0  0  0  0  0  0  0  0
  1 10  1  0  0  0  0
  1 16  1  0  0  0  0
  2  3  2  0  0  0  0
  3 20  1  0  0  0  0
  3  5  1  0  0  0  0
  4  6  2  0  0  0  0
  4  2  1  0  0  0  0
  5 22  1  0  0  0  0
  6 11  1  0  0  0  0
  7 25  1  0  0  0  0
  7 13  1  0  0  0  0
  7  8  1  0  0  0  0
  8 14  1  0  0  0  0
  8 26  1  0  0  0  0
  9 28  1  0  0  0  0
  9 12  1  0  0  0  0
 10  9  2  0  0  0  0
 11 10  1  0  0  0  0
 11  5  2  0  0  0  0
 12 13  2  0  0  0  0
 12 15  1  0  0  0  0
 14 29  1  0  0  0  0
 17  1  1  0  0  0  0
 18  1  1  0  0  0  0
 19  2  1  0  0  0  0
 21  4  1  0  0  0  0
 23  6  1  0  0  0  0
 24  7  1  0  0  0  0
 27  8  1  0  0  0  0
 30 15  1  0  0  0  0
M  END
>  <HBA>
3

>  <HBD>
2

>  <TPSA>
49.33

>  <cid>
35446

>  <dipole>
6.3

>  <excitation_energy_1>
4.324

>  <excitation_energy_2>
4.496

>  <excitation_energy_3>
4.704

>  <excitation_energy_4>
4.732

>  <homo_energy>
-6.389

>  <homo_lumo_gap>
4.852

>  <logP>
1.589

>  <lumo_energy>
-1.537

>  <melting_point>
83.88

>  <molecular_refractivity>
59.92

>  <oscillator_strength_1>
0.1406

>  <oscillator_strength_2>
0.3303

>  <oscillator_strength_3>
0.0636

>  <oscillator_strength_4>
0.004

>  <open_babel_can_smiles>
OCC/N=C(\C=C(\c1ccccc1)/C)/O

>  <mulliken_charges>
30
1   -0.548432
2   -0.12484
3   -0.131156
4   -0.130576
5   -0.176835
6   -0.180667
7   -0.155296
8   -0.012345
9   -0.275372
10   0.115525
11   0.112908
12   0.467154
13   -0.447012
14   -0.630522
15   -0.580725
16   0.179598
17   0.177532
18   0.167951
19   0.136945
20   0.137028
21   0.136931
22   0.134968
23   0.132027
24   0.15366
25   0.123875
26   0.116413
27   0.132452
28   0.1576
29   0.405244
30   0.405965

>  <lowdin_charges>
30
1   -0.455925
2   -0.151325
3   -0.153222
4   -0.150324
5   -0.155284
6   -0.15966
7   -0.217967
8   -0.137499
9   -0.229096
10   0.01992
11   -0.009084
12   0.127513
13   -0.209743
14   -0.475419
15   -0.364935
16   0.171928
17   0.169016
18   0.162317
19   0.162611
20   0.161966
21   0.159704
22   0.158954
23   0.161078
24   0.148201
25   0.133031
26   0.122996
27   0.143241
28   0.169916
29   0.343493
30   0.353601

$$$$

