PCCDB-ID:  28150
public computational chemistry database (PCCDB) project, http://pccdb.org

 33 33  0  0  1  0  0  0  0  0999 V2000
    0.0573    0.5743   -0.3262 C   0  0  0  0  0  0  0  0  0  0  0  0
    3.0243   -1.4357    1.0280 C   0  0  0  0  0  0  0  0  0  0  0  0
    4.0362   -0.4817    0.9951 C   0  0  0  0  0  0  0  0  0  0  0  0
    1.7395   -1.0872    0.5993 C   0  0  0  0  0  0  0  0  0  0  0  0
    3.7710    0.8133    0.5385 C   0  0  0  0  0  0  0  0  0  0  0  0
    3.1188    3.4030   -0.4132 C   0  0  0  0  0  0  0  0  0  0  0  0
    1.3536    5.1790   -0.0781 C   0  0  0  0  0  0  0  0  0  0  0  0
    1.4409    0.1948    0.1378 C   0  0  0  0  0  0  0  0  0  0  0  0
    2.4624    4.6567   -0.9823 C   0  0  1  0  0  0  0  0  0  0  0  0
    2.4824    1.1456    0.1135 C   0  0  0  0  0  0  0  0  0  0  0  0
   -0.1366    7.0780   -0.1362 C   0  0  0  0  0  0  0  0  0  0  0  0
   -0.4236    8.3479   -2.0227 N   0  0  0  0  0  0  0  0  0  0  0  0
   -0.7354    8.0593   -0.6745 N   0  0  0  0  0  0  0  0  0  0  0  0
    3.5054    5.6124   -1.1113 O   0  0  0  0  0  0  0  0  0  0  0  0
   -0.4478    6.6623    1.1178 O   0  0  0  0  0  0  0  0  0  0  0  0
    2.1277    2.3878   -0.3522 O   0  0  0  0  0  0  0  0  0  0  0  0
    0.8595    6.3756   -0.7218 O   0  0  0  0  0  0  0  0  0  0  0  0
   -0.6263   -0.2762   -0.2459 H   0  0  0  0  0  0  0  0  0  0  0  0
    0.0630    0.9135   -1.3690 H   0  0  0  0  0  0  0  0  0  0  0  0
   -0.3531    1.3998    0.2682 H   0  0  0  0  0  0  0  0  0  0  0  0
    3.2262   -2.4418    1.3841 H   0  0  0  0  0  0  0  0  0  0  0  0
    5.0406   -0.7331    1.3250 H   0  0  0  0  0  0  0  0  0  0  0  0
    0.9444   -1.8290    0.6226 H   0  0  0  0  0  0  0  0  0  0  0  0
    4.5690    1.5468    0.5166 H   0  0  0  0  0  0  0  0  0  0  0  0
    3.5286    3.6143    0.5845 H   0  0  0  0  0  0  0  0  0  0  0  0
    3.9482    3.1082   -1.0689 H   0  0  0  0  0  0  0  0  0  0  0  0
    1.7508    5.4305    0.9104 H   0  0  0  0  0  0  0  0  0  0  0  0
    0.5476    4.4490    0.0278 H   0  0  0  0  0  0  0  0  0  0  0  0
    2.0270    4.4140   -1.9641 H   0  0  0  0  0  0  0  0  0  0  0  0
   -0.6229    9.3365   -2.1484 H   0  0  0  0  0  0  0  0  0  0  0  0
    0.5709    8.2063   -2.2106 H   0  0  0  0  0  0  0  0  0  0  0  0
    3.0796    6.4518   -1.3480 H   0  0  0  0  0  0  0  0  0  0  0  0
   -1.1911    7.2236    1.3993 H   0  0  0  0  0  0  0  0  0  0  0  0
  1 18  1  0  0  0  0
  1  8  1  0  0  0  0
  1 20  1  0  0  0  0
  2 21  1  0  0  0  0
  3  2  1  0  0  0  0
  3 22  1  0  0  0  0
  4 23  1  0  0  0  0
  4  2  2  0  0  0  0
  5  3  2  0  0  0  0
  6 16  1  0  0  0  0
  6 25  1  0  0  0  0
  7 28  1  0  0  0  0
  7 27  1  0  0  0  0
  8  4  1  0  0  0  0
  9 29  1  6  0  0  0
  9  6  1  0  0  0  0
  9  7  1  0  0  0  0
 10  8  2  0  0  0  0
 10  5  1  0  0  0  0
 11 15  1  0  0  0  0
 12 13  1  0  0  0  0
 13 11  2  0  0  0  0
 14  9  1  0  0  0  0
 15 33  1  0  0  0  0
 16 10  1  0  0  0  0
 17 11  1  0  0  0  0
 17  7  1  0  0  0  0
 19  1  1  0  0  0  0
 24  5  1  0  0  0  0
 26  6  1  0  0  0  0
 30 12  1  0  0  0  0
 31 12  1  0  0  0  0
 32 14  1  0  0  0  0
M  END
>  <HBA>
6

>  <HBD>
3

>  <TPSA>
93.81

>  <cid>
28150

>  <dipole>
1.22

>  <excitation_energy_1>
4.73

>  <excitation_energy_2>
5.071

>  <excitation_energy_3>
5.136

>  <excitation_energy_4>
5.289

>  <homo_energy>
-5.51

>  <homo_lumo_gap>
5.622

>  <logP>
1.426

>  <lumo_energy>
0.112

>  <melting_point>
134.09

>  <molecular_refractivity>
60.67

>  <oscillator_strength_1>
0.0041

>  <oscillator_strength_2>
0.0313

>  <oscillator_strength_3>
0.0064

>  <oscillator_strength_4>
0.0

>  <open_babel_can_smiles>
N/N=C(\OC[C@H](COc1ccccc1C)O)/O

>  <mulliken_charges>
33
1   -0.515736
2   -0.126575
3   -0.142762
4   -0.190279
5   -0.19255
6   -0.04332
7   -0.039104
8   0.124177
9   0.096203
10   0.326715
11   0.743468
12   -0.574239
13   -0.406977
14   -0.639491
15   -0.607803
16   -0.534217
17   -0.518203
18   0.149192
19   0.165178
20   0.162233
21   0.124794
22   0.128708
23   0.122453
24   0.137854
25   0.15025
26   0.163067
27   0.163678
28   0.178288
29   0.144945
30   0.318905
31   0.298681
32   0.405429
33   0.427037

>  <lowdin_charges>
33
1   -0.437481
2   -0.174333
3   -0.151056
4   -0.160774
5   -0.21323
6   -0.132183
7   -0.138687
8   -0.024203
9   -0.014945
10   0.095358
11   0.160956
12   -0.448105
13   -0.213821
14   -0.459859
15   -0.371821
16   -0.206342
17   -0.21489
18   0.155645
19   0.1614
20   0.161155
21   0.155961
22   0.156786
23   0.156117
24   0.164509
25   0.14449
26   0.154463
27   0.155201
28   0.165369
29   0.14171
30   0.263507
31   0.244986
32   0.348684
33   0.375432

$$$$

