PCCDB-ID:  11335
public computational chemistry database (PCCDB) project, http://pccdb.org

 19 19  0  0  0  0  0  0  0  0999 V2000
    0.9466   -0.0328   -0.0671 C   0  0  0  0  0  0  0  0  0  0  0  0
    5.2668   -2.6317    0.2191 C   0  0  0  0  0  0  0  0  0  0  0  0
    4.5632    1.1284    0.3723 C   0  0  0  0  0  0  0  0  0  0  0  0
    3.1774    1.1455    0.2314 C   0  0  0  0  0  0  0  0  0  0  0  0
    5.2393   -0.0927    0.3678 C   0  0  0  0  0  0  0  0  0  0  0  0
    2.4505   -0.0414    0.0853 C   0  0  0  0  0  0  0  0  0  0  0  0
    4.5554   -1.3022    0.2249 C   0  0  0  0  0  0  0  0  0  0  0  0
    3.1583   -1.2549    0.0857 C   0  0  0  0  0  0  0  0  0  0  0  0
    2.5217   -2.4650   -0.0522 O   0  0  0  0  0  0  0  0  0  0  0  0
    0.5614    0.9905   -0.0506 H   0  0  0  0  0  0  0  0  0  0  0  0
    0.4416   -0.5784    0.7436 H   0  0  0  0  0  0  0  0  0  0  0  0
    0.6213   -0.4808   -1.0178 H   0  0  0  0  0  0  0  0  0  0  0  0
    6.3458   -2.4969    0.3423 H   0  0  0  0  0  0  0  0  0  0  0  0
    5.0932   -3.1746   -0.7179 H   0  0  0  0  0  0  0  0  0  0  0  0
    4.9068   -3.2817    1.0256 H   0  0  0  0  0  0  0  0  0  0  0  0
    5.1129    2.0584    0.4846 H   0  0  0  0  0  0  0  0  0  0  0  0
    2.6413    2.0919    0.2326 H   0  0  0  0  0  0  0  0  0  0  0  0
    6.3211   -0.1139    0.4781 H   0  0  0  0  0  0  0  0  0  0  0  0
    1.5684   -2.3153   -0.1366 H   0  0  0  0  0  0  0  0  0  0  0  0
  1 10  1  0  0  0  0
  1  6  1  0  0  0  0
  1 11  1  0  0  0  0
  2  7  1  0  0  0  0
  2 13  1  0  0  0  0
  2 15  1  0  0  0  0
  3 16  1  0  0  0  0
  4 17  1  0  0  0  0
  4  3  2  0  0  0  0
  5  3  1  0  0  0  0
  5 18  1  0  0  0  0
  6  8  2  0  0  0  0
  6  4  1  0  0  0  0
  7  5  2  0  0  0  0
  8  7  1  0  0  0  0
  9  8  1  0  0  0  0
 12  1  1  0  0  0  0
 14  2  1  0  0  0  0
 19  9  1  0  0  0  0
M  END
>  <HBA>
1

>  <HBD>
1

>  <TPSA>
20.23

>  <cid>
11335

>  <dipole>
1.49

>  <excitation_energy_1>
5.037

>  <excitation_energy_2>
5.048

>  <excitation_energy_3>
5.667

>  <excitation_energy_4>
5.694

>  <homo_energy>
-5.714

>  <homo_lumo_gap>
6.003

>  <logP>
2.009

>  <lumo_energy>
0.288

>  <melting_point>
52.97

>  <molecular_refractivity>
38.4

>  <oscillator_strength_1>
0.0032

>  <oscillator_strength_2>
0.0352

>  <oscillator_strength_3>
0.0059

>  <oscillator_strength_4>
0.0007

>  <open_babel_can_smiles>
Cc1cccc(c1O)C

>  <mulliken_charges>
19
1   -0.579092
2   -0.512292
3   -0.124774
4   -0.200973
5   -0.197064
6   0.168421
7   0.149285
8   0.206717
9   -0.647742
10   0.170347
11   0.160161
12   0.159968
13   0.145413
14   0.164872
15   0.165013
16   0.121308
17   0.117712
18   0.118985
19   0.413735

>  <lowdin_charges>
19
1   -0.45409
2   -0.435617
3   -0.179363
4   -0.165272
5   -0.160274
6   -0.050806
7   -0.026439
8   0.08413
9   -0.383481
10   0.166616
11   0.155794
12   0.154714
13   0.151444
14   0.162628
15   0.163523
16   0.155739
17   0.152919
18   0.151912
19   0.355923

$$$$

