PCCDB-ID:  9218
public computational chemistry database (PCCDB) project, http://pccdb.org

 19 21  0  0  1  0  0  0  0  0999 V2000
   -1.5820    1.1250   -0.1276 C   0  0  0  0  0  0  0  0  0  0  0  0
   -2.2869   -0.0360   -0.0634 C   0  0  0  0  0  0  0  0  0  0  0  0
    0.9824    1.3964    0.0178 C   0  0  0  0  0  0  0  0  0  0  0  0
    0.9452   -1.5635    0.1462 C   0  0  0  0  0  0  0  0  0  0  0  0
    4.2205   -0.1911   -0.0982 C   0  0  0  0  0  0  0  0  0  0  0  0
   -0.1895    0.7313    0.0015 C   0  0  0  0  0  0  0  0  0  0  0  0
   -0.2556   -0.7651    0.1267 C   0  0  0  0  0  0  0  0  0  0  0  0
    2.2045    0.6134    0.3765 C   0  0  1  0  0  0  0  0  0  0  0  0
    2.1036   -0.8766    0.1853 C   0  0  0  0  0  0  0  0  0  0  0  0
   -1.4878   -1.1969    0.0851 N   0  0  0  0  0  0  0  0  0  0  0  0
    3.3982    0.9180   -0.3537 O   0  0  0  0  0  0  0  0  0  0  0  0
    3.3573   -1.3488   -0.0172 O   0  0  0  0  0  0  0  0  0  0  0  0
   -1.9624    2.1325   -0.2271 H   0  0  0  0  0  0  0  0  0  0  0  0
   -3.3636   -0.1547   -0.1140 H   0  0  0  0  0  0  0  0  0  0  0  0
    1.0677    2.4759   -0.0745 H   0  0  0  0  0  0  0  0  0  0  0  0
    0.8959   -2.6391    0.0212 H   0  0  0  0  0  0  0  0  0  0  0  0
    4.7455   -0.0938    0.8648 H   0  0  0  0  0  0  0  0  0  0  0  0
    4.9231   -0.3287   -0.9215 H   0  0  0  0  0  0  0  0  0  0  0  0
    2.3978    0.7991    1.4550 H   0  0  0  0  0  0  0  0  0  0  0  0
  1  2  2  0  0  0  0
  1  6  1  0  0  0  0
  2 10  1  0  0  0  0
  3  8  1  0  0  0  0
  4  9  2  0  0  0  0
  5 12  1  0  0  0  0
  5 17  1  0  0  0  0
  6  3  1  0  0  0  0
  6  7  2  0  0  0  0
  7  4  1  0  0  0  0
  8 19  1  1  0  0  0
  9  8  1  0  0  0  0
 10  7  1  0  0  0  0
 11  5  1  0  0  0  0
 11  8  1  0  0  0  0
 12  9  1  0  0  0  0
 13  1  1  0  0  0  0
 14  2  1  0  0  0  0
 15  3  1  0  0  0  0
 16  4  1  0  0  0  0
 18  5  1  0  0  0  0
M  RAD  2   3   2  10   2
M  END
>  <HBA>
3

>  <HBD>
0

>  <TPSA>
30.82

>  <cid>
9218

>  <dipole>
3.72

>  <excitation_energy_1>
2.657

>  <excitation_energy_2>
3.624

>  <excitation_energy_3>
4.43

>  <excitation_energy_4>
4.661

>  <homo_energy>
-5.538

>  <homo_lumo_gap>
3.339

>  <logP>
0.587

>  <lumo_energy>
-2.199

>  <melting_point>
75.35

>  <molecular_refractivity>
46.79

>  <oscillator_strength_1>
0.0383

>  <oscillator_strength_2>
0.0006

>  <oscillator_strength_3>
0.0234

>  <oscillator_strength_4>
0.0172

>  <open_babel_can_smiles>
C1OC2=Cc3c([CH][C@@H]2O1)cc[n]3

>  <mulliken_charges>
19
1   -0.193923
2   0.007323
3   -0.235319
4   -0.210575
5   0.186547
6   0.164104
7   0.270595
8   0.020983
9   0.3733
10   -0.509999
11   -0.472321
12   -0.502129
13   0.13488
14   0.139037
15   0.163831
16   0.158071
17   0.148968
18   0.178408
19   0.178218

>  <lowdin_charges>
19
1   -0.227634
2   -0.080227
3   -0.135318
4   -0.206816
5   -0.000501
6   -0.007786
7   0.054553
8   -0.003744
9   0.09439
10   -0.19601
11   -0.247728
12   -0.185951
13   0.165279
14   0.15765
15   0.172995
16   0.180554
17   0.137007
18   0.166246
19   0.163041

$$$$

