PCCDB-ID:  42041
public computational chemistry database (PCCDB) project, http://pccdb.org

 25 25  0  0  0  0  0  0  0  0999 V2000
    0.9794   -1.7096    1.5341 C   0  0  0  0  0  0  0  0  0  0  0  0
    2.5074   -1.6087    1.5675 C   0  0  0  0  0  0  0  0  0  0  0  0
    3.0173   -0.1842    1.3121 C   0  0  0  0  0  0  0  0  0  0  0  0
    6.9914   -1.1172    6.3520 C   0  0  0  0  0  0  0  0  0  0  0  0
    6.0377   -0.8997    5.2994 C   0  0  0  0  0  0  0  0  0  0  0  0
    4.5354   -0.0611    1.3411 C   0  0  0  0  0  0  0  0  0  0  0  0
    8.2197   -0.9712    5.7892 C   0  0  0  0  0  0  0  0  0  0  0  0
    6.3993   -0.3258    2.7627 C   0  0  0  0  0  0  0  0  0  0  0  0
    6.7631   -0.6393    4.1778 C   0  0  0  0  0  0  0  0  0  0  0  0
    4.9954   -0.3822    2.6454 O   0  0  0  0  0  0  0  0  0  0  0  0
    8.1007   -0.6788    4.4575 O   0  0  0  0  0  0  0  0  0  0  0  0
    0.6442   -2.7369    1.7167 H   0  0  0  0  0  0  0  0  0  0  0  0
    0.5797   -1.3969    0.5614 H   0  0  0  0  0  0  0  0  0  0  0  0
    0.5231   -1.0700    2.2997 H   0  0  0  0  0  0  0  0  0  0  0  0
    2.9362   -2.2852    0.8140 H   0  0  0  0  0  0  0  0  0  0  0  0
    2.8837   -1.9517    2.5380 H   0  0  0  0  0  0  0  0  0  0  0  0
    2.5986    0.5017    2.0609 H   0  0  0  0  0  0  0  0  0  0  0  0
    2.6662    0.1680    0.3320 H   0  0  0  0  0  0  0  0  0  0  0  0
    6.7815   -1.3492    7.3870 H   0  0  0  0  0  0  0  0  0  0  0  0
    4.9603   -0.9325    5.3622 H   0  0  0  0  0  0  0  0  0  0  0  0
    4.8447    0.9639    1.0749 H   0  0  0  0  0  0  0  0  0  0  0  0
    4.9920   -0.7434    0.6025 H   0  0  0  0  0  0  0  0  0  0  0  0
    9.2298   -1.0361    6.1633 H   0  0  0  0  0  0  0  0  0  0  0  0
    6.8830   -1.0449    2.0771 H   0  0  0  0  0  0  0  0  0  0  0  0
    6.7759    0.6750    2.4826 H   0  0  0  0  0  0  0  0  0  0  0  0
  1  2  1  0  0  0  0
  1 12  1  0  0  0  0
  1 14  1  0  0  0  0
  2 16  1  0  0  0  0
  3  6  1  0  0  0  0
  3  2  1  0  0  0  0
  3 17  1  0  0  0  0
  4 19  1  0  0  0  0
  5 20  1  0  0  0  0
  5  4  1  0  0  0  0
  6 10  1  0  0  0  0
  7 23  1  0  0  0  0
  7  4  2  0  0  0  0
  8  9  1  0  0  0  0
  9 11  1  0  0  0  0
  9  5  2  0  0  0  0
 10  8  1  0  0  0  0
 11  7  1  0  0  0  0
 13  1  1  0  0  0  0
 15  2  1  0  0  0  0
 18  3  1  0  0  0  0
 21  6  1  0  0  0  0
 22  6  1  0  0  0  0
 24  8  1  0  0  0  0
 25  8  1  0  0  0  0
M  END
>  <HBA>
2

>  <HBD>
0

>  <TPSA>
22.37

>  <cid>
42041

>  <dipole>
0.77

>  <excitation_energy_1>
5.578

>  <excitation_energy_2>
5.795

>  <excitation_energy_3>
5.915

>  <excitation_energy_4>
6.043

>  <homo_energy>
-5.802

>  <homo_lumo_gap>
6.408

>  <logP>
2.596

>  <lumo_energy>
0.607

>  <melting_point>
-5.23

>  <molecular_refractivity>
43.99

>  <oscillator_strength_1>
0.0064

>  <oscillator_strength_2>
0.0039

>  <oscillator_strength_3>
0.2362

>  <oscillator_strength_4>
0.0086

>  <open_babel_can_smiles>
CCCCOCc1ccco1

>  <mulliken_charges>
25
1   -0.442485
2   -0.247374
3   -0.268993
4   -0.186382
5   -0.191135
6   -0.006475
7   0.08094
8   -0.067542
9   0.315468
10   -0.479
11   -0.445866
12   0.143429
13   0.139043
14   0.142782
15   0.126893
16   0.155247
17   0.14459
18   0.130741
19   0.138095
20   0.147202
21   0.121491
22   0.118427
23   0.150272
24   0.140905
25   0.139727

>  <lowdin_charges>
25
1   -0.444542
2   -0.274914
3   -0.282066
4   -0.202105
5   -0.20981
6   -0.126854
7   -0.085695
8   -0.123579
9   0.057251
10   -0.266087
11   -0.110502
12   0.149377
13   0.144655
14   0.14813
15   0.139042
16   0.150845
17   0.149449
18   0.144951
19   0.16649
20   0.172587
21   0.12781
22   0.127022
23   0.168235
24   0.141433
25   0.138877

$$$$

