PCCDB-ID:  18294
public computational chemistry database (PCCDB) project, http://pccdb.org

 38 37  0  0  0  0  0  0  0  0999 V2000
    1.0574    0.1474   -0.2631 C   0  0  0  0  0  0  0  0  0  0  0  0
    2.7109    0.0422    1.4694 C   0  0  0  0  0  0  0  0  0  0  0  0
   10.4677   -5.6576   -5.6386 C   0  0  0  0  0  0  0  0  0  0  0  0
   12.1128   -5.8166   -3.9023 C   0  0  0  0  0  0  0  0  0  0  0  0
    3.0672   -1.1373   -0.6258 C   0  0  0  0  0  0  0  0  0  0  0  0
   10.1109   -4.5230   -3.5188 C   0  0  0  0  0  0  0  0  0  0  0  0
    4.5869   -1.0405   -0.7479 C   0  0  0  0  0  0  0  0  0  0  0  0
    8.5917   -4.6214   -3.3913 C   0  0  0  0  0  0  0  0  0  0  0  0
    6.4265   -2.2068   -1.6654 C   0  0  0  0  0  0  0  0  0  0  0  0
    6.7532   -3.4574   -2.4689 C   0  0  0  0  0  0  0  0  0  0  0  0
    2.4803    0.0301    0.0295 N   0  0  0  0  0  0  0  0  0  0  0  0
   10.6923   -5.6796   -4.1979 N   0  0  0  0  0  0  0  0  0  0  0  0
    5.0251   -2.1681   -1.4857 O   0  0  0  0  0  0  0  0  0  0  0  0
    8.1545   -3.4966   -2.6485 O   0  0  0  0  0  0  0  0  0  0  0  0
    0.6643    1.0638    0.1910 H   0  0  0  0  0  0  0  0  0  0  0  0
    0.4587   -0.7039    0.1180 H   0  0  0  0  0  0  0  0  0  0  0  0
    0.9048    0.2127   -1.3456 H   0  0  0  0  0  0  0  0  0  0  0  0
    2.2962    0.9612    1.8975 H   0  0  0  0  0  0  0  0  0  0  0  0
    3.7824    0.0296    1.6890 H   0  0  0  0  0  0  0  0  0  0  0  0
    2.2453   -0.8190    1.9898 H   0  0  0  0  0  0  0  0  0  0  0  0
   10.8704   -6.5735   -6.0847 H   0  0  0  0  0  0  0  0  0  0  0  0
   10.9485   -4.7927   -6.1385 H   0  0  0  0  0  0  0  0  0  0  0  0
    9.3975   -5.6240   -5.8621 H   0  0  0  0  0  0  0  0  0  0  0  0
   12.4990   -6.7267   -4.3747 H   0  0  0  0  0  0  0  0  0  0  0  0
   12.2605   -5.9066   -2.8210 H   0  0  0  0  0  0  0  0  0  0  0  0
   12.7211   -4.9631   -4.2629 H   0  0  0  0  0  0  0  0  0  0  0  0
    2.8023   -2.0853   -0.1180 H   0  0  0  0  0  0  0  0  0  0  0  0
    2.6638   -1.2002   -1.6424 H   0  0  0  0  0  0  0  0  0  0  0  0
   10.5198   -4.4781   -2.5035 H   0  0  0  0  0  0  0  0  0  0  0  0
   10.3736   -3.5664   -4.0112 H   0  0  0  0  0  0  0  0  0  0  0  0
    5.0742   -1.0279    0.2406 H   0  0  0  0  0  0  0  0  0  0  0  0
    4.8555   -0.1036   -1.2613 H   0  0  0  0  0  0  0  0  0  0  0  0
    8.3256   -5.5601   -2.8800 H   0  0  0  0  0  0  0  0  0  0  0  0
    8.1012   -4.6318   -4.3783 H   0  0  0  0  0  0  0  0  0  0  0  0
    6.7838   -1.3147   -2.2049 H   0  0  0  0  0  0  0  0  0  0  0  0
    6.9512   -2.2405   -0.6966 H   0  0  0  0  0  0  0  0  0  0  0  0
    6.2287   -3.4234   -3.4378 H   0  0  0  0  0  0  0  0  0  0  0  0
    6.3954   -4.3494   -1.9296 H   0  0  0  0  0  0  0  0  0  0  0  0
  1 11  1  0  0  0  0
  1 16  1  0  0  0  0
  1 15  1  0  0  0  0
  2 19  1  0  0  0  0
  2 18  1  0  0  0  0
  2 20  1  0  0  0  0
  3 12  1  0  0  0  0
  4 25  1  0  0  0  0
  5 27  1  0  0  0  0
  5 11  1  0  0  0  0
  6  8  1  0  0  0  0
  6 29  1  0  0  0  0
  7  5  1  0  0  0  0
  7 31  1  0  0  0  0
  8 33  1  0  0  0  0
  8 14  1  0  0  0  0
  9 13  1  0  0  0  0
  9 36  1  0  0  0  0
 10 38  1  0  0  0  0
 10  9  1  0  0  0  0
 11  2  1  0  0  0  0
 12  4  1  0  0  0  0
 12  6  1  0  0  0  0
 13  7  1  0  0  0  0
 14 10  1  0  0  0  0
 17  1  1  0  0  0  0
 21  3  1  0  0  0  0
 22  3  1  0  0  0  0
 23  3  1  0  0  0  0
 24  4  1  0  0  0  0
 26  4  1  0  0  0  0
 28  5  1  0  0  0  0
 30  6  1  0  0  0  0
 32  7  1  0  0  0  0
 34  8  1  0  0  0  0
 35  9  1  0  0  0  0
 37 10  1  0  0  0  0
M  END
>  <HBA>
4

>  <HBD>
0

>  <TPSA>
24.94

>  <cid>
18294

>  <dipole>
0.01

>  <excitation_energy_1>
5.43

>  <excitation_energy_2>
5.433

>  <excitation_energy_3>
5.796

>  <excitation_energy_4>
5.797

>  <homo_energy>
-5.753

>  <homo_lumo_gap>
7.938

>  <logP>
0.143

>  <lumo_energy>
2.185

>  <melting_point>
-41.85

>  <molecular_refractivity>
58.15

>  <oscillator_strength_1>
0.0196

>  <oscillator_strength_2>
0.0201

>  <oscillator_strength_3>
0.0242

>  <oscillator_strength_4>
0.0056

>  <open_babel_can_smiles>
CN(CCOCCOCCN(C)C)C

>  <mulliken_charges>
38
1   -0.293393
2   -0.301863
3   -0.301815
4   -0.29359
5   -0.134313
6   -0.134824
7   -0.005558
8   -0.005001
9   -0.020331
10   -0.020324
11   -0.372875
12   -0.372761
13   -0.491265
14   -0.491227
15   0.147407
16   0.118532
17   0.150502
18   0.149609
19   0.151738
20   0.118921
21   0.149632
22   0.118994
23   0.15159
24   0.14742
25   0.150503
26   0.118593
27   0.122031
28   0.148323
29   0.148085
30   0.122444
31   0.119413
32   0.132217
33   0.132066
34   0.119385
35   0.131134
36   0.129729
37   0.129716
38   0.131154

>  <lowdin_charges>
38
1   -0.354488
2   -0.358373
3   -0.358318
4   -0.354522
5   -0.2047
6   -0.204596
7   -0.131419
8   -0.131365
9   -0.132216
10   -0.132213
11   -0.184046
12   -0.184092
13   -0.273985
14   -0.27407
15   0.149611
16   0.121597
17   0.148444
18   0.151324
19   0.147731
20   0.12174
21   0.151307
22   0.121714
23   0.14773
24   0.149637
25   0.148445
26   0.12158
27   0.123992
28   0.151104
29   0.151027
30   0.124211
31   0.125341
32   0.13316
33   0.133067
34   0.125337
35   0.133397
36   0.131761
37   0.131755
38   0.133392

$$$$

