PCCDB-ID:  70939
public computational chemistry database (PCCDB) project, http://pccdb.org

 15 15  0  0  1  0  0  0  0  0999 V2000
   -1.0434    1.1161    0.1984 C   0  0  0  0  0  0  0  0  0  0  0  0
   -1.2912   -0.3700    0.1694 C   0  0  0  0  0  0  0  0  0  0  0  0
    0.2850    1.4325   -0.5035 C   0  0  0  0  0  0  0  0  0  0  0  0
   -0.3293   -1.2446   -0.1338 C   0  0  0  0  0  0  0  0  0  0  0  0
    1.6931    0.5233    1.3445 C   0  0  0  0  0  0  0  0  0  0  0  0
    1.3640    0.4133   -0.0963 C   0  0  1  0  0  0  0  0  0  0  0  0
    1.9570    0.6332    2.4692 N   0  0  0  0  0  0  0  0  0  0  0  0
    0.9828   -0.9279   -0.4075 O   0  0  0  0  0  0  0  0  0  0  0  0
   -1.0290    1.4893    1.2323 H   0  0  0  0  0  0  0  0  0  0  0  0
   -1.8592    1.6482   -0.3069 H   0  0  0  0  0  0  0  0  0  0  0  0
   -2.2843   -0.7523    0.3838 H   0  0  0  0  0  0  0  0  0  0  0  0
    0.6354    2.4450   -0.2783 H   0  0  0  0  0  0  0  0  0  0  0  0
    0.1670    1.3526   -1.5900 H   0  0  0  0  0  0  0  0  0  0  0  0
   -0.4767   -2.3169   -0.2033 H   0  0  0  0  0  0  0  0  0  0  0  0
    2.2854    0.5846   -0.6615 H   0  0  0  0  0  0  0  0  0  0  0  0
  1  9  1  0  0  0  0
  2  1  1  0  0  0  0
  2 11  1  0  0  0  0
  3 12  1  0  0  0  0
  3  6  1  0  0  0  0
  3  1  1  0  0  0  0
  4  2  2  0  0  0  0
  5  7  3  0  0  0  0
  6 15  1  6  0  0  0
  6  5  1  0  0  0  0
  8  4  1  0  0  0  0
  8  6  1  0  0  0  0
 10  1  1  0  0  0  0
 13  3  1  0  0  0  0
 14  4  1  0  0  0  0
M  END
>  <HBA>
2

>  <HBD>
0

>  <TPSA>
33.02

>  <cid>
70939

>  <dipole>
3.57

>  <excitation_energy_1>
5.395

>  <excitation_energy_2>
5.637

>  <excitation_energy_3>
6.021

>  <excitation_energy_4>
6.3

>  <homo_energy>
-6.373

>  <homo_lumo_gap>
6.634

>  <logP>
1.203

>  <lumo_energy>
0.261

>  <melting_point>
30.76

>  <molecular_refractivity>
29.2

>  <oscillator_strength_1>
0.0015

>  <oscillator_strength_2>
0.0221

>  <oscillator_strength_3>
0.0052

>  <oscillator_strength_4>
0.02

>  <open_babel_can_smiles>
C1CC=CO[C@@H]1C#N

>  <mulliken_charges>
15
1   -0.310172
2   -0.151415
3   -0.292677
4   0.108599
5   0.367303
6   0.050734
7   -0.46518
8   -0.456097
9   0.173209
10   0.15673
11   0.138558
12   0.163202
13   0.169259
14   0.153869
15   0.194078

>  <lowdin_charges>
15
1   -0.274105
2   -0.231149
3   -0.276102
4   -0.050987
5   -0.026731
6   0.009061
7   -0.109257
8   -0.198943
9   0.160086
10   0.160657
11   0.167098
12   0.163338
13   0.159878
14   0.165398
15   0.18176

$$$$

