PCCDB-ID:  43157
public computational chemistry database (PCCDB) project, http://pccdb.org

 14 14  0  0  0  0  0  0  0  0999 V2000
    1.0585   -0.0240    0.0328 C   0  0  0  0  0  0  0  0  0  0  0  0
    2.2668    0.0716    0.0248 C   0  0  0  0  0  0  0  0  0  0  0  0
    4.4618    1.2538    0.0177 C   0  0  0  0  0  0  0  0  0  0  0  0
    3.6876    0.0899    0.0223 C   0  0  0  0  0  0  0  0  0  0  0  0
    4.4264   -1.1276    0.0224 C   0  0  0  0  0  0  0  0  0  0  0  0
    6.3581    0.0233    0.0083 C   0  0  0  0  0  0  0  0  0  0  0  0
    5.7952    1.2417    0.0111 N   0  0  0  0  0  0  0  0  0  0  0  0
    5.7492   -1.1610    0.0162 N   0  0  0  0  0  0  0  0  0  0  0  0
    3.8098   -2.3164    0.0276 O   0  0  0  0  0  0  0  0  0  0  0  0
    7.6974   -0.0191   -0.0017 O   0  0  0  0  0  0  0  0  0  0  0  0
   -0.0070   -0.0739    0.0248 H   0  0  0  0  0  0  0  0  0  0  0  0
    3.9790    2.2285    0.0165 H   0  0  0  0  0  0  0  0  0  0  0  0
    2.8464   -2.1606    0.0301 H   0  0  0  0  0  0  0  0  0  0  0  0
    7.9957    0.9081   -0.0005 H   0  0  0  0  0  0  0  0  0  0  0  0
  2  1  3  0  0  0  0
  3  4  2  0  0  0  0
  4  5  1  0  0  0  0
  4  2  1  0  0  0  0
  5  9  1  0  0  0  0
  6  7  2  0  0  0  0
  6  8  2  0  0  0  0
  7  3  1  0  0  0  0
  8  5  2  0  0  0  0
  9 13  1  0  0  0  0
 10 14  1  0  0  0  0
 10  6  1  0  0  0  0
 11  1  1  0  0  0  0
 12  3  1  0  0  0  0
M  END
>  <HBA>
2

>  <HBD>
2

>  <TPSA>
65.72

>  <cid>
43157

>  <dipole>
3.44

>  <excitation_energy_1>
4.717

>  <excitation_energy_2>
4.789

>  <excitation_energy_3>
5.151

>  <excitation_energy_4>
5.238

>  <homo_energy>
-6.569

>  <homo_lumo_gap>
5.339

>  <logP>
-0.956

>  <lumo_energy>
-1.23

>  <melting_point>
189.27

>  <molecular_refractivity>
35.62

>  <oscillator_strength_1>
0.0022

>  <oscillator_strength_2>
0.1706

>  <oscillator_strength_3>
0.0026

>  <oscillator_strength_4>
0.2193

>  <open_babel_can_smiles>
OC1=[N]=[C](=NC=C1C#C)O

>  <mulliken_charges>
14
1   -0.600215
2   0.322384
3   0.051103
4   -0.033835
5   0.506888
6   0.6462
7   -0.486215
8   -0.47589
9   -0.582719
10   -0.573267
11   0.214113
12   0.169469
13   0.419815
14   0.422169

>  <lowdin_charges>
14
1   -0.236032
2   -0.049503
3   -0.040115
4   -0.103167
5   0.166031
6   0.170035
7   -0.216098
8   -0.167533
9   -0.318254
10   -0.324075
11   0.212743
12   0.172455
13   0.366659
14   0.366855

$$$$

