PCCDB-ID:  24049
public computational chemistry database (PCCDB) project, http://pccdb.org

 32 32  0  0  0  0  0  0  0  0999 V2000
   -2.7689    1.4183    2.4074 C   0  0  0  0  0  0  0  0  0  0  0  0
   -0.6096    0.0823    5.0028 C   0  0  0  0  0  0  0  0  0  0  0  0
   -2.1818    0.0088    2.5618 C   0  0  0  0  0  0  0  0  0  0  0  0
    0.9496   -6.3643    0.2763 C   0  0  0  0  0  0  0  0  0  0  0  0
    0.2282   -5.5131   -0.5567 C   0  0  0  0  0  0  0  0  0  0  0  0
    1.5338   -5.8479    1.4387 C   0  0  0  0  0  0  0  0  0  0  0  0
    0.0818   -4.1565   -0.2470 C   0  0  0  0  0  0  0  0  0  0  0  0
    1.3960   -4.5032    1.7623 C   0  0  0  0  0  0  0  0  0  0  0  0
   -0.0782   -0.0599    1.2143 C   0  0  0  0  0  0  0  0  0  0  0  0
   -0.1366   -1.4251    0.5331 C   0  0  0  0  0  0  0  0  0  0  0  0
    0.0827    0.0849    3.6442 C   0  0  0  0  0  0  0  0  0  0  0  0
    0.6675   -3.6503    0.9195 C   0  0  0  0  0  0  0  0  0  0  0  0
   -0.7203   -0.0281    2.5250 N   0  0  0  0  0  0  0  0  0  0  0  0
    1.3020    0.1731    3.5652 O   0  0  0  0  0  0  0  0  0  0  0  0
    0.5902   -2.3480    1.3266 O   0  0  0  0  0  0  0  0  0  0  0  0
   -3.8644    1.3773    2.4023 H   0  0  0  0  0  0  0  0  0  0  0  0
   -2.4454    1.8834    1.4698 H   0  0  0  0  0  0  0  0  0  0  0  0
   -2.4548    2.0698    3.2298 H   0  0  0  0  0  0  0  0  0  0  0  0
   -1.1024   -0.8776    5.1971 H   0  0  0  0  0  0  0  0  0  0  0  0
   -1.3649    0.8704    5.0937 H   0  0  0  0  0  0  0  0  0  0  0  0
    0.1616    0.2395    5.7575 H   0  0  0  0  0  0  0  0  0  0  0  0
   -2.5561   -0.6343    1.7567 H   0  0  0  0  0  0  0  0  0  0  0  0
   -2.5314   -0.4448    3.4919 H   0  0  0  0  0  0  0  0  0  0  0  0
    1.0585   -7.4157    0.0265 H   0  0  0  0  0  0  0  0  0  0  0  0
   -0.2295   -5.8981   -1.4645 H   0  0  0  0  0  0  0  0  0  0  0  0
    2.1022   -6.4986    2.0983 H   0  0  0  0  0  0  0  0  0  0  0  0
   -0.4799   -3.5137   -0.9154 H   0  0  0  0  0  0  0  0  0  0  0  0
    1.8430   -4.0839    2.6583 H   0  0  0  0  0  0  0  0  0  0  0  0
   -0.5515    0.6751    0.5491 H   0  0  0  0  0  0  0  0  0  0  0  0
    0.9637    0.2273    1.3624 H   0  0  0  0  0  0  0  0  0  0  0  0
    0.3067   -1.3423   -0.4709 H   0  0  0  0  0  0  0  0  0  0  0  0
   -1.1752   -1.7679    0.4101 H   0  0  0  0  0  0  0  0  0  0  0  0
  1  3  1  0  0  0  0
  1 18  1  0  0  0  0
  2 20  1  0  0  0  0
  2 19  1  0  0  0  0
  2 21  1  0  0  0  0
  3 23  1  0  0  0  0
  4  6  2  0  0  0  0
  5  7  2  0  0  0  0
  5  4  1  0  0  0  0
  6  8  1  0  0  0  0
  6 26  1  0  0  0  0
  7 12  1  0  0  0  0
  8 28  1  0  0  0  0
  9 30  1  0  0  0  0
  9 13  1  0  0  0  0
 10  9  1  0  0  0  0
 10 15  1  0  0  0  0
 11  2  1  0  0  0  0
 12 15  1  0  0  0  0
 12  8  2  0  0  0  0
 13  3  1  0  0  0  0
 13 11  1  0  0  0  0
 14 11  2  0  0  0  0
 16  1  1  0  0  0  0
 17  1  1  0  0  0  0
 22  3  1  0  0  0  0
 24  4  1  0  0  0  0
 25  5  1  0  0  0  0
 27  7  1  0  0  0  0
 29  9  1  0  0  0  0
 31 10  1  0  0  0  0
 32 10  1  0  0  0  0
M  END
>  <HBA>
3

>  <HBD>
0

>  <TPSA>
29.54

>  <cid>
24049

>  <dipole>
4.29

>  <excitation_energy_1>
5.045

>  <excitation_energy_2>
5.281

>  <excitation_energy_3>
5.541

>  <excitation_energy_4>
5.639

>  <homo_energy>
-5.831

>  <homo_lumo_gap>
5.957

>  <logP>
1.934

>  <lumo_energy>
0.125

>  <melting_point>
29.13

>  <molecular_refractivity>
60.06

>  <oscillator_strength_1>
0.0298

>  <oscillator_strength_2>
0.0026

>  <oscillator_strength_3>
0.001

>  <oscillator_strength_4>
0.0005

>  <open_babel_can_smiles>
CCN(C(=O)C)CCOc1ccccc1

>  <mulliken_charges>
32
1   -0.443641
2   -0.552236
3   -0.152147
4   -0.133584
5   -0.13775
6   -0.133279
7   -0.1961
8   -0.176185
9   -0.174283
10   -0.031021
11   0.587794
12   0.376121
13   -0.400806
14   -0.50421
15   -0.506084
16   0.149632
17   0.154967
18   0.157623
19   0.172973
20   0.163014
21   0.187403
22   0.150762
23   0.161397
24   0.124106
25   0.127166
26   0.129864
27   0.128102
28   0.145517
29   0.140295
30   0.207947
31   0.142087
32   0.134557

>  <lowdin_charges>
32
1   -0.453434
2   -0.474916
3   -0.197805
4   -0.178576
5   -0.147585
6   -0.148493
7   -0.21952
8   -0.18199
9   -0.208794
10   -0.132598
11   0.160399
12   0.104552
13   -0.111235
14   -0.305995
15   -0.192964
16   0.153437
17   0.153512
18   0.154795
19   0.168422
20   0.163272
21   0.179532
22   0.149495
23   0.157827
24   0.154663
25   0.156612
26   0.159714
27   0.160939
28   0.170086
29   0.147715
30   0.185425
31   0.141306
32   0.1322

$$$$

