PCCDB-ID:  35145
public computational chemistry database (PCCDB) project, http://pccdb.org

 22 23  0  0  0  0  0  0  0  0999 V2000
   -1.5528   -0.6691    0.4104 C   0  0  0  0  0  0  0  0  0  0  0  0
   -0.7014   -0.4984    1.5036 C   0  0  0  0  0  0  0  0  0  0  0  0
   -1.0264   -0.6631   -0.8827 C   0  0  0  0  0  0  0  0  0  0  0  0
    0.6681   -0.3202    1.3040 C   0  0  0  0  0  0  0  0  0  0  0  0
    0.3434   -0.4851   -1.0808 C   0  0  0  0  0  0  0  0  0  0  0  0
    2.7011   -0.1374   -0.2059 C   0  0  0  0  0  0  0  0  0  0  0  0
    4.1191   -3.3081   -1.3106 C   0  0  0  0  0  0  0  0  0  0  0  0
    4.4078   -3.1606    0.9020 C   0  0  0  0  0  0  0  0  0  0  0  0
    1.2029   -0.3073    0.0101 C   0  0  0  0  0  0  0  0  0  0  0  0
    3.4030   -1.4751   -0.2093 C   0  0  0  0  0  0  0  0  0  0  0  0
    4.5853   -3.8930   -0.2025 N   0  0  0  0  0  0  0  0  0  0  0  0
    3.5250   -2.1155   -1.3837 N   0  0  0  0  0  0  0  0  0  0  0  0
    3.8322   -1.9587    0.9680 N   0  0  0  0  0  0  0  0  0  0  0  0
   -2.6200   -0.8039    0.5650 H   0  0  0  0  0  0  0  0  0  0  0  0
   -1.1033   -0.5010    2.5135 H   0  0  0  0  0  0  0  0  0  0  0  0
   -1.6825   -0.7947   -1.7391 H   0  0  0  0  0  0  0  0  0  0  0  0
    1.3301   -0.1942    2.1570 H   0  0  0  0  0  0  0  0  0  0  0  0
    0.7520   -0.4877   -2.0882 H   0  0  0  0  0  0  0  0  0  0  0  0
    3.1285    0.4732    0.5946 H   0  0  0  0  0  0  0  0  0  0  0  0
    2.8887    0.3528   -1.1655 H   0  0  0  0  0  0  0  0  0  0  0  0
    4.2366   -3.8567   -2.2439 H   0  0  0  0  0  0  0  0  0  0  0  0
    4.7694   -3.5847    1.8375 H   0  0  0  0  0  0  0  0  0  0  0  0
  1 14  1  0  0  0  0
  1  2  2  0  0  0  0
  2 15  1  0  0  0  0
  3  1  1  0  0  0  0
  4  2  1  0  0  0  0
  4 17  1  0  0  0  0
  5  3  2  0  0  0  0
  5  9  1  0  0  0  0
  6  9  1  0  0  0  0
  6 19  1  0  0  0  0
  7 11  2  0  0  0  0
  8 13  1  0  0  0  0
  8 22  1  0  0  0  0
  9  4  2  0  0  0  0
 10  6  1  0  0  0  0
 10 13  1  0  0  0  0
 11  8  2  0  0  0  0
 12  7  1  0  0  0  0
 12 10  2  0  0  0  0
 16  3  1  0  0  0  0
 18  5  1  0  0  0  0
 20  6  1  0  0  0  0
 21  7  1  0  0  0  0
M  RAD  1  13   2
M  END
>  <HBA>
3

>  <HBD>
0

>  <TPSA>
38.67

>  <cid>
35145

>  <dipole>
0.73

>  <excitation_energy_1>
4.421

>  <excitation_energy_2>
4.434

>  <excitation_energy_3>
4.536

>  <excitation_energy_4>
4.541

>  <homo_energy>
-6.648

>  <homo_lumo_gap>
5.249

>  <logP>
1.462

>  <lumo_energy>
-1.399

>  <melting_point>
84.06

>  <molecular_refractivity>
49.28

>  <oscillator_strength_1>
0.0003

>  <oscillator_strength_2>
0.0487

>  <oscillator_strength_3>
0.0006

>  <oscillator_strength_4>
0.0138

>  <open_babel_can_smiles>
c1ccc(cc1)CC1=NC=[N]=C[N]1

>  <mulliken_charges>
22
1   -0.128355
2   -0.129024
3   -0.12867
4   -0.170503
5   -0.170762
6   -0.406088
7   0.18282
8   0.182851
9   0.148261
10   0.433436
11   -0.366352
12   -0.399075
13   -0.39898
14   0.130383
15   0.131527
16   0.131447
17   0.137769
18   0.13773
19   0.172841
20   0.172825
21   0.167966
22   0.167954

>  <lowdin_charges>
22
1   -0.154825
2   -0.153313
3   -0.155132
4   -0.162569
5   -0.160837
6   -0.279104
7   -0.011283
8   -0.011307
9   -0.000753
10   0.122269
11   -0.167388
12   -0.170145
13   -0.170045
14   0.156411
15   0.157919
16   0.159384
17   0.16243
18   0.160942
19   0.171886
20   0.170644
21   0.16741
22   0.167406

$$$$

