PCCDB-ID:  21368
public computational chemistry database (PCCDB) project, http://pccdb.org

 27 27  0  0  0  0  0  0  0  0999 V2000
    0.7330    0.2519    0.0118 C   0  0  0  0  0  0  0  0  0  0  0  0
    3.4684   -1.5801    2.2672 C   0  0  0  0  0  0  0  0  0  0  0  0
    2.2606    6.4914   -0.0717 C   0  0  0  0  0  0  0  0  0  0  0  0
    4.5685    2.4461    2.8538 C   0  0  0  0  0  0  0  0  0  0  0  0
    3.9811    3.4184    2.0738 C   0  0  0  0  0  0  0  0  0  0  0  0
    4.1814    1.1054    2.6906 C   0  0  0  0  0  0  0  0  0  0  0  0
    2.9841    3.0908    1.1279 C   0  0  0  0  0  0  0  0  0  0  0  0
    3.2207    0.7472    1.7582 C   0  0  0  0  0  0  0  0  0  0  0  0
    2.5685    1.7332    0.9498 C   0  0  0  0  0  0  0  0  0  0  0  0
    2.3614    4.1720    0.3423 C   0  0  0  0  0  0  0  0  0  0  0  0
    1.6260    1.4044    0.0115 N   0  0  0  0  0  0  0  0  0  0  0  0
    1.5008    4.0380   -0.5256 O   0  0  0  0  0  0  0  0  0  0  0  0
    2.8450   -0.5521    1.5203 O   0  0  0  0  0  0  0  0  0  0  0  0
    2.8296    5.4022    0.6657 O   0  0  0  0  0  0  0  0  0  0  0  0
    0.2660    0.0801    0.9897 H   0  0  0  0  0  0  0  0  0  0  0  0
    1.2415   -0.6666   -0.2884 H   0  0  0  0  0  0  0  0  0  0  0  0
   -0.0590    0.4623   -0.7128 H   0  0  0  0  0  0  0  0  0  0  0  0
    3.2715   -1.4777    3.3432 H   0  0  0  0  0  0  0  0  0  0  0  0
    4.5542   -1.5986    2.1019 H   0  0  0  0  0  0  0  0  0  0  0  0
    3.0336   -2.5156    1.9094 H   0  0  0  0  0  0  0  0  0  0  0  0
    2.7535    7.3871    0.3086 H   0  0  0  0  0  0  0  0  0  0  0  0
    1.1811    6.5491    0.0925 H   0  0  0  0  0  0  0  0  0  0  0  0
    2.4484    6.3754   -1.1427 H   0  0  0  0  0  0  0  0  0  0  0  0
    5.3301    2.7030    3.5832 H   0  0  0  0  0  0  0  0  0  0  0  0
    4.2703    4.4564    2.1781 H   0  0  0  0  0  0  0  0  0  0  0  0
    4.6565    0.3403    3.2938 H   0  0  0  0  0  0  0  0  0  0  0  0
    1.2722    2.2256   -0.4699 H   0  0  0  0  0  0  0  0  0  0  0  0
  1 15  1  0  0  0  0
  2 18  1  0  0  0  0
  3 22  1  0  0  0  0
  3 21  1  0  0  0  0
  3 14  1  0  0  0  0
  4 24  1  0  0  0  0
  5 25  1  0  0  0  0
  5  4  2  0  0  0  0
  6  4  1  0  0  0  0
  6 26  1  0  0  0  0
  7  5  1  0  0  0  0
  8  6  2  0  0  0  0
  9  7  2  0  0  0  0
  9  8  1  0  0  0  0
 10 14  1  0  0  0  0
 10  7  1  0  0  0  0
 11  1  1  0  0  0  0
 11  9  1  0  0  0  0
 12 10  2  0  0  0  0
 13  8  1  0  0  0  0
 13  2  1  0  0  0  0
 16  1  1  0  0  0  0
 17  1  1  0  0  0  0
 19  2  1  0  0  0  0
 20  2  1  0  0  0  0
 23  3  1  0  0  0  0
 27 11  1  0  0  0  0
M  END
>  <HBA>
4

>  <HBD>
1

>  <TPSA>
47.56

>  <cid>
21368

>  <dipole>
1.62

>  <excitation_energy_1>
3.54

>  <excitation_energy_2>
4.633

>  <excitation_energy_3>
4.795

>  <excitation_energy_4>
4.88

>  <homo_energy>
-4.936

>  <homo_lumo_gap>
4.093

>  <logP>
1.597

>  <lumo_energy>
-0.844

>  <melting_point>
70.93

>  <molecular_refractivity>
53.52

>  <oscillator_strength_1>
0.1334

>  <oscillator_strength_2>
0.0061

>  <oscillator_strength_3>
0.0149

>  <oscillator_strength_4>
0.0358

>  <open_babel_can_smiles>
COC(=O)c1cccc(c1NC)OC

>  <mulliken_charges>
27
1   -0.281961
2   -0.213194
3   -0.211138
4   -0.151144
5   -0.174928
6   -0.201501
7   -0.012714
8   0.344274
9   0.287476
10   0.614667
11   -0.683528
12   -0.540321
13   -0.520262
14   -0.469158
15   0.151211
16   0.168999
17   0.146378
18   0.150987
19   0.15261
20   0.167232
21   0.161598
22   0.167769
23   0.168759
24   0.123783
25   0.149953
26   0.13175
27   0.3724

>  <lowdin_charges>
27
1   -0.348323
2   -0.273755
3   -0.273921
4   -0.187756
5   -0.147884
6   -0.194806
7   -0.097699
8   0.066841
9   0.068079
10   0.205489
11   -0.283826
12   -0.305719
13   -0.201158
14   -0.190406
15   0.14541
16   0.156294
17   0.153043
18   0.14199
19   0.143234
20   0.161418
21   0.159215
22   0.155939
23   0.156546
24   0.15737
25   0.169541
26   0.164436
27   0.300411

$$$$

