PCCDB-ID:  5370
public computational chemistry database (PCCDB) project, http://pccdb.org

 17 17  0  0  1  0  0  0  0  0999 V2000
   -0.3978    0.9541    0.7849 C   0  0  0  0  0  0  0  0  0  0  0  0
   -1.3228   -0.1036    0.1053 C   0  0  1  0  0  0  0  0  0  0  0  0
    0.7847    0.0454    0.3395 C   0  0  1  0  0  0  0  0  0  0  0  0
   -1.8645    0.3345   -1.2524 C   0  0  0  0  0  0  0  0  0  0  0  0
    1.7624   -0.3579    1.4434 C   0  0  0  0  0  0  0  0  0  0  0  0
   -0.1827   -1.0340   -0.0096 N   0  0  0  0  0  0  0  0  0  0  0  0
   -1.4238   -0.0647   -2.3020 O   0  0  0  0  0  0  0  0  0  0  0  0
   -2.8852    1.2236   -1.2188 O   0  0  0  0  0  0  0  0  0  0  0  0
    2.6489    0.3669    1.8274 O   0  0  0  0  0  0  0  0  0  0  0  0
    1.5103   -1.5697    1.9650 O   0  0  0  0  0  0  0  0  0  0  0  0
   -0.5237    1.0120    1.8682 H   0  0  0  0  0  0  0  0  0  0  0  0
   -0.4116    1.9614    0.3640 H   0  0  0  0  0  0  0  0  0  0  0  0
   -2.1500   -0.4879    0.7185 H   0  0  0  0  0  0  0  0  0  0  0  0
    1.3448    0.4567   -0.5057 H   0  0  0  0  0  0  0  0  0  0  0  0
   -0.0887   -1.3972   -0.9595 H   0  0  0  0  0  0  0  0  0  0  0  0
   -3.1234    1.4349   -0.2997 H   0  0  0  0  0  0  0  0  0  0  0  0
    0.7343   -1.9174    1.4611 H   0  0  0  0  0  0  0  0  0  0  0  0
  1 11  1  0  0  0  0
  2 13  1  1  0  0  0
  2  1  1  0  0  0  0
  3 14  1  6  0  0  0
  3  1  1  0  0  0  0
  3  5  1  0  0  0  0
  4  8  1  0  0  0  0
  4  2  1  0  0  0  0
  5  9  2  0  0  0  0
  5 10  1  0  0  0  0
  6  2  1  0  0  0  0
  6  3  1  0  0  0  0
  7  4  2  0  0  0  0
  8 16  1  0  0  0  0
 12  1  1  0  0  0  0
 15  6  1  0  0  0  0
 17 10  1  0  0  0  0
M  END
>  <HBA>
5

>  <HBD>
3

>  <TPSA>
86.63

>  <cid>
5370

>  <dipole>
4.46

>  <excitation_energy_1>
5.334

>  <excitation_energy_2>
5.647

>  <excitation_energy_3>
5.848

>  <excitation_energy_4>
6.05

>  <homo_energy>
-7.1

>  <homo_lumo_gap>
6.479

>  <logP>
-0.785

>  <lumo_energy>
-0.62

>  <melting_point>
178.18

>  <molecular_refractivity>
34.3

>  <oscillator_strength_1>
0.0008

>  <oscillator_strength_2>
0.0008

>  <oscillator_strength_3>
0.0023

>  <oscillator_strength_4>
0.001

>  <open_babel_can_smiles>
OC(=O)[C@@H]1C[C@H](N1)C(=O)O

>  <mulliken_charges>
17
1   -0.320277
2   -0.085382
3   -0.060653
4   0.596588
5   0.597573
6   -0.613916
7   -0.433869
8   -0.554805
9   -0.455518
10   -0.576249
11   0.182986
12   0.181754
13   0.168562
14   0.186414
15   0.339431
16   0.418452
17   0.428908

>  <lowdin_charges>
17
1   -0.275728
2   -0.109095
3   -0.09582
4   0.183842
5   0.174114
6   -0.360812
7   -0.233718
8   -0.339669
9   -0.250542
10   -0.354018
11   0.167997
12   0.166298
13   0.158963
14   0.172578
15   0.274021
16   0.3637
17   0.357888

$$$$

