PCCDB-ID:  12310
public computational chemistry database (PCCDB) project, http://pccdb.org

 13 12  0  0  0  0  0  0  0  0999 V2000
    1.0208   -0.0881   -0.0472 C   0  0  0  0  0  0  0  0  0  0  0  0
    3.9607    3.3513   -2.0218 C   0  0  0  0  0  0  0  0  0  0  0  0
    2.5587   -0.0123   -0.0655 C   0  0  0  0  0  0  0  0  0  0  0  0
    3.4728    2.1609   -1.3297 C   0  0  0  0  0  0  0  0  0  0  0  0
    3.0694    1.1751   -0.7559 C   0  0  0  0  0  0  0  0  0  0  0  0
    0.6881   -0.9897    0.4790 H   0  0  0  0  0  0  0  0  0  0  0  0
    0.6194   -0.1150   -1.0653 H   0  0  0  0  0  0  0  0  0  0  0  0
    0.5938    0.7836    0.4592 H   0  0  0  0  0  0  0  0  0  0  0  0
    3.1724    3.8106   -2.6314 H   0  0  0  0  0  0  0  0  0  0  0  0
    4.7958    3.1121   -2.6921 H   0  0  0  0  0  0  0  0  0  0  0  0
    4.3141    4.1119   -1.3145 H   0  0  0  0  0  0  0  0  0  0  0  0
    2.9621   -0.9159   -0.5438 H   0  0  0  0  0  0  0  0  0  0  0  0
    2.9365   -0.0261    0.9666 H   0  0  0  0  0  0  0  0  0  0  0  0
  1  8  1  0  0  0  0
  1  6  1  0  0  0  0
  2  4  1  0  0  0  0
  2 11  1  0  0  0  0
  3  1  1  0  0  0  0
  3 13  1  0  0  0  0
  4  5  3  0  0  0  0
  5  3  1  0  0  0  0
  7  1  1  0  0  0  0
  9  2  1  0  0  0  0
 10  2  1  0  0  0  0
 12  3  1  0  0  0  0
M  END
>  <HBA>
0

>  <HBD>
0

>  <TPSA>
0.0

>  <cid>
12310

>  <dipole>
0.08

>  <excitation_energy_1>
6.115

>  <excitation_energy_2>
6.203

>  <excitation_energy_3>
6.375

>  <excitation_energy_4>
6.493

>  <homo_energy>
-6.52

>  <homo_lumo_gap>
8.226

>  <logP>
1.42

>  <lumo_energy>
1.706

>  <melting_point>
-8.55

>  <molecular_refractivity>
24.31

>  <oscillator_strength_1>
0.0033

>  <oscillator_strength_2>
0.0309

>  <oscillator_strength_3>
0.0018

>  <oscillator_strength_4>
0.0165

>  <open_babel_can_smiles>
CCC#CC

>  <mulliken_charges>
13
1   -0.434391
2   -0.575114
3   -0.391414
4   0.018634
5   0.071729
6   0.143832
7   0.155798
8   0.155811
9   0.175808
10   0.175767
11   0.17561
12   0.163962
13   0.163968

>  <lowdin_charges>
13
1   -0.436524
2   -0.427008
3   -0.256412
4   -0.089564
5   -0.087922
6   0.150204
7   0.153962
8   0.155452
9   0.17195
10   0.171257
11   0.171507
12   0.16228
13   0.160819

$$$$

