PCCDB-ID:  44531
public computational chemistry database (PCCDB) project, http://pccdb.org

 40 40  0  0  0  0  0  0  0  0999 V2000
    3.9342    3.1886    2.6440 C   0  0  0  0  0  0  0  0  0  0  0  0
    3.7888    1.7560    2.1148 C   0  0  0  0  0  0  0  0  0  0  0  0
    4.8619    0.7778    2.6211 C   0  0  0  0  0  0  0  0  0  0  0  0
    8.0887   -3.4552    0.4242 C   0  0  0  0  0  0  0  0  0  0  0  0
    8.8765   -3.0760    1.5105 C   0  0  0  0  0  0  0  0  0  0  0  0
    7.0322   -2.6219    0.0547 C   0  0  0  0  0  0  0  0  0  0  0  0
    8.6250   -1.8981    2.2105 C   0  0  0  0  0  0  0  0  0  0  0  0
    6.7617   -1.4453    0.7480 C   0  0  0  0  0  0  0  0  0  0  0  0
    6.2764    1.0833    2.0967 C   0  0  0  0  0  0  0  0  0  0  0  0
    8.0043    0.4640    3.7666 C   0  0  0  0  0  0  0  0  0  0  0  0
    9.6934    4.6595    2.2661 C   0  0  0  0  0  0  0  0  0  0  0  0
    9.3151    1.2259    3.5595 C   0  0  0  0  0  0  0  0  0  0  0  0
   10.1580    3.2967    2.7749 C   0  0  0  0  0  0  0  0  0  0  0  0
    7.5539   -1.0457    1.8508 C   0  0  0  0  0  0  0  0  0  0  0  0
    7.2923    0.1322    2.5444 N   0  0  0  0  0  0  0  0  0  0  0  0
   10.7918    5.4902    1.9166 O   0  0  0  0  0  0  0  0  0  0  0  0
    9.0128    2.5295    3.0903 O   0  0  0  0  0  0  0  0  0  0  0  0
    4.8730    3.6535    2.3227 H   0  0  0  0  0  0  0  0  0  0  0  0
    3.9141    3.2066    3.7409 H   0  0  0  0  0  0  0  0  0  0  0  0
    3.1159    3.8243    2.2870 H   0  0  0  0  0  0  0  0  0  0  0  0
    3.8004    1.7694    1.0151 H   0  0  0  0  0  0  0  0  0  0  0  0
    2.8016    1.3699    2.4006 H   0  0  0  0  0  0  0  0  0  0  0  0
    4.5904   -0.2444    2.3300 H   0  0  0  0  0  0  0  0  0  0  0  0
    4.8790    0.7883    3.7206 H   0  0  0  0  0  0  0  0  0  0  0  0
    8.2920   -4.3729   -0.1194 H   0  0  0  0  0  0  0  0  0  0  0  0
    9.7116   -3.6993    1.8217 H   0  0  0  0  0  0  0  0  0  0  0  0
    6.3960   -2.8898   -0.7856 H   0  0  0  0  0  0  0  0  0  0  0  0
    9.2831   -1.6397    3.0318 H   0  0  0  0  0  0  0  0  0  0  0  0
    5.9182   -0.8430    0.4325 H   0  0  0  0  0  0  0  0  0  0  0  0
    6.6031    2.0743    2.4206 H   0  0  0  0  0  0  0  0  0  0  0  0
    6.2719    1.1149    1.0006 H   0  0  0  0  0  0  0  0  0  0  0  0
    7.3493    1.0826    4.3908 H   0  0  0  0  0  0  0  0  0  0  0  0
    8.2077   -0.4460    4.3425 H   0  0  0  0  0  0  0  0  0  0  0  0
    9.0409    5.1287    3.0180 H   0  0  0  0  0  0  0  0  0  0  0  0
    9.1048    4.5269    1.3539 H   0  0  0  0  0  0  0  0  0  0  0  0
    9.9552    0.6989    2.8354 H   0  0  0  0  0  0  0  0  0  0  0  0
    9.8638    1.2832    4.5165 H   0  0  0  0  0  0  0  0  0  0  0  0
   10.7964    3.4260    3.6688 H   0  0  0  0  0  0  0  0  0  0  0  0
   10.7693    2.8021    2.0036 H   0  0  0  0  0  0  0  0  0  0  0  0
   11.2478    5.7380    2.7356 H   0  0  0  0  0  0  0  0  0  0  0  0
  1 19  1  0  0  0  0
  2 22  1  0  0  0  0
  2  3  1  0  0  0  0
  2  1  1  0  0  0  0
  3 24  1  0  0  0  0
  4  5  1  0  0  0  0
  5 26  1  0  0  0  0
  5  7  2  0  0  0  0
  6  4  2  0  0  0  0
  6  8  1  0  0  0  0
  7 28  1  0  0  0  0
  8 14  2  0  0  0  0
  9 30  1  0  0  0  0
  9 15  1  0  0  0  0
  9  3  1  0  0  0  0
 10 33  1  0  0  0  0
 10 32  1  0  0  0  0
 11 13  1  0  0  0  0
 11 34  1  0  0  0  0
 12 10  1  0  0  0  0
 12 37  1  0  0  0  0
 13 17  1  0  0  0  0
 13 38  1  0  0  0  0
 14  7  1  0  0  0  0
 14 15  1  0  0  0  0
 15 10  1  0  0  0  0
 16 11  1  0  0  0  0
 16 40  1  0  0  0  0
 17 12  1  0  0  0  0
 18  1  1  0  0  0  0
 20  1  1  0  0  0  0
 21  2  1  0  0  0  0
 23  3  1  0  0  0  0
 25  4  1  0  0  0  0
 27  6  1  0  0  0  0
 29  8  1  0  0  0  0
 31  9  1  0  0  0  0
 35 11  1  0  0  0  0
 36 12  1  0  0  0  0
 39 13  1  0  0  0  0
M  END
>  <HBA>
3

>  <HBD>
1

>  <TPSA>
32.7

>  <cid>
44531

>  <dipole>
2.65

>  <excitation_energy_1>
4.355

>  <excitation_energy_2>
4.45

>  <excitation_energy_3>
4.644

>  <excitation_energy_4>
4.728

>  <homo_energy>
-4.884

>  <homo_lumo_gap>
5.208

>  <logP>
2.302

>  <lumo_energy>
0.324

>  <melting_point>
18.35

>  <molecular_refractivity>
71.74

>  <oscillator_strength_1>
0.0322

>  <oscillator_strength_2>
0.0309

>  <oscillator_strength_3>
0.0121

>  <oscillator_strength_4>
0.0389

>  <open_babel_can_smiles>
CCCCN(c1ccccc1)CCOCCO

>  <mulliken_charges>
40
1   -0.446265
2   -0.25399
3   -0.25662
4   -0.1389
5   -0.137241
6   -0.137814
7   -0.193917
8   -0.191232
9   -0.160929
10   -0.178184
11   -0.053776
12   -0.000993
13   -0.022442
14   0.364616
15   -0.486084
16   -0.611255
17   -0.479222
18   0.149012
19   0.141437
20   0.144491
21   0.131418
22   0.135766
23   0.144965
24   0.129765
25   0.116497
26   0.119878
27   0.120972
28   0.11427
29   0.122912
30   0.170128
31   0.146929
32   0.157828
33   0.154657
34   0.132958
35   0.161562
36   0.138889
37   0.115066
38   0.105465
39   0.139143
40   0.390237

>  <lowdin_charges>
40
1   -0.446877
2   -0.271058
3   -0.287375
4   -0.195664
5   -0.147641
6   -0.146801
7   -0.220349
8   -0.215042
9   -0.201746
10   -0.205802
11   -0.141865
12   -0.139643
13   -0.149365
14   0.064404
15   -0.111978
16   -0.46154
17   -0.274689
18   0.148205
19   0.144165
20   0.151893
21   0.13694
22   0.144452
23   0.147487
24   0.137107
25   0.153133
26   0.153906
27   0.154279
28   0.152676
29   0.157723
30   0.157782
31   0.145239
32   0.157906
33   0.155106
34   0.134113
35   0.154894
36   0.139726
37   0.126255
38   0.119511
39   0.137793
40   0.342739

$$$$

