PCCDB-ID:  23832
public computational chemistry database (PCCDB) project, http://pccdb.org

 30 29  0  0  0  0  0  0  0  0999 V2000
    1.2529    0.4655   -0.8471 C   0  0  0  0  0  0  0  0  0  0  0  0
   11.0718   -4.9214    0.3461 C   0  0  0  0  0  0  0  0  0  0  0  0
    2.7441    0.1913   -0.6272 C   0  0  0  0  0  0  0  0  0  0  0  0
   10.2101   -5.4637    1.4775 C   0  0  0  0  0  0  0  0  0  0  0  0
    3.0088   -1.0340    0.2572 C   0  0  0  0  0  0  0  0  0  0  0  0
    4.5002   -1.3145    0.4794 C   0  0  0  0  0  0  0  0  0  0  0  0
    4.7540   -2.5434    1.3763 C   0  0  0  0  0  0  0  0  0  0  0  0
    6.2102   -2.7759    1.6416 C   0  0  0  0  0  0  0  0  0  0  0  0
    6.8912   -3.8855    1.3282 C   0  0  0  0  0  0  0  0  0  0  0  0
    8.3345   -4.0026    1.6343 C   0  0  0  0  0  0  0  0  0  0  0  0
    9.0193   -3.1500    2.1688 O   0  0  0  0  0  0  0  0  0  0  0  0
    8.8072   -5.2122    1.2393 O   0  0  0  0  0  0  0  0  0  0  0  0
    1.0981    1.3432   -1.4849 H   0  0  0  0  0  0  0  0  0  0  0  0
    0.7390    0.6504    0.1043 H   0  0  0  0  0  0  0  0  0  0  0  0
    0.7593   -0.3876   -1.3288 H   0  0  0  0  0  0  0  0  0  0  0  0
   12.1208   -5.1921    0.5135 H   0  0  0  0  0  0  0  0  0  0  0  0
   11.0013   -3.8311    0.2996 H   0  0  0  0  0  0  0  0  0  0  0  0
   10.7580   -5.3384   -0.6166 H   0  0  0  0  0  0  0  0  0  0  0  0
    3.2158    1.0740   -0.1726 H   0  0  0  0  0  0  0  0  0  0  0  0
    3.2380    0.0498   -1.5989 H   0  0  0  0  0  0  0  0  0  0  0  0
   10.4914   -5.0172    2.4345 H   0  0  0  0  0  0  0  0  0  0  0  0
   10.2832   -6.5520    1.5490 H   0  0  0  0  0  0  0  0  0  0  0  0
    2.5351   -1.9174   -0.1961 H   0  0  0  0  0  0  0  0  0  0  0  0
    2.5170   -0.8924    1.2312 H   0  0  0  0  0  0  0  0  0  0  0  0
    4.9756   -0.4324    0.9317 H   0  0  0  0  0  0  0  0  0  0  0  0
    4.9968   -1.4675   -0.4883 H   0  0  0  0  0  0  0  0  0  0  0  0
    4.3048   -3.4365    0.9232 H   0  0  0  0  0  0  0  0  0  0  0  0
    4.2402   -2.3839    2.3372 H   0  0  0  0  0  0  0  0  0  0  0  0
    6.7628   -1.9678    2.1221 H   0  0  0  0  0  0  0  0  0  0  0  0
    6.4178   -4.7367    0.8462 H   0  0  0  0  0  0  0  0  0  0  0  0
  1  3  1  0  0  0  0
  1 14  1  0  0  0  0
  2 16  1  0  0  0  0
  2  4  1  0  0  0  0
  3 19  1  0  0  0  0
  3  5  1  0  0  0  0
  4 22  1  0  0  0  0
  4 21  1  0  0  0  0
  5  6  1  0  0  0  0
  5 24  1  0  0  0  0
  6 25  1  0  0  0  0
  6  7  1  0  0  0  0
  7  8  1  0  0  0  0
  7 28  1  0  0  0  0
  8 29  1  0  0  0  0
  9 10  1  0  0  0  0
  9  8  2  0  0  0  0
 10 11  2  0  0  0  0
 12  4  1  0  0  0  0
 12 10  1  0  0  0  0
 13  1  1  0  0  0  0
 15  1  1  0  0  0  0
 17  2  1  0  0  0  0
 18  2  1  0  0  0  0
 20  3  1  0  0  0  0
 23  5  1  0  0  0  0
 26  6  1  0  0  0  0
 27  7  1  0  0  0  0
 30  9  1  0  0  0  0
M  END
>  <HBA>
2

>  <HBD>
0

>  <TPSA>
26.3

>  <cid>
23832

>  <dipole>
1.64

>  <excitation_energy_1>
4.857

>  <excitation_energy_2>
5.876

>  <excitation_energy_3>
6.338

>  <excitation_energy_4>
6.836

>  <homo_energy>
-7.132

>  <homo_lumo_gap>
6.21

>  <logP>
2.686

>  <lumo_energy>
-0.922

>  <melting_point>
-6.99

>  <molecular_refractivity>
50.99

>  <oscillator_strength_1>
0.0004

>  <oscillator_strength_2>
0.6037

>  <oscillator_strength_3>
0.1182

>  <oscillator_strength_4>
0.0015

>  <open_babel_can_smiles>
CCCCC/C=C/C(=O)OCC

>  <mulliken_charges>
30
1   -0.441887
2   -0.461387
3   -0.248363
4   -0.041711
5   -0.246715
6   -0.258946
7   -0.314675
8   -0.054254
9   -0.197271
10   0.614726
11   -0.501964
12   -0.477466
13   0.143804
14   0.142254
15   0.142084
16   0.147691
17   0.176597
18   0.155267
19   0.132626
20   0.132809
21   0.169296
22   0.149383
23   0.129686
24   0.129118
25   0.137339
26   0.14168
27   0.144194
28   0.151606
29   0.162406
30   0.142072

>  <lowdin_charges>
30
1   -0.445592
2   -0.451976
3   -0.272268
4   -0.125205
5   -0.274854
6   -0.272471
7   -0.271974
8   -0.097139
9   -0.215335
10   0.197731
11   -0.285146
12   -0.199293
13   0.150848
14   0.146763
15   0.147529
16   0.156159
17   0.163603
18   0.154873
19   0.140699
20   0.139897
21   0.15804
22   0.148344
23   0.139432
24   0.138158
25   0.143408
26   0.144612
27   0.149112
28   0.155198
29   0.171031
30   0.165816

$$$$

