PCCDB-ID:  3616
public computational chemistry database (PCCDB) project, http://pccdb.org

 34 33  0  0  0  0  0  0  0  0999 V2000
    1.0612    1.8619   -3.9468 C   0  0  0  0  0  0  0  0  0  0  0  0
    6.6001    7.8483    4.4377 C   0  0  0  0  0  0  0  0  0  0  0  0
    3.4106    4.9067   -0.3847 C   0  0  0  0  0  0  0  0  0  0  0  0
    4.2734    4.7702    0.8769 C   0  0  0  0  0  0  0  0  0  0  0  0
    2.3380    3.8184   -0.5062 C   0  0  0  0  0  0  0  0  0  0  0  0
    5.3456    5.8590    1.0004 C   0  0  0  0  0  0  0  0  0  0  0  0
    1.4853    3.9550   -1.7766 C   0  0  0  0  0  0  0  0  0  0  0  0
    6.2039    5.7149    2.2657 C   0  0  0  0  0  0  0  0  0  0  0  0
    0.2603    2.1190   -2.6848 C   0  0  0  0  0  0  0  0  0  0  0  0
    7.4001    7.5701    3.1911 C   0  0  0  0  0  0  0  0  0  0  0  0
    0.4125    2.9839   -1.7761 N   0  0  0  0  0  0  0  0  0  0  0  0
    7.2714    6.6967    2.2786 N   0  0  0  0  0  0  0  0  0  0  0  0
   -0.8035    1.2632   -2.5286 O   0  0  0  0  0  0  0  0  0  0  0  0
    8.4356    8.4536    3.0979 O   0  0  0  0  0  0  0  0  0  0  0  0
    0.4259    1.9936   -4.8318 H   0  0  0  0  0  0  0  0  0  0  0  0
    1.4342    0.8297   -3.9542 H   0  0  0  0  0  0  0  0  0  0  0  0
    1.9175    2.5300   -4.0445 H   0  0  0  0  0  0  0  0  0  0  0  0
    5.7311    7.1963    4.5319 H   0  0  0  0  0  0  0  0  0  0  0  0
    6.2659    8.8911    4.4305 H   0  0  0  0  0  0  0  0  0  0  0  0
    7.2380    7.7186    5.3188 H   0  0  0  0  0  0  0  0  0  0  0  0
    4.0619    4.8853   -1.2713 H   0  0  0  0  0  0  0  0  0  0  0  0
    2.9281    5.8954   -0.3872 H   0  0  0  0  0  0  0  0  0  0  0  0
    4.7556    3.7813    0.8807 H   0  0  0  0  0  0  0  0  0  0  0  0
    3.6218    4.7925    1.7630 H   0  0  0  0  0  0  0  0  0  0  0  0
    1.6686    3.8462    0.3630 H   0  0  0  0  0  0  0  0  0  0  0  0
    2.8098    2.8257   -0.5004 H   0  0  0  0  0  0  0  0  0  0  0  0
    4.8723    6.8510    1.0040 H   0  0  0  0  0  0  0  0  0  0  0  0
    6.0090    5.8370    0.1259 H   0  0  0  0  0  0  0  0  0  0  0  0
    2.1446    3.9089   -2.6601 H   0  0  0  0  0  0  0  0  0  0  0  0
    1.0270    4.9546   -1.7843 H   0  0  0  0  0  0  0  0  0  0  0  0
    6.6679    4.7180    2.2647 H   0  0  0  0  0  0  0  0  0  0  0  0
    5.5513    5.7535    3.1527 H   0  0  0  0  0  0  0  0  0  0  0  0
   -0.8239    0.6436   -3.2736 H   0  0  0  0  0  0  0  0  0  0  0  0
    8.9033    8.2079    2.2775 H   0  0  0  0  0  0  0  0  0  0  0  0
  1  9  1  0  0  0  0
  2 18  1  0  0  0  0
  2 20  1  0  0  0  0
  3  4  1  0  0  0  0
  4 23  1  0  0  0  0
  4  6  1  0  0  0  0
  4 24  1  0  0  0  0
  5 26  1  0  0  0  0
  5  3  1  0  0  0  0
  5 25  1  0  0  0  0
  6 27  1  0  0  0  0
  6  8  1  0  0  0  0
  7 11  1  0  0  0  0
  7  5  1  0  0  0  0
  8 12  1  0  0  0  0
  8 32  1  0  0  0  0
  9 13  1  0  0  0  0
  9 11  2  0  0  0  0
 10  2  1  0  0  0  0
 12 10  2  0  0  0  0
 14 10  1  0  0  0  0
 15  1  1  0  0  0  0
 16  1  1  0  0  0  0
 17  1  1  0  0  0  0
 19  2  1  0  0  0  0
 21  3  1  0  0  0  0
 22  3  1  0  0  0  0
 28  6  1  0  0  0  0
 29  7  1  0  0  0  0
 30  7  1  0  0  0  0
 31  8  1  0  0  0  0
 33 13  1  0  0  0  0
 34 14  1  0  0  0  0
M  END
>  <HBA>
4

>  <HBD>
2

>  <TPSA>
58.2

>  <cid>
3616

>  <dipole>
2.77

>  <excitation_energy_1>
5.722

>  <excitation_energy_2>
5.782

>  <excitation_energy_3>
5.85

>  <excitation_energy_4>
5.994

>  <homo_energy>
-6.523

>  <homo_lumo_gap>
7.339

>  <logP>
1.601

>  <lumo_energy>
0.816

>  <melting_point>
67.92

>  <molecular_refractivity>
56.19

>  <oscillator_strength_1>
0.0013

>  <oscillator_strength_2>
0.0034

>  <oscillator_strength_3>
0.0045

>  <oscillator_strength_4>
0.0021

>  <open_babel_can_smiles>
C/C(=N\CCCCCC/N=C(/O)\C)/O

>  <mulliken_charges>
34
1   -0.558223
2   -0.510465
3   -0.256701
4   -0.256517
5   -0.24799
6   -0.248372
7   -0.149007
8   -0.148129
9   0.486237
10   0.498706
11   -0.402671
12   -0.460958
13   -0.579966
14   -0.59326
15   0.173446
16   0.170221
17   0.182495
18   0.168619
19   0.180999
20   0.181431
21   0.125956
22   0.129413
23   0.128605
24   0.129263
25   0.148401
26   0.12825
27   0.12993
28   0.141277
29   0.107439
30   0.14281
31   0.140625
32   0.116586
33   0.400686
34   0.400865

>  <lowdin_charges>
34
1   -0.484729
2   -0.46349
3   -0.274172
4   -0.274084
5   -0.277051
6   -0.277513
7   -0.197652
8   -0.19772
9   0.12734
10   0.13494
11   -0.199047
12   -0.240196
13   -0.377398
14   -0.381209
15   0.168367
16   0.165365
17   0.172822
18   0.165448
19   0.174842
20   0.176519
21   0.136789
22   0.138146
23   0.137785
24   0.138594
25   0.150088
26   0.138543
27   0.139238
28   0.14629
29   0.117718
30   0.144213
31   0.142975
32   0.123445
33   0.3513
34   0.353494

$$$$

