PCCDB-ID:  70279
public computational chemistry database (PCCDB) project, http://pccdb.org

 16 17  0  0  0  0  0  0  0  0999 V2000
    0.9809   -0.1143   -0.0575 C   0  0  0  0  0  0  0  0  0  0  0  0
    4.4499    1.1892   -0.0598 C   0  0  0  0  0  0  0  0  0  0  0  0
    6.5827   -1.5522   -0.0622 C   0  0  0  0  0  0  0  0  0  0  0  0
    2.4814   -0.0370   -0.0579 C   0  0  0  0  0  0  0  0  0  0  0  0
    5.2162    0.0451   -0.0609 C   0  0  0  0  0  0  0  0  0  0  0  0
    4.5311   -1.2239   -0.0598 C   0  0  0  0  0  0  0  0  0  0  0  0
    3.0885    1.1309   -0.0588 N   0  0  0  0  0  0  0  0  0  0  0  0
    6.5636   -0.2220   -0.0620 N   0  0  0  0  0  0  0  0  0  0  0  0
    5.3783   -2.2366   -0.0607 N   0  0  0  0  0  0  0  0  0  0  0  0
    3.1686   -1.2220   -0.0585 N   0  0  0  0  0  0  0  0  0  0  0  0
    0.5801    0.8995   -0.0610 H   0  0  0  0  0  0  0  0  0  0  0  0
    0.6070   -0.6381    0.8310 H   0  0  0  0  0  0  0  0  0  0  0  0
    0.6068   -0.6448   -0.9419 H   0  0  0  0  0  0  0  0  0  0  0  0
    4.8875    2.1842   -0.0607 H   0  0  0  0  0  0  0  0  0  0  0  0
    7.5150   -2.1069   -0.0644 H   0  0  0  0  0  0  0  0  0  0  0  0
    2.6718   -2.1084   -0.0565 H   0  0  0  0  0  0  0  0  0  0  0  0
  1 12  1  0  0  0  0
  2  7  1  0  0  0  0
  3  8  2  0  0  0  0
  3  9  1  0  0  0  0
  4  1  1  0  0  0  0
  5  2  2  0  0  0  0
  5  6  1  0  0  0  0
  6 10  1  0  0  0  0
  7  4  2  0  0  0  0
  8  5  1  0  0  0  0
  9  6  2  0  0  0  0
 10  4  1  0  0  0  0
 10 16  1  0  0  0  0
 11  1  1  0  0  0  0
 13  1  1  0  0  0  0
 14  2  1  0  0  0  0
 15  3  1  0  0  0  0
M  END
>  <HBA>
3

>  <HBD>
1

>  <TPSA>
54.46

>  <cid>
70279

>  <dipole>
4.81

>  <excitation_energy_1>
4.067

>  <excitation_energy_2>
4.218

>  <excitation_energy_3>
4.623

>  <excitation_energy_4>
4.671

>  <homo_energy>
-6.631

>  <homo_lumo_gap>
4.795

>  <logP>
0.661

>  <lumo_energy>
-1.837

>  <melting_point>
146.28

>  <molecular_refractivity>
36.65

>  <oscillator_strength_1>
0.0093

>  <oscillator_strength_2>
0.0002

>  <oscillator_strength_3>
0.0001

>  <oscillator_strength_4>
0.2163

>  <open_babel_can_smiles>
Cc1ncc2c([nH]1)ncn2

>  <mulliken_charges>
16
1   -0.535115
2   0.010315
3   0.17105
4   0.506704
5   0.255971
6   0.503648
7   -0.467251
8   -0.499393
9   -0.505285
10   -0.676321
11   0.207064
12   0.178149
13   0.178004
14   0.170757
15   0.147471
16   0.354231

>  <lowdin_charges>
16
1   -0.451444
2   -0.057683
3   -0.043321
4   0.107184
5   -0.018813
6   0.062609
7   -0.179473
8   -0.21056
9   -0.241749
10   -0.142687
11   0.189139
12   0.171712
13   0.171657
14   0.174137
15   0.162271
16   0.307022

$$$$

