PCCDB-ID:  38715
public computational chemistry database (PCCDB) project, http://pccdb.org

 19 20  0  0  0  0  0  0  0  0999 V2000
    1.3953   -0.4518   -0.7140 C   0  0  0  0  0  0  0  0  0  0  0  0
    3.8632   -0.0617    1.9433 C   0  0  0  0  0  0  0  0  0  0  0  0
    4.5714   -0.7662    2.9154 C   0  0  0  0  0  0  0  0  0  0  0  0
    2.6959   -2.0822    1.1851 C   0  0  0  0  0  0  0  0  0  0  0  0
    2.9408   -0.7061    1.0909 C   0  0  0  0  0  0  0  0  0  0  0  0
    3.4071   -2.7875    2.1590 C   0  0  0  0  0  0  0  0  0  0  0  0
    4.3148   -2.1244    2.9896 C   0  0  0  0  0  0  0  0  0  0  0  0
    4.2465   -4.2146    3.4661 C   0  0  0  0  0  0  0  0  0  0  0  0
    3.3890   -4.1473    2.4978 N   0  0  0  0  0  0  0  0  0  0  0  0
    4.6135   -5.2908    4.1575 O   0  0  0  0  0  0  0  0  0  0  0  0
    2.3255    0.1193    0.1903 O   0  0  0  0  0  0  0  0  0  0  0  0
    4.8629   -3.0719    3.8476 O   0  0  0  0  0  0  0  0  0  0  0  0
    1.0408    0.3705   -1.3384 H   0  0  0  0  0  0  0  0  0  0  0  0
    0.5423   -0.9008   -0.1874 H   0  0  0  0  0  0  0  0  0  0  0  0
    1.8655   -1.2139   -1.3499 H   0  0  0  0  0  0  0  0  0  0  0  0
    4.0066    1.0063    1.8191 H   0  0  0  0  0  0  0  0  0  0  0  0
    5.2811   -0.2745    3.5718 H   0  0  0  0  0  0  0  0  0  0  0  0
    1.9928   -2.5966    0.5427 H   0  0  0  0  0  0  0  0  0  0  0  0
    4.1059   -6.0365    3.7933 H   0  0  0  0  0  0  0  0  0  0  0  0
  1 14  1  0  0  0  0
  1 11  1  0  0  0  0
  2  3  2  0  0  0  0
  3  7  1  0  0  0  0
  3 17  1  0  0  0  0
  4  6  1  0  0  0  0
  5  4  2  0  0  0  0
  5  2  1  0  0  0  0
  6  9  1  0  0  0  0
  6  7  2  0  0  0  0
  7 12  1  0  0  0  0
  8 12  1  0  0  0  0
  8 10  1  0  0  0  0
  9  8  2  0  0  0  0
 11  5  1  0  0  0  0
 13  1  1  0  0  0  0
 15  1  1  0  0  0  0
 16  2  1  0  0  0  0
 18  4  1  0  0  0  0
 19 10  1  0  0  0  0
M  END
>  <HBA>
3

>  <HBD>
1

>  <TPSA>
55.23

>  <cid>
38715

>  <dipole>
1.5

>  <excitation_energy_1>
4.738

>  <excitation_energy_2>
5.055

>  <excitation_energy_3>
5.466

>  <excitation_energy_4>
5.517

>  <homo_energy>
-5.723

>  <homo_lumo_gap>
5.421

>  <logP>
1.13

>  <lumo_energy>
-0.302

>  <melting_point>
135.71

>  <molecular_refractivity>
43.33

>  <oscillator_strength_1>
0.0924

>  <oscillator_strength_2>
0.0

>  <oscillator_strength_3>
0.0638

>  <oscillator_strength_4>
0.0089

>  <open_babel_can_smiles>
COc1ccc2c(c1)nc(o2)O

>  <mulliken_charges>
19
1   -0.212761
2   -0.193495
3   -0.182824
4   -0.259581
5   0.374192
6   0.248628
7   0.313793
8   0.702467
9   -0.546274
10   -0.591807
11   -0.510992
12   -0.489931
13   0.169756
14   0.152371
15   0.152478
16   0.142781
17   0.151221
18   0.143795
19   0.436185

>  <lowdin_charges>
19
1   -0.280983
2   -0.185916
3   -0.162416
4   -0.224574
5   0.101406
6   0.024987
7   0.050229
8   0.187591
9   -0.236505
10   -0.321893
11   -0.199578
12   -0.110984
13   0.163993
14   0.146038
15   0.146604
16   0.168642
17   0.174406
18   0.173763
19   0.385191

$$$$

