PCCDB-ID:  21634
public computational chemistry database (PCCDB) project, http://pccdb.org

 36 36  0  0  0  0  0  0  0  0999 V2000
    2.5424    1.1340    0.0289 C   0  0  0  0  0  0  0  0  0  0  0  0
    1.4343   -2.2065    2.4522 C   0  0  0  0  0  0  0  0  0  0  0  0
    9.4190   -0.5194    1.8475 C   0  0  0  0  0  0  0  0  0  0  0  0
    2.5670   -0.3917    0.1315 C   0  0  0  0  0  0  0  0  0  0  0  0
    2.7879   -2.2153    1.7400 C   0  0  0  0  0  0  0  0  0  0  0  0
    9.3299    0.3102    5.5869 C   0  0  0  0  0  0  0  0  0  0  0  0
    7.9599    0.3249    5.8272 C   0  0  0  0  0  0  0  0  0  0  0  0
    9.7954    0.0366    4.2964 C   0  0  0  0  0  0  0  0  0  0  0  0
    7.0573    0.0684    4.7900 C   0  0  0  0  0  0  0  0  0  0  0  0
    4.6990   -0.7934    1.2469 C   0  0  0  0  0  0  0  0  0  0  0  0
    5.3215   -0.4806    2.6058 C   0  0  0  0  0  0  0  0  0  0  0  0
    8.9229   -0.2234    3.2402 C   0  0  0  0  0  0  0  0  0  0  0  0
    7.5367   -0.2041    3.5055 C   0  0  0  0  0  0  0  0  0  0  0  0
    3.2400   -0.8740    1.3444 N   0  0  0  0  0  0  0  0  0  0  0  0
    6.7342   -0.4679    2.4280 O   0  0  0  0  0  0  0  0  0  0  0  0
    1.9994    1.4463   -0.8707 H   0  0  0  0  0  0  0  0  0  0  0  0
    3.5497    1.5612   -0.0316 H   0  0  0  0  0  0  0  0  0  0  0  0
    2.0465    1.5654    0.9046 H   0  0  0  0  0  0  0  0  0  0  0  0
    1.1592   -3.2227    2.7579 H   0  0  0  0  0  0  0  0  0  0  0  0
    0.6309   -1.8281    1.8108 H   0  0  0  0  0  0  0  0  0  0  0  0
    1.4777   -1.5727    3.3440 H   0  0  0  0  0  0  0  0  0  0  0  0
   10.5119   -0.4784    1.8072 H   0  0  0  0  0  0  0  0  0  0  0  0
    9.0208    0.1978    1.1200 H   0  0  0  0  0  0  0  0  0  0  0  0
    9.0996   -1.5132    1.5109 H   0  0  0  0  0  0  0  0  0  0  0  0
    3.0205   -0.8277   -0.7800 H   0  0  0  0  0  0  0  0  0  0  0  0
    1.5335   -0.7512    0.1587 H   0  0  0  0  0  0  0  0  0  0  0  0
    2.7565   -2.8998    0.8698 H   0  0  0  0  0  0  0  0  0  0  0  0
    3.5345   -2.6319    2.4250 H   0  0  0  0  0  0  0  0  0  0  0  0
   10.0336    0.5067    6.3907 H   0  0  0  0  0  0  0  0  0  0  0  0
    7.5784    0.5340    6.8232 H   0  0  0  0  0  0  0  0  0  0  0  0
   10.8656    0.0246    4.1012 H   0  0  0  0  0  0  0  0  0  0  0  0
    5.9922    0.0850    4.9911 H   0  0  0  0  0  0  0  0  0  0  0  0
    5.1463   -1.7191    0.8430 H   0  0  0  0  0  0  0  0  0  0  0  0
    4.9759    0.0108    0.5592 H   0  0  0  0  0  0  0  0  0  0  0  0
    5.0422   -1.2354    3.3544 H   0  0  0  0  0  0  0  0  0  0  0  0
    4.9634    0.4947    2.9611 H   0  0  0  0  0  0  0  0  0  0  0  0
  1  4  1  0  0  0  0
  1 18  1  0  0  0  0
  2 19  1  0  0  0  0
  2 21  1  0  0  0  0
  3 12  1  0  0  0  0
  4 26  1  0  0  0  0
  4 14  1  0  0  0  0
  5 28  1  0  0  0  0
  5  2  1  0  0  0  0
  6  7  1  0  0  0  0
  6 29  1  0  0  0  0
  7 30  1  0  0  0  0
  8  6  2  0  0  0  0
  9 32  1  0  0  0  0
  9  7  2  0  0  0  0
 10 14  1  0  0  0  0
 10 11  1  0  0  0  0
 11 36  1  0  0  0  0
 11 35  1  0  0  0  0
 12 13  2  0  0  0  0
 12  8  1  0  0  0  0
 13  9  1  0  0  0  0
 14  5  1  0  0  0  0
 15 11  1  0  0  0  0
 15 13  1  0  0  0  0
 16  1  1  0  0  0  0
 17  1  1  0  0  0  0
 20  2  1  0  0  0  0
 22  3  1  0  0  0  0
 23  3  1  0  0  0  0
 24  3  1  0  0  0  0
 25  4  1  0  0  0  0
 27  5  1  0  0  0  0
 31  8  1  0  0  0  0
 33 10  1  0  0  0  0
 34 10  1  0  0  0  0
M  END
>  <HBA>
2

>  <HBD>
0

>  <TPSA>
12.47

>  <cid>
21634

>  <dipole>
1.56

>  <excitation_energy_1>
5.034

>  <excitation_energy_2>
5.413

>  <excitation_energy_3>
5.433

>  <excitation_energy_4>
5.507

>  <homo_energy>
-5.674

>  <homo_lumo_gap>
5.954

>  <logP>
2.716

>  <lumo_energy>
0.28

>  <melting_point>
12.58

>  <molecular_refractivity>
64.83

>  <oscillator_strength_1>
0.0345

>  <oscillator_strength_2>
0.0112

>  <oscillator_strength_3>
0.0015

>  <oscillator_strength_4>
0.0255

>  <open_babel_can_smiles>
CCN(CCOc1ccccc1C)CC

>  <mulliken_charges>
36
1   -0.442048
2   -0.44013
3   -0.51207
4   -0.123157
5   -0.124991
6   -0.128443
7   -0.14236
8   -0.190267
9   -0.194505
10   -0.15684
11   -0.022897
12   0.122247
13   0.328211
14   -0.383724
15   -0.529177
16   0.141284
17   0.147483
18   0.154541
19   0.141499
20   0.147582
21   0.153213
22   0.145227
23   0.162458
24   0.162314
25   0.116355
26   0.140185
27   0.117286
28   0.139245
29   0.121411
30   0.125035
31   0.119284
32   0.133379
33   0.132903
34   0.152468
35   0.139248
36   0.147747

>  <lowdin_charges>
36
1   -0.450445
2   -0.45011
3   -0.435653
4   -0.196164
5   -0.19924
6   -0.18009
7   -0.153242
8   -0.159246
9   -0.211763
10   -0.207922
11   -0.132331
12   -0.024958
13   0.093163
14   -0.192732
15   -0.205075
16   0.151736
17   0.147563
18   0.15504
19   0.150682
20   0.149248
21   0.15384
22   0.150895
23   0.162317
24   0.160727
25   0.120708
26   0.144855
27   0.121667
28   0.145545
29   0.15614
30   0.155149
31   0.151931
32   0.160248
33   0.132642
34   0.154093
35   0.138015
36   0.142765

$$$$

