PCCDB-ID:  4362
public computational chemistry database (PCCDB) project, http://pccdb.org

 16 16  0  0  0  0  0  0  0  0999 V2000
    2.9858   -0.0475   -1.2402 C   0  0  0  0  0  0  0  0  0  0  0  0
    2.4760   -0.0036    0.2014 C   0  0  0  0  0  0  0  0  0  0  0  0
    4.4281   -2.2740    2.4428 C   0  0  0  0  0  0  0  0  0  0  0  0
    3.4182   -3.0815    2.1060 C   0  0  0  0  0  0  0  0  0  0  0  0
    4.2283   -0.9458    1.7658 C   0  0  0  0  0  0  0  0  0  0  0  0
    2.4911   -2.3348    1.1866 C   0  0  0  0  0  0  0  0  0  0  0  0
    3.0419   -1.0591    1.0354 N   0  0  0  0  0  0  0  0  0  0  0  0
    4.9328    0.0414    1.8272 O   0  0  0  0  0  0  0  0  0  0  0  0
    1.4654   -2.7312    0.6713 O   0  0  0  0  0  0  0  0  0  0  0  0
    2.5326    0.7624   -1.8224 H   0  0  0  0  0  0  0  0  0  0  0  0
    2.7247   -0.9983   -1.7157 H   0  0  0  0  0  0  0  0  0  0  0  0
    4.0731    0.0756   -1.2717 H   0  0  0  0  0  0  0  0  0  0  0  0
    1.3896   -0.1239    0.2318 H   0  0  0  0  0  0  0  0  0  0  0  0
    2.7346    0.9472    0.6752 H   0  0  0  0  0  0  0  0  0  0  0  0
    5.2774   -2.4638    3.0866 H   0  0  0  0  0  0  0  0  0  0  0  0
    3.2252   -4.1047    2.4024 H   0  0  0  0  0  0  0  0  0  0  0  0
  1  2  1  0  0  0  0
  2 13  1  0  0  0  0
  2 14  1  0  0  0  0
  2  7  1  0  0  0  0
  3 15  1  0  0  0  0
  4 16  1  0  0  0  0
  4  3  2  0  0  0  0
  5  8  2  0  0  0  0
  5  3  1  0  0  0  0
  6  4  1  0  0  0  0
  7  6  1  0  0  0  0
  7  5  1  0  0  0  0
  9  6  2  0  0  0  0
 10  1  1  0  0  0  0
 11  1  1  0  0  0  0
 12  1  1  0  0  0  0
M  END
>  <HBA>
3

>  <HBD>
0

>  <TPSA>
37.38

>  <cid>
4362

>  <dipole>
1.03

>  <excitation_energy_1>
3.441

>  <excitation_energy_2>
3.959

>  <excitation_energy_3>
4.139

>  <excitation_energy_4>
5.647

>  <homo_energy>
-7.353

>  <homo_lumo_gap>
4.754

>  <logP>
-0.131

>  <lumo_energy>
-2.599

>  <melting_point>
51.22

>  <molecular_refractivity>
35.58

>  <oscillator_strength_1>
0.0

>  <oscillator_strength_2>
0.0077

>  <oscillator_strength_3>
0.0008

>  <oscillator_strength_4>
0.2688

>  <open_babel_can_smiles>
CCN1C(=O)C=CC1=O

>  <mulliken_charges>
16
1   -0.449197
2   -0.146668
3   -0.163591
4   -0.163574
5   0.591634
6   0.591622
7   -0.497418
8   -0.475741
9   -0.47572
10   0.154277
11   0.165845
12   0.165646
13   0.176284
14   0.176425
15   0.175102
16   0.175073

>  <lowdin_charges>
16
1   -0.448932
2   -0.188399
3   -0.154497
4   -0.152846
5   0.169023
6   0.167217
7   -0.094957
8   -0.237628
9   -0.236756
10   0.15964
11   0.159619
12   0.157652
13   0.164715
14   0.166967
15   0.185226
16   0.183956

$$$$

