PCCDB-ID:  39384
public computational chemistry database (PCCDB) project, http://pccdb.org

 27 28  0  0  1  0  0  0  0  0999 V2000
    1.1558    0.5727   -0.2684 C   0  0  0  0  0  0  0  0  0  0  0  0
    2.9471   -1.1536   -0.9799 C   0  0  0  0  0  0  0  0  0  0  0  0
    4.2299   -1.7244   -0.3430 C   0  0  0  0  0  0  0  0  0  0  0  0
    6.5073   -1.0906    1.5974 C   0  0  0  0  0  0  0  0  0  0  0  0
    6.6998   -2.2554    2.5635 C   0  0  0  0  0  0  0  0  0  0  0  0
    2.8389   -0.5605    1.3265 C   0  0  0  0  0  0  0  0  0  0  0  0
    4.0400   -2.6629    2.0777 C   0  0  0  0  0  0  0  0  0  0  0  0
    2.5690    0.0276   -0.0690 C   0  0  2  0  0  0  0  0  0  0  0  0
    4.1246   -1.4140    1.1857 C   0  0  1  0  0  0  0  0  0  0  0  0
    5.1930   -0.5538    1.6366 O   0  0  0  0  0  0  0  0  0  0  0  0
    5.5886   -3.6516    2.1336 S   0  0  0  0  0  0  0  0  0  0  0  0
    1.0223    0.9735   -1.2803 H   0  0  0  0  0  0  0  0  0  0  0  0
    0.9330    1.3796    0.4400 H   0  0  0  0  0  0  0  0  0  0  0  0
    0.4068   -0.2166   -0.1209 H   0  0  0  0  0  0  0  0  0  0  0  0
    2.1399   -1.9006   -0.9569 H   0  0  0  0  0  0  0  0  0  0  0  0
    3.0875   -0.8656   -2.0281 H   0  0  0  0  0  0  0  0  0  0  0  0
    5.1023   -1.1996   -0.7460 H   0  0  0  0  0  0  0  0  0  0  0  0
    4.3763   -2.7897   -0.5462 H   0  0  0  0  0  0  0  0  0  0  0  0
    6.7796   -1.4079    0.5798 H   0  0  0  0  0  0  0  0  0  0  0  0
    7.1631   -0.2585    1.8797 H   0  0  0  0  0  0  0  0  0  0  0  0
    6.5025   -1.9337    3.5923 H   0  0  0  0  0  0  0  0  0  0  0  0
    7.7242   -2.6374    2.5080 H   0  0  0  0  0  0  0  0  0  0  0  0
    1.9961   -1.2066    1.6129 H   0  0  0  0  0  0  0  0  0  0  0  0
    2.9656    0.1893    2.1130 H   0  0  0  0  0  0  0  0  0  0  0  0
    3.2604   -3.3381    1.7114 H   0  0  0  0  0  0  0  0  0  0  0  0
    3.7767   -2.3626    3.0986 H   0  0  0  0  0  0  0  0  0  0  0  0
    3.2928    0.8377   -0.2412 H   0  0  0  0  0  0  0  0  0  0  0  0
  1 14  1  0  0  0  0
  1  8  1  0  0  0  0
  1 13  1  0  0  0  0
  2 15  1  0  0  0  0
  2  3  1  0  0  0  0
  2  8  1  0  0  0  0
  3  9  1  0  0  0  0
  4 10  1  0  0  0  0
  4 20  1  0  0  0  0
  4  5  1  0  0  0  0
  5 21  1  0  0  0  0
  6 23  1  0  0  0  0
  6 24  1  0  0  0  0
  7 11  1  0  0  0  0
  7 26  1  0  0  0  0
  8 27  1  6  0  0  0
  8  6  1  0  0  0  0
  9  6  1  0  0  0  0
  9 10  1  1  0  0  0
  9  7  1  0  0  0  0
 11  5  1  0  0  0  0
 12  1  1  0  0  0  0
 16  2  1  0  0  0  0
 17  3  1  0  0  0  0
 18  3  1  0  0  0  0
 19  4  1  0  0  0  0
 22  5  1  0  0  0  0
 25  7  1  0  0  0  0
M  END
>  <HBA>
2

>  <HBD>
0

>  <TPSA>
34.53

>  <cid>
39384

>  <dipole>
0.89

>  <excitation_energy_1>
5.131

>  <excitation_energy_2>
5.482

>  <excitation_energy_3>
5.765

>  <excitation_energy_4>
5.864

>  <homo_energy>
-5.87

>  <homo_lumo_gap>
6.914

>  <logP>
2.309

>  <lumo_energy>
1.045

>  <melting_point>
27.64

>  <molecular_refractivity>
49.86

>  <oscillator_strength_1>
0.0011

>  <oscillator_strength_2>
0.0134

>  <oscillator_strength_3>
0.0162

>  <oscillator_strength_4>
0.0205

>  <open_babel_can_smiles>
C[C@@H]1CC[C@@]2(C1)CSCCO2

>  <mulliken_charges>
27
1   -0.446671
2   -0.276008
3   -0.305747
4   -0.025804
5   -0.422672
6   -0.29195
7   -0.456149
8   -0.080483
9   0.356289
10   -0.511174
11   0.077775
12   0.14269
13   0.143777
14   0.136849
15   0.128122
16   0.135256
17   0.149326
18   0.15381
19   0.137855
20   0.147927
21   0.175048
22   0.170775
23   0.128506
24   0.15337
25   0.169911
26   0.17415
27   0.135222

>  <lowdin_charges>
27
1   -0.44385
2   -0.280066
3   -0.298006
4   -0.138997
5   -0.388289
6   -0.286235
7   -0.38772
8   -0.125684
9   0.117864
10   -0.277768
11   0.085963
12   0.149133
13   0.150868
14   0.145243
15   0.13784
16   0.144278
17   0.154782
18   0.153885
19   0.134978
20   0.152087
21   0.157861
22   0.169671
23   0.142705
24   0.158628
25   0.16923
26   0.158501
27   0.143095

$$$$

