PCCDB-ID:  28957
public computational chemistry database (PCCDB) project, http://pccdb.org

 33 33  0  0  0  0  0  0  0  0999 V2000
    2.0883   -2.1186    1.6764 C   0  0  0  0  0  0  0  0  0  0  0  0
    2.6159   -4.4133    2.1380 C   0  0  0  0  0  0  0  0  0  0  0  0
    8.1318    1.2051    6.6693 C   0  0  0  0  0  0  0  0  0  0  0  0
    7.3797    0.0948    6.3371 C   0  0  0  0  0  0  0  0  0  0  0  0
    8.5777    2.2150    5.7915 C   0  0  0  0  0  0  0  0  0  0  0  0
    5.1124   -1.7106    1.2560 C   0  0  0  0  0  0  0  0  0  0  0  0
    6.8720   -0.3164    5.0917 C   0  0  0  0  0  0  0  0  0  0  0  0
    8.3942    2.3597    4.4347 C   0  0  0  0  0  0  0  0  0  0  0  0
    5.6342   -1.4829    2.6763 C   0  0  0  0  0  0  0  0  0  0  0  0
    4.2881   -2.9978    1.1277 C   0  0  0  0  0  0  0  0  0  0  0  0
    6.9808    0.2801    3.8364 C   0  0  0  0  0  0  0  0  0  0  0  0
    7.6975    1.5499    3.4719 C   0  0  0  0  0  0  0  0  0  0  0  0
    6.4141   -0.2635    2.7412 N   0  0  0  0  0  0  0  0  0  0  0  0
    3.1434   -3.0581    2.0379 N   0  0  0  0  0  0  0  0  0  0  0  0
    7.6616    1.8824    2.2700 O   0  0  0  0  0  0  0  0  0  0  0  0
    1.2742   -2.1879    2.4053 H   0  0  0  0  0  0  0  0  0  0  0  0
    1.6656   -2.3102    0.6699 H   0  0  0  0  0  0  0  0  0  0  0  0
    2.4631   -1.0911    1.6959 H   0  0  0  0  0  0  0  0  0  0  0  0
    1.8056   -4.4384    2.8747 H   0  0  0  0  0  0  0  0  0  0  0  0
    3.4037   -5.0949    2.4764 H   0  0  0  0  0  0  0  0  0  0  0  0
    2.2158   -4.7998    1.1797 H   0  0  0  0  0  0  0  0  0  0  0  0
    8.4103    1.3154    7.7143 H   0  0  0  0  0  0  0  0  0  0  0  0
    7.1339   -0.5736    7.1608 H   0  0  0  0  0  0  0  0  0  0  0  0
    9.1598    3.0080    6.2596 H   0  0  0  0  0  0  0  0  0  0  0  0
    5.9587   -1.7782    0.5596 H   0  0  0  0  0  0  0  0  0  0  0  0
    4.5242   -0.8393    0.9418 H   0  0  0  0  0  0  0  0  0  0  0  0
    6.3074   -1.2446    5.1183 H   0  0  0  0  0  0  0  0  0  0  0  0
    8.8387    3.2349    3.9670 H   0  0  0  0  0  0  0  0  0  0  0  0
    6.2491   -2.3424    2.9872 H   0  0  0  0  0  0  0  0  0  0  0  0
    4.7887   -1.4343    3.3740 H   0  0  0  0  0  0  0  0  0  0  0  0
    4.9369   -3.8509    1.3633 H   0  0  0  0  0  0  0  0  0  0  0  0
    3.9770   -3.1228    0.0706 H   0  0  0  0  0  0  0  0  0  0  0  0
    6.5980    0.2886    1.9037 H   0  0  0  0  0  0  0  0  0  0  0  0
  1 18  1  0  0  0  0
  1 14  1  0  0  0  0
  1 16  1  0  0  0  0
  2 20  1  0  0  0  0
  2 19  1  0  0  0  0
  3 22  1  0  0  0  0
  4  3  2  0  0  0  0
  4 23  1  0  0  0  0
  5 24  1  0  0  0  0
  5  3  1  0  0  0  0
  6  9  1  0  0  0  0
  7 27  1  0  0  0  0
  7  4  1  0  0  0  0
  8  5  2  0  0  0  0
  9 13  1  0  0  0  0
  9 29  1  0  0  0  0
  9 30  1  0  0  0  0
 10  6  1  0  0  0  0
 10 31  1  0  0  0  0
 10 14  1  0  0  0  0
 11  7  2  0  0  0  0
 12 11  1  0  0  0  0
 12  8  1  0  0  0  0
 13 11  1  0  0  0  0
 14  2  1  0  0  0  0
 15 12  2  0  0  0  0
 17  1  1  0  0  0  0
 21  2  1  0  0  0  0
 25  6  1  0  0  0  0
 26  6  1  0  0  0  0
 28  8  1  0  0  0  0
 32 10  1  0  0  0  0
 33 13  1  0  0  0  0
M  END
>  <HBA>
3

>  <HBD>
1

>  <TPSA>
32.34

>  <cid>
28957

>  <dipole>
3.84

>  <excitation_energy_1>
3.617

>  <excitation_energy_2>
3.917

>  <excitation_energy_3>
4.097

>  <excitation_energy_4>
4.179

>  <homo_energy>
-5.206

>  <homo_lumo_gap>
3.943

>  <logP>
1.483

>  <lumo_energy>
-1.263

>  <melting_point>
73.29

>  <molecular_refractivity>
64.14

>  <oscillator_strength_1>
0.1868

>  <oscillator_strength_2>
0.1418

>  <oscillator_strength_3>
0.0007

>  <oscillator_strength_4>
0.0024

>  <open_babel_can_smiles>
CN(CCCNc1cccccc1=O)C

>  <mulliken_charges>
33
1   -0.304333
2   -0.295078
3   -0.142814
4   -0.108785
5   -0.110921
6   -0.314938
7   -0.237826
8   -0.207054
9   -0.085987
10   -0.117354
11   0.321905
12   0.408435
13   -0.636846
14   -0.367559
15   -0.568825
16   0.152544
17   0.120998
18   0.155488
19   0.150674
20   0.149572
21   0.120472
22   0.129425
23   0.132682
24   0.136872
25   0.15126
26   0.153699
27   0.137171
28   0.14352
29   0.145744
30   0.173835
31   0.138193
32   0.117845
33   0.357986

>  <lowdin_charges>
33
1   -0.358587
2   -0.357547
3   -0.192535
4   -0.124519
5   -0.125984
6   -0.288698
7   -0.220717
8   -0.198305
9   -0.196497
10   -0.196505
11   0.055928
12   0.118326
13   -0.235437
14   -0.186192
15   -0.33226
16   0.153523
17   0.121751
18   0.150596
19   0.151526
20   0.150972
21   0.122159
22   0.157609
23   0.161882
24   0.163514
25   0.154191
26   0.149914
27   0.163337
28   0.171496
29   0.143828
30   0.156617
31   0.145688
32   0.121172
33   0.299754

$$$$

