PCCDB-ID:  20372
public computational chemistry database (PCCDB) project, http://pccdb.org

 27 27  0  0  1  0  0  0  0  0999 V2000
    1.6385   -1.4693   -0.8052 C   0  0  0  0  0  0  0  0  0  0  0  0
    6.6041   -0.4246   -0.4855 C   0  0  0  0  0  0  0  0  0  0  0  0
    2.9599   -1.4336   -1.5799 C   0  0  0  0  0  0  0  0  0  0  0  0
    4.1294   -0.9511   -0.7160 C   0  0  0  0  0  0  0  0  0  0  0  0
    4.9819   -0.9052   -4.7697 C   0  0  0  0  0  0  0  0  0  0  0  0
    6.5762   -2.0304   -3.0940 C   0  0  0  0  0  0  0  0  0  0  0  0
    6.0470   -0.7150   -3.6900 C   0  0  2  0  0  0  0  0  0  0  0  0
    5.4908   -0.9163   -1.4166 C   0  0  2  0  0  0  0  0  0  0  0  0
    4.3237    0.3145   -5.0551 O   0  0  0  0  0  0  0  0  0  0  0  0
    5.7858   -2.2126   -1.9253 O   0  0  0  0  0  0  0  0  0  0  0  0
    5.4340   -0.0546   -2.5696 O   0  0  0  0  0  0  0  0  0  0  0  0
    0.8160   -1.8127   -1.4426 H   0  0  0  0  0  0  0  0  0  0  0  0
    1.3713   -0.4758   -0.4241 H   0  0  0  0  0  0  0  0  0  0  0  0
    1.6979   -2.1478    0.0550 H   0  0  0  0  0  0  0  0  0  0  0  0
    6.6822   -1.0737    0.3925 H   0  0  0  0  0  0  0  0  0  0  0  0
    6.3951    0.5968   -0.1529 H   0  0  0  0  0  0  0  0  0  0  0  0
    7.5684   -0.4213   -1.0030 H   0  0  0  0  0  0  0  0  0  0  0  0
    2.8562   -0.7756   -2.4514 H   0  0  0  0  0  0  0  0  0  0  0  0
    3.1914   -2.4325   -1.9668 H   0  0  0  0  0  0  0  0  0  0  0  0
    4.2297   -1.5988    0.1651 H   0  0  0  0  0  0  0  0  0  0  0  0
    3.9273    0.0599   -0.3392 H   0  0  0  0  0  0  0  0  0  0  0  0
    4.2722   -1.6813   -4.4387 H   0  0  0  0  0  0  0  0  0  0  0  0
    5.4468   -1.2464   -5.7021 H   0  0  0  0  0  0  0  0  0  0  0  0
    7.6457   -1.9659   -2.8500 H   0  0  0  0  0  0  0  0  0  0  0  0
    6.4173   -2.8960   -3.7444 H   0  0  0  0  0  0  0  0  0  0  0  0
    6.8501   -0.0726   -4.0706 H   0  0  0  0  0  0  0  0  0  0  0  0
    4.1031    0.6953   -4.1877 H   0  0  0  0  0  0  0  0  0  0  0  0
  1 13  1  0  0  0  0
  1 14  1  0  0  0  0
  2 16  1  0  0  0  0
  2 15  1  0  0  0  0
  3  1  1  0  0  0  0
  3  4  1  0  0  0  0
  4 21  1  0  0  0  0
  4 20  1  0  0  0  0
  5 22  1  0  0  0  0
  5  7  1  0  0  0  0
  6 24  1  0  0  0  0
  6 10  1  0  0  0  0
  7 26  1  6  0  0  0
  7  6  1  0  0  0  0
  7 11  1  0  0  0  0
  8  4  1  1  0  0  0
  8  2  1  0  0  0  0
  9  5  1  0  0  0  0
  9 27  1  0  0  0  0
 10  8  1  0  0  0  0
 11  8  1  0  0  0  0
 12  1  1  0  0  0  0
 17  2  1  0  0  0  0
 18  3  1  0  0  0  0
 19  3  1  0  0  0  0
 23  5  1  0  0  0  0
 25  6  1  0  0  0  0
M  END
>  <HBA>
3

>  <HBD>
1

>  <TPSA>
38.69

>  <cid>
20372

>  <dipole>
1.95

>  <excitation_energy_1>
6.479

>  <excitation_energy_2>
6.606

>  <excitation_energy_3>
6.685

>  <excitation_energy_4>
6.875

>  <homo_energy>
-6.838

>  <homo_lumo_gap>
8.876

>  <logP>
0.91

>  <lumo_energy>
2.038

>  <melting_point>
6.43

>  <molecular_refractivity>
41.83

>  <oscillator_strength_1>
0.0092

>  <oscillator_strength_2>
0.0

>  <oscillator_strength_3>
0.0047

>  <oscillator_strength_4>
0.009

>  <open_babel_can_smiles>
CCC[C@@]1(C)OC[C@H](O1)CO

>  <mulliken_charges>
27
1   -0.445497
2   -0.453432
3   -0.261911
4   -0.270289
5   -0.029883
6   -0.075535
7   0.111033
8   0.532676
9   -0.630031
10   -0.499231
11   -0.547534
12   0.145676
13   0.140985
14   0.142124
15   0.152549
16   0.154969
17   0.14639
18   0.138805
19   0.151351
20   0.141838
21   0.139317
22   0.130236
23   0.138341
24   0.139874
25   0.157842
26   0.142445
27   0.406895

>  <lowdin_charges>
27
1   -0.444222
2   -0.458511
3   -0.276005
4   -0.283992
5   -0.150054
6   -0.143219
7   -0.030511
8   0.217834
9   -0.465403
10   -0.259563
11   -0.282167
12   0.152223
13   0.145448
14   0.146714
15   0.158626
16   0.159659
17   0.155192
18   0.142391
19   0.148695
20   0.153054
21   0.15049
22   0.132806
23   0.146829
24   0.135693
25   0.157514
26   0.146809
27   0.343671

$$$$

