PCCDB-ID:  20350
public computational chemistry database (PCCDB) project, http://pccdb.org

 22 22  0  0  1  0  0  0  0  0999 V2000
    0.9990    0.0194    0.1553 C   0  0  0  0  0  0  0  0  0  0  0  0
    3.1743   -1.1764   -0.1213 C   0  0  0  0  0  0  0  0  0  0  0  0
    3.2029    1.3208   -0.0539 C   0  0  0  0  0  0  0  0  0  0  0  0
    4.6737   -1.2791   -0.2952 C   0  0  0  0  0  0  0  0  0  0  0  0
    4.6514    1.2317   -0.5571 C   0  0  0  0  0  0  0  0  0  0  0  0
    2.4954   -0.0202   -0.0157 C   0  0  0  0  0  0  0  0  0  0  0  0
    5.4145    0.0301    0.0483 C   0  0  1  0  0  0  0  0  0  0  0  0
    5.6509    0.2451    1.5486 C   0  0  0  0  0  0  0  0  0  0  0  0
    6.6467    0.7716    1.9832 O   0  0  0  0  0  0  0  0  0  0  0  0
    4.6664   -0.1550    2.3954 O   0  0  0  0  0  0  0  0  0  0  0  0
    0.5693   -0.9844    0.2302 H   0  0  0  0  0  0  0  0  0  0  0  0
    0.5232    0.5329   -0.6913 H   0  0  0  0  0  0  0  0  0  0  0  0
    0.7177    0.5805    1.0569 H   0  0  0  0  0  0  0  0  0  0  0  0
    2.6226   -2.1162   -0.1002 H   0  0  0  0  0  0  0  0  0  0  0  0
    2.6330    2.0098   -0.6924 H   0  0  0  0  0  0  0  0  0  0  0  0
    3.1722    1.7672    0.9517 H   0  0  0  0  0  0  0  0  0  0  0  0
    4.9000   -1.5483   -1.3377 H   0  0  0  0  0  0  0  0  0  0  0  0
    5.0640   -2.1090    0.3093 H   0  0  0  0  0  0  0  0  0  0  0  0
    5.1890    2.1615   -0.3424 H   0  0  0  0  0  0  0  0  0  0  0  0
    4.6483    1.1066   -1.6475 H   0  0  0  0  0  0  0  0  0  0  0  0
    6.4192    0.0061   -0.3831 H   0  0  0  0  0  0  0  0  0  0  0  0
    3.9193   -0.5273    1.8867 H   0  0  0  0  0  0  0  0  0  0  0  0
  1 11  1  0  0  0  0
  1 13  1  0  0  0  0
  2 14  1  0  0  0  0
  2  6  2  0  0  0  0
  3  6  1  0  0  0  0
  3 16  1  0  0  0  0
  4  2  1  0  0  0  0
  4  7  1  0  0  0  0
  4 18  1  0  0  0  0
  5 19  1  0  0  0  0
  5  3  1  0  0  0  0
  5  7  1  0  0  0  0
  6  1  1  0  0  0  0
  7 21  1  6  0  0  0
  7  8  1  0  0  0  0
  8  9  2  0  0  0  0
  8 10  1  0  0  0  0
 12  1  1  0  0  0  0
 15  3  1  0  0  0  0
 17  4  1  0  0  0  0
 20  5  1  0  0  0  0
 22 10  1  0  0  0  0
M  END
>  <HBA>
2

>  <HBD>
1

>  <TPSA>
37.3

>  <cid>
20350

>  <dipole>
5.01

>  <excitation_energy_1>
5.545

>  <excitation_energy_2>
5.987

>  <excitation_energy_3>
6.276

>  <excitation_energy_4>
6.287

>  <homo_energy>
-6.942

>  <homo_lumo_gap>
6.947

>  <logP>
1.817

>  <lumo_energy>
0.005

>  <melting_point>
85.06

>  <molecular_refractivity>
39.75

>  <oscillator_strength_1>
0.0004

>  <oscillator_strength_2>
0.0257

>  <oscillator_strength_3>
0.0075

>  <oscillator_strength_4>
0.0322

>  <open_babel_can_smiles>
CC1=CC[C@@H](CC1)C(=O)O

>  <mulliken_charges>
22
1   -0.513964
2   -0.225343
3   -0.348797
4   -0.316801
5   -0.27015
6   0.18526
7   -0.203499
8   0.587554
9   -0.455039
10   -0.582495
11   0.15836
12   0.160705
13   0.161772
14   0.129906
15   0.152914
16   0.167017
17   0.163487
18   0.161016
19   0.163008
20   0.148535
21   0.164921
22   0.411631

>  <lowdin_charges>
22
1   -0.440951
2   -0.215115
3   -0.288441
4   -0.286362
5   -0.267514
6   -0.011653
7   -0.164192
8   0.187907
9   -0.249251
10   -0.366855
11   0.158186
12   0.160962
13   0.160672
14   0.155522
15   0.158755
16   0.157815
17   0.160552
18   0.157932
19   0.159828
20   0.148148
21   0.16879
22   0.355266

$$$$

