PCCDB-ID:  7752
public computational chemistry database (PCCDB) project, http://pccdb.org

 16 15  0  0  0  0  0  0  0  0999 V2000
    1.4636    0.4609    0.2263 C   0  0  0  0  0  0  0  0  0  0  0  0
    6.1689    0.3416   -1.0470 C   0  0  0  0  0  0  0  0  0  0  0  0
    2.5367   -0.3698    0.9050 C   0  0  0  0  0  0  0  0  0  0  0  0
    4.9102   -0.7067    0.6222 C   0  0  0  0  0  0  0  0  0  0  0  0
    6.0496   -0.5602    0.0895 N   0  0  0  0  0  0  0  0  0  0  0  0
    4.7306   -1.5335    1.6846 O   0  0  0  0  0  0  0  0  0  0  0  0
    3.7810   -0.0911    0.2247 O   0  0  0  0  0  0  0  0  0  0  0  0
    0.4962    0.2852    0.7093 H   0  0  0  0  0  0  0  0  0  0  0  0
    1.3764    0.1943   -0.8317 H   0  0  0  0  0  0  0  0  0  0  0  0
    1.6967    1.5282    0.2952 H   0  0  0  0  0  0  0  0  0  0  0  0
    7.1802    0.2609   -1.4559 H   0  0  0  0  0  0  0  0  0  0  0  0
    6.0033    1.3893   -0.7579 H   0  0  0  0  0  0  0  0  0  0  0  0
    5.4532    0.1087   -1.8479 H   0  0  0  0  0  0  0  0  0  0  0  0
    2.3202   -1.4411    0.8383 H   0  0  0  0  0  0  0  0  0  0  0  0
    2.6380   -0.1109    1.9640 H   0  0  0  0  0  0  0  0  0  0  0  0
    5.6152   -1.9009    1.8586 H   0  0  0  0  0  0  0  0  0  0  0  0
  1 10  1  0  0  0  0
  1  8  1  0  0  0  0
  1  3  1  0  0  0  0
  2 12  1  0  0  0  0
  2  5  1  0  0  0  0
  3 15  1  0  0  0  0
  4  6  1  0  0  0  0
  5  4  2  0  0  0  0
  6 16  1  0  0  0  0
  7  4  1  0  0  0  0
  7  3  1  0  0  0  0
  9  1  1  0  0  0  0
 11  2  1  0  0  0  0
 13  2  1  0  0  0  0
 14  3  1  0  0  0  0
M  END
>  <HBA>
3

>  <HBD>
1

>  <TPSA>
38.33

>  <cid>
7752

>  <dipole>
1.9

>  <excitation_energy_1>
5.837

>  <excitation_energy_2>
6.402

>  <excitation_energy_3>
6.46

>  <excitation_energy_4>
6.561

>  <homo_energy>
-6.34

>  <homo_lumo_gap>
7.837

>  <logP>
0.753

>  <lumo_energy>
1.497

>  <melting_point>
24.72

>  <molecular_refractivity>
25.82

>  <oscillator_strength_1>
0.0007

>  <oscillator_strength_2>
0.0035

>  <oscillator_strength_3>
0.0316

>  <oscillator_strength_4>
0.0036

>  <open_babel_can_smiles>
CCO/C(=N\C)/O

>  <mulliken_charges>
16
1   -0.460075
2   -0.312471
3   -0.024418
4   0.72746
5   -0.496631
6   -0.609941
7   -0.479444
8   0.151805
9   0.164005
10   0.164232
11   0.149019
12   0.144859
13   0.143897
14   0.157531
15   0.158125
16   0.422046

>  <lowdin_charges>
16
1   -0.445681
2   -0.351085
3   -0.113159
4   0.184953
5   -0.277556
6   -0.373277
7   -0.200075
8   0.158961
9   0.158697
10   0.158653
11   0.148759
12   0.142172
13   0.142652
14   0.147632
15   0.148018
16   0.370334

$$$$

