PCCDB-ID:  67051
public computational chemistry database (PCCDB) project, http://pccdb.org

 15 15  0  0  1  0  0  0  0  0999 V2000
    1.2888   -0.2031   -0.1287 C   0  0  2  0  0  0  0  0  0  0  0  0
    0.6526    1.1494    0.1860 C   0  0  0  0  0  0  0  0  0  0  0  0
    0.2336   -1.2715    0.1890 C   0  0  0  0  0  0  0  0  0  0  0  0
   -1.4392    0.2533   -0.1946 C   0  0  0  0  0  0  0  0  0  0  0  0
    2.5509   -0.5337    0.5340 N   0  0  0  0  0  0  0  0  0  0  0  0
   -0.5990    1.3581    0.1471 N   0  0  0  0  0  0  0  0  0  0  0  0
   -1.0213   -1.0612    0.1426 N   0  0  0  0  0  0  0  0  0  0  0  0
    1.4831    2.1650    0.5025 O   0  0  0  0  0  0  0  0  0  0  0  0
    0.7277   -2.4716    0.4992 O   0  0  0  0  0  0  0  0  0  0  0  0
   -2.5129    0.4492   -0.7125 O   0  0  0  0  0  0  0  0  0  0  0  0
    1.4698   -0.2457   -1.2119 H   0  0  0  0  0  0  0  0  0  0  0  0
    2.5996   -0.2257    1.5020 H   0  0  0  0  0  0  0  0  0  0  0  0
    3.3819   -0.2470    0.0278 H   0  0  0  0  0  0  0  0  0  0  0  0
    2.3979    1.8378    0.4983 H   0  0  0  0  0  0  0  0  0  0  0  0
    1.7017   -2.3514    0.5662 H   0  0  0  0  0  0  0  0  0  0  0  0
  1 11  1  6  0  0  0
  1  2  1  0  0  0  0
  1  3  1  0  0  0  0
  1  5  1  0  0  0  0
  2  8  1  0  0  0  0
  3  9  1  0  0  0  0
  4  7  1  0  0  0  0
  4  6  2  0  0  0  0
  5 12  1  0  0  0  0
  6  2  2  0  0  0  0
  7  3  2  0  0  0  0
  9 15  1  0  0  0  0
 10  4  2  0  0  0  0
 13  5  1  0  0  0  0
 14  8  1  0  0  0  0
M  END
>  <HBA>
6

>  <HBD>
3

>  <TPSA>
101.29

>  <cid>
67051

>  <dipole>
9.98

>  <excitation_energy_1>
3.864

>  <excitation_energy_2>
4.221

>  <excitation_energy_3>
5.16

>  <excitation_energy_4>
5.322

>  <homo_energy>
-6.909

>  <homo_lumo_gap>
5.23

>  <logP>
-0.962

>  <lumo_energy>
-1.679

>  <melting_point>
180.46

>  <molecular_refractivity>
36.36

>  <oscillator_strength_1>
0.0004

>  <oscillator_strength_2>
0.0033

>  <oscillator_strength_3>
0.0004

>  <oscillator_strength_4>
0.0252

>  <open_babel_can_smiles>
O=[C]1=[N]=C([C@H](C(=N1)O)N)O

>  <mulliken_charges>
15
1   -0.182198
2   0.505723
3   0.542063
4   0.598659
5   -0.778808
6   -0.430986
7   -0.445894
8   -0.558919
9   -0.572371
10   -0.42011
11   0.226641
12   0.341796
13   0.33927
14   0.398571
15   0.436562

>  <lowdin_charges>
15
1   -0.134404
2   0.120255
3   0.128658
4   0.174694
5   -0.5424
6   -0.176046
7   -0.182953
8   -0.327539
9   -0.320389
10   -0.205892
11   0.192723
12   0.27944
13   0.281936
14   0.350102
15   0.361815

$$$$

