PCCDB-ID:  26131
public computational chemistry database (PCCDB) project, http://pccdb.org

 21 21  0  0  1  0  0  0  0  0999 V2000
    0.8574    0.0339    0.0534 C   0  0  0  0  0  0  0  0  0  0  0  0
    4.4563   -1.2293    0.9424 C   0  0  0  0  0  0  0  0  0  0  0  0
    2.9207   -1.2204    0.8764 C   0  0  0  0  0  0  0  0  0  0  0  0
    4.9874    0.0914    1.5166 C   0  0  0  0  0  0  0  0  0  0  0  0
    2.9556    1.2972    0.6740 C   0  0  0  0  0  0  0  0  0  0  0  0
    2.3883   -0.0096    0.0862 C   0  0  2  0  0  0  0  0  0  0  0  0
    5.2605    2.0669    0.2064 N   0  0  0  0  0  0  0  0  0  0  0  0
    4.4072    1.2217    0.8076 N   0  0  0  0  0  0  0  0  0  0  0  0
    4.7469    2.9824   -0.4302 O   0  0  0  0  0  0  0  0  0  0  0  0
    0.4485   -0.8804   -0.3915 H   0  0  0  0  0  0  0  0  0  0  0  0
    0.4948    0.8846   -0.5353 H   0  0  0  0  0  0  0  0  0  0  0  0
    0.4431    0.1261    1.0655 H   0  0  0  0  0  0  0  0  0  0  0  0
    4.8704   -1.3706   -0.0645 H   0  0  0  0  0  0  0  0  0  0  0  0
    4.8127   -2.0626    1.5600 H   0  0  0  0  0  0  0  0  0  0  0  0
    2.5109   -1.1898    1.8981 H   0  0  0  0  0  0  0  0  0  0  0  0
    2.5568   -2.1507    0.4224 H   0  0  0  0  0  0  0  0  0  0  0  0
    6.0726    0.1805    1.4210 H   0  0  0  0  0  0  0  0  0  0  0  0
    4.7283    0.1675    2.5834 H   0  0  0  0  0  0  0  0  0  0  0  0
    2.5204    1.4810    1.6679 H   0  0  0  0  0  0  0  0  0  0  0  0
    2.7451    2.1610    0.0404 H   0  0  0  0  0  0  0  0  0  0  0  0
    2.7599   -0.0887   -0.9460 H   0  0  0  0  0  0  0  0  0  0  0  0
  1  6  1  0  0  0  0
  1 12  1  0  0  0  0
  2  4  1  0  0  0  0
  2 14  1  0  0  0  0
  3  2  1  0  0  0  0
  3 15  1  0  0  0  0
  4 18  1  0  0  0  0
  5  8  1  0  0  0  0
  5 19  1  0  0  0  0
  6 21  1  6  0  0  0
  6  5  1  0  0  0  0
  6  3  1  0  0  0  0
  7  8  1  0  0  0  0
  8  4  1  0  0  0  0
  9  7  2  0  0  0  0
 10  1  1  0  0  0  0
 11  1  1  0  0  0  0
 13  2  1  0  0  0  0
 16  3  1  0  0  0  0
 17  4  1  0  0  0  0
 20  5  1  0  0  0  0
M  END
>  <HBA>
3

>  <HBD>
0

>  <TPSA>
32.67

>  <cid>
26131

>  <dipole>
4.3

>  <excitation_energy_1>
3.399

>  <excitation_energy_2>
5.601

>  <excitation_energy_3>
5.75

>  <excitation_energy_4>
5.976

>  <homo_energy>
-5.943

>  <homo_lumo_gap>
5.246

>  <logP>
1.338

>  <lumo_energy>
-0.697

>  <melting_point>
17.7

>  <molecular_refractivity>
40.39

>  <oscillator_strength_1>
0.0009

>  <oscillator_strength_2>
0.1244

>  <oscillator_strength_3>
0.0894

>  <oscillator_strength_4>
0.0058

>  <open_babel_can_smiles>
O=NN1CCC[C@H](C1)C

>  <mulliken_charges>
21
1   -0.450581
2   -0.270139
3   -0.267848
4   -0.134091
5   -0.149127
6   -0.083005
7   0.14637
8   -0.227209
9   -0.382166
10   0.149263
11   0.152192
12   0.143574
13   0.149313
14   0.143839
15   0.130202
16   0.142007
17   0.175925
18   0.148736
19   0.148524
20   0.194199
21   0.140024

>  <lowdin_charges>
21
1   -0.443759
2   -0.284861
3   -0.280918
4   -0.19685
5   -0.221476
6   -0.12792
7   0.050456
8   -0.044675
9   -0.276422
10   0.154462
11   0.155407
12   0.147569
13   0.148785
14   0.153429
15   0.138245
16   0.149686
17   0.166298
18   0.142944
19   0.147989
20   0.177688
21   0.143923

$$$$

