PCCDB-ID:  18606
public computational chemistry database (PCCDB) project, http://pccdb.org

 15 15  0  0  0  0  0  0  0  0999 V2000
   -1.2030    0.4893   -0.1341 C   0  0  0  0  0  0  0  0  0  0  0  0
   -0.5394   -0.7602   -0.2404 C   0  0  0  0  0  0  0  0  0  0  0  0
   -0.2463    1.3900    0.2508 C   0  0  0  0  0  0  0  0  0  0  0  0
    1.8827   -1.4382    0.1492 C   0  0  0  0  0  0  0  0  0  0  0  0
    3.6987    0.0983    0.8502 C   0  0  0  0  0  0  0  0  0  0  0  0
    4.1305   -2.2647    0.4773 C   0  0  0  0  0  0  0  0  0  0  0  0
    3.1867   -1.1872    0.4840 C   0  0  0  0  0  0  0  0  0  0  0  0
    0.7846   -0.5374    0.0884 C   0  0  0  0  0  0  0  0  0  0  0  0
    4.1558    1.1245    1.1528 N   0  0  0  0  0  0  0  0  0  0  0  0
    4.8906   -3.1460    0.4683 N   0  0  0  0  0  0  0  0  0  0  0  0
    0.9566    0.7895    0.3895 O   0  0  0  0  0  0  0  0  0  0  0  0
   -2.2472    0.6986   -0.3167 H   0  0  0  0  0  0  0  0  0  0  0  0
   -0.9699   -1.7115   -0.5217 H   0  0  0  0  0  0  0  0  0  0  0  0
   -0.2657    2.4496    0.4568 H   0  0  0  0  0  0  0  0  0  0  0  0
    1.6354   -2.4640   -0.1083 H   0  0  0  0  0  0  0  0  0  0  0  0
  1  3  2  0  0  0  0
  2  1  1  0  0  0  0
  2  8  2  0  0  0  0
  3 11  1  0  0  0  0
  3 14  1  0  0  0  0
  4  7  2  0  0  0  0
  5  9  3  0  0  0  0
  6  7  1  0  0  0  0
  7  5  1  0  0  0  0
  8  4  1  0  0  0  0
  8 11  1  0  0  0  0
 10  6  3  0  0  0  0
 12  1  1  0  0  0  0
 13  2  1  0  0  0  0
 15  4  1  0  0  0  0
M  END
>  <HBA>
3

>  <HBD>
0

>  <TPSA>
60.72

>  <cid>
18606

>  <dipole>
7.48

>  <excitation_energy_1>
3.888

>  <excitation_energy_2>
5.084

>  <excitation_energy_3>
5.233

>  <excitation_energy_4>
5.428

>  <homo_energy>
-6.727

>  <homo_lumo_gap>
3.859

>  <logP>
1.71

>  <lumo_energy>
-2.868

>  <melting_point>
95.96

>  <molecular_refractivity>
37.91

>  <oscillator_strength_1>
0.655

>  <oscillator_strength_2>
0.0512

>  <oscillator_strength_3>
0.0

>  <oscillator_strength_4>
0.0003

>  <open_babel_can_smiles>
N#CC(=Cc1ccco1)C#N

>  <mulliken_charges>
15
1   -0.187207
2   -0.173232
3   0.121587
4   -0.162824
5   0.305032
6   0.289322
7   0.114989
8   0.350663
9   -0.476418
10   -0.464457
11   -0.429145
12   0.166886
13   0.169976
14   0.186106
15   0.188722

>  <lowdin_charges>
15
1   -0.193979
2   -0.162418
3   -0.031428
4   -0.09116
5   -0.004935
6   -0.00672
7   -0.0459
8   0.060526
9   -0.094002
10   -0.100444
11   -0.070579
12   0.180648
13   0.182028
14   0.184976
15   0.193385

$$$$

