PCCDB-ID:  20481
public computational chemistry database (PCCDB) project, http://pccdb.org

 16 16  0  0  1  0  0  0  0  0999 V2000
    0.9175   -0.0501   -0.0672 C   0  0  0  0  0  0  0  0  0  0  0  0
    3.0223    1.2384   -0.7385 C   0  0  0  0  0  0  0  0  0  0  0  0
    4.5471    1.1719   -0.8421 C   0  0  0  0  0  0  0  0  0  0  0  0
    2.4360   -0.0050   -0.0586 C   0  0  2  0  0  0  0  0  0  0  0  0
    5.0103   -1.3750    0.5970 O   0  0  0  0  0  0  0  0  0  0  0  0
    4.9570   -0.0206   -1.5575 O   0  0  0  0  0  0  0  0  0  0  0  0
    2.8784   -1.1975   -0.7810 O   0  0  0  0  0  0  0  0  0  0  0  0
    4.5294   -1.4486   -0.7972 S   0  0  2  0  0  0  0  0  0  0  0  0
    0.5136    0.8048    0.4871 H   0  0  0  0  0  0  0  0  0  0  0  0
    0.5599   -0.9705    0.4038 H   0  0  0  0  0  0  0  0  0  0  0  0
    0.5353   -0.0131   -1.0927 H   0  0  0  0  0  0  0  0  0  0  0  0
    2.5942    1.3280   -1.7445 H   0  0  0  0  0  0  0  0  0  0  0  0
    2.7363    2.1336   -0.1716 H   0  0  0  0  0  0  0  0  0  0  0  0
    5.0197    1.1769    0.1464 H   0  0  0  0  0  0  0  0  0  0  0  0
    4.9506    2.0004   -1.4285 H   0  0  0  0  0  0  0  0  0  0  0  0
    2.8102   -0.0828    0.9691 H   0  0  0  0  0  0  0  0  0  0  0  0
  1  4  1  0  0  0  0
  1 10  1  0  0  0  0
  1  9  1  0  0  0  0
  2 13  1  0  0  0  0
  2  4  1  0  0  0  0
  3  2  1  0  0  0  0
  3 14  1  0  0  0  0
  4 16  1  1  0  0  0
  6  3  1  0  0  0  0
  6  8  1  0  0  0  0
  7  4  1  0  0  0  0
  8  7  1  0  0  0  0
  8  5  2  1  0  0  0
 11  1  1  0  0  0  0
 12  2  1  0  0  0  0
 15  3  1  0  0  0  0
M  END
>  <HBA>
3

>  <HBD>
0

>  <TPSA>
54.74

>  <cid>
20481

>  <dipole>
3.26

>  <excitation_energy_1>
6.089

>  <excitation_energy_2>
6.352

>  <excitation_energy_3>
6.927

>  <excitation_energy_4>
7.096

>  <homo_energy>
-7.57

>  <homo_lumo_gap>
7.513

>  <logP>
1.256

>  <lumo_energy>
-0.057

>  <melting_point>
3.44

>  <molecular_refractivity>
29.68

>  <oscillator_strength_1>
0.0324

>  <oscillator_strength_2>
0.0031

>  <oscillator_strength_3>
0.0011

>  <oscillator_strength_4>
0.0011

>  <open_babel_can_smiles>
C[C@@H]1CCO[S@@](=O)O1

>  <mulliken_charges>
16
1   -0.451039
2   -0.274781
3   -0.087316
4   0.095903
5   -0.574557
6   -0.546918
7   -0.561924
8   1.101283
9   0.151029
10   0.169948
11   0.161579
12   0.1598
13   0.147982
14   0.174343
15   0.170277
16   0.164391

>  <lowdin_charges>
16
1   -0.443491
2   -0.300995
3   -0.142676
4   -0.000311
5   -0.596585
6   -0.429139
7   -0.434316
8   1.073885
9   0.159303
10   0.166519
11   0.158746
12   0.156773
13   0.159701
14   0.156112
15   0.165192
16   0.151284

$$$$

