PCCDB-ID:  19048
public computational chemistry database (PCCDB) project, http://pccdb.org

 19 20  0  0  0  0  0  0  0  0999 V2000
    2.4865    0.7512    0.0999 C   0  0  0  0  0  0  0  0  0  0  0  0
    2.5399   -0.6428   -0.0193 C   0  0  0  0  0  0  0  0  0  0  0  0
    1.2519    1.3797    0.1683 C   0  0  0  0  0  0  0  0  0  0  0  0
    1.3687   -1.3916   -0.0532 C   0  0  0  0  0  0  0  0  0  0  0  0
   -2.5401    0.6795   -0.0454 C   0  0  0  0  0  0  0  0  0  0  0  0
   -2.5684   -0.6785    0.6484 C   0  0  0  0  0  0  0  0  0  0  0  0
    0.0519    0.6467    0.1151 C   0  0  0  0  0  0  0  0  0  0  0  0
   -1.2226    1.4258    0.1289 C   0  0  0  0  0  0  0  0  0  0  0  0
    0.1159   -0.7618    0.0164 C   0  0  0  0  0  0  0  0  0  0  0  0
   -1.2202    2.6434    0.2366 O   0  0  0  0  0  0  0  0  0  0  0  0
   -1.3143   -1.8171   -0.0494 S   0  0  0  0  0  0  0  0  0  0  0  0
    3.4016    1.3349    0.1353 H   0  0  0  0  0  0  0  0  0  0  0  0
    3.4995   -1.1501   -0.0727 H   0  0  0  0  0  0  0  0  0  0  0  0
    1.1712    2.4585    0.2518 H   0  0  0  0  0  0  0  0  0  0  0  0
    1.4174   -2.4751   -0.1181 H   0  0  0  0  0  0  0  0  0  0  0  0
   -3.3344    1.3316    0.3327 H   0  0  0  0  0  0  0  0  0  0  0  0
   -2.7102    0.5437   -1.1233 H   0  0  0  0  0  0  0  0  0  0  0  0
   -3.5315   -1.1768    0.5061 H   0  0  0  0  0  0  0  0  0  0  0  0
   -2.3960   -0.5774    1.7257 H   0  0  0  0  0  0  0  0  0  0  0  0
  1 12  1  0  0  0  0
  1  3  2  0  0  0  0
  2  1  1  0  0  0  0
  3 14  1  0  0  0  0
  4  2  2  0  0  0  0
  4  9  1  0  0  0  0
  5  8  1  0  0  0  0
  5 16  1  0  0  0  0
  5  6  1  0  0  0  0
  6 19  1  0  0  0  0
  7  8  1  0  0  0  0
  7  3  1  0  0  0  0
  8 10  2  0  0  0  0
  9  7  2  0  0  0  0
 11  9  1  0  0  0  0
 11  6  1  0  0  0  0
 13  2  1  0  0  0  0
 15  4  1  0  0  0  0
 17  5  1  0  0  0  0
 18  6  1  0  0  0  0
M  END
>  <HBA>
2

>  <HBD>
0

>  <TPSA>
42.37

>  <cid>
19048

>  <dipole>
1.79

>  <excitation_energy_1>
3.603

>  <excitation_energy_2>
3.71

>  <excitation_energy_3>
4.764

>  <excitation_energy_4>
5.048

>  <homo_energy>
-6.041

>  <homo_lumo_gap>
4.406

>  <logP>
2.365

>  <lumo_energy>
-1.635

>  <melting_point>
74.61

>  <molecular_refractivity>
46.24

>  <oscillator_strength_1>
0.0421

>  <oscillator_strength_2>
0.0075

>  <oscillator_strength_3>
0.0391

>  <oscillator_strength_4>
0.0566

>  <open_babel_can_smiles>
O=C1CCSc2c1cccc2

>  <mulliken_charges>
19
1   -0.139092
2   -0.107327
3   -0.143909
4   -0.168671
5   -0.357067
6   -0.439108
7   0.053525
8   0.40611
9   -0.122499
10   -0.464282
11   0.143732
12   0.139512
13   0.141334
14   0.168319
15   0.147583
16   0.178136
17   0.185878
18   0.187109
19   0.190716

>  <lowdin_charges>
19
1   -0.165247
2   -0.13136
3   -0.116971
4   -0.166029
5   -0.30513
6   -0.370837
7   -0.069914
8   0.150904
9   -0.110265
10   -0.244076
11   0.170747
12   0.163355
13   0.163914
14   0.177474
15   0.166042
16   0.173844
17   0.173993
18   0.175954
19   0.163603

$$$$

