PCCDB-ID:  7820
public computational chemistry database (PCCDB) project, http://pccdb.org

 20 19  0  0  0  0  0  0  0  0999 V2000
    5.4283    0.4197    0.3086 C   0  0  0  0  0  0  0  0  0  0  0  0
   -1.1054   -1.7291    1.8724 C   0  0  0  0  0  0  0  0  0  0  0  0
    2.3141    1.7324    1.8075 C   0  0  0  0  0  0  0  0  0  0  0  0
    0.8400    1.4021    1.5959 C   0  0  0  0  0  0  0  0  0  0  0  0
    3.2028    0.9901    0.8263 C   0  0  0  0  0  0  0  0  0  0  0  0
    0.5253   -0.0332    1.9757 C   0  0  0  0  0  0  0  0  0  0  0  0
    2.8168    0.4091   -0.1655 O   0  0  0  0  0  0  0  0  0  0  0  0
    1.2600   -0.7692    2.5991 O   0  0  0  0  0  0  0  0  0  0  0  0
    4.5002    1.0813    1.1842 O   0  0  0  0  0  0  0  0  0  0  0  0
   -0.7047   -0.3871    1.5499 O   0  0  0  0  0  0  0  0  0  0  0  0
    6.4132    0.5898    0.7444 H   0  0  0  0  0  0  0  0  0  0  0  0
    5.3754    0.8414   -0.6988 H   0  0  0  0  0  0  0  0  0  0  0  0
    5.2095   -0.6500    0.2581 H   0  0  0  0  0  0  0  0  0  0  0  0
   -2.1090   -1.8414    1.4611 H   0  0  0  0  0  0  0  0  0  0  0  0
   -1.1142   -1.8791    2.9554 H   0  0  0  0  0  0  0  0  0  0  0  0
   -0.4214   -2.4513    1.4191 H   0  0  0  0  0  0  0  0  0  0  0  0
    2.6333    1.4832    2.8233 H   0  0  0  0  0  0  0  0  0  0  0  0
    2.4885    2.8074    1.6725 H   0  0  0  0  0  0  0  0  0  0  0  0
    0.5459    1.5585    0.5543 H   0  0  0  0  0  0  0  0  0  0  0  0
    0.2093    2.0589    2.2082 H   0  0  0  0  0  0  0  0  0  0  0  0
  1 11  1  0  0  0  0
  1  9  1  0  0  0  0
  2 15  1  0  0  0  0
  3 17  1  0  0  0  0
  4  3  1  0  0  0  0
  4  6  1  0  0  0  0
  4 20  1  0  0  0  0
  5  9  1  0  0  0  0
  5  3  1  0  0  0  0
  6  8  2  0  0  0  0
  7  5  2  0  0  0  0
 10  2  1  0  0  0  0
 10  6  1  0  0  0  0
 12  1  1  0  0  0  0
 13  1  1  0  0  0  0
 14  2  1  0  0  0  0
 16  2  1  0  0  0  0
 18  3  1  0  0  0  0
 19  4  1  0  0  0  0
M  END
>  <HBA>
4

>  <HBD>
0

>  <TPSA>
52.6

>  <cid>
7820

>  <dipole>
1.05

>  <excitation_energy_1>
5.902

>  <excitation_energy_2>
5.907

>  <excitation_energy_3>
6.871

>  <excitation_energy_4>
6.88

>  <homo_energy>
-7.344

>  <homo_lumo_gap>
7.766

>  <logP>
0.113

>  <lumo_energy>
0.422

>  <melting_point>
-1.68

>  <molecular_refractivity>
33.53

>  <oscillator_strength_1>
0.0008

>  <oscillator_strength_2>
0.0009

>  <oscillator_strength_3>
0.0012

>  <oscillator_strength_4>
0.0269

>  <open_babel_can_smiles>
COC(=O)CCC(=O)OC

>  <mulliken_charges>
20
1   -0.218501
2   -0.218434
3   -0.359632
4   -0.359766
5   0.638691
6   0.638702
7   -0.483306
8   -0.483163
9   -0.45172
10   -0.451763
11   0.164221
12   0.168027
13   0.174974
14   0.164199
15   0.168121
16   0.174791
17   0.192966
18   0.174194
19   0.193246
20   0.174152

>  <lowdin_charges>
20
1   -0.275375
2   -0.275902
3   -0.296876
4   -0.300067
5   0.20239
6   0.203774
7   -0.268464
8   -0.269296
9   -0.189869
10   -0.191116
11   0.159922
12   0.157196
13   0.159954
14   0.159665
15   0.156189
16   0.163046
17   0.179839
18   0.171172
19   0.17967
20   0.174147

$$$$

