PCCDB-ID:  61033
public computational chemistry database (PCCDB) project, http://pccdb.org

 13 12  0  0  0  0  0  0  0  0999 V2000
    0.8909   -0.0134    0.0014 C   0  0  0  0  0  0  0  0  0  0  0  0
    2.4205   -0.0457    0.0421 C   0  0  0  0  0  0  0  0  0  0  0  0
    3.0531    1.3232    0.3023 C   0  0  0  0  0  0  0  0  0  0  0  0
    2.7784    2.8427    2.2597 C   0  0  0  0  0  0  0  0  0  0  0  0
    2.6686    1.8363    1.6045 N   0  0  0  0  0  0  0  0  0  0  0  0
    2.8133    3.7608    3.0028 O   0  0  0  0  0  0  0  0  0  0  0  0
    0.4825   -1.0130   -0.1824 H   0  0  0  0  0  0  0  0  0  0  0  0
    0.5290    0.6479   -0.7957 H   0  0  0  0  0  0  0  0  0  0  0  0
    0.4833    0.3499    0.9506 H   0  0  0  0  0  0  0  0  0  0  0  0
    2.8166   -0.4152   -0.9129 H   0  0  0  0  0  0  0  0  0  0  0  0
    2.7618   -0.7427    0.8176 H   0  0  0  0  0  0  0  0  0  0  0  0
    2.7410    2.0335   -0.4752 H   0  0  0  0  0  0  0  0  0  0  0  0
    4.1467    1.2442    0.2579 H   0  0  0  0  0  0  0  0  0  0  0  0
  1  2  1  0  0  0  0
  1  9  1  0  0  0  0
  2  3  1  0  0  0  0
  2 11  1  0  0  0  0
  3  5  1  0  0  0  0
  4  6  2  0  0  0  0
  5  4  2  0  0  0  0
  7  1  1  0  0  0  0
  8  1  1  0  0  0  0
 10  2  1  0  0  0  0
 12  3  1  0  0  0  0
 13  3  1  0  0  0  0
M  END
>  <HBA>
2

>  <HBD>
0

>  <TPSA>
29.43

>  <cid>
61033

>  <dipole>
2.92

>  <excitation_energy_1>
5.988

>  <excitation_energy_2>
6.738

>  <excitation_energy_3>
7.098

>  <excitation_energy_4>
7.424

>  <homo_energy>
-7.467

>  <homo_lumo_gap>
8.068

>  <logP>
0.732

>  <lumo_energy>
0.601

>  <melting_point>
25.54

>  <molecular_refractivity>
23.6

>  <oscillator_strength_1>
0.0001

>  <oscillator_strength_2>
0.0201

>  <oscillator_strength_3>
0.001

>  <oscillator_strength_4>
0.0153

>  <open_babel_can_smiles>
CCCN=C=O

>  <mulliken_charges>
13
1   -0.445096
2   -0.256924
3   -0.133276
4   0.604165
5   -0.425458
6   -0.414215
7   0.148836
8   0.141675
9   0.166166
10   0.13951
11   0.151829
12   0.159847
13   0.162941

>  <lowdin_charges>
13
1   -0.447459
2   -0.276457
3   -0.166356
4   0.174279
5   -0.183434
6   -0.165993
7   0.153329
8   0.148057
9   0.158461
10   0.147826
11   0.152155
12   0.152419
13   0.153175

$$$$

