PCCDB-ID:  66071
public computational chemistry database (PCCDB) project, http://pccdb.org

 18 17  0  0  0  0  0  0  0  0999 V2000
    1.1535    0.6078    1.7186 C   0  0  0  0  0  0  0  0  0  0  0  0
    2.5907    0.3636    1.2644 C   0  0  0  0  0  0  0  0  0  0  0  0
    5.8065    0.1461    3.2518 C   0  0  0  0  0  0  0  0  0  0  0  0
    4.8820    0.0035    2.0417 C   0  0  0  0  0  0  0  0  0  0  0  0
    5.3213   -0.6795    4.3692 N   0  0  0  0  0  0  0  0  0  0  0  0
    3.5009    0.3147    2.4081 N   0  0  0  0  0  0  0  0  0  0  0  0
    0.4788    0.6822    0.8586 H   0  0  0  0  0  0  0  0  0  0  0  0
    1.0854    1.5341    2.2985 H   0  0  0  0  0  0  0  0  0  0  0  0
    0.7938   -0.2142    2.3509 H   0  0  0  0  0  0  0  0  0  0  0  0
    2.9158    1.1868    0.6140 H   0  0  0  0  0  0  0  0  0  0  0  0
    2.6332   -0.5550    0.6460 H   0  0  0  0  0  0  0  0  0  0  0  0
    5.8965    1.2149    3.5083 H   0  0  0  0  0  0  0  0  0  0  0  0
    6.8056   -0.2090    2.9723 H   0  0  0  0  0  0  0  0  0  0  0  0
    4.9887   -1.0131    1.6189 H   0  0  0  0  0  0  0  0  0  0  0  0
    5.2004    0.7120    1.2656 H   0  0  0  0  0  0  0  0  0  0  0  0
    4.5729   -0.1769    4.8443 H   0  0  0  0  0  0  0  0  0  0  0  0
    6.0590   -0.7914    5.0619 H   0  0  0  0  0  0  0  0  0  0  0  0
    3.1832   -0.4243    3.0360 H   0  0  0  0  0  0  0  0  0  0  0  0
  1  8  1  0  0  0  0
  1  9  1  0  0  0  0
  2  1  1  0  0  0  0
  2  6  1  0  0  0  0
  3 12  1  0  0  0  0
  3  5  1  0  0  0  0
  4  6  1  0  0  0  0
  4  3  1  0  0  0  0
  5 16  1  0  0  0  0
  5 17  1  0  0  0  0
  6 18  1  0  0  0  0
  7  1  1  0  0  0  0
 10  2  1  0  0  0  0
 11  2  1  0  0  0  0
 13  3  1  0  0  0  0
 14  4  1  0  0  0  0
 15  4  1  0  0  0  0
M  END
>  <HBA>
2

>  <HBD>
2

>  <TPSA>
38.05

>  <cid>
66071

>  <dipole>
0.62

>  <excitation_energy_1>
5.407

>  <excitation_energy_2>
5.825

>  <excitation_energy_3>
5.883

>  <excitation_energy_4>
5.981

>  <homo_energy>
-5.785

>  <homo_lumo_gap>
7.951

>  <logP>
0.646

>  <lumo_energy>
2.166

>  <melting_point>
56.19

>  <molecular_refractivity>
26.85

>  <oscillator_strength_1>
0.0006

>  <oscillator_strength_2>
0.0019

>  <oscillator_strength_3>
0.017

>  <oscillator_strength_4>
0.066

>  <open_babel_can_smiles>
NCCNCC

>  <mulliken_charges>
18
1   -0.45092
2   -0.103251
3   -0.142514
4   -0.09835
5   -0.728955
6   -0.563805
7   0.142605
8   0.156266
9   0.138534
10   0.13682
11   0.110097
12   0.125202
13   0.13293
14   0.117361
15   0.129164
16   0.301557
17   0.299062
18   0.298196

>  <lowdin_charges>
18
1   -0.450107
2   -0.198114
3   -0.206523
4   -0.206
5   -0.567971
6   -0.372589
7   0.152261
8   0.154712
9   0.145759
10   0.139919
11   0.115477
12   0.123467
13   0.141691
14   0.120031
15   0.141101
16   0.256464
17   0.257391
18   0.253031

$$$$

