PCCDB-ID:  40187
public computational chemistry database (PCCDB) project, http://pccdb.org

 21 20  0  0  1  0  0  0  0  0999 V2000
    1.3719    1.9587   -3.4286 C   0  0  0  0  0  0  0  0  0  0  0  0
    3.1207   -3.0710   -1.4390 C   0  0  0  0  0  0  0  0  0  0  0  0
    2.6803    1.6535   -2.7579 C   0  0  0  0  0  0  0  0  0  0  0  0
    3.6191   -2.0279   -0.7761 C   0  0  0  0  0  0  0  0  0  0  0  0
    2.8572    0.7488   -1.7908 C   0  0  0  0  0  0  0  0  0  0  0  0
    4.5986   -1.0341   -1.3453 C   0  0  2  0  0  0  0  0  0  0  0  0
    4.1863    0.4492   -1.1278 C   0  0  1  0  0  0  0  0  0  0  0  0
    4.8678   -1.2258   -2.7344 O   0  0  0  0  0  0  0  0  0  0  0  0
    5.2387    1.2763   -1.5959 O   0  0  0  0  0  0  0  0  0  0  0  0
    1.0875    3.0083   -3.2746 H   0  0  0  0  0  0  0  0  0  0  0  0
    0.5615    1.3281   -3.0477 H   0  0  0  0  0  0  0  0  0  0  0  0
    1.4373    1.8114   -4.5151 H   0  0  0  0  0  0  0  0  0  0  0  0
    2.4196   -3.7584   -0.9747 H   0  0  0  0  0  0  0  0  0  0  0  0
    3.4156   -3.2808   -2.4633 H   0  0  0  0  0  0  0  0  0  0  0  0
    3.5427    2.2405   -3.0714 H   0  0  0  0  0  0  0  0  0  0  0  0
    3.3277   -1.8508    0.2603 H   0  0  0  0  0  0  0  0  0  0  0  0
    2.0098    0.1594   -1.4372 H   0  0  0  0  0  0  0  0  0  0  0  0
    5.5719   -1.1614   -0.8533 H   0  0  0  0  0  0  0  0  0  0  0  0
    4.1029    0.6333   -0.0473 H   0  0  0  0  0  0  0  0  0  0  0  0
    4.0374   -1.0216   -3.2021 H   0  0  0  0  0  0  0  0  0  0  0  0
    5.5475    0.8486   -2.4155 H   0  0  0  0  0  0  0  0  0  0  0  0
  1 10  1  0  0  0  0
  1 11  1  0  0  0  0
  1  3  1  0  0  0  0
  2 13  1  0  0  0  0
  2  4  2  0  0  0  0
  3  5  2  0  0  0  0
  4 16  1  0  0  0  0
  5 17  1  0  0  0  0
  5  7  1  0  0  0  0
  6  7  1  0  0  0  0
  6 18  1  1  0  0  0
  6  4  1  0  0  0  0
  7 19  1  1  0  0  0
  8  6  1  0  0  0  0
  9  7  1  0  0  0  0
 12  1  1  0  0  0  0
 14  2  1  0  0  0  0
 15  3  1  0  0  0  0
 20  8  1  0  0  0  0
 21  9  1  0  0  0  0
M  END
>  <HBA>
2

>  <HBD>
2

>  <TPSA>
40.46

>  <cid>
40187

>  <dipole>
2.11

>  <excitation_energy_1>
5.999

>  <excitation_energy_2>
6.145

>  <excitation_energy_3>
6.269

>  <excitation_energy_4>
6.455

>  <homo_energy>
-6.762

>  <homo_lumo_gap>
7.064

>  <logP>
0.47

>  <lumo_energy>
0.302

>  <melting_point>
-0.8

>  <molecular_refractivity>
37.14

>  <oscillator_strength_1>
0.0302

>  <oscillator_strength_2>
0.0154

>  <oscillator_strength_3>
0.0034

>  <oscillator_strength_4>
0.0565

>  <open_babel_can_smiles>
C/C=C/[C@@H]([C@@H](C=C)O)O

>  <mulliken_charges>
21
1   -0.488338
2   -0.343496
3   -0.089131
4   -0.078588
5   -0.157882
6   0.062916
7   0.096954
8   -0.63187
9   -0.630905
10   0.161453
11   0.152532
12   0.155053
13   0.144325
14   0.149229
15   0.141461
16   0.131293
17   0.128544
18   0.16568
19   0.140774
20   0.392207
21   0.397788

>  <lowdin_charges>
21
1   -0.437026
2   -0.334916
3   -0.158418
4   -0.170065
5   -0.211979
6   -0.01981
7   -0.014658
8   -0.454819
9   -0.45406
10   0.15924
11   0.155142
12   0.155264
13   0.163098
14   0.161257
15   0.159116
16   0.154663
17   0.154404
18   0.160263
19   0.147298
20   0.342832
21   0.343175

$$$$

