PCCDB-ID:  67456
public computational chemistry database (PCCDB) project, http://pccdb.org

 27 30  0  0  0  0  0  0  0  0999 V2000
   -3.8637   -0.6824   -0.0007 C   0  0  0  0  0  0  0  0  0  0  0  0
   -3.9998    0.7099   -0.0013 C   0  0  0  0  0  0  0  0  0  0  0  0
    1.5834   -2.8026    0.0013 C   0  0  0  0  0  0  0  0  0  0  0  0
    3.1018    1.8122    0.0012 C   0  0  0  0  0  0  0  0  0  0  0  0
    2.6249   -1.9015    0.0015 C   0  0  0  0  0  0  0  0  0  0  0  0
    3.4054    0.4672    0.0016 C   0  0  0  0  0  0  0  0  0  0  0  0
   -2.5968   -1.2553   -0.0005 C   0  0  0  0  0  0  0  0  0  0  0  0
    0.2410   -2.3667    0.0002 C   0  0  0  0  0  0  0  0  0  0  0  0
   -2.8676    1.5170   -0.0015 C   0  0  0  0  0  0  0  0  0  0  0  0
    1.7632    2.2556    0.0003 C   0  0  0  0  0  0  0  0  0  0  0  0
    2.3704   -0.5040    0.0020 C   0  0  0  0  0  0  0  0  0  0  0  0
   -1.4315   -0.4684   -0.0013 C   0  0  0  0  0  0  0  0  0  0  0  0
   -0.0653   -1.0146    0.0001 C   0  0  0  0  0  0  0  0  0  0  0  0
   -1.6019    0.9284   -0.0019 C   0  0  0  0  0  0  0  0  0  0  0  0
    0.7447    1.3244    0.0001 C   0  0  0  0  0  0  0  0  0  0  0  0
    1.0065   -0.0695    0.0011 C   0  0  0  0  0  0  0  0  0  0  0  0
   -0.5433    1.8012   -0.0023 O   0  0  0  0  0  0  0  0  0  0  0  0
   -4.7440   -1.3184    0.0008 H   0  0  0  0  0  0  0  0  0  0  0  0
   -4.9859    1.1655   -0.0016 H   0  0  0  0  0  0  0  0  0  0  0  0
    1.7907   -3.8694    0.0009 H   0  0  0  0  0  0  0  0  0  0  0  0
    3.8998    2.5495    0.0009 H   0  0  0  0  0  0  0  0  0  0  0  0
    3.6553   -2.2474    0.0009 H   0  0  0  0  0  0  0  0  0  0  0  0
    4.4395    0.1333    0.0009 H   0  0  0  0  0  0  0  0  0  0  0  0
   -2.5072   -2.3369    0.0006 H   0  0  0  0  0  0  0  0  0  0  0  0
   -0.5495   -3.1099   -0.0000 H   0  0  0  0  0  0  0  0  0  0  0  0
   -2.9361    2.6000    0.0000 H   0  0  0  0  0  0  0  0  0  0  0  0
    1.5161    3.3119   -0.0011 H   0  0  0  0  0  0  0  0  0  0  0  0
  1  7  1  0  0  0  0
  1 18  1  0  0  0  0
  2  1  2  0  0  0  0
  3  5  2  0  0  0  0
  4  6  2  0  0  0  0
  5 11  1  0  0  0  0
  6 11  1  0  0  0  0
  7 24  1  0  0  0  0
  8  3  1  0  0  0  0
  9  2  1  0  0  0  0
  9 26  1  0  0  0  0
 10  4  1  0  0  0  0
 12  7  2  0  0  0  0
 12 13  1  0  0  0  0
 13  8  2  0  0  0  0
 13 16  1  0  0  0  0
 14  9  2  0  0  0  0
 14 12  1  0  0  0  0
 15 10  2  0  0  0  0
 15 16  1  0  0  0  0
 16 11  2  0  0  0  0
 17 14  1  0  0  0  0
 17 15  1  0  0  0  0
 19  2  1  0  0  0  0
 20  3  1  0  0  0  0
 21  4  1  0  0  0  0
 22  5  1  0  0  0  0
 23  6  1  0  0  0  0
 25  8  1  0  0  0  0
 27 10  1  0  0  0  0
M  END
>  <HBA>
1

>  <HBD>
0

>  <TPSA>
9.23

>  <cid>
67456

>  <dipole>
0.78

>  <excitation_energy_1>
3.337

>  <excitation_energy_2>
3.833

>  <excitation_energy_3>
4.174

>  <excitation_energy_4>
4.492

>  <homo_energy>
-5.086

>  <homo_lumo_gap>
3.848

>  <logP>
4.612

>  <lumo_energy>
-1.238

>  <melting_point>
122.05

>  <molecular_refractivity>
69.46

>  <oscillator_strength_1>
0.1847

>  <oscillator_strength_2>
0.0228

>  <oscillator_strength_3>
0.0597

>  <oscillator_strength_4>
0.0065

>  <open_babel_can_smiles>
c1ccc2c(c1)Oc1c3c2cccc3ccc1

>  <mulliken_charges>
27
1   -0.13473
2   -0.131421
3   -0.127489
4   -0.134368
5   -0.20101
6   -0.203748
7   -0.198197
8   -0.224534
9   -0.185934
10   -0.201538
11   0.140213
12   0.074985
13   0.147945
14   0.300419
15   0.308925
16   0.000129
17   -0.570701
18   0.132204
19   0.135982
20   0.130776
21   0.132357
22   0.129538
23   0.126821
24   0.138087
25   0.130477
26   0.145951
27   0.138863

>  <lowdin_charges>
27
1   -0.167734
2   -0.144837
3   -0.147867
4   -0.145542
5   -0.163137
6   -0.179839
7   -0.146717
8   -0.177925
9   -0.173973
10   -0.195721
11   0.009301
12   -0.032914
13   0.00375
14   0.105065
15   0.105968
16   -0.023733
17   -0.134019
18   0.160833
19   0.161801
20   0.157734
21   0.161694
22   0.157877
23   0.156843
24   0.158838
25   0.158732
26   0.168479
27   0.167042

$$$$

