PCCDB-ID:  17125
public computational chemistry database (PCCDB) project, http://pccdb.org

 28 30  0  0  0  0  0  0  0  0999 V2000
    2.0328   -0.5004   -1.2038 C   0  0  0  0  0  0  0  0  0  0  0  0
    2.1725    0.1561   -0.0503 C   0  0  0  0  0  0  0  0  0  0  0  0
    7.0441    1.2532    1.3145 C   0  0  0  0  0  0  0  0  0  0  0  0
    1.1282    5.2213   -0.3543 C   0  0  0  0  0  0  0  0  0  0  0  0
    6.3107    0.0509    1.1009 C   0  0  0  0  0  0  0  0  0  0  0  0
    0.3779    4.0302   -0.5726 C   0  0  0  0  0  0  0  0  0  0  0  0
    6.4361    2.4670    1.1380 C   0  0  0  0  0  0  0  0  0  0  0  0
    2.4449    5.1437    0.0120 C   0  0  0  0  0  0  0  0  0  0  0  0
    4.9961    0.0929    0.7159 C   0  0  0  0  0  0  0  0  0  0  0  0
    0.9610    2.7990   -0.4225 C   0  0  0  0  0  0  0  0  0  0  0  0
    4.4327    3.7911    0.5677 C   0  0  0  0  0  0  0  0  0  0  0  0
    5.0646    2.5563    0.7426 C   0  0  0  0  0  0  0  0  0  0  0  0
    3.0909    3.8796    0.1854 C   0  0  0  0  0  0  0  0  0  0  0  0
    2.9605    1.4111    0.1293 C   0  0  0  0  0  0  0  0  0  0  0  0
    4.3176    1.3390    0.5210 C   0  0  0  0  0  0  0  0  0  0  0  0
    2.3348    2.6682   -0.0391 C   0  0  0  0  0  0  0  0  0  0  0  0
    1.4441   -1.4121   -1.2692 H   0  0  0  0  0  0  0  0  0  0  0  0
    2.5008   -0.1511   -2.1210 H   0  0  0  0  0  0  0  0  0  0  0  0
    1.6820   -0.2393    0.8424 H   0  0  0  0  0  0  0  0  0  0  0  0
    8.0868    1.2009    1.6159 H   0  0  0  0  0  0  0  0  0  0  0  0
    0.6502    6.1889   -0.4809 H   0  0  0  0  0  0  0  0  0  0  0  0
    6.8032   -0.9077    1.2414 H   0  0  0  0  0  0  0  0  0  0  0  0
   -0.6664    4.1024   -0.8647 H   0  0  0  0  0  0  0  0  0  0  0  0
    6.9869    3.3911    1.2973 H   0  0  0  0  0  0  0  0  0  0  0  0
    3.0272    6.0465    0.1813 H   0  0  0  0  0  0  0  0  0  0  0  0
    4.4492   -0.8278    0.5427 H   0  0  0  0  0  0  0  0  0  0  0  0
    0.3847    1.8978   -0.6025 H   0  0  0  0  0  0  0  0  0  0  0  0
    4.9982    4.7054    0.7365 H   0  0  0  0  0  0  0  0  0  0  0  0
  1  2  2  0  0  0  0
  2 14  1  0  0  0  0
  2 19  1  0  0  0  0
  3 20  1  0  0  0  0
  4  8  2  0  0  0  0
  5 22  1  0  0  0  0
  5  3  2  0  0  0  0
  6 10  2  0  0  0  0
  6  4  1  0  0  0  0
  7 24  1  0  0  0  0
  7  3  1  0  0  0  0
  8 25  1  0  0  0  0
  8 13  1  0  0  0  0
  9  5  1  0  0  0  0
 10 16  1  0  0  0  0
 11 28  1  0  0  0  0
 11 12  1  0  0  0  0
 12  7  2  0  0  0  0
 13 11  2  0  0  0  0
 14 15  1  0  0  0  0
 15  9  2  0  0  0  0
 15 12  1  0  0  0  0
 16 14  2  0  0  0  0
 16 13  1  0  0  0  0
 17  1  1  0  0  0  0
 18  1  1  0  0  0  0
 21  4  1  0  0  0  0
 23  6  1  0  0  0  0
 26  9  1  0  0  0  0
 27 10  1  0  0  0  0
M  END
>  <HBA>
0

>  <HBD>
0

>  <TPSA>
0.0

>  <cid>
17125

>  <dipole>
0.22

>  <excitation_energy_1>
3.161

>  <excitation_energy_2>
3.816

>  <excitation_energy_3>
4.277

>  <excitation_energy_4>
4.527

>  <homo_energy>
-5.159

>  <homo_lumo_gap>
3.538

>  <logP>
4.636

>  <lumo_energy>
-1.622

>  <melting_point>
87.13

>  <molecular_refractivity>
71.55

>  <oscillator_strength_1>
0.0798

>  <oscillator_strength_2>
0.0

>  <oscillator_strength_3>
0.0055

>  <oscillator_strength_4>
0.0027

>  <open_babel_can_smiles>
C=Cc1c2ccccc2cc2c1cccc2

>  <mulliken_charges>
28
1   -0.302616
2   -0.177711
3   -0.139074
4   -0.139154
5   -0.135758
6   -0.135793
7   -0.18596
8   -0.186086
9   -0.18926
10   -0.188899
11   -0.300696
12   0.152733
13   0.152788
14   -0.022808
15   0.089053
16   0.088782
17   0.143851
18   0.151934
19   0.150126
20   0.129375
21   0.129366
22   0.128651
23   0.128593
24   0.129092
25   0.129028
26   0.136211
27   0.136343
28   0.127888

>  <lowdin_charges>
28
1   -0.321603
2   -0.145511
3   -0.157521
4   -0.159928
5   -0.159607
6   -0.157242
7   -0.155776
8   -0.155973
9   -0.159012
10   -0.159192
11   -0.160647
12   -0.000525
13   -0.000482
14   -0.013164
15   -0.005595
16   -0.005562
17   0.16
18   0.162744
19   0.160955
20   0.156962
21   0.158332
22   0.158169
23   0.156633
24   0.157834
25   0.158059
26   0.165166
27   0.165396
28   0.157089

$$$$

