PCCDB-ID:  70800
public computational chemistry database (PCCDB) project, http://pccdb.org

 25 26  0  0  0  0  0  0  0  0999 V2000
    1.0303   -0.2753    0.2252 C   0  0  0  0  0  0  0  0  0  0  0  0
    5.7084    1.8224   -0.1439 C   0  0  0  0  0  0  0  0  0  0  0  0
    7.9578   -3.0175    0.0134 C   0  0  0  0  0  0  0  0  0  0  0  0
    6.7694   -3.3732   -0.6303 C   0  0  0  0  0  0  0  0  0  0  0  0
    8.0273   -1.8104    0.7087 C   0  0  0  0  0  0  0  0  0  0  0  0
    5.6651   -2.5255   -0.5975 C   0  0  0  0  0  0  0  0  0  0  0  0
    6.9218   -0.9608    0.7625 C   0  0  0  0  0  0  0  0  0  0  0  0
    3.1866    1.2170    0.0416 C   0  0  0  0  0  0  0  0  0  0  0  0
    2.5054   -0.0207    0.1528 C   0  0  0  0  0  0  0  0  0  0  0  0
    4.5322    0.9096    0.0197 C   0  0  0  0  0  0  0  0  0  0  0  0
    5.7429   -1.3102    0.0949 C   0  0  0  0  0  0  0  0  0  0  0  0
    3.3650   -1.0336    0.1951 N   0  0  0  0  0  0  0  0  0  0  0  0
    4.6043   -0.4612    0.1260 N   0  0  0  0  0  0  0  0  0  0  0  0
    0.5828    0.2048    1.1041 H   0  0  0  0  0  0  0  0  0  0  0  0
    0.8408   -1.3502    0.2876 H   0  0  0  0  0  0  0  0  0  0  0  0
    0.5123    0.1168   -0.6586 H   0  0  0  0  0  0  0  0  0  0  0  0
    5.3714    2.7666   -0.5811 H   0  0  0  0  0  0  0  0  0  0  0  0
    6.4700    1.3933   -0.8034 H   0  0  0  0  0  0  0  0  0  0  0  0
    6.1953    2.0600    0.8103 H   0  0  0  0  0  0  0  0  0  0  0  0
    8.8187   -3.6790   -0.0206 H   0  0  0  0  0  0  0  0  0  0  0  0
    6.7027   -4.3145   -1.1692 H   0  0  0  0  0  0  0  0  0  0  0  0
    8.9391   -1.5311    1.2296 H   0  0  0  0  0  0  0  0  0  0  0  0
    4.7367   -2.7882   -1.0907 H   0  0  0  0  0  0  0  0  0  0  0  0
    6.9687   -0.0460    1.3421 H   0  0  0  0  0  0  0  0  0  0  0  0
    2.7556    2.2067   -0.0287 H   0  0  0  0  0  0  0  0  0  0  0  0
  1 15  1  0  0  0  0
  1 14  1  0  0  0  0
  2 10  1  0  0  0  0
  2 19  1  0  0  0  0
  3  5  2  0  0  0  0
  4  6  2  0  0  0  0
  4  3  1  0  0  0  0
  5  7  1  0  0  0  0
  5 22  1  0  0  0  0
  6 11  1  0  0  0  0
  7 24  1  0  0  0  0
  8  9  1  0  0  0  0
  9 12  2  0  0  0  0
  9  1  1  0  0  0  0
 10  8  2  0  0  0  0
 10 13  1  0  0  0  0
 11 13  1  0  0  0  0
 11  7  2  0  0  0  0
 13 12  1  0  0  0  0
 16  1  1  0  0  0  0
 17  2  1  0  0  0  0
 18  2  1  0  0  0  0
 20  3  1  0  0  0  0
 21  4  1  0  0  0  0
 23  6  1  0  0  0  0
 25  8  1  0  0  0  0
M  END
>  <HBA>
2

>  <HBD>
0

>  <TPSA>
17.82

>  <cid>
70800

>  <dipole>
2.01

>  <excitation_energy_1>
4.867

>  <excitation_energy_2>
4.92

>  <excitation_energy_3>
5.177

>  <excitation_energy_4>
5.349

>  <homo_energy>
-5.921

>  <homo_lumo_gap>
5.54

>  <logP>
2.489

>  <lumo_energy>
-0.381

>  <melting_point>
62.91

>  <molecular_refractivity>
53.5

>  <oscillator_strength_1>
0.0077

>  <oscillator_strength_2>
0.3852

>  <oscillator_strength_3>
0.0184

>  <oscillator_strength_4>
0.0005

>  <open_babel_can_smiles>
Cc1nn(c(c1)C)c1ccccc1

>  <mulliken_charges>
25
1   -0.524572
2   -0.532582
3   -0.122399
4   -0.143028
5   -0.144369
6   -0.135322
7   -0.15478
8   -0.324124
9   0.339413
10   0.391402
11   0.300523
12   -0.353188
13   -0.425235
14   0.159297
15   0.172023
16   0.157633
17   0.169428
18   0.176502
19   0.168843
20   0.131294
21   0.135537
22   0.133441
23   0.161405
24   0.139338
25   0.123518

>  <lowdin_charges>
25
1   -0.442973
2   -0.445244
3   -0.162015
4   -0.148736
5   -0.152586
6   -0.156073
7   -0.173706
8   -0.253193
9   0.013606
10   0.024402
11   0.047762
12   -0.169209
13   0.044411
14   0.160752
15   0.167403
16   0.160022
17   0.169023
18   0.170504
19   0.161562
20   0.159902
21   0.160595
22   0.160128
23   0.177312
24   0.164773
25   0.161576

$$$$

