PCCDB-ID:  18686
public computational chemistry database (PCCDB) project, http://pccdb.org

 27 27  0  0  0  0  0  0  0  0999 V2000
    1.8474    2.1905   -1.3048 C   0  0  0  0  0  0  0  0  0  0  0  0
    2.8507    2.8549   -0.3741 C   0  0  0  0  0  0  0  0  0  0  0  0
    7.1830    0.6492    2.7992 C   0  0  0  0  0  0  0  0  0  0  0  0
    6.0422   -0.3641    2.6218 C   0  0  0  0  0  0  0  0  0  0  0  0
    6.9722    1.8885    1.9154 C   0  0  0  0  0  0  0  0  0  0  0  0
    5.8400   -0.7488    1.1466 C   0  0  0  0  0  0  0  0  0  0  0  0
    6.8021    1.5000    0.4389 C   0  0  0  0  0  0  0  0  0  0  0  0
    5.6584    0.4769    0.2309 C   0  0  0  0  0  0  0  0  0  0  0  0
    4.2788    1.1079    0.4051 C   0  0  0  0  0  0  0  0  0  0  0  0
    3.4042    0.7083    1.1461 O   0  0  0  0  0  0  0  0  0  0  0  0
    4.1308    2.1802   -0.4104 O   0  0  0  0  0  0  0  0  0  0  0  0
    0.9117    2.7614   -1.3127 H   0  0  0  0  0  0  0  0  0  0  0  0
    1.6259    1.1741   -0.9675 H   0  0  0  0  0  0  0  0  0  0  0  0
    2.2333    2.1490   -2.3288 H   0  0  0  0  0  0  0  0  0  0  0  0
    2.4865    2.8652    0.6561 H   0  0  0  0  0  0  0  0  0  0  0  0
    3.0747    3.8770   -0.6903 H   0  0  0  0  0  0  0  0  0  0  0  0
    8.1399    0.1759    2.5310 H   0  0  0  0  0  0  0  0  0  0  0  0
    7.2664    0.9443    3.8530 H   0  0  0  0  0  0  0  0  0  0  0  0
    5.1086    0.0633    3.0065 H   0  0  0  0  0  0  0  0  0  0  0  0
    6.2427   -1.2673    3.2119 H   0  0  0  0  0  0  0  0  0  0  0  0
    7.8169    2.5811    2.0194 H   0  0  0  0  0  0  0  0  0  0  0  0
    6.0801    2.4336    2.2577 H   0  0  0  0  0  0  0  0  0  0  0  0
    4.9777   -1.4163    1.0480 H   0  0  0  0  0  0  0  0  0  0  0  0
    6.7201   -1.3033    0.7917 H   0  0  0  0  0  0  0  0  0  0  0  0
    7.7326    1.0366    0.0821 H   0  0  0  0  0  0  0  0  0  0  0  0
    6.6283    2.3848   -0.1811 H   0  0  0  0  0  0  0  0  0  0  0  0
    5.6910    0.1519   -0.8192 H   0  0  0  0  0  0  0  0  0  0  0  0
  1 13  1  0  0  0  0
  1  2  1  0  0  0  0
  2 15  1  0  0  0  0
  3 18  1  0  0  0  0
  4  3  1  0  0  0  0
  4 19  1  0  0  0  0
  4 20  1  0  0  0  0
  5 21  1  0  0  0  0
  5 22  1  0  0  0  0
  5  3  1  0  0  0  0
  6  4  1  0  0  0  0
  7  5  1  0  0  0  0
  8  9  1  0  0  0  0
  8  7  1  0  0  0  0
  8  6  1  0  0  0  0
  9 10  2  0  0  0  0
 11  2  1  0  0  0  0
 11  9  1  0  0  0  0
 12  1  1  0  0  0  0
 14  1  1  0  0  0  0
 16  2  1  0  0  0  0
 17  3  1  0  0  0  0
 23  6  1  0  0  0  0
 24  6  1  0  0  0  0
 25  7  1  0  0  0  0
 26  7  1  0  0  0  0
 27  8  1  0  0  0  0
M  END
>  <HBA>
2

>  <HBD>
0

>  <TPSA>
26.3

>  <cid>
18686

>  <dipole>
1.61

>  <excitation_energy_1>
5.666

>  <excitation_energy_2>
6.831

>  <excitation_energy_3>
7.113

>  <excitation_energy_4>
7.144

>  <homo_energy>
-7.146

>  <homo_lumo_gap>
7.516

>  <logP>
2.13

>  <lumo_energy>
0.37

>  <melting_point>
6.46

>  <molecular_refractivity>
44.55

>  <oscillator_strength_1>
0.0011

>  <oscillator_strength_2>
0.0019

>  <oscillator_strength_3>
0.0042

>  <oscillator_strength_4>
0.0027

>  <open_babel_can_smiles>
CCOC(=O)C1CCCCC1

>  <mulliken_charges>
27
1   -0.461955
2   -0.042984
3   -0.254801
4   -0.267754
5   -0.264572
6   -0.256169
7   -0.267517
8   -0.18595
9   0.631227
10   -0.488129
11   -0.466564
12   0.149686
13   0.17628
14   0.156042
15   0.168925
16   0.150911
17   0.123929
18   0.130686
19   0.158026
20   0.128352
21   0.132374
22   0.135527
23   0.148703
24   0.125374
25   0.132258
26   0.153601
27   0.154493

>  <lowdin_charges>
27
1   -0.453605
2   -0.125855
3   -0.27696
4   -0.283004
5   -0.281515
6   -0.276689
7   -0.276851
8   -0.153624
9   0.198367
10   -0.271006
11   -0.198489
12   0.158482
13   0.164608
14   0.154494
15   0.15694
16   0.15014
17   0.134976
18   0.14224
19   0.152433
20   0.143859
21   0.145553
22   0.140772
23   0.155211
24   0.140849
25   0.142417
26   0.154387
27   0.161869

$$$$

