PCCDB-ID:  5193
public computational chemistry database (PCCDB) project, http://pccdb.org

 35 35  0  0  1  0  0  0  0  0999 V2000
    1.1517   -0.5235    0.7405 C   0  0  0  0  0  0  0  0  0  0  0  0
    7.1040   -2.6429   -5.0344 C   0  0  0  0  0  0  0  0  0  0  0  0
    5.6362   -0.8538    0.0724 C   0  0  0  0  0  0  0  0  0  0  0  0
    2.5914   -0.2408    0.2972 C   0  0  0  0  0  0  0  0  0  0  0  0
    6.8668   -2.9744   -3.7658 C   0  0  0  0  0  0  0  0  0  0  0  0
    3.2145   -1.4340   -0.4447 C   0  0  0  0  0  0  0  0  0  0  0  0
    6.4612   -1.9986   -2.6921 C   0  0  0  0  0  0  0  0  0  0  0  0
    4.6147   -1.1590   -1.0386 C   0  0  2  0  0  0  0  0  0  0  0  0
    4.0174   -2.3907   -3.1664 C   0  0  0  0  0  0  0  0  0  0  0  0
    5.0916   -3.6730   -1.3721 C   0  0  0  0  0  0  0  0  0  0  0  0
    3.2458   -4.4824   -2.5275 C   0  0  0  0  0  0  0  0  0  0  0  0
    5.0610   -2.3023   -2.0486 C   0  0  1  0  0  0  0  0  0  0  0  0
    3.2164   -3.3541   -3.3858 N   0  0  0  0  0  0  0  0  0  0  0  0
    4.2911   -4.6391   -1.5802 N   0  0  0  0  0  0  0  0  0  0  0  0
    3.9090   -1.3175   -3.9821 O   0  0  0  0  0  0  0  0  0  0  0  0
    6.0744   -3.8920   -0.4653 O   0  0  0  0  0  0  0  0  0  0  0  0
    2.3830   -5.3265   -2.6129 O   0  0  0  0  0  0  0  0  0  0  0  0
    0.7252    0.3363    1.2687 H   0  0  0  0  0  0  0  0  0  0  0  0
    1.1074   -1.3862    1.4157 H   0  0  0  0  0  0  0  0  0  0  0  0
    0.5078   -0.7427   -0.1191 H   0  0  0  0  0  0  0  0  0  0  0  0
    7.3962   -3.3856   -5.7707 H   0  0  0  0  0  0  0  0  0  0  0  0
    7.0133   -1.6183   -5.3902 H   0  0  0  0  0  0  0  0  0  0  0  0
    5.3456    0.0593    0.5991 H   0  0  0  0  0  0  0  0  0  0  0  0
    6.6481   -0.6793   -0.3095 H   0  0  0  0  0  0  0  0  0  0  0  0
    5.6686   -1.6526    0.8224 H   0  0  0  0  0  0  0  0  0  0  0  0
    3.1916    0.0196    1.1782 H   0  0  0  0  0  0  0  0  0  0  0  0
    2.6051    0.6418   -0.3588 H   0  0  0  0  0  0  0  0  0  0  0  0
    6.9665   -4.0136   -3.4538 H   0  0  0  0  0  0  0  0  0  0  0  0
    2.5284   -1.7266   -1.2482 H   0  0  0  0  0  0  0  0  0  0  0  0
    3.2732   -2.2951    0.2355 H   0  0  0  0  0  0  0  0  0  0  0  0
    6.4663   -0.9758   -3.0927 H   0  0  0  0  0  0  0  0  0  0  0  0
    7.2273   -1.9911   -1.9065 H   0  0  0  0  0  0  0  0  0  0  0  0
    4.5374   -0.2502   -1.6547 H   0  0  0  0  0  0  0  0  0  0  0  0
    4.5855   -0.6580   -3.7654 H   0  0  0  0  0  0  0  0  0  0  0  0
    6.6181   -3.0973   -0.3592 H   0  0  0  0  0  0  0  0  0  0  0  0
  1 18  1  0  0  0  0
  1 19  1  0  0  0  0
  2  5  2  0  0  0  0
  3 23  1  0  0  0  0
  3 25  1  0  0  0  0
  4  1  1  0  0  0  0
  4 26  1  0  0  0  0
  5 28  1  0  0  0  0
  5  7  1  0  0  0  0
  6 30  1  0  0  0  0
  6  4  1  0  0  0  0
  7 32  1  0  0  0  0
  8 33  1  6  0  0  0
  8  6  1  0  0  0  0
  8  3  1  0  0  0  0
  9 12  1  0  0  0  0
 10 16  1  0  0  0  0
 11 14  1  0  0  0  0
 12  7  1  6  0  0  0
 12 10  1  0  0  0  0
 12  8  1  0  0  0  0
 13  9  2  0  0  0  0
 13 11  2  0  0  0  0
 14 10  2  0  0  0  0
 15 34  1  0  0  0  0
 15  9  1  0  0  0  0
 16 35  1  0  0  0  0
 17 11  2  0  0  0  0
 20  1  1  0  0  0  0
 21  2  1  0  0  0  0
 22  2  1  0  0  0  0
 24  3  1  0  0  0  0
 27  4  1  0  0  0  0
 29  6  1  0  0  0  0
 31  7  1  0  0  0  0
M  END
>  <HBA>
5

>  <HBD>
2

>  <TPSA>
75.27

>  <cid>
5193

>  <dipole>
9.84

>  <excitation_energy_1>
3.988

>  <excitation_energy_2>
4.175

>  <excitation_energy_3>
5.182

>  <excitation_energy_4>
5.341

>  <homo_energy>
-6.836

>  <homo_lumo_gap>
5.374

>  <logP>
2.009

>  <lumo_energy>
-1.461

>  <melting_point>
118.98

>  <molecular_refractivity>
71.37

>  <oscillator_strength_1>
0.0002

>  <oscillator_strength_2>
0.0001

>  <oscillator_strength_3>
0.001

>  <oscillator_strength_4>
0.0053

>  <open_babel_can_smiles>
CCC[C@H]([C@@]1(CC=C)C(=N[C](=[N]=C1O)=O)O)C

>  <mulliken_charges>
35
1   -0.44622
2   -0.326696
3   -0.509203
4   -0.26023
5   -0.04781
6   -0.284516
7   -0.355906
8   -0.071657
9   0.555343
10   0.533405
11   0.618117
12   -0.142457
13   -0.470727
14   -0.465857
15   -0.576602
16   -0.581561
17   -0.432373
18   0.147097
19   0.152206
20   0.156398
21   0.163035
22   0.140195
23   0.178087
24   0.149163
25   0.167104
26   0.137619
27   0.133354
28   0.16374
29   0.170277
30   0.158846
31   0.13881
32   0.153043
33   0.119494
34   0.415083
35   0.421399

>  <lowdin_charges>
35
1   -0.444892
2   -0.314312
3   -0.465861
4   -0.274171
5   -0.160179
6   -0.288894
7   -0.273914
8   -0.11918
9   0.152699
10   0.146349
11   0.1723
12   -0.06466
13   -0.184511
14   -0.184027
15   -0.330175
16   -0.334668
17   -0.210858
18   0.153557
19   0.152715
20   0.154479
21   0.172479
22   0.155003
23   0.169982
24   0.148979
25   0.158363
26   0.141435
27   0.139977
28   0.167155
29   0.161535
30   0.154257
31   0.145829
32   0.15359
33   0.136936
34   0.356256
35   0.356426

$$$$

