PCCDB-ID:  55835
public computational chemistry database (PCCDB) project, http://pccdb.org

 33 34  0  0  1  0  0  0  0  0999 V2000
    0.6400   -1.0213    0.6274 C   0  0  0  0  0  0  0  0  0  0  0  0
    2.4213    0.1750    1.9186 C   0  0  0  0  0  0  0  0  0  0  0  0
    4.5413   -0.6008   -3.7001 C   0  0  0  0  0  0  0  0  0  0  0  0
    4.1624    0.1690   -0.7069 C   0  0  0  0  0  0  0  0  0  0  0  0
    2.5485   -1.6227   -1.5945 C   0  0  0  0  0  0  0  0  0  0  0  0
    2.6789    0.9753   -4.2913 C   0  0  0  0  0  0  0  0  0  0  0  0
    1.9169   -0.1730    0.5060 C   0  0  0  0  0  0  0  0  0  0  0  0
    3.0449   -0.8603   -0.3284 C   0  0  2  0  0  0  0  0  0  0  0  0
    3.8325    1.0489   -1.9201 C   0  0  0  0  0  0  0  0  0  0  0  0
    2.1786   -0.5919   -2.6398 C   0  0  1  0  0  0  0  0  0  0  0  0
    1.7407   -0.1179   -4.8242 C   0  0  0  0  0  0  0  0  0  0  0  0
    3.3782    0.2501   -3.1372 C   0  0  2  0  0  0  0  0  0  0  0  0
    3.8889    2.2624   -1.8938 O   0  0  0  0  0  0  0  0  0  0  0  0
    1.2215   -0.2009   -5.9036 O   0  0  0  0  0  0  0  0  0  0  0  0
    1.5653   -1.0787   -3.8504 O   0  0  0  0  0  0  0  0  0  0  0  0
   -0.0710   -0.5362    1.3055 H   0  0  0  0  0  0  0  0  0  0  0  0
    0.8601   -2.0151    1.0390 H   0  0  0  0  0  0  0  0  0  0  0  0
    0.1297   -1.1598   -0.3310 H   0  0  0  0  0  0  0  0  0  0  0  0
    1.6501    0.7140    2.4798 H   0  0  0  0  0  0  0  0  0  0  0  0
    3.3154    0.8057    1.9089 H   0  0  0  0  0  0  0  0  0  0  0  0
    2.6617   -0.7385    2.4783 H   0  0  0  0  0  0  0  0  0  0  0  0
    5.3037    0.0621   -4.1227 H   0  0  0  0  0  0  0  0  0  0  0  0
    4.1849   -1.2583   -4.4994 H   0  0  0  0  0  0  0  0  0  0  0  0
    5.0242   -1.2275   -2.9470 H   0  0  0  0  0  0  0  0  0  0  0  0
    5.0850   -0.3805   -0.9356 H   0  0  0  0  0  0  0  0  0  0  0  0
    4.3923    0.8346    0.1273 H   0  0  0  0  0  0  0  0  0  0  0  0
    1.6917   -2.2563   -1.3539 H   0  0  0  0  0  0  0  0  0  0  0  0
    3.3351   -2.2877   -1.9672 H   0  0  0  0  0  0  0  0  0  0  0  0
    2.0878    1.8268   -3.9308 H   0  0  0  0  0  0  0  0  0  0  0  0
    3.3323    1.3360   -5.0883 H   0  0  0  0  0  0  0  0  0  0  0  0
    1.6460    0.7723    0.0123 H   0  0  0  0  0  0  0  0  0  0  0  0
    3.5066   -1.6095    0.3292 H   0  0  0  0  0  0  0  0  0  0  0  0
    1.4516    0.1000   -2.1874 H   0  0  0  0  0  0  0  0  0  0  0  0
  1 17  1  0  0  0  0
  1 16  1  0  0  0  0
  2 21  1  0  0  0  0
  2 19  1  0  0  0  0
  3 24  1  0  0  0  0
  4  8  1  0  0  0  0
  4 26  1  0  0  0  0
  5 27  1  0  0  0  0
  5  8  1  0  0  0  0
  6 29  1  0  0  0  0
  6 12  1  0  0  0  0
  7  1  1  0  0  0  0
  7  2  1  0  0  0  0
  8 32  1  1  0  0  0
  8  7  1  0  0  0  0
  9 13  2  0  0  0  0
  9  4  1  0  0  0  0
 10 33  1  1  0  0  0
 10  5  1  0  0  0  0
 11  6  1  0  0  0  0
 11 15  1  0  0  0  0
 12  3  1  6  0  0  0
 12 10  1  0  0  0  0
 12  9  1  0  0  0  0
 14 11  2  0  0  0  0
 15 10  1  0  0  0  0
 18  1  1  0  0  0  0
 20  2  1  0  0  0  0
 22  3  1  0  0  0  0
 23  3  1  0  0  0  0
 25  4  1  0  0  0  0
 28  5  1  0  0  0  0
 30  6  1  0  0  0  0
 31  7  1  0  0  0  0
M  END
>  <HBA>
3

>  <HBD>
0

>  <TPSA>
43.37

>  <cid>
55835

>  <dipole>
4.6

>  <excitation_energy_1>
4.221

>  <excitation_energy_2>
5.561

>  <excitation_energy_3>
5.746

>  <excitation_energy_4>
6.234

>  <homo_energy>
-6.855

>  <homo_lumo_gap>
6.011

>  <logP>
1.943

>  <lumo_energy>
-0.844

>  <melting_point>
67.13

>  <molecular_refractivity>
56.8

>  <oscillator_strength_1>
0.0002

>  <oscillator_strength_2>
0.0008

>  <oscillator_strength_3>
0.0007

>  <oscillator_strength_4>
0.0061

>  <open_babel_can_smiles>
CC([C@H]1C[C@@H]2OC(=O)C[C@]2(C(=O)C1)C)C

>  <mulliken_charges>
33
1   -0.459781
2   -0.454895
3   -0.48237
4   -0.374603
5   -0.309481
6   -0.392065
7   -0.076864
8   -0.097098
9   0.435948
10   0.136234
11   0.615055
12   -0.015824
13   -0.442912
14   -0.452154
15   -0.477438
16   0.150028
17   0.14468
18   0.152948
19   0.150262
20   0.151819
21   0.142835
22   0.168683
23   0.176938
24   0.157221
25   0.163935
26   0.172907
27   0.167584
28   0.150689
29   0.193977
30   0.185056
31   0.135536
32   0.134021
33   0.14913

>  <lowdin_charges>
33
1   -0.449043
2   -0.447058
3   -0.44909
4   -0.31344
5   -0.291174
6   -0.30856
7   -0.129099
8   -0.124238
9   0.152064
10   -0.003855
11   0.195238
12   -0.036821
13   -0.223474
14   -0.222468
15   -0.198681
16   0.156205
17   0.147874
18   0.151464
19   0.15511
20   0.151368
21   0.147436
22   0.165193
23   0.167855
24   0.155712
25   0.166208
26   0.168864
27   0.166041
28   0.154812
29   0.183269
30   0.17875
31   0.139548
32   0.149727
33   0.144263

$$$$

