PCCDB-ID:  12093
public computational chemistry database (PCCDB) project, http://pccdb.org

 22 22  0  0  0  0  0  0  0  0999 V2000
    3.1948    0.0711    0.6364 C   0  0  0  0  0  0  0  0  0  0  0  0
    4.6870    0.1589    0.3707 C   0  0  0  0  0  0  0  0  0  0  0  0
    7.6802    3.5594   -1.2833 C   0  0  0  0  0  0  0  0  0  0  0  0
    8.6035    1.4065   -0.6852 C   0  0  0  0  0  0  0  0  0  0  0  0
    6.4174    3.1177   -0.9234 C   0  0  0  0  0  0  0  0  0  0  0  0
    7.3398    0.9514   -0.3203 C   0  0  0  0  0  0  0  0  0  0  0  0
    8.7921    2.7063   -1.1679 C   0  0  0  0  0  0  0  0  0  0  0  0
    6.2361    1.8104   -0.4389 C   0  0  0  0  0  0  0  0  0  0  0  0
   10.1619    3.1253   -1.5353 C   0  0  0  0  0  0  0  0  0  0  0  0
   10.2253    4.4077   -1.9885 O   0  0  0  0  0  0  0  0  0  0  0  0
   11.1559    2.4279   -1.4561 O   0  0  0  0  0  0  0  0  0  0  0  0
    4.9606    1.4767   -0.1136 O   0  0  0  0  0  0  0  0  0  0  0  0
    2.9400   -0.9234    1.0181 H   0  0  0  0  0  0  0  0  0  0  0  0
    2.6275    0.2467   -0.2829 H   0  0  0  0  0  0  0  0  0  0  0  0
    2.8906    0.8164    1.3778 H   0  0  0  0  0  0  0  0  0  0  0  0
    4.9986   -0.5824   -0.3783 H   0  0  0  0  0  0  0  0  0  0  0  0
    5.2619   -0.0251    1.2890 H   0  0  0  0  0  0  0  0  0  0  0  0
    7.8149    4.5681   -1.6577 H   0  0  0  0  0  0  0  0  0  0  0  0
    9.4672    0.7550   -0.5998 H   0  0  0  0  0  0  0  0  0  0  0  0
    5.5484    3.7626   -1.0060 H   0  0  0  0  0  0  0  0  0  0  0  0
    7.2229   -0.0595    0.0517 H   0  0  0  0  0  0  0  0  0  0  0  0
   11.1654    4.5610   -2.1958 H   0  0  0  0  0  0  0  0  0  0  0  0
  1 13  1  0  0  0  0
  1 15  1  0  0  0  0
  2  1  1  0  0  0  0
  2 17  1  0  0  0  0
  3  7  2  0  0  0  0
  3  5  1  0  0  0  0
  4 19  1  0  0  0  0
  4  6  2  0  0  0  0
  5  8  2  0  0  0  0
  6 21  1  0  0  0  0
  7  4  1  0  0  0  0
  8  6  1  0  0  0  0
  8 12  1  0  0  0  0
  9 11  2  0  0  0  0
  9  7  1  0  0  0  0
 10  9  1  0  0  0  0
 12  2  1  0  0  0  0
 14  1  1  0  0  0  0
 16  2  1  0  0  0  0
 18  3  1  0  0  0  0
 20  5  1  0  0  0  0
 22 10  1  0  0  0  0
M  END
>  <HBA>
3

>  <HBD>
1

>  <TPSA>
46.53

>  <cid>
12093

>  <dipole>
2.73

>  <excitation_energy_1>
4.873

>  <excitation_energy_2>
4.903

>  <excitation_energy_3>
5.003

>  <excitation_energy_4>
5.819

>  <homo_energy>
-6.242

>  <homo_lumo_gap>
5.276

>  <logP>
1.784

>  <lumo_energy>
-0.966

>  <melting_point>
100.09

>  <molecular_refractivity>
44.7

>  <oscillator_strength_1>
0.4045

>  <oscillator_strength_2>
0.001

>  <oscillator_strength_3>
0.0001

>  <oscillator_strength_4>
0.0073

>  <open_babel_can_smiles>
CCOc1ccc(cc1)C(=O)O

>  <mulliken_charges>
22
1   -0.457886
2   -0.034851
3   -0.164207
4   -0.167223
5   -0.181932
6   -0.201957
7   0.068865
8   0.392995
9   0.532531
10   -0.587934
11   -0.483852
12   -0.511466
13   0.152037
14   0.166054
15   0.166275
16   0.146831
17   0.146693
18   0.160809
19   0.165067
20   0.143505
21   0.140452
22   0.409192

>  <lowdin_charges>
22
1   -0.447606
2   -0.124643
3   -0.127211
4   -0.117488
5   -0.184963
6   -0.212946
7   -0.070214
8   0.117362
9   0.197233
10   -0.36731
11   -0.283457
12   -0.192867
13   0.15882
14   0.161585
15   0.162385
16   0.14276
17   0.141596
18   0.173752
19   0.178403
20   0.170011
21   0.164996
22   0.359802

$$$$

