PCCDB-ID:  7770
public computational chemistry database (PCCDB) project, http://pccdb.org

 23 22  0  0  0  0  0  0  0  0999 V2000
    1.8966    1.2021    1.2009 C   0  0  0  0  0  0  0  0  0  0  0  0
    8.2560    3.2052   -0.5264 C   0  0  0  0  0  0  0  0  0  0  0  0
    1.8677    0.5443   -0.1826 C   0  0  0  0  0  0  0  0  0  0  0  0
    6.7281    3.0894   -0.5466 C   0  0  0  0  0  0  0  0  0  0  0  0
    2.6674    1.3121   -1.2409 C   0  0  0  0  0  0  0  0  0  0  0  0
    6.2412    2.2227   -1.7034 C   0  0  0  0  0  0  0  0  0  0  0  0
    4.1691    1.2583   -1.0212 C   0  0  0  0  0  0  0  0  0  0  0  0
    4.7462    0.4736   -0.2976 O   0  0  0  0  0  0  0  0  0  0  0  0
    4.7965    2.1915   -1.7748 O   0  0  0  0  0  0  0  0  0  0  0  0
    1.2879    0.6376    1.9161 H   0  0  0  0  0  0  0  0  0  0  0  0
    1.5020    2.2255    1.1630 H   0  0  0  0  0  0  0  0  0  0  0  0
    2.9182    1.2442    1.5918 H   0  0  0  0  0  0  0  0  0  0  0  0
    8.5899    3.8205    0.3156 H   0  0  0  0  0  0  0  0  0  0  0  0
    8.6358    3.6669   -1.4462 H   0  0  0  0  0  0  0  0  0  0  0  0
    8.7294    2.2212   -0.4265 H   0  0  0  0  0  0  0  0  0  0  0  0
    0.8303    0.4601   -0.5300 H   0  0  0  0  0  0  0  0  0  0  0  0
    2.2644   -0.4747   -0.1125 H   0  0  0  0  0  0  0  0  0  0  0  0
    6.2739    4.0844   -0.6342 H   0  0  0  0  0  0  0  0  0  0  0  0
    6.3721    2.6516    0.3927 H   0  0  0  0  0  0  0  0  0  0  0  0
    2.3618    2.3641   -1.2928 H   0  0  0  0  0  0  0  0  0  0  0  0
    2.4805    0.8978   -2.2417 H   0  0  0  0  0  0  0  0  0  0  0  0
    6.6152    1.1993   -1.6107 H   0  0  0  0  0  0  0  0  0  0  0  0
    6.5540    2.6369   -2.6664 H   0  0  0  0  0  0  0  0  0  0  0  0
  1 12  1  0  0  0  0
  1 10  1  0  0  0  0
  2 15  1  0  0  0  0
  2 13  1  0  0  0  0
  3 17  1  0  0  0  0
  3  1  1  0  0  0  0
  4  2  1  0  0  0  0
  4 19  1  0  0  0  0
  5  7  1  0  0  0  0
  5  3  1  0  0  0  0
  6 22  1  0  0  0  0
  6  4  1  0  0  0  0
  7  8  2  0  0  0  0
  9  6  1  0  0  0  0
  9  7  1  0  0  0  0
 11  1  1  0  0  0  0
 14  2  1  0  0  0  0
 16  3  1  0  0  0  0
 18  4  1  0  0  0  0
 20  5  1  0  0  0  0
 21  5  1  0  0  0  0
 23  6  1  0  0  0  0
M  END
>  <HBA>
2

>  <HBD>
0

>  <TPSA>
26.3

>  <cid>
7770

>  <dipole>
1.54

>  <excitation_energy_1>
5.815

>  <excitation_energy_2>
6.971

>  <excitation_energy_3>
7.348

>  <excitation_energy_4>
7.483

>  <homo_energy>
-7.274

>  <homo_lumo_gap>
7.714

>  <logP>
1.74

>  <lumo_energy>
0.441

>  <melting_point>
-14.79

>  <molecular_refractivity>
37.05

>  <oscillator_strength_1>
0.0008

>  <oscillator_strength_2>
0.0171

>  <oscillator_strength_3>
0.0138

>  <oscillator_strength_4>
0.0484

>  <open_babel_can_smiles>
CCCOC(=O)CCC

>  <mulliken_charges>
23
1   -0.449786
2   -0.453479
3   -0.244277
4   -0.27226
5   -0.355543
6   -0.039068
7   0.62478
8   -0.48297
9   -0.467266
10   0.144575
11   0.13619
12   0.164668
13   0.152867
14   0.14421
15   0.152029
16   0.131708
17   0.157275
18   0.144287
19   0.162615
20   0.165151
21   0.17185
22   0.165407
23   0.147038

>  <lowdin_charges>
23
1   -0.447775
2   -0.445067
3   -0.268101
4   -0.284301
5   -0.300588
6   -0.130193
7   0.199376
8   -0.272842
9   -0.197444
10   0.152804
11   0.142277
12   0.156591
13   0.157021
14   0.148027
15   0.151242
16   0.142885
17   0.15416
18   0.1465
19   0.156588
20   0.163162
21   0.170539
22   0.15546
23   0.14968

$$$$

