PCCDB-ID:  14266
public computational chemistry database (PCCDB) project, http://pccdb.org

 15 15  0  0  0  0  0  0  0  0999 V2000
    1.0448    0.0201    0.0176 C   0  0  0  0  0  0  0  0  0  0  0  0
    4.8112   -0.7856   -0.2264 C   0  0  0  0  0  0  0  0  0  0  0  0
    3.3435   -1.1242   -0.1116 C   0  0  0  0  0  0  0  0  0  0  0  0
    4.8350    0.7556   -0.2839 C   0  0  0  0  0  0  0  0  0  0  0  0
    2.5352   -0.0502   -0.0883 C   0  0  0  0  0  0  0  0  0  0  0  0
    3.3634    1.1824   -0.1875 C   0  0  0  0  0  0  0  0  0  0  0  0
    2.9457    2.3263   -0.1917 O   0  0  0  0  0  0  0  0  0  0  0  0
    0.5905   -0.9748    0.0487 H   0  0  0  0  0  0  0  0  0  0  0  0
    0.6245    0.5731   -0.8307 H   0  0  0  0  0  0  0  0  0  0  0  0
    0.7476    0.5687    0.9196 H   0  0  0  0  0  0  0  0  0  0  0  0
    5.2529   -1.2474   -1.1196 H   0  0  0  0  0  0  0  0  0  0  0  0
    5.3735   -1.1829    0.6294 H   0  0  0  0  0  0  0  0  0  0  0  0
    2.9988   -2.1544   -0.0546 H   0  0  0  0  0  0  0  0  0  0  0  0
    5.2654    1.1436   -1.2136 H   0  0  0  0  0  0  0  0  0  0  0  0
    5.4008    1.2090    0.5372 H   0  0  0  0  0  0  0  0  0  0  0  0
  1  8  1  0  0  0  0
  1 10  1  0  0  0  0
  2  3  1  0  0  0  0
  2 12  1  0  0  0  0
  3  5  2  0  0  0  0
  3 13  1  0  0  0  0
  4  2  1  0  0  0  0
  4  6  1  0  0  0  0
  4 15  1  0  0  0  0
  5  1  1  0  0  0  0
  6  5  1  0  0  0  0
  7  6  2  0  0  0  0
  9  1  1  0  0  0  0
 11  2  1  0  0  0  0
 14  4  1  0  0  0  0
M  END
>  <HBA>
1

>  <HBD>
0

>  <TPSA>
17.07

>  <cid>
14266

>  <dipole>
3.27

>  <excitation_energy_1>
3.82

>  <excitation_energy_2>
5.714

>  <excitation_energy_3>
6.173

>  <excitation_energy_4>
6.528

>  <homo_energy>
-6.414

>  <homo_lumo_gap>
5.369

>  <logP>
1.296

>  <lumo_energy>
-1.045

>  <melting_point>
30.62

>  <molecular_refractivity>
28.57

>  <oscillator_strength_1>
0.0003

>  <oscillator_strength_2>
0.2453

>  <oscillator_strength_3>
0.0069

>  <oscillator_strength_4>
0.0022

>  <open_babel_can_smiles>
O=C1CCC=C1C

>  <mulliken_charges>
15
1   -0.513046
2   -0.317409
3   -0.16503
4   -0.366803
5   0.135027
6   0.385978
7   -0.467942
8   0.15038
9   0.174021
10   0.173423
11   0.159885
12   0.160128
13   0.13968
14   0.17596
15   0.175748

>  <lowdin_charges>
15
1   -0.437122
2   -0.278902
3   -0.135558
4   -0.311717
5   -0.045968
6   0.141942
7   -0.249411
8   0.156586
9   0.170877
10   0.170122
11   0.158242
12   0.158571
13   0.157718
14   0.172037
15   0.172582

$$$$

