PCCDB-ID:  14243
public computational chemistry database (PCCDB) project, http://pccdb.org

 20 19  0  0  0  0  0  0  0  0999 V2000
    0.9047    0.1964    0.3359 C   0  0  0  0  0  0  0  0  0  0  0  0
    7.0554   -2.7383   -2.6239 C   0  0  0  0  0  0  0  0  0  0  0  0
    2.4165    0.0423    0.1467 C   0  0  0  0  0  0  0  0  0  0  0  0
    2.8029   -0.2800   -1.3122 C   0  0  0  0  0  0  0  0  0  0  0  0
    4.2841   -0.3820   -1.5087 C   0  0  0  0  0  0  0  0  0  0  0  0
    4.9468   -1.4599   -1.9525 C   0  0  0  0  0  0  0  0  0  0  0  0
    6.4287   -1.4557   -2.1029 C   0  0  0  0  0  0  0  0  0  0  0  0
    7.1104   -0.4800   -1.8239 O   0  0  0  0  0  0  0  0  0  0  0  0
    0.6574    0.4221    1.3791 H   0  0  0  0  0  0  0  0  0  0  0  0
    0.3739   -0.7225    0.0586 H   0  0  0  0  0  0  0  0  0  0  0  0
    0.5076    1.0089   -0.2849 H   0  0  0  0  0  0  0  0  0  0  0  0
    6.6378   -2.9995   -3.6048 H   0  0  0  0  0  0  0  0  0  0  0  0
    6.8318   -3.5750   -1.9493 H   0  0  0  0  0  0  0  0  0  0  0  0
    8.1368   -2.6155   -2.7071 H   0  0  0  0  0  0  0  0  0  0  0  0
    2.7958   -0.7536    0.8004 H   0  0  0  0  0  0  0  0  0  0  0  0
    2.9254    0.9643    0.4585 H   0  0  0  0  0  0  0  0  0  0  0  0
    2.4130    0.5227   -1.9578 H   0  0  0  0  0  0  0  0  0  0  0  0
    2.3109   -1.2082   -1.6309 H   0  0  0  0  0  0  0  0  0  0  0  0
    4.8805    0.4968   -1.2595 H   0  0  0  0  0  0  0  0  0  0  0  0
    4.4128   -2.3715   -2.2192 H   0  0  0  0  0  0  0  0  0  0  0  0
  1  9  1  0  0  0  0
  2  7  1  0  0  0  0
  2 13  1  0  0  0  0
  3  1  1  0  0  0  0
  3 16  1  0  0  0  0
  3 15  1  0  0  0  0
  4  3  1  0  0  0  0
  5  4  1  0  0  0  0
  5 19  1  0  0  0  0
  6  5  2  0  0  0  0
  7  6  1  0  0  0  0
  7  8  2  0  0  0  0
 10  1  1  0  0  0  0
 11  1  1  0  0  0  0
 12  2  1  0  0  0  0
 14  2  1  0  0  0  0
 17  4  1  0  0  0  0
 18  4  1  0  0  0  0
 20  6  1  0  0  0  0
M  END
>  <HBA>
1

>  <HBD>
0

>  <TPSA>
17.07

>  <cid>
14243

>  <dipole>
2.94

>  <excitation_energy_1>
3.71

>  <excitation_energy_2>
5.538

>  <excitation_energy_3>
6.247

>  <excitation_energy_4>
6.624

>  <homo_energy>
-6.525

>  <homo_lumo_gap>
5.287

>  <logP>
1.932

>  <lumo_energy>
-1.238

>  <melting_point>
3.95

>  <molecular_refractivity>
35.49

>  <oscillator_strength_1>
0.0002

>  <oscillator_strength_2>
0.4253

>  <oscillator_strength_3>
0.025

>  <oscillator_strength_4>
0.0006

>  <open_babel_can_smiles>
CCC/C=C/C(=O)C

>  <mulliken_charges>
20
1   -0.442712
2   -0.537879
3   -0.25286
4   -0.30704
5   -0.054513
6   -0.192711
7   0.434955
8   -0.461651
9   0.14876
10   0.144605
11   0.144909
12   0.166578
13   0.16714
14   0.177184
15   0.144534
16   0.142167
17   0.151562
18   0.141504
19   0.163525
20   0.121943

>  <lowdin_charges>
20
1   -0.444288
2   -0.473648
3   -0.270606
4   -0.274166
5   -0.090286
6   -0.229315
7   0.161182
8   -0.254198
9   0.152252
10   0.148416
11   0.149139
12   0.167614
13   0.168924
14   0.169795
15   0.146943
16   0.14516
17   0.156367
18   0.147339
19   0.170585
20   0.15279

$$$$

