PCCDB-ID:  20892
public computational chemistry database (PCCDB) project, http://pccdb.org

 26 25  0  0  1  0  0  0  0  0999 V2000
    1.7576   -1.6158    1.0573 C   0  0  0  0  0  0  0  0  0  0  0  0
    2.2761    0.9728    2.8035 C   0  0  0  0  0  0  0  0  0  0  0  0
    1.7349   -0.1659    0.5604 C   0  0  0  0  0  0  0  0  0  0  0  0
    2.6547    0.8116    1.3277 C   0  0  2  0  0  0  0  0  0  0  0  0
    5.0383    1.5148   -2.1411 C   0  0  0  0  0  0  0  0  0  0  0  0
    4.8142    0.3284    0.0816 C   0  0  0  0  0  0  0  0  0  0  0  0
    4.7697    2.6631   -2.6542 N   0  0  0  0  0  0  0  0  0  0  0  0
    5.7066    0.4474   -2.6937 N   0  0  0  0  0  0  0  0  0  0  0  0
    5.7389   -0.5446   -0.1430 N   0  0  0  0  0  0  0  0  0  0  0  0
    4.0849    0.4485    1.2653 N   0  0  0  0  0  0  0  0  0  0  0  0
    4.4980    1.2965   -0.8566 N   0  0  0  0  0  0  0  0  0  0  0  0
    1.1072   -2.2413    0.4368 H   0  0  0  0  0  0  0  0  0  0  0  0
    1.4078   -1.7065    2.0920 H   0  0  0  0  0  0  0  0  0  0  0  0
    2.7656   -2.0431    1.0003 H   0  0  0  0  0  0  0  0  0  0  0  0
    1.2274    1.2725    2.8984 H   0  0  0  0  0  0  0  0  0  0  0  0
    2.9011    1.7341    3.2803 H   0  0  0  0  0  0  0  0  0  0  0  0
    2.4035    0.0345    3.3570 H   0  0  0  0  0  0  0  0  0  0  0  0
    0.7098    0.2262    0.6115 H   0  0  0  0  0  0  0  0  0  0  0  0
    2.0212   -0.1413   -0.4978 H   0  0  0  0  0  0  0  0  0  0  0  0
    2.5436    1.7974    0.8601 H   0  0  0  0  0  0  0  0  0  0  0  0
    5.1552    2.7350   -3.5969 H   0  0  0  0  0  0  0  0  0  0  0  0
    6.3127    0.6810   -3.4678 H   0  0  0  0  0  0  0  0  0  0  0  0
    6.0747   -0.2210   -2.0125 H   0  0  0  0  0  0  0  0  0  0  0  0
    5.7854   -1.2394    0.6010 H   0  0  0  0  0  0  0  0  0  0  0  0
    4.3343   -0.2774    1.9270 H   0  0  0  0  0  0  0  0  0  0  0  0
    4.0181    2.1244   -0.5324 H   0  0  0  0  0  0  0  0  0  0  0  0
  1 13  1  0  0  0  0
  2 15  1  0  0  0  0
  2 16  1  0  0  0  0
  2 17  1  0  0  0  0
  3 18  1  0  0  0  0
  3  1  1  0  0  0  0
  3  4  1  0  0  0  0
  4 20  1  6  0  0  0
  4  2  1  0  0  0  0
  5 11  1  0  0  0  0
  6 10  1  0  0  0  0
  7  5  1  0  0  0  0
  8  5  2  0  0  0  0
  8 23  1  0  0  0  0
  9  6  2  0  0  0  0
  9 24  1  0  0  0  0
 10  4  1  0  0  0  0
 10 25  1  0  0  0  0
 11 26  1  0  0  0  0
 11  6  1  0  0  0  0
 12  1  1  0  0  0  0
 14  1  1  0  0  0  0
 19  3  1  0  0  0  0
 21  7  1  0  0  0  0
 22  8  1  0  0  0  0
M  RAD  1   7   2
M  END
>  <HBA>
5

>  <HBD>
3

>  <TPSA>
102.78

>  <cid>
20892

>  <dipole>
3.26

>  <excitation_energy_1>
5.189

>  <excitation_energy_2>
5.46

>  <excitation_energy_3>
5.687

>  <excitation_energy_4>
5.712

>  <homo_energy>
-5.723

>  <homo_lumo_gap>
6.547

>  <logP>
1.474

>  <lumo_energy>
0.825

>  <melting_point>
171.91

>  <molecular_refractivity>
46.45

>  <oscillator_strength_1>
0.0033

>  <oscillator_strength_2>
0.0009

>  <oscillator_strength_3>
0.0021

>  <oscillator_strength_4>
0.01

>  <open_babel_can_smiles>
C[C@@H](NC(=N)NC(=[NH2])[NH])CC

>  <mulliken_charges>
26
1   -0.456718
2   -0.463833
3   -0.252215
4   0.029694
5   0.610447
6   0.691039
7   -0.667518
8   -0.763346
9   -0.703271
10   -0.618492
11   -0.650427
12   0.156251
13   0.145599
14   0.141467
15   0.157019
16   0.164488
17   0.145799
18   0.135857
19   0.161073
20   0.141464
21   0.267659
22   0.316212
23   0.376434
24   0.274674
25   0.311328
26   0.349316

>  <lowdin_charges>
26
1   -0.450706
2   -0.449269
3   -0.286874
4   -0.054858
5   0.143215
6   0.143294
7   -0.492382
8   -0.503022
9   -0.494975
10   -0.314939
11   -0.256695
12   0.160013
13   0.145888
14   0.145239
15   0.158093
16   0.162364
17   0.148829
18   0.145969
19   0.154897
20   0.14502
21   0.24694
22   0.27803
23   0.302717
24   0.25221
25   0.273194
26   0.297804

$$$$

