PCCDB-ID:  43552
public computational chemistry database (PCCDB) project, http://pccdb.org

 24 24  0  0  1  0  0  0  0  0999 V2000
    3.1911   -0.5929   -0.6167 C   0  0  0  0  0  0  0  0  0  0  0  0
    5.9473    1.7901   -0.6829 C   0  0  0  0  0  0  0  0  0  0  0  0
    2.1568    0.5106   -0.3746 C   0  0  0  0  0  0  0  0  0  0  0  0
    5.0638    2.9240   -0.1533 C   0  0  0  0  0  0  0  0  0  0  0  0
    1.6243    2.8983    0.5431 C   0  0  0  0  0  0  0  0  0  0  0  0
    2.6756    3.9486    0.1096 C   0  0  0  0  0  0  0  0  0  0  0  0
    2.6745    1.7719    0.3199 C   0  0  2  0  0  0  0  0  0  0  0  0
    3.5683    2.8054   -0.4546 C   0  0  2  0  0  0  0  0  0  0  0  0
    2.7218   -1.4793   -1.0596 H   0  0  0  0  0  0  0  0  0  0  0  0
    3.6680   -0.9045    0.3212 H   0  0  0  0  0  0  0  0  0  0  0  0
    3.9817   -0.2627   -1.2984 H   0  0  0  0  0  0  0  0  0  0  0  0
    7.0065    1.9965   -0.4892 H   0  0  0  0  0  0  0  0  0  0  0  0
    5.8277    1.6645   -1.7664 H   0  0  0  0  0  0  0  0  0  0  0  0
    5.7058    0.8334   -0.2083 H   0  0  0  0  0  0  0  0  0  0  0  0
    1.3368    0.1036    0.2357 H   0  0  0  0  0  0  0  0  0  0  0  0
    1.7004    0.7990   -1.3332 H   0  0  0  0  0  0  0  0  0  0  0  0
    5.4163    3.8775   -0.5739 H   0  0  0  0  0  0  0  0  0  0  0  0
    5.1963    3.0114    0.9353 H   0  0  0  0  0  0  0  0  0  0  0  0
    0.7970    2.8197   -0.1721 H   0  0  0  0  0  0  0  0  0  0  0  0
    1.1979    2.9960    1.5472 H   0  0  0  0  0  0  0  0  0  0  0  0
    3.1499    4.4410    0.9669 H   0  0  0  0  0  0  0  0  0  0  0  0
    2.3516    4.7246   -0.5919 H   0  0  0  0  0  0  0  0  0  0  0  0
    3.1575    1.4998    1.2699 H   0  0  0  0  0  0  0  0  0  0  0  0
    3.4162    2.6941   -1.5381 H   0  0  0  0  0  0  0  0  0  0  0  0
  1  3  1  0  0  0  0
  1 10  1  0  0  0  0
  2 12  1  0  0  0  0
  2 14  1  0  0  0  0
  2  4  1  0  0  0  0
  3 15  1  0  0  0  0
  3  7  1  0  0  0  0
  4 18  1  0  0  0  0
  5 20  1  0  0  0  0
  6  5  1  0  0  0  0
  6 21  1  0  0  0  0
  7  5  1  0  0  0  0
  7 23  1  1  0  0  0
  8 24  1  6  0  0  0
  8  4  1  0  0  0  0
  8  6  1  0  0  0  0
  8  7  1  0  0  0  0
  9  1  1  0  0  0  0
 11  1  1  0  0  0  0
 13  2  1  0  0  0  0
 16  3  1  0  0  0  0
 17  4  1  0  0  0  0
 19  5  1  0  0  0  0
 22  6  1  0  0  0  0
M  END
>  <HBA>
0

>  <HBD>
0

>  <TPSA>
0.0

>  <cid>
43552

>  <dipole>
0.02

>  <excitation_energy_1>
7.209

>  <excitation_energy_2>
7.227

>  <excitation_energy_3>
7.452

>  <excitation_energy_4>
7.484

>  <homo_energy>
-7.587

>  <homo_lumo_gap>
10.006

>  <logP>
2.833

>  <lumo_energy>
2.419

>  <melting_point>
-5.31

>  <molecular_refractivity>
38.46

>  <oscillator_strength_1>
0.0209

>  <oscillator_strength_2>
0.0142

>  <oscillator_strength_3>
0.0035

>  <oscillator_strength_4>
0.0122

>  <open_babel_can_smiles>
CC[C@@H]1CC[C@H]1CC

>  <mulliken_charges>
24
1   -0.44725
2   -0.447052
3   -0.256942
4   -0.257113
5   -0.288531
6   -0.288402
7   -0.070748
8   -0.071028
9   0.139817
10   0.1395
11   0.150854
12   0.139849
13   0.139589
14   0.150736
15   0.131054
16   0.12482
17   0.131116
18   0.124909
19   0.132491
20   0.132455
21   0.132437
22   0.13242
23   0.112483
24   0.112536

>  <lowdin_charges>
24
1   -0.450349
2   -0.445186
3   -0.274266
4   -0.27139
5   -0.286448
6   -0.288036
7   -0.133275
8   -0.131319
9   0.149342
10   0.14526
11   0.151146
12   0.147343
13   0.1432
14   0.150045
15   0.142472
16   0.136575
17   0.141508
18   0.134599
19   0.143217
20   0.140587
21   0.143542
22   0.142038
23   0.135664
24   0.133732

$$$$

