PCCDB-ID:  68328
public computational chemistry database (PCCDB) project, http://pccdb.org

 16 15  0  0  0  0  0  0  0  0999 V2000
    2.1670    0.1643   -0.0953 C   0  0  0  0  0  0  0  0  0  0  0  0
    2.2418   -0.9674   -2.4424 C   0  0  0  0  0  0  0  0  0  0  0  0
    1.8377    0.2177   -1.5749 C   0  0  0  0  0  0  0  0  0  0  0  0
    2.3558    1.5031    0.6448 C   0  0  0  0  0  0  0  0  0  0  0  0
    3.6588   -0.8504   -2.9976 C   0  0  0  0  0  0  0  0  0  0  0  0
    1.2375    1.1593   -2.0747 O   0  0  0  0  0  0  0  0  0  0  0  0
    3.0173    1.5592    1.6515 O   0  0  0  0  0  0  0  0  0  0  0  0
    1.7103    2.5642    0.1440 O   0  0  0  0  0  0  0  0  0  0  0  0
    4.0143   -1.2733   -4.0682 O   0  0  0  0  0  0  0  0  0  0  0  0
    4.4846   -0.2302   -2.1215 O   0  0  0  0  0  0  0  0  0  0  0  0
    3.0507   -0.4480    0.0925 H   0  0  0  0  0  0  0  0  0  0  0  0
    1.3232   -0.3504    0.3923 H   0  0  0  0  0  0  0  0  0  0  0  0
    1.5618   -1.0453   -3.2921 H   0  0  0  0  0  0  0  0  0  0  0  0
    2.1972   -1.8982   -1.8624 H   0  0  0  0  0  0  0  0  0  0  0  0
    1.3047    2.3173   -0.7211 H   0  0  0  0  0  0  0  0  0  0  0  0
    5.3684   -0.1958   -2.5355 H   0  0  0  0  0  0  0  0  0  0  0  0
  1 11  1  0  0  0  0
  1 12  1  0  0  0  0
  1  4  1  0  0  0  0
  2 14  1  0  0  0  0
  2  3  1  0  0  0  0
  3  1  1  0  0  0  0
  4  7  2  0  0  0  0
  5  2  1  0  0  0  0
  5 10  1  0  0  0  0
  6  3  2  0  0  0  0
  8  4  1  0  0  0  0
  9  5  2  0  0  0  0
 13  2  1  0  0  0  0
 15  8  1  0  0  0  0
 16 10  1  0  0  0  0
M  END
>  <HBA>
5

>  <HBD>
2

>  <TPSA>
91.67

>  <cid>
68328

>  <dipole>
3.89

>  <excitation_energy_1>
4.422

>  <excitation_energy_2>
4.969

>  <excitation_energy_3>
5.674

>  <excitation_energy_4>
5.738

>  <homo_energy>
-7.361

>  <homo_lumo_gap>
5.573

>  <logP>
-0.495

>  <lumo_energy>
-1.788

>  <melting_point>
149.81

>  <molecular_refractivity>
29.89

>  <oscillator_strength_1>
0.0061

>  <oscillator_strength_2>
0.0172

>  <oscillator_strength_3>
0.0012

>  <oscillator_strength_4>
0.0062

>  <open_babel_can_smiles>
O=C(CC(=O)O)CC(=O)O

>  <mulliken_charges>
16
1   -0.485709
2   -0.433938
3   0.478365
4   0.611178
5   0.593184
6   -0.460923
7   -0.446506
8   -0.576161
9   -0.431261
10   -0.559517
11   0.212125
12   0.215393
13   0.218094
14   0.202796
15   0.437885
16   0.424996

>  <lowdin_charges>
16
1   -0.353074
2   -0.322711
3   0.180752
4   0.190383
5   0.200646
6   -0.233445
7   -0.243797
8   -0.350835
9   -0.233714
10   -0.35005
11   0.192911
12   0.201423
13   0.198371
14   0.189926
15   0.361386
16   0.37183

$$$$

