PCCDB-ID:  59830
public computational chemistry database (PCCDB) project, http://pccdb.org

 27 27  0  0  1  0  0  0  0  0999 V2000
    3.1013   -0.3045   -1.6653 C   0  0  0  0  0  0  0  0  0  0  0  0
    2.9440   -0.4911    2.2660 C   0  0  0  0  0  0  0  0  0  0  0  0
    7.4203   -1.9640    0.4004 C   0  0  0  0  0  0  0  0  0  0  0  0
    6.2897   -2.7565    0.6064 C   0  0  0  0  0  0  0  0  0  0  0  0
    7.2816   -0.5771    0.3489 C   0  0  0  0  0  0  0  0  0  0  0  0
    5.0364   -2.1643    0.7599 C   0  0  0  0  0  0  0  0  0  0  0  0
    6.0263    0.0156    0.4993 C   0  0  0  0  0  0  0  0  0  0  0  0
    2.5300   -0.5906   -0.2740 C   0  0  1  0  0  0  0  0  0  0  0  0
    4.8854   -0.7700    0.7059 C   0  0  0  0  0  0  0  0  0  0  0  0
    3.5069   -0.1358    0.8756 C   0  0  2  0  0  0  0  0  0  0  0  0
    1.1899    0.0044   -0.2063 N   0  0  0  0  0  0  0  0  0  0  0  0
    3.6820    1.2867    0.8074 O   0  0  0  0  0  0  0  0  0  0  0  0
    4.0308   -0.8525   -1.8377 H   0  0  0  0  0  0  0  0  0  0  0  0
    3.3193    0.7642   -1.7743 H   0  0  0  0  0  0  0  0  0  0  0  0
    2.3718   -0.5930   -2.4275 H   0  0  0  0  0  0  0  0  0  0  0  0
    2.7877   -1.5685    2.3828 H   0  0  0  0  0  0  0  0  0  0  0  0
    1.9823    0.0082    2.4422 H   0  0  0  0  0  0  0  0  0  0  0  0
    3.6408   -0.1576    3.0401 H   0  0  0  0  0  0  0  0  0  0  0  0
    8.3981   -2.4237    0.2831 H   0  0  0  0  0  0  0  0  0  0  0  0
    6.3811   -3.8388    0.6505 H   0  0  0  0  0  0  0  0  0  0  0  0
    8.1543    0.0518    0.1910 H   0  0  0  0  0  0  0  0  0  0  0  0
    4.1707   -2.8012    0.9233 H   0  0  0  0  0  0  0  0  0  0  0  0
    5.9229    1.0932    0.4590 H   0  0  0  0  0  0  0  0  0  0  0  0
    2.3916   -1.6746   -0.1663 H   0  0  0  0  0  0  0  0  0  0  0  0
    1.2210    1.0035   -0.4024 H   0  0  0  0  0  0  0  0  0  0  0  0
    0.7485   -0.1298    0.7000 H   0  0  0  0  0  0  0  0  0  0  0  0
    2.8062    1.6762    0.9572 H   0  0  0  0  0  0  0  0  0  0  0  0
  1  8  1  0  0  0  0
  2 16  1  0  0  0  0
  2 17  1  0  0  0  0
  2 18  1  0  0  0  0
  3  4  1  0  0  0  0
  4 20  1  0  0  0  0
  4  6  2  0  0  0  0
  5  3  2  0  0  0  0
  5  7  1  0  0  0  0
  6 22  1  0  0  0  0
  7  9  2  0  0  0  0
  8 11  1  0  0  0  0
  8 24  1  1  0  0  0
  8 10  1  0  0  0  0
  9  6  1  0  0  0  0
  9 10  1  0  0  0  0
 10 12  1  6  0  0  0
 10  2  1  0  0  0  0
 11 26  1  0  0  0  0
 12 27  1  0  0  0  0
 13  1  1  0  0  0  0
 14  1  1  0  0  0  0
 15  1  1  0  0  0  0
 19  3  1  0  0  0  0
 21  5  1  0  0  0  0
 23  7  1  0  0  0  0
 25 11  1  0  0  0  0
M  END
>  <HBA>
2

>  <HBD>
2

>  <TPSA>
46.25

>  <cid>
59830

>  <dipole>
1.41

>  <excitation_energy_1>
5.228

>  <excitation_energy_2>
5.27

>  <excitation_energy_3>
5.596

>  <excitation_energy_4>
5.877

>  <homo_energy>
-6.106

>  <homo_lumo_gap>
6.196

>  <logP>
1.942

>  <lumo_energy>
0.09

>  <melting_point>
84.97

>  <molecular_refractivity>
49.58

>  <oscillator_strength_1>
0.0075

>  <oscillator_strength_2>
0.0171

>  <oscillator_strength_3>
0.1048

>  <oscillator_strength_4>
0.0144

>  <open_babel_can_smiles>
C[C@@H]([C@@](c1ccccc1)(O)C)N

>  <mulliken_charges>
27
1   -0.452617
2   -0.466951
3   -0.127391
4   -0.136521
5   -0.131676
6   -0.183595
7   -0.170907
8   0.023432
9   0.118578
10   0.251447
11   -0.723599
12   -0.652693
13   0.16157
14   0.146593
15   0.155647
16   0.14784
17   0.118006
18   0.168665
19   0.126265
20   0.126757
21   0.127434
22   0.122891
23   0.155815
24   0.128741
25   0.288072
26   0.300454
27   0.377743

>  <lowdin_charges>
27
1   -0.451141
2   -0.456471
3   -0.161567
4   -0.154484
5   -0.156369
6   -0.172593
7   -0.15941
8   -0.074082
9   -0.007151
10   0.106834
11   -0.547731
12   -0.455258
13   0.161846
14   0.149386
15   0.15869
16   0.152477
17   0.136784
18   0.165931
19   0.155963
20   0.154154
21   0.15712
22   0.153568
23   0.170197
24   0.139127
25   0.248067
26   0.253333
27   0.33278

$$$$

