PCCDB-ID:  41170
public computational chemistry database (PCCDB) project, http://pccdb.org

 19 18  0  0  1  0  0  0  0  0999 V2000
    1.4221   -0.2172    0.7719 C   0  0  0  0  0  0  0  0  0  0  0  0
    6.8857   -1.9239   -1.3350 C   0  0  0  0  0  0  0  0  0  0  0  0
    2.2837   -0.0631   -0.2343 C   0  0  0  0  0  0  0  0  0  0  0  0
    3.0534   -1.1738   -0.8950 C   0  0  0  0  0  0  0  0  0  0  0  0
    4.5782   -1.0027   -0.7683 C   0  0  0  0  0  0  0  0  0  0  0  0
    5.3738   -2.1435   -1.4189 C   0  0  2  0  0  0  0  0  0  0  0  0
    5.0107   -3.4155   -0.8709 O   0  0  0  0  0  0  0  0  0  0  0  0
    0.8979    0.6265    1.2134 H   0  0  0  0  0  0  0  0  0  0  0  0
    1.2038   -1.1978    1.1910 H   0  0  0  0  0  0  0  0  0  0  0  0
    7.1848   -0.9999   -1.8433 H   0  0  0  0  0  0  0  0  0  0  0  0
    7.4167   -2.7628   -1.7960 H   0  0  0  0  0  0  0  0  0  0  0  0
    7.2104   -1.8473   -0.2881 H   0  0  0  0  0  0  0  0  0  0  0  0
    2.4696    0.9414   -0.6206 H   0  0  0  0  0  0  0  0  0  0  0  0
    2.7964   -1.2111   -1.9652 H   0  0  0  0  0  0  0  0  0  0  0  0
    2.7640   -2.1415   -0.4712 H   0  0  0  0  0  0  0  0  0  0  0  0
    4.8512   -0.9395    0.2966 H   0  0  0  0  0  0  0  0  0  0  0  0
    4.8873   -0.0491   -1.2195 H   0  0  0  0  0  0  0  0  0  0  0  0
    5.0827   -2.2196   -2.4744 H   0  0  0  0  0  0  0  0  0  0  0  0
    5.2723   -3.4082    0.0647 H   0  0  0  0  0  0  0  0  0  0  0  0
  1  9  1  0  0  0  0
  1  8  1  0  0  0  0
  2 12  1  0  0  0  0
  3  1  2  0  0  0  0
  4  5  1  0  0  0  0
  4 15  1  0  0  0  0
  4  3  1  0  0  0  0
  5 16  1  0  0  0  0
  6 18  1  6  0  0  0
  6  2  1  0  0  0  0
  6  7  1  0  0  0  0
  6  5  1  0  0  0  0
  7 19  1  0  0  0  0
 10  2  1  0  0  0  0
 11  2  1  0  0  0  0
 13  3  1  0  0  0  0
 14  4  1  0  0  0  0
 17  5  1  0  0  0  0
M  END
>  <HBA>
1

>  <HBD>
1

>  <TPSA>
20.23

>  <cid>
41170

>  <dipole>
1.55

>  <excitation_energy_1>
6.441

>  <excitation_energy_2>
6.632

>  <excitation_energy_3>
6.778

>  <excitation_energy_4>
6.861

>  <homo_energy>
-6.762

>  <homo_lumo_gap>
7.461

>  <logP>
1.333

>  <lumo_energy>
0.699

>  <melting_point>
-28.54

>  <molecular_refractivity>
31.64

>  <oscillator_strength_1>
0.0365

>  <oscillator_strength_2>
0.0046

>  <oscillator_strength_3>
0.1625

>  <oscillator_strength_4>
0.0018

>  <open_babel_can_smiles>
C=CCC[C@H](O)C

>  <mulliken_charges>
19
1   -0.342173
2   -0.457108
3   -0.042342
4   -0.300524
5   -0.269614
6   0.137954
7   -0.618054
8   0.136235
9   0.134279
10   0.143594
11   0.159112
12   0.13209
13   0.12054
14   0.139972
15   0.153884
16   0.125322
17   0.130412
18   0.135405
19   0.381015

>  <lowdin_charges>
19
1   -0.34619
2   -0.460125
3   -0.144005
4   -0.271022
5   -0.289429
6   0.003332
7   -0.462956
8   0.1578
9   0.153171
10   0.153557
11   0.159643
12   0.142473
13   0.145929
14   0.14684
15   0.154301
16   0.136619
17   0.144437
18   0.139963
19   0.33566

$$$$

