PCCDB-ID:  62510
public computational chemistry database (PCCDB) project, http://pccdb.org

 14 14  0  0  0  0  0  0  0  0999 V2000
    1.0695    0.1843   -0.0267 C   0  0  0  0  0  0  0  0  0  0  0  0
    2.7960   -2.5640   -0.0244 C   0  0  0  0  0  0  0  0  0  0  0  0
    4.5923    0.9230   -0.0416 C   0  0  0  0  0  0  0  0  0  0  0  0
    2.5643    0.0319   -0.0316 C   0  0  0  0  0  0  0  0  0  0  0  0
    3.2758   -1.1427   -0.0309 C   0  0  0  0  0  0  0  0  0  0  0  0
    3.3245    1.1920   -0.0378 N   0  0  0  0  0  0  0  0  0  0  0  0
    4.9890   -0.7779   -0.0383 S   0  0  0  0  0  0  0  0  0  0  0  0
    0.5540   -0.7792   -0.0304 H   0  0  0  0  0  0  0  0  0  0  0  0
    0.7400    0.7521   -0.9045 H   0  0  0  0  0  0  0  0  0  0  0  0
    0.7442    0.7426    0.8589 H   0  0  0  0  0  0  0  0  0  0  0  0
    1.7034   -2.6002   -0.0314 H   0  0  0  0  0  0  0  0  0  0  0  0
    3.1400   -3.1051    0.8654 H   0  0  0  0  0  0  0  0  0  0  0  0
    3.1517   -3.1170   -0.9022 H   0  0  0  0  0  0  0  0  0  0  0  0
    5.3739    1.6744   -0.0467 H   0  0  0  0  0  0  0  0  0  0  0  0
  1 10  1  0  0  0  0
  2 12  1  0  0  0  0
  3  7  1  0  0  0  0
  3  6  2  0  0  0  0
  4  5  2  0  0  0  0
  4  1  1  0  0  0  0
  5  2  1  0  0  0  0
  6  4  1  0  0  0  0
  7  5  1  0  0  0  0
  8  1  1  0  0  0  0
  9  1  1  0  0  0  0
 11  2  1  0  0  0  0
 13  2  1  0  0  0  0
 14  3  1  0  0  0  0
M  END
>  <HBA>
2

>  <HBD>
0

>  <TPSA>
41.13

>  <cid>
62510

>  <dipole>
1.59

>  <excitation_energy_1>
5.259

>  <excitation_energy_2>
5.316

>  <excitation_energy_3>
5.343

>  <excitation_energy_4>
5.819

>  <homo_energy>
-6.294

>  <homo_lumo_gap>
5.804

>  <logP>
1.76

>  <lumo_energy>
-0.49

>  <melting_point>
26.73

>  <molecular_refractivity>
32.05

>  <oscillator_strength_1>
0.1135

>  <oscillator_strength_2>
0.0001

>  <oscillator_strength_3>
0.0005

>  <oscillator_strength_4>
0.0093

>  <open_babel_can_smiles>
Cc1scnc1C

>  <mulliken_charges>
14
1   -0.505985
2   -0.508394
3   -0.12554
4   0.277733
5   -0.149114
6   -0.386011
7   0.212555
8   0.14928
9   0.171156
10   0.171029
11   0.170363
12   0.172556
13   0.172379
14   0.177992

>  <lowdin_charges>
14
1   -0.43989
2   -0.435579
3   -0.237456
4   0.003216
5   -0.177842
6   -0.158752
7   0.277009
8   0.154939
9   0.168013
10   0.167842
11   0.164233
12   0.166251
13   0.166334
14   0.181681

$$$$

