PCCDB-ID:  26257
public computational chemistry database (PCCDB) project, http://pccdb.org

 36 35  0  0  0  0  0  0  0  0999 V2000
    0.7141   -3.5329    3.4387 C   0  0  0  0  0  0  0  0  0  0  0  0
    8.3334    3.2269   -2.6330 C   0  0  0  0  0  0  0  0  0  0  0  0
    2.2106   -3.3417    3.1703 C   0  0  0  0  0  0  0  0  0  0  0  0
    8.7298    1.7797   -2.3228 C   0  0  0  0  0  0  0  0  0  0  0  0
    2.8257   -2.2087    4.0045 C   0  0  0  0  0  0  0  0  0  0  0  0
    8.2624    1.3097   -0.9397 C   0  0  0  0  0  0  0  0  0  0  0  0
    4.3416   -2.0260    3.8305 C   0  0  0  0  0  0  0  0  0  0  0  0
    8.6633   -0.1401   -0.6320 C   0  0  0  0  0  0  0  0  0  0  0  0
    4.7543   -1.5644    2.4307 C   0  0  0  0  0  0  0  0  0  0  0  0
    8.2295   -0.6265    0.7542 C   0  0  0  0  0  0  0  0  0  0  0  0
    6.2389   -1.3039    2.2955 C   0  0  0  0  0  0  0  0  0  0  0  0
    6.7440   -0.8905    0.8861 C   0  0  0  0  0  0  0  0  0  0  0  0
    7.0363   -1.4014    3.2097 O   0  0  0  0  0  0  0  0  0  0  0  0
    5.9490   -0.8194   -0.0329 O   0  0  0  0  0  0  0  0  0  0  0  0
    0.2994   -4.3465    2.8330 H   0  0  0  0  0  0  0  0  0  0  0  0
    0.1501   -2.6218    3.2038 H   0  0  0  0  0  0  0  0  0  0  0  0
    0.5286   -3.7733    4.4928 H   0  0  0  0  0  0  0  0  0  0  0  0
    8.6791    3.5324   -3.6271 H   0  0  0  0  0  0  0  0  0  0  0  0
    8.7648    3.9221   -1.9021 H   0  0  0  0  0  0  0  0  0  0  0  0
    7.2441    3.3526   -2.6055 H   0  0  0  0  0  0  0  0  0  0  0  0
    2.3611   -3.1456    2.1001 H   0  0  0  0  0  0  0  0  0  0  0  0
    2.7448   -4.2780    3.3872 H   0  0  0  0  0  0  0  0  0  0  0  0
    9.8223    1.6759   -2.3918 H   0  0  0  0  0  0  0  0  0  0  0  0
    8.3114    1.1132   -3.0899 H   0  0  0  0  0  0  0  0  0  0  0  0
    2.6208   -2.4045    5.0664 H   0  0  0  0  0  0  0  0  0  0  0  0
    2.3131   -1.2644    3.7669 H   0  0  0  0  0  0  0  0  0  0  0  0
    7.1715    1.4080   -0.8737 H   0  0  0  0  0  0  0  0  0  0  0  0
    8.6845    1.9741   -0.1703 H   0  0  0  0  0  0  0  0  0  0  0  0
    4.8581   -2.9658    4.0662 H   0  0  0  0  0  0  0  0  0  0  0  0
    4.7074   -1.2959    4.5623 H   0  0  0  0  0  0  0  0  0  0  0  0
    9.7546   -0.2361   -0.7053 H   0  0  0  0  0  0  0  0  0  0  0  0
    8.2367   -0.8045   -1.3939 H   0  0  0  0  0  0  0  0  0  0  0  0
    4.2294   -0.6405    2.1433 H   0  0  0  0  0  0  0  0  0  0  0  0
    4.4722   -2.2854    1.6524 H   0  0  0  0  0  0  0  0  0  0  0  0
    8.5235    0.0777    1.5446 H   0  0  0  0  0  0  0  0  0  0  0  0
    8.7394   -1.5625    1.0260 H   0  0  0  0  0  0  0  0  0  0  0  0
  1 17  1  0  0  0  0
  2 20  1  0  0  0  0
  2  4  1  0  0  0  0
  2 19  1  0  0  0  0
  3 22  1  0  0  0  0
  3  1  1  0  0  0  0
  3  5  1  0  0  0  0
  4  6  1  0  0  0  0
  5 25  1  0  0  0  0
  6 27  1  0  0  0  0
  6  8  1  0  0  0  0
  6 28  1  0  0  0  0
  7  5  1  0  0  0  0
  7 29  1  0  0  0  0
  7 30  1  0  0  0  0
  8 10  1  0  0  0  0
  9  7  1  0  0  0  0
 10 12  1  0  0  0  0
 10 36  1  0  0  0  0
 10 35  1  0  0  0  0
 11  9  1  0  0  0  0
 11 13  2  0  0  0  0
 12 11  1  0  0  0  0
 14 12  2  0  0  0  0
 15  1  1  0  0  0  0
 16  1  1  0  0  0  0
 18  2  1  0  0  0  0
 21  3  1  0  0  0  0
 23  4  1  0  0  0  0
 24  4  1  0  0  0  0
 26  5  1  0  0  0  0
 31  8  1  0  0  0  0
 32  8  1  0  0  0  0
 33  9  1  0  0  0  0
 34  9  1  0  0  0  0
M  END
>  <HBA>
2

>  <HBD>
0

>  <TPSA>
34.14

>  <cid>
26257

>  <dipole>
0.16

>  <excitation_energy_1>
2.655

>  <excitation_energy_2>
4.48

>  <excitation_energy_3>
5.47

>  <excitation_energy_4>
5.539

>  <homo_energy>
-6.485

>  <homo_lumo_gap>
4.248

>  <logP>
3.285

>  <lumo_energy>
-2.237

>  <melting_point>
12.23

>  <molecular_refractivity>
60.2

>  <oscillator_strength_1>
0.0

>  <oscillator_strength_2>
0.0

>  <oscillator_strength_3>
0.0013

>  <oscillator_strength_4>
0.0116

>  <open_babel_can_smiles>
CCCCCC(=O)C(=O)CCCCC

>  <mulliken_charges>
36
1   -0.441496
2   -0.44245
3   -0.252421
4   -0.247668
5   -0.252249
6   -0.253365
7   -0.253084
8   -0.252366
9   -0.3563
10   -0.357036
11   0.389387
12   0.392705
13   -0.433701
14   -0.436122
15   0.143382
16   0.14267
17   0.142581
18   0.141914
19   0.140291
20   0.143804
21   0.135873
22   0.131681
23   0.12838
24   0.135049
25   0.132411
26   0.127186
27   0.148497
28   0.122667
29   0.143377
30   0.147943
31   0.132311
32   0.148353
33   0.173848
34   0.180764
35   0.176163
36   0.177024

>  <lowdin_charges>
36
1   -0.443914
2   -0.443141
3   -0.273801
4   -0.270175
5   -0.273965
6   -0.277242
7   -0.273504
8   -0.272368
9   -0.308306
10   -0.307206
11   0.13448
12   0.135478
13   -0.209238
14   -0.211717
15   0.151139
16   0.147342
17   0.145487
18   0.14897
19   0.146803
20   0.145578
21   0.137975
22   0.13941
23   0.135425
24   0.142329
25   0.141696
26   0.137722
27   0.145401
28   0.135859
29   0.147976
30   0.153514
31   0.142535
32   0.152048
33   0.172342
34   0.174789
35   0.17388
36   0.176398

$$$$

