PCCDB-ID:  65287
public computational chemistry database (PCCDB) project, http://pccdb.org

 34 34  0  0  0  0  0  0  0  0999 V2000
    3.6351   -6.0018    1.8804 C   0  0  0  0  0  0  0  0  0  0  0  0
    3.5997   -5.3234    0.5000 C   0  0  0  0  0  0  0  0  0  0  0  0
    4.5901   -4.1968    0.3786 C   0  0  0  0  0  0  0  0  0  0  0  0
    5.6004   -4.1458   -0.4939 C   0  0  0  0  0  0  0  0  0  0  0  0
    8.1172   -8.4862   -2.5364 C   0  0  0  0  0  0  0  0  0  0  0  0
    9.2743   -7.7264   -2.3513 C   0  0  0  0  0  0  0  0  0  0  0  0
    7.0703   -7.9734   -3.3036 C   0  0  0  0  0  0  0  0  0  0  0  0
    6.5935   -3.0194   -0.5953 C   0  0  0  0  0  0  0  0  0  0  0  0
    9.3831   -6.4625   -2.9311 C   0  0  0  0  0  0  0  0  0  0  0  0
    7.1802   -6.7076   -3.8826 C   0  0  0  0  0  0  0  0  0  0  0  0
    6.6117   -2.3368   -1.9672 C   0  0  0  0  0  0  0  0  0  0  0  0
    8.4587   -4.5539   -4.3153 C   0  0  0  0  0  0  0  0  0  0  0  0
    8.3382   -5.9416   -3.7061 C   0  0  0  0  0  0  0  0  0  0  0  0
    8.2612   -3.4813   -3.2535 C   0  0  0  0  0  0  0  0  0  0  0  0
    9.1594   -2.9145   -2.6694 O   0  0  0  0  0  0  0  0  0  0  0  0
    6.9464   -3.2705   -3.0226 O   0  0  0  0  0  0  0  0  0  0  0  0
    2.8828   -6.7960    1.9490 H   0  0  0  0  0  0  0  0  0  0  0  0
    3.4329   -5.2801    2.6812 H   0  0  0  0  0  0  0  0  0  0  0  0
    4.6184   -6.4449    2.0731 H   0  0  0  0  0  0  0  0  0  0  0  0
    2.5840   -4.9376    0.3242 H   0  0  0  0  0  0  0  0  0  0  0  0
    3.7903   -6.0670   -0.2841 H   0  0  0  0  0  0  0  0  0  0  0  0
    4.4615   -3.3741    1.0871 H   0  0  0  0  0  0  0  0  0  0  0  0
    5.7375   -4.9670   -1.1985 H   0  0  0  0  0  0  0  0  0  0  0  0
    8.0340   -9.4728   -2.0885 H   0  0  0  0  0  0  0  0  0  0  0  0
   10.0938   -8.1177   -1.7542 H   0  0  0  0  0  0  0  0  0  0  0  0
    6.1673   -8.5590   -3.4555 H   0  0  0  0  0  0  0  0  0  0  0  0
    7.6099   -3.3814   -0.3897 H   0  0  0  0  0  0  0  0  0  0  0  0
    6.3723   -2.2496    0.1560 H   0  0  0  0  0  0  0  0  0  0  0  0
   10.2818   -5.8694   -2.7804 H   0  0  0  0  0  0  0  0  0  0  0  0
    6.3625   -6.3119   -4.4799 H   0  0  0  0  0  0  0  0  0  0  0  0
    7.3320   -1.5151   -1.9821 H   0  0  0  0  0  0  0  0  0  0  0  0
    5.6192   -1.9677   -2.2363 H   0  0  0  0  0  0  0  0  0  0  0  0
    7.7146   -4.4216   -5.1061 H   0  0  0  0  0  0  0  0  0  0  0  0
    9.4554   -4.4043   -4.7394 H   0  0  0  0  0  0  0  0  0  0  0  0
  1 17  1  0  0  0  0
  1 19  1  0  0  0  0
  1 18  1  0  0  0  0
  2  1  1  0  0  0  0
  3  2  1  0  0  0  0
  3 22  1  0  0  0  0
  4  3  2  0  0  0  0
  5  6  1  0  0  0  0
  5 24  1  0  0  0  0
  6 25  1  0  0  0  0
  7  5  2  0  0  0  0
  8  4  1  0  0  0  0
  8 27  1  0  0  0  0
  8 28  1  0  0  0  0
  9 29  1  0  0  0  0
  9  6  2  0  0  0  0
 10 13  2  0  0  0  0
 10  7  1  0  0  0  0
 11  8  1  0  0  0  0
 12 13  1  0  0  0  0
 12 14  1  0  0  0  0
 13  9  1  0  0  0  0
 14 16  1  0  0  0  0
 14 15  2  0  0  0  0
 16 11  1  0  0  0  0
 20  2  1  0  0  0  0
 21  2  1  0  0  0  0
 23  4  1  0  0  0  0
 26  7  1  0  0  0  0
 30 10  1  0  0  0  0
 31 11  1  0  0  0  0
 32 11  1  0  0  0  0
 33 12  1  0  0  0  0
 34 12  1  0  0  0  0
M  END
>  <HBA>
2

>  <HBD>
0

>  <TPSA>
26.3

>  <cid>
65287

>  <dipole>
1.79

>  <excitation_energy_1>
5.237

>  <excitation_energy_2>
5.364

>  <excitation_energy_3>
5.474

>  <excitation_energy_4>
5.708

>  <homo_energy>
-6.49

>  <homo_lumo_gap>
6.185

>  <logP>
3.129

>  <lumo_energy>
-0.305

>  <melting_point>
24.73

>  <molecular_refractivity>
65.87

>  <oscillator_strength_1>
0.0013

>  <oscillator_strength_2>
0.0377

>  <oscillator_strength_3>
0.0211

>  <oscillator_strength_4>
0.0002

>  <open_babel_can_smiles>
CC/C=C/CCOC(=O)Cc1ccccc1

>  <mulliken_charges>
34
1   -0.439538
2   -0.294862
3   -0.091683
4   -0.096326
5   -0.128785
6   -0.127617
7   -0.129988
8   -0.336831
9   -0.171319
10   -0.175352
11   -0.049363
12   -0.422416
13   0.149598
14   0.62103
15   -0.473144
16   -0.456037
17   0.142261
18   0.142517
19   0.151358
20   0.139994
21   0.140126
22   0.112567
23   0.136956
24   0.130875
25   0.133041
26   0.131204
27   0.172874
28   0.143287
29   0.143258
30   0.131005
31   0.169162
32   0.154897
33   0.169447
34   0.177804

>  <lowdin_charges>
34
1   -0.443754
2   -0.268238
3   -0.167029
4   -0.174284
5   -0.15642
6   -0.153059
7   -0.155674
8   -0.282483
9   -0.161897
10   -0.165708
11   -0.130828
12   -0.293827
13   -0.001536
14   0.202718
15   -0.269315
16   -0.194076
17   0.149644
18   0.147703
19   0.150934
20   0.145818
21   0.14728
22   0.143036
23   0.155549
24   0.157715
25   0.16024
26   0.158788
27   0.163218
28   0.154989
29   0.164413
30   0.159381
31   0.160139
32   0.153583
33   0.16993
34   0.173051

$$$$

