PCCDB-ID:  41378
public computational chemistry database (PCCDB) project, http://pccdb.org

 31 32  0  0  0  0  0  0  0  0999 V2000
   -1.5274   -0.0458    0.8610 C   0  0  0  0  0  0  0  0  0  0  0  0
    4.8679   -3.3983   -0.6623 C   0  0  0  0  0  0  0  0  0  0  0  0
   -0.5343   -0.6799    1.6123 C   0  0  0  0  0  0  0  0  0  0  0  0
   -1.1716    0.6805   -0.2756 C   0  0  0  0  0  0  0  0  0  0  0  0
    3.5264   -3.3526   -1.0465 C   0  0  0  0  0  0  0  0  0  0  0  0
    5.4704   -2.2527   -0.1388 C   0  0  0  0  0  0  0  0  0  0  0  0
    0.8023   -0.5864    1.2295 C   0  0  0  0  0  0  0  0  0  0  0  0
    0.1687    0.7794   -0.6536 C   0  0  0  0  0  0  0  0  0  0  0  0
    2.7960   -2.1728   -0.9116 C   0  0  0  0  0  0  0  0  0  0  0  0
    4.7398   -1.0731   -0.0053 C   0  0  0  0  0  0  0  0  0  0  0  0
    3.2190    1.4451   -0.5530 C   0  0  0  0  0  0  0  0  0  0  0  0
    2.6641    2.8342   -0.3953 C   0  0  0  0  0  0  0  0  0  0  0  0
    1.1795    0.1571    0.0970 C   0  0  0  0  0  0  0  0  0  0  0  0
    3.3918   -1.0068   -0.3994 C   0  0  0  0  0  0  0  0  0  0  0  0
    2.6165    0.2647   -0.2929 C   0  0  0  0  0  0  0  0  0  0  0  0
    3.6655    3.6757    0.2851 N   0  0  0  0  0  0  0  0  0  0  0  0
   -2.5703   -0.1244    1.1563 H   0  0  0  0  0  0  0  0  0  0  0  0
    5.4358   -4.3194   -0.7619 H   0  0  0  0  0  0  0  0  0  0  0  0
   -0.8024   -1.2505    2.4977 H   0  0  0  0  0  0  0  0  0  0  0  0
   -1.9375    1.1659   -0.8751 H   0  0  0  0  0  0  0  0  0  0  0  0
    3.0458   -4.2381   -1.4544 H   0  0  0  0  0  0  0  0  0  0  0  0
    6.5095   -2.2801    0.1794 H   0  0  0  0  0  0  0  0  0  0  0  0
    1.5689   -1.0864    1.8149 H   0  0  0  0  0  0  0  0  0  0  0  0
    0.4377    1.3277   -1.5520 H   0  0  0  0  0  0  0  0  0  0  0  0
    1.7540   -2.1478   -1.2167 H   0  0  0  0  0  0  0  0  0  0  0  0
    5.2097   -0.1948    0.4278 H   0  0  0  0  0  0  0  0  0  0  0  0
    4.2561    1.4333   -0.8835 H   0  0  0  0  0  0  0  0  0  0  0  0
    1.6826    2.8081    0.1018 H   0  0  0  0  0  0  0  0  0  0  0  0
    2.5035    3.2797   -1.3885 H   0  0  0  0  0  0  0  0  0  0  0  0
    3.7564    3.3675    1.2527 H   0  0  0  0  0  0  0  0  0  0  0  0
    3.3291    4.6368    0.3253 H   0  0  0  0  0  0  0  0  0  0  0  0
  1 17  1  0  0  0  0
  1  3  2  0  0  0  0
  2  6  2  0  0  0  0
  3 19  1  0  0  0  0
  4  1  1  0  0  0  0
  5  9  2  0  0  0  0
  5  2  1  0  0  0  0
  6 10  1  0  0  0  0
  6 22  1  0  0  0  0
  7  3  1  0  0  0  0
  7 23  1  0  0  0  0
  8  4  2  0  0  0  0
  8 13  1  0  0  0  0
  9 14  1  0  0  0  0
 10 26  1  0  0  0  0
 11 12  1  0  0  0  0
 11 15  2  0  0  0  0
 12 28  1  0  0  0  0
 12 16  1  0  0  0  0
 13  7  2  0  0  0  0
 14 15  1  0  0  0  0
 14 10  2  0  0  0  0
 15 13  1  0  0  0  0
 16 31  1  0  0  0  0
 16 30  1  0  0  0  0
 18  2  1  0  0  0  0
 20  4  1  0  0  0  0
 21  5  1  0  0  0  0
 24  8  1  0  0  0  0
 25  9  1  0  0  0  0
 27 11  1  0  0  0  0
 29 12  1  0  0  0  0
M  END
>  <HBA>
1

>  <HBD>
1

>  <TPSA>
26.02

>  <cid>
41378

>  <dipole>
1.6

>  <excitation_energy_1>
4.515

>  <excitation_energy_2>
4.69

>  <excitation_energy_3>
4.832

>  <excitation_energy_4>
4.892

>  <homo_energy>
-5.788

>  <homo_lumo_gap>
5.059

>  <logP>
3.777

>  <lumo_energy>
-0.729

>  <melting_point>
101.63

>  <molecular_refractivity>
68.53

>  <oscillator_strength_1>
0.1733

>  <oscillator_strength_2>
0.0061

>  <oscillator_strength_3>
0.0411

>  <oscillator_strength_4>
0.1449

>  <open_babel_can_smiles>
NCC=C(c1ccccc1)c1ccccc1

>  <mulliken_charges>
31
1   -0.127024
2   -0.128125
3   -0.133986
4   -0.134274
5   -0.132017
6   -0.132706
7   -0.163512
8   -0.174325
9   -0.175807
10   -0.179175
11   -0.156463
12   -0.18773
13   0.070111
14   0.099555
15   0.027354
16   -0.717928
17   0.129615
18   0.127704
19   0.13094
20   0.130083
21   0.128762
22   0.12879
23   0.139243
24   0.135579
25   0.138314
26   0.133117
27   0.145122
28   0.138707
29   0.149006
30   0.295157
31   0.295913

>  <lowdin_charges>
31
1   -0.156032
2   -0.159165
3   -0.156621
4   -0.160454
5   -0.157624
6   -0.155019
7   -0.156591
8   -0.162181
9   -0.157118
10   -0.162486
11   -0.168885
12   -0.207994
13   -0.005606
14   -0.003712
15   -0.01883
16   -0.555698
17   0.156539
18   0.157228
19   0.158405
20   0.15922
21   0.157844
22   0.155887
23   0.164581
24   0.160727
25   0.161575
26   0.160835
27   0.162123
28   0.135159
29   0.149105
30   0.25159
31   0.253197

$$$$

