PCCDB-ID:  54308
public computational chemistry database (PCCDB) project, http://pccdb.org

 35 36  0  0  0  0  0  0  0  0999 V2000
    4.7738   -1.5352   -1.1088 C   0  0  0  0  0  0  0  0  0  0  0  0
    2.6033   -0.5913   -0.2615 C   0  0  0  0  0  0  0  0  0  0  0  0
    4.7680    0.1782    0.7479 C   0  0  0  0  0  0  0  0  0  0  0  0
    5.9453    4.1668   -7.4081 C   0  0  0  0  0  0  0  0  0  0  0  0
    7.0783    5.0046   -7.3789 C   0  0  0  0  0  0  0  0  0  0  0  0
    5.5536    3.4378   -6.2913 C   0  0  0  0  0  0  0  0  0  0  0  0
    7.8482    5.1334   -6.2282 C   0  0  0  0  0  0  0  0  0  0  0  0
    7.2751    3.4747   -3.0607 C   0  0  0  0  0  0  0  0  0  0  0  0
    5.3422    1.4046   -1.9353 C   0  0  0  0  0  0  0  0  0  0  0  0
    6.3141    3.5486   -5.1159 C   0  0  0  0  0  0  0  0  0  0  0  0
    6.2171    2.9632   -3.7925 C   0  0  0  0  0  0  0  0  0  0  0  0
    7.4492    4.3968   -5.1100 C   0  0  0  0  0  0  0  0  0  0  0  0
    5.2065    2.0088   -3.3395 C   0  0  0  0  0  0  0  0  0  0  0  0
    4.0791   -0.2700   -0.5528 C   0  0  0  0  0  0  0  0  0  0  0  0
    8.0092    4.3238   -3.8407 N   0  0  0  0  0  0  0  0  0  0  0  0
    4.0713    0.8558   -1.5065 N   0  0  0  0  0  0  0  0  0  0  0  0
    4.2836    1.6534   -4.0683 O   0  0  0  0  0  0  0  0  0  0  0  0
    4.7314   -2.3587   -0.3857 H   0  0  0  0  0  0  0  0  0  0  0  0
    5.8312   -1.3557   -1.3352 H   0  0  0  0  0  0  0  0  0  0  0  0
    4.2837   -1.8707   -2.0309 H   0  0  0  0  0  0  0  0  0  0  0  0
    2.5136   -1.4129    0.4583 H   0  0  0  0  0  0  0  0  0  0  0  0
    2.0816   -0.8928   -1.1788 H   0  0  0  0  0  0  0  0  0  0  0  0
    2.0942    0.2896    0.1424 H   0  0  0  0  0  0  0  0  0  0  0  0
    4.6908   -0.6019    1.5138 H   0  0  0  0  0  0  0  0  0  0  0  0
    4.2982    1.0902    1.1318 H   0  0  0  0  0  0  0  0  0  0  0  0
    5.8342    0.3818    0.5929 H   0  0  0  0  0  0  0  0  0  0  0  0
    5.3673    4.0911   -8.3250 H   0  0  0  0  0  0  0  0  0  0  0  0
    7.3561    5.5603   -8.2702 H   0  0  0  0  0  0  0  0  0  0  0  0
    4.6815    2.7950   -6.3076 H   0  0  0  0  0  0  0  0  0  0  0  0
    8.7227    5.7782   -6.2025 H   0  0  0  0  0  0  0  0  0  0  0  0
    7.5604    3.2941   -2.0340 H   0  0  0  0  0  0  0  0  0  0  0  0
    5.6932    2.1731   -1.2334 H   0  0  0  0  0  0  0  0  0  0  0  0
    6.1606    0.6609   -2.0087 H   0  0  0  0  0  0  0  0  0  0  0  0
    8.8260    4.8307   -3.5344 H   0  0  0  0  0  0  0  0  0  0  0  0
    3.5536    0.6034   -2.3483 H   0  0  0  0  0  0  0  0  0  0  0  0
  1 14  1  0  0  0  0
  1 18  1  0  0  0  0
  2 23  1  0  0  0  0
  2 21  1  0  0  0  0
  3 25  1  0  0  0  0
  3 24  1  0  0  0  0
  4  5  2  0  0  0  0
  4  6  1  0  0  0  0
  5  7  1  0  0  0  0
  6 10  2  0  0  0  0
  7 30  1  0  0  0  0
  7 12  2  0  0  0  0
  8 31  1  0  0  0  0
  9 16  1  0  0  0  0
  9 32  1  0  0  0  0
 10 12  1  0  0  0  0
 10 11  1  0  0  0  0
 11 13  1  0  0  0  0
 11  8  2  0  0  0  0
 12 15  1  0  0  0  0
 13  9  1  0  0  0  0
 14  2  1  0  0  0  0
 14  3  1  0  0  0  0
 15 34  1  0  0  0  0
 15  8  1  0  0  0  0
 16 14  1  0  0  0  0
 17 13  2  0  0  0  0
 19  1  1  0  0  0  0
 20  1  1  0  0  0  0
 22  2  1  0  0  0  0
 26  3  1  0  0  0  0
 27  4  1  0  0  0  0
 28  5  1  0  0  0  0
 29  6  1  0  0  0  0
 33  9  1  0  0  0  0
 35 16  1  0  0  0  0
M  END
>  <HBA>
2

>  <HBD>
2

>  <TPSA>
44.89

>  <cid>
54308

>  <dipole>
4.91

>  <excitation_energy_1>
3.676

>  <excitation_energy_2>
4.115

>  <excitation_energy_3>
4.39

>  <excitation_energy_4>
4.515

>  <homo_energy>
-5.548

>  <homo_lumo_gap>
4.493

>  <logP>
3.13

>  <lumo_energy>
-1.056

>  <melting_point>
166.37

>  <molecular_refractivity>
70.56

>  <oscillator_strength_1>
0.0255

>  <oscillator_strength_2>
0.0028

>  <oscillator_strength_3>
0.138

>  <oscillator_strength_4>
0.0324

>  <open_babel_can_smiles>
O=C(c1c[nH]c2c1cccc2)CNC(C)(C)C

>  <mulliken_charges>
35
1   -0.44606
2   -0.442999
3   -0.440842
4   -0.141206
5   -0.146386
6   -0.194445
7   -0.162725
8   0.016363
9   -0.18493
10   0.083597
11   0.008797
12   0.309616
13   0.384425
14   0.212453
15   -0.690103
16   -0.576893
17   -0.499485
18   0.136958
19   0.136096
20   0.140732
21   0.134562
22   0.137202
23   0.153147
24   0.137815
25   0.150846
26   0.132725
27   0.128184
28   0.127936
29   0.16515
30   0.125146
31   0.167768
32   0.144741
33   0.139991
34   0.335179
35   0.316646

>  <lowdin_charges>
35
1   -0.45877
2   -0.444992
3   -0.446608
4   -0.168849
5   -0.158355
6   -0.148098
7   -0.185828
8   -0.100293
9   -0.234737
10   -0.016674
11   -0.098671
12   0.029905
13   0.160583
14   0.071895
15   -0.179261
16   -0.363791
17   -0.26567
18   0.149081
19   0.143038
20   0.148871
21   0.147058
22   0.147207
23   0.156172
24   0.149626
25   0.154595
26   0.141941
27   0.158396
28   0.158566
29   0.177671
30   0.157259
31   0.17213
32   0.146388
33   0.139989
34   0.296258
35   0.263968

$$$$

