PCCDB-ID:  69194
public computational chemistry database (PCCDB) project, http://pccdb.org

 17 17  0  0  0  0  0  0  0  0999 V2000
    0.7864   -0.6576   -0.1295 C   0  0  0  0  0  0  0  0  0  0  0  0
    4.5764   -1.1334   -0.3704 C   0  0  0  0  0  0  0  0  0  0  0  0
    5.0420    0.1423   -0.0498 C   0  0  0  0  0  0  0  0  0  0  0  0
    3.2039   -1.3832   -0.3952 C   0  0  0  0  0  0  0  0  0  0  0  0
    4.1350    1.1572    0.2436 C   0  0  0  0  0  0  0  0  0  0  0  0
    1.7656    3.0643    0.8210 C   0  0  0  0  0  0  0  0  0  0  0  0
    2.2689   -0.3842   -0.1051 C   0  0  0  0  0  0  0  0  0  0  0  0
    2.7585    0.8960    0.2169 C   0  0  0  0  0  0  0  0  0  0  0  0
    1.8250    1.8984    0.5095 N   0  0  0  0  0  0  0  0  0  0  0  0
    1.5670    4.1863    1.1246 O   0  0  0  0  0  0  0  0  0  0  0  0
    0.5846   -1.6851   -0.4460 H   0  0  0  0  0  0  0  0  0  0  0  0
    0.2659    0.0215   -0.8147 H   0  0  0  0  0  0  0  0  0  0  0  0
    0.3366   -0.5105    0.8598 H   0  0  0  0  0  0  0  0  0  0  0  0
    5.2775   -1.9303   -0.6013 H   0  0  0  0  0  0  0  0  0  0  0  0
    6.1079    0.3508   -0.0273 H   0  0  0  0  0  0  0  0  0  0  0  0
    2.8428   -2.3775   -0.6461 H   0  0  0  0  0  0  0  0  0  0  0  0
    4.4826    2.1554    0.4952 H   0  0  0  0  0  0  0  0  0  0  0  0
  1  7  1  0  0  0  0
  1 13  1  0  0  0  0
  2  3  1  0  0  0  0
  3 15  1  0  0  0  0
  3  5  2  0  0  0  0
  4  2  2  0  0  0  0
  4  7  1  0  0  0  0
  5 17  1  0  0  0  0
  6 10  2  0  0  0  0
  7  8  2  0  0  0  0
  8  5  1  0  0  0  0
  8  9  1  0  0  0  0
  9  6  2  0  0  0  0
 11  1  1  0  0  0  0
 12  1  1  0  0  0  0
 14  2  1  0  0  0  0
 16  4  1  0  0  0  0
M  END
>  <HBA>
2

>  <HBD>
0

>  <TPSA>
29.43

>  <cid>
69194

>  <dipole>
2.33

>  <excitation_energy_1>
4.96

>  <excitation_energy_2>
5.21

>  <excitation_energy_3>
5.368

>  <excitation_energy_4>
5.98

>  <homo_energy>
-6.319

>  <homo_lumo_gap>
5.725

>  <logP>
1.962

>  <lumo_energy>
-0.593

>  <melting_point>
66.3

>  <molecular_refractivity>
39.19

>  <oscillator_strength_1>
0.0256

>  <oscillator_strength_2>
0.0008

>  <oscillator_strength_3>
0.204

>  <oscillator_strength_4>
0.0028

>  <open_babel_can_smiles>
O=C=Nc1ccccc1C

>  <mulliken_charges>
17
1   -0.517951
2   -0.116852
3   -0.147849
4   -0.198381
5   -0.138763
6   0.587079
7   0.165494
8   0.229343
9   -0.494427
10   -0.399112
11   0.153581
12   0.170503
13   0.170193
14   0.132967
15   0.136523
16   0.129391
17   0.138261

>  <lowdin_charges>
17
1   -0.438848
2   -0.160253
3   -0.152076
4   -0.159884
5   -0.169224
6   0.183358
7   -0.004972
8   0.052652
9   -0.137727
10   -0.145303
11   0.156674
12   0.167614
13   0.165719
14   0.161565
15   0.160254
16   0.157944
17   0.162507

$$$$

