PCCDB-ID:  9245
public computational chemistry database (PCCDB) project, http://pccdb.org

 19 20  0  0  1  0  0  0  0  0999 V2000
   -1.5793    0.7894    0.1477 C   0  0  0  0  0  0  0  0  0  0  0  0
   -0.3897    1.5638   -0.4336 C   0  0  0  0  0  0  0  0  0  0  0  0
   -1.4303   -0.7264   -0.0716 C   0  0  0  0  0  0  0  0  0  0  0  0
    0.9087    1.2022    0.3076 C   0  0  0  0  0  0  0  0  0  0  0  0
    1.0722   -1.2225   -0.7409 C   0  0  0  0  0  0  0  0  0  0  0  0
   -0.0382   -1.2585    0.2873 C   0  0  1  0  0  0  0  0  0  0  0  0
    1.1286   -0.2974    0.4479 C   0  0  2  0  0  0  0  0  0  0  0  0
   -2.5210    1.1366   -0.2961 H   0  0  0  0  0  0  0  0  0  0  0  0
   -1.6431    0.9991    1.2253 H   0  0  0  0  0  0  0  0  0  0  0  0
   -0.5607    2.6449   -0.3595 H   0  0  0  0  0  0  0  0  0  0  0  0
   -0.2941    1.3413   -1.5062 H   0  0  0  0  0  0  0  0  0  0  0  0
   -1.6557   -0.9598   -1.1218 H   0  0  0  0  0  0  0  0  0  0  0  0
   -2.1848   -1.2555    0.5231 H   0  0  0  0  0  0  0  0  0  0  0  0
    0.8585    1.6381    1.3161 H   0  0  0  0  0  0  0  0  0  0  0  0
    1.7732    1.6663   -0.1871 H   0  0  0  0  0  0  0  0  0  0  0  0
    0.8349   -0.7990   -1.7151 H   0  0  0  0  0  0  0  0  0  0  0  0
    1.7737   -2.0521   -0.7832 H   0  0  0  0  0  0  0  0  0  0  0  0
   -0.0356   -2.1209    0.9508 H   0  0  0  0  0  0  0  0  0  0  0  0
    1.8591   -0.5654    1.2100 H   0  0  0  0  0  0  0  0  0  0  0  0
  1  9  1  0  0  0  0
  2 10  1  0  0  0  0
  2  1  1  0  0  0  0
  2  4  1  0  0  0  0
  3  1  1  0  0  0  0
  3  6  1  0  0  0  0
  3 13  1  0  0  0  0
  4  7  1  0  0  0  0
  4 14  1  0  0  0  0
  5  6  1  0  0  0  0
  5  7  1  0  0  0  0
  6  7  1  0  0  0  0
  6 18  1  1  0  0  0
  7 19  1  1  0  0  0
  8  1  1  0  0  0  0
 11  2  1  0  0  0  0
 12  3  1  0  0  0  0
 15  4  1  0  0  0  0
 16  5  1  0  0  0  0
 17  5  1  0  0  0  0
M  END
>  <HBA>
0

>  <HBD>
0

>  <TPSA>
0.0

>  <cid>
9245

>  <dipole>
0.16

>  <excitation_energy_1>
6.484

>  <excitation_energy_2>
6.694

>  <excitation_energy_3>
6.962

>  <excitation_energy_4>
7.035

>  <homo_energy>
-7.021

>  <homo_lumo_gap>
9.306

>  <logP>
2.196

>  <lumo_energy>
2.286

>  <melting_point>
17.93

>  <molecular_refractivity>
31.54

>  <oscillator_strength_1>
0.0024

>  <oscillator_strength_2>
0.0029

>  <oscillator_strength_3>
0.0129

>  <oscillator_strength_4>
0.0259

>  <open_babel_can_smiles>
C1CC[C@H]2[C@@H](C1)C2

>  <mulliken_charges>
19
1   -0.251864
2   -0.275639
3   -0.268845
4   -0.251922
5   -0.320505
6   -0.116402
7   -0.111998
8   0.12753
9   0.129936
10   0.131765
11   0.130265
12   0.134443
13   0.132807
14   0.129428
15   0.13187
16   0.143968
17   0.142588
18   0.132513
19   0.130062

>  <lowdin_charges>
19
1   -0.273435
2   -0.277278
3   -0.273871
4   -0.269743
5   -0.323768
6   -0.162555
7   -0.157408
8   0.141929
9   0.136546
10   0.142993
11   0.135445
12   0.139526
13   0.148324
14   0.140526
15   0.143844
16   0.151954
17   0.156316
18   0.150572
19   0.150081

$$$$

