PCCDB-ID:  61295
public computational chemistry database (PCCDB) project, http://pccdb.org

 17 16  0  0  0  0  0  0  0  0999 V2000
    0.9635    0.0509    0.1399 C   0  0  0  0  0  0  0  0  0  0  0  0
    6.6621    1.5921   -3.0867 C   0  0  0  0  0  0  0  0  0  0  0  0
    2.4969    0.0395    0.1162 C   0  0  0  0  0  0  0  0  0  0  0  0
    3.0442    0.6811   -1.1607 C   0  0  0  0  0  0  0  0  0  0  0  0
    5.1894    1.4549   -2.7497 C   0  0  0  0  0  0  0  0  0  0  0  0
    4.2917    1.8362   -3.4675 O   0  0  0  0  0  0  0  0  0  0  0  0
    4.8843    0.6541   -1.1596 S   0  0  0  0  0  0  0  0  0  0  0  0
    0.5841   -0.4106    1.0582 H   0  0  0  0  0  0  0  0  0  0  0  0
    0.5484   -0.5039   -0.7098 H   0  0  0  0  0  0  0  0  0  0  0  0
    0.5729    1.0743    0.0931 H   0  0  0  0  0  0  0  0  0  0  0  0
    6.7580    2.1250   -4.0351 H   0  0  0  0  0  0  0  0  0  0  0  0
    7.1258    0.6031   -3.1725 H   0  0  0  0  0  0  0  0  0  0  0  0
    7.1899    2.1393   -2.2984 H   0  0  0  0  0  0  0  0  0  0  0  0
    2.8602   -0.9930    0.1950 H   0  0  0  0  0  0  0  0  0  0  0  0
    2.8839    0.5748    0.9925 H   0  0  0  0  0  0  0  0  0  0  0  0
    2.7247    1.7230   -1.2535 H   0  0  0  0  0  0  0  0  0  0  0  0
    2.7016    0.1508   -2.0538 H   0  0  0  0  0  0  0  0  0  0  0  0
  1  8  1  0  0  0  0
  2  5  1  0  0  0  0
  2 13  1  0  0  0  0
  3  1  1  0  0  0  0
  3 14  1  0  0  0  0
  3 15  1  0  0  0  0
  4  7  1  0  0  0  0
  4  3  1  0  0  0  0
  5  7  1  0  0  0  0
  6  5  2  0  0  0  0
  9  1  1  0  0  0  0
 10  1  1  0  0  0  0
 11  2  1  0  0  0  0
 12  2  1  0  0  0  0
 16  4  1  0  0  0  0
 17  4  1  0  0  0  0
M  END
>  <HBA>
2

>  <HBD>
0

>  <TPSA>
42.37

>  <cid>
61295

>  <dipole>
1.11

>  <excitation_energy_1>
4.762

>  <excitation_energy_2>
5.489

>  <excitation_energy_3>
5.751

>  <excitation_energy_4>
6.31

>  <homo_energy>
-6.757

>  <homo_lumo_gap>
6.406

>  <logP>
1.676

>  <lumo_energy>
-0.351

>  <melting_point>
4.46

>  <molecular_refractivity>
33.94

>  <oscillator_strength_1>
0.0

>  <oscillator_strength_2>
0.0559

>  <oscillator_strength_3>
0.0001

>  <oscillator_strength_4>
0.0175

>  <open_babel_can_smiles>
CCCSC(=O)C

>  <mulliken_charges>
17
1   -0.4454
2   -0.524001
3   -0.269715
4   -0.396321
5   0.277081
6   -0.418562
7   0.088196
8   0.151402
9   0.149478
10   0.149532
11   0.186464
12   0.187101
13   0.185351
14   0.152696
15   0.152694
16   0.187087
17   0.186917

>  <lowdin_charges>
17
1   -0.443529
2   -0.468349
3   -0.275388
4   -0.361358
5   0.050562
6   -0.238914
7   0.110149
8   0.155108
9   0.151472
10   0.149864
11   0.176921
12   0.179554
13   0.179926
14   0.149395
15   0.151101
16   0.165932
17   0.167554

$$$$

