PCCDB-ID:  69590
public computational chemistry database (PCCDB) project, http://pccdb.org

 19 20  0  0  0  0  0  0  0  0999 V2000
   -1.4623   -0.0829    0.0420 C   0  0  0  0  0  0  0  0  0  0  0  0
   -0.8432    1.1679    0.0441 C   0  0  0  0  0  0  0  0  0  0  0  0
   -0.6770   -1.2369   -0.0216 C   0  0  0  0  0  0  0  0  0  0  0  0
    0.5458    1.2652   -0.0207 C   0  0  0  0  0  0  0  0  0  0  0  0
    0.7111   -1.1429   -0.0724 C   0  0  0  0  0  0  0  0  0  0  0  0
    3.7680   -0.6623   -0.6472 C   0  0  0  0  0  0  0  0  0  0  0  0
    4.8567    1.0194    0.0915 C   0  0  0  0  0  0  0  0  0  0  0  0
    1.3481    0.1114   -0.0761 C   0  0  0  0  0  0  0  0  0  0  0  0
    2.8064    0.1937   -0.1427 C   0  0  0  0  0  0  0  0  0  0  0  0
    5.0312   -0.1431   -0.5004 N   0  0  0  0  0  0  0  0  0  0  0  0
    3.5359    1.2795    0.3199 N   0  0  0  0  0  0  0  0  0  0  0  0
   -2.5450   -0.1586    0.0887 H   0  0  0  0  0  0  0  0  0  0  0  0
   -1.4428    2.0734    0.0854 H   0  0  0  0  0  0  0  0  0  0  0  0
   -1.1480   -2.2163   -0.0199 H   0  0  0  0  0  0  0  0  0  0  0  0
    1.0072    2.2492   -0.0594 H   0  0  0  0  0  0  0  0  0  0  0  0
    1.3148   -2.0456   -0.0913 H   0  0  0  0  0  0  0  0  0  0  0  0
    3.6088   -1.6140   -1.1361 H   0  0  0  0  0  0  0  0  0  0  0  0
    5.6396    1.7098    0.3759 H   0  0  0  0  0  0  0  0  0  0  0  0
    3.1601    2.0682    0.8260 H   0  0  0  0  0  0  0  0  0  0  0  0
  1  2  1  0  0  0  0
  1 12  1  0  0  0  0
  2 13  1  0  0  0  0
  3 14  1  0  0  0  0
  3  1  2  0  0  0  0
  4  2  2  0  0  0  0
  5  3  1  0  0  0  0
  6 10  1  0  0  0  0
  6  9  2  0  0  0  0
  7 11  1  0  0  0  0
  7 18  1  0  0  0  0
  8  5  2  0  0  0  0
  8  4  1  0  0  0  0
  9  8  1  0  0  0  0
  9 11  1  0  0  0  0
 10  7  2  0  0  0  0
 11 19  1  0  0  0  0
 15  4  1  0  0  0  0
 16  5  1  0  0  0  0
 17  6  1  0  0  0  0
M  END
>  <HBA>
1

>  <HBD>
1

>  <TPSA>
28.68

>  <cid>
69590

>  <dipole>
3.48

>  <excitation_energy_1>
4.554

>  <excitation_energy_2>
4.57

>  <excitation_energy_3>
4.915

>  <excitation_energy_4>
5.532

>  <homo_energy>
-5.655

>  <homo_lumo_gap>
4.993

>  <logP>
2.077

>  <lumo_energy>
-0.661

>  <melting_point>
103.37

>  <molecular_refractivity>
44.02

>  <oscillator_strength_1>
0.4007

>  <oscillator_strength_2>
0.0576

>  <oscillator_strength_3>
0.0044

>  <oscillator_strength_4>
0.0156

>  <open_babel_can_smiles>
c1ccc(cc1)c1cnc[nH]1

>  <mulliken_charges>
19
1   -0.127904
2   -0.13061
3   -0.134931
4   -0.187418
5   -0.17293
6   -0.072542
7   0.212502
8   0.132305
9   0.244764
10   -0.424105
11   -0.620286
12   0.131903
13   0.132011
14   0.134259
15   0.116899
16   0.138508
17   0.137841
18   0.156648
19   0.333087

>  <lowdin_charges>
19
1   -0.15741
2   -0.152176
3   -0.150298
4   -0.173103
5   -0.157258
6   -0.159624
7   -0.091246
8   -0.001432
9   -0.009407
10   -0.181025
11   -0.182919
12   0.15736
13   0.159483
14   0.159881
15   0.15011
16   0.163334
17   0.162293
18   0.168991
19   0.294445

$$$$

