PCCDB-ID:  34743
public computational chemistry database (PCCDB) project, http://pccdb.org

 32 32  0  0  1  0  0  0  0  0999 V2000
    4.3548   -0.0185   -4.8776 C   0  0  0  0  0  0  0  0  0  0  0  0
    9.2537   -0.7886   -6.1946 C   0  0  0  0  0  0  0  0  0  0  0  0
    4.4143    1.1792   -3.9197 C   0  0  0  0  0  0  0  0  0  0  0  0
    5.6592    1.2697   -3.0176 C   0  0  0  0  0  0  0  0  0  0  0  0
    5.8226    0.1705   -1.9461 C   0  0  0  0  0  0  0  0  0  0  0  0
    6.4212   -1.1794   -2.3864 C   0  0  0  0  0  0  0  0  0  0  0  0
    9.6059   -2.2920   -4.1065 C   0  0  0  0  0  0  0  0  0  0  0  0
    9.2722   -0.8917   -4.6791 C   0  0  2  0  0  0  0  0  0  0  0  0
    8.5312   -2.5263   -3.0139 C   0  0  2  0  0  0  0  0  0  0  0  0
    7.8639   -1.1395   -2.8745 C   0  0  1  0  0  0  0  0  0  0  0  0
    8.9973   -3.0664   -1.7879 O   0  0  0  0  0  0  0  0  0  0  0  0
    7.9601   -0.5808   -4.1824 O   0  0  0  0  0  0  0  0  0  0  0  0
    3.5559    0.1147   -5.6171 H   0  0  0  0  0  0  0  0  0  0  0  0
    4.1504   -0.9562   -4.3497 H   0  0  0  0  0  0  0  0  0  0  0  0
    5.3013   -0.1418   -5.4160 H   0  0  0  0  0  0  0  0  0  0  0  0
   10.2520   -0.9769   -6.6052 H   0  0  0  0  0  0  0  0  0  0  0  0
    8.9344    0.2106   -6.5081 H   0  0  0  0  0  0  0  0  0  0  0  0
    8.5583   -1.5219   -6.6178 H   0  0  0  0  0  0  0  0  0  0  0  0
    3.5114    1.1880   -3.2912 H   0  0  0  0  0  0  0  0  0  0  0  0
    4.3723    2.1020   -4.5150 H   0  0  0  0  0  0  0  0  0  0  0  0
    5.6075    2.2338   -2.4925 H   0  0  0  0  0  0  0  0  0  0  0  0
    6.5588    1.3049   -3.6424 H   0  0  0  0  0  0  0  0  0  0  0  0
    4.8464   -0.0201   -1.4766 H   0  0  0  0  0  0  0  0  0  0  0  0
    6.4632    0.5657   -1.1442 H   0  0  0  0  0  0  0  0  0  0  0  0
    5.8144   -1.6520   -3.1663 H   0  0  0  0  0  0  0  0  0  0  0  0
    6.4082   -1.8593   -1.5232 H   0  0  0  0  0  0  0  0  0  0  0  0
   10.6104   -2.3251   -3.6690 H   0  0  0  0  0  0  0  0  0  0  0  0
    9.5653   -3.0648   -4.8811 H   0  0  0  0  0  0  0  0  0  0  0  0
    9.9810   -0.1516   -4.2707 H   0  0  0  0  0  0  0  0  0  0  0  0
    7.7853   -3.2462   -3.3652 H   0  0  0  0  0  0  0  0  0  0  0  0
    8.4767   -0.5391   -2.1698 H   0  0  0  0  0  0  0  0  0  0  0  0
    9.6595   -2.4529   -1.4298 H   0  0  0  0  0  0  0  0  0  0  0  0
  1 14  1  0  0  0  0
  1  3  1  0  0  0  0
  2  8  1  0  0  0  0
  3 19  1  0  0  0  0
  3  4  1  0  0  0  0
  4 21  1  0  0  0  0
  4  5  1  0  0  0  0
  5 23  1  0  0  0  0
  5 24  1  0  0  0  0
  6  5  1  0  0  0  0
  6 26  1  0  0  0  0
  7 27  1  0  0  0  0
  7  9  1  0  0  0  0
  8 29  1  1  0  0  0
  8 12  1  0  0  0  0
  8  7  1  0  0  0  0
  9 30  1  6  0  0  0
  9 10  1  0  0  0  0
  9 11  1  0  0  0  0
 10  6  1  0  0  0  0
 10 31  1  1  0  0  0
 11 32  1  0  0  0  0
 12 10  1  0  0  0  0
 13  1  1  0  0  0  0
 15  1  1  0  0  0  0
 16  2  1  0  0  0  0
 17  2  1  0  0  0  0
 18  2  1  0  0  0  0
 20  3  1  0  0  0  0
 22  4  1  0  0  0  0
 25  6  1  0  0  0  0
 28  7  1  0  0  0  0
M  END
>  <HBA>
2

>  <HBD>
1

>  <TPSA>
29.46

>  <cid>
34743

>  <dipole>
1.71

>  <excitation_energy_1>
6.144

>  <excitation_energy_2>
6.541

>  <excitation_energy_3>
6.675

>  <excitation_energy_4>
6.789

>  <homo_energy>
-6.732

>  <homo_lumo_gap>
8.632

>  <logP>
2.105

>  <lumo_energy>
1.899

>  <melting_point>
3.03

>  <molecular_refractivity>
50.32

>  <oscillator_strength_1>
0.0223

>  <oscillator_strength_2>
0.0125

>  <oscillator_strength_3>
0.0307

>  <oscillator_strength_4>
0.0088

>  <open_babel_can_smiles>
CCCCC[C@@H]1O[C@@H](C[C@H]1O)C

>  <mulliken_charges>
32
1   -0.446064
2   -0.462386
3   -0.247662
4   -0.25704
5   -0.265632
6   -0.284265
7   -0.340746
8   0.174071
9   0.11907
10   0.147931
11   -0.622843
12   -0.499315
13   0.133639
14   0.141164
15   0.156886
16   0.144662
17   0.15873
18   0.152884
19   0.123637
20   0.12727
21   0.119186
22   0.158217
23   0.127705
24   0.124617
25   0.147211
26   0.145793
27   0.136626
28   0.152876
29   0.11442
30   0.146801
31   0.089957
32   0.382601

>  <lowdin_charges>
32
1   -0.45156
2   -0.448074
3   -0.272124
4   -0.286104
5   -0.276361
6   -0.287087
7   -0.317155
8   0.004623
9   -0.017985
10   -0.018588
11   -0.452318
12   -0.276889
13   0.145787
14   0.143668
15   0.153628
16   0.153877
17   0.158839
18   0.155682
19   0.13466
20   0.139825
21   0.13841
22   0.153002
23   0.140264
24   0.139681
25   0.15245
26   0.155692
27   0.149022
28   0.156503
29   0.125722
30   0.150622
31   0.114256
32   0.338033

$$$$

