PCCDB-ID:  27858
public computational chemistry database (PCCDB) project, http://pccdb.org

 24 24  0  0  0  0  0  0  0  0999 V2000
    1.0306   -0.0575    0.0505 C   0  0  0  0  0  0  0  0  0  0  0  0
    6.6346   -3.1472   -3.2009 C   0  0  0  0  0  0  0  0  0  0  0  0
    8.7985   -0.0232   -0.0211 C   0  0  0  0  0  0  0  0  0  0  0  0
    2.5578   -0.0615    0.0106 C   0  0  0  0  0  0  0  0  0  0  0  0
    6.0928   -2.1718   -2.1958 C   0  0  0  0  0  0  0  0  0  0  0  0
    4.2923   -1.1637   -1.1370 C   0  0  0  0  0  0  0  0  0  0  0  0
    6.5992   -0.6349   -0.6206 C   0  0  0  0  0  0  0  0  0  0  0  0
    3.0345   -1.0163   -0.9756 N   0  0  0  0  0  0  0  0  0  0  0  0
    4.8046   -2.0613   -2.0639 N   0  0  0  0  0  0  0  0  0  0  0  0
    7.0701   -1.4723   -1.4931 N   0  0  0  0  0  0  0  0  0  0  0  0
    5.2757   -0.4387   -0.3977 N   0  0  0  0  0  0  0  0  0  0  0  0
    7.3766    0.1261    0.1527 O   0  0  0  0  0  0  0  0  0  0  0  0
    0.6570    0.6606    0.7897 H   0  0  0  0  0  0  0  0  0  0  0  0
    0.6554   -1.0529    0.3084 H   0  0  0  0  0  0  0  0  0  0  0  0
    0.6269    0.2086   -0.9316 H   0  0  0  0  0  0  0  0  0  0  0  0
    5.8183   -3.6485   -3.7221 H   0  0  0  0  0  0  0  0  0  0  0  0
    7.2663   -3.8895   -2.6988 H   0  0  0  0  0  0  0  0  0  0  0  0
    7.2733   -2.6250   -3.9230 H   0  0  0  0  0  0  0  0  0  0  0  0
    9.2427    0.6711    0.6923 H   0  0  0  0  0  0  0  0  0  0  0  0
    9.0861    0.2319   -1.0434 H   0  0  0  0  0  0  0  0  0  0  0  0
    9.1028   -1.0499    0.1935 H   0  0  0  0  0  0  0  0  0  0  0  0
    2.9413   -0.3016    1.0206 H   0  0  0  0  0  0  0  0  0  0  0  0
    2.9128    0.9611   -0.2188 H   0  0  0  0  0  0  0  0  0  0  0  0
    4.9978    0.2364    0.3023 H   0  0  0  0  0  0  0  0  0  0  0  0
  1 14  1  0  0  0  0
  1 13  1  0  0  0  0
  2 17  1  0  0  0  0
  2  5  1  0  0  0  0
  3 12  1  0  0  0  0
  3 21  1  0  0  0  0
  3 19  1  0  0  0  0
  4  1  1  0  0  0  0
  4 22  1  0  0  0  0
  5  9  2  0  0  0  0
  5 10  1  0  0  0  0
  6  8  1  0  0  0  0
  6 11  1  0  0  0  0
  7 11  1  0  0  0  0
  7 12  1  0  0  0  0
  8  4  1  0  0  0  0
  9  6  2  0  0  0  0
 10  7  2  0  0  0  0
 11 24  1  0  0  0  0
 15  1  1  0  0  0  0
 16  2  1  0  0  0  0
 18  2  1  0  0  0  0
 20  3  1  0  0  0  0
 23  4  1  0  0  0  0
M  RAD  1   8   2
M  END
>  <HBA>
5

>  <HBD>
1

>  <TPSA>
59.93

>  <cid>
27858

>  <dipole>
5.04

>  <excitation_energy_1>
4.41

>  <excitation_energy_2>
4.711

>  <excitation_energy_3>
4.968

>  <excitation_energy_4>
5.222

>  <homo_energy>
-5.965

>  <homo_lumo_gap>
5.2

>  <logP>
0.693

>  <lumo_energy>
-0.765

>  <melting_point>
94.67

>  <molecular_refractivity>
45.4

>  <oscillator_strength_1>
0.0507

>  <oscillator_strength_2>
0.0007

>  <oscillator_strength_3>
0.0011

>  <oscillator_strength_4>
0.0033

>  <open_babel_can_smiles>
CC[N]C1=[N]=C(N=C(N1)OC)C

>  <mulliken_charges>
24
1   -0.431207
2   -0.501073
3   -0.212946
4   -0.157546
5   0.423525
6   0.655797
7   0.781812
8   -0.460132
9   -0.46857
10   -0.536872
11   -0.696791
12   -0.487594
13   0.129053
14   0.156764
15   0.157021
16   0.181043
17   0.169093
18   0.168834
19   0.172475
20   0.180968
21   0.181012
22   0.120559
23   0.121944
24   0.35283

>  <lowdin_charges>
24
1   -0.443203
2   -0.44703
3   -0.267055
4   -0.20527
5   0.116753
6   0.114524
7   0.193457
8   -0.22384
9   -0.181808
10   -0.261992
11   -0.237282
12   -0.178472
13   0.14477
14   0.155897
15   0.156216
16   0.17425
17   0.170865
18   0.170713
19   0.166115
20   0.164771
21   0.164753
22   0.123797
23   0.124509
24   0.304561

$$$$

