PCCDB-ID:  28715
public computational chemistry database (PCCDB) project, http://pccdb.org

 32 33  0  0  1  0  0  0  0  0999 V2000
    5.1521    0.0012   -2.5459 C   0  0  0  0  0  0  0  0  0  0  0  0
    4.3848    0.0012   -1.2199 C   0  0  0  0  0  0  0  0  0  0  0  0
    5.1651    0.6536   -0.0706 C   0  0  0  0  0  0  0  0  0  0  0  0
    8.7059   -1.0038    3.5644 C   0  0  0  0  0  0  0  0  0  0  0  0
    8.8082    0.3514    3.2556 C   0  0  0  0  0  0  0  0  0  0  0  0
    7.4560   -1.6263    3.5143 C   0  0  0  0  0  0  0  0  0  0  0  0
    7.6714    1.0788    2.8942 C   0  0  0  0  0  0  0  0  0  0  0  0
    6.3242   -0.8993    3.1511 C   0  0  0  0  0  0  0  0  0  0  0  0
    4.3956    0.6391    1.2583 C   0  0  0  0  0  0  0  0  0  0  0  0
    4.2263    1.6385    3.6700 C   0  0  0  0  0  0  0  0  0  0  0  0
    6.4127    0.4654    2.8302 C   0  0  0  0  0  0  0  0  0  0  0  0
    5.2593    2.7584    2.4375 C   0  0  0  0  0  0  0  0  0  0  0  0
    5.1581    1.2413    2.4605 C   0  0  1  0  0  0  0  0  0  0  0  0
    4.4776    3.0908    3.3982 N   0  0  0  0  0  0  0  0  0  0  0  0
    5.9391    3.6118    1.6399 O   0  0  0  0  0  0  0  0  0  0  0  0
    4.5683   -0.4717   -3.3434 H   0  0  0  0  0  0  0  0  0  0  0  0
    6.0992   -0.5444   -2.4559 H   0  0  0  0  0  0  0  0  0  0  0  0
    5.3877    1.0233   -2.8677 H   0  0  0  0  0  0  0  0  0  0  0  0
    4.1351   -1.0320   -0.9403 H   0  0  0  0  0  0  0  0  0  0  0  0
    3.4265    0.5233   -1.3488 H   0  0  0  0  0  0  0  0  0  0  0  0
    5.3965    1.6929   -0.3519 H   0  0  0  0  0  0  0  0  0  0  0  0
    6.1276    0.1391    0.0531 H   0  0  0  0  0  0  0  0  0  0  0  0
    9.5892   -1.5706    3.8457 H   0  0  0  0  0  0  0  0  0  0  0  0
    9.7731    0.8496    3.2985 H   0  0  0  0  0  0  0  0  0  0  0  0
    7.3625   -2.6802    3.7628 H   0  0  0  0  0  0  0  0  0  0  0  0
    7.7682    2.1381    2.6745 H   0  0  0  0  0  0  0  0  0  0  0  0
    5.3575   -1.3959    3.1271 H   0  0  0  0  0  0  0  0  0  0  0  0
    4.1212   -0.3963    1.5014 H   0  0  0  0  0  0  0  0  0  0  0  0
    3.4525    1.1885    1.1383 H   0  0  0  0  0  0  0  0  0  0  0  0
    4.5912    1.3229    4.6523 H   0  0  0  0  0  0  0  0  0  0  0  0
    3.1732    1.3577    3.5549 H   0  0  0  0  0  0  0  0  0  0  0  0
    6.4263    3.0953    0.9794 H   0  0  0  0  0  0  0  0  0  0  0  0
  1 17  1  0  0  0  0
  1  2  1  0  0  0  0
  2 19  1  0  0  0  0
  2  3  1  0  0  0  0
  3 22  1  0  0  0  0
  3  9  1  0  0  0  0
  4 23  1  0  0  0  0
  5 24  1  0  0  0  0
  5  4  2  0  0  0  0
  6  4  1  0  0  0  0
  6 25  1  0  0  0  0
  7  5  1  0  0  0  0
  8  6  2  0  0  0  0
  9 28  1  0  0  0  0
 10 30  1  0  0  0  0
 11  7  2  0  0  0  0
 11  8  1  0  0  0  0
 12 13  1  0  0  0  0
 12 14  2  0  0  0  0
 13  9  1  6  0  0  0
 13 11  1  0  0  0  0
 13 10  1  0  0  0  0
 14 10  1  0  0  0  0
 15 12  1  0  0  0  0
 16  1  1  0  0  0  0
 18  1  1  0  0  0  0
 20  2  1  0  0  0  0
 21  3  1  0  0  0  0
 26  7  1  0  0  0  0
 27  8  1  0  0  0  0
 29  9  1  0  0  0  0
 31 10  1  0  0  0  0
 32 15  1  0  0  0  0
M  END
>  <HBA>
2

>  <HBD>
1

>  <TPSA>
29.1

>  <cid>
28715

>  <dipole>
4.36

>  <excitation_energy_1>
5.191

>  <excitation_energy_2>
5.568

>  <excitation_energy_3>
5.792

>  <excitation_energy_4>
5.823

>  <homo_energy>
-6.504

>  <homo_lumo_gap>
6.188

>  <logP>
2.573

>  <lumo_energy>
-0.316

>  <melting_point>
81.26

>  <molecular_refractivity>
64.94

>  <oscillator_strength_1>
0.0028

>  <oscillator_strength_2>
0.0629

>  <oscillator_strength_3>
0.0044

>  <oscillator_strength_4>
0.0085

>  <open_babel_can_smiles>
CCCC[C@@]1(CN=C1O)c1ccccc1

>  <mulliken_charges>
32
1   -0.444066
2   -0.248632
3   -0.266601
4   -0.126273
5   -0.132755
6   -0.132145
7   -0.199601
8   -0.175098
9   -0.277507
10   -0.14492
11   0.153913
12   0.501466
13   -0.122675
14   -0.430273
15   -0.597374
16   0.147097
17   0.144689
18   0.142866
19   0.135663
20   0.13747
21   0.115039
22   0.147117
23   0.13248
24   0.134542
25   0.13312
26   0.132994
27   0.130499
28   0.142631
29   0.147665
30   0.154763
31   0.142747
32   0.421161

>  <lowdin_charges>
32
1   -0.444637
2   -0.26944
3   -0.281333
4   -0.158743
5   -0.151601
6   -0.1493
7   -0.176312
8   -0.165646
9   -0.269341
10   -0.18781
11   -0.005534
12   0.096959
13   -0.025349
14   -0.214271
15   -0.350064
16   0.153426
17   0.147848
18   0.146257
19   0.140529
20   0.142055
21   0.129044
22   0.146975
23   0.160198
24   0.159916
25   0.157611
26   0.157005
27   0.156576
28   0.145617
29   0.150599
30   0.151372
31   0.143504
32   0.36389

$$$$

