PCCDB-ID:  7218
public computational chemistry database (PCCDB) project, http://pccdb.org

 18 19  0  0  1  0  0  0  0  0999 V2000
   -1.3710   -0.7341   -0.5539 C   0  0  0  0  0  0  0  0  0  0  0  0
   -0.2684   -1.4295   -0.8654 C   0  0  0  0  0  0  0  0  0  0  0  0
   -0.1883   -1.0490    1.4620 C   0  0  0  0  0  0  0  0  0  0  0  0
   -0.0769    1.1193    0.4534 C   0  0  0  0  0  0  0  0  0  0  0  0
    2.3592    0.6353    0.9216 C   0  0  0  0  0  0  0  0  0  0  0  0
   -1.1070   -0.0179    0.7639 C   0  0  1  0  0  0  0  0  0  0  0  0
    0.7478   -1.1918    0.2410 C   0  0  2  0  0  0  0  0  0  0  0  0
    1.2174    0.3141    0.0633 C   0  0  1  0  0  0  0  0  0  0  0  0
    3.2625    0.8739    1.6127 N   0  0  0  0  0  0  0  0  0  0  0  0
   -2.2583   -0.6004   -1.1647 H   0  0  0  0  0  0  0  0  0  0  0  0
   -0.0671   -1.9765   -1.7808 H   0  0  0  0  0  0  0  0  0  0  0  0
   -0.7037   -1.9826    1.7042 H   0  0  0  0  0  0  0  0  0  0  0  0
    0.3127   -0.6604    2.3562 H   0  0  0  0  0  0  0  0  0  0  0  0
    0.0995    1.7377    1.3384 H   0  0  0  0  0  0  0  0  0  0  0  0
   -0.4039    1.7750   -0.3574 H   0  0  0  0  0  0  0  0  0  0  0  0
   -1.9854    0.3244    1.3153 H   0  0  0  0  0  0  0  0  0  0  0  0
    1.5758   -1.8990    0.3122 H   0  0  0  0  0  0  0  0  0  0  0  0
    1.5147    0.5031   -0.9726 H   0  0  0  0  0  0  0  0  0  0  0  0
  1  6  1  0  0  0  0
  2  1  2  0  0  0  0
  2  7  1  0  0  0  0
  3 12  1  0  0  0  0
  3 13  1  0  0  0  0
  4  6  1  0  0  0  0
  4 14  1  0  0  0  0
  5  9  3  0  0  0  0
  6 16  1  1  0  0  0
  6  3  1  0  0  0  0
  7 17  1  1  0  0  0
  7  3  1  0  0  0  0
  8 18  1  6  0  0  0
  8  7  1  0  0  0  0
  8  4  1  0  0  0  0
  8  5  1  0  0  0  0
 10  1  1  0  0  0  0
 11  2  1  0  0  0  0
 15  4  1  0  0  0  0
M  END
>  <HBA>
1

>  <HBD>
0

>  <TPSA>
23.79

>  <cid>
7218

>  <dipole>
4.17

>  <excitation_energy_1>
6.105

>  <excitation_energy_2>
6.307

>  <excitation_energy_3>
6.646

>  <excitation_energy_4>
6.777

>  <homo_energy>
-6.895

>  <homo_lumo_gap>
6.923

>  <logP>
1.722

>  <lumo_energy>
0.027

>  <melting_point>
60.96

>  <molecular_refractivity>
35.62

>  <oscillator_strength_1>
0.0282

>  <oscillator_strength_2>
0.1083

>  <oscillator_strength_3>
0.0184

>  <oscillator_strength_4>
0.0148

>  <open_babel_can_smiles>
N#C[C@@H]1C[C@@H]2C[C@H]1C=C2

>  <mulliken_charges>
18
1   -0.104258
2   -0.102173
3   -0.268665
4   -0.273904
5   0.340972
6   -0.152308
7   -0.151657
8   -0.171669
9   -0.480627
10   0.136259
11   0.136623
12   0.153097
13   0.153593
14   0.168063
15   0.15455
16   0.132749
17   0.146229
18   0.183126

>  <lowdin_charges>
18
1   -0.16557
2   -0.174925
3   -0.271477
4   -0.272148
5   -0.02045
6   -0.131628
7   -0.122367
8   -0.135259
9   -0.139315
10   0.161111
11   0.161376
12   0.155802
13   0.151594
14   0.162089
15   0.156546
16   0.151248
17   0.157741
18   0.175632

$$$$

