PCCDB-ID:  61328
public computational chemistry database (PCCDB) project, http://pccdb.org

 30 30  0  0  1  0  0  0  0  0999 V2000
    2.9598    2.8677    3.7337 C   0  0  0  0  0  0  0  0  0  0  0  0
    3.8942    1.7340    4.1285 C   0  0  0  0  0  0  0  0  0  0  0  0
    8.0803   -1.1837    2.8379 C   0  0  0  0  0  0  0  0  0  0  0  0
    5.9276   -2.0166    3.4950 C   0  0  0  0  0  0  0  0  0  0  0  0
    8.6008   -1.5262    4.0855 C   0  0  0  0  0  0  0  0  0  0  0  0
    6.4307   -2.3649    4.7450 C   0  0  0  0  0  0  0  0  0  0  0  0
    6.1702   -1.0104    1.1755 C   0  0  0  0  0  0  0  0  0  0  0  0
    6.7380   -1.4190    2.5171 C   0  0  0  0  0  0  0  0  0  0  0  0
    7.7744   -2.1190    5.0450 C   0  0  0  0  0  0  0  0  0  0  0  0
    5.6781    0.4647    1.1007 C   0  0  2  0  0  0  0  0  0  0  0  0
    4.5469    0.6724    2.1025 C   0  0  0  0  0  0  0  0  0  0  0  0
    5.1536    0.8614   -0.2091 N   0  0  0  0  0  0  0  0  0  0  0  0
    8.2225   -2.4826    6.2865 O   0  0  0  0  0  0  0  0  0  0  0  0
    3.4643    0.1292    1.9968 O   0  0  0  0  0  0  0  0  0  0  0  0
    4.8936    1.4954    3.1054 O   0  0  0  0  0  0  0  0  0  0  0  0
    2.2639    3.0769    4.5544 H   0  0  0  0  0  0  0  0  0  0  0  0
    2.3773    2.5967    2.8490 H   0  0  0  0  0  0  0  0  0  0  0  0
    3.5245    3.7808    3.5192 H   0  0  0  0  0  0  0  0  0  0  0  0
    3.3443    0.8060    4.3025 H   0  0  0  0  0  0  0  0  0  0  0  0
    4.4770    1.9841    5.0180 H   0  0  0  0  0  0  0  0  0  0  0  0
    8.7378   -0.7289    2.0997 H   0  0  0  0  0  0  0  0  0  0  0  0
    4.8812   -2.2102    3.2717 H   0  0  0  0  0  0  0  0  0  0  0  0
    9.6496   -1.3387    4.3106 H   0  0  0  0  0  0  0  0  0  0  0  0
    5.8012   -2.8323    5.4958 H   0  0  0  0  0  0  0  0  0  0  0  0
    5.3232   -1.6544    0.9103 H   0  0  0  0  0  0  0  0  0  0  0  0
    6.9300   -1.1355    0.3923 H   0  0  0  0  0  0  0  0  0  0  0  0
    6.5031    1.1337    1.3638 H   0  0  0  0  0  0  0  0  0  0  0  0
    4.3200    0.3075   -0.4050 H   0  0  0  0  0  0  0  0  0  0  0  0
    5.8362    0.6404   -0.9327 H   0  0  0  0  0  0  0  0  0  0  0  0
    9.1631   -2.2582    6.3584 H   0  0  0  0  0  0  0  0  0  0  0  0
  1  2  1  0  0  0  0
  1 16  1  0  0  0  0
  2 19  1  0  0  0  0
  2 20  1  0  0  0  0
  3  5  1  0  0  0  0
  4  6  2  0  0  0  0
  5 23  1  0  0  0  0
  5  9  2  0  0  0  0
  6  9  1  0  0  0  0
  6 24  1  0  0  0  0
  7  8  1  0  0  0  0
  8  3  2  0  0  0  0
  8  4  1  0  0  0  0
  9 13  1  0  0  0  0
 10  7  1  0  0  0  0
 10 27  1  1  0  0  0
 10 11  1  0  0  0  0
 11 15  1  0  0  0  0
 12 10  1  0  0  0  0
 13 30  1  0  0  0  0
 14 11  2  0  0  0  0
 15  2  1  0  0  0  0
 17  1  1  0  0  0  0
 18  1  1  0  0  0  0
 21  3  1  0  0  0  0
 22  4  1  0  0  0  0
 25  7  1  0  0  0  0
 26  7  1  0  0  0  0
 28 12  1  0  0  0  0
 29 12  1  0  0  0  0
M  END
>  <HBA>
4

>  <HBD>
2

>  <TPSA>
72.55

>  <cid>
61328

>  <dipole>
2.48

>  <excitation_energy_1>
4.861

>  <excitation_energy_2>
5.087

>  <excitation_energy_3>
5.253

>  <excitation_energy_4>
5.363

>  <homo_energy>
-5.793

>  <homo_lumo_gap>
5.693

>  <logP>
1.525

>  <lumo_energy>
-0.101

>  <melting_point>
112.16

>  <molecular_refractivity>
56.65

>  <oscillator_strength_1>
0.0244

>  <oscillator_strength_2>
0.0008

>  <oscillator_strength_3>
0.0171

>  <oscillator_strength_4>
0.0491

>  <open_babel_can_smiles>
CCOC(=O)[C@@H](Cc1ccc(cc1)O)N

>  <mulliken_charges>
30
1   -0.461313
2   -0.047393
3   -0.18804
4   -0.195125
5   -0.191903
6   -0.159039
7   -0.37135
8   0.165556
9   0.348938
10   -0.045591
11   0.65452
12   -0.713656
13   -0.643389
14   -0.503113
15   -0.451948
16   0.149009
17   0.178649
18   0.159805
19   0.169839
20   0.155533
21   0.123313
22   0.143984
23   0.117543
24   0.139795
25   0.15567
26   0.136577
27   0.156842
28   0.311524
29   0.298206
30   0.406557

>  <lowdin_charges>
30
1   -0.455458
2   -0.128474
3   -0.155891
4   -0.153266
5   -0.211604
6   -0.186181
7   -0.289384
8   -0.02849
9   0.101547
10   -0.08793
11   0.201764
12   -0.542321
13   -0.378714
14   -0.282603
15   -0.177192
16   0.158901
17   0.167223
18   0.157792
19   0.159036
20   0.154607
21   0.156057
22   0.16256
23   0.151336
24   0.168669
25   0.157314
26   0.14852
27   0.156765
28   0.263362
29   0.256687
30   0.355368

$$$$

