PCCDB-ID:  17537
public computational chemistry database (PCCDB) project, http://pccdb.org

 40 39  0  0  0  0  0  0  0  0999 V2000
    3.5836    3.0753    0.3700 C   0  0  0  0  0  0  0  0  0  0  0  0
    0.9192    0.1158    5.1523 C   0  0  0  0  0  0  0  0  0  0  0  0
    9.6673   -2.4628    3.9640 C   0  0  0  0  0  0  0  0  0  0  0  0
    5.0925    2.8185    0.4557 C   0  0  0  0  0  0  0  0  0  0  0  0
    2.3642   -0.3555    4.9581 C   0  0  0  0  0  0  0  0  0  0  0  0
    8.1555   -2.5352    3.8116 C   0  0  0  0  0  0  0  0  0  0  0  0
    5.4961    1.3497    0.2517 C   0  0  0  0  0  0  0  0  0  0  0  0
    3.1104    0.4297    3.8712 C   0  0  0  0  0  0  0  0  0  0  0  0
    4.9691    0.3702    1.3097 C   0  0  0  0  0  0  0  0  0  0  0  0
    4.5562   -0.0494    3.6870 C   0  0  0  0  0  0  0  0  0  0  0  0
    6.7369    0.8203    2.9736 C   0  0  0  0  0  0  0  0  0  0  0  0
    7.4872   -0.4973    2.7636 C   0  0  0  0  0  0  0  0  0  0  0  0
    5.3008    0.7390    2.6945 N   0  0  0  0  0  0  0  0  0  0  0  0
    7.9091   -0.8843    1.6921 O   0  0  0  0  0  0  0  0  0  0  0  0
    7.5531   -1.2202    3.9067 O   0  0  0  0  0  0  0  0  0  0  0  0
    3.3611    4.1446    0.4635 H   0  0  0  0  0  0  0  0  0  0  0  0
    3.0402    2.5575    1.1682 H   0  0  0  0  0  0  0  0  0  0  0  0
    3.1752    2.7342   -0.5901 H   0  0  0  0  0  0  0  0  0  0  0  0
    0.4121   -0.4606    5.9345 H   0  0  0  0  0  0  0  0  0  0  0  0
    0.3392    0.0055    4.2279 H   0  0  0  0  0  0  0  0  0  0  0  0
    0.8828    1.1735    5.4406 H   0  0  0  0  0  0  0  0  0  0  0  0
   10.0902   -3.4741    3.9652 H   0  0  0  0  0  0  0  0  0  0  0  0
    9.9414   -1.9750    4.9052 H   0  0  0  0  0  0  0  0  0  0  0  0
   10.1114   -1.9066    3.1338 H   0  0  0  0  0  0  0  0  0  0  0  0
    5.4596    3.1662    1.4292 H   0  0  0  0  0  0  0  0  0  0  0  0
    5.6032    3.4251   -0.3045 H   0  0  0  0  0  0  0  0  0  0  0  0
    2.3682   -1.4250    4.7040 H   0  0  0  0  0  0  0  0  0  0  0  0
    2.9079   -0.2673    5.9096 H   0  0  0  0  0  0  0  0  0  0  0  0
    7.6974   -3.1020    4.6260 H   0  0  0  0  0  0  0  0  0  0  0  0
    7.8750   -2.9809    2.8543 H   0  0  0  0  0  0  0  0  0  0  0  0
    6.5881    1.2676    0.1943 H   0  0  0  0  0  0  0  0  0  0  0  0
    5.1238    1.0004   -0.7218 H   0  0  0  0  0  0  0  0  0  0  0  0
    3.1286    1.4980    4.1244 H   0  0  0  0  0  0  0  0  0  0  0  0
    2.5562    0.3442    2.9269 H   0  0  0  0  0  0  0  0  0  0  0  0
    5.3314   -0.6436    1.0616 H   0  0  0  0  0  0  0  0  0  0  0  0
    3.8773    0.3329    1.2474 H   0  0  0  0  0  0  0  0  0  0  0  0
    4.5620   -1.1285    3.4417 H   0  0  0  0  0  0  0  0  0  0  0  0
    5.0773    0.0442    4.6464 H   0  0  0  0  0  0  0  0  0  0  0  0
    7.1905    1.5586    2.3076 H   0  0  0  0  0  0  0  0  0  0  0  0
    6.8699    1.1568    4.0057 H   0  0  0  0  0  0  0  0  0  0  0  0
  1  4  1  0  0  0  0
  1 16  1  0  0  0  0
  1 17  1  0  0  0  0
  2 21  1  0  0  0  0
  2 19  1  0  0  0  0
  3 22  1  0  0  0  0
  3 23  1  0  0  0  0
  4 25  1  0  0  0  0
  5  2  1  0  0  0  0
  5 28  1  0  0  0  0
  6 15  1  0  0  0  0
  6  3  1  0  0  0  0
  6 29  1  0  0  0  0
  7  4  1  0  0  0  0
  7  9  1  0  0  0  0
  8 33  1  0  0  0  0
  8  5  1  0  0  0  0
  9 13  1  0  0  0  0
 10  8  1  0  0  0  0
 10 38  1  0  0  0  0
 11 40  1  0  0  0  0
 12 11  1  0  0  0  0
 12 15  1  0  0  0  0
 13 11  1  0  0  0  0
 13 10  1  0  0  0  0
 14 12  2  0  0  0  0
 18  1  1  0  0  0  0
 20  2  1  0  0  0  0
 24  3  1  0  0  0  0
 26  4  1  0  0  0  0
 27  5  1  0  0  0  0
 30  6  1  0  0  0  0
 31  7  1  0  0  0  0
 32  7  1  0  0  0  0
 34  8  1  0  0  0  0
 35  9  1  0  0  0  0
 36  9  1  0  0  0  0
 37 10  1  0  0  0  0
 39 11  1  0  0  0  0
M  END
>  <HBA>
3

>  <HBD>
0

>  <TPSA>
29.54

>  <cid>
17537

>  <dipole>
1.85

>  <excitation_energy_1>
4.602

>  <excitation_energy_2>
5.321

>  <excitation_energy_3>
5.56

>  <excitation_energy_4>
5.593

>  <homo_energy>
-5.646

>  <homo_lumo_gap>
5.848

>  <logP>
2.452

>  <lumo_energy>
0.201

>  <melting_point>
-15.47

>  <molecular_refractivity>
63.98

>  <oscillator_strength_1>
0.031

>  <oscillator_strength_2>
0.0207

>  <oscillator_strength_3>
0.0069

>  <oscillator_strength_4>
0.0043

>  <open_babel_can_smiles>
CCCCN(CC(=O)OCC)CCCC

>  <mulliken_charges>
40
1   -0.44792
2   -0.440883
3   -0.461756
4   -0.241591
5   -0.252846
6   -0.047273
7   -0.282294
8   -0.251166
9   -0.131658
10   -0.125446
11   -0.209713
12   0.604673
13   -0.387247
14   -0.480196
15   -0.454755
16   0.139803
17   0.150235
18   0.136304
19   0.142164
20   0.142325
21   0.143312
22   0.150469
23   0.157022
24   0.176877
25   0.143225
26   0.127297
27   0.131855
28   0.131134
29   0.152189
30   0.169838
31   0.151231
32   0.130165
33   0.140297
34   0.133983
35   0.131474
36   0.141071
37   0.11596
38   0.141091
39   0.169853
40   0.160897

>  <lowdin_charges>
40
1   -0.447351
2   -0.443405
3   -0.455013
4   -0.276178
5   -0.270509
6   -0.130216
7   -0.284006
8   -0.280038
9   -0.203752
10   -0.199348
11   -0.22378
12   0.180611
13   -0.176295
14   -0.272226
15   -0.195842
16   0.147375
17   0.149832
18   0.143268
19   0.150625
20   0.146847
21   0.14591
22   0.158179
23   0.156057
24   0.166667
25   0.144915
26   0.141347
27   0.137583
28   0.138803
29   0.153357
30   0.158442
31   0.147429
32   0.145335
33   0.143357
34   0.139514
35   0.128337
36   0.142725
37   0.119523
38   0.147057
39   0.165804
40   0.15906

$$$$

