PCCDB-ID:  18496
public computational chemistry database (PCCDB) project, http://pccdb.org

 16 16  0  0  0  0  0  0  0  0999 V2000
   -0.7343    1.1498    0.0360 C   0  0  0  0  0  0  0  0  0  0  0  0
   -1.4084   -0.0273    0.0458 C   0  0  0  0  0  0  0  0  0  0  0  0
    1.3634   -0.0083   -0.0888 C   0  0  0  0  0  0  0  0  0  0  0  0
    0.7036    1.1937   -0.0610 C   0  0  0  0  0  0  0  0  0  0  0  0
   -0.7189   -1.3104   -0.0190 C   0  0  0  0  0  0  0  0  0  0  0  0
    1.3876    2.5074   -0.0260 C   0  0  0  0  0  0  0  0  0  0  0  0
   -1.1787   -2.5109   -0.0290 N   0  0  0  0  0  0  0  0  0  0  0  0
    0.6873   -1.1792   -0.0677 N   0  0  0  0  0  0  0  0  0  0  0  0
    0.8575    3.5196    0.3705 O   0  0  0  0  0  0  0  0  0  0  0  0
    2.6866    2.5469   -0.4548 O   0  0  0  0  0  0  0  0  0  0  0  0
   -1.2586    2.0979    0.1014 H   0  0  0  0  0  0  0  0  0  0  0  0
   -2.4918   -0.0506    0.1115 H   0  0  0  0  0  0  0  0  0  0  0  0
    2.4454   -0.0994   -0.0895 H   0  0  0  0  0  0  0  0  0  0  0  0
   -2.1984   -2.4981    0.0163 H   0  0  0  0  0  0  0  0  0  0  0  0
    1.1844   -2.0625   -0.0721 H   0  0  0  0  0  0  0  0  0  0  0  0
    2.8882    1.7561   -0.9799 H   0  0  0  0  0  0  0  0  0  0  0  0
  1  2  2  0  0  0  0
  1 11  1  0  0  0  0
  2 12  1  0  0  0  0
  3  8  1  0  0  0  0
  3  4  2  0  0  0  0
  4  6  1  0  0  0  0
  4  1  1  0  0  0  0
  5  2  1  0  0  0  0
  6  9  2  0  0  0  0
  7  5  2  0  0  0  0
  7 14  1  0  0  0  0
  8  5  1  0  0  0  0
 10  6  1  0  0  0  0
 13  3  1  0  0  0  0
 15  8  1  0  0  0  0
 16 10  1  0  0  0  0
M  END
>  <HBA>
4

>  <HBD>
2

>  <TPSA>
76.21

>  <cid>
18496

>  <dipole>
3.22

>  <excitation_energy_1>
3.681

>  <excitation_energy_2>
4.702

>  <excitation_energy_3>
4.728

>  <excitation_energy_4>
4.838

>  <homo_energy>
-5.913

>  <homo_lumo_gap>
4.329

>  <logP>
0.943

>  <lumo_energy>
-1.584

>  <melting_point>
160.31

>  <molecular_refractivity>
35.6

>  <oscillator_strength_1>
0.0318

>  <oscillator_strength_2>
0.3528

>  <oscillator_strength_3>
0.0148

>  <oscillator_strength_4>
0.007

>  <open_babel_can_smiles>
OC(=O)c1ccc(=N)[nH]c1

>  <mulliken_charges>
16
1   -0.109536
2   -0.198531
3   0.060976
4   -0.01697
5   0.492904
6   0.550011
7   -0.663886
8   -0.621047
9   -0.449941
10   -0.580935
11   0.179131
12   0.148195
13   0.169533
14   0.287193
15   0.349773
16   0.403129

>  <lowdin_charges>
16
1   -0.107942
2   -0.195306
3   -0.066665
4   -0.117889
5   0.090049
6   0.196088
7   -0.447997
8   -0.173527
9   -0.244901
10   -0.368446
11   0.185465
12   0.16883
13   0.168579
14   0.255768
15   0.304134
16   0.35376

$$$$

