PCCDB-ID:  11888
public computational chemistry database (PCCDB) project, http://pccdb.org

 18 18  0  0  0  0  0  0  0  0999 V2000
   -1.2454   -0.2235   -0.0026 C   0  0  0  0  0  0  0  0  0  0  0  0
   -0.5763   -1.4311    0.1955 C   0  0  0  0  0  0  0  0  0  0  0  0
   -0.5202    0.9522   -0.1882 C   0  0  0  0  0  0  0  0  0  0  0  0
    0.8136   -1.4493    0.2043 C   0  0  0  0  0  0  0  0  0  0  0  0
    1.5709    2.3143   -0.3874 C   0  0  0  0  0  0  0  0  0  0  0  0
    1.9687    2.9497    0.8762 C   0  0  0  0  0  0  0  0  0  0  0  0
    0.8800    0.9716   -0.1736 C   0  0  0  0  0  0  0  0  0  0  0  0
    1.5273   -0.2617    0.0295 C   0  0  0  0  0  0  0  0  0  0  0  0
    2.2447    3.4695    1.8759 N   0  0  0  0  0  0  0  0  0  0  0  0
    2.9995   -0.3801    0.0577 N   0  0  0  0  0  0  0  0  0  0  0  0
    3.4803   -1.5106    0.0149 O   0  0  0  0  0  0  0  0  0  0  0  0
    3.6676    0.6526    0.1244 O   0  0  0  0  0  0  0  0  0  0  0  0
   -2.3310   -0.1930   -0.0144 H   0  0  0  0  0  0  0  0  0  0  0  0
   -1.1296   -2.3536    0.3409 H   0  0  0  0  0  0  0  0  0  0  0  0
   -1.0496    1.8873   -0.3483 H   0  0  0  0  0  0  0  0  0  0  0  0
    1.3675   -2.3687    0.3450 H   0  0  0  0  0  0  0  0  0  0  0  0
    2.4556    2.2163   -1.0193 H   0  0  0  0  0  0  0  0  0  0  0  0
    0.8689    2.9872   -0.8936 H   0  0  0  0  0  0  0  0  0  0  0  0
  1  2  2  0  0  0  0
  2  4  1  0  0  0  0
  2 14  1  0  0  0  0
  3  7  2  0  0  0  0
  3  1  1  0  0  0  0
  4 16  1  0  0  0  0
  5  7  1  0  0  0  0
  5  6  1  0  0  0  0
  6  9  3  0  0  0  0
  7  8  1  0  0  0  0
  8 10  1  0  0  0  0
  8  4  2  0  0  0  0
 10 12  2  0  0  0  0
 11 10  2  0  0  0  0
 13  1  1  0  0  0  0
 15  3  1  0  0  0  0
 17  5  1  0  0  0  0
 18  5  1  0  0  0  0
M  END
>  <HBA>
1

>  <HBD>
0

>  <TPSA>
69.61

>  <cid>
11888

>  <dipole>
6.53

>  <excitation_energy_1>
3.714

>  <excitation_energy_2>
4.218

>  <excitation_energy_3>
4.308

>  <excitation_energy_4>
4.735

>  <homo_energy>
-7.864

>  <homo_lumo_gap>
5.116

>  <logP>
2.184

>  <lumo_energy>
-2.748

>  <melting_point>
80.19

>  <molecular_refractivity>
44.79

>  <oscillator_strength_1>
0.0035

>  <oscillator_strength_2>
0.0112

>  <oscillator_strength_3>
0.0136

>  <oscillator_strength_4>
0.1782

>  <open_babel_can_smiles>
N#CCc1ccccc1N(=O)=O

>  <mulliken_charges>
18
1   -0.102127
2   -0.13675
3   -0.186364
4   -0.145412
5   -0.417453
6   0.376449
7   0.148496
8   0.23518
9   -0.458036
10   0.376779
11   -0.38284
12   -0.394533
13   0.156327
14   0.157679
15   0.153315
16   0.193263
17   0.228173
18   0.197854

>  <lowdin_charges>
18
1   -0.12342
2   -0.143769
3   -0.151763
4   -0.132351
5   -0.270114
6   -0.010988
7   0.018561
8   0.003751
9   -0.117195
10   0.308272
11   -0.236784
12   -0.23528
13   0.169631
14   0.172558
15   0.169414
16   0.192942
17   0.201995
18   0.18454

$$$$

