PCCDB-ID:  68163
public computational chemistry database (PCCDB) project, http://pccdb.org

 19 19  0  0  0  0  0  0  0  0999 V2000
   -1.5185    0.7325    0.1027 C   0  0  0  0  0  0  0  0  0  0  0  0
   -0.2598    1.4989   -0.3474 C   0  0  0  0  0  0  0  0  0  0  0  0
   -1.4958   -0.7796   -0.1436 C   0  0  0  0  0  0  0  0  0  0  0  0
    1.7042    0.0017   -0.0338 C   0  0  0  0  0  0  0  0  0  0  0  0
    0.8870   -1.2563   -0.4232 C   0  0  0  0  0  0  0  0  0  0  0  0
    0.9549    1.1777    0.4054 N   0  0  0  0  0  0  0  0  0  0  0  0
   -0.3056   -1.4364    0.4102 N   0  0  0  0  0  0  0  0  0  0  0  0
   -2.4003    1.1531   -0.4026 H   0  0  0  0  0  0  0  0  0  0  0  0
   -1.6581    0.9146    1.1780 H   0  0  0  0  0  0  0  0  0  0  0  0
   -0.4578    2.5747   -0.2408 H   0  0  0  0  0  0  0  0  0  0  0  0
   -0.0622    1.3304   -1.4147 H   0  0  0  0  0  0  0  0  0  0  0  0
   -1.5891   -0.9661   -1.2325 H   0  0  0  0  0  0  0  0  0  0  0  0
   -2.3782   -1.2257    0.3312 H   0  0  0  0  0  0  0  0  0  0  0  0
    2.3318    0.2780   -0.8936 H   0  0  0  0  0  0  0  0  0  0  0  0
    2.3898   -0.2496    0.7836 H   0  0  0  0  0  0  0  0  0  0  0  0
    1.5337   -2.1361   -0.3142 H   0  0  0  0  0  0  0  0  0  0  0  0
    0.6151   -1.2026   -1.4941 H   0  0  0  0  0  0  0  0  0  0  0  0
    0.6973    1.0442    1.3804 H   0  0  0  0  0  0  0  0  0  0  0  0
   -0.4998   -2.4304    0.4951 H   0  0  0  0  0  0  0  0  0  0  0  0
  1  9  1  0  0  0  0
  2 10  1  0  0  0  0
  2  1  1  0  0  0  0
  2  6  1  0  0  0  0
  3  1  1  0  0  0  0
  3 13  1  0  0  0  0
  3  7  1  0  0  0  0
  4  6  1  0  0  0  0
  4 15  1  0  0  0  0
  5 16  1  0  0  0  0
  5  4  1  0  0  0  0
  5  7  1  0  0  0  0
  6 18  1  0  0  0  0
  7 19  1  0  0  0  0
  8  1  1  0  0  0  0
 11  2  1  0  0  0  0
 12  3  1  0  0  0  0
 14  4  1  0  0  0  0
 17  5  1  0  0  0  0
M  END
>  <HBA>
2

>  <HBD>
2

>  <TPSA>
24.06

>  <cid>
68163

>  <dipole>
1.86

>  <excitation_energy_1>
5.127

>  <excitation_energy_2>
5.386

>  <excitation_energy_3>
5.537

>  <excitation_energy_4>
5.668

>  <homo_energy>
-5.557

>  <homo_lumo_gap>
7.559

>  <logP>
0.227

>  <lumo_energy>
2.003

>  <melting_point>
51.04

>  <molecular_refractivity>
37.47

>  <oscillator_strength_1>
0.0067

>  <oscillator_strength_2>
0.002

>  <oscillator_strength_3>
0.0116

>  <oscillator_strength_4>
0.0141

>  <open_babel_can_smiles>
C1CNCCNC1

>  <mulliken_charges>
19
1   -0.253647
2   -0.141122
3   -0.133217
4   -0.120033
5   -0.153467
6   -0.53203
7   -0.544047
8   0.12382
9   0.132603
10   0.138228
11   0.133734
12   0.111412
13   0.131716
14   0.131446
15   0.134487
16   0.129861
17   0.115987
18   0.296539
19   0.297729

>  <lowdin_charges>
19
1   -0.294938
2   -0.205576
3   -0.20369
4   -0.214622
5   -0.226383
6   -0.359532
7   -0.366149
8   0.143724
9   0.139008
10   0.141021
11   0.138681
12   0.113215
13   0.143981
14   0.137403
15   0.145111
16   0.145045
17   0.116243
18   0.252706
19   0.254752

$$$$

