PCCDB-ID:  31577
public computational chemistry database (PCCDB) project, http://pccdb.org

 15 15  0  0  0  0  0  0  0  0999 V2000
   -0.7602    1.1612   -0.0171 C   0  0  0  0  0  0  0  0  0  0  0  0
   -1.3960   -0.0757    0.0169 C   0  0  0  0  0  0  0  0  0  0  0  0
    0.6308    1.2623   -0.0638 C   0  0  0  0  0  0  0  0  0  0  0  0
    0.7666   -1.1607   -0.0431 C   0  0  0  0  0  0  0  0  0  0  0  0
   -0.6326   -1.2560    0.0051 C   0  0  0  0  0  0  0  0  0  0  0  0
    1.3929    0.0880   -0.0759 C   0  0  0  0  0  0  0  0  0  0  0  0
   -1.2520   -2.5050    0.0974 N   0  0  0  0  0  0  0  0  0  0  0  0
    3.1820    0.1023   -0.1381 S   0  0  0  0  0  0  0  0  0  0  0  0
   -1.3594    2.0682   -0.0090 H   0  0  0  0  0  0  0  0  0  0  0  0
   -2.4808   -0.1357    0.0578 H   0  0  0  0  0  0  0  0  0  0  0  0
    1.1085    2.2368   -0.0907 H   0  0  0  0  0  0  0  0  0  0  0  0
    1.3635   -2.0700   -0.0490 H   0  0  0  0  0  0  0  0  0  0  0  0
   -2.2066   -2.5321   -0.2389 H   0  0  0  0  0  0  0  0  0  0  0  0
   -0.7106   -3.2797   -0.2660 H   0  0  0  0  0  0  0  0  0  0  0  0
    3.3314    1.4422   -0.1628 H   0  0  0  0  0  0  0  0  0  0  0  0
  1  9  1  0  0  0  0
  1  2  2  0  0  0  0
  2 10  1  0  0  0  0
  3  1  1  0  0  0  0
  4  5  2  0  0  0  0
  5  2  1  0  0  0  0
  5  7  1  0  0  0  0
  6  3  2  0  0  0  0
  6  4  1  0  0  0  0
  8  6  1  0  0  0  0
 11  3  1  0  0  0  0
 12  4  1  0  0  0  0
 13  7  1  0  0  0  0
 14  7  1  0  0  0  0
 15  8  1  0  0  0  0
M  END
>  <HBA>
2

>  <HBD>
2

>  <TPSA>
64.82

>  <cid>
31577

>  <dipole>
2.02

>  <excitation_energy_1>
4.577

>  <excitation_energy_2>
4.6

>  <excitation_energy_3>
4.87

>  <excitation_energy_4>
5.088

>  <homo_energy>
-5.486

>  <homo_lumo_gap>
5.551

>  <logP>
2.139

>  <lumo_energy>
0.065

>  <melting_point>
78.24

>  <molecular_refractivity>
38.1

>  <oscillator_strength_1>
0.0265

>  <oscillator_strength_2>
0.0119

>  <oscillator_strength_3>
0.0058

>  <oscillator_strength_4>
0.0112

>  <open_babel_can_smiles>
Nc1cccc(c1)S

>  <mulliken_charges>
15
1   -0.124715
2   -0.178143
3   -0.165473
4   -0.204979
5   0.322489
6   -0.059898
7   -0.787059
8   -0.03525
9   0.129872
10   0.117611
11   0.120259
12   0.1275
13   0.321146
14   0.321418
15   0.095222

>  <lowdin_charges>
15
1   -0.138586
2   -0.207198
3   -0.206654
4   -0.216281
5   0.069101
6   -0.09648
7   -0.486246
8   -0.013707
9   0.159423
10   0.151689
11   0.155347
12   0.15946
13   0.275387
14   0.277318
15   0.117426

$$$$

