PCCDB-ID:  20769
public computational chemistry database (PCCDB) project, http://pccdb.org

 21 20  0  0  0  0  0  0  0  0999 V2000
    4.1270    0.4372    1.1504 C   0  0  0  0  0  0  0  0  0  0  0  0
    1.7653   -0.3573    1.4677 C   0  0  0  0  0  0  0  0  0  0  0  0
    3.8293   -0.7075   -3.6203 C   0  0  0  0  0  0  0  0  0  0  0  0
    5.8863   -1.8825   -2.6768 C   0  0  0  0  0  0  0  0  0  0  0  0
    3.0653   -0.2522    0.7145 C   0  0  0  0  0  0  0  0  0  0  0  0
    4.4043   -1.5784   -2.5074 C   0  0  0  0  0  0  0  0  0  0  0  0
    3.0987   -0.9893   -0.5879 C   0  0  0  0  0  0  0  0  0  0  0  0
    2.1498   -1.6227   -1.0136 O   0  0  0  0  0  0  0  0  0  0  0  0
    4.2808   -0.8824   -1.2335 O   0  0  0  0  0  0  0  0  0  0  0  0
    4.0989    0.9714    2.0966 H   0  0  0  0  0  0  0  0  0  0  0  0
    5.0460    0.4875    0.5775 H   0  0  0  0  0  0  0  0  0  0  0  0
    1.8123    0.2046    2.4047 H   0  0  0  0  0  0  0  0  0  0  0  0
    1.5274   -1.4030    1.6931 H   0  0  0  0  0  0  0  0  0  0  0  0
    0.9325    0.0245    0.8667 H   0  0  0  0  0  0  0  0  0  0  0  0
    3.9387   -1.2109   -4.5876 H   0  0  0  0  0  0  0  0  0  0  0  0
    4.3560    0.2523   -3.6696 H   0  0  0  0  0  0  0  0  0  0  0  0
    2.7655   -0.5204   -3.4506 H   0  0  0  0  0  0  0  0  0  0  0  0
    6.0520   -2.4330   -3.6094 H   0  0  0  0  0  0  0  0  0  0  0  0
    6.2568   -2.4911   -1.8459 H   0  0  0  0  0  0  0  0  0  0  0  0
    6.4726   -0.9575   -2.7152 H   0  0  0  0  0  0  0  0  0  0  0  0
    3.8259   -2.5038   -2.4298 H   0  0  0  0  0  0  0  0  0  0  0  0
  1 10  1  0  0  0  0
  2 13  1  0  0  0  0
  2 12  1  0  0  0  0
  3 17  1  0  0  0  0
  3  6  1  0  0  0  0
  4  6  1  0  0  0  0
  4 19  1  0  0  0  0
  5  1  2  0  0  0  0
  5  2  1  0  0  0  0
  6 21  1  0  0  0  0
  6  9  1  0  0  0  0
  7  5  1  0  0  0  0
  8  7  2  0  0  0  0
  9  7  1  0  0  0  0
 11  1  1  0  0  0  0
 14  2  1  0  0  0  0
 15  3  1  0  0  0  0
 16  3  1  0  0  0  0
 18  4  1  0  0  0  0
 20  4  1  0  0  0  0
M  END
>  <HBA>
2

>  <HBD>
0

>  <TPSA>
26.3

>  <cid>
20769

>  <dipole>
1.75

>  <excitation_energy_1>
4.781

>  <excitation_energy_2>
5.801

>  <excitation_energy_3>
6.381

>  <excitation_energy_4>
6.831

>  <homo_energy>
-7.219

>  <homo_lumo_gap>
6.237

>  <logP>
1.514

>  <lumo_energy>
-0.982

>  <melting_point>
-31.96

>  <molecular_refractivity>
36.57

>  <oscillator_strength_1>
0.0002

>  <oscillator_strength_2>
0.1929

>  <oscillator_strength_3>
0.1479

>  <oscillator_strength_4>
0.0058

>  <open_babel_can_smiles>
CC(OC(=O)C(=C)C)C

>  <mulliken_charges>
21
1   -0.370026
2   -0.499831
3   -0.457909
4   -0.452519
5   0.126239
6   0.131666
7   0.598832
8   -0.490575
9   -0.486931
10   0.146821
11   0.170071
12   0.146215
13   0.172261
14   0.172061
15   0.14698
16   0.149932
17   0.174036
18   0.149318
19   0.157829
20   0.15347
21   0.162061

>  <lowdin_charges>
21
1   -0.303522
2   -0.434672
3   -0.452368
4   -0.448881
5   -0.028247
6   0.013872
7   0.194048
8   -0.274212
9   -0.194418
10   0.161983
11   0.174337
12   0.154876
13   0.167254
14   0.169073
15   0.156286
16   0.153093
17   0.164888
18   0.157058
19   0.159605
20   0.155165
21   0.154784

$$$$

