PCCDB-ID:  42370
public computational chemistry database (PCCDB) project, http://pccdb.org

 38 38  0  0  1  0  0  0  0  0999 V2000
    0.2163   -1.1088   -1.6990 C   0  0  0  0  0  0  0  0  0  0  0  0
    5.5481    2.6172    0.9546 C   0  0  0  0  0  0  0  0  0  0  0  0
    8.0400    2.6185    0.4262 C   0  0  0  0  0  0  0  0  0  0  0  0
    6.4200    3.8493   -1.0650 C   0  0  0  0  0  0  0  0  0  0  0  0
    6.7100   -0.3229   -3.1078 C   0  0  0  0  0  0  0  0  0  0  0  0
    2.4921   -1.3311   -0.5996 C   0  0  0  0  0  0  0  0  0  0  0  0
    2.4003   -0.5462   -2.8600 C   0  0  0  0  0  0  0  0  0  0  0  0
    3.8810   -1.2484   -0.6267 C   0  0  0  0  0  0  0  0  0  0  0  0
    3.7938   -0.4534   -2.8878 C   0  0  0  0  0  0  0  0  0  0  0  0
    1.7220   -0.9868   -1.7197 C   0  0  0  0  0  0  0  0  0  0  0  0
    4.5622   -0.8085   -1.7737 C   0  0  0  0  0  0  0  0  0  0  0  0
    6.4928    0.2345   -0.6395 C   0  0  0  0  0  0  0  0  0  0  0  0
    6.6180    2.6456   -0.1415 C   0  0  0  0  0  0  0  0  0  0  0  0
    6.1104   -0.7597   -1.7609 C   0  0  2  0  0  0  0  0  0  0  0  0
    6.7186   -2.0486   -1.3928 N   0  0  0  0  0  0  0  0  0  0  0  0
    6.7683   -0.1231    0.4906 O   0  0  0  0  0  0  0  0  0  0  0  0
    6.4182    1.5031   -1.0601 O   0  0  0  0  0  0  0  0  0  0  0  0
   -0.1904   -0.8826   -0.7071 H   0  0  0  0  0  0  0  0  0  0  0  0
   -0.1060   -2.1268   -1.9559 H   0  0  0  0  0  0  0  0  0  0  0  0
   -0.2510   -0.4285   -2.4188 H   0  0  0  0  0  0  0  0  0  0  0  0
    5.6101    3.5369    1.5471 H   0  0  0  0  0  0  0  0  0  0  0  0
    5.6859    1.7637    1.6203 H   0  0  0  0  0  0  0  0  0  0  0  0
    4.5486    2.5637    0.5101 H   0  0  0  0  0  0  0  0  0  0  0  0
    8.2195    3.5349    1.0001 H   0  0  0  0  0  0  0  0  0  0  0  0
    8.7743    2.5782   -0.3856 H   0  0  0  0  0  0  0  0  0  0  0  0
    8.1886    1.7590    1.0812 H   0  0  0  0  0  0  0  0  0  0  0  0
    6.5339    4.7794   -0.4981 H   0  0  0  0  0  0  0  0  0  0  0  0
    5.4197    3.8346   -1.5098 H   0  0  0  0  0  0  0  0  0  0  0  0
    7.1581    3.8443   -1.8737 H   0  0  0  0  0  0  0  0  0  0  0  0
    6.3482    0.6563   -3.4273 H   0  0  0  0  0  0  0  0  0  0  0  0
    6.4681   -1.0625   -3.8790 H   0  0  0  0  0  0  0  0  0  0  0  0
    7.7983   -0.2850   -3.0147 H   0  0  0  0  0  0  0  0  0  0  0  0
    1.9956   -1.6674    0.3084 H   0  0  0  0  0  0  0  0  0  0  0  0
    1.8326   -0.2646   -3.7445 H   0  0  0  0  0  0  0  0  0  0  0  0
    4.4471   -1.5171    0.2610 H   0  0  0  0  0  0  0  0  0  0  0  0
    4.2736   -0.0987   -3.7936 H   0  0  0  0  0  0  0  0  0  0  0  0
    6.1775   -2.8069   -1.8023 H   0  0  0  0  0  0  0  0  0  0  0  0
    6.6884   -2.1541   -0.3807 H   0  0  0  0  0  0  0  0  0  0  0  0
  1 18  1  0  0  0  0
  2 21  1  0  0  0  0
  2 22  1  0  0  0  0
  3 24  1  0  0  0  0
  3 26  1  0  0  0  0
  4 27  1  0  0  0  0
  4 13  1  0  0  0  0
  5 32  1  0  0  0  0
  5 14  1  0  0  0  0
  6 33  1  0  0  0  0
  7 10  1  0  0  0  0
  8  6  1  0  0  0  0
  8 35  1  0  0  0  0
  9  7  2  0  0  0  0
  9 11  1  0  0  0  0
 10  1  1  0  0  0  0
 10  6  2  0  0  0  0
 11 14  1  0  0  0  0
 11  8  2  0  0  0  0
 12 16  2  0  0  0  0
 13  3  1  0  0  0  0
 13  2  1  0  0  0  0
 14 15  1  0  0  0  0
 14 12  1  1  0  0  0
 15 38  1  0  0  0  0
 17 12  1  0  0  0  0
 17 13  1  0  0  0  0
 19  1  1  0  0  0  0
 20  1  1  0  0  0  0
 23  2  1  0  0  0  0
 25  3  1  0  0  0  0
 28  4  1  0  0  0  0
 29  4  1  0  0  0  0
 30  5  1  0  0  0  0
 31  5  1  0  0  0  0
 34  7  1  0  0  0  0
 36  9  1  0  0  0  0
 37 15  1  0  0  0  0
M  END
>  <HBA>
3

>  <HBD>
1

>  <TPSA>
52.32

>  <cid>
42370

>  <dipole>
2.5

>  <excitation_energy_1>
4.93

>  <excitation_energy_2>
5.069

>  <excitation_energy_3>
5.364

>  <excitation_energy_4>
5.528

>  <homo_energy>
-5.992

>  <homo_lumo_gap>
5.758

>  <logP>
3.211

>  <lumo_energy>
-0.234

>  <melting_point>
92.66

>  <molecular_refractivity>
69.13

>  <oscillator_strength_1>
0.0537

>  <oscillator_strength_2>
0.0236

>  <oscillator_strength_3>
0.0571

>  <oscillator_strength_4>
0.0154

>  <open_babel_can_smiles>
Cc1ccc(cc1)[C@@](C(=O)OC(C)(C)C)(N)C

>  <mulliken_charges>
38
1   -0.530265
2   -0.468529
3   -0.465042
4   -0.45198
5   -0.444548
6   -0.181005
7   -0.185393
8   -0.183969
9   -0.185216
10   0.180793
11   0.139556
12   0.679694
13   0.306776
14   0.022279
15   -0.716824
16   -0.507559
17   -0.500809
18   0.157603
19   0.165755
20   0.156268
21   0.143923
22   0.183842
23   0.155716
24   0.143322
25   0.150167
26   0.18791
27   0.146331
28   0.156975
29   0.154898
30   0.157301
31   0.14324
32   0.160831
33   0.122478
34   0.120776
35   0.138362
36   0.129631
37   0.295737
38   0.320977

>  <lowdin_charges>
38
1   -0.442708
2   -0.456224
3   -0.45698
4   -0.444666
5   -0.442726
6   -0.166742
7   -0.168592
8   -0.164242
9   -0.166591
10   0.000845
11   -0.026119
12   0.203601
13   0.146458
14   0.044987
15   -0.541543
16   -0.27867
17   -0.181942
18   0.158046
19   0.161246
20   0.158854
21   0.155633
22   0.171402
23   0.157364
24   0.155335
25   0.155978
26   0.17334
27   0.155031
28   0.157624
29   0.157647
30   0.155708
31   0.152831
32   0.160737
33   0.154959
34   0.154375
35   0.162406
36   0.161425
37   0.257733
38   0.264184

$$$$

