PCCDB-ID:  68535
public computational chemistry database (PCCDB) project, http://pccdb.org

 10  9  0  0  0  0  0  0  0  0999 V2000
    0.9002   -0.0657    0.0554 C   0  0  0  0  0  0  0  0  0  0  0  0
    2.3575   -0.0615    0.0445 C   0  0  0  0  0  0  0  0  0  0  0  0
    3.5692   -0.0639    0.0496 C   0  0  0  0  0  0  0  0  0  0  0  0
    5.0207   -0.0656    0.0968 C   0  0  0  0  0  0  0  0  0  0  0  0
    5.6710   -0.0810    1.1124 O   0  0  0  0  0  0  0  0  0  0  0  0
    5.6240   -0.0479   -1.1223 O   0  0  0  0  0  0  0  0  0  0  0  0
    0.5145    0.6034    0.8334 H   0  0  0  0  0  0  0  0  0  0  0  0
    0.5202   -1.0731    0.2627 H   0  0  0  0  0  0  0  0  0  0  0  0
    0.4904    0.2585   -0.9079 H   0  0  0  0  0  0  0  0  0  0  0  0
    4.9437   -0.0374   -1.8171 H   0  0  0  0  0  0  0  0  0  0  0  0
  1  8  1  0  0  0  0
  1  7  1  0  0  0  0
  2  3  3  0  0  0  0
  2  1  1  0  0  0  0
  3  4  1  0  0  0  0
  4  5  2  0  0  0  0
  6  4  1  0  0  0  0
  9  1  1  0  0  0  0
 10  6  1  0  0  0  0
M  END
>  <HBA>
2

>  <HBD>
1

>  <TPSA>
37.3

>  <cid>
68535

>  <dipole>
5.38

>  <excitation_energy_1>
4.729

>  <excitation_energy_2>
5.561

>  <excitation_energy_3>
5.83

>  <excitation_energy_4>
6.677

>  <homo_energy>
-7.448

>  <homo_lumo_gap>
6.34

>  <logP>
0.094

>  <lumo_energy>
-1.108

>  <melting_point>
69.27

>  <molecular_refractivity>
21.28

>  <oscillator_strength_1>
0.0

>  <oscillator_strength_2>
0.0002

>  <oscillator_strength_3>
0.0778

>  <oscillator_strength_4>
0.0164

>  <open_babel_can_smiles>
CC#CC(=O)O

>  <mulliken_charges>
10
1   -0.578284
2   0.035099
3   0.019069
4   0.494298
5   -0.415602
6   -0.560498
7   0.201024
8   0.199536
9   0.192055
10   0.413304

>  <lowdin_charges>
10
1   -0.425145
2   -0.009451
3   -0.132421
4   0.21046
5   -0.214435
6   -0.34792
7   0.187781
8   0.18662
9   0.181125
10   0.363387

$$$$

