PCCDB-ID:  72929
public computational chemistry database (PCCDB) project, http://pccdb.org

 18 18  0  0  0  0  0  0  0  0999 V2000
    1.4945   -1.2758    0.5264 C   0  0  0  0  0  0  0  0  0  0  0  0
    1.7007    3.0768    3.3790 C   0  0  0  0  0  0  0  0  0  0  0  0
    1.0370    2.2408    4.2825 C   0  0  0  0  0  0  0  0  0  0  0  0
    2.3840    2.5097    2.3129 C   0  0  0  0  0  0  0  0  0  0  0  0
    1.0938    0.8677    4.0590 C   0  0  0  0  0  0  0  0  0  0  0  0
    2.7679   -0.4646    0.4580 C   0  0  0  0  0  0  0  0  0  0  0  0
    2.3699    1.1089    2.1600 C   0  0  0  0  0  0  0  0  0  0  0  0
    1.7363    0.2998    3.0296 N   0  0  0  0  0  0  0  0  0  0  0  0
    3.1105    0.5743    1.1083 N   0  0  0  0  0  0  0  0  0  0  0  0
    3.6744   -0.9058   -0.4578 O   0  0  0  0  0  0  0  0  0  0  0  0
    0.7291   -0.7664    1.1086 H   0  0  0  0  0  0  0  0  0  0  0  0
    1.6889   -2.2387    1.0138 H   0  0  0  0  0  0  0  0  0  0  0  0
    1.1202   -1.4725   -0.4869 H   0  0  0  0  0  0  0  0  0  0  0  0
    1.6918    4.1555    3.5124 H   0  0  0  0  0  0  0  0  0  0  0  0
    0.5022    2.6396    5.1389 H   0  0  0  0  0  0  0  0  0  0  0  0
    2.9305    3.1106    1.5940 H   0  0  0  0  0  0  0  0  0  0  0  0
    0.6007    0.1786    4.7438 H   0  0  0  0  0  0  0  0  0  0  0  0
    3.3090   -1.6750   -0.9219 H   0  0  0  0  0  0  0  0  0  0  0  0
  1 12  1  0  0  0  0
  1 11  1  0  0  0  0
  2 14  1  0  0  0  0
  2  3  1  0  0  0  0
  3 15  1  0  0  0  0
  4  2  2  0  0  0  0
  5  3  2  0  0  0  0
  5 17  1  0  0  0  0
  6  1  1  0  0  0  0
  6  9  2  0  0  0  0
  7  4  1  0  0  0  0
  7  8  2  0  0  0  0
  8  5  1  0  0  0  0
  9  7  1  0  0  0  0
 10  6  1  0  0  0  0
 13  1  1  0  0  0  0
 16  4  1  0  0  0  0
 18 10  1  0  0  0  0
M  END
>  <HBA>
3

>  <HBD>
1

>  <TPSA>
41.99

>  <cid>
72929

>  <dipole>
2.69

>  <excitation_energy_1>
4.653

>  <excitation_energy_2>
4.924

>  <excitation_energy_3>
4.988

>  <excitation_energy_4>
5.218

>  <homo_energy>
-6.022

>  <homo_lumo_gap>
5.363

>  <logP>
1.113

>  <lumo_energy>
-0.659

>  <melting_point>
74.1

>  <molecular_refractivity>
38.55

>  <oscillator_strength_1>
0.1994

>  <oscillator_strength_2>
0.0083

>  <oscillator_strength_3>
0.0636

>  <oscillator_strength_4>
0.0024

>  <open_babel_can_smiles>
C/C(=N\c1ccccn1)/O

>  <mulliken_charges>
18
1   -0.533786
2   -0.103106
3   -0.149202
4   -0.157196
5   0.034618
6   0.497996
7   0.428591
8   -0.481946
9   -0.475543
10   -0.564105
11   0.203646
12   0.187872
13   0.151171
14   0.140157
15   0.132847
16   0.144565
17   0.134855
18   0.408567

>  <lowdin_charges>
18
1   -0.478749
2   -0.125841
3   -0.192745
4   -0.181078
5   -0.090723
6   0.165093
7   0.090952
8   -0.182575
9   -0.184172
10   -0.352116
11   0.189273
12   0.178815
13   0.156348
14   0.160295
15   0.162895
16   0.172137
17   0.154983
18   0.357209

$$$$

