PCCDB-ID:  11523
public computational chemistry database (PCCDB) project, http://pccdb.org

 24 24  0  0  1  0  0  0  0  0999 V2000
    0.9244    0.1505   -0.0220 C   0  0  0  0  0  0  0  0  0  0  0  0
    6.6321   -0.0533   -1.5254 C   0  0  0  0  0  0  0  0  0  0  0  0
    3.0518    1.3343   -0.7590 C   0  0  0  0  0  0  0  0  0  0  0  0
    2.9703   -1.1871   -0.7262 C   0  0  0  0  0  0  0  0  0  0  0  0
    4.5857    1.2846   -0.8237 C   0  0  0  0  0  0  0  0  0  0  0  0
    4.5041   -1.2371   -0.7897 C   0  0  0  0  0  0  0  0  0  0  0  0
    2.4559    0.1003   -0.0573 C   0  0  2  0  0  0  0  0  0  0  0  0
    5.1004   -0.0033   -1.4915 C   0  0  2  0  0  0  0  0  0  0  0  0
    0.5663    1.0550    0.4846 H   0  0  0  0  0  0  0  0  0  0  0  0
    0.5087   -0.7164    0.5061 H   0  0  0  0  0  0  0  0  0  0  0  0
    0.5076    0.1517   -1.0377 H   0  0  0  0  0  0  0  0  0  0  0  0
    7.0480    0.8121   -2.0555 H   0  0  0  0  0  0  0  0  0  0  0  0
    6.9907   -0.9592   -2.0292 H   0  0  0  0  0  0  0  0  0  0  0  0
    7.0480   -0.0517   -0.5094 H   0  0  0  0  0  0  0  0  0  0  0  0
    2.6459    1.3918   -1.7811 H   0  0  0  0  0  0  0  0  0  0  0  0
    2.7256    2.2495   -0.2466 H   0  0  0  0  0  0  0  0  0  0  0  0
    2.5860   -2.0661   -0.1910 H   0  0  0  0  0  0  0  0  0  0  0  0
    2.5615   -1.2444   -1.7471 H   0  0  0  0  0  0  0  0  0  0  0  0
    4.9954    1.3435    0.1968 H   0  0  0  0  0  0  0  0  0  0  0  0
    4.9691    2.1630   -1.3604 H   0  0  0  0  0  0  0  0  0  0  0  0
    4.8308   -2.1526   -1.3015 H   0  0  0  0  0  0  0  0  0  0  0  0
    4.9093   -1.2941    0.2327 H   0  0  0  0  0  0  0  0  0  0  0  0
    2.8204    0.1020    0.9830 H   0  0  0  0  0  0  0  0  0  0  0  0
    4.7369   -0.0056   -2.5322 H   0  0  0  0  0  0  0  0  0  0  0  0
  1  9  1  0  0  0  0
  1 10  1  0  0  0  0
  2  8  1  0  0  0  0
  2 14  1  0  0  0  0
  3 16  1  0  0  0  0
  3  7  1  0  0  0  0
  4 17  1  0  0  0  0
  4  7  1  0  0  0  0
  5  3  1  0  0  0  0
  5 19  1  0  0  0  0
  6  4  1  0  0  0  0
  6 22  1  0  0  0  0
  7  1  1  0  0  0  0
  7 23  1  1  0  0  0
  8 24  1  6  0  0  0
  8  5  1  0  0  0  0
  8  6  1  0  0  0  0
 11  1  1  0  0  0  0
 12  2  1  0  0  0  0
 13  2  1  0  0  0  0
 15  3  1  0  0  0  0
 18  4  1  0  0  0  0
 20  5  1  0  0  0  0
 21  6  1  0  0  0  0
M  END
>  <HBA>
0

>  <HBD>
0

>  <TPSA>
0.0

>  <cid>
11523

>  <dipole>
0.0

>  <excitation_energy_1>
7.354

>  <excitation_energy_2>
7.527

>  <excitation_energy_3>
7.567

>  <excitation_energy_4>
7.705

>  <homo_energy>
-7.766

>  <homo_lumo_gap>
10.191

>  <logP>
2.833

>  <lumo_energy>
2.425

>  <melting_point>
-5.31

>  <molecular_refractivity>
38.46

>  <oscillator_strength_1>
0.0

>  <oscillator_strength_2>
0.0

>  <oscillator_strength_3>
0.0445

>  <oscillator_strength_4>
0.0063

>  <open_babel_can_smiles>
C[C@@H]1CC[C@H](CC1)C

>  <mulliken_charges>
24
1   -0.444772
2   -0.444776
3   -0.257108
4   -0.257067
5   -0.257118
6   -0.257133
7   -0.06767
8   -0.067669
9   0.138347
10   0.138351
11   0.13765
12   0.138355
13   0.138343
14   0.137653
15   0.12271
16   0.125701
17   0.125708
18   0.122707
19   0.122715
20   0.125726
21   0.125695
22   0.122712
23   0.115465
24   0.115473

>  <lowdin_charges>
24
1   -0.444283
2   -0.444277
3   -0.277757
4   -0.27811
5   -0.278127
6   -0.277752
7   -0.12394
8   -0.123937
9   0.147663
10   0.147949
11   0.144268
12   0.147959
13   0.14765
14   0.144261
15   0.134873
16   0.14154
17   0.141864
18   0.134887
19   0.134896
20   0.141879
21   0.141534
22   0.134869
23   0.131044
24   0.131044

$$$$

