PCCDB-ID:  61590
public computational chemistry database (PCCDB) project, http://pccdb.org

 24 23  0  0  0  0  0  0  0  0999 V2000
    5.0629   -0.5638    1.8483 C   0  0  0  0  0  0  0  0  0  0  0  0
   -2.5729   -1.5022   -0.0911 C   0  0  0  0  0  0  0  0  0  0  0  0
    3.7645    0.0490    2.3680 C   0  0  0  0  0  0  0  0  0  0  0  0
   -1.3491   -1.1896   -0.9378 C   0  0  0  0  0  0  0  0  0  0  0  0
    1.7312    1.5521    1.7658 C   0  0  0  0  0  0  0  0  0  0  0  0
    2.9435    0.7374    1.2943 C   0  0  0  0  0  0  0  0  0  0  0  0
    0.6222    1.5258    0.7286 C   0  0  0  0  0  0  0  0  0  0  0  0
    0.0829    0.1059    0.4382 C   0  0  0  0  0  0  0  0  0  0  0  0
    3.2096    0.6721    0.1096 O   0  0  0  0  0  0  0  0  0  0  0  0
    0.1595    2.5036    0.1923 O   0  0  0  0  0  0  0  0  0  0  0  0
    0.4262   -0.8554    1.0990 O   0  0  0  0  0  0  0  0  0  0  0  0
   -0.7763    0.0963   -0.5772 O   0  0  0  0  0  0  0  0  0  0  0  0
    5.5985   -1.0731    2.6559 H   0  0  0  0  0  0  0  0  0  0  0  0
    5.7205    0.2044    1.4295 H   0  0  0  0  0  0  0  0  0  0  0  0
    4.8589   -1.2881    1.0549 H   0  0  0  0  0  0  0  0  0  0  0  0
   -3.0316   -2.4346   -0.4393 H   0  0  0  0  0  0  0  0  0  0  0  0
   -3.3153   -0.7019   -0.1709 H   0  0  0  0  0  0  0  0  0  0  0  0
   -2.2968   -1.6283    0.9596 H   0  0  0  0  0  0  0  0  0  0  0  0
    3.9503    0.7674    3.1799 H   0  0  0  0  0  0  0  0  0  0  0  0
    3.1104   -0.7209    2.8046 H   0  0  0  0  0  0  0  0  0  0  0  0
   -1.6064   -1.0754   -1.9927 H   0  0  0  0  0  0  0  0  0  0  0  0
   -0.5784   -1.9567   -0.8299 H   0  0  0  0  0  0  0  0  0  0  0  0
    2.0360    2.5950    1.9082 H   0  0  0  0  0  0  0  0  0  0  0  0
    1.3582    1.1668    2.7218 H   0  0  0  0  0  0  0  0  0  0  0  0
  1  3  1  0  0  0  0
  1 13  1  0  0  0  0
  2 18  1  0  0  0  0
  3 20  1  0  0  0  0
  3 19  1  0  0  0  0
  4 22  1  0  0  0  0
  4 12  1  0  0  0  0
  4  2  1  0  0  0  0
  5 23  1  0  0  0  0
  5 24  1  0  0  0  0
  6  5  1  0  0  0  0
  6  3  1  0  0  0  0
  7  5  1  0  0  0  0
  8  7  1  0  0  0  0
  8 11  2  0  0  0  0
  9  6  2  0  0  0  0
 10  7  2  0  0  0  0
 12  8  1  0  0  0  0
 14  1  1  0  0  0  0
 15  1  1  0  0  0  0
 16  2  1  0  0  0  0
 17  2  1  0  0  0  0
 21  4  1  0  0  0  0
M  END
>  <HBA>
4

>  <HBD>
0

>  <TPSA>
60.44

>  <cid>
61590

>  <dipole>
2.87

>  <excitation_energy_1>
3.282

>  <excitation_energy_2>
4.003

>  <excitation_energy_3>
4.496

>  <excitation_energy_4>
5.082

>  <homo_energy>
-6.806

>  <homo_lumo_gap>
4.77

>  <logP>
0.488

>  <lumo_energy>
-2.035

>  <melting_point>
27.33

>  <molecular_refractivity>
42.26

>  <oscillator_strength_1>
0.0005

>  <oscillator_strength_2>
0.0031

>  <oscillator_strength_3>
0.0004

>  <oscillator_strength_4>
0.0018

>  <open_babel_can_smiles>
CCOC(=O)C(=O)CC(=O)CC

>  <mulliken_charges>
24
1   -0.437162
2   -0.465293
3   -0.359754
4   -0.051645
5   -0.434617
6   0.474929
7   0.411266
8   0.59214
9   -0.445865
10   -0.398879
11   -0.485309
12   -0.433322
13   0.143688
14   0.158523
15   0.169582
16   0.156618
17   0.166886
18   0.174995
19   0.157445
20   0.183977
21   0.166454
22   0.175706
23   0.197062
24   0.182572

>  <lowdin_charges>
24
1   -0.442852
2   -0.453569
3   -0.308466
4   -0.122568
5   -0.335717
6   0.17333
7   0.150734
8   0.166544
9   -0.233031
10   -0.171312
11   -0.260664
12   -0.150019
13   0.153686
14   0.158683
15   0.164099
16   0.162702
17   0.161679
18   0.163547
19   0.159919
20   0.175881
21   0.158305
22   0.162225
23   0.186836
24   0.180027

$$$$

