PCCDB-ID:  38292
public computational chemistry database (PCCDB) project, http://pccdb.org

 33 33  0  0  0  0  0  0  0  0999 V2000
   -1.2951   -3.0801   -3.4231 C   0  0  0  0  0  0  0  0  0  0  0  0
   -0.2220   -3.9719   -3.3588 C   0  0  0  0  0  0  0  0  0  0  0  0
   -1.0973   -1.7406   -3.0852 C   0  0  0  0  0  0  0  0  0  0  0  0
    1.0404   -3.5276   -2.9648 C   0  0  0  0  0  0  0  0  0  0  0  0
    0.1655   -1.2998   -2.6852 C   0  0  0  0  0  0  0  0  0  0  0  0
    5.4949   -6.6178   -1.1339 C   0  0  0  0  0  0  0  0  0  0  0  0
    5.7334   -5.1010   -1.1224 C   0  0  0  0  0  0  0  0  0  0  0  0
    5.2690   -3.0274    0.1212 C   0  0  0  0  0  0  0  0  0  0  0  0
    4.6913   -2.2188   -1.0478 C   0  0  0  0  0  0  0  0  0  0  0  0
    2.6258   -1.6867   -2.2284 C   0  0  0  0  0  0  0  0  0  0  0  0
    1.2493   -2.1838   -2.6260 C   0  0  0  0  0  0  0  0  0  0  0  0
    5.9652   -7.3720    0.0322 N   0  0  0  0  0  0  0  0  0  0  0  0
    5.0533   -4.4677    0.0030 N   0  0  0  0  0  0  0  0  0  0  0  0
    3.3559   -2.6598   -1.4255 N   0  0  0  0  0  0  0  0  0  0  0  0
   -2.2783   -3.4278   -3.7292 H   0  0  0  0  0  0  0  0  0  0  0  0
   -0.3683   -5.0180   -3.6165 H   0  0  0  0  0  0  0  0  0  0  0  0
   -1.9267   -1.0390   -3.1245 H   0  0  0  0  0  0  0  0  0  0  0  0
    1.8762   -4.2179   -2.9050 H   0  0  0  0  0  0  0  0  0  0  0  0
    0.3117   -0.2558   -2.4152 H   0  0  0  0  0  0  0  0  0  0  0  0
    5.9806   -7.0380   -2.0239 H   0  0  0  0  0  0  0  0  0  0  0  0
    4.4200   -6.8052   -1.2348 H   0  0  0  0  0  0  0  0  0  0  0  0
    5.3256   -4.6789   -2.0480 H   0  0  0  0  0  0  0  0  0  0  0  0
    6.8266   -4.9024   -1.1279 H   0  0  0  0  0  0  0  0  0  0  0  0
    4.7796   -2.7057    1.0506 H   0  0  0  0  0  0  0  0  0  0  0  0
    6.3382   -2.7495    0.2131 H   0  0  0  0  0  0  0  0  0  0  0  0
    5.3437   -2.3053   -1.9286 H   0  0  0  0  0  0  0  0  0  0  0  0
    4.7261   -1.1520   -0.7493 H   0  0  0  0  0  0  0  0  0  0  0  0
    2.5265   -0.7012   -1.7313 H   0  0  0  0  0  0  0  0  0  0  0  0
    3.2238   -1.5008   -3.1343 H   0  0  0  0  0  0  0  0  0  0  0  0
    6.9413   -7.1553    0.2310 H   0  0  0  0  0  0  0  0  0  0  0  0
    5.4275   -7.1264    0.8610 H   0  0  0  0  0  0  0  0  0  0  0  0
    5.3810   -4.9044    0.8632 H   0  0  0  0  0  0  0  0  0  0  0  0
    2.8192   -2.9147   -0.5990 H   0  0  0  0  0  0  0  0  0  0  0  0
  1  2  2  0  0  0  0
  1  3  1  0  0  0  0
  2  4  1  0  0  0  0
  3  5  2  0  0  0  0
  4 18  1  0  0  0  0
  4 11  2  0  0  0  0
  5 11  1  0  0  0  0
  5 19  1  0  0  0  0
  6  7  1  0  0  0  0
  6 12  1  0  0  0  0
  7 13  1  0  0  0  0
  8 25  1  0  0  0  0
  8 24  1  0  0  0  0
  9 27  1  0  0  0  0
  9  8  1  0  0  0  0
 10 28  1  0  0  0  0
 10 14  1  0  0  0  0
 11 10  1  0  0  0  0
 12 30  1  0  0  0  0
 12 31  1  0  0  0  0
 13  8  1  0  0  0  0
 13 32  1  0  0  0  0
 14  9  1  0  0  0  0
 14 33  1  0  0  0  0
 15  1  1  0  0  0  0
 16  2  1  0  0  0  0
 17  3  1  0  0  0  0
 20  6  1  0  0  0  0
 21  6  1  0  0  0  0
 22  7  1  0  0  0  0
 23  7  1  0  0  0  0
 26  9  1  0  0  0  0
 29 10  1  0  0  0  0
M  END
>  <HBA>
3

>  <HBD>
3

>  <TPSA>
50.08

>  <cid>
38292

>  <dipole>
2.47

>  <excitation_energy_1>
4.971

>  <excitation_energy_2>
5.063

>  <excitation_energy_3>
5.095

>  <excitation_energy_4>
5.343

>  <homo_energy>
-5.758

>  <homo_lumo_gap>
5.924

>  <logP>
1.807

>  <lumo_energy>
0.166

>  <melting_point>
113.1

>  <molecular_refractivity>
58.95

>  <oscillator_strength_1>
0.0016

>  <oscillator_strength_2>
0.0045

>  <oscillator_strength_3>
0.0008

>  <oscillator_strength_4>
0.0025

>  <open_babel_can_smiles>
NCCNCCNCc1ccccc1

>  <mulliken_charges>
33
1   -0.129234
2   -0.131771
3   -0.129262
4   -0.167851
5   -0.18512
6   -0.14983
7   -0.127944
8   -0.148424
9   -0.11169
10   -0.179822
11   0.128371
12   -0.711812
13   -0.538633
14   -0.547855
15   0.125403
16   0.127096
17   0.125521
18   0.147482
19   0.11933
20   0.140582
21   0.155652
22   0.157779
23   0.094537
24   0.13371
25   0.114088
26   0.140757
27   0.112813
28   0.114603
29   0.152374
30   0.29081
31   0.29739
32   0.27718
33   0.303768

>  <lowdin_charges>
33
1   -0.160843
2   -0.154192
3   -0.158921
4   -0.162214
5   -0.167357
6   -0.209066
7   -0.221374
8   -0.206981
9   -0.205399
10   -0.196137
11   -0.014217
12   -0.554945
13   -0.366114
14   -0.357383
15   0.155241
16   0.154629
17   0.156401
18   0.167798
19   0.151099
20   0.145384
21   0.149984
22   0.154707
23   0.104795
24   0.140626
25   0.119638
26   0.138307
27   0.119985
28   0.119616
29   0.150002
30   0.249929
31   0.254018
32   0.242783
33   0.260202

$$$$

