PCCDB-ID:  66726
public computational chemistry database (PCCDB) project, http://pccdb.org

 22 22  0  0  0  0  0  0  0  0999 V2000
    1.9776   -1.3687   -0.4217 C   0  0  0  0  0  0  0  0  0  0  0  0
    5.8230    1.0713    5.4106 C   0  0  0  0  0  0  0  0  0  0  0  0
    3.4635    1.0101    1.9115 C   0  0  0  0  0  0  0  0  0  0  0  0
    4.2398    1.0655    3.0634 C   0  0  0  0  0  0  0  0  0  0  0  0
    3.5805   -1.3945    1.9122 C   0  0  0  0  0  0  0  0  0  0  0  0
    4.8244   -2.6368    3.6568 C   0  0  0  0  0  0  0  0  0  0  0  0
    4.3664   -1.3557    3.0756 C   0  0  0  0  0  0  0  0  0  0  0  0
    3.1247   -0.2188    1.3240 C   0  0  0  0  0  0  0  0  0  0  0  0
    4.7013   -0.1174    3.6602 C   0  0  0  0  0  0  0  0  0  0  0  0
    4.5521   -3.7283    3.1831 O   0  0  0  0  0  0  0  0  0  0  0  0
    2.3579   -0.1481    0.1953 O   0  0  0  0  0  0  0  0  0  0  0  0
    5.4676   -0.1544    4.7891 O   0  0  0  0  0  0  0  0  0  0  0  0
    1.3674   -1.0913   -1.2830 H   0  0  0  0  0  0  0  0  0  0  0  0
    1.3857   -1.9964    0.2575 H   0  0  0  0  0  0  0  0  0  0  0  0
    2.8525   -1.9375   -0.7634 H   0  0  0  0  0  0  0  0  0  0  0  0
    6.4252    0.8000    6.2793 H   0  0  0  0  0  0  0  0  0  0  0  0
    4.9360    1.6262    5.7427 H   0  0  0  0  0  0  0  0  0  0  0  0
    6.4178    1.7052    4.7403 H   0  0  0  0  0  0  0  0  0  0  0  0
    3.1047    1.9226    1.4454 H   0  0  0  0  0  0  0  0  0  0  0  0
    4.4808    2.0329    3.4881 H   0  0  0  0  0  0  0  0  0  0  0  0
    3.3559   -2.3750    1.5089 H   0  0  0  0  0  0  0  0  0  0  0  0
    5.4443   -2.5558    4.5680 H   0  0  0  0  0  0  0  0  0  0  0  0
  1 11  1  0  0  0  0
  1 14  1  0  0  0  0
  2 17  1  0  0  0  0
  2 16  1  0  0  0  0
  3  4  1  0  0  0  0
  4 20  1  0  0  0  0
  4  9  2  0  0  0  0
  5  7  2  0  0  0  0
  6 22  1  0  0  0  0
  7  6  1  0  0  0  0
  7  9  1  0  0  0  0
  8  3  2  0  0  0  0
  8  5  1  0  0  0  0
  9 12  1  0  0  0  0
 10  6  2  0  0  0  0
 11  8  1  0  0  0  0
 12  2  1  0  0  0  0
 13  1  1  0  0  0  0
 15  1  1  0  0  0  0
 18  2  1  0  0  0  0
 19  3  1  0  0  0  0
 21  5  1  0  0  0  0
M  END
>  <HBA>
3

>  <HBD>
0

>  <TPSA>
35.53

>  <cid>
66726

>  <dipole>
3.53

>  <excitation_energy_1>
3.576

>  <excitation_energy_2>
3.61

>  <excitation_energy_3>
5.013

>  <excitation_energy_4>
5.269

>  <homo_energy>
-5.728

>  <homo_lumo_gap>
4.204

>  <logP>
1.516

>  <lumo_energy>
-1.524

>  <melting_point>
49.3

>  <molecular_refractivity>
44.81

>  <oscillator_strength_1>
0.0001

>  <oscillator_strength_2>
0.0982

>  <oscillator_strength_3>
0.1254

>  <oscillator_strength_4>
0.0013

>  <open_babel_can_smiles>
COc1ccc(c(c1)C=O)OC

>  <mulliken_charges>
22
1   -0.216855
2   -0.217255
3   -0.168174
4   -0.196842
5   -0.250315
6   0.200374
7   0.029614
8   0.386824
9   0.329664
10   -0.421454
11   -0.515027
12   -0.512959
13   0.169487
14   0.156689
15   0.156652
16   0.175588
17   0.156179
18   0.156087
19   0.147944
20   0.140299
21   0.165942
22   0.127535

>  <lowdin_charges>
22
1   -0.28072
2   -0.279439
3   -0.150823
4   -0.204023
5   -0.176812
6   0.047118
7   -0.076377
8   0.087317
9   0.100624
10   -0.242874
11   -0.203068
12   -0.198504
13   0.16339
14   0.149422
15   0.148624
16   0.166526
17   0.148494
18   0.149141
19   0.17165
20   0.166812
21   0.180519
22   0.133003

$$$$

