PCCDB-ID:  69363
public computational chemistry database (PCCDB) project, http://pccdb.org

 23 22  0  0  0  0  0  0  0  0999 V2000
    2.9052    1.3986    0.1213 C   0  0  0  0  0  0  0  0  0  0  0  0
    2.2147   -2.2323   -1.2200 C   0  0  0  0  0  0  0  0  0  0  0  0
    2.1156   -0.0345   -2.4743 C   0  0  0  0  0  0  0  0  0  0  0  0
    2.4738   -0.0705    0.0310 C   0  0  0  0  0  0  0  0  0  0  0  0
    4.9711   -1.4662   -2.4142 C   0  0  0  0  0  0  0  0  0  0  0  0
    2.7736   -0.7964   -1.3054 C   0  0  0  0  0  0  0  0  0  0  0  0
    4.6636   -1.9270   -3.5682 N   0  0  0  0  0  0  0  0  0  0  0  0
    4.2451   -0.8087   -1.4464 N   0  0  0  0  0  0  0  0  0  0  0  0
    6.2658   -1.5806   -1.9942 O   0  0  0  0  0  0  0  0  0  0  0  0
    2.7090    1.7878    1.1264 H   0  0  0  0  0  0  0  0  0  0  0  0
    2.3572    2.0279   -0.5874 H   0  0  0  0  0  0  0  0  0  0  0  0
    3.9738    1.5224   -0.0839 H   0  0  0  0  0  0  0  0  0  0  0  0
    1.1205   -2.2206   -1.1574 H   0  0  0  0  0  0  0  0  0  0  0  0
    2.6028   -2.7446   -0.3322 H   0  0  0  0  0  0  0  0  0  0  0  0
    2.5004   -2.8209   -2.0968 H   0  0  0  0  0  0  0  0  0  0  0  0
    1.0630    0.1646   -2.2428 H   0  0  0  0  0  0  0  0  0  0  0  0
    2.1345   -0.6069   -3.4064 H   0  0  0  0  0  0  0  0  0  0  0  0
    2.6196    0.9182   -2.6569 H   0  0  0  0  0  0  0  0  0  0  0  0
    1.3943   -0.1456    0.2116 H   0  0  0  0  0  0  0  0  0  0  0  0
    2.9542   -0.6407    0.8400 H   0  0  0  0  0  0  0  0  0  0  0  0
    3.6864   -1.7799   -3.8019 H   0  0  0  0  0  0  0  0  0  0  0  0
    4.7540   -0.7389   -0.5741 H   0  0  0  0  0  0  0  0  0  0  0  0
    6.7251   -2.0052   -2.7398 H   0  0  0  0  0  0  0  0  0  0  0  0
  1 10  1  0  0  0  0
  2 13  1  0  0  0  0
  2 14  1  0  0  0  0
  3 16  1  0  0  0  0
  3  6  1  0  0  0  0
  4  1  1  0  0  0  0
  4 19  1  0  0  0  0
  4 20  1  0  0  0  0
  5  9  1  0  0  0  0
  5  8  1  0  0  0  0
  6  2  1  0  0  0  0
  6  4  1  0  0  0  0
  7  5  2  0  0  0  0
  8  6  1  0  0  0  0
  8 22  1  0  0  0  0
 11  1  1  0  0  0  0
 12  1  1  0  0  0  0
 15  2  1  0  0  0  0
 17  3  1  0  0  0  0
 18  3  1  0  0  0  0
 21  7  1  0  0  0  0
 23  9  1  0  0  0  0
M  END
>  <HBA>
3

>  <HBD>
2

>  <TPSA>
55.12

>  <cid>
69363

>  <dipole>
2.74

>  <excitation_energy_1>
5.623

>  <excitation_energy_2>
6.199

>  <excitation_energy_3>
6.245

>  <excitation_energy_4>
6.273

>  <homo_energy>
-6.12

>  <homo_lumo_gap>
7.851

>  <logP>
1.935

>  <lumo_energy>
1.731

>  <melting_point>
97.61

>  <molecular_refractivity>
37.09

>  <oscillator_strength_1>
0.0017

>  <oscillator_strength_2>
0.0047

>  <oscillator_strength_3>
0.0029

>  <oscillator_strength_4>
0.0401

>  <open_babel_can_smiles>
CCC(NC(=N)O)(C)C

>  <mulliken_charges>
23
1   -0.450388
2   -0.447166
3   -0.456421
4   -0.285824
5   0.643474
6   0.228012
7   -0.671241
8   -0.617771
9   -0.611759
10   0.147605
11   0.152758
12   0.155572
13   0.142409
14   0.144267
15   0.156799
16   0.145245
17   0.147316
18   0.166524
19   0.14325
20   0.132234
21   0.285388
22   0.331629
23   0.418086

>  <lowdin_charges>
23
1   -0.449103
2   -0.453495
3   -0.448244
4   -0.27691
5   0.164883
6   0.078258
7   -0.499666
8   -0.30053
9   -0.392916
10   0.15328
11   0.153942
12   0.151545
13   0.149499
14   0.152007
15   0.158551
16   0.152188
17   0.150413
18   0.161951
19   0.148158
20   0.141899
21   0.252331
22   0.285579
23   0.36638

$$$$

