PCCDB-ID:  73184
public computational chemistry database (PCCDB) project, http://pccdb.org

 13 12  0  0  0  0  0  0  0  0999 V2000
    3.4444    0.7833   -0.2893 C   0  0  0  0  0  0  0  0  0  0  0  0
    2.2711   -2.2704    2.1227 C   0  0  0  0  0  0  0  0  0  0  0  0
    1.2028   -2.0308    2.6275 O   0  0  0  0  0  0  0  0  0  0  0  0
    3.2247   -3.0167    2.6995 O   0  0  0  0  0  0  0  0  0  0  0  0
    1.4461   -1.9678   -0.4790 O   0  0  0  0  0  0  0  0  0  0  0  0
    3.9933   -2.3133   -0.0615 O   0  0  0  0  0  0  0  0  0  0  0  0
    2.7850   -0.0764    0.6704 O   0  0  0  0  0  0  0  0  0  0  0  0
    2.7501   -1.6657    0.4273 P   0  0  2  0  0  0  0  0  0  0  0  0
    3.5083    1.7646    0.1812 H   0  0  0  0  0  0  0  0  0  0  0  0
    2.8516    0.8475   -1.2064 H   0  0  0  0  0  0  0  0  0  0  0  0
    4.4439    0.4035   -0.5143 H   0  0  0  0  0  0  0  0  0  0  0  0
    3.9616   -3.1192    2.0613 H   0  0  0  0  0  0  0  0  0  0  0  0
    0.6281   -1.6809   -0.0321 H   0  0  0  0  0  0  0  0  0  0  0  0
  1  9  1  0  0  0  0
  1  7  1  0  0  0  0
  2  3  2  0  0  0  0
  2  4  1  0  0  0  0
  5 13  1  0  0  0  0
  5  8  1  0  0  0  0
  8  6  2  6  0  0  0
  8  7  1  0  0  0  0
  8  2  1  0  0  0  0
 10  1  1  0  0  0  0
 11  1  1  0  0  0  0
 12  4  1  0  0  0  0
M  END
>  <HBA>
5

>  <HBD>
2

>  <TPSA>
93.64

>  <cid>
73184

>  <dipole>
3.02

>  <excitation_energy_1>
4.923

>  <excitation_energy_2>
6.418

>  <excitation_energy_3>
6.569

>  <excitation_energy_4>
6.9

>  <homo_energy>
-7.685

>  <homo_lumo_gap>
6.585

>  <logP>
0.496

>  <lumo_energy>
-1.099

>  <melting_point>
105.52

>  <molecular_refractivity>
24.8

>  <oscillator_strength_1>
0.0021

>  <oscillator_strength_2>
0.0066

>  <oscillator_strength_3>
0.0045

>  <oscillator_strength_4>
0.0042

>  <open_babel_can_smiles>
CO[P@@](=O)(C(=O)O)O

>  <mulliken_charges>
13
1   -0.226983
2   0.366053
3   -0.408587
4   -0.539042
5   -0.6244
6   -0.556239
7   -0.507884
8   1.053102
9   0.184589
10   0.175868
11   0.192711
12   0.442985
13   0.447826

>  <lowdin_charges>
13
1   -0.268181
2   0.045156
3   -0.217341
4   -0.321592
5   -0.553649
6   -0.585882
7   -0.395347
8   1.021702
9   0.170296
10   0.161612
11   0.170964
12   0.38017
13   0.392092

$$$$

