PCCDB-ID:  24417
public computational chemistry database (PCCDB) project, http://pccdb.org

 17 16  0  0  1  0  0  0  0  0999 V2000
    1.5027    0.4085    0.5142 C   0  0  0  0  0  0  0  0  0  0  0  0
    3.2895   -1.7883    0.8582 C   0  0  0  0  0  0  0  0  0  0  0  0
    4.7785   -1.5227    1.1895 C   0  0  1  0  0  0  0  0  0  0  0  0
    5.0087   -0.1284    1.8159 C   0  0  0  0  0  0  0  0  0  0  0  0
    5.2551   -2.6042    2.0440 N   0  0  0  0  0  0  0  0  0  0  0  0
    5.3723    0.0198    2.9587 O   0  0  0  0  0  0  0  0  0  0  0  0
    4.7893    0.9371    1.0132 O   0  0  0  0  0  0  0  0  0  0  0  0
    2.5701   -0.7175   -0.4627 S   0  0  0  0  0  0  0  0  0  0  0  0
    2.0900    0.9883    1.2300 H   0  0  0  0  0  0  0  0  0  0  0  0
    1.0359    1.0917   -0.2000 H   0  0  0  0  0  0  0  0  0  0  0  0
    0.7197   -0.1545    1.0285 H   0  0  0  0  0  0  0  0  0  0  0  0
    2.6701   -1.6936    1.7566 H   0  0  0  0  0  0  0  0  0  0  0  0
    3.2155   -2.8225    0.5161 H   0  0  0  0  0  0  0  0  0  0  0  0
    5.3369   -1.5622    0.2451 H   0  0  0  0  0  0  0  0  0  0  0  0
    6.2742   -2.5905    2.0547 H   0  0  0  0  0  0  0  0  0  0  0  0
    4.9893   -2.3841    3.0048 H   0  0  0  0  0  0  0  0  0  0  0  0
    4.3860    0.6320    0.1699 H   0  0  0  0  0  0  0  0  0  0  0  0
  1 11  1  0  0  0  0
  1  9  1  0  0  0  0
  2  3  1  0  0  0  0
  2 12  1  0  0  0  0
  3 14  1  6  0  0  0
  3  4  1  0  0  0  0
  3  5  1  0  0  0  0
  4  6  2  0  0  0  0
  5 15  1  0  0  0  0
  5 16  1  0  0  0  0
  7  4  1  0  0  0  0
  8  1  1  0  0  0  0
  8  2  1  0  0  0  0
 10  1  1  0  0  0  0
 13  2  1  0  0  0  0
 17  7  1  0  0  0  0
M  END
>  <HBA>
4

>  <HBD>
2

>  <TPSA>
88.62

>  <cid>
24417

>  <dipole>
2.23

>  <excitation_energy_1>
5.362

>  <excitation_energy_2>
5.587

>  <excitation_energy_3>
5.748

>  <excitation_energy_4>
5.993

>  <homo_energy>
-6.68

>  <homo_lumo_gap>
6.77

>  <logP>
0.462

>  <lumo_energy>
0.09

>  <melting_point>
115.14

>  <molecular_refractivity>
33.41

>  <oscillator_strength_1>
0.0013

>  <oscillator_strength_2>
0.002

>  <oscillator_strength_3>
0.0021

>  <oscillator_strength_4>
0.0024

>  <open_babel_can_smiles>
CSC[C@@H](C(=O)O)N

>  <mulliken_charges>
17
1   -0.593965
2   -0.412108
3   -0.108932
4   0.577281
5   -0.693781
6   -0.448824
7   -0.574078
8   0.05722
9   0.202811
10   0.193981
11   0.189232
12   0.183341
13   0.210597
14   0.166652
15   0.311646
16   0.313991
17   0.424935

>  <lowdin_charges>
17
1   -0.550118
2   -0.379286
3   -0.116191
4   0.165913
5   -0.528384
6   -0.249618
7   -0.358223
8   0.101161
9   0.174241
10   0.182684
11   0.170283
12   0.169333
13   0.183636
14   0.159855
15   0.262892
16   0.263601
17   0.348222

$$$$

