PCCDB-ID:  68083
public computational chemistry database (PCCDB) project, http://pccdb.org

 20 22  0  0  0  0  0  0  0  0999 V2000
    2.2344   -1.4050    0.0010 C   0  0  0  0  0  0  0  0  0  0  0  0
    3.3830   -0.6854    0.0017 C   0  0  0  0  0  0  0  0  0  0  0  0
   -2.9185   -1.1126    0.0016 C   0  0  0  0  0  0  0  0  0  0  0  0
   -3.6088    0.0662    0.0010 C   0  0  0  0  0  0  0  0  0  0  0  0
    0.9620   -0.7419    0.0003 C   0  0  0  0  0  0  0  0  0  0  0  0
   -1.5420   -0.7411    0.0018 C   0  0  0  0  0  0  0  0  0  0  0  0
    3.3733    0.7682   -0.0012 C   0  0  0  0  0  0  0  0  0  0  0  0
   -0.3007   -1.5373    0.0003 C   0  0  0  0  0  0  0  0  0  0  0  0
   -0.3098    1.4680   -0.0009 C   0  0  0  0  0  0  0  0  0  0  0  0
   -1.5085    0.6333    0.0010 C   0  0  0  0  0  0  0  0  0  0  0  0
    0.9520    0.6293    0.0008 C   0  0  0  0  0  0  0  0  0  0  0  0
    4.3130    1.5169   -0.0059 O   0  0  0  0  0  0  0  0  0  0  0  0
   -0.2916   -2.7609   -0.0008 O   0  0  0  0  0  0  0  0  0  0  0  0
   -0.2886    2.6847   -0.0042 O   0  0  0  0  0  0  0  0  0  0  0  0
   -2.7650    1.1375    0.0005 O   0  0  0  0  0  0  0  0  0  0  0  0
    2.0713    1.3557    0.0019 O   0  0  0  0  0  0  0  0  0  0  0  0
    2.2399   -2.4907    0.0009 H   0  0  0  0  0  0  0  0  0  0  0  0
    4.3629   -1.1486    0.0035 H   0  0  0  0  0  0  0  0  0  0  0  0
   -3.3258   -2.1129    0.0026 H   0  0  0  0  0  0  0  0  0  0  0  0
   -4.6608    0.3078    0.0003 H   0  0  0  0  0  0  0  0  0  0  0  0
  1  2  2  0  0  0  0
  2 18  1  0  0  0  0
  3  6  1  0  0  0  0
  3 19  1  0  0  0  0
  4  3  2  0  0  0  0
  5  8  1  0  0  0  0
  5 11  2  0  0  0  0
  5  1  1  0  0  0  0
  7  2  1  0  0  0  0
  7 16  1  0  0  0  0
  8  6  1  0  0  0  0
  9 11  1  0  0  0  0
  9 10  1  0  0  0  0
 10  6  2  0  0  0  0
 11 16  1  0  0  0  0
 12  7  2  0  0  0  0
 13  8  2  0  0  0  0
 14  9  2  0  0  0  0
 15  4  1  0  0  0  0
 15 10  1  0  0  0  0
 17  1  1  0  0  0  0
 20  4  1  0  0  0  0
M  END
>  <HBA>
5

>  <HBD>
0

>  <TPSA>
77.49

>  <cid>
68083

>  <dipole>
5.31

>  <excitation_energy_1>
2.601

>  <excitation_energy_2>
2.836

>  <excitation_energy_3>
3.013

>  <excitation_energy_4>
3.632

>  <homo_energy>
-7.015

>  <homo_lumo_gap>
3.336

>  <logP>
1.008

>  <lumo_energy>
-3.679

>  <melting_point>
156.78

>  <molecular_refractivity>
50.55

>  <oscillator_strength_1>
0.0242

>  <oscillator_strength_2>
0.0

>  <oscillator_strength_3>
0.0

>  <oscillator_strength_4>
0.0989

>  <open_babel_can_smiles>
O=c1ccc2c(o1)C(=O)c1c(C2=O)cco1

>  <mulliken_charges>
20
1   -0.100768
2   -0.209248
3   -0.198516
4   0.092688
5   0.029571
6   0.058818
7   0.595989
8   0.363232
9   0.390352
10   0.241728
11   0.24296
12   -0.439831
13   -0.464831
14   -0.431754
15   -0.425943
16   -0.480632
17   0.189621
18   0.178217
19   0.181894
20   0.186454

>  <lowdin_charges>
20
1   -0.091278
2   -0.185831
3   -0.175597
4   -0.037237
5   -0.084359
6   -0.053262
7   0.206087
8   0.155607
9   0.126752
10   0.041145
11   0.105554
12   -0.214503
13   -0.219788
14   -0.176993
15   -0.050671
16   -0.097982
17   0.187688
18   0.188455
19   0.191263
20   0.184951

$$$$

