PCCDB-ID:  40030
public computational chemistry database (PCCDB) project, http://pccdb.org

 24 25  0  0  1  0  0  0  0  0999 V2000
    2.5692    1.4546    0.5422 C   0  0  0  0  0  0  0  0  0  0  0  0
    3.2354   -0.1512   -1.2694 C   0  0  0  0  0  0  0  0  0  0  0  0
    2.7528   -2.4878    0.6323 C   0  0  0  0  0  0  0  0  0  0  0  0
    2.0850   -0.8944    2.4329 C   0  0  0  0  0  0  0  0  0  0  0  0
    4.4302   -0.8901    1.5692 C   0  0  0  0  0  0  0  0  0  0  0  0
    2.4970   -0.0132    0.0767 C   0  0  0  0  0  0  0  0  0  0  0  0
    2.9503   -1.0455    1.1587 C   0  0  1  0  0  0  0  0  0  0  0  0
    3.1047   -3.4822    1.6155 O   0  0  0  0  0  0  0  0  0  0  0  0
    2.4178   -1.8722    3.4393 O   0  0  0  0  0  0  0  0  0  0  0  0
    4.8038   -1.8590    2.5744 O   0  0  0  0  0  0  0  0  0  0  0  0
    3.6433   -2.9306    3.0835 P   0  0  2  0  0  0  0  0  0  0  0  0
    2.1806    2.1082   -0.2465 H   0  0  0  0  0  0  0  0  0  0  0  0
    3.6002    1.7682    0.7433 H   0  0  0  0  0  0  0  0  0  0  0  0
    1.9773    1.6466    1.4419 H   0  0  0  0  0  0  0  0  0  0  0  0
    2.8279    0.5707   -1.9857 H   0  0  0  0  0  0  0  0  0  0  0  0
    3.1279   -1.1442   -1.7152 H   0  0  0  0  0  0  0  0  0  0  0  0
    4.3066    0.0601   -1.1710 H   0  0  0  0  0  0  0  0  0  0  0  0
    3.3787   -2.6743   -0.2460 H   0  0  0  0  0  0  0  0  0  0  0  0
    1.7036   -2.6480    0.3506 H   0  0  0  0  0  0  0  0  0  0  0  0
    1.0220   -1.0146    2.1856 H   0  0  0  0  0  0  0  0  0  0  0  0
    2.2240    0.0915    2.8878 H   0  0  0  0  0  0  0  0  0  0  0  0
    4.6216    0.1043    1.9879 H   0  0  0  0  0  0  0  0  0  0  0  0
    5.0946   -1.0375    0.7101 H   0  0  0  0  0  0  0  0  0  0  0  0
    1.4363   -0.2382   -0.1135 H   0  0  0  0  0  0  0  0  0  0  0  0
  1 13  1  0  0  0  0
  1 14  1  0  0  0  0
  2 17  1  0  0  0  0
  2  6  1  0  0  0  0
  3  7  1  0  0  0  0
  3  8  1  0  0  0  0
  4 21  1  0  0  0  0
  4  9  1  0  0  0  0
  5 22  1  0  0  0  0
  5 10  1  0  0  0  0
  6  1  1  0  0  0  0
  7  6  1  6  0  0  0
  7  5  1  0  0  0  0
  7  4  1  0  0  0  0
 10 11  1  0  0  0  0
 11  8  1  6  0  0  0
 11  9  1  0  0  0  0
 12  1  1  0  0  0  0
 15  2  1  0  0  0  0
 16  2  1  0  0  0  0
 18  3  1  0  0  0  0
 19  3  1  0  0  0  0
 20  4  1  0  0  0  0
 23  5  1  0  0  0  0
 24  6  1  0  0  0  0
M  END
>  <HBA>
3

>  <HBD>
0

>  <TPSA>
41.28

>  <cid>
40030

>  <dipole>
4.68

>  <excitation_energy_1>
6.525

>  <excitation_energy_2>
6.855

>  <excitation_energy_3>
6.874

>  <excitation_energy_4>
6.887

>  <homo_energy>
-7.197

>  <homo_lumo_gap>
8.283

>  <logP>
1.933

>  <lumo_energy>
1.086

>  <melting_point>
5.52

>  <molecular_refractivity>
42.51

>  <oscillator_strength_1>
0.0004

>  <oscillator_strength_2>
0.008

>  <oscillator_strength_3>
0.0013

>  <oscillator_strength_4>
0.001

>  <open_babel_can_smiles>
CC([C@]12COP(OC1)OC2)C

>  <mulliken_charges>
24
1   -0.463968
2   -0.464171
3   -0.012948
4   -0.012646
5   -0.011697
6   -0.079544
7   -0.099675
8   -0.577519
9   -0.577512
10   -0.580224
11   0.930849
12   0.152278
13   0.15121
14   0.15442
15   0.152278
16   0.154539
17   0.151231
18   0.153285
19   0.146582
20   0.146693
21   0.153102
22   0.15143
23   0.151206
24   0.130799

>  <lowdin_charges>
24
1   -0.450285
2   -0.448879
3   -0.131388
4   -0.129843
5   -0.130452
6   -0.117387
7   -0.053315
8   -0.420001
9   -0.418617
10   -0.419613
11   0.768763
12   0.157258
13   0.149812
14   0.153479
15   0.157335
16   0.152759
17   0.149091
18   0.150937
19   0.14588
20   0.145707
21   0.149668
22   0.148634
23   0.149586
24   0.14087

$$$$

