PCCDB-ID:  41026
public computational chemistry database (PCCDB) project, http://pccdb.org

 26 27  0  0  1  0  0  0  0  0999 V2000
    2.1630   -1.6321    0.0953 C   0  0  0  0  0  0  0  0  0  0  0  0
    6.3650    2.6564   -3.0106 C   0  0  0  0  0  0  0  0  0  0  0  0
    2.1274    0.8906    0.8116 C   0  0  0  0  0  0  0  0  0  0  0  0
    4.2396    3.2418   -1.5840 C   0  0  0  0  0  0  0  0  0  0  0  0
    2.8220   -0.4412    0.7586 C   0  0  2  0  0  0  0  0  0  0  0  0
    5.1581    2.2311   -2.2015 C   0  0  2  0  0  0  0  0  0  0  0  0
    3.3475    0.6956   -0.0863 C   0  0  2  0  0  0  0  0  0  0  0  0
    5.1621    2.4267   -0.6890 C   0  0  2  0  0  0  0  0  0  0  0  0
    4.6293    1.3937    0.2372 C   0  0  0  0  0  0  0  0  0  0  0  0
    5.1837    1.0726    1.3537 N   0  0  0  0  0  0  0  0  0  0  0  0
    6.3574    1.8214    1.6159 O   0  0  0  0  0  0  0  0  0  0  0  0
    1.5021   -2.1575    0.7957 H   0  0  0  0  0  0  0  0  0  0  0  0
    2.9094   -2.3509   -0.2646 H   0  0  0  0  0  0  0  0  0  0  0  0
    1.5550   -1.3240   -0.7643 H   0  0  0  0  0  0  0  0  0  0  0  0
    6.0926    2.8393   -4.0576 H   0  0  0  0  0  0  0  0  0  0  0  0
    7.1464    1.8873   -2.9943 H   0  0  0  0  0  0  0  0  0  0  0  0
    6.7993    3.5815   -2.6138 H   0  0  0  0  0  0  0  0  0  0  0  0
    2.2680    1.5082    1.6940 H   0  0  0  0  0  0  0  0  0  0  0  0
    1.1560    0.9905    0.3318 H   0  0  0  0  0  0  0  0  0  0  0  0
    3.1753    3.0275   -1.5472 H   0  0  0  0  0  0  0  0  0  0  0  0
    4.4777    4.2965   -1.6997 H   0  0  0  0  0  0  0  0  0  0  0  0
    3.4417   -0.6751    1.6203 H   0  0  0  0  0  0  0  0  0  0  0  0
    4.6844    1.3168   -2.5552 H   0  0  0  0  0  0  0  0  0  0  0  0
    3.1270    0.6288   -1.1493 H   0  0  0  0  0  0  0  0  0  0  0  0
    6.0254    2.9516   -0.2970 H   0  0  0  0  0  0  0  0  0  0  0  0
    6.6291    1.4582    2.4720 H   0  0  0  0  0  0  0  0  0  0  0  0
  1  5  1  0  0  0  0
  1 12  1  0  0  0  0
  2 16  1  0  0  0  0
  2 17  1  0  0  0  0
  2  6  1  0  0  0  0
  3 18  1  0  0  0  0
  4 20  1  0  0  0  0
  4  8  1  0  0  0  0
  5  3  1  0  0  0  0
  5 22  1  1  0  0  0
  6 23  1  6  0  0  0
  6  4  1  0  0  0  0
  6  8  1  0  0  0  0
  7 24  1  6  0  0  0
  7  9  1  0  0  0  0
  7  5  1  0  0  0  0
  7  3  1  0  0  0  0
  8 25  1  1  0  0  0
  8  9  1  0  0  0  0
  9 10  2  0  0  0  0
 10 11  1  0  0  0  0
 11 26  1  0  0  0  0
 13  1  1  0  0  0  0
 14  1  1  0  0  0  0
 15  2  1  0  0  0  0
 19  3  1  0  0  0  0
 21  4  1  0  0  0  0
M  END
>  <HBA>
2

>  <HBD>
1

>  <TPSA>
32.59

>  <cid>
41026

>  <dipole>
0.86

>  <excitation_energy_1>
5.73

>  <excitation_energy_2>
5.781

>  <excitation_energy_3>
5.877

>  <excitation_energy_4>
5.934

>  <homo_energy>
-5.954

>  <homo_lumo_gap>
6.327

>  <logP>
2.129

>  <lumo_energy>
0.373

>  <melting_point>
88.37

>  <molecular_refractivity>
45.56

>  <oscillator_strength_1>
0.0253

>  <oscillator_strength_2>
0.027

>  <oscillator_strength_3>
0.0995

>  <oscillator_strength_4>
0.0533

>  <open_babel_can_smiles>
C[C@@H]1C[C@H]1/C(=N/O)/[C@@H]1C[C@H]1C

>  <mulliken_charges>
26
1   -0.454525
2   -0.450573
3   -0.31116
4   -0.316024
5   -0.087729
6   -0.095465
7   -0.20607
8   -0.19611
9   0.389199
10   -0.291553
11   -0.520683
12   0.148504
13   0.150134
14   0.136939
15   0.148054
16   0.153659
17   0.145735
18   0.161735
19   0.144254
20   0.159348
21   0.154085
22   0.167757
23   0.144653
24   0.13905
25   0.174402
26   0.412382

>  <lowdin_charges>
26
1   -0.43701
2   -0.432452
3   -0.307253
4   -0.307303
5   -0.141002
6   -0.139326
7   -0.166378
8   -0.172145
9   0.037611
10   -0.097358
11   -0.394073
12   0.153608
13   0.153529
14   0.147094
15   0.150917
16   0.155238
17   0.151876
18   0.165492
19   0.154501
20   0.161609
21   0.160022
22   0.167771
23   0.152812
24   0.153921
25   0.176121
26   0.352179

$$$$

