PCCDB-ID:  69234
public computational chemistry database (PCCDB) project, http://pccdb.org

 32 33  0  0  0  0  0  0  0  0999 V2000
    2.8241   -0.0346   -2.1771 C   0  0  0  0  0  0  0  0  0  0  0  0
    2.8808    6.2617    0.8767 C   0  0  0  0  0  0  0  0  0  0  0  0
    5.8602   -0.7997    0.0190 C   0  0  0  0  0  0  0  0  0  0  0  0
    0.5589    4.1129    3.0257 C   0  0  0  0  0  0  0  0  0  0  0  0
    6.0674    0.4310    0.6404 C   0  0  0  0  0  0  0  0  0  0  0  0
    0.8283    2.8378    2.5346 C   0  0  0  0  0  0  0  0  0  0  0  0
    4.8040   -0.9339   -0.8835 C   0  0  0  0  0  0  0  0  0  0  0  0
    1.2315    5.2073    2.4773 C   0  0  0  0  0  0  0  0  0  0  0  0
    5.2283    1.5102    0.3680 C   0  0  0  0  0  0  0  0  0  0  0  0
    1.7522    2.6585    1.5047 C   0  0  0  0  0  0  0  0  0  0  0  0
    3.9478    0.1292   -1.1810 C   0  0  0  0  0  0  0  0  0  0  0  0
    2.1616    5.0621    1.4466 C   0  0  0  0  0  0  0  0  0  0  0  0
    4.1689    1.3678   -0.5362 C   0  0  0  0  0  0  0  0  0  0  0  0
    2.4184    3.7611    0.9523 C   0  0  0  0  0  0  0  0  0  0  0  0
    3.3379    2.4591   -0.8777 N   0  0  0  0  0  0  0  0  0  0  0  0
    3.3787    3.5992   -0.0680 N   0  0  0  0  0  0  0  0  0  0  0  0
    2.8516   -1.0287   -2.6332 H   0  0  0  0  0  0  0  0  0  0  0  0
    2.8857    0.7070   -2.9845 H   0  0  0  0  0  0  0  0  0  0  0  0
    1.8317    0.0766   -1.7138 H   0  0  0  0  0  0  0  0  0  0  0  0
    2.5801    7.1767    1.3952 H   0  0  0  0  0  0  0  0  0  0  0  0
    2.6615    6.4116   -0.1915 H   0  0  0  0  0  0  0  0  0  0  0  0
    3.9710    6.1686    0.9702 H   0  0  0  0  0  0  0  0  0  0  0  0
    6.5106   -1.6438    0.2294 H   0  0  0  0  0  0  0  0  0  0  0  0
   -0.1600    4.2583    3.8267 H   0  0  0  0  0  0  0  0  0  0  0  0
    6.8831    0.5573    1.3477 H   0  0  0  0  0  0  0  0  0  0  0  0
    0.3243    1.9704    2.9528 H   0  0  0  0  0  0  0  0  0  0  0  0
    4.6361   -1.8881   -1.3787 H   0  0  0  0  0  0  0  0  0  0  0  0
    1.0293    6.2073    2.8551 H   0  0  0  0  0  0  0  0  0  0  0  0
    5.3795    2.4695    0.8494 H   0  0  0  0  0  0  0  0  0  0  0  0
    1.9740    1.6594    1.1456 H   0  0  0  0  0  0  0  0  0  0  0  0
    2.3897    2.1903   -1.1318 H   0  0  0  0  0  0  0  0  0  0  0  0
    3.5219    4.4257   -0.6349 H   0  0  0  0  0  0  0  0  0  0  0  0
  1 19  1  0  0  0  0
  1 11  1  0  0  0  0
  2 22  1  0  0  0  0
  2 20  1  0  0  0  0
  2 12  1  0  0  0  0
  3 23  1  0  0  0  0
  3  5  2  0  0  0  0
  4 24  1  0  0  0  0
  5 25  1  0  0  0  0
  6 26  1  0  0  0  0
  6  4  1  0  0  0  0
  7  3  1  0  0  0  0
  8 28  1  0  0  0  0
  8  4  2  0  0  0  0
  9  5  1  0  0  0  0
  9 29  1  0  0  0  0
 10  6  2  0  0  0  0
 11  7  2  0  0  0  0
 11 13  1  0  0  0  0
 12  8  1  0  0  0  0
 13  9  2  0  0  0  0
 14 12  2  0  0  0  0
 14 10  1  0  0  0  0
 15 13  1  0  0  0  0
 15 16  1  0  0  0  0
 16 14  1  0  0  0  0
 17  1  1  0  0  0  0
 18  1  1  0  0  0  0
 21  2  1  0  0  0  0
 27  7  1  0  0  0  0
 30 10  1  0  0  0  0
 31 15  1  0  0  0  0
 32 16  1  0  0  0  0
M  END
>  <HBA>
2

>  <HBD>
2

>  <TPSA>
24.06

>  <cid>
69234

>  <dipole>
1.7

>  <excitation_energy_1>
4.598

>  <excitation_energy_2>
4.788

>  <excitation_energy_3>
4.816

>  <excitation_energy_4>
4.945

>  <homo_energy>
-5.336

>  <homo_lumo_gap>
5.418

>  <logP>
3.888

>  <lumo_energy>
0.082

>  <melting_point>
109.32

>  <molecular_refractivity>
69.7

>  <oscillator_strength_1>
0.0607

>  <oscillator_strength_2>
0.015

>  <oscillator_strength_3>
0.0104

>  <oscillator_strength_4>
0.0415

>  <open_babel_can_smiles>
Cc1ccccc1NNc1ccccc1C

>  <mulliken_charges>
32
1   -0.554619
2   -0.556264
3   -0.127761
4   -0.127549
5   -0.142654
6   -0.142222
7   -0.198654
8   -0.198934
9   -0.160995
10   -0.176986
11   0.144308
12   0.149324
13   0.267666
14   0.260812
15   -0.534407
16   -0.520836
17   0.160924
18   0.166041
19   0.150598
20   0.163418
21   0.151719
22   0.168848
23   0.119381
24   0.122743
25   0.123775
26   0.127409
27   0.116804
28   0.119981
29   0.142722
30   0.136996
31   0.315146
32   0.333263

>  <lowdin_charges>
32
1   -0.447293
2   -0.44391
3   -0.183977
4   -0.180214
5   -0.151224
6   -0.150678
7   -0.160779
8   -0.158162
9   -0.19276
10   -0.203877
11   -0.036991
12   -0.035373
13   0.039021
14   0.038858
15   -0.241987
16   -0.234156
17   0.161012
18   0.159583
19   0.149551
20   0.163222
21   0.149605
22   0.158486
23   0.155025
24   0.156313
25   0.15557
26   0.157936
27   0.151918
28   0.152998
29   0.167075
30   0.16338
31   0.263556
32   0.278271

$$$$

