PCCDB-ID:  66139
public computational chemistry database (PCCDB) project, http://pccdb.org

 25 26  0  0  0  0  0  0  0  0999 V2000
    3.1980    2.1104    1.2353 C   0  0  0  0  0  0  0  0  0  0  0  0
    2.1821    1.4611    0.5316 C   0  0  0  0  0  0  0  0  0  0  0  0
    4.2773    1.3752    1.7320 C   0  0  0  0  0  0  0  0  0  0  0  0
    2.2435    0.0833    0.3155 C   0  0  0  0  0  0  0  0  0  0  0  0
    4.3462   -0.0033    1.5296 C   0  0  0  0  0  0  0  0  0  0  0  0
    6.1626   -2.7636   -1.5565 C   0  0  0  0  0  0  0  0  0  0  0  0
    5.3631   -4.7792   -0.4820 C   0  0  0  0  0  0  0  0  0  0  0  0
    5.2011   -2.0149   -0.8913 C   0  0  0  0  0  0  0  0  0  0  0  0
    4.3981   -4.0443    0.1934 C   0  0  0  0  0  0  0  0  0  0  0  0
    7.2824   -4.9384   -2.0697 C   0  0  0  0  0  0  0  0  0  0  0  0
    6.2580   -4.1502   -1.3607 C   0  0  0  0  0  0  0  0  0  0  0  0
    3.3269   -0.6367    0.8156 C   0  0  0  0  0  0  0  0  0  0  0  0
    4.3193   -2.6601   -0.0098 C   0  0  0  0  0  0  0  0  0  0  0  0
    8.0971   -4.4818   -2.8514 O   0  0  0  0  0  0  0  0  0  0  0  0
    3.3126   -2.0179    0.6627 O   0  0  0  0  0  0  0  0  0  0  0  0
    3.1470    3.1824    1.4019 H   0  0  0  0  0  0  0  0  0  0  0  0
    1.3381    2.0261    0.1456 H   0  0  0  0  0  0  0  0  0  0  0  0
    5.0663    1.8735    2.2885 H   0  0  0  0  0  0  0  0  0  0  0  0
    1.4644   -0.4420   -0.2277 H   0  0  0  0  0  0  0  0  0  0  0  0
    5.1737   -0.5869    1.9211 H   0  0  0  0  0  0  0  0  0  0  0  0
    6.8539   -2.2907   -2.2475 H   0  0  0  0  0  0  0  0  0  0  0  0
    5.4298   -5.8539   -0.3263 H   0  0  0  0  0  0  0  0  0  0  0  0
    5.1236   -0.9456   -1.0523 H   0  0  0  0  0  0  0  0  0  0  0  0
    3.6979   -4.5127    0.8774 H   0  0  0  0  0  0  0  0  0  0  0  0
    7.2680   -6.0278   -1.8387 H   0  0  0  0  0  0  0  0  0  0  0  0
  1 16  1  0  0  0  0
  1  3  2  0  0  0  0
  2  1  1  0  0  0  0
  3 18  1  0  0  0  0
  4  2  2  0  0  0  0
  4 12  1  0  0  0  0
  5  3  1  0  0  0  0
  5 20  1  0  0  0  0
  6 11  2  0  0  0  0
  6  8  1  0  0  0  0
  7 22  1  0  0  0  0
  7  9  2  0  0  0  0
  8 13  2  0  0  0  0
  9 24  1  0  0  0  0
 10 25  1  0  0  0  0
 10 11  1  0  0  0  0
 11  7  1  0  0  0  0
 12  5  2  0  0  0  0
 13  9  1  0  0  0  0
 13 15  1  0  0  0  0
 14 10  2  0  0  0  0
 15 12  1  0  0  0  0
 17  2  1  0  0  0  0
 19  4  1  0  0  0  0
 21  6  1  0  0  0  0
 23  8  1  0  0  0  0
M  END
>  <HBA>
2

>  <HBD>
0

>  <TPSA>
26.3

>  <cid>
66139

>  <dipole>
3.67

>  <excitation_energy_1>
3.759

>  <excitation_energy_2>
4.389

>  <excitation_energy_3>
4.699

>  <excitation_energy_4>
4.954

>  <homo_energy>
-6.346

>  <homo_lumo_gap>
4.846

>  <logP>
3.291

>  <lumo_energy>
-1.499

>  <melting_point>
75.52

>  <molecular_refractivity>
58.35

>  <oscillator_strength_1>
0.0004

>  <oscillator_strength_2>
0.3491

>  <oscillator_strength_3>
0.0079

>  <oscillator_strength_4>
0.1286

>  <open_babel_can_smiles>
O=Cc1ccc(cc1)Oc1ccccc1

>  <mulliken_charges>
25
1   -0.123605
2   -0.139601
3   -0.138876
4   -0.161947
5   -0.153706
6   -0.169202
7   -0.185213
8   -0.178456
9   -0.176879
10   0.188985
11   0.098981
12   0.329685
13   0.36282
14   -0.415442
15   -0.568854
16   0.136273
17   0.140331
18   0.140904
19   0.147156
20   0.149779
21   0.166959
22   0.143236
23   0.159144
24   0.149692
25   0.097836

>  <lowdin_charges>
25
1   -0.159411
2   -0.146947
3   -0.147666
4   -0.174198
5   -0.178407
6   -0.11511
7   -0.129681
8   -0.195457
9   -0.183659
10   0.044337
11   -0.07271
12   0.098003
13   0.121531
14   -0.236891
15   -0.155758
16   0.160016
17   0.163967
18   0.164317
19   0.172017
20   0.171694
21   0.178786
22   0.162082
23   0.173353
24   0.173073
25   0.112718

$$$$

