PCCDB-ID:  35944
public computational chemistry database (PCCDB) project, http://pccdb.org

 26 27  0  0  0  0  0  0  0  0999 V2000
   -0.7384    1.1988    0.0373 C   0  0  0  0  0  0  0  0  0  0  0  0
   -3.0875   -4.0464    0.5595 C   0  0  0  0  0  0  0  0  0  0  0  0
   -1.3808   -0.0377   -0.0112 C   0  0  0  0  0  0  0  0  0  0  0  0
   -2.4597   -2.8015    0.6111 C   0  0  0  0  0  0  0  0  0  0  0  0
    0.6506    1.2856    0.0429 C   0  0  0  0  0  0  0  0  0  0  0  0
   -2.5548   -5.0757   -0.2133 C   0  0  0  0  0  0  0  0  0  0  0  0
    0.7799   -1.1258   -0.0499 C   0  0  0  0  0  0  0  0  0  0  0  0
   -0.7464   -3.5815   -0.8903 C   0  0  0  0  0  0  0  0  0  0  0  0
   -0.6181   -1.2161   -0.0551 C   0  0  0  0  0  0  0  0  0  0  0  0
   -1.2805   -2.5450   -0.1118 C   0  0  0  0  0  0  0  0  0  0  0  0
    1.4305    0.1169   -0.0008 C   0  0  0  0  0  0  0  0  0  0  0  0
   -1.3852   -4.8171   -0.9246 C   0  0  0  0  0  0  0  0  0  0  0  0
    2.8226    0.1856    0.0734 N   0  0  0  0  0  0  0  0  0  0  0  0
   -0.8051   -5.8891   -1.7525 N   0  0  0  0  0  0  0  0  0  0  0  0
   -1.3965   -6.9679   -1.7876 O   0  0  0  0  0  0  0  0  0  0  0  0
    0.2380   -5.6455   -2.3593 O   0  0  0  0  0  0  0  0  0  0  0  0
   -1.3284    2.1113    0.0611 H   0  0  0  0  0  0  0  0  0  0  0  0
   -3.9935   -4.2187    1.1330 H   0  0  0  0  0  0  0  0  0  0  0  0
   -2.4644   -0.0878   -0.0506 H   0  0  0  0  0  0  0  0  0  0  0  0
   -2.8752   -2.0188    1.2385 H   0  0  0  0  0  0  0  0  0  0  0  0
    1.1390    2.2563    0.0890 H   0  0  0  0  0  0  0  0  0  0  0  0
   -3.0172   -6.0528   -0.2722 H   0  0  0  0  0  0  0  0  0  0  0  0
    1.3774   -2.0344   -0.0475 H   0  0  0  0  0  0  0  0  0  0  0  0
    0.1458   -3.4342   -1.4854 H   0  0  0  0  0  0  0  0  0  0  0  0
    3.2273    1.0584   -0.2416 H   0  0  0  0  0  0  0  0  0  0  0  0
    3.3150   -0.6124   -0.3084 H   0  0  0  0  0  0  0  0  0  0  0  0
  1  5  1  0  0  0  0
  1 17  1  0  0  0  0
  2  4  1  0  0  0  0
  2 18  1  0  0  0  0
  3  1  2  0  0  0  0
  4 20  1  0  0  0  0
  5 21  1  0  0  0  0
  6  2  2  0  0  0  0
  7 23  1  0  0  0  0
  7 11  1  0  0  0  0
  8 10  1  0  0  0  0
  9  7  2  0  0  0  0
  9  3  1  0  0  0  0
 10  9  1  0  0  0  0
 10  4  2  0  0  0  0
 11  5  2  0  0  0  0
 11 13  1  0  0  0  0
 12  8  2  0  0  0  0
 12  6  1  0  0  0  0
 14 12  1  0  0  0  0
 15 14  2  0  0  0  0
 16 14  2  0  0  0  0
 19  3  1  0  0  0  0
 22  6  1  0  0  0  0
 24  8  1  0  0  0  0
 25 13  1  0  0  0  0
 26 13  1  0  0  0  0
M  END
>  <HBA>
1

>  <HBD>
1

>  <TPSA>
71.84

>  <cid>
35944

>  <dipole>
4.48

>  <excitation_energy_1>
2.768

>  <excitation_energy_2>
3.497

>  <excitation_energy_3>
3.747

>  <excitation_energy_4>
4.012

>  <homo_energy>
-5.733

>  <homo_lumo_gap>
3.401

>  <logP>
3.948

>  <lumo_energy>
-2.332

>  <melting_point>
130.54

>  <molecular_refractivity>
65.1

>  <oscillator_strength_1>
0.0007

>  <oscillator_strength_2>
0.0147

>  <oscillator_strength_3>
0.0001

>  <oscillator_strength_4>
0.0627

>  <open_babel_can_smiles>
Nc1cccc(c1)c1cccc(c1)N(=O)=O

>  <mulliken_charges>
26
1   -0.138011
2   -0.14354
3   -0.186184
4   -0.152897
5   -0.168927
6   -0.15092
7   -0.226151
8   -0.202671
9   0.092225
10   0.074809
11   0.316661
12   0.273717
13   -0.790245
14   0.379834
15   -0.394839
16   -0.396934
17   0.13192
18   0.148461
19   0.126857
20   0.14913
21   0.121429
22   0.181086
23   0.127997
24   0.180157
25   0.322846
26   0.324191

>  <lowdin_charges>
26
1   -0.142278
2   -0.14703
3   -0.189303
4   -0.139277
5   -0.196575
6   -0.141419
7   -0.204978
8   -0.143966
9   0.003707
10   0.00914
11   0.067222
12   0.002009
13   -0.487812
14   0.308164
15   -0.246337
16   -0.24834
17   0.160062
18   0.16762
19   0.155879
20   0.169628
21   0.155204
22   0.186828
23   0.158131
24   0.186706
25   0.277852
26   0.279158

$$$$

