PCCDB-ID:  44778
public computational chemistry database (PCCDB) project, http://pccdb.org

 23 23  0  0  1  0  0  0  0  0999 V2000
    5.1218    4.6703   -0.0313 C   0  0  0  0  0  0  0  0  0  0  0  0
    5.4424    3.3768    0.7212 C   0  0  0  0  0  0  0  0  0  0  0  0
    7.4445   -0.1388    3.3871 C   0  0  0  0  0  0  0  0  0  0  0  0
    6.2951    0.5563    2.8835 C   0  0  0  0  0  0  0  0  0  0  0  0
    7.8864   -0.9294    2.3729 C   0  0  0  0  0  0  0  0  0  0  0  0
    6.1267    0.1442    1.5957 C   0  0  0  0  0  0  0  0  0  0  0  0
    5.1328    0.4180    0.5123 C   0  0  2  0  0  0  0  0  0  0  0  0
    4.0790    1.4409    0.9761 C   0  0  0  0  0  0  0  0  0  0  0  0
    4.2104    2.6953    1.0801 N   0  0  0  0  0  0  0  0  0  0  0  0
    4.4241   -0.7793    0.1367 O   0  0  0  0  0  0  0  0  0  0  0  0
    2.9093    0.8676    1.3404 O   0  0  0  0  0  0  0  0  0  0  0  0
    7.0995   -0.7711    1.2675 O   0  0  0  0  0  0  0  0  0  0  0  0
    6.0395    5.2246   -0.2602 H   0  0  0  0  0  0  0  0  0  0  0  0
    4.4662    5.3072    0.5706 H   0  0  0  0  0  0  0  0  0  0  0  0
    4.6060    4.4526   -0.9729 H   0  0  0  0  0  0  0  0  0  0  0  0
    5.9787    3.6248    1.6484 H   0  0  0  0  0  0  0  0  0  0  0  0
    6.1386    2.7683    0.1205 H   0  0  0  0  0  0  0  0  0  0  0  0
    7.8774   -0.0564    4.3741 H   0  0  0  0  0  0  0  0  0  0  0  0
    5.6758    1.2709    3.4066 H   0  0  0  0  0  0  0  0  0  0  0  0
    8.7047   -1.6255    2.2684 H   0  0  0  0  0  0  0  0  0  0  0  0
    5.6486    0.8045   -0.3763 H   0  0  0  0  0  0  0  0  0  0  0  0
    5.0402   -1.5246    0.2179 H   0  0  0  0  0  0  0  0  0  0  0  0
    2.9785   -0.0768    1.0954 H   0  0  0  0  0  0  0  0  0  0  0  0
  1 14  1  0  0  0  0
  1  2  1  0  0  0  0
  2  9  1  0  0  0  0
  2 16  1  0  0  0  0
  3 18  1  0  0  0  0
  4  3  1  0  0  0  0
  4 19  1  0  0  0  0
  5  3  2  0  0  0  0
  6  4  2  0  0  0  0
  7 21  1  6  0  0  0
  7  8  1  0  0  0  0
  7  6  1  0  0  0  0
  8  9  2  0  0  0  0
  8 11  1  0  0  0  0
 10 22  1  0  0  0  0
 10  7  1  0  0  0  0
 12  6  1  0  0  0  0
 12  5  1  0  0  0  0
 13  1  1  0  0  0  0
 15  1  1  0  0  0  0
 17  2  1  0  0  0  0
 20  5  1  0  0  0  0
 23 11  1  0  0  0  0
M  END
>  <HBA>
4

>  <HBD>
2

>  <TPSA>
62.47

>  <cid>
44778

>  <dipole>
4.61

>  <excitation_energy_1>
5.315

>  <excitation_energy_2>
5.426

>  <excitation_energy_3>
5.607

>  <excitation_energy_4>
5.633

>  <homo_energy>
-6.474

>  <homo_lumo_gap>
6.202

>  <logP>
0.84

>  <lumo_energy>
-0.272

>  <melting_point>
71.58

>  <molecular_refractivity>
42.26

>  <oscillator_strength_1>
0.0147

>  <oscillator_strength_2>
0.0452

>  <oscillator_strength_3>
0.0038

>  <oscillator_strength_4>
0.1003

>  <open_babel_can_smiles>
CC/N=C(\[C@@H](c1ccco1)O)/O

>  <mulliken_charges>
23
1   -0.429976
2   -0.146808
3   -0.188862
4   -0.185407
5   0.090678
6   0.305421
7   -0.015961
8   0.485141
9   -0.418182
10   -0.653879
11   -0.594895
12   -0.456407
13   0.133188
14   0.159931
15   0.14758
16   0.145433
17   0.116623
18   0.152235
19   0.172046
20   0.163113
21   0.171543
22   0.415928
23   0.431517

>  <lowdin_charges>
23
1   -0.447214
2   -0.198288
3   -0.19765
4   -0.19607
5   -0.074933
6   0.033114
7   -0.032054
8   0.11164
9   -0.20471
10   -0.462758
11   -0.358755
12   -0.113181
13   0.146297
14   0.159049
15   0.150744
16   0.145282
17   0.123466
18   0.174107
19   0.185457
20   0.174838
21   0.163325
22   0.358329
23   0.359965

$$$$

