PCCDB-ID:  10724
public computational chemistry database (PCCDB) project, http://pccdb.org

 21 22  0  0  0  0  0  0  0  0999 V2000
    2.4621    0.6894   -0.0488 C   0  0  0  0  0  0  0  0  0  0  0  0
    2.4618   -0.7085   -0.1122 C   0  0  0  0  0  0  0  0  0  0  0  0
   -2.4431    0.7065   -0.4246 C   0  0  0  0  0  0  0  0  0  0  0  0
    1.2599    1.3888    0.0411 C   0  0  0  0  0  0  0  0  0  0  0  0
   -1.2690    1.4790    0.1883 C   0  0  0  0  0  0  0  0  0  0  0  0
    1.2536   -1.3932   -0.0847 C   0  0  0  0  0  0  0  0  0  0  0  0
   -2.5309   -0.6967    0.1859 C   0  0  0  0  0  0  0  0  0  0  0  0
    0.0337    0.7139    0.0751 C   0  0  0  0  0  0  0  0  0  0  0  0
    0.0389   -0.6953    0.0112 C   0  0  0  0  0  0  0  0  0  0  0  0
   -1.2320   -1.4816    0.0443 C   0  0  0  0  0  0  0  0  0  0  0  0
   -1.2344   -2.7021   -0.0197 O   0  0  0  0  0  0  0  0  0  0  0  0
    3.4017    1.2353   -0.0773 H   0  0  0  0  0  0  0  0  0  0  0  0
    3.3990   -1.2532   -0.1852 H   0  0  0  0  0  0  0  0  0  0  0  0
   -2.3013    0.6271   -1.5107 H   0  0  0  0  0  0  0  0  0  0  0  0
   -3.3813    1.2503   -0.2650 H   0  0  0  0  0  0  0  0  0  0  0  0
    1.2693    2.4758    0.0803 H   0  0  0  0  0  0  0  0  0  0  0  0
   -1.4841    1.6708    1.2516 H   0  0  0  0  0  0  0  0  0  0  0  0
   -1.1627    2.4638   -0.2821 H   0  0  0  0  0  0  0  0  0  0  0  0
    1.2137   -2.4767   -0.1343 H   0  0  0  0  0  0  0  0  0  0  0  0
   -3.3356   -1.2979   -0.2483 H   0  0  0  0  0  0  0  0  0  0  0  0
   -2.7434   -0.6156    1.2639 H   0  0  0  0  0  0  0  0  0  0  0  0
  1  4  2  0  0  0  0
  2  6  2  0  0  0  0
  2  1  1  0  0  0  0
  3 15  1  0  0  0  0
  3  7  1  0  0  0  0
  3  5  1  0  0  0  0
  4  8  1  0  0  0  0
  4 16  1  0  0  0  0
  5 17  1  0  0  0  0
  6  9  1  0  0  0  0
  7 21  1  0  0  0  0
  8  5  1  0  0  0  0
  9 10  1  0  0  0  0
  9  8  2  0  0  0  0
 10  7  1  0  0  0  0
 11 10  2  0  0  0  0
 12  1  1  0  0  0  0
 13  2  1  0  0  0  0
 14  3  1  0  0  0  0
 18  5  1  0  0  0  0
 19  6  1  0  0  0  0
 20  7  1  0  0  0  0
M  END
>  <HBA>
1

>  <HBD>
0

>  <TPSA>
17.07

>  <cid>
10724

>  <dipole>
3.29

>  <excitation_energy_1>
3.647

>  <excitation_energy_2>
4.571

>  <excitation_energy_3>
5.1

>  <excitation_energy_4>
5.384

>  <homo_energy>
-6.509

>  <homo_lumo_gap>
5.097

>  <logP>
2.206

>  <lumo_energy>
-1.412

>  <melting_point>
64.96

>  <molecular_refractivity>
44.3

>  <oscillator_strength_1>
0.0001

>  <oscillator_strength_2>
0.0289

>  <oscillator_strength_3>
0.2036

>  <oscillator_strength_4>
0.0058

>  <open_babel_can_smiles>
O=C1CCCc2c1cccc2

>  <mulliken_charges>
21
1   -0.116032
2   -0.134902
3   -0.277662
4   -0.197361
5   -0.347499
6   -0.161271
7   -0.35581
8   0.128994
9   0.032768
10   0.402033
11   -0.470156
12   0.135931
13   0.136224
14   0.150674
15   0.14245
16   0.127706
17   0.1573
18   0.150696
19   0.163182
20   0.168403
21   0.164331

>  <lowdin_charges>
21
1   -0.137421
2   -0.160682
3   -0.272499
4   -0.166539
5   -0.27401
6   -0.122057
7   -0.303229
8   0.007556
9   -0.062309
10   0.15114
11   -0.247841
12   0.160981
13   0.161196
14   0.146158
15   0.150534
16   0.154882
17   0.153891
18   0.154481
19   0.174384
20   0.168615
21   0.162768

$$$$

