PCCDB-ID:  68340
public computational chemistry database (PCCDB) project, http://pccdb.org

 19 18  0  0  0  0  0  0  0  0999 V2000
    1.0697   -0.2082   -0.0449 C   0  0  0  0  0  0  0  0  0  0  0  0
    0.5171   -1.4072   -0.8274 C   0  0  0  0  0  0  0  0  0  0  0  0
    3.1657   -1.1145    0.8623 C   0  0  0  0  0  0  0  0  0  0  0  0
    2.4905   -2.0004    1.4988 N   0  0  0  0  0  0  0  0  0  0  0  0
    4.5418   -0.8592    0.9466 N   0  0  0  0  0  0  0  0  0  0  0  0
    2.5287   -0.2425   -0.0177 N   0  0  0  0  0  0  0  0  0  0  0  0
   -1.5186   -2.5598   -2.0393 O   0  0  0  0  0  0  0  0  0  0  0  0
   -1.9960   -1.4520    0.1520 O   0  0  0  0  0  0  0  0  0  0  0  0
   -1.4962   -0.0439   -1.9056 O   0  0  0  0  0  0  0  0  0  0  0  0
   -1.2577   -1.2315   -1.0933 S   0  0  0  0  0  0  0  0  0  0  0  0
    0.6494   -0.2163    0.9676 H   0  0  0  0  0  0  0  0  0  0  0  0
    0.7717    0.7169   -0.5456 H   0  0  0  0  0  0  0  0  0  0  0  0
    0.6789   -2.3340   -0.2753 H   0  0  0  0  0  0  0  0  0  0  0  0
    0.9701   -1.4736   -1.8200 H   0  0  0  0  0  0  0  0  0  0  0  0
    3.1001   -2.6176    2.0363 H   0  0  0  0  0  0  0  0  0  0  0  0
    5.0640   -1.5897    1.4147 H   0  0  0  0  0  0  0  0  0  0  0  0
    4.9740   -0.6069    0.0637 H   0  0  0  0  0  0  0  0  0  0  0  0
    2.9581    0.6740   -0.0533 H   0  0  0  0  0  0  0  0  0  0  0  0
   -2.1922   -3.0926   -1.5758 H   0  0  0  0  0  0  0  0  0  0  0  0
  1  6  1  0  0  0  0
  1 11  1  0  0  0  0
  2 13  1  0  0  0  0
  2  1  1  0  0  0  0
  3  5  2  0  0  0  0
  3  4  1  0  0  0  0
  4 15  1  0  0  0  0
  5 16  1  0  0  0  0
  6  3  1  0  0  0  0
  7 19  1  0  0  0  0
  7 10  1  0  0  0  0
  9 10  1  0  0  0  0
 10  2  1  0  0  0  0
 10  8  1  0  0  0  0
 12  1  1  0  0  0  0
 14  2  1  0  0  0  0
 17  5  1  0  0  0  0
 18  6  1  0  0  0  0
M  RAD  3   4   2   8   2   9   2
M  END
>  <HBA>
6

>  <HBD>
3

>  <TPSA>
127.15

>  <cid>
68340

>  <dipole>
5.76

>  <excitation_energy_1>
5.43

>  <excitation_energy_2>
5.993

>  <excitation_energy_3>
6.231

>  <excitation_energy_4>
6.262

>  <homo_energy>
-6.566

>  <homo_lumo_gap>
7.508

>  <logP>
0.629

>  <lumo_energy>
0.942

>  <melting_point>
182.77

>  <molecular_refractivity>
36.17

>  <oscillator_strength_1>
0.0025

>  <oscillator_strength_2>
0.0035

>  <oscillator_strength_3>
0.0167

>  <oscillator_strength_4>
0.0213

>  <open_babel_can_smiles>
[NH]C(=[NH2])NCCS(O)([O])[O]

>  <mulliken_charges>
19
1   -0.141806
2   -0.458713
3   0.587248
4   -0.643768
5   -0.755254
6   -0.605942
7   -0.648897
8   -0.52413
9   -0.497872
10   1.187408
11   0.195019
12   0.173824
13   0.236098
14   0.205463
15   0.272129
16   0.324638
17   0.32622
18   0.329054
19   0.439281

>  <lowdin_charges>
19
1   -0.195192
2   -0.425407
3   0.129061
4   -0.480072
5   -0.509279
6   -0.309549
7   -0.589979
8   -0.58796
9   -0.568684
10   1.336426
11   0.166845
12   0.165597
13   0.20329
14   0.188506
15   0.253205
16   0.280191
17   0.280222
18   0.280404
19   0.382374

$$$$

