PCCDB-ID:  69338
public computational chemistry database (PCCDB) project, http://pccdb.org

 18 17  0  0  0  0  0  0  0  0999 V2000
    0.4670   -0.3044    0.6476 C   0  0  0  0  0  0  0  0  0  0  0  0
    2.6551   -1.6122    0.7561 C   0  0  0  0  0  0  0  0  0  0  0  0
    2.0650    0.4394   -3.4270 C   0  0  0  0  0  0  0  0  0  0  0  0
    1.9303   -0.3831    0.2279 C   0  0  0  0  0  0  0  0  0  0  0  0
    1.9569    0.6700   -1.9270 C   0  0  0  0  0  0  0  0  0  0  0  0
    1.9977    1.6557   -4.1236 O   0  0  0  0  0  0  0  0  0  0  0  0
    1.8436    1.7846   -1.4513 O   0  0  0  0  0  0  0  0  0  0  0  0
    2.0112   -0.4709   -1.2330 O   0  0  0  0  0  0  0  0  0  0  0  0
    0.3938   -0.2559    1.7397 H   0  0  0  0  0  0  0  0  0  0  0  0
   -0.0810   -1.1890    0.3047 H   0  0  0  0  0  0  0  0  0  0  0  0
   -0.0068    0.5903    0.2344 H   0  0  0  0  0  0  0  0  0  0  0  0
    2.6675   -1.5961    1.8511 H   0  0  0  0  0  0  0  0  0  0  0  0
    3.6894   -1.6385    0.3996 H   0  0  0  0  0  0  0  0  0  0  0  0
    2.1531   -2.5298    0.4305 H   0  0  0  0  0  0  0  0  0  0  0  0
    1.2551   -0.2393   -3.7340 H   0  0  0  0  0  0  0  0  0  0  0  0
    3.0117   -0.0854   -3.6279 H   0  0  0  0  0  0  0  0  0  0  0  0
    2.4521    0.5316    0.5232 H   0  0  0  0  0  0  0  0  0  0  0  0
    1.9214    2.3462   -3.4385 H   0  0  0  0  0  0  0  0  0  0  0  0
  1  9  1  0  0  0  0
  2 12  1  0  0  0  0
  3  5  1  0  0  0  0
  4 17  1  0  0  0  0
  4  1  1  0  0  0  0
  4  2  1  0  0  0  0
  5  7  2  0  0  0  0
  5  8  1  0  0  0  0
  6 18  1  0  0  0  0
  6  3  1  0  0  0  0
  8  4  1  0  0  0  0
 10  1  1  0  0  0  0
 11  1  1  0  0  0  0
 13  2  1  0  0  0  0
 14  2  1  0  0  0  0
 15  3  1  0  0  0  0
 16  3  1  0  0  0  0
M  END
>  <HBA>
3

>  <HBD>
1

>  <TPSA>
46.53

>  <cid>
69338

>  <dipole>
3.34

>  <excitation_energy_1>
6.097

>  <excitation_energy_2>
6.357

>  <excitation_energy_3>
6.894

>  <excitation_energy_4>
7.436

>  <homo_energy>
-7.249

>  <homo_lumo_gap>
7.323

>  <logP>
-0.07

>  <lumo_energy>
0.073

>  <melting_point>
5.16

>  <molecular_refractivity>
28.6

>  <oscillator_strength_1>
0.0011

>  <oscillator_strength_2>
0.0303

>  <oscillator_strength_3>
0.0001

>  <oscillator_strength_4>
0.0085

>  <open_babel_can_smiles>
OCC(=O)OC(C)C

>  <mulliken_charges>
18
1   -0.459473
2   -0.452967
3   -0.075358
4   0.122356
5   0.580493
6   -0.624796
7   -0.490436
8   -0.460163
9   0.153147
10   0.155155
11   0.175693
12   0.153953
13   0.161173
14   0.159015
15   0.163343
16   0.162266
17   0.166479
18   0.410121

>  <lowdin_charges>
18
1   -0.452865
2   -0.444464
3   -0.156876
4   0.016944
5   0.180437
6   -0.463847
7   -0.277383
8   -0.184323
9   0.158157
10   0.156695
11   0.167746
12   0.157764
13   0.15967
14   0.158464
15   0.159
16   0.157353
17   0.156811
18   0.350718

$$$$

