PCCDB-ID:  38523
public computational chemistry database (PCCDB) project, http://pccdb.org

 39 39  0  0  0  0  0  0  0  0999 V2000
    2.2404   -0.5666    0.2977 C   0  0  0  0  0  0  0  0  0  0  0  0
    1.9560   -1.9610   -0.3131 C   0  0  0  0  0  0  0  0  0  0  0  0
    2.5409    0.5479   -0.7269 C   0  0  0  0  0  0  0  0  0  0  0  0
    1.0485   -2.8616    0.5663 C   0  0  0  0  0  0  0  0  0  0  0  0
    2.4690    1.9905   -0.1584 C   0  0  0  0  0  0  0  0  0  0  0  0
   -0.4678   -2.7735    0.2652 C   0  0  0  0  0  0  0  0  0  0  0  0
    1.0999    2.6925   -0.3266 C   0  0  0  0  0  0  0  0  0  0  0  0
   -0.9916   -1.3345    0.1990 C   0  0  0  0  0  0  0  0  0  0  0  0
   -0.0519    1.9072    0.3094 C   0  0  0  0  0  0  0  0  0  0  0  0
   -2.4974   -1.1407   -0.0093 C   0  0  0  0  0  0  0  0  0  0  0  0
   -1.4757    2.3993    0.0228 C   0  0  0  0  0  0  0  0  0  0  0  0
   -2.8795    0.2812   -0.4793 C   0  0  0  0  0  0  0  0  0  0  0  0
   -3.2161    1.6980    1.4823 N   0  0  0  0  0  0  0  0  0  0  0  0
   -2.4909    1.4025    0.3956 N   0  0  0  0  0  0  0  0  0  0  0  0
   -4.1160    0.8976    1.7345 O   0  0  0  0  0  0  0  0  0  0  0  0
    3.0849   -0.6464    0.9967 H   0  0  0  0  0  0  0  0  0  0  0  0
    1.3913   -0.2674    0.9169 H   0  0  0  0  0  0  0  0  0  0  0  0
    2.9095   -2.4726   -0.4955 H   0  0  0  0  0  0  0  0  0  0  0  0
    1.4942   -1.8444   -1.3043 H   0  0  0  0  0  0  0  0  0  0  0  0
    1.8406    0.4649   -1.5721 H   0  0  0  0  0  0  0  0  0  0  0  0
    3.5362    0.3734   -1.1560 H   0  0  0  0  0  0  0  0  0  0  0  0
    1.2214   -2.6147    1.6238 H   0  0  0  0  0  0  0  0  0  0  0  0
    1.3516   -3.9103    0.4523 H   0  0  0  0  0  0  0  0  0  0  0  0
    3.2243    2.6134   -0.6538 H   0  0  0  0  0  0  0  0  0  0  0  0
    2.7435    1.9767    0.9062 H   0  0  0  0  0  0  0  0  0  0  0  0
   -1.0145   -3.3453    1.0277 H   0  0  0  0  0  0  0  0  0  0  0  0
   -0.6724   -3.2695   -0.6950 H   0  0  0  0  0  0  0  0  0  0  0  0
    0.9000    2.8129   -1.4022 H   0  0  0  0  0  0  0  0  0  0  0  0
    1.1599    3.7070    0.0907 H   0  0  0  0  0  0  0  0  0  0  0  0
   -0.4702   -0.8435   -0.6315 H   0  0  0  0  0  0  0  0  0  0  0  0
   -0.6982   -0.8035    1.1121 H   0  0  0  0  0  0  0  0  0  0  0  0
    0.0833    1.8417    1.3974 H   0  0  0  0  0  0  0  0  0  0  0  0
    0.0077    0.8916   -0.0689 H   0  0  0  0  0  0  0  0  0  0  0  0
   -3.0511   -1.3752    0.9047 H   0  0  0  0  0  0  0  0  0  0  0  0
   -2.8618   -1.8274   -0.7873 H   0  0  0  0  0  0  0  0  0  0  0  0
   -1.5984    2.6300   -1.0438 H   0  0  0  0  0  0  0  0  0  0  0  0
   -1.7149    3.3025    0.5907 H   0  0  0  0  0  0  0  0  0  0  0  0
   -3.9692    0.3348   -0.5823 H   0  0  0  0  0  0  0  0  0  0  0  0
   -2.4271    0.4841   -1.4557 H   0  0  0  0  0  0  0  0  0  0  0  0
  1 17  1  0  0  0  0
  1 16  1  0  0  0  0
  2  1  1  0  0  0  0
  2  4  1  0  0  0  0
  3  5  1  0  0  0  0
  3  1  1  0  0  0  0
  4 22  1  0  0  0  0
  5 25  1  0  0  0  0
  6  4  1  0  0  0  0
  6 26  1  0  0  0  0
  7  5  1  0  0  0  0
  7 29  1  0  0  0  0
  7  9  1  0  0  0  0
  8  6  1  0  0  0  0
  8 31  1  0  0  0  0
  9 32  1  0  0  0  0
 10  8  1  0  0  0  0
 10 34  1  0  0  0  0
 11  9  1  0  0  0  0
 11 14  1  0  0  0  0
 11 37  1  0  0  0  0
 12 10  1  0  0  0  0
 12 14  1  0  0  0  0
 13 15  1  0  0  0  0
 14 13  1  0  0  0  0
 18  2  1  0  0  0  0
 19  2  1  0  0  0  0
 20  3  1  0  0  0  0
 21  3  1  0  0  0  0
 23  4  1  0  0  0  0
 24  5  1  0  0  0  0
 27  6  1  0  0  0  0
 28  7  1  0  0  0  0
 30  8  1  0  0  0  0
 33  9  1  0  0  0  0
 35 10  1  0  0  0  0
 36 11  1  0  0  0  0
 38 12  1  0  0  0  0
 39 12  1  0  0  0  0
M  RAD  2  13   2  15   2
M  END
>  <HBA>
3

>  <HBD>
0

>  <TPSA>
32.67

>  <cid>
38523

>  <dipole>
4.18

>  <excitation_energy_1>
3.355

>  <excitation_energy_2>
5.602

>  <excitation_energy_3>
5.722

>  <excitation_energy_4>
5.927

>  <homo_energy>
-5.88

>  <homo_lumo_gap>
5.208

>  <logP>
3.822

>  <lumo_energy>
-0.672

>  <melting_point>
13.72

>  <molecular_refractivity>
69.23

>  <oscillator_strength_1>
0.001

>  <oscillator_strength_2>
0.0178

>  <oscillator_strength_3>
0.1505

>  <oscillator_strength_4>
0.001

>  <open_babel_can_smiles>
[O][N]N1CCCCCCCCCCCC1

>  <mulliken_charges>
39
1   -0.271962
2   -0.263981
3   -0.26564
4   -0.264931
5   -0.261086
6   -0.262441
7   -0.264345
8   -0.260437
9   -0.264189
10   -0.26268
11   -0.142694
12   -0.152465
13   0.143945
14   -0.21784
15   -0.388531
16   0.134003
17   0.147045
18   0.134128
19   0.130309
20   0.126942
21   0.135201
22   0.134678
23   0.132069
24   0.133819
25   0.135306
26   0.134978
27   0.128095
28   0.127281
29   0.134693
30   0.136512
31   0.148007
32   0.145705
33   0.152109
34   0.17275
35   0.134326
36   0.14587
37   0.175135
38   0.175681
39   0.144634

>  <lowdin_charges>
39
1   -0.288072
2   -0.281367
3   -0.281628
4   -0.275032
5   -0.276803
6   -0.276964
7   -0.272626
8   -0.28458
9   -0.294826
10   -0.282776
11   -0.19828
12   -0.211065
13   0.047786
14   -0.043564
15   -0.279884
16   0.142397
17   0.144896
18   0.144107
19   0.136703
20   0.135537
21   0.144056
22   0.139628
23   0.142911
24   0.146848
25   0.140697
26   0.145246
27   0.137235
28   0.13519
29   0.141691
30   0.139169
31   0.146875
32   0.146492
33   0.156051
34   0.161617
35   0.147755
36   0.144778
37   0.165032
38   0.164856
39   0.149912

$$$$

