PCCDB-ID:  13683
public computational chemistry database (PCCDB) project, http://pccdb.org

 29 29  0  0  1  0  0  0  0  0999 V2000
    3.1790   -1.4256    1.3112 C   0  0  0  0  0  0  0  0  0  0  0  0
    0.5656   -0.0087    1.5500 C   0  0  0  0  0  0  0  0  0  0  0  0
    5.7606    0.7596   -0.6067 C   0  0  0  0  0  0  0  0  0  0  0  0
    7.1505    0.6165   -0.6143 C   0  0  0  0  0  0  0  0  0  0  0  0
    5.5367   -1.5275   -1.3167 C   0  0  0  0  0  0  0  0  0  0  0  0
    2.8375   -0.1591    0.5250 C   0  0  1  0  0  0  0  0  0  0  0  0
    4.9391   -0.3150   -0.9515 C   0  0  0  0  0  0  0  0  0  0  0  0
    7.7445   -0.5918   -0.9747 C   0  0  0  0  0  0  0  0  0  0  0  0
    6.9215   -1.6759   -1.3353 C   0  0  0  0  0  0  0  0  0  0  0  0
    3.4316   -0.1728   -0.9142 C   0  0  1  0  0  0  0  0  0  0  0  0
    1.3796   -0.0261    0.3346 N   0  0  0  0  0  0  0  0  0  0  0  0
    9.0978   -0.7911   -1.0063 O   0  0  0  0  0  0  0  0  0  0  0  0
    7.5430   -2.8407   -1.6914 O   0  0  0  0  0  0  0  0  0  0  0  0
    2.8208   -1.2136   -1.6594 O   0  0  0  0  0  0  0  0  0  0  0  0
    4.2638   -1.5355    1.3892 H   0  0  0  0  0  0  0  0  0  0  0  0
    2.7789   -2.3111    0.8071 H   0  0  0  0  0  0  0  0  0  0  0  0
    2.7736   -1.3899    2.3270 H   0  0  0  0  0  0  0  0  0  0  0  0
   -0.4615    0.2585    1.2818 H   0  0  0  0  0  0  0  0  0  0  0  0
    0.9197    0.7057    2.3143 H   0  0  0  0  0  0  0  0  0  0  0  0
    0.5391   -1.0031    2.0038 H   0  0  0  0  0  0  0  0  0  0  0  0
    5.3253    1.7186   -0.3361 H   0  0  0  0  0  0  0  0  0  0  0  0
    7.7862    1.4589   -0.3455 H   0  0  0  0  0  0  0  0  0  0  0  0
    4.8988   -2.3589   -1.6045 H   0  0  0  0  0  0  0  0  0  0  0  0
    3.2598    0.7110    1.0608 H   0  0  0  0  0  0  0  0  0  0  0  0
    3.1756    0.8065   -1.3644 H   0  0  0  0  0  0  0  0  0  0  0  0
    1.2134    0.8436   -0.1720 H   0  0  0  0  0  0  0  0  0  0  0  0
    9.5331    0.0359   -0.7482 H   0  0  0  0  0  0  0  0  0  0  0  0
    6.8592   -3.4842   -1.9343 H   0  0  0  0  0  0  0  0  0  0  0  0
    1.9015   -1.2312   -1.3252 H   0  0  0  0  0  0  0  0  0  0  0  0
  1 15  1  0  0  0  0
  1 17  1  0  0  0  0
  2 20  1  0  0  0  0
  2 19  1  0  0  0  0
  3 21  1  0  0  0  0
  4  3  1  0  0  0  0
  4 22  1  0  0  0  0
  5  7  1  0  0  0  0
  6 24  1  1  0  0  0
  6  1  1  0  0  0  0
  7 10  1  0  0  0  0
  7  3  2  0  0  0  0
  8  4  2  0  0  0  0
  9  5  2  0  0  0  0
  9  8  1  0  0  0  0
 10 25  1  6  0  0  0
 10  6  1  0  0  0  0
 11  6  1  0  0  0  0
 11  2  1  0  0  0  0
 12  8  1  0  0  0  0
 12 27  1  0  0  0  0
 13  9  1  0  0  0  0
 14 29  1  0  0  0  0
 14 10  1  0  0  0  0
 16  1  1  0  0  0  0
 18  2  1  0  0  0  0
 23  5  1  0  0  0  0
 26 11  1  0  0  0  0
 28 13  1  0  0  0  0
M  END
>  <HBA>
4

>  <HBD>
4

>  <TPSA>
72.72

>  <cid>
13683

>  <dipole>
3.63

>  <excitation_energy_1>
4.764

>  <excitation_energy_2>
4.825

>  <excitation_energy_3>
5.024

>  <excitation_energy_4>
5.094

>  <homo_energy>
-5.372

>  <homo_lumo_gap>
5.706

>  <logP>
1.13

>  <lumo_energy>
0.335

>  <melting_point>
132.91

>  <molecular_refractivity>
53.84

>  <oscillator_strength_1>
0.0004

>  <oscillator_strength_2>
0.0566

>  <oscillator_strength_3>
0.0102

>  <oscillator_strength_4>
0.0002

>  <open_babel_can_smiles>
CN[C@H]([C@@H](c1ccc(c(c1)O)O)O)C

>  <mulliken_charges>
29
1   -0.455617
2   -0.304406
3   -0.195134
4   -0.20192
5   -0.25179
6   0.023728
7   0.12447
8   0.31957
9   0.327902
10   0.086162
11   -0.574878
12   -0.634102
13   -0.636437
14   -0.653525
15   0.166439
16   0.153752
17   0.144045
18   0.15187
19   0.128945
20   0.164943
21   0.11548
22   0.115398
23   0.14484
24   0.111736
25   0.108428
26   0.301496
27   0.405232
28   0.40807
29   0.405305

>  <lowdin_charges>
29
1   -0.45276
2   -0.360748
3   -0.182644
4   -0.207935
5   -0.208071
6   -0.081123
7   -0.021483
8   0.075653
9   0.077959
10   -0.000272
11   -0.366647
12   -0.373385
13   -0.372614
14   -0.466513
15   0.163764
16   0.15591
17   0.150335
18   0.152649
19   0.128745
20   0.154283
21   0.152499
22   0.153296
23   0.1695
24   0.124546
25   0.123425
26   0.254744
27   0.356978
28   0.359625
29   0.340282

$$$$

