PCCDB-ID:  12526
public computational chemistry database (PCCDB) project, http://pccdb.org

 30 29  0  0  0  0  0  0  0  0999 V2000
    4.0487   -1.3780   -6.5511 C   0  0  0  0  0  0  0  0  0  0  0  0
    6.7978   -6.1132   -3.9007 C   0  0  0  0  0  0  0  0  0  0  0  0
    3.6515    0.8126   -4.4944 C   0  0  0  0  0  0  0  0  0  0  0  0
    5.3000   -3.5570   -3.5641 C   0  0  0  0  0  0  0  0  0  0  0  0
    3.3145    0.6188   -3.0088 C   0  0  0  0  0  0  0  0  0  0  0  0
    5.7975   -2.3908   -2.6991 C   0  0  0  0  0  0  0  0  0  0  0  0
    5.0696   -0.7223   -5.6433 C   0  0  0  0  0  0  0  0  0  0  0  0
    6.8451   -4.8966   -4.7930 C   0  0  0  0  0  0  0  0  0  0  0  0
    4.9283    0.2116   -4.7933 N   0  0  0  0  0  0  0  0  0  0  0  0
    6.2096   -3.7956   -4.6852 N   0  0  0  0  0  0  0  0  0  0  0  0
    6.3380   -1.2000   -5.8265 O   0  0  0  0  0  0  0  0  0  0  0  0
    7.6973   -5.0778   -5.8283 O   0  0  0  0  0  0  0  0  0  0  0  0
    2.9272   -1.1400   -2.5570 S   0  0  0  0  0  0  0  0  0  0  0  0
    4.5589   -1.8237   -1.4533 S   0  0  0  0  0  0  0  0  0  0  0  0
    4.1277   -2.4684   -6.4709 H   0  0  0  0  0  0  0  0  0  0  0  0
    4.2752   -1.1161   -7.5913 H   0  0  0  0  0  0  0  0  0  0  0  0
    3.0191   -1.0917   -6.3321 H   0  0  0  0  0  0  0  0  0  0  0  0
    5.7790   -6.5069   -3.8322 H   0  0  0  0  0  0  0  0  0  0  0  0
    7.1266   -5.8627   -2.8868 H   0  0  0  0  0  0  0  0  0  0  0  0
    7.4513   -6.8894   -4.3008 H   0  0  0  0  0  0  0  0  0  0  0  0
    3.7311    1.8965   -4.6659 H   0  0  0  0  0  0  0  0  0  0  0  0
    2.8076    0.4573   -5.1062 H   0  0  0  0  0  0  0  0  0  0  0  0
    4.3227   -3.2866   -3.9806 H   0  0  0  0  0  0  0  0  0  0  0  0
    5.1477   -4.4425   -2.9346 H   0  0  0  0  0  0  0  0  0  0  0  0
    2.4225    1.1972   -2.7437 H   0  0  0  0  0  0  0  0  0  0  0  0
    4.1448    0.9467   -2.3785 H   0  0  0  0  0  0  0  0  0  0  0  0
    6.1021   -1.5412   -3.3129 H   0  0  0  0  0  0  0  0  0  0  0  0
    6.6556   -2.6958   -2.0870 H   0  0  0  0  0  0  0  0  0  0  0  0
    6.3274   -2.1798   -5.6837 H   0  0  0  0  0  0  0  0  0  0  0  0
    7.6968   -4.2543   -6.3509 H   0  0  0  0  0  0  0  0  0  0  0  0
  1 15  1  0  0  0  0
  1 17  1  0  0  0  0
  1  7  1  0  0  0  0
  2 18  1  0  0  0  0
  2 19  1  0  0  0  0
  3  5  1  0  0  0  0
  4 24  1  0  0  0  0
  4  6  1  0  0  0  0
  5 25  1  0  0  0  0
  5 13  1  0  0  0  0
  5 26  1  0  0  0  0
  6 28  1  0  0  0  0
  6 14  1  0  0  0  0
  7  9  2  0  0  0  0
  8 10  2  0  0  0  0
  8  2  1  0  0  0  0
  9  3  1  0  0  0  0
 10  4  1  0  0  0  0
 11 29  1  0  0  0  0
 11  7  1  0  0  0  0
 12  8  1  0  0  0  0
 13 14  1  0  0  0  0
 16  1  1  0  0  0  0
 20  2  1  0  0  0  0
 21  3  1  0  0  0  0
 22  3  1  0  0  0  0
 23  4  1  0  0  0  0
 27  6  1  0  0  0  0
 30 12  1  0  0  0  0
M  END
>  <HBA>
6

>  <HBD>
2

>  <TPSA>
108.8

>  <cid>
12526

>  <dipole>
3.22

>  <excitation_energy_1>
4.388

>  <excitation_energy_2>
4.59

>  <excitation_energy_3>
5.214

>  <excitation_energy_4>
5.392

>  <homo_energy>
-6.264

>  <homo_lumo_gap>
5.633

>  <logP>
1.422

>  <lumo_energy>
-0.631

>  <melting_point>
87.19

>  <molecular_refractivity>
61.76

>  <oscillator_strength_1>
0.0068

>  <oscillator_strength_2>
0.0057

>  <oscillator_strength_3>
0.0012

>  <oscillator_strength_4>
0.0382

>  <open_babel_can_smiles>
C/C(=N\CCSSCC/N=C(/O)\C)/O

>  <mulliken_charges>
30
1   -0.523694
2   -0.53752
3   -0.142201
4   -0.157507
5   -0.419447
6   -0.440675
7   0.489107
8   0.530862
9   -0.404525
10   -0.492133
11   -0.644639
12   -0.576541
13   -0.00799
14   0.010832
15   0.164669
16   0.177272
17   0.167818
18   0.189731
19   0.189276
20   0.193733
21   0.154041
22   0.126049
23   0.179547
24   0.146361
25   0.174874
26   0.207014
27   0.237255
28   0.172862
29   0.421513
30   0.414055

>  <lowdin_charges>
30
1   -0.472021
2   -0.463672
3   -0.202253
4   -0.210148
5   -0.385888
6   -0.398188
7   0.136435
8   0.150813
9   -0.20708
10   -0.247238
11   -0.420931
12   -0.353227
13   0.013384
14   0.034508
15   0.16421
16   0.171817
17   0.162337
18   0.178107
19   0.178471
20   0.18294
21   0.150895
22   0.128696
23   0.160959
24   0.144827
25   0.166719
26   0.180848
27   0.190087
28   0.168066
29   0.335542
30   0.360985

$$$$

