PCCDB-ID:  48156
public computational chemistry database (PCCDB) project, http://pccdb.org

 29 29  0  0  1  0  0  0  0  0999 V2000
    0.8751    1.9850   -1.4193 C   0  0  0  0  0  0  0  0  0  0  0  0
    2.9314    2.7771   -0.1641 C   0  0  0  0  0  0  0  0  0  0  0  0
    6.7514    0.0040   -2.4635 C   0  0  0  0  0  0  0  0  0  0  0  0
    2.9791    0.6964   -1.6121 C   0  0  0  0  0  0  0  0  0  0  0  0
    4.4229    0.3162   -1.4252 C   0  0  0  0  0  0  0  0  0  0  0  0
    2.3286    1.7476   -1.0879 C   0  0  0  0  0  0  0  0  0  0  0  0
    5.3283    1.9700   -3.1260 C   0  0  0  0  0  0  0  0  0  0  0  0
    4.6915   -0.2790   -3.8771 C   0  0  0  0  0  0  0  0  0  0  0  0
    4.3756    1.5966   -5.2112 C   0  0  0  0  0  0  0  0  0  0  0  0
    5.3017    0.5001   -2.7145 C   0  0  1  0  0  0  0  0  0  0  0  0
    4.9297    2.4593   -4.2294 N   0  0  0  0  0  0  0  0  0  0  0  0
    4.2867    0.1975   -4.9839 N   0  0  0  0  0  0  0  0  0  0  0  0
    5.8406    2.8412   -2.2249 O   0  0  0  0  0  0  0  0  0  0  0  0
    4.5681   -1.6168   -3.7078 O   0  0  0  0  0  0  0  0  0  0  0  0
    3.9737    2.0584   -6.2547 O   0  0  0  0  0  0  0  0  0  0  0  0
    0.7412    2.9662   -1.8941 H   0  0  0  0  0  0  0  0  0  0  0  0
    0.2602    1.9901   -0.5089 H   0  0  0  0  0  0  0  0  0  0  0  0
    0.4790    1.2237   -2.0973 H   0  0  0  0  0  0  0  0  0  0  0  0
    2.3246    2.8762    0.7454 H   0  0  0  0  0  0  0  0  0  0  0  0
    2.9408    3.7628   -0.6472 H   0  0  0  0  0  0  0  0  0  0  0  0
    3.9556    2.5521    0.1430 H   0  0  0  0  0  0  0  0  0  0  0  0
    7.2305    0.5604   -1.6505 H   0  0  0  0  0  0  0  0  0  0  0  0
    7.3661    0.1199   -3.3608 H   0  0  0  0  0  0  0  0  0  0  0  0
    6.7678   -1.0524   -2.1740 H   0  0  0  0  0  0  0  0  0  0  0  0
    2.4197    0.0346   -2.2728 H   0  0  0  0  0  0  0  0  0  0  0  0
    4.4935   -0.7383   -1.1173 H   0  0  0  0  0  0  0  0  0  0  0  0
    4.8839    0.8770   -0.6048 H   0  0  0  0  0  0  0  0  0  0  0  0
    6.1189    2.3730   -1.4230 H   0  0  0  0  0  0  0  0  0  0  0  0
    4.8989   -1.8790   -2.8348 H   0  0  0  0  0  0  0  0  0  0  0  0
  1  6  1  0  0  0  0
  1 17  1  0  0  0  0
  2 21  1  0  0  0  0
  2 19  1  0  0  0  0
  3 24  1  0  0  0  0
  3 22  1  0  0  0  0
  4  5  1  0  0  0  0
  4  6  2  0  0  0  0
  5 26  1  0  0  0  0
  5 27  1  0  0  0  0
  6  2  1  0  0  0  0
  7 10  1  0  0  0  0
  7 13  1  0  0  0  0
  8 14  1  0  0  0  0
  8 10  1  0  0  0  0
  9 12  1  0  0  0  0
  9 11  2  0  0  0  0
 10  3  1  1  0  0  0
 10  5  1  0  0  0  0
 11  7  2  0  0  0  0
 12  8  2  0  0  0  0
 13 28  1  0  0  0  0
 14 29  1  0  0  0  0
 15  9  2  0  0  0  0
 16  1  1  0  0  0  0
 18  1  1  0  0  0  0
 20  2  1  0  0  0  0
 23  3  1  0  0  0  0
 25  4  1  0  0  0  0
M  END
>  <HBA>
5

>  <HBD>
2

>  <TPSA>
75.27

>  <cid>
48156

>  <dipole>
9.68

>  <excitation_energy_1>
4.004

>  <excitation_energy_2>
4.173

>  <excitation_energy_3>
4.618

>  <excitation_energy_4>
5.246

>  <homo_energy>
-6.849

>  <homo_lumo_gap>
5.399

>  <logP>
1.373

>  <lumo_energy>
-1.45

>  <melting_point>
154.12

>  <molecular_refractivity>
61.76

>  <oscillator_strength_1>
0.0

>  <oscillator_strength_2>
0.0

>  <oscillator_strength_3>
0.0016

>  <oscillator_strength_4>
0.0003

>  <open_babel_can_smiles>
CC(=CC[C@@]1(C)C(=N[C](=[N]=C1O)=O)O)C

>  <mulliken_charges>
29
1   -0.510242
2   -0.510635
3   -0.457452
4   -0.174616
5   -0.327301
6   0.198271
7   0.56339
8   0.554399
9   0.622507
10   -0.148513
11   -0.469807
12   -0.468564
13   -0.578556
14   -0.579205
15   -0.432534
16   0.1693
17   0.155042
18   0.164288
19   0.159881
20   0.181996
21   0.133891
22   0.152672
23   0.196905
24   0.152537
25   0.145458
26   0.141522
27   0.136372
28   0.413909
29   0.415085

>  <lowdin_charges>
29
1   -0.43936
2   -0.44319
3   -0.438032
4   -0.217141
5   -0.270159
6   0.017105
7   0.151163
8   0.148429
9   0.174186
10   -0.059647
11   -0.182279
12   -0.182737
13   -0.330346
14   -0.332809
15   -0.209366
16   0.16414
17   0.157367
18   0.162608
19   0.160638
20   0.171258
21   0.144323
22   0.155334
23   0.17778
24   0.153237
25   0.162611
26   0.14519
27   0.147815
28   0.355956
29   0.355928

$$$$

