PCCDB-ID:  12497
public computational chemistry database (PCCDB) project, http://pccdb.org

 21 21  0  0  0  0  0  0  0  0999 V2000
    2.3478    1.7719   -0.4964 C   0  0  0  0  0  0  0  0  0  0  0  0
    3.5756    1.2653    0.2574 C   0  0  0  0  0  0  0  0  0  0  0  0
    5.8483    2.0627    6.2495 C   0  0  0  0  0  0  0  0  0  0  0  0
    5.8903    0.7679    5.7292 C   0  0  0  0  0  0  0  0  0  0  0  0
    5.4154    3.1178    5.4440 C   0  0  0  0  0  0  0  0  0  0  0  0
    5.4957    0.5282    4.4131 C   0  0  0  0  0  0  0  0  0  0  0  0
    5.0220    2.8937    4.1238 C   0  0  0  0  0  0  0  0  0  0  0  0
    5.0630    1.5921    3.6235 C   0  0  0  0  0  0  0  0  0  0  0  0
    3.6417    1.7772    1.6822 C   0  0  0  0  0  0  0  0  0  0  0  0
    2.8394    2.5067    2.2108 O   0  0  0  0  0  0  0  0  0  0  0  0
    4.7635    1.2812    2.2946 O   0  0  0  0  0  0  0  0  0  0  0  0
    2.3401    1.3799   -1.5184 H   0  0  0  0  0  0  0  0  0  0  0  0
    2.3403    2.8648   -0.5455 H   0  0  0  0  0  0  0  0  0  0  0  0
    1.4249    1.4598    0.0012 H   0  0  0  0  0  0  0  0  0  0  0  0
    4.5062    1.5599   -0.2449 H   0  0  0  0  0  0  0  0  0  0  0  0
    3.6007    0.1686    0.2947 H   0  0  0  0  0  0  0  0  0  0  0  0
    6.1532    2.2492    7.2754 H   0  0  0  0  0  0  0  0  0  0  0  0
    6.2289   -0.0597    6.3463 H   0  0  0  0  0  0  0  0  0  0  0  0
    5.3819    4.1281    5.8424 H   0  0  0  0  0  0  0  0  0  0  0  0
    5.5214   -0.4696    3.9866 H   0  0  0  0  0  0  0  0  0  0  0  0
    4.6808    3.7096    3.4996 H   0  0  0  0  0  0  0  0  0  0  0  0
  1 14  1  0  0  0  0
  1  2  1  0  0  0  0
  2 16  1  0  0  0  0
  2  9  1  0  0  0  0
  3 17  1  0  0  0  0
  4  3  1  0  0  0  0
  4 18  1  0  0  0  0
  5 19  1  0  0  0  0
  5  3  2  0  0  0  0
  6  4  2  0  0  0  0
  7  5  1  0  0  0  0
  8  7  2  0  0  0  0
  8  6  1  0  0  0  0
  9 10  2  0  0  0  0
  9 11  1  0  0  0  0
 11  8  1  0  0  0  0
 12  1  1  0  0  0  0
 13  1  1  0  0  0  0
 15  2  1  0  0  0  0
 20  6  1  0  0  0  0
 21  7  1  0  0  0  0
M  END
>  <HBA>
2

>  <HBD>
0

>  <TPSA>
26.3

>  <cid>
12497

>  <dipole>
1.54

>  <excitation_energy_1>
5.238

>  <excitation_energy_2>
5.532

>  <excitation_energy_3>
5.632

>  <excitation_energy_4>
6.112

>  <homo_energy>
-6.52

>  <homo_lumo_gap>
6.261

>  <logP>
2.002

>  <lumo_energy>
-0.259

>  <melting_point>
28.48

>  <molecular_refractivity>
42.75

>  <oscillator_strength_1>
0.0013

>  <oscillator_strength_2>
0.1269

>  <oscillator_strength_3>
0.0137

>  <oscillator_strength_4>
0.0062

>  <open_babel_can_smiles>
CCC(=O)Oc1ccccc1

>  <mulliken_charges>
21
1   -0.437338
2   -0.355699
3   -0.123192
4   -0.138865
5   -0.144326
6   -0.163106
7   -0.138085
8   0.34445
9   0.613846
10   -0.453592
11   -0.526256
12   0.145422
13   0.163064
14   0.164642
15   0.17641
16   0.175895
17   0.131455
18   0.134707
19   0.136443
20   0.139456
21   0.154668

>  <lowdin_charges>
21
1   -0.437051
2   -0.297779
3   -0.160895
4   -0.151445
5   -0.147847
6   -0.172199
7   -0.169724
8   0.104417
9   0.208488
10   -0.241814
11   -0.167773
12   0.152505
13   0.157864
14   0.160859
15   0.171097
16   0.168665
17   0.158299
18   0.161589
19   0.160448
20   0.16648
21   0.175817

$$$$

