PCCDB-ID:  19499
public computational chemistry database (PCCDB) project, http://pccdb.org

 12 11  0  0  0  0  0  0  0  0999 V2000
    0.9013    0.1166   -0.0069 C   0  0  0  0  0  0  0  0  0  0  0  0
    2.3983    0.1298    0.0511 C   0  0  0  0  0  0  0  0  0  0  0  0
    3.2103   -0.3081   -0.9202 C   0  0  0  0  0  0  0  0  0  0  0  0
    4.6977   -0.2361   -0.9034 C   0  0  0  0  0  0  0  0  0  0  0  0
    5.3598   -0.2370   -1.9141 O   0  0  0  0  0  0  0  0  0  0  0  0
    5.3085   -0.1518    0.3136 O   0  0  0  0  0  0  0  0  0  0  0  0
    0.4831   -0.4525    0.8339 H   0  0  0  0  0  0  0  0  0  0  0  0
    0.5364   -0.3251   -0.9388 H   0  0  0  0  0  0  0  0  0  0  0  0
    0.5001    1.1353    0.0740 H   0  0  0  0  0  0  0  0  0  0  0  0
    2.8269    0.5654    0.9565 H   0  0  0  0  0  0  0  0  0  0  0  0
    2.8039   -0.6847   -1.8554 H   0  0  0  0  0  0  0  0  0  0  0  0
    4.6630   -0.3298    1.0165 H   0  0  0  0  0  0  0  0  0  0  0  0
  1  2  1  0  0  0  0
  1  9  1  0  0  0  0
  1  7  1  0  0  0  0
  2 10  1  0  0  0  0
  3  4  1  0  0  0  0
  3  2  2  0  0  0  0
  4  6  1  0  0  0  0
  5  4  2  0  0  0  0
  6 12  1  0  0  0  0
  8  1  1  0  0  0  0
 11  3  1  0  0  0  0
M  END
>  <HBA>
2

>  <HBD>
1

>  <TPSA>
37.3

>  <cid>
19499

>  <dipole>
5.18

>  <excitation_energy_1>
4.669

>  <excitation_energy_2>
6.192

>  <excitation_energy_3>
6.551

>  <excitation_energy_4>
6.68

>  <homo_energy>
-7.287

>  <homo_lumo_gap>
6.027

>  <logP>
0.647

>  <lumo_energy>
-1.26

>  <melting_point>
61.71

>  <molecular_refractivity>
22.64

>  <oscillator_strength_1>
0.0042

>  <oscillator_strength_2>
0.337

>  <oscillator_strength_3>
0.0304

>  <oscillator_strength_4>
0.0576

>  <open_babel_can_smiles>
C/C=C/C(=O)O

>  <mulliken_charges>
12
1   -0.493502
2   -0.094313
3   -0.178374
4   0.571168
5   -0.446653
6   -0.572778
7   0.169448
8   0.17044
9   0.174542
10   0.133939
11   0.161234
12   0.404847

>  <lowdin_charges>
12
1   -0.437691
2   -0.128714
3   -0.209426
4   0.193633
5   -0.237876
6   -0.36475
7   0.167543
8   0.164877
9   0.168482
10   0.151025
11   0.176737
12   0.356161

$$$$

