PCCDB-ID:  69085
public computational chemistry database (PCCDB) project, http://pccdb.org

 19 20  0  0  0  0  0  0  0  0999 V2000
    2.4138   -0.6510    0.1512 C   0  0  0  0  0  0  0  0  0  0  0  0
    1.2338   -1.3550    0.0715 C   0  0  0  0  0  0  0  0  0  0  0  0
    2.3853    0.7570    0.1445 C   0  0  0  0  0  0  0  0  0  0  0  0
   -1.3621    1.3322   -0.1110 C   0  0  0  0  0  0  0  0  0  0  0  0
   -2.4650    0.5082   -0.1581 C   0  0  0  0  0  0  0  0  0  0  0  0
   -1.2298   -1.4010   -0.0757 C   0  0  0  0  0  0  0  0  0  0  0  0
   -0.0064   -0.6766   -0.0150 C   0  0  0  0  0  0  0  0  0  0  0  0
   -0.0658    0.7563   -0.0388 C   0  0  0  0  0  0  0  0  0  0  0  0
    1.1896    1.4396    0.0429 C   0  0  0  0  0  0  0  0  0  0  0  0
   -2.4213   -0.8511   -0.1461 N   0  0  0  0  0  0  0  0  0  0  0  0
    1.2904    2.9096    0.0193 N   0  0  0  0  0  0  0  0  0  0  0  0
    2.3332    3.4152    0.4353 O   0  0  0  0  0  0  0  0  0  0  0  0
    0.3431    3.5576   -0.4283 O   0  0  0  0  0  0  0  0  0  0  0  0
    3.3668   -1.1657    0.2181 H   0  0  0  0  0  0  0  0  0  0  0  0
    1.2348   -2.4421    0.0770 H   0  0  0  0  0  0  0  0  0  0  0  0
    3.3017    1.3297    0.2150 H   0  0  0  0  0  0  0  0  0  0  0  0
   -1.4844    2.4045   -0.1333 H   0  0  0  0  0  0  0  0  0  0  0  0
   -3.4608    0.9416   -0.2140 H   0  0  0  0  0  0  0  0  0  0  0  0
   -1.1898   -2.4910   -0.0599 H   0  0  0  0  0  0  0  0  0  0  0  0
  1 14  1  0  0  0  0
  2 15  1  0  0  0  0
  2  1  2  0  0  0  0
  3  1  1  0  0  0  0
  3 16  1  0  0  0  0
  4  8  2  0  0  0  0
  5 10  2  0  0  0  0
  5  4  1  0  0  0  0
  6 19  1  0  0  0  0
  6  7  2  0  0  0  0
  7  2  1  0  0  0  0
  8  7  1  0  0  0  0
  8  9  1  0  0  0  0
  9  3  2  0  0  0  0
 10  6  1  0  0  0  0
 11  9  1  0  0  0  0
 11 12  2  0  0  0  0
 13 11  2  0  0  0  0
 17  4  1  0  0  0  0
 18  5  1  0  0  0  0
M  END
>  <HBA>
1

>  <HBD>
0

>  <TPSA>
58.71

>  <cid>
69085

>  <dipole>
3.77

>  <excitation_energy_1>
3.49

>  <excitation_energy_2>
3.579

>  <excitation_energy_3>
3.747

>  <excitation_energy_4>
4.16

>  <homo_energy>
-6.898

>  <homo_lumo_gap>
4.093

>  <logP>
2.666

>  <lumo_energy>
-2.806

>  <melting_point>
102.95

>  <molecular_refractivity>
50.56

>  <oscillator_strength_1>
0.1186

>  <oscillator_strength_2>
0.003

>  <oscillator_strength_3>
0.0061

>  <oscillator_strength_4>
0.0039

>  <open_babel_can_smiles>
O=N(=O)c1cccc2c1ccnc2

>  <mulliken_charges>
19
1   -0.144328
2   -0.163928
3   -0.146723
4   -0.182831
5   0.029981
6   -0.000395
7   0.086155
8   0.132948
9   0.213601
10   -0.407881
11   0.364649
12   -0.388051
13   -0.392376
14   0.156411
15   0.15634
16   0.192308
17   0.188174
18   0.155169
19   0.150777

>  <lowdin_charges>
19
1   -0.155904
2   -0.114814
3   -0.119491
4   -0.171047
5   -0.085011
6   -0.076931
7   -0.019948
8   0.017654
9   0.000395
10   -0.138606
11   0.309949
12   -0.246034
13   -0.244336
14   0.17212
15   0.168986
16   0.192508
17   0.188025
18   0.164502
19   0.157983

$$$$

