PCCDB-ID:  18986
public computational chemistry database (PCCDB) project, http://pccdb.org

 26 27  0  0  0  0  0  0  0  0999 V2000
    1.9949    0.1192   -0.3545 C   0  0  0  0  0  0  0  0  0  0  0  0
    4.2530    0.2529    2.5104 C   0  0  0  0  0  0  0  0  0  0  0  0
    4.8320    1.1220    3.4185 C   0  0  0  0  0  0  0  0  0  0  0  0
    2.8124    5.3609    1.5923 C   0  0  0  0  0  0  0  0  0  0  0  0
    3.0931    2.0744    1.3653 C   0  0  0  0  0  0  0  0  0  0  0  0
    4.3851    4.7185    3.5310 C   0  0  0  0  0  0  0  0  0  0  0  0
    3.5922    4.4050    2.4467 C   0  0  0  0  0  0  0  0  0  0  0  0
    3.3881    0.7206    1.4892 C   0  0  0  0  0  0  0  0  0  0  0  0
    3.6764    2.9723    2.2822 C   0  0  0  0  0  0  0  0  0  0  0  0
    4.5362    2.4854    3.2961 C   0  0  0  0  0  0  0  0  0  0  0  0
    1.2842    5.3048    1.7599 C   0  0  0  0  0  0  0  0  0  0  0  0
    4.9527    3.5743    4.0433 N   0  0  0  0  0  0  0  0  0  0  0  0
    0.5130    5.6566    0.9019 O   0  0  0  0  0  0  0  0  0  0  0  0
    0.8448    4.8749    2.9654 O   0  0  0  0  0  0  0  0  0  0  0  0
    2.8961   -0.2603    0.6722 O   0  0  0  0  0  0  0  0  0  0  0  0
    1.7165   -0.8037   -0.8665 H   0  0  0  0  0  0  0  0  0  0  0  0
    2.4656    0.8045   -1.0726 H   0  0  0  0  0  0  0  0  0  0  0  0
    1.0936    0.5948    0.0550 H   0  0  0  0  0  0  0  0  0  0  0  0
    4.4470   -0.8136    2.5577 H   0  0  0  0  0  0  0  0  0  0  0  0
    5.4925    0.7504    4.1973 H   0  0  0  0  0  0  0  0  0  0  0  0
    3.0115    5.2119    0.5260 H   0  0  0  0  0  0  0  0  0  0  0  0
    3.1084    6.3945    1.8173 H   0  0  0  0  0  0  0  0  0  0  0  0
    2.4298    2.4412    0.5904 H   0  0  0  0  0  0  0  0  0  0  0  0
    4.6022    5.6849    3.9665 H   0  0  0  0  0  0  0  0  0  0  0  0
    5.5766    3.5383    4.8341 H   0  0  0  0  0  0  0  0  0  0  0  0
    1.6193    4.5836    3.4845 H   0  0  0  0  0  0  0  0  0  0  0  0
  1 18  1  0  0  0  0
  1 15  1  0  0  0  0
  2 19  1  0  0  0  0
  2  3  2  0  0  0  0
  3 20  1  0  0  0  0
  4 11  1  0  0  0  0
  4 22  1  0  0  0  0
  4  7  1  0  0  0  0
  5  8  2  0  0  0  0
  5  9  1  0  0  0  0
  6 24  1  0  0  0  0
  6 12  1  0  0  0  0
  7  6  2  0  0  0  0
  8  2  1  0  0  0  0
  9  7  1  0  0  0  0
  9 10  2  0  0  0  0
 10  3  1  0  0  0  0
 10 12  1  0  0  0  0
 11 14  1  0  0  0  0
 12 25  1  0  0  0  0
 13 11  2  0  0  0  0
 14 26  1  0  0  0  0
 15  8  1  0  0  0  0
 16  1  1  0  0  0  0
 17  1  1  0  0  0  0
 21  4  1  0  0  0  0
 23  5  1  0  0  0  0
M  END
>  <HBA>
3

>  <HBD>
2

>  <TPSA>
62.32

>  <cid>
18986

>  <dipole>
5.44

>  <excitation_energy_1>
4.415

>  <excitation_energy_2>
4.793

>  <excitation_energy_3>
4.814

>  <excitation_energy_4>
5.001

>  <homo_energy>
-5.627

>  <homo_lumo_gap>
5.094

>  <logP>
1.804

>  <lumo_energy>
-0.533

>  <melting_point>
182.37

>  <molecular_refractivity>
56.34

>  <oscillator_strength_1>
0.0695

>  <oscillator_strength_2>
0.0059

>  <oscillator_strength_3>
0.1014

>  <oscillator_strength_4>
0.0044

>  <open_babel_can_smiles>
COc1ccc2c(c1)c(c[nH]2)CC(=O)O

>  <mulliken_charges>
26
1   -0.214337
2   -0.189523
3   -0.160498
4   -0.450904
5   -0.284033
6   0.00452
7   -0.020214
8   0.375246
9   0.096204
10   0.308246
11   0.593973
12   -0.687011
13   -0.452792
14   -0.566554
15   -0.513272
16   0.168767
17   0.150974
18   0.157155
19   0.140323
20   0.12967
21   0.187096
22   0.182188
23   0.142985
24   0.157652
25   0.332143
26   0.411998

>  <lowdin_charges>
26
1   -0.280043
2   -0.177066
3   -0.17317
4   -0.307875
5   -0.223756
6   -0.138121
7   -0.094242
8   0.094122
9   -0.030677
10   0.01502
11   0.189902
12   -0.192874
13   -0.25156
14   -0.357872
15   -0.20142
16   0.162975
17   0.145729
18   0.148103
19   0.167177
20   0.160783
21   0.177223
22   0.177401
23   0.168616
24   0.168493
25   0.294708
26   0.358422

$$$$

