PCCDB-ID:  8868
public computational chemistry database (PCCDB) project, http://pccdb.org

 19 18  0  0  0  0  0  0  0  0999 V2000
    2.5672   -3.0138    0.1763 C   0  0  0  0  0  0  0  0  0  0  0  0
    6.3722    1.2519    1.5507 C   0  0  0  0  0  0  0  0  0  0  0  0
    1.8924   -1.6539    0.0871 C   0  0  0  0  0  0  0  0  0  0  0  0
    4.4979    0.9836   -0.2335 C   0  0  0  0  0  0  0  0  0  0  0  0
    5.9801    0.8294    0.1527 C   0  0  0  0  0  0  0  0  0  0  0  0
    3.6123   -0.0467    0.4543 C   0  0  0  0  0  0  0  0  0  0  0  0
    6.7747    0.3943   -0.6553 O   0  0  0  0  0  0  0  0  0  0  0  0
    3.6232   -0.2868    1.6447 O   0  0  0  0  0  0  0  0  0  0  0  0
    2.8012   -0.6488   -0.4348 O   0  0  0  0  0  0  0  0  0  0  0  0
    1.8391   -3.7673    0.4977 H   0  0  0  0  0  0  0  0  0  0  0  0
    3.3830   -2.9933    0.9042 H   0  0  0  0  0  0  0  0  0  0  0  0
    2.9677   -3.3145   -0.7971 H   0  0  0  0  0  0  0  0  0  0  0  0
    5.7426    0.7361    2.2834 H   0  0  0  0  0  0  0  0  0  0  0  0
    6.1956    2.3281    1.6779 H   0  0  0  0  0  0  0  0  0  0  0  0
    7.4279    1.0329    1.7218 H   0  0  0  0  0  0  0  0  0  0  0  0
    1.5275   -1.3242    1.0626 H   0  0  0  0  0  0  0  0  0  0  0  0
    1.0667   -1.6605   -0.6282 H   0  0  0  0  0  0  0  0  0  0  0  0
    4.4066    0.8948   -1.3163 H   0  0  0  0  0  0  0  0  0  0  0  0
    4.1397    1.9726    0.0817 H   0  0  0  0  0  0  0  0  0  0  0  0
  1 10  1  0  0  0  0
  1 11  1  0  0  0  0
  2 14  1  0  0  0  0
  2 15  1  0  0  0  0
  2 13  1  0  0  0  0
  3  1  1  0  0  0  0
  3 16  1  0  0  0  0
  4 19  1  0  0  0  0
  4  5  1  0  0  0  0
  4  6  1  0  0  0  0
  5  2  1  0  0  0  0
  6  8  2  0  0  0  0
  7  5  2  0  0  0  0
  9  3  1  0  0  0  0
  9  6  1  0  0  0  0
 12  1  1  0  0  0  0
 17  3  1  0  0  0  0
 18  4  1  0  0  0  0
M  END
>  <HBA>
3

>  <HBD>
0

>  <TPSA>
43.37

>  <cid>
8868

>  <dipole>
2.49

>  <excitation_energy_1>
4.368

>  <excitation_energy_2>
5.676

>  <excitation_energy_3>
5.941

>  <excitation_energy_4>
6.389

>  <homo_energy>
-6.827

>  <homo_lumo_gap>
6.191

>  <logP>
0.529

>  <lumo_energy>
-0.637

>  <melting_point>
7.27

>  <molecular_refractivity>
32.44

>  <oscillator_strength_1>
0.0009

>  <oscillator_strength_2>
0.0055

>  <oscillator_strength_3>
0.0197

>  <oscillator_strength_4>
0.0142

>  <open_babel_can_smiles>
CCOC(=O)CC(=O)C

>  <mulliken_charges>
19
1   -0.462723
2   -0.538501
3   -0.049592
4   -0.438176
5   0.4538
6   0.621301
7   -0.422095
8   -0.473977
9   -0.445584
10   0.153378
11   0.178049
12   0.163522
13   0.208187
14   0.165506
15   0.176627
16   0.172437
17   0.157777
18   0.194222
19   0.185842

>  <lowdin_charges>
19
1   -0.455629
2   -0.479025
3   -0.128157
4   -0.32981
5   0.176065
6   0.199978
7   -0.224843
8   -0.272586
9   -0.181622
10   0.161653
11   0.166942
12   0.159316
13   0.190066
14   0.168501
15   0.170382
16   0.159527
17   0.15574
18   0.181482
19   0.182021

$$$$

