PCCDB-ID:  7015
public computational chemistry database (PCCDB) project, http://pccdb.org

 24 25  0  0  0  0  0  0  0  0999 V2000
   -1.4789    0.1143    0.3256 C   0  0  0  0  0  0  0  0  0  0  0  0
   -0.9460    0.8916   -0.7044 C   0  0  0  0  0  0  0  0  0  0  0  0
   -0.6213   -0.6149    1.1511 C   0  0  0  0  0  0  0  0  0  0  0  0
    4.8371   -0.9815   -0.8225 C   0  0  0  0  0  0  0  0  0  0  0  0
    5.5564    0.2142   -0.7751 C   0  0  0  0  0  0  0  0  0  0  0  0
    0.4343    0.9396   -0.9045 C   0  0  0  0  0  0  0  0  0  0  0  0
    0.7588   -0.5616    0.9534 C   0  0  0  0  0  0  0  0  0  0  0  0
    3.4647   -0.9512   -0.5824 C   0  0  0  0  0  0  0  0  0  0  0  0
    4.9112    1.4106   -0.4806 C   0  0  0  0  0  0  0  0  0  0  0  0
    1.3114    0.2169   -0.0761 C   0  0  0  0  0  0  0  0  0  0  0  0
    2.7857    0.2426   -0.3018 C   0  0  0  0  0  0  0  0  0  0  0  0
    3.5276    1.4485   -0.2324 C   0  0  0  0  0  0  0  0  0  0  0  0
    2.9329    2.6494    0.1567 N   0  0  0  0  0  0  0  0  0  0  0  0
   -2.5537    0.0745    0.4810 H   0  0  0  0  0  0  0  0  0  0  0  0
   -1.6057    1.4519   -1.3620 H   0  0  0  0  0  0  0  0  0  0  0  0
   -1.0269   -1.2232    1.9555 H   0  0  0  0  0  0  0  0  0  0  0  0
    5.3341   -1.9200   -1.0493 H   0  0  0  0  0  0  0  0  0  0  0  0
    6.6269    0.2182   -0.9642 H   0  0  0  0  0  0  0  0  0  0  0  0
    0.8397    1.5202   -1.7301 H   0  0  0  0  0  0  0  0  0  0  0  0
    1.4242   -1.1199    1.6064 H   0  0  0  0  0  0  0  0  0  0  0  0
    2.8856   -1.8699   -0.6349 H   0  0  0  0  0  0  0  0  0  0  0  0
    5.4809    2.3357   -0.4199 H   0  0  0  0  0  0  0  0  0  0  0  0
    3.3859    3.4884   -0.1806 H   0  0  0  0  0  0  0  0  0  0  0  0
    1.9257    2.6904    0.0813 H   0  0  0  0  0  0  0  0  0  0  0  0
  1 14  1  0  0  0  0
  1  3  2  0  0  0  0
  2  1  1  0  0  0  0
  3 16  1  0  0  0  0
  4  5  2  0  0  0  0
  4  8  1  0  0  0  0
  5  9  1  0  0  0  0
  6  2  2  0  0  0  0
  6 10  1  0  0  0  0
  7  3  1  0  0  0  0
  7 20  1  0  0  0  0
  8 11  2  0  0  0  0
  9 22  1  0  0  0  0
  9 12  2  0  0  0  0
 10  7  2  0  0  0  0
 11 12  1  0  0  0  0
 11 10  1  0  0  0  0
 12 13  1  0  0  0  0
 15  2  1  0  0  0  0
 17  4  1  0  0  0  0
 18  5  1  0  0  0  0
 19  6  1  0  0  0  0
 21  8  1  0  0  0  0
 23 13  1  0  0  0  0
 24 13  1  0  0  0  0
M  END
>  <HBA>
1

>  <HBD>
1

>  <TPSA>
26.02

>  <cid>
7015

>  <dipole>
1.57

>  <excitation_energy_1>
4.133

>  <excitation_energy_2>
4.434

>  <excitation_energy_3>
4.691

>  <excitation_energy_4>
4.887

>  <homo_energy>
-5.276

>  <homo_lumo_gap>
4.92

>  <logP>
3.517

>  <lumo_energy>
-0.356

>  <melting_point>
90.75

>  <molecular_refractivity>
56.28

>  <oscillator_strength_1>
0.0661

>  <oscillator_strength_2>
0.0141

>  <oscillator_strength_3>
0.01

>  <oscillator_strength_4>
0.0039

>  <open_babel_can_smiles>
Nc1ccccc1c1ccccc1

>  <mulliken_charges>
24
1   -0.127178
2   -0.132224
3   -0.13218
4   -0.141703
5   -0.131056
6   -0.186212
7   -0.15767
8   -0.177937
9   -0.177907
10   0.055844
11   0.038544
12   0.274551
13   -0.801494
14   0.129908
15   0.130247
16   0.13171
17   0.120747
18   0.123958
19   0.133264
20   0.137075
21   0.128267
22   0.114736
23   0.318117
24   0.328591

>  <lowdin_charges>
24
1   -0.157546
2   -0.158528
3   -0.15352
4   -0.189466
5   -0.144116
6   -0.17571
7   -0.159563
8   -0.151021
9   -0.200993
10   -0.000938
11   -0.048293
12   0.059833
13   -0.489984
14   0.156191
15   0.159208
16   0.159459
17   0.155321
18   0.153869
19   0.158735
20   0.163804
21   0.158199
22   0.151672
23   0.27639
24   0.276998

$$$$

