PCCDB-ID:  19228
public computational chemistry database (PCCDB) project, http://pccdb.org

 32 32  0  0  0  0  0  0  0  0999 V2000
    1.6792    0.3749   -3.5928 C   0  0  0  0  0  0  0  0  0  0  0  0
    0.7209   -1.3238   -0.5137 C   0  0  0  0  0  0  0  0  0  0  0  0
    1.5459    1.2024   -2.3114 C   0  0  0  0  0  0  0  0  0  0  0  0
    1.3568    0.0074   -0.1047 C   0  0  0  0  0  0  0  0  0  0  0  0
    5.7920   -3.5558    3.2546 C   0  0  0  0  0  0  0  0  0  0  0  0
    4.8714   -4.0997    2.3520 C   0  0  0  0  0  0  0  0  0  0  0  0
    6.1260   -2.2076    3.1553 C   0  0  0  0  0  0  0  0  0  0  0  0
    4.2936   -3.3059    1.3677 C   0  0  0  0  0  0  0  0  0  0  0  0
    5.5532   -1.3948    2.1711 C   0  0  0  0  0  0  0  0  0  0  0  0
    4.3127    0.1330    0.1269 C   0  0  0  0  0  0  0  0  0  0  0  0
    4.6321   -1.9484    1.2755 C   0  0  0  0  0  0  0  0  0  0  0  0
    3.5650    0.7218   -1.0764 C   0  0  0  0  0  0  0  0  0  0  0  0
    2.2058    0.6010   -1.1411 N   0  0  0  0  0  0  0  0  0  0  0  0
    4.2117    1.3206   -1.9335 O   0  0  0  0  0  0  0  0  0  0  0  0
    4.0042   -1.2490    0.2757 O   0  0  0  0  0  0  0  0  0  0  0  0
    1.1689    0.8831   -4.4196 H   0  0  0  0  0  0  0  0  0  0  0  0
    1.2376   -0.6206   -3.4786 H   0  0  0  0  0  0  0  0  0  0  0  0
    2.7332    0.2630   -3.8585 H   0  0  0  0  0  0  0  0  0  0  0  0
    0.1092   -1.7148    0.3078 H   0  0  0  0  0  0  0  0  0  0  0  0
    1.4979   -2.0563   -0.7498 H   0  0  0  0  0  0  0  0  0  0  0  0
    0.0723   -1.2092   -1.3887 H   0  0  0  0  0  0  0  0  0  0  0  0
    0.4911    1.3382   -2.0498 H   0  0  0  0  0  0  0  0  0  0  0  0
    1.9842    2.1920   -2.4716 H   0  0  0  0  0  0  0  0  0  0  0  0
    1.9501   -0.1395    0.7974 H   0  0  0  0  0  0  0  0  0  0  0  0
    0.5727    0.7360    0.1433 H   0  0  0  0  0  0  0  0  0  0  0  0
    6.2428   -4.1785    4.0217 H   0  0  0  0  0  0  0  0  0  0  0  0
    4.6015   -5.1506    2.4150 H   0  0  0  0  0  0  0  0  0  0  0  0
    6.8424   -1.7712    3.8464 H   0  0  0  0  0  0  0  0  0  0  0  0
    3.5800   -3.7138    0.6584 H   0  0  0  0  0  0  0  0  0  0  0  0
    5.8325   -0.3490    2.1127 H   0  0  0  0  0  0  0  0  0  0  0  0
    4.0601    0.6848    1.0457 H   0  0  0  0  0  0  0  0  0  0  0  0
    5.3763    0.2761   -0.0853 H   0  0  0  0  0  0  0  0  0  0  0  0
  1 17  1  0  0  0  0
  1  3  1  0  0  0  0
  2  4  1  0  0  0  0
  2 19  1  0  0  0  0
  3 22  1  0  0  0  0
  3 13  1  0  0  0  0
  4 25  1  0  0  0  0
  4 24  1  0  0  0  0
  5 26  1  0  0  0  0
  6 27  1  0  0  0  0
  6  5  2  0  0  0  0
  7  5  1  0  0  0  0
  7 28  1  0  0  0  0
  8  6  1  0  0  0  0
  9  7  2  0  0  0  0
 10 15  1  0  0  0  0
 10 31  1  0  0  0  0
 11  8  2  0  0  0  0
 11  9  1  0  0  0  0
 12 10  1  0  0  0  0
 13 12  1  0  0  0  0
 13  4  1  0  0  0  0
 14 12  2  0  0  0  0
 15 11  1  0  0  0  0
 16  1  1  0  0  0  0
 18  1  1  0  0  0  0
 20  2  1  0  0  0  0
 21  2  1  0  0  0  0
 23  3  1  0  0  0  0
 29  8  1  0  0  0  0
 30  9  1  0  0  0  0
 32 10  1  0  0  0  0
M  END
>  <HBA>
3

>  <HBD>
0

>  <TPSA>
29.54

>  <cid>
19228

>  <dipole>
3.15

>  <excitation_energy_1>
5.066

>  <excitation_energy_2>
5.344

>  <excitation_energy_3>
5.613

>  <excitation_energy_4>
5.636

>  <homo_energy>
-6.079

>  <homo_lumo_gap>
5.989

>  <logP>
1.934

>  <lumo_energy>
-0.09

>  <melting_point>
29.13

>  <molecular_refractivity>
60.06

>  <oscillator_strength_1>
0.029

>  <oscillator_strength_2>
0.0034

>  <oscillator_strength_3>
0.0057

>  <oscillator_strength_4>
0.0266

>  <open_babel_can_smiles>
CCN(C(=O)COc1ccccc1)CC

>  <mulliken_charges>
32
1   -0.447887
2   -0.445699
3   -0.136933
4   -0.144015
5   -0.131195
6   -0.133399
7   -0.138928
8   -0.177198
9   -0.191276
10   -0.141302
11   0.379356
12   0.57559
13   -0.396093
14   -0.517728
15   -0.525903
16   0.14268
17   0.14588
18   0.183853
19   0.146394
20   0.171413
21   0.151053
22   0.136761
23   0.173799
24   0.168685
25   0.145651
26   0.127997
27   0.132299
28   0.132592
29   0.139038
30   0.139524
31   0.152583
32   0.182406

>  <lowdin_charges>
32
1   -0.451517
2   -0.455498
3   -0.189426
4   -0.195599
5   -0.177677
6   -0.144056
7   -0.145713
8   -0.183895
9   -0.212024
10   -0.152282
11   0.100983
12   0.148823
13   -0.095341
14   -0.313545
15   -0.204043
16   0.153654
17   0.147799
18   0.16745
19   0.155538
20   0.161889
21   0.151302
22   0.14344
23   0.16277
24   0.162507
25   0.144063
26   0.159261
27   0.157957
28   0.160177
29   0.166448
30   0.162903
31   0.147853
32   0.165799

$$$$

