PCCDB-ID:  6395
public computational chemistry database (PCCDB) project, http://pccdb.org

  9  8  0  0  0  0  0  0  0  0999 V2000
    1.0288    0.0130   -0.0306 C   0  0  0  0  0  0  0  0  0  0  0  0
    3.0227   -0.7897   -1.5025 O   0  0  0  0  0  0  0  0  0  0  0  0
    3.2639    1.4453   -0.4023 O   0  0  0  0  0  0  0  0  0  0  0  0
    3.3758   -0.6687    1.0012 O   0  0  0  0  0  0  0  0  0  0  0  0
    2.8199    0.0816   -0.1157 S   0  0  0  0  0  0  0  0  0  0  0  0
    0.6138    0.5124   -0.9067 H   0  0  0  0  0  0  0  0  0  0  0  0
    0.7350    0.5297    0.8854 H   0  0  0  0  0  0  0  0  0  0  0  0
    0.7223   -1.0335    0.0093 H   0  0  0  0  0  0  0  0  0  0  0  0
    3.6940   -0.3149   -2.0288 H   0  0  0  0  0  0  0  0  0  0  0  0
  1  8  1  0  0  0  0
  1  7  1  0  0  0  0
  2  5  1  0  0  0  0
  3  5  1  0  0  0  0
  5  1  1  0  0  0  0
  5  4  1  0  0  0  0
  6  1  1  0  0  0  0
  9  2  1  0  0  0  0
M  RAD  2   3   2   4   2
M  END
>  <HBA>
3

>  <HBD>
1

>  <TPSA>
62.75

>  <cid>
6395

>  <dipole>
3.24

>  <excitation_energy_1>
7.13

>  <excitation_energy_2>
7.694

>  <excitation_energy_3>
7.793

>  <excitation_energy_4>
7.982

>  <homo_energy>
-8.362

>  <homo_lumo_gap>
9.146

>  <logP>
0.585

>  <lumo_energy>
0.784

>  <melting_point>
57.74

>  <molecular_refractivity>
17.46

>  <oscillator_strength_1>
0.0037

>  <oscillator_strength_2>
0.0058

>  <oscillator_strength_3>
0.0992

>  <oscillator_strength_4>
0.0087

>  <open_babel_can_smiles>
CS(O)([O])[O]

>  <mulliken_charges>
9
1   -0.631304
2   -0.646317
3   -0.516386
4   -0.477819
5   1.171697
6   0.215257
7   0.220925
8   0.222696
9   0.441251

>  <lowdin_charges>
9
1   -0.588074
2   -0.591556
3   -0.584621
4   -0.560612
5   1.341685
6   0.198185
7   0.20097
8   0.200581
9   0.383442

$$$$

