PCCDB-ID:  18107
public computational chemistry database (PCCDB) project, http://pccdb.org

 39 39  0  0  1  0  0  0  0  0999 V2000
    0.9015    0.2318   -0.1241 C   0  0  0  0  0  0  0  0  0  0  0  0
    3.7053   -3.9570   -3.2376 C   0  0  0  0  0  0  0  0  0  0  0  0
    2.9977   -4.8064   -1.1133 C   0  0  0  0  0  0  0  0  0  0  0  0
    2.4319    0.3176   -0.1205 C   0  0  0  0  0  0  0  0  0  0  0  0
    1.8307    3.5764   -3.9469 C   0  0  0  0  0  0  0  0  0  0  0  0
    2.6902    3.7502   -2.8595 C   0  0  0  0  0  0  0  0  0  0  0  0
    1.3877    2.2953   -4.2681 C   0  0  0  0  0  0  0  0  0  0  0  0
    3.0936    2.6519   -2.1038 C   0  0  0  0  0  0  0  0  0  0  0  0
    1.7943    1.1940   -3.5082 C   0  0  0  0  0  0  0  0  0  0  0  0
    2.8015   -1.2014   -2.1664 C   0  0  0  0  0  0  0  0  0  0  0  0
    3.2983   -2.4273   -1.3860 C   0  0  0  0  0  0  0  0  0  0  0  0
    2.6514    1.3514   -2.4095 C   0  0  0  0  0  0  0  0  0  0  0  0
    4.6543    0.2839   -1.3717 C   0  0  0  0  0  0  0  0  0  0  0  0
    3.1133    0.1788   -1.5131 C   0  0  1  0  0  0  0  0  0  0  0  0
    5.3653    0.2670   -0.3200 N   0  0  0  0  0  0  0  0  0  0  0  0
    2.9177   -3.6837   -2.0402 N   0  0  0  0  0  0  0  0  0  0  0  0
    5.3221    0.3517   -2.5593 O   0  0  0  0  0  0  0  0  0  0  0  0
    0.5175    0.3944    0.8889 H   0  0  0  0  0  0  0  0  0  0  0  0
    0.5451   -0.7497   -0.4546 H   0  0  0  0  0  0  0  0  0  0  0  0
    0.4562    0.9899   -0.7763 H   0  0  0  0  0  0  0  0  0  0  0  0
    3.3547   -4.8873   -3.6972 H   0  0  0  0  0  0  0  0  0  0  0  0
    4.7882   -4.0626   -3.0293 H   0  0  0  0  0  0  0  0  0  0  0  0
    3.5801   -3.1584   -3.9743 H   0  0  0  0  0  0  0  0  0  0  0  0
    2.6524   -5.7185   -1.6125 H   0  0  0  0  0  0  0  0  0  0  0  0
    2.3459   -4.6250   -0.2517 H   0  0  0  0  0  0  0  0  0  0  0  0
    4.0224   -4.9940   -0.7357 H   0  0  0  0  0  0  0  0  0  0  0  0
    2.8235   -0.4551    0.5523 H   0  0  0  0  0  0  0  0  0  0  0  0
    2.7333    1.2796    0.3112 H   0  0  0  0  0  0  0  0  0  0  0  0
    1.5145    4.4310   -4.5387 H   0  0  0  0  0  0  0  0  0  0  0  0
    3.0509    4.7419   -2.6003 H   0  0  0  0  0  0  0  0  0  0  0  0
    0.7204    2.1442   -5.1126 H   0  0  0  0  0  0  0  0  0  0  0  0
    3.7756    2.8012   -1.2703 H   0  0  0  0  0  0  0  0  0  0  0  0
    1.4280    0.2107   -3.7819 H   0  0  0  0  0  0  0  0  0  0  0  0
    1.7213   -1.3132   -2.3012 H   0  0  0  0  0  0  0  0  0  0  0  0
    3.2393   -1.2118   -3.1703 H   0  0  0  0  0  0  0  0  0  0  0  0
    2.8332   -2.4324   -0.3940 H   0  0  0  0  0  0  0  0  0  0  0  0
    4.3905   -2.3654   -1.2223 H   0  0  0  0  0  0  0  0  0  0  0  0
    4.7797    0.1725    0.5085 H   0  0  0  0  0  0  0  0  0  0  0  0
    4.6920    0.5903   -3.2593 H   0  0  0  0  0  0  0  0  0  0  0  0
  1  4  1  0  0  0  0
  1 18  1  0  0  0  0
  2 22  1  0  0  0  0
  2 16  1  0  0  0  0
  3 26  1  0  0  0  0
  3 25  1  0  0  0  0
  4 28  1  0  0  0  0
  4 27  1  0  0  0  0
  5  6  1  0  0  0  0
  6 30  1  0  0  0  0
  6  8  2  0  0  0  0
  7  5  2  0  0  0  0
  7  9  1  0  0  0  0
  8 32  1  0  0  0  0
  9 12  2  0  0  0  0
 10 14  1  0  0  0  0
 10 11  1  0  0  0  0
 11 37  1  0  0  0  0
 11 36  1  0  0  0  0
 12  8  1  0  0  0  0
 12 14  1  0  0  0  0
 13 15  2  0  0  0  0
 14 13  1  1  0  0  0
 14  4  1  0  0  0  0
 15 38  1  0  0  0  0
 16 11  1  0  0  0  0
 16  3  1  0  0  0  0
 17 13  1  0  0  0  0
 19  1  1  0  0  0  0
 20  1  1  0  0  0  0
 21  2  1  0  0  0  0
 23  2  1  0  0  0  0
 24  3  1  0  0  0  0
 29  5  1  0  0  0  0
 31  7  1  0  0  0  0
 33  9  1  0  0  0  0
 34 10  1  0  0  0  0
 35 10  1  0  0  0  0
 39 17  1  0  0  0  0
M  END
>  <HBA>
3

>  <HBD>
1

>  <TPSA>
46.33

>  <cid>
18107

>  <dipole>
3.76

>  <excitation_energy_1>
4.725

>  <excitation_energy_2>
4.854

>  <excitation_energy_3>
5.213

>  <excitation_energy_4>
5.28

>  <homo_energy>
-5.774

>  <homo_lumo_gap>
5.325

>  <logP>
2.472

>  <lumo_energy>
-0.449

>  <melting_point>
87.72

>  <molecular_refractivity>
70.74

>  <oscillator_strength_1>
0.0001

>  <oscillator_strength_2>
0.0003

>  <oscillator_strength_3>
0.0024

>  <oscillator_strength_4>
0.0

>  <open_babel_can_smiles>
CC[C@@](c1ccccc1)(C(=N)O)CCN(C)C

>  <mulliken_charges>
39
1   -0.460003
2   -0.302479
3   -0.294828
4   -0.292041
5   -0.12519
6   -0.132668
7   -0.132516
8   -0.168437
9   -0.187138
10   -0.294197
11   -0.131351
12   0.075304
13   0.488283
14   -0.044596
15   -0.607807
16   -0.37565
17   -0.589564
18   0.149398
19   0.153131
20   0.161784
21   0.148592
22   0.126312
23   0.149603
24   0.147883
25   0.146889
26   0.121997
27   0.143665
28   0.149195
29   0.135516
30   0.138638
31   0.135442
32   0.152236
33   0.138685
34   0.160454
35   0.134221
36   0.135822
37   0.143446
38   0.290917
39   0.411051

>  <lowdin_charges>
39
1   -0.449338
2   -0.356988
3   -0.356447
4   -0.278672
5   -0.155068
6   -0.150844
7   -0.153755
8   -0.161471
9   -0.175416
10   -0.280917
11   -0.20332
12   -0.025196
13   0.12405
14   -0.024784
15   -0.400647
16   -0.186233
17   -0.367573
18   0.154677
19   0.151012
20   0.159009
21   0.150835
22   0.122812
23   0.148895
24   0.149839
25   0.148538
26   0.121749
27   0.145436
28   0.149882
29   0.161652
30   0.161595
31   0.16051
32   0.167131
33   0.163197
34   0.153027
35   0.143093
36   0.143529
37   0.132526
38   0.257719
39   0.355956

$$$$

