PCCDB-ID:  16667
public computational chemistry database (PCCDB) project, http://pccdb.org

 23 24  0  0  0  0  0  0  0  0999 V2000
    2.0317    0.0137   -1.1013 C   0  0  0  0  0  0  0  0  0  0  0  0
    5.1484   -2.1288    4.2172 C   0  0  0  0  0  0  0  0  0  0  0  0
    4.8448   -2.7804    3.0010 C   0  0  0  0  0  0  0  0  0  0  0  0
    3.3141    2.0178    2.4726 C   0  0  0  0  0  0  0  0  0  0  0  0
    4.8422   -0.7958    4.3757 C   0  0  0  0  0  0  0  0  0  0  0  0
    3.9198    1.3297    3.4956 C   0  0  0  0  0  0  0  0  0  0  0  0
    4.2233   -2.0910    1.9809 C   0  0  0  0  0  0  0  0  0  0  0  0
    2.9386    1.3682    1.2750 C   0  0  0  0  0  0  0  0  0  0  0  0
    4.2082   -0.0540    3.3433 C   0  0  0  0  0  0  0  0  0  0  0  0
    3.8680   -0.7236    2.1226 C   0  0  0  0  0  0  0  0  0  0  0  0
    3.1899    0.0162    1.0853 C   0  0  0  0  0  0  0  0  0  0  0  0
    2.8394   -0.6452   -0.0918 N   0  0  0  0  0  0  0  0  0  0  0  0
    1.8336   -0.6976   -1.9076 H   0  0  0  0  0  0  0  0  0  0  0  0
    2.5797    0.8601   -1.5297 H   0  0  0  0  0  0  0  0  0  0  0  0
    1.0677    0.3902   -0.7205 H   0  0  0  0  0  0  0  0  0  0  0  0
    5.6350   -2.6776    5.0191 H   0  0  0  0  0  0  0  0  0  0  0  0
    5.1120   -3.8248    2.8646 H   0  0  0  0  0  0  0  0  0  0  0  0
    3.0963    3.0772    2.5818 H   0  0  0  0  0  0  0  0  0  0  0  0
    5.0894   -0.2824    5.3021 H   0  0  0  0  0  0  0  0  0  0  0  0
    4.1911    1.8275    4.4227 H   0  0  0  0  0  0  0  0  0  0  0  0
    4.0419   -2.6021    1.0400 H   0  0  0  0  0  0  0  0  0  0  0  0
    2.4333    1.9408    0.5055 H   0  0  0  0  0  0  0  0  0  0  0  0
    2.5862   -1.6135    0.0504 H   0  0  0  0  0  0  0  0  0  0  0  0
  1 15  1  0  0  0  0
  1 12  1  0  0  0  0
  2  5  1  0  0  0  0
  2 16  1  0  0  0  0
  3  2  2  0  0  0  0
  4 18  1  0  0  0  0
  4  6  2  0  0  0  0
  5 19  1  0  0  0  0
  6 20  1  0  0  0  0
  7 10  2  0  0  0  0
  7  3  1  0  0  0  0
  8  4  1  0  0  0  0
  9  6  1  0  0  0  0
  9  5  2  0  0  0  0
 10  9  1  0  0  0  0
 11  8  2  0  0  0  0
 11 10  1  0  0  0  0
 12 23  1  0  0  0  0
 12 11  1  0  0  0  0
 13  1  1  0  0  0  0
 14  1  1  0  0  0  0
 17  3  1  0  0  0  0
 21  7  1  0  0  0  0
 22  8  1  0  0  0  0
M  END
>  <HBA>
1

>  <HBD>
1

>  <TPSA>
12.03

>  <cid>
16667

>  <dipole>
1.71

>  <excitation_energy_1>
3.752

>  <excitation_energy_2>
4.172

>  <excitation_energy_3>
4.523

>  <excitation_energy_4>
4.894

>  <homo_energy>
-5.01

>  <homo_lumo_gap>
4.329

>  <logP>
2.954

>  <lumo_energy>
-0.68

>  <melting_point>
83.21

>  <molecular_refractivity>
53.25

>  <oscillator_strength_1>
0.0963

>  <oscillator_strength_2>
0.0388

>  <oscillator_strength_3>
0.0021

>  <oscillator_strength_4>
0.005

>  <open_babel_can_smiles>
CNc1cccc2c1cccc2

>  <mulliken_charges>
23
1   -0.304234
2   -0.132113
3   -0.135751
4   -0.14168
5   -0.198352
6   -0.196618
7   -0.199655
8   -0.199884
9   0.128757
10   0.084044
11   0.281995
12   -0.639048
13   0.154803
14   0.167485
15   0.146619
16   0.126712
17   0.125213
18   0.123665
19   0.127301
20   0.119567
21   0.121629
22   0.121444
23   0.318099

>  <lowdin_charges>
23
1   -0.355524
2   -0.161479
3   -0.160472
4   -0.145925
5   -0.156245
6   -0.188845
7   -0.166127
8   -0.221609
9   0.007123
10   -0.025472
11   0.054129
12   -0.296006
13   0.158175
14   0.156983
15   0.13704
16   0.158288
17   0.154986
18   0.154227
19   0.156746
20   0.15457
21   0.153631
22   0.159455
23   0.272352

$$$$

