PCCDB-ID:  19141
public computational chemistry database (PCCDB) project, http://pccdb.org

 23 23  0  0  0  0  0  0  0  0999 V2000
    0.9263    0.3640   -1.2753 C   0  0  0  0  0  0  0  0  0  0  0  0
    4.0517   -1.1886    0.3456 C   0  0  0  0  0  0  0  0  0  0  0  0
    4.4039    1.1996    0.0379 C   0  0  0  0  0  0  0  0  0  0  0  0
    2.2785    0.1926   -0.6238 C   0  0  0  0  0  0  0  0  0  0  0  0
    4.8433   -0.0524    0.4457 C   0  0  0  0  0  0  0  0  0  0  0  0
    2.7621   -1.0559   -0.1832 C   0  0  0  0  0  0  0  0  0  0  0  0
    3.1200    1.3299   -0.5073 C   0  0  0  0  0  0  0  0  0  0  0  0
    1.9320   -2.3046   -0.2829 C   0  0  0  0  0  0  0  0  0  0  0  0
    2.6996    2.5611   -0.9971 N   0  0  0  0  0  0  0  0  0  0  0  0
    2.2412   -3.3747   -0.8907 N   0  0  0  0  0  0  0  0  0  0  0  0
    6.1975   -0.1724    1.0128 N   0  0  0  0  0  0  0  0  0  0  0  0
    0.7245   -2.2699    0.3566 O   0  0  0  0  0  0  0  0  0  0  0  0
    6.5716   -1.2893    1.3664 O   0  0  0  0  0  0  0  0  0  0  0  0
    6.8742    0.8526    1.0984 O   0  0  0  0  0  0  0  0  0  0  0  0
    0.4055   -0.5839   -1.4122 H   0  0  0  0  0  0  0  0  0  0  0  0
    1.0382    0.8385   -2.2585 H   0  0  0  0  0  0  0  0  0  0  0  0
    0.2668    1.0156   -0.6817 H   0  0  0  0  0  0  0  0  0  0  0  0
    4.4249   -2.1463    0.6847 H   0  0  0  0  0  0  0  0  0  0  0  0
    5.0634    2.0539    0.1377 H   0  0  0  0  0  0  0  0  0  0  0  0
    3.2373    3.3607   -0.6890 H   0  0  0  0  0  0  0  0  0  0  0  0
    1.7046    2.7393   -0.9902 H   0  0  0  0  0  0  0  0  0  0  0  0
    3.1392   -3.2600   -1.3625 H   0  0  0  0  0  0  0  0  0  0  0  0
    0.6941   -1.4842    0.9241 H   0  0  0  0  0  0  0  0  0  0  0  0
  1 17  1  0  0  0  0
  1  4  1  0  0  0  0
  2  5  1  0  0  0  0
  2 18  1  0  0  0  0
  3 19  1  0  0  0  0
  3  5  2  0  0  0  0
  4  7  2  0  0  0  0
  4  6  1  0  0  0  0
  5 11  1  0  0  0  0
  6  2  2  0  0  0  0
  7  3  1  0  0  0  0
  8  6  1  0  0  0  0
  8 12  1  0  0  0  0
  9 21  1  0  0  0  0
  9 20  1  0  0  0  0
  9  7  1  0  0  0  0
 10  8  2  0  0  0  0
 11 14  2  0  0  0  0
 11 13  2  0  0  0  0
 12 23  1  0  0  0  0
 15  1  1  0  0  0  0
 16  1  1  0  0  0  0
 22 10  1  0  0  0  0
M  END
>  <HBA>
3

>  <HBD>
2

>  <TPSA>
114.93

>  <cid>
19141

>  <dipole>
6.87

>  <excitation_energy_1>
3.223

>  <excitation_energy_2>
3.741

>  <excitation_energy_3>
4.061

>  <excitation_energy_4>
4.275

>  <homo_energy>
-6.463

>  <homo_lumo_gap>
3.935

>  <logP>
2.389

>  <lumo_energy>
-2.528

>  <melting_point>
187.92

>  <molecular_refractivity>
52.73

>  <oscillator_strength_1>
0.0398

>  <oscillator_strength_2>
0.0

>  <oscillator_strength_3>
0.0477

>  <oscillator_strength_4>
0.013

>  <open_babel_can_smiles>
OC(=N)c1cc(cc(c1C)N)N(=O)=O

>  <mulliken_charges>
23
1   -0.580226
2   -0.205209
3   -0.201623
4   0.135448
5   0.276659
6   -0.042908
7   0.267174
8   0.40414
9   -0.796909
10   -0.56461
11   0.378419
12   -0.568433
13   -0.389801
14   -0.396128
15   0.202211
16   0.185448
17   0.155951
18   0.189857
19   0.175406
20   0.33536
21   0.334072
22   0.295656
23   0.410047

>  <lowdin_charges>
23
1   -0.459332
2   -0.169161
3   -0.181051
4   -0.02357
5   0.010192
6   -0.050528
7   0.061032
8   0.123899
9   -0.475555
10   -0.374993
11   0.310041
12   -0.360653
13   -0.240394
14   -0.248135
15   0.18186
16   0.171554
17   0.156703
18   0.192555
19   0.185461
20   0.285601
21   0.282031
22   0.264174
23   0.358268

$$$$

