PCCDB-ID:  16702
public computational chemistry database (PCCDB) project, http://pccdb.org

 15 15  0  0  0  0  0  0  0  0999 V2000
   -0.7529    1.1698   -0.0059 C   0  0  0  0  0  0  0  0  0  0  0  0
   -1.4018   -0.0629   -0.0416 C   0  0  0  0  0  0  0  0  0  0  0  0
    0.6369    1.2484    0.0127 C   0  0  0  0  0  0  0  0  0  0  0  0
    0.7771   -1.1628   -0.0399 C   0  0  0  0  0  0  0  0  0  0  0  0
   -1.2622   -2.5151   -0.1000 C   0  0  0  0  0  0  0  0  0  0  0  0
   -0.6227   -1.2307   -0.0586 C   0  0  0  0  0  0  0  0  0  0  0  0
    1.4238    0.0815   -0.0038 C   0  0  0  0  0  0  0  0  0  0  0  0
   -1.7809   -3.5558   -0.1354 N   0  0  0  0  0  0  0  0  0  0  0  0
    2.8120    0.1579    0.0735 N   0  0  0  0  0  0  0  0  0  0  0  0
   -1.3382    2.0848    0.0060 H   0  0  0  0  0  0  0  0  0  0  0  0
   -2.4838   -0.1296   -0.0579 H   0  0  0  0  0  0  0  0  0  0  0  0
    1.1257    2.2194    0.0440 H   0  0  0  0  0  0  0  0  0  0  0  0
    1.3588   -2.0798   -0.0503 H   0  0  0  0  0  0  0  0  0  0  0  0
    3.2203    1.0258   -0.2492 H   0  0  0  0  0  0  0  0  0  0  0  0
    3.3155   -0.6489   -0.2725 H   0  0  0  0  0  0  0  0  0  0  0  0
  1 10  1  0  0  0  0
  1  3  2  0  0  0  0
  2  1  1  0  0  0  0
  3 12  1  0  0  0  0
  4  7  2  0  0  0  0
  5  6  1  0  0  0  0
  6  2  2  0  0  0  0
  6  4  1  0  0  0  0
  7  3  1  0  0  0  0
  7  9  1  0  0  0  0
  8  5  3  0  0  0  0
 11  2  1  0  0  0  0
 13  4  1  0  0  0  0
 14  9  1  0  0  0  0
 15  9  1  0  0  0  0
M  END
>  <HBA>
2

>  <HBD>
1

>  <TPSA>
49.81

>  <cid>
16702

>  <dipole>
5.62

>  <excitation_energy_1>
4.232

>  <excitation_energy_2>
5.046

>  <excitation_energy_3>
5.254

>  <excitation_energy_4>
5.76

>  <homo_energy>
-6.06

>  <homo_lumo_gap>
4.876

>  <logP>
1.722

>  <lumo_energy>
-1.184

>  <melting_point>
91.21

>  <molecular_refractivity>
35.56

>  <oscillator_strength_1>
0.059

>  <oscillator_strength_2>
0.0086

>  <oscillator_strength_3>
0.0407

>  <oscillator_strength_4>
0.037

>  <open_babel_can_smiles>
N#Cc1cccc(c1)N

>  <mulliken_charges>
15
1   -0.138044
2   -0.148026
3   -0.161214
4   -0.1908
5   0.235439
6   0.129186
7   0.322969
8   -0.48287
9   -0.791383
10   0.142328
11   0.151686
12   0.129913
13   0.14551
14   0.326863
15   0.328444

>  <lowdin_charges>
15
1   -0.139973
2   -0.162415
3   -0.184108
4   -0.180599
5   -0.011095
6   -0.009468
7   0.068129
8   -0.123414
9   -0.483418
10   0.165564
11   0.170097
12   0.159184
13   0.16893
14   0.280635
15   0.28195

$$$$

