PCCDB-ID:  12860
public computational chemistry database (PCCDB) project, http://pccdb.org

 39 39  0  0  0  0  0  0  0  0999 V2000
    1.4209   -1.2192   -0.1028 C   0  0  0  0  0  0  0  0  0  0  0  0
    3.7515   -0.7249    0.7759 C   0  0  0  0  0  0  0  0  0  0  0  0
    4.5065    4.1983   -3.7054 C   0  0  0  0  0  0  0  0  0  0  0  0
    2.1671    3.7719   -4.5966 C   0  0  0  0  0  0  0  0  0  0  0  0
    3.5863   -1.3211   -5.9035 C   0  0  0  0  0  0  0  0  0  0  0  0
    5.9289   -0.9053   -5.0171 C   0  0  0  0  0  0  0  0  0  0  0  0
    2.8792    1.6193   -1.7957 C   0  0  0  0  0  0  0  0  0  0  0  0
    3.5109   -0.6254   -2.3693 C   0  0  0  0  0  0  0  0  0  0  0  0
    3.7833    1.1478   -3.9722 C   0  0  0  0  0  0  0  0  0  0  0  0
    2.5620   -0.1866   -0.0416 C   0  0  0  0  0  0  0  0  0  0  0  0
    3.1376    3.5518   -3.4210 C   0  0  0  0  0  0  0  0  0  0  0  0
    4.4666   -1.2148   -4.6441 C   0  0  0  0  0  0  0  0  0  0  0  0
    2.9912    0.2744   -1.4292 C   0  0  0  0  0  0  0  0  0  0  0  0
    3.2702    2.0768   -3.0604 C   0  0  0  0  0  0  0  0  0  0  0  0
    3.9095   -0.2087   -3.6437 C   0  0  0  0  0  0  0  0  0  0  0  0
    1.0882   -1.4885    0.9069 H   0  0  0  0  0  0  0  0  0  0  0  0
    1.7430   -2.1405   -0.6026 H   0  0  0  0  0  0  0  0  0  0  0  0
    0.5596   -0.8252   -0.6531 H   0  0  0  0  0  0  0  0  0  0  0  0
    3.4332   -1.0002    1.7887 H   0  0  0  0  0  0  0  0  0  0  0  0
    4.5460    0.0248    0.8590 H   0  0  0  0  0  0  0  0  0  0  0  0
    4.1839   -1.6178    0.3087 H   0  0  0  0  0  0  0  0  0  0  0  0
    4.3953    5.2718   -3.9004 H   0  0  0  0  0  0  0  0  0  0  0  0
    4.9842    3.7487   -4.5840 H   0  0  0  0  0  0  0  0  0  0  0  0
    5.1870    4.0735   -2.8561 H   0  0  0  0  0  0  0  0  0  0  0  0
    2.0442    4.8420   -4.8031 H   0  0  0  0  0  0  0  0  0  0  0  0
    1.1798    3.3501   -4.3790 H   0  0  0  0  0  0  0  0  0  0  0  0
    2.5375    3.2968   -5.5129 H   0  0  0  0  0  0  0  0  0  0  0  0
    3.9728   -2.0904   -6.5829 H   0  0  0  0  0  0  0  0  0  0  0  0
    3.5630   -0.3732   -6.4542 H   0  0  0  0  0  0  0  0  0  0  0  0
    2.5541   -1.5809   -5.6443 H   0  0  0  0  0  0  0  0  0  0  0  0
    6.3285   -1.6743   -5.6893 H   0  0  0  0  0  0  0  0  0  0  0  0
    6.5650   -0.8654   -4.1262 H   0  0  0  0  0  0  0  0  0  0  0  0
    6.0128    0.0604   -5.5300 H   0  0  0  0  0  0  0  0  0  0  0  0
    2.4755    2.3318   -1.0777 H   0  0  0  0  0  0  0  0  0  0  0  0
    3.6093   -1.6777   -2.1092 H   0  0  0  0  0  0  0  0  0  0  0  0
    4.0920    1.4861   -4.9589 H   0  0  0  0  0  0  0  0  0  0  0  0
    2.1760    0.6974    0.4845 H   0  0  0  0  0  0  0  0  0  0  0  0
    2.7113    4.0593   -2.5447 H   0  0  0  0  0  0  0  0  0  0  0  0
    4.4547   -2.1971   -4.1522 H   0  0  0  0  0  0  0  0  0  0  0  0
  1 10  1  0  0  0  0
  1 16  1  0  0  0  0
  2 20  1  0  0  0  0
  2 19  1  0  0  0  0
  3 11  1  0  0  0  0
  3 24  1  0  0  0  0
  4 26  1  0  0  0  0
  4 11  1  0  0  0  0
  5 30  1  0  0  0  0
  5 12  1  0  0  0  0
  6 12  1  0  0  0  0
  6 32  1  0  0  0  0
  7 13  1  0  0  0  0
  7 34  1  0  0  0  0
  8 35  1  0  0  0  0
  8 13  2  0  0  0  0
  9 15  2  0  0  0  0
  9 14  1  0  0  0  0
 10 37  1  0  0  0  0
 10  2  1  0  0  0  0
 11 14  1  0  0  0  0
 11 38  1  0  0  0  0
 12 39  1  0  0  0  0
 12 15  1  0  0  0  0
 13 10  1  0  0  0  0
 14  7  2  0  0  0  0
 15  8  1  0  0  0  0
 17  1  1  0  0  0  0
 18  1  1  0  0  0  0
 21  2  1  0  0  0  0
 22  3  1  0  0  0  0
 23  3  1  0  0  0  0
 25  4  1  0  0  0  0
 27  4  1  0  0  0  0
 28  5  1  0  0  0  0
 29  5  1  0  0  0  0
 31  6  1  0  0  0  0
 33  6  1  0  0  0  0
 36  9  1  0  0  0  0
M  END
>  <HBA>
0

>  <HBD>
0

>  <TPSA>
0.0

>  <cid>
12860

>  <dipole>
0.03

>  <excitation_energy_1>
5.169

>  <excitation_energy_2>
5.74

>  <excitation_energy_3>
5.745

>  <excitation_energy_4>
5.806

>  <homo_energy>
-6.18

>  <homo_lumo_gap>
6.365

>  <logP>
5.057

>  <lumo_energy>
0.185

>  <melting_point>
12.84

>  <molecular_refractivity>
70.18

>  <oscillator_strength_1>
0.0003

>  <oscillator_strength_2>
0.0016

>  <oscillator_strength_3>
0.0

>  <oscillator_strength_4>
0.0

>  <open_babel_can_smiles>
CC(c1cc(cc(c1)C(C)C)C(C)C)C

>  <mulliken_charges>
39
1   -0.438447
2   -0.437636
3   -0.43792
4   -0.438216
5   -0.438022
6   -0.43789
7   -0.282423
8   -0.269263
9   -0.256542
10   -0.160075
11   -0.158457
12   -0.158245
13   0.207761
14   0.201839
15   0.19632
16   0.139264
17   0.142929
18   0.148542
19   0.139181
20   0.148349
21   0.143004
22   0.139244
23   0.14229
24   0.1487
25   0.139277
26   0.148639
27   0.142357
28   0.139278
29   0.142386
30   0.148753
31   0.139307
32   0.14868
33   0.142364
34   0.112552
35   0.11461
36   0.117136
37   0.12712
38   0.126928
39   0.126327

>  <lowdin_charges>
39
1   -0.442035
2   -0.441889
3   -0.441135
4   -0.439868
5   -0.441594
6   -0.443027
7   -0.190142
8   -0.183064
9   -0.17965
10   -0.118386
11   -0.118409
12   -0.117493
13   0.002039
14   0.002487
15   0.003242
16   0.146778
17   0.14727
18   0.152922
19   0.146438
20   0.15274
21   0.147746
22   0.145579
23   0.14747
24   0.152848
25   0.145755
26   0.151805
27   0.147112
28   0.148316
29   0.146811
30   0.151309
31   0.14838
32   0.15269
33   0.146625
34   0.150085
35   0.147636
36   0.148947
37   0.14171
38   0.141696
39   0.140252

$$$$

