PCCDB-ID:  111
public computational chemistry database (PCCDB) project, http://pccdb.org

 17 16  0  0  0  0  0  0  0  0999 V2000
    1.1926   -0.0572    0.1712 C   0  0  0  0  0  0  0  0  0  0  0  0
    0.3977    0.7073   -0.9013 C   0  0  0  0  0  0  0  0  0  0  0  0
    2.6215   -0.3408   -0.2705 C   0  0  0  0  0  0  0  0  0  0  0  0
   -1.9119   -0.0461   -0.4275 C   0  0  0  0  0  0  0  0  0  0  0  0
   -1.9005   -1.2390   -0.8903 N   0  0  0  0  0  0  0  0  0  0  0  0
   -0.9819    0.9641   -0.5305 N   0  0  0  0  0  0  0  0  0  0  0  0
    3.0919    0.0246   -1.3187 O   0  0  0  0  0  0  0  0  0  0  0  0
    3.3810   -1.0474    0.6096 O   0  0  0  0  0  0  0  0  0  0  0  0
   -2.9899    0.3883    0.2792 O   0  0  0  0  0  0  0  0  0  0  0  0
    0.6833   -1.0024    0.4036 H   0  0  0  0  0  0  0  0  0  0  0  0
    1.2179    0.5195    1.1068 H   0  0  0  0  0  0  0  0  0  0  0  0
    0.4214    0.1490   -1.8422 H   0  0  0  0  0  0  0  0  0  0  0  0
    0.8795    1.6650   -1.1116 H   0  0  0  0  0  0  0  0  0  0  0  0
   -1.0624   -1.4392   -1.4336 H   0  0  0  0  0  0  0  0  0  0  0  0
   -1.1650    1.7633    0.0615 H   0  0  0  0  0  0  0  0  0  0  0  0
    2.8558   -1.2835    1.3926 H   0  0  0  0  0  0  0  0  0  0  0  0
   -3.6212   -0.3520    0.2505 H   0  0  0  0  0  0  0  0  0  0  0  0
  1 10  1  0  0  0  0
  1 11  1  0  0  0  0
  2  6  1  0  0  0  0
  2  1  1  0  0  0  0
  3  1  1  0  0  0  0
  3  8  1  0  0  0  0
  4  9  1  0  0  0  0
  5  4  2  0  0  0  0
  6  4  1  0  0  0  0
  6 15  1  0  0  0  0
  7  3  2  0  0  0  0
  8 16  1  0  0  0  0
 12  2  1  0  0  0  0
 13  2  1  0  0  0  0
 14  5  1  0  0  0  0
 17  9  1  0  0  0  0
M  END
>  <HBA>
5

>  <HBD>
3

>  <TPSA>
92.42

>  <cid>
111

>  <dipole>
3.56

>  <excitation_energy_1>
5.516

>  <excitation_energy_2>
5.621

>  <excitation_energy_3>
5.829

>  <excitation_energy_4>
5.893

>  <homo_energy>
-6.493

>  <homo_lumo_gap>
6.49

>  <logP>
0.221

>  <lumo_energy>
-0.003

>  <melting_point>
165.08

>  <molecular_refractivity>
29.21

>  <oscillator_strength_1>
0.0054

>  <oscillator_strength_2>
0.0012

>  <oscillator_strength_3>
0.0008

>  <oscillator_strength_4>
0.0113

>  <open_babel_can_smiles>
OC(=O)CCNC(=N)O

>  <mulliken_charges>
17
1   -0.412674
2   -0.149473
3   0.614431
4   0.636301
5   -0.661712
6   -0.585613
7   -0.437123
8   -0.56486
9   -0.606197
10   0.184462
11   0.170584
12   0.180731
13   0.178419
14   0.28287
15   0.336081
16   0.411771
17   0.422002

>  <lowdin_charges>
17
1   -0.340125
2   -0.193403
3   0.195226
4   0.158759
5   -0.49622
6   -0.297173
7   -0.236252
8   -0.353617
9   -0.383245
10   0.171519
11   0.165189
12   0.163332
13   0.168578
14   0.257439
15   0.289791
16   0.360856
17   0.369348

$$$$

