PCCDB-ID:  15280
public computational chemistry database (PCCDB) project, http://pccdb.org

 23 22  0  0  0  0  0  0  0  0999 V2000
    2.1954    0.9561   -0.0392 C   0  0  0  0  0  0  0  0  0  0  0  0
    6.8172    0.7064   -0.0451 C   0  0  0  0  0  0  0  0  0  0  0  0
    6.1475   -1.0232   -4.1428 C   0  0  0  0  0  0  0  0  0  0  0  0
    3.3721    0.9647   -1.0195 C   0  0  0  0  0  0  0  0  0  0  0  0
    4.2481   -0.2844   -0.8667 C   0  0  0  0  0  0  0  0  0  0  0  0
    6.6439    0.1903   -1.4672 C   0  0  0  0  0  0  0  0  0  0  0  0
    5.0701   -0.8628   -3.0952 C   0  0  0  0  0  0  0  0  0  0  0  0
    5.3840   -0.3270   -1.8141 N   0  0  0  0  0  0  0  0  0  0  0  0
    7.5799    0.2278   -2.2481 O   0  0  0  0  0  0  0  0  0  0  0  0
    3.9195   -1.2013   -3.3194 O   0  0  0  0  0  0  0  0  0  0  0  0
    1.5748    1.8502   -0.1615 H   0  0  0  0  0  0  0  0  0  0  0  0
    2.5395    0.9306    1.0024 H   0  0  0  0  0  0  0  0  0  0  0  0
    1.5530    0.0820   -0.1994 H   0  0  0  0  0  0  0  0  0  0  0  0
    6.7555   -0.1098    0.6840 H   0  0  0  0  0  0  0  0  0  0  0  0
    6.0683    1.4561    0.2272 H   0  0  0  0  0  0  0  0  0  0  0  0
    7.8113    1.1513    0.0107 H   0  0  0  0  0  0  0  0  0  0  0  0
    7.0006   -1.5926   -3.7672 H   0  0  0  0  0  0  0  0  0  0  0  0
    6.5428   -0.0536   -4.4557 H   0  0  0  0  0  0  0  0  0  0  0  0
    5.6848   -1.5341   -4.9894 H   0  0  0  0  0  0  0  0  0  0  0  0
    3.9806    1.8665   -0.8667 H   0  0  0  0  0  0  0  0  0  0  0  0
    3.0021    1.0011   -2.0494 H   0  0  0  0  0  0  0  0  0  0  0  0
    3.6465   -1.1741   -1.0576 H   0  0  0  0  0  0  0  0  0  0  0  0
    4.6391   -0.3612    0.1491 H   0  0  0  0  0  0  0  0  0  0  0  0
  1 12  1  0  0  0  0
  2 16  1  0  0  0  0
  2 15  1  0  0  0  0
  2 14  1  0  0  0  0
  3 17  1  0  0  0  0
  3  7  1  0  0  0  0
  4 20  1  0  0  0  0
  4  5  1  0  0  0  0
  4  1  1  0  0  0  0
  5 23  1  0  0  0  0
  6  2  1  0  0  0  0
  7  8  1  0  0  0  0
  8  6  1  0  0  0  0
  8  5  1  0  0  0  0
  9  6  2  0  0  0  0
 10  7  2  0  0  0  0
 11  1  1  0  0  0  0
 13  1  1  0  0  0  0
 18  3  1  0  0  0  0
 19  3  1  0  0  0  0
 21  4  1  0  0  0  0
 22  5  1  0  0  0  0
M  END
>  <HBA>
3

>  <HBD>
0

>  <TPSA>
37.38

>  <cid>
15280

>  <dipole>
2.86

>  <excitation_energy_1>
4.825

>  <excitation_energy_2>
5.093

>  <excitation_energy_3>
6.108

>  <excitation_energy_4>
6.509

>  <homo_energy>
-7.021

>  <homo_lumo_gap>
6.422

>  <logP>
0.791

>  <lumo_energy>
-0.599

>  <melting_point>
18.19

>  <molecular_refractivity>
39.06

>  <oscillator_strength_1>
0.0012

>  <oscillator_strength_2>
0.0009

>  <oscillator_strength_3>
0.2167

>  <oscillator_strength_4>
0.0148

>  <open_babel_can_smiles>
CCCN(C(=O)C)C(=O)C

>  <mulliken_charges>
23
1   -0.449923
2   -0.553422
3   -0.500618
4   -0.258535
5   -0.148044
6   0.579938
7   0.577971
8   -0.478479
9   -0.474217
10   -0.476881
11   0.153051
12   0.140706
13   0.155536
14   0.181513
15   0.17827
16   0.192286
17   0.184468
18   0.190723
19   0.168549
20   0.133417
21   0.169997
22   0.18538
23   0.148314

>  <lowdin_charges>
23
1   -0.443546
2   -0.475298
3   -0.463484
4   -0.280923
5   -0.203589
6   0.180787
7   0.192798
8   -0.102057
9   -0.270396
10   -0.271511
11   0.156652
12   0.144484
13   0.154065
14   0.17426
15   0.171875
16   0.18051
17   0.180765
18   0.183573
19   0.169158
20   0.139088
21   0.158881
22   0.172534
23   0.151371

$$$$

