PCCDB-ID:  62375
public computational chemistry database (PCCDB) project, http://pccdb.org

 23 23  0  0  0  0  0  0  0  0999 V2000
    2.7272    0.3220   -0.8988 C   0  0  0  0  0  0  0  0  0  0  0  0
    5.0098    0.8384    2.3386 C   0  0  0  0  0  0  0  0  0  0  0  0
    1.3765   -2.1907    4.7489 C   0  0  0  0  0  0  0  0  0  0  0  0
    2.2425   -2.7770    3.8203 C   0  0  0  0  0  0  0  0  0  0  0  0
    1.0132   -0.8513    4.6104 C   0  0  0  0  0  0  0  0  0  0  0  0
    2.7432   -2.0260    2.7592 C   0  0  0  0  0  0  0  0  0  0  0  0
    1.5149   -0.1003    3.5443 C   0  0  0  0  0  0  0  0  0  0  0  0
    2.3775   -0.6820    2.6131 C   0  0  0  0  0  0  0  0  0  0  0  0
    2.9230    0.1201    1.4484 C   0  0  0  0  0  0  0  0  0  0  0  0
    2.4050   -0.4202    0.2712 O   0  0  0  0  0  0  0  0  0  0  0  0
    4.3414    0.0552    1.3672 O   0  0  0  0  0  0  0  0  0  0  0  0
    2.2066   -0.1661   -1.7258 H   0  0  0  0  0  0  0  0  0  0  0  0
    3.8052    0.3246   -1.0908 H   0  0  0  0  0  0  0  0  0  0  0  0
    2.3752    1.3622   -0.8165 H   0  0  0  0  0  0  0  0  0  0  0  0
    6.0790    0.7540    2.1295 H   0  0  0  0  0  0  0  0  0  0  0  0
    4.8147    0.4823    3.3599 H   0  0  0  0  0  0  0  0  0  0  0  0
    4.7162    1.8987    2.2759 H   0  0  0  0  0  0  0  0  0  0  0  0
    0.9905   -2.7768    5.5788 H   0  0  0  0  0  0  0  0  0  0  0  0
    2.5279   -3.8203    3.9273 H   0  0  0  0  0  0  0  0  0  0  0  0
    0.3422   -0.3897    5.3301 H   0  0  0  0  0  0  0  0  0  0  0  0
    3.4196   -2.4702    2.0354 H   0  0  0  0  0  0  0  0  0  0  0  0
    1.2301    0.9441    3.4349 H   0  0  0  0  0  0  0  0  0  0  0  0
    2.6273    1.1846    1.5472 H   0  0  0  0  0  0  0  0  0  0  0  0
  1 14  1  0  0  0  0
  1 10  1  0  0  0  0
  2 16  1  0  0  0  0
  3 18  1  0  0  0  0
  4 19  1  0  0  0  0
  4  3  2  0  0  0  0
  5  3  1  0  0  0  0
  5 20  1  0  0  0  0
  6  4  1  0  0  0  0
  7  5  2  0  0  0  0
  8  6  2  0  0  0  0
  8  7  1  0  0  0  0
  9 23  1  0  0  0  0
  9  8  1  0  0  0  0
 10  9  1  0  0  0  0
 11  9  1  0  0  0  0
 11  2  1  0  0  0  0
 12  1  1  0  0  0  0
 13  1  1  0  0  0  0
 15  2  1  0  0  0  0
 17  2  1  0  0  0  0
 21  6  1  0  0  0  0
 22  7  1  0  0  0  0
M  END
>  <HBA>
2

>  <HBD>
0

>  <TPSA>
18.46

>  <cid>
62375

>  <dipole>
1.6

>  <excitation_energy_1>
5.324

>  <excitation_energy_2>
5.816

>  <excitation_energy_3>
6.095

>  <excitation_energy_4>
6.197

>  <homo_energy>
-6.602

>  <homo_lumo_gap>
6.493

>  <logP>
1.978

>  <lumo_energy>
-0.109

>  <melting_point>
-12.08

>  <molecular_refractivity>
43.19

>  <oscillator_strength_1>
0.0009

>  <oscillator_strength_2>
0.0348

>  <oscillator_strength_3>
0.0002

>  <oscillator_strength_4>
0.0181

>  <open_babel_can_smiles>
COC(c1ccccc1)OC

>  <mulliken_charges>
23
1   -0.201782
2   -0.206436
3   -0.125322
4   -0.133894
5   -0.132082
6   -0.154455
7   -0.18389
8   0.137663
9   0.303535
10   -0.469512
11   -0.47415
12   0.159128
13   0.160135
14   0.127006
15   0.160719
16   0.1471
17   0.129222
18   0.129399
19   0.130923
20   0.129115
21   0.148741
22   0.126215
23   0.092622

>  <lowdin_charges>
23
1   -0.280451
2   -0.279393
3   -0.155225
4   -0.154172
5   -0.158965
6   -0.143305
7   -0.161786
8   -0.024247
9   0.10657
10   -0.243607
11   -0.271804
12   0.157508
13   0.146739
14   0.131049
15   0.155383
16   0.139635
17   0.129761
18   0.158452
19   0.156662
20   0.158605
21   0.169632
22   0.153559
23   0.109399

$$$$

