PCCDB-ID:  66647
public computational chemistry database (PCCDB) project, http://pccdb.org

 19 18  0  0  0  0  0  0  0  0999 V2000
    4.1158    0.3243   -0.7238 C   0  0  0  0  0  0  0  0  0  0  0  0
    1.6084    2.5074    3.9686 C   0  0  0  0  0  0  0  0  0  0  0  0
   -0.3950    1.9999    1.0469 C   0  0  0  0  0  0  0  0  0  0  0  0
    2.4806    1.3731    0.6048 C   0  0  0  0  0  0  0  0  0  0  0  0
    1.7323    1.2956    1.9458 C   0  0  0  0  0  0  0  0  0  0  0  0
    2.2885    2.2012   -0.2565 O   0  0  0  0  0  0  0  0  0  0  0  0
    3.3693    0.3651    0.5055 O   0  0  0  0  0  0  0  0  0  0  0  0
    1.9990    2.5062    2.5991 O   0  0  0  0  0  0  0  0  0  0  0  0
    0.3643    1.0268    1.7750 O   0  0  0  0  0  0  0  0  0  0  0  0
    4.7839   -0.5320   -0.6318 H   0  0  0  0  0  0  0  0  0  0  0  0
    4.6857    1.2478   -0.8545 H   0  0  0  0  0  0  0  0  0  0  0  0
    3.4415    0.1984   -1.5750 H   0  0  0  0  0  0  0  0  0  0  0  0
    1.8806    3.4872    4.3667 H   0  0  0  0  0  0  0  0  0  0  0  0
    2.1407    1.7265    4.5316 H   0  0  0  0  0  0  0  0  0  0  0  0
    0.5292    2.3520    4.0806 H   0  0  0  0  0  0  0  0  0  0  0  0
   -1.4420    1.7860    1.2749 H   0  0  0  0  0  0  0  0  0  0  0  0
   -0.2265    1.9149   -0.0313 H   0  0  0  0  0  0  0  0  0  0  0  0
   -0.1455    3.0165    1.3652 H   0  0  0  0  0  0  0  0  0  0  0  0
    2.1067    0.4419    2.5242 H   0  0  0  0  0  0  0  0  0  0  0  0
  1 10  1  0  0  0  0
  1  7  1  0  0  0  0
  2 15  1  0  0  0  0
  2 13  1  0  0  0  0
  2 14  1  0  0  0  0
  3 16  1  0  0  0  0
  3 18  1  0  0  0  0
  3  9  1  0  0  0  0
  4  5  1  0  0  0  0
  5 19  1  0  0  0  0
  5  8  1  0  0  0  0
  6  4  2  0  0  0  0
  7  4  1  0  0  0  0
  8  2  1  0  0  0  0
  9  5  1  0  0  0  0
 11  1  1  0  0  0  0
 12  1  1  0  0  0  0
 17  3  1  0  0  0  0
M  END
>  <HBA>
4

>  <HBD>
0

>  <TPSA>
44.76

>  <cid>
66647

>  <dipole>
1.33

>  <excitation_energy_1>
5.405

>  <excitation_energy_2>
6.441

>  <excitation_energy_3>
6.675

>  <excitation_energy_4>
6.732

>  <homo_energy>
-6.98

>  <homo_lumo_gap>
7.007

>  <logP>
-0.222

>  <lumo_energy>
0.027

>  <melting_point>
-31.36

>  <molecular_refractivity>
29.6

>  <oscillator_strength_1>
0.0057

>  <oscillator_strength_2>
0.0222

>  <oscillator_strength_3>
0.0084

>  <oscillator_strength_4>
0.0159

>  <open_babel_can_smiles>
COC(=O)C(OC)OC

>  <mulliken_charges>
19
1   -0.223269
2   -0.208799
3   -0.218457
4   0.604948
5   0.294098
6   -0.469461
7   -0.447555
8   -0.462884
9   -0.473304
10   0.168137
11   0.175844
12   0.17346
13   0.165691
14   0.13944
15   0.157216
16   0.15153
17   0.162312
18   0.162645
19   0.14841

>  <lowdin_charges>
19
1   -0.279957
2   -0.280064
3   -0.283874
4   0.181881
5   0.07285
6   -0.248609
7   -0.182751
8   -0.251401
9   -0.259947
10   0.163141
11   0.162826
12   0.162031
13   0.159939
14   0.140009
15   0.145331
16   0.151142
17   0.148314
18   0.151111
19   0.148029

$$$$

