PCCDB-ID:  8188
public computational chemistry database (PCCDB) project, http://pccdb.org

 34 33  0  0  0  0  0  0  0  0999 V2000
    3.6127    7.3810    2.5090 C   0  0  0  0  0  0  0  0  0  0  0  0
    0.3073    5.8768   -0.1597 C   0  0  0  0  0  0  0  0  0  0  0  0
    4.0091    8.7729    2.0020 C   0  0  0  0  0  0  0  0  0  0  0  0
    0.4234    5.9464   -1.6880 C   0  0  0  0  0  0  0  0  0  0  0  0
    5.4419    8.8790    1.4488 C   0  0  0  0  0  0  0  0  0  0  0  0
    1.7472    5.4078   -2.2538 C   0  0  0  0  0  0  0  0  0  0  0  0
    5.6616    8.3266    0.0421 C   0  0  0  0  0  0  0  0  0  0  0  0
    2.9672    6.2454   -1.8852 C   0  0  0  0  0  0  0  0  0  0  0  0
    6.0435    6.2543   -1.0959 C   0  0  0  0  0  0  0  0  0  0  0  0
    5.2988    6.4089   -2.4253 C   0  0  0  0  0  0  0  0  0  0  0  0
    5.4707    6.9175    0.0220 O   0  0  0  0  0  0  0  0  0  0  0  0
    4.1016    5.6622   -2.5191 O   0  0  0  0  0  0  0  0  0  0  0  0
    2.5888    7.3857    2.9018 H   0  0  0  0  0  0  0  0  0  0  0  0
    4.2773    7.0591    3.3205 H   0  0  0  0  0  0  0  0  0  0  0  0
    3.6790    6.6327    1.7155 H   0  0  0  0  0  0  0  0  0  0  0  0
   -0.6822    6.2095    0.1744 H   0  0  0  0  0  0  0  0  0  0  0  0
    1.0514    6.5068    0.3404 H   0  0  0  0  0  0  0  0  0  0  0  0
    0.4513    4.8498    0.1985 H   0  0  0  0  0  0  0  0  0  0  0  0
    3.9063    9.4907    2.8272 H   0  0  0  0  0  0  0  0  0  0  0  0
    3.3011    9.1031    1.2276 H   0  0  0  0  0  0  0  0  0  0  0  0
    0.2800    6.9848   -2.0204 H   0  0  0  0  0  0  0  0  0  0  0  0
   -0.3999    5.3724   -2.1328 H   0  0  0  0  0  0  0  0  0  0  0  0
    6.1448    8.3860    2.1339 H   0  0  0  0  0  0  0  0  0  0  0  0
    5.7317    9.9386    1.4122 H   0  0  0  0  0  0  0  0  0  0  0  0
    1.6900    5.3620   -3.3487 H   0  0  0  0  0  0  0  0  0  0  0  0
    1.9108    4.3787   -1.9066 H   0  0  0  0  0  0  0  0  0  0  0  0
    6.6891    8.5612   -0.2847 H   0  0  0  0  0  0  0  0  0  0  0  0
    4.9754    8.8235   -0.6635 H   0  0  0  0  0  0  0  0  0  0  0  0
    3.1144    6.2868   -0.7992 H   0  0  0  0  0  0  0  0  0  0  0  0
    2.8348    7.2833   -2.2406 H   0  0  0  0  0  0  0  0  0  0  0  0
    7.0848    6.5954   -1.2366 H   0  0  0  0  0  0  0  0  0  0  0  0
    6.0649    5.1913   -0.8332 H   0  0  0  0  0  0  0  0  0  0  0  0
    5.9531    6.0201   -3.2162 H   0  0  0  0  0  0  0  0  0  0  0  0
    5.1123    7.4732   -2.6466 H   0  0  0  0  0  0  0  0  0  0  0  0
  1 13  1  0  0  0  0
  1 14  1  0  0  0  0
  2 16  1  0  0  0  0
  2 18  1  0  0  0  0
  2 17  1  0  0  0  0
  3  1  1  0  0  0  0
  3 19  1  0  0  0  0
  4  2  1  0  0  0  0
  5  3  1  0  0  0  0
  5 23  1  0  0  0  0
  6 26  1  0  0  0  0
  6  8  1  0  0  0  0
  6  4  1  0  0  0  0
  7  5  1  0  0  0  0
  8 29  1  0  0  0  0
  9 32  1  0  0  0  0
  9 11  1  0  0  0  0
 10  9  1  0  0  0  0
 11  7  1  0  0  0  0
 12 10  1  0  0  0  0
 12  8  1  0  0  0  0
 15  1  1  0  0  0  0
 20  3  1  0  0  0  0
 21  4  1  0  0  0  0
 22  4  1  0  0  0  0
 24  5  1  0  0  0  0
 25  6  1  0  0  0  0
 27  7  1  0  0  0  0
 28  7  1  0  0  0  0
 30  8  1  0  0  0  0
 31  9  1  0  0  0  0
 33 10  1  0  0  0  0
 34 10  1  0  0  0  0
M  END
>  <HBA>
2

>  <HBD>
0

>  <TPSA>
18.46

>  <cid>
8188

>  <dipole>
1.63

>  <excitation_energy_1>
5.873

>  <excitation_energy_2>
6.211

>  <excitation_energy_3>
6.32

>  <excitation_energy_4>
6.339

>  <homo_energy>
-6.291

>  <homo_lumo_gap>
8.283

>  <logP>
2.62

>  <lumo_energy>
1.992

>  <melting_point>
-47.12

>  <molecular_refractivity>
52.35

>  <oscillator_strength_1>
0.0262

>  <oscillator_strength_2>
0.0162

>  <oscillator_strength_3>
0.0009

>  <oscillator_strength_4>
0.0061

>  <open_babel_can_smiles>
CCCCOCCOCCCC

>  <mulliken_charges>
34
1   -0.448933
2   -0.448733
3   -0.248784
4   -0.258165
5   -0.268007
6   -0.265547
7   -0.016805
8   -0.024713
9   -0.035273
10   -0.038933
11   -0.464864
12   -0.475968
13   0.134262
14   0.137309
15   0.178015
16   0.141624
17   0.151951
18   0.144122
19   0.13131
20   0.127597
21   0.129398
22   0.135956
23   0.142129
24   0.130033
25   0.139955
26   0.140795
27   0.116005
28   0.12087
29   0.154437
30   0.106585
31   0.113929
32   0.155577
33   0.140204
34   0.122665

>  <lowdin_charges>
34
1   -0.452232
2   -0.449244
3   -0.272972
4   -0.272702
5   -0.281777
6   -0.279228
7   -0.131469
8   -0.131011
9   -0.146435
10   -0.148928
11   -0.272926
12   -0.274036
13   0.143891
14   0.146116
15   0.159971
16   0.149168
17   0.150185
18   0.146946
19   0.141855
20   0.13855
21   0.137062
22   0.145615
23   0.148737
24   0.145838
25   0.145626
26   0.145142
27   0.126242
28   0.125793
29   0.137296
30   0.118883
31   0.127541
32   0.153365
33   0.151015
34   0.128123

$$$$

