PCCDB-ID:  8765
public computational chemistry database (PCCDB) project, http://pccdb.org

 27 28  0  0  0  0  0  0  0  0999 V2000
    0.7917    0.8380    0.0381 C   0  0  0  0  0  0  0  0  0  0  0  0
   -0.4367    1.1215   -2.0206 C   0  0  0  0  0  0  0  0  0  0  0  0
   -5.4355   -0.2535    0.4710 C   0  0  0  0  0  0  0  0  0  0  0  0
   -5.8568   -2.0627   -1.0703 C   0  0  0  0  0  0  0  0  0  0  0  0
    0.0169   -0.2793    0.3408 C   0  0  0  0  0  0  0  0  0  0  0  0
   -1.1917   -0.0073   -1.7254 C   0  0  0  0  0  0  0  0  0  0  0  0
   -4.0926   -0.6086    0.5204 C   0  0  0  0  0  0  0  0  0  0  0  0
   -4.5056   -2.3994   -1.0366 C   0  0  0  0  0  0  0  0  0  0  0  0
    0.5736    1.5609   -1.1455 C   0  0  0  0  0  0  0  0  0  0  0  0
   -6.3436   -0.9799   -0.3209 C   0  0  0  0  0  0  0  0  0  0  0  0
   -0.9822   -0.7188   -0.5357 C   0  0  0  0  0  0  0  0  0  0  0  0
   -3.6062   -1.6818   -0.2392 C   0  0  0  0  0  0  0  0  0  0  0  0
    1.3772    2.6550   -1.4775 N   0  0  0  0  0  0  0  0  0  0  0  0
   -7.6844   -0.5929   -0.4057 N   0  0  0  0  0  0  0  0  0  0  0  0
   -1.8944   -2.2160   -0.1490 S   0  0  0  0  0  0  0  0  0  0  0  0
    1.5678    1.1609    0.7289 H   0  0  0  0  0  0  0  0  0  0  0  0
   -0.6149    1.6634   -2.9471 H   0  0  0  0  0  0  0  0  0  0  0  0
   -5.7929    0.5904    1.0576 H   0  0  0  0  0  0  0  0  0  0  0  0
   -6.5400   -2.6313   -1.6977 H   0  0  0  0  0  0  0  0  0  0  0  0
    0.1866   -0.8144    1.2708 H   0  0  0  0  0  0  0  0  0  0  0  0
   -1.9606   -0.3346   -2.4190 H   0  0  0  0  0  0  0  0  0  0  0  0
   -3.4117   -0.0439    1.1505 H   0  0  0  0  0  0  0  0  0  0  0  0
   -4.1445   -3.2307   -1.6354 H   0  0  0  0  0  0  0  0  0  0  0  0
    1.8169    3.1161   -0.6905 H   0  0  0  0  0  0  0  0  0  0  0  0
    0.9488    3.3245   -2.1048 H   0  0  0  0  0  0  0  0  0  0  0  0
   -8.0292   -0.0777    0.3951 H   0  0  0  0  0  0  0  0  0  0  0  0
   -8.3242   -1.3325   -0.6691 H   0  0  0  0  0  0  0  0  0  0  0  0
  1  5  1  0  0  0  0
  1 16  1  0  0  0  0
  2  6  2  0  0  0  0
  2  9  1  0  0  0  0
  3  7  1  0  0  0  0
  3 18  1  0  0  0  0
  4  8  2  0  0  0  0
  4 10  1  0  0  0  0
  5 20  1  0  0  0  0
  6 11  1  0  0  0  0
  7 22  1  0  0  0  0
  8 12  1  0  0  0  0
  9  1  2  0  0  0  0
 10  3  2  0  0  0  0
 11 15  1  0  0  0  0
 11  5  2  0  0  0  0
 12 15  1  0  0  0  0
 12  7  2  0  0  0  0
 13  9  1  0  0  0  0
 13 24  1  0  0  0  0
 14 10  1  0  0  0  0
 14 26  1  0  0  0  0
 17  2  1  0  0  0  0
 19  4  1  0  0  0  0
 21  6  1  0  0  0  0
 23  8  1  0  0  0  0
 25 13  1  0  0  0  0
 27 14  1  0  0  0  0
M  END
>  <HBA>
3

>  <HBD>
2

>  <TPSA>
77.34

>  <cid>
8765

>  <dipole>
3.8

>  <excitation_energy_1>
4.045

>  <excitation_energy_2>
4.184

>  <excitation_energy_3>
4.315

>  <excitation_energy_4>
4.432

>  <homo_energy>
-4.939

>  <homo_lumo_gap>
4.931

>  <logP>
4.165

>  <lumo_energy>
-0.008

>  <melting_point>
147.51

>  <molecular_refractivity>
65.82

>  <oscillator_strength_1>
0.0166

>  <oscillator_strength_2>
0.0304

>  <oscillator_strength_3>
0.237

>  <oscillator_strength_4>
0.007

>  <open_babel_can_smiles>
Nc1ccc(cc1)Sc1ccc(cc1)N

>  <mulliken_charges>
27
1   -0.16386
2   -0.161788
3   -0.161765
4   -0.163982
5   -0.160426
6   -0.142661
7   -0.143453
8   -0.160569
9   0.305943
10   0.305027
11   -0.098461
12   -0.097547
13   -0.786062
14   -0.786119
15   0.088982
16   0.118079
17   0.119878
18   0.118279
19   0.118732
20   0.141676
21   0.144476
22   0.142298
23   0.142213
24   0.320112
25   0.320565
26   0.320018
27   0.320417

>  <lowdin_charges>
27
1   -0.202187
2   -0.197308
3   -0.197402
4   -0.20229
5   -0.150607
6   -0.141319
7   -0.143338
8   -0.151161
9   0.062796
10   0.061861
11   -0.155363
12   -0.15526
13   -0.489673
14   -0.489664
15   0.160424
16   0.154481
17   0.154285
18   0.154101
19   0.155294
20   0.165322
21   0.167725
22   0.167281
23   0.166232
24   0.276374
25   0.277129
26   0.275853
27   0.276414

$$$$

