PCCDB-ID:  16665
public computational chemistry database (PCCDB) project, http://pccdb.org

 29 28  0  0  1  0  0  0  0  0999 V2000
    1.5166   -0.5419   -3.1069 C   0  0  0  0  0  0  0  0  0  0  0  0
    6.9496    3.3583    2.0604 C   0  0  0  0  0  0  0  0  0  0  0  0
    4.8888    3.7688   -1.9884 C   0  0  0  0  0  0  0  0  0  0  0  0
    2.3461   -0.0532   -1.9153 C   0  0  0  0  0  0  0  0  0  0  0  0
    5.8704    3.2163    0.9809 C   0  0  0  0  0  0  0  0  0  0  0  0
    3.4262    0.9649   -2.3052 C   0  0  0  0  0  0  0  0  0  0  0  0
    6.4148    2.5881   -0.3114 C   0  0  0  0  0  0  0  0  0  0  0  0
    4.2676    1.4424   -1.1133 C   0  0  0  0  0  0  0  0  0  0  0  0
    5.4100    2.4157   -1.4742 C   0  0  1  0  0  0  0  0  0  0  0  0
    0.7554   -1.2664   -2.7954 H   0  0  0  0  0  0  0  0  0  0  0  0
    2.1507   -1.0281   -3.8588 H   0  0  0  0  0  0  0  0  0  0  0  0
    1.0009    0.2915   -3.5999 H   0  0  0  0  0  0  0  0  0  0  0  0
    6.5468    3.8131    2.9728 H   0  0  0  0  0  0  0  0  0  0  0  0
    7.7779    3.9876    1.7117 H   0  0  0  0  0  0  0  0  0  0  0  0
    7.3699    2.3820    2.3323 H   0  0  0  0  0  0  0  0  0  0  0  0
    5.7191    4.4535   -2.2004 H   0  0  0  0  0  0  0  0  0  0  0  0
    4.2360    4.2556   -1.2536 H   0  0  0  0  0  0  0  0  0  0  0  0
    4.3142    3.6551   -2.9136 H   0  0  0  0  0  0  0  0  0  0  0  0
    2.8207   -0.9136   -1.4218 H   0  0  0  0  0  0  0  0  0  0  0  0
    1.6795    0.3959   -1.1652 H   0  0  0  0  0  0  0  0  0  0  0  0
    5.4454    4.2058    0.7667 H   0  0  0  0  0  0  0  0  0  0  0  0
    5.0459    2.6073    1.3743 H   0  0  0  0  0  0  0  0  0  0  0  0
    2.9450    1.8230   -2.7944 H   0  0  0  0  0  0  0  0  0  0  0  0
    4.0887    0.5158   -3.0607 H   0  0  0  0  0  0  0  0  0  0  0  0
    6.8386    1.6020   -0.0690 H   0  0  0  0  0  0  0  0  0  0  0  0
    7.2574    3.1990   -0.6684 H   0  0  0  0  0  0  0  0  0  0  0  0
    4.7013    0.5608   -0.6175 H   0  0  0  0  0  0  0  0  0  0  0  0
    3.6038    1.9106   -0.3719 H   0  0  0  0  0  0  0  0  0  0  0  0
    5.9772    1.9528   -2.2971 H   0  0  0  0  0  0  0  0  0  0  0  0
  1 10  1  0  0  0  0
  1  4  1  0  0  0  0
  2 15  1  0  0  0  0
  2 13  1  0  0  0  0
  3  9  1  0  0  0  0
  3 17  1  0  0  0  0
  4 19  1  0  0  0  0
  4 20  1  0  0  0  0
  5 22  1  0  0  0  0
  5  2  1  0  0  0  0
  6  4  1  0  0  0  0
  6  8  1  0  0  0  0
  7 25  1  0  0  0  0
  7  5  1  0  0  0  0
  8 27  1  0  0  0  0
  8 28  1  0  0  0  0
  9 29  1  6  0  0  0
  9  8  1  0  0  0  0
  9  7  1  0  0  0  0
 11  1  1  0  0  0  0
 12  1  1  0  0  0  0
 14  2  1  0  0  0  0
 16  3  1  0  0  0  0
 18  3  1  0  0  0  0
 21  5  1  0  0  0  0
 23  6  1  0  0  0  0
 24  6  1  0  0  0  0
 26  7  1  0  0  0  0
M  END
>  <HBA>
0

>  <HBD>
0

>  <TPSA>
0.0

>  <cid>
16665

>  <dipole>
0.04

>  <excitation_energy_1>
7.614

>  <excitation_energy_2>
7.738

>  <excitation_energy_3>
7.907

>  <excitation_energy_4>
7.938

>  <homo_energy>
-8.008

>  <homo_lumo_gap>
10.338

>  <logP>
3.613

>  <lumo_energy>
2.329

>  <melting_point>
-28.56

>  <molecular_refractivity>
45.38

>  <oscillator_strength_1>
0.0128

>  <oscillator_strength_2>
0.0019

>  <oscillator_strength_3>
0.0062

>  <oscillator_strength_4>
0.0244

>  <open_babel_can_smiles>
CCCC[C@H](CCC)C

>  <mulliken_charges>
29
1   -0.441134
2   -0.441362
3   -0.453384
4   -0.24703
5   -0.254367
6   -0.25248
7   -0.252587
8   -0.254349
9   -0.067438
10   0.140972
11   0.140799
12   0.140649
13   0.140201
14   0.140557
15   0.140577
16   0.138268
17   0.141671
18   0.144263
19   0.129352
20   0.12968
21   0.13397
22   0.135254
23   0.130857
24   0.125137
25   0.12297
26   0.122283
27   0.123242
28   0.12775
29   0.115679

>  <lowdin_charges>
29
1   -0.447429
2   -0.444395
3   -0.451378
4   -0.274077
5   -0.277598
6   -0.278416
7   -0.276993
8   -0.279146
9   -0.124869
10   0.149666
11   0.147122
12   0.146834
13   0.148625
14   0.14635
15   0.145428
16   0.148106
17   0.146929
18   0.149064
19   0.13898
20   0.139679
21   0.139959
22   0.141504
23   0.139644
24   0.137637
25   0.136816
26   0.137986
27   0.138626
28   0.138935
29   0.136411

$$$$

