PCCDB-ID:  15105
public computational chemistry database (PCCDB) project, http://pccdb.org

 23 22  0  0  0  0  0  0  0  0999 V2000
    2.5921   -0.1595    1.3706 C   0  0  0  0  0  0  0  0  0  0  0  0
    8.7294    1.2354   -2.5502 C   0  0  0  0  0  0  0  0  0  0  0  0
    8.5673   -1.0622   -3.5561 C   0  0  0  0  0  0  0  0  0  0  0  0
    2.0893    0.5646    0.3671 C   0  0  0  0  0  0  0  0  0  0  0  0
    4.1228    0.7669   -0.8425 C   0  0  0  0  0  0  0  0  0  0  0  0
    4.5864    1.4260   -2.1364 C   0  0  0  0  0  0  0  0  0  0  0  0
    7.9927    0.1908   -2.9492 C   0  0  0  0  0  0  0  0  0  0  0  0
    6.5046    0.1952   -2.8177 C   0  0  0  0  0  0  0  0  0  0  0  0
    5.7992   -0.7287   -3.1739 O   0  0  0  0  0  0  0  0  0  0  0  0
    2.7335    1.0506   -0.7275 O   0  0  0  0  0  0  0  0  0  0  0  0
    6.0164    1.3342   -2.2613 O   0  0  0  0  0  0  0  0  0  0  0  0
    1.9347   -0.4692    2.1747 H   0  0  0  0  0  0  0  0  0  0  0  0
    3.6300   -0.4656    1.4308 H   0  0  0  0  0  0  0  0  0  0  0  0
    9.8118    1.2264   -2.6484 H   0  0  0  0  0  0  0  0  0  0  0  0
    8.2772    2.1213   -2.1195 H   0  0  0  0  0  0  0  0  0  0  0  0
    9.6576   -1.0019   -3.6150 H   0  0  0  0  0  0  0  0  0  0  0  0
    8.1675   -1.2278   -4.5628 H   0  0  0  0  0  0  0  0  0  0  0  0
    8.2930   -1.9443   -2.9667 H   0  0  0  0  0  0  0  0  0  0  0  0
    1.0430    0.8554    0.3301 H   0  0  0  0  0  0  0  0  0  0  0  0
    4.6711    1.1798    0.0154 H   0  0  0  0  0  0  0  0  0  0  0  0
    4.2914   -0.3162   -0.8810 H   0  0  0  0  0  0  0  0  0  0  0  0
    4.3623    2.4946   -2.1187 H   0  0  0  0  0  0  0  0  0  0  0  0
    4.1048    0.9590   -2.9979 H   0  0  0  0  0  0  0  0  0  0  0  0
  1 13  1  0  0  0  0
  1 12  1  0  0  0  0
  2 15  1  0  0  0  0
  3 18  1  0  0  0  0
  3  7  1  0  0  0  0
  4  1  2  0  0  0  0
  5 10  1  0  0  0  0
  5 20  1  0  0  0  0
  6 22  1  0  0  0  0
  6  5  1  0  0  0  0
  7  8  1  0  0  0  0
  7  2  2  0  0  0  0
  8 11  1  0  0  0  0
  9  8  2  0  0  0  0
 10  4  1  0  0  0  0
 11  6  1  0  0  0  0
 14  2  1  0  0  0  0
 16  3  1  0  0  0  0
 17  3  1  0  0  0  0
 19  4  1  0  0  0  0
 21  5  1  0  0  0  0
 23  6  1  0  0  0  0
M  END
>  <HBA>
3

>  <HBD>
0

>  <TPSA>
35.53

>  <cid>
15105

>  <dipole>
1.98

>  <excitation_energy_1>
4.45

>  <excitation_energy_2>
4.827

>  <excitation_energy_3>
5.811

>  <excitation_energy_4>
5.976

>  <homo_energy>
-6.234

>  <homo_lumo_gap>
5.023

>  <logP>
1.266

>  <lumo_energy>
-1.211

>  <melting_point>
-62.18

>  <molecular_refractivity>
41.99

>  <oscillator_strength_1>
0.0

>  <oscillator_strength_2>
0.0001

>  <oscillator_strength_3>
0.2294

>  <oscillator_strength_4>
0.0432

>  <open_babel_can_smiles>
C=COCCOC(=O)C(=C)C

>  <mulliken_charges>
23
1   -0.399055
2   -0.367647
3   -0.50032
4   0.158664
5   -0.049599
6   -0.063518
7   0.125792
8   0.593097
9   -0.481037
10   -0.455939
11   -0.482208
12   0.143942
13   0.144435
14   0.15073
15   0.173492
16   0.148708
17   0.174653
18   0.173379
19   0.144558
20   0.149184
21   0.168625
22   0.166959
23   0.183105

>  <lowdin_charges>
23
1   -0.425155
2   -0.297359
3   -0.432845
4   -0.032478
5   -0.136669
6   -0.132363
7   -0.027871
8   0.196057
9   -0.266043
10   -0.199035
11   -0.19277
12   0.170811
13   0.161801
14   0.162439
15   0.1762
16   0.154396
17   0.168926
18   0.169425
19   0.158051
20   0.145385
21   0.152813
22   0.159136
23   0.167148

$$$$

