PCCDB-ID:  15073
public computational chemistry database (PCCDB) project, http://pccdb.org

 12 12  0  0  0  0  0  0  0  0999 V2000
    0.9321   -0.0225   -0.0527 C   0  0  0  0  0  0  0  0  0  0  0  0
    3.2666   -1.2242   -0.0466 C   0  0  0  0  0  0  0  0  0  0  0  0
    4.5568   -0.7321   -0.0483 C   0  0  0  0  0  0  0  0  0  0  0  0
    2.4326   -0.0774   -0.0512 C   0  0  0  0  0  0  0  0  0  0  0  0
    4.4397    0.6199   -0.0542 N   0  0  0  0  0  0  0  0  0  0  0  0
    3.1570    1.0456   -0.0558 N   0  0  0  0  0  0  0  0  0  0  0  0
    0.5087   -1.0313   -0.0602 H   0  0  0  0  0  0  0  0  0  0  0  0
    0.5549    0.5113   -0.9322 H   0  0  0  0  0  0  0  0  0  0  0  0
    0.5520    0.4989    0.8331 H   0  0  0  0  0  0  0  0  0  0  0  0
    2.9625   -2.2612   -0.0443 H   0  0  0  0  0  0  0  0  0  0  0  0
    5.5199   -1.2227   -0.0491 H   0  0  0  0  0  0  0  0  0  0  0  0
    5.1786    1.3064   -0.0551 H   0  0  0  0  0  0  0  0  0  0  0  0
  1  4  1  0  0  0  0
  1  9  1  0  0  0  0
  2 10  1  0  0  0  0
  3  2  2  0  0  0  0
  4  2  1  0  0  0  0
  5  3  1  0  0  0  0
  6  5  1  0  0  0  0
  6  4  2  0  0  0  0
  7  1  1  0  0  0  0
  8  1  1  0  0  0  0
 11  3  1  0  0  0  0
 12  5  1  0  0  0  0
M  END
>  <HBA>
1

>  <HBD>
1

>  <TPSA>
28.68

>  <cid>
15073

>  <dipole>
1.94

>  <excitation_energy_1>
5.904

>  <excitation_energy_2>
6.005

>  <excitation_energy_3>
6.386

>  <excitation_energy_4>
6.471

>  <homo_energy>
-6.446

>  <homo_lumo_gap>
7.151

>  <logP>
0.718

>  <lumo_energy>
0.705

>  <melting_point>
69.93

>  <molecular_refractivity>
23.55

>  <oscillator_strength_1>
0.0079

>  <oscillator_strength_2>
0.0011

>  <oscillator_strength_3>
0.0564

>  <oscillator_strength_4>
0.0001

>  <open_babel_can_smiles>
Cc1cc[nH]n1

>  <mulliken_charges>
12
1   -0.511075
2   -0.25733
3   0.077363
4   0.31258
5   -0.394752
6   -0.335261
7   0.149807
8   0.167365
9   0.167193
10   0.128254
11   0.154118
12   0.341737

>  <lowdin_charges>
12
1   -0.441744
2   -0.241523
3   -0.140209
4   0.004625
5   -0.123017
6   -0.173287
7   0.156503
8   0.165677
9   0.16547
10   0.163574
11   0.16911
12   0.294823

$$$$

