PCCDB-ID:  15875
public computational chemistry database (PCCDB) project, http://pccdb.org

 16 16  0  0  0  0  0  0  0  0999 V2000
   -0.8303    1.1847    0.0385 C   0  0  0  0  0  0  0  0  0  0  0  0
   -1.4318   -0.0700    0.0251 C   0  0  0  0  0  0  0  0  0  0  0  0
    0.5601    1.2964   -0.0074 C   0  0  0  0  0  0  0  0  0  0  0  0
    0.7613   -1.1125   -0.1109 C   0  0  0  0  0  0  0  0  0  0  0  0
   -1.2514   -2.5203   -0.0745 C   0  0  0  0  0  0  0  0  0  0  0  0
   -0.6330   -1.2252   -0.0515 C   0  0  0  0  0  0  0  0  0  0  0  0
    1.3628    0.1491   -0.0728 C   0  0  0  0  0  0  0  0  0  0  0  0
    2.8638    0.1991   -0.1483 C   0  0  0  0  0  0  0  0  0  0  0  0
   -1.7606   -3.5656   -0.0906 N   0  0  0  0  0  0  0  0  0  0  0  0
    3.5281   -0.6996   -0.6032 O   0  0  0  0  0  0  0  0  0  0  0  0
    3.4636    1.3240    0.3230 O   0  0  0  0  0  0  0  0  0  0  0  0
   -1.4451    2.0785    0.0783 H   0  0  0  0  0  0  0  0  0  0  0  0
   -2.5118   -0.1669    0.0653 H   0  0  0  0  0  0  0  0  0  0  0  0
    1.0068    2.2875   -0.0327 H   0  0  0  0  0  0  0  0  0  0  0  0
    1.3884   -1.9938   -0.1861 H   0  0  0  0  0  0  0  0  0  0  0  0
    2.8257    1.8723    0.8078 H   0  0  0  0  0  0  0  0  0  0  0  0
  1 12  1  0  0  0  0
  2  1  1  0  0  0  0
  2 13  1  0  0  0  0
  3  1  2  0  0  0  0
  4  7  2  0  0  0  0
  4  6  1  0  0  0  0
  5  6  1  0  0  0  0
  6  2  2  0  0  0  0
  7  3  1  0  0  0  0
  8  7  1  0  0  0  0
  8 11  1  0  0  0  0
  9  5  3  0  0  0  0
 10  8  2  0  0  0  0
 11 16  1  0  0  0  0
 14  3  1  0  0  0  0
 15  4  1  0  0  0  0
M  END
>  <HBA>
3

>  <HBD>
1

>  <TPSA>
61.09

>  <cid>
15875

>  <dipole>
6.18

>  <excitation_energy_1>
4.58

>  <excitation_energy_2>
4.798

>  <excitation_energy_3>
5.323

>  <excitation_energy_4>
5.357

>  <homo_energy>
-7.796

>  <homo_lumo_gap>
5.625

>  <logP>
1.256

>  <lumo_energy>
-2.171

>  <melting_point>
133.38

>  <molecular_refractivity>
38.12

>  <oscillator_strength_1>
0.0102

>  <oscillator_strength_2>
0.0117

>  <oscillator_strength_3>
0.0021

>  <oscillator_strength_4>
0.1112

>  <open_babel_can_smiles>
N#Cc1cccc(c1)C(=O)O

>  <mulliken_charges>
16
1   -0.134393
2   -0.123735
3   -0.184623
4   -0.161189
5   0.248773
6   0.126133
7   0.048165
8   0.560208
9   -0.466199
10   -0.432699
11   -0.56917
12   0.158784
13   0.171786
14   0.147979
15   0.196741
16   0.413438

>  <lowdin_charges>
16
1   -0.144887
2   -0.115305
3   -0.14878
4   -0.104657
5   -0.012571
6   -0.012868
7   -0.050913
8   0.197733
9   -0.101674
10   -0.228022
11   -0.351054
12   0.173492
13   0.178696
14   0.163936
15   0.195912
16   0.360961

$$$$

