PCCDB-ID:  22278
public computational chemistry database (PCCDB) project, http://pccdb.org

 20 20  0  0  0  0  0  0  0  0999 V2000
    1.0277   -0.0886    0.1123 C   0  0  0  0  0  0  0  0  0  0  0  0
    2.5039    2.4716   -0.0409 C   0  0  0  0  0  0  0  0  0  0  0  0
    3.2424   -1.2788   -0.0633 C   0  0  0  0  0  0  0  0  0  0  0  0
    4.6299   -1.2938   -0.1805 C   0  0  0  0  0  0  0  0  0  0  0  0
    4.6256    1.1241   -0.2034 C   0  0  0  0  0  0  0  0  0  0  0  0
    6.8041   -0.0920   -0.3741 C   0  0  0  0  0  0  0  0  0  0  0  0
    2.5313   -0.0736   -0.0157 C   0  0  0  0  0  0  0  0  0  0  0  0
    3.2380    1.1523   -0.0880 C   0  0  0  0  0  0  0  0  0  0  0  0
    5.3319   -0.0871   -0.2507 C   0  0  0  0  0  0  0  0  0  0  0  0
    7.5025    0.9027   -0.4393 O   0  0  0  0  0  0  0  0  0  0  0  0
    0.6438   -1.1119    0.1544 H   0  0  0  0  0  0  0  0  0  0  0  0
    0.5456    0.4170   -0.7343 H   0  0  0  0  0  0  0  0  0  0  0  0
    0.6950    0.4330    1.0191 H   0  0  0  0  0  0  0  0  0  0  0  0
    3.2022    3.3109   -0.1047 H   0  0  0  0  0  0  0  0  0  0  0  0
    1.9293    2.5837    0.8876 H   0  0  0  0  0  0  0  0  0  0  0  0
    1.7886    2.5678   -0.8679 H   0  0  0  0  0  0  0  0  0  0  0  0
    2.6956   -2.2169   -0.0075 H   0  0  0  0  0  0  0  0  0  0  0  0
    5.1690   -2.2383   -0.2176 H   0  0  0  0  0  0  0  0  0  0  0  0
    5.1932    2.0490   -0.2599 H   0  0  0  0  0  0  0  0  0  0  0  0
    7.2606   -1.1073   -0.4055 H   0  0  0  0  0  0  0  0  0  0  0  0
  1 11  1  0  0  0  0
  1 13  1  0  0  0  0
  2 15  1  0  0  0  0
  3  7  1  0  0  0  0
  3 17  1  0  0  0  0
  4  3  2  0  0  0  0
  5  8  1  0  0  0  0
  6  9  1  0  0  0  0
  7  1  1  0  0  0  0
  8  2  1  0  0  0  0
  8  7  2  0  0  0  0
  9  5  2  0  0  0  0
  9  4  1  0  0  0  0
 10  6  2  0  0  0  0
 12  1  1  0  0  0  0
 14  2  1  0  0  0  0
 16  2  1  0  0  0  0
 18  4  1  0  0  0  0
 19  5  1  0  0  0  0
 20  6  1  0  0  0  0
M  END
>  <HBA>
1

>  <HBD>
0

>  <TPSA>
17.07

>  <cid>
22278

>  <dipole>
3.85

>  <excitation_energy_1>
3.723

>  <excitation_energy_2>
4.538

>  <excitation_energy_3>
4.934

>  <excitation_energy_4>
5.669

>  <homo_energy>
-6.768

>  <homo_lumo_gap>
5.23

>  <logP>
2.116

>  <lumo_energy>
-1.537

>  <melting_point>
46.76

>  <molecular_refractivity>
41.76

>  <oscillator_strength_1>
0.0001

>  <oscillator_strength_2>
0.0279

>  <oscillator_strength_3>
0.317

>  <oscillator_strength_4>
0.0

>  <open_babel_can_smiles>
O=Cc1ccc(c(c1)C)C

>  <mulliken_charges>
20
1   -0.534039
2   -0.533368
3   -0.187773
4   -0.180572
5   -0.224927
6   0.189133
7   0.139356
8   0.135201
9   0.10594
10   -0.411213
11   0.159663
12   0.166523
13   0.16654
14   0.164886
15   0.1622
16   0.162322
17   0.12971
18   0.136796
19   0.154715
20   0.098908

>  <lowdin_charges>
20
1   -0.442482
2   -0.442291
3   -0.167829
4   -0.146262
5   -0.137897
6   0.047497
7   0.012887
8   -0.005972
9   -0.059139
10   -0.23433
11   0.159006
12   0.163988
13   0.163531
14   0.16295
15   0.160381
16   0.160846
17   0.157916
18   0.160923
19   0.171767
20   0.114511

$$$$

