PCCDB-ID:  13731
public computational chemistry database (PCCDB) project, http://pccdb.org

 27 29  0  0  0  0  0  0  0  0999 V2000
   -2.4572   -0.7606    0.0103 C   0  0  0  0  0  0  0  0  0  0  0  0
   -2.4752    0.6437   -0.0012 C   0  0  0  0  0  0  0  0  0  0  0  0
    6.0753   -1.4687    0.3644 C   0  0  0  0  0  0  0  0  0  0  0  0
   -1.2467   -1.4370   -0.0136 C   0  0  0  0  0  0  0  0  0  0  0  0
    4.8823   -0.7533    0.4504 C   0  0  0  0  0  0  0  0  0  0  0  0
   -1.2901    1.3713   -0.0352 C   0  0  0  0  0  0  0  0  0  0  0  0
    6.1491   -2.6524   -0.3456 C   0  0  0  0  0  0  0  0  0  0  0  0
    1.2627   -1.3436   -0.0847 C   0  0  0  0  0  0  0  0  0  0  0  0
    3.8707   -2.4559   -0.9190 C   0  0  0  0  0  0  0  0  0  0  0  0
   -0.0317   -0.7244   -0.0515 C   0  0  0  0  0  0  0  0  0  0  0  0
    3.7479   -1.2676   -0.2003 C   0  0  0  0  0  0  0  0  0  0  0  0
    2.4165   -0.6189   -0.1291 C   0  0  0  0  0  0  0  0  0  0  0  0
   -0.0780    0.6806   -0.0595 C   0  0  0  0  0  0  0  0  0  0  0  0
    2.3431    0.8557   -0.1029 C   0  0  0  0  0  0  0  0  0  0  0  0
    5.0473   -3.1547   -0.9927 N   0  3  0  0  0  0  0  0  0  0  0  0
    3.2790    1.6210   -0.0943 O   0  0  0  0  0  0  0  0  0  0  0  0
    5.1165   -4.2418   -1.6569 O   0  5  0  0  0  0  0  0  0  0  0  0
    1.0707    1.4152   -0.0851 O   0  0  0  0  0  0  0  0  0  0  0  0
   -3.3901   -1.3150    0.0376 H   0  0  0  0  0  0  0  0  0  0  0  0
   -3.4241    1.1717    0.0175 H   0  0  0  0  0  0  0  0  0  0  0  0
    6.9723   -1.1066    0.8567 H   0  0  0  0  0  0  0  0  0  0  0  0
   -1.2190   -2.5235   -0.0058 H   0  0  0  0  0  0  0  0  0  0  0  0
    4.8281    0.1795    0.9934 H   0  0  0  0  0  0  0  0  0  0  0  0
   -1.2814    2.4560   -0.0425 H   0  0  0  0  0  0  0  0  0  0  0  0
    7.0366   -3.2596   -0.4608 H   0  0  0  0  0  0  0  0  0  0  0  0
    1.3093   -2.4295   -0.0584 H   0  0  0  0  0  0  0  0  0  0  0  0
    3.0742   -2.9093   -1.4930 H   0  0  0  0  0  0  0  0  0  0  0  0
  1 19  1  0  0  0  0
  2  1  1  0  0  0  0
  2 20  1  0  0  0  0
  3  5  1  0  0  0  0
  3 21  1  0  0  0  0
  4 22  1  0  0  0  0
  4  1  2  0  0  0  0
  5 23  1  0  0  0  0
  6  2  2  0  0  0  0
  7  3  2  0  0  0  0
  8 26  1  0  0  0  0
  8 10  1  0  0  0  0
  9 11  1  0  0  0  0
 10  4  1  0  0  0  0
 11 12  1  0  0  0  0
 11  5  2  0  0  0  0
 12 14  1  0  0  0  0
 12  8  2  0  0  0  0
 13 10  2  0  0  0  0
 13  6  1  0  0  0  0
 14 16  2  0  0  0  0
 14 18  1  0  0  0  0
 15  9  2  0  0  0  0
 15  7  1  0  0  0  0
 17 15  1  0  0  0  0
 18 13  1  0  0  0  0
 24  6  1  0  0  0  0
 25  7  1  0  0  0  0
 27  9  1  0  0  0  0
M  CHG  2  15   1  17  -1
M  END
>  <HBA>
3

>  <HBD>
0

>  <TPSA>
55.67

>  <cid>
13731

>  <dipole>
4.54

>  <excitation_energy_1>
2.928

>  <excitation_energy_2>
3.763

>  <excitation_energy_3>
3.836

>  <excitation_energy_4>
4.157

>  <homo_energy>
-5.769

>  <homo_lumo_gap>
3.429

>  <logP>
2.889

>  <lumo_energy>
-2.34

>  <melting_point>
136.1

>  <molecular_refractivity>
69.08

>  <oscillator_strength_1>
0.0346

>  <oscillator_strength_2>
0.0588

>  <oscillator_strength_3>
0.3234

>  <oscillator_strength_4>
0.0002

>  <open_babel_can_smiles>
[O-][n+]1cccc(c1)c1cc2ccccc2oc1=O

>  <mulliken_charges>
27
1   -0.132382
2   -0.130805
3   -0.18203
4   -0.196595
5   -0.121
6   -0.168394
7   0.07392
8   -0.188158
9   0.030369
10   0.134945
11   0.054148
12   -0.02305
13   0.313608
14   0.575159
15   -0.008523
16   -0.456885
17   -0.520738
18   -0.514201
19   0.1447
20   0.148891
21   0.159035
22   0.14762
23   0.176281
24   0.161698
25   0.181692
26   0.165776
27   0.17492

>  <lowdin_charges>
27
1   -0.162228
2   -0.132242
3   -0.14836
4   -0.139174
5   -0.157617
6   -0.168141
7   -0.125038
8   -0.108713
9   -0.137798
10   -0.039674
11   0.005732
12   -0.050003
13   0.113254
14   0.203523
15   0.223966
16   -0.238174
17   -0.392574
18   -0.124581
19   0.166697
20   0.168356
21   0.176313
22   0.164412
23   0.184318
24   0.176391
25   0.18567
26   0.172267
27   0.183417

$$$$

