PCCDB-ID:  13859
public computational chemistry database (PCCDB) project, http://pccdb.org

 19 19  0  0  0  0  0  0  0  0999 V2000
    0.9411   -0.0714   -0.0162 C   0  0  0  0  0  0  0  0  0  0  0  0
    2.8216   -0.0726    1.6568 C   0  0  0  0  0  0  0  0  0  0  0  0
    3.0524    1.1966   -0.5648 C   0  0  0  0  0  0  0  0  0  0  0  0
    4.5576    1.0992   -0.8014 C   0  0  0  0  0  0  0  0  0  0  0  0
    2.4578   -0.0249    0.1676 C   0  0  0  0  0  0  0  0  0  0  0  0
    5.2896   -1.5372    0.4247 O   0  0  0  0  0  0  0  0  0  0  0  0
    4.8542   -0.0685   -1.6036 O   0  0  0  0  0  0  0  0  0  0  0  0
    2.9169   -1.2587   -0.5083 O   0  0  0  0  0  0  0  0  0  0  0  0
    4.5285   -1.5213   -0.8396 S   0  0  2  0  0  0  0  0  0  0  0  0
    0.4830    0.8254    0.4165 H   0  0  0  0  0  0  0  0  0  0  0  0
    0.5217   -0.9505    0.4830 H   0  0  0  0  0  0  0  0  0  0  0  0
    0.6835   -0.1195   -1.0784 H   0  0  0  0  0  0  0  0  0  0  0  0
    2.3524    0.7707    2.1770 H   0  0  0  0  0  0  0  0  0  0  0  0
    3.8995   -0.0384    1.8242 H   0  0  0  0  0  0  0  0  0  0  0  0
    2.4466   -1.0012    2.0973 H   0  0  0  0  0  0  0  0  0  0  0  0
    2.5615    1.2973   -1.5398 H   0  0  0  0  0  0  0  0  0  0  0  0
    2.8290    2.1028    0.0121 H   0  0  0  0  0  0  0  0  0  0  0  0
    5.1300    1.0539    0.1315 H   0  0  0  0  0  0  0  0  0  0  0  0
    4.9224    1.9444   -1.3895 H   0  0  0  0  0  0  0  0  0  0  0  0
  1  5  1  0  0  0  0
  1 10  1  0  0  0  0
  1 11  1  0  0  0  0
  2 14  1  0  0  0  0
  2 15  1  0  0  0  0
  2 13  1  0  0  0  0
  3 17  1  0  0  0  0
  3  5  1  0  0  0  0
  4  3  1  0  0  0  0
  4 18  1  0  0  0  0
  5  2  1  0  0  0  0
  7  9  1  0  0  0  0
  7  4  1  0  0  0  0
  8  5  1  0  0  0  0
  9  8  1  0  0  0  0
  9  6  2  1  0  0  0
 12  1  1  0  0  0  0
 16  3  1  0  0  0  0
 19  4  1  0  0  0  0
M  END
>  <HBA>
3

>  <HBD>
0

>  <TPSA>
54.74

>  <cid>
13859

>  <dipole>
3.5

>  <excitation_energy_1>
5.947

>  <excitation_energy_2>
6.333

>  <excitation_energy_3>
6.844

>  <excitation_energy_4>
7.041

>  <homo_energy>
-7.434

>  <homo_lumo_gap>
7.372

>  <logP>
1.646

>  <lumo_energy>
-0.063

>  <melting_point>
13.8

>  <molecular_refractivity>
34.52

>  <oscillator_strength_1>
0.0338

>  <oscillator_strength_2>
0.0033

>  <oscillator_strength_3>
0.0035

>  <oscillator_strength_4>
0.0045

>  <open_babel_can_smiles>
CC1(C)CCO[S@@](=O)O1

>  <mulliken_charges>
19
1   -0.447375
2   -0.461268
3   -0.278341
4   -0.092831
5   0.284381
6   -0.568836
7   -0.54305
8   -0.588544
9   1.088483
10   0.147028
11   0.163257
12   0.16112
13   0.138768
14   0.184115
15   0.163566
16   0.158412
17   0.147089
18   0.173881
19   0.170144

>  <lowdin_charges>
19
1   -0.441452
2   -0.456981
3   -0.298922
4   -0.14514
5   0.133247
6   -0.594795
7   -0.428839
8   -0.438597
9   1.070217
10   0.156558
11   0.162913
12   0.159069
13   0.152271
14   0.167541
15   0.164363
16   0.158074
17   0.159329
18   0.15565
19   0.165495

$$$$

