PCCDB-ID:  50859
public computational chemistry database (PCCDB) project, http://pccdb.org

 30 30  0  0  1  0  0  0  0  0999 V2000
    3.5943    0.0398    1.1252 C   0  0  0  0  0  0  0  0  0  0  0  0
    1.8514   -8.9811   -1.1059 C   0  0  0  0  0  0  0  0  0  0  0  0
    2.3759   -4.8499    1.3079 C   0  0  0  0  0  0  0  0  0  0  0  0
    3.4632   -4.4972   -0.8298 C   0  0  0  0  0  0  0  0  0  0  0  0
    2.5322   -6.2284    1.1424 C   0  0  0  0  0  0  0  0  0  0  0  0
    3.6130   -5.8690   -0.9817 C   0  0  0  0  0  0  0  0  0  0  0  0
    2.1417   -2.0177    1.5150 C   0  0  0  0  0  0  0  0  0  0  0  0
    2.1723   -0.4989    1.3269 C   0  0  1  0  0  0  0  0  0  0  0  0
    2.8434   -3.9772    0.3175 C   0  0  0  0  0  0  0  0  0  0  0  0
    3.1432   -6.7560    0.0012 C   0  0  0  0  0  0  0  0  0  0  0  0
    1.1656    1.4625    2.2537 N   0  0  0  0  0  0  0  0  0  0  0  0
    1.4583    0.0782    2.4735 N   0  0  0  0  0  0  0  0  0  0  0  0
    2.7484   -2.6190    0.3737 O   0  0  0  0  0  0  0  0  0  0  0  0
    3.3697   -8.5268   -0.1782 S   0  0  0  0  0  0  0  0  0  0  0  0
    4.0723   -0.4261    0.2585 H   0  0  0  0  0  0  0  0  0  0  0  0
    4.2187   -0.1673    2.0060 H   0  0  0  0  0  0  0  0  0  0  0  0
    3.5721    1.1226    0.9624 H   0  0  0  0  0  0  0  0  0  0  0  0
    1.8953  -10.0617   -1.2695 H   0  0  0  0  0  0  0  0  0  0  0  0
    1.8147   -8.4735   -2.0734 H   0  0  0  0  0  0  0  0  0  0  0  0
    0.9536   -8.7431   -0.5292 H   0  0  0  0  0  0  0  0  0  0  0  0
    1.8957   -4.4732    2.2036 H   0  0  0  0  0  0  0  0  0  0  0  0
    3.8245   -3.8035   -1.5828 H   0  0  0  0  0  0  0  0  0  0  0  0
    2.1763   -6.9021    1.9164 H   0  0  0  0  0  0  0  0  0  0  0  0
    4.1041   -6.2637   -1.8663 H   0  0  0  0  0  0  0  0  0  0  0  0
    1.1025   -2.3521    1.6222 H   0  0  0  0  0  0  0  0  0  0  0  0
    2.6920   -2.3073    2.4246 H   0  0  0  0  0  0  0  0  0  0  0  0
    1.5681   -0.2538    0.4473 H   0  0  0  0  0  0  0  0  0  0  0  0
    1.9102    2.0674    2.6060 H   0  0  0  0  0  0  0  0  0  0  0  0
    0.3251    1.6780    2.7844 H   0  0  0  0  0  0  0  0  0  0  0  0
    2.0300   -0.0441    3.3139 H   0  0  0  0  0  0  0  0  0  0  0  0
  1  8  1  0  0  0  0
  1 16  1  0  0  0  0
  2 20  1  0  0  0  0
  2 14  1  0  0  0  0
  3 21  1  0  0  0  0
  4  9  1  0  0  0  0
  5  3  1  0  0  0  0
  5 23  1  0  0  0  0
  6  4  2  0  0  0  0
  6 10  1  0  0  0  0
  7 25  1  0  0  0  0
  7 26  1  0  0  0  0
  8 27  1  6  0  0  0
  8  7  1  0  0  0  0
  8 12  1  0  0  0  0
  9 13  1  0  0  0  0
  9  3  2  0  0  0  0
 10  5  2  0  0  0  0
 11 12  1  0  0  0  0
 11 28  1  0  0  0  0
 11 29  1  0  0  0  0
 12 30  1  0  0  0  0
 13  7  1  0  0  0  0
 14 10  1  0  0  0  0
 15  1  1  0  0  0  0
 17  1  1  0  0  0  0
 18  2  1  0  0  0  0
 19  2  1  0  0  0  0
 22  4  1  0  0  0  0
 24  6  1  0  0  0  0
M  END
>  <HBA>
4

>  <HBD>
2

>  <TPSA>
72.58

>  <cid>
50859

>  <dipole>
3.26

>  <excitation_energy_1>
4.656

>  <excitation_energy_2>
4.841

>  <excitation_energy_3>
4.968

>  <excitation_energy_4>
5.377

>  <homo_energy>
-5.938

>  <homo_lumo_gap>
5.826

>  <logP>
2.73

>  <lumo_energy>
-0.112

>  <melting_point>
102.34

>  <molecular_refractivity>
59.78

>  <oscillator_strength_1>
0.0019

>  <oscillator_strength_2>
0.0006

>  <oscillator_strength_3>
0.017

>  <oscillator_strength_4>
0.3732

>  <open_babel_can_smiles>
NN[C@H](COc1ccc(cc1)SC)C

>  <mulliken_charges>
30
1   -0.464311
2   -0.573708
3   -0.183885
4   -0.167166
5   -0.151146
6   -0.14475
7   -0.029886
8   0.039339
9   0.381214
10   -0.096646
11   -0.58523
12   -0.46835
13   -0.52385
14   0.069004
15   0.16944
16   0.126011
17   0.152457
18   0.17778
19   0.17975
20   0.179449
21   0.13916
22   0.140001
23   0.147037
24   0.146717
25   0.157642
26   0.126728
27   0.16284
28   0.293273
29   0.317621
30   0.283465

>  <lowdin_charges>
30
1   -0.465326
2   -0.540579
3   -0.214284
4   -0.184748
5   -0.144045
6   -0.144147
7   -0.133141
8   -0.072395
9   0.110357
10   -0.151953
11   -0.485452
12   -0.306023
13   -0.195993
14   0.118846
15   0.165354
16   0.140529
17   0.152502
18   0.170503
19   0.162792
20   0.163397
21   0.165746
22   0.168875
23   0.168196
24   0.167909
25   0.148501
26   0.132706
27   0.158946
28   0.244258
29   0.262111
30   0.236557

$$$$

