PCCDB-ID:  10778
public computational chemistry database (PCCDB) project, http://pccdb.org

 21 21  0  0  0  0  0  0  0  0999 V2000
    1.0698   -0.1786    0.0917 C   0  0  0  0  0  0  0  0  0  0  0  0
    2.1109    4.2077    1.1403 C   0  0  0  0  0  0  0  0  0  0  0  0
    4.6271   -1.5476   -0.2686 C   0  0  0  0  0  0  0  0  0  0  0  0
    5.3878   -0.3858   -0.1398 C   0  0  0  0  0  0  0  0  0  0  0  0
    3.2354   -1.4778   -0.1955 C   0  0  0  0  0  0  0  0  0  0  0  0
    4.7571    0.8423    0.0598 C   0  0  0  0  0  0  0  0  0  0  0  0
    2.5740   -0.2615    0.0103 C   0  0  0  0  0  0  0  0  0  0  0  0
    2.9954    2.9892    1.2528 C   0  0  0  0  0  0  0  0  0  0  0  0
    3.3672    0.8868    0.1362 C   0  0  0  0  0  0  0  0  0  0  0  0
    3.8521    2.8097    2.0816 O   0  0  0  0  0  0  0  0  0  0  0  0
    2.6794    2.1007    0.2569 O   0  0  0  0  0  0  0  0  0  0  0  0
    0.6201   -1.1671   -0.0403 H   0  0  0  0  0  0  0  0  0  0  0  0
    0.6621    0.4876   -0.6775 H   0  0  0  0  0  0  0  0  0  0  0  0
    0.7407    0.2173    1.0600 H   0  0  0  0  0  0  0  0  0  0  0  0
    2.3441    4.9000    1.9497 H   0  0  0  0  0  0  0  0  0  0  0  0
    1.0566    3.9167    1.1869 H   0  0  0  0  0  0  0  0  0  0  0  0
    2.2707    4.6975    0.1739 H   0  0  0  0  0  0  0  0  0  0  0  0
    5.1136   -2.5064   -0.4247 H   0  0  0  0  0  0  0  0  0  0  0  0
    6.4719   -0.4287   -0.1945 H   0  0  0  0  0  0  0  0  0  0  0  0
    2.6426   -2.3834   -0.2999 H   0  0  0  0  0  0  0  0  0  0  0  0
    5.3333    1.7539    0.1635 H   0  0  0  0  0  0  0  0  0  0  0  0
  1 14  1  0  0  0  0
  2 16  1  0  0  0  0
  2  8  1  0  0  0  0
  2 15  1  0  0  0  0
  3  5  2  0  0  0  0
  3  4  1  0  0  0  0
  4  6  2  0  0  0  0
  5  7  1  0  0  0  0
  6  9  1  0  0  0  0
  6 21  1  0  0  0  0
  7  1  1  0  0  0  0
  7  9  2  0  0  0  0
  8 10  2  0  0  0  0
  9 11  1  0  0  0  0
 11  8  1  0  0  0  0
 12  1  1  0  0  0  0
 13  1  1  0  0  0  0
 17  2  1  0  0  0  0
 18  3  1  0  0  0  0
 19  4  1  0  0  0  0
 20  5  1  0  0  0  0
M  END
>  <HBA>
2

>  <HBD>
0

>  <TPSA>
26.3

>  <cid>
10778

>  <dipole>
1.89

>  <excitation_energy_1>
5.176

>  <excitation_energy_2>
5.466

>  <excitation_energy_3>
5.636

>  <excitation_energy_4>
5.99

>  <homo_energy>
-6.406

>  <homo_lumo_gap>
6.188

>  <logP>
1.92

>  <lumo_energy>
-0.218

>  <melting_point>
33.99

>  <molecular_refractivity>
42.91

>  <oscillator_strength_1>
0.0085

>  <oscillator_strength_2>
0.0865

>  <oscillator_strength_3>
0.0117

>  <oscillator_strength_4>
0.0104

>  <open_babel_can_smiles>
CC(=O)Oc1ccccc1C

>  <mulliken_charges>
21
1   -0.51901
2   -0.526085
3   -0.117016
4   -0.148846
5   -0.197714
6   -0.132768
7   0.143713
8   0.59111
9   0.290795
10   -0.443186
11   -0.517639
12   0.153086
13   0.16829
14   0.16319
15   0.185107
16   0.183689
17   0.185185
18   0.129554
19   0.134073
20   0.125907
21   0.148566

>  <lowdin_charges>
21
1   -0.438926
2   -0.4635
3   -0.160555
4   -0.152144
5   -0.163707
6   -0.164485
7   -0.013259
8   0.208153
9   0.092385
10   -0.239555
11   -0.169909
12   0.156748
13   0.165284
14   0.161756
15   0.17775
16   0.177582
17   0.179729
18   0.158822
19   0.158342
20   0.157212
21   0.172278

$$$$

