PCCDB-ID:  21666
public computational chemistry database (PCCDB) project, http://pccdb.org

 33 33  0  0  0  0  0  0  0  0999 V2000
    4.2332    5.5824    1.1248 C   0  0  0  0  0  0  0  0  0  0  0  0
    8.1866   -2.4303    1.2726 C   0  0  0  0  0  0  0  0  0  0  0  0
    5.3254    5.3212    0.0824 C   0  0  0  0  0  0  0  0  0  0  0  0
    6.1471    4.0607    0.3854 C   0  0  0  0  0  0  0  0  0  0  0  0
   10.5782   -0.6145    0.6327 C   0  0  0  0  0  0  0  0  0  0  0  0
    9.6560    0.5236    0.2917 C   0  0  0  0  0  0  0  0  0  0  0  0
   10.1503   -1.9128   -0.0828 C   0  0  0  0  0  0  0  0  0  0  0  0
    7.2303    3.8154   -0.6604 C   0  0  0  0  0  0  0  0  0  0  0  0
    7.9997   -1.0521   -0.7310 C   0  0  0  0  0  0  0  0  0  0  0  0
    8.4797    0.3360   -0.3295 C   0  0  0  0  0  0  0  0  0  0  0  0
    7.5838    1.4599   -0.7024 C   0  0  0  0  0  0  0  0  0  0  0  0
    8.7061   -2.1433   -0.0603 N   0  0  0  0  0  0  0  0  0  0  0  0
    6.5314    1.3019   -1.2968 O   0  0  0  0  0  0  0  0  0  0  0  0
    8.0522    2.6749   -0.3251 O   0  0  0  0  0  0  0  0  0  0  0  0
    3.6590    6.4837    0.8827 H   0  0  0  0  0  0  0  0  0  0  0  0
    4.6636    5.7188    2.1243 H   0  0  0  0  0  0  0  0  0  0  0  0
    3.5301    4.7426    1.1783 H   0  0  0  0  0  0  0  0  0  0  0  0
    8.7383   -3.2764    1.6981 H   0  0  0  0  0  0  0  0  0  0  0  0
    7.1339   -2.7227    1.1938 H   0  0  0  0  0  0  0  0  0  0  0  0
    8.2484   -1.5887    1.9866 H   0  0  0  0  0  0  0  0  0  0  0  0
    5.9948    6.1917    0.0281 H   0  0  0  0  0  0  0  0  0  0  0  0
    4.8657    5.2251   -0.9110 H   0  0  0  0  0  0  0  0  0  0  0  0
    5.4869    3.1861    0.4184 H   0  0  0  0  0  0  0  0  0  0  0  0
    6.6190    4.1493    1.3732 H   0  0  0  0  0  0  0  0  0  0  0  0
   10.5883   -0.7536    1.7250 H   0  0  0  0  0  0  0  0  0  0  0  0
   11.6112   -0.3527    0.3637 H   0  0  0  0  0  0  0  0  0  0  0  0
    9.9603    1.5296    0.5687 H   0  0  0  0  0  0  0  0  0  0  0  0
   10.6559   -2.7801    0.3574 H   0  0  0  0  0  0  0  0  0  0  0  0
   10.4579   -1.8590   -1.1354 H   0  0  0  0  0  0  0  0  0  0  0  0
    7.9328    4.6526   -0.7066 H   0  0  0  0  0  0  0  0  0  0  0  0
    6.7909    3.6563   -1.6489 H   0  0  0  0  0  0  0  0  0  0  0  0
    8.1122   -1.1702   -1.8191 H   0  0  0  0  0  0  0  0  0  0  0  0
    6.9272   -1.1411   -0.5333 H   0  0  0  0  0  0  0  0  0  0  0  0
  1 17  1  0  0  0  0
  1 16  1  0  0  0  0
  2 18  1  0  0  0  0
  2 20  1  0  0  0  0
  3  4  1  0  0  0  0
  3  1  1  0  0  0  0
  4 23  1  0  0  0  0
  4 24  1  0  0  0  0
  5 25  1  0  0  0  0
  6 27  1  0  0  0  0
  6  5  1  0  0  0  0
  7 12  1  0  0  0  0
  7 28  1  0  0  0  0
  7  5  1  0  0  0  0
  8 14  1  0  0  0  0
  8  4  1  0  0  0  0
  9 33  1  0  0  0  0
  9 10  1  0  0  0  0
  9 12  1  0  0  0  0
 10  6  2  0  0  0  0
 11 10  1  0  0  0  0
 11 14  1  0  0  0  0
 12  2  1  0  0  0  0
 13 11  2  0  0  0  0
 15  1  1  0  0  0  0
 19  2  1  0  0  0  0
 21  3  1  0  0  0  0
 22  3  1  0  0  0  0
 26  5  1  0  0  0  0
 29  7  1  0  0  0  0
 30  8  1  0  0  0  0
 31  8  1  0  0  0  0
 32  9  1  0  0  0  0
M  END
>  <HBA>
3

>  <HBD>
0

>  <TPSA>
29.54

>  <cid>
21666

>  <dipole>
2.57

>  <excitation_energy_1>
3.666

>  <excitation_energy_2>
4.906

>  <excitation_energy_3>
5.021

>  <excitation_energy_4>
5.597

>  <homo_energy>
-5.587

>  <homo_lumo_gap>
4.683

>  <logP>
1.53

>  <lumo_energy>
-0.903

>  <melting_point>
20.98

>  <molecular_refractivity>
60.5

>  <oscillator_strength_1>
0.0015

>  <oscillator_strength_2>
0.0001

>  <oscillator_strength_3>
0.0097

>  <oscillator_strength_4>
0.2736

>  <open_babel_can_smiles>
CCCCOC(=O)C1=CCCN(C1)C

>  <mulliken_charges>
33
1   -0.440804
2   -0.304199
3   -0.258442
4   -0.272022
5   -0.320116
6   -0.139396
7   -0.14799
8   -0.041044
9   -0.202008
10   0.049993
11   0.602816
12   -0.363626
13   -0.498277
14   -0.486529
15   0.144361
16   0.143039
17   0.147585
18   0.146249
19   0.153875
20   0.126115
21   0.131296
22   0.140535
23   0.160933
24   0.138802
25   0.157462
26   0.150034
27   0.155863
28   0.13994
29   0.146296
30   0.145505
31   0.165668
32   0.161705
33   0.16638

>  <lowdin_charges>
33
1   -0.442598
2   -0.359258
3   -0.271578
4   -0.287597
5   -0.292051
6   -0.13145
7   -0.202731
8   -0.131123
9   -0.197203
10   -0.072255
11   0.1941
12   -0.182122
13   -0.27834
14   -0.195873
15   0.15114
16   0.146631
17   0.150082
18   0.1498
19   0.150802
20   0.124643
21   0.139399
22   0.142999
23   0.15628
24   0.144148
25   0.15423
26   0.156446
27   0.168129
28   0.147579
29   0.14502
30   0.14982
31   0.156068
32   0.154018
33   0.162843

$$$$

