PCCDB-ID:  52796
public computational chemistry database (PCCDB) project, http://pccdb.org

 21 21  0  0  0  0  0  0  0  0999 V2000
    0.8514   -1.0977    0.4967 C   0  0  0  0  0  0  0  0  0  0  0  0
    2.3923    0.9074    0.4609 C   0  0  0  0  0  0  0  0  0  0  0  0
    2.1714   -0.4433    0.1720 C   0  0  0  0  0  0  0  0  0  0  0  0
    3.6539    1.4228    0.1275 C   0  0  0  0  0  0  0  0  0  0  0  0
    4.2729   -0.6059   -0.6832 C   0  0  0  0  0  0  0  0  0  0  0  0
    3.1033    3.7477    0.6642 N   0  0  0  0  0  0  0  0  0  0  0  0
    6.5607   -1.0291   -1.4165 N   0  0  0  0  0  0  0  0  0  0  0  0
    3.1014   -1.2159   -0.3988 N   0  0  0  0  0  0  0  0  0  0  0  0
    4.6067    0.6687   -0.4517 N   0  0  0  0  0  0  0  0  0  0  0  0
    4.0208    2.7220    0.3874 N   0  0  0  0  0  0  0  0  0  0  0  0
    5.2087   -1.3995   -1.2962 N   0  0  0  0  0  0  0  0  0  0  0  0
    0.0366   -0.6386   -0.0766 H   0  0  0  0  0  0  0  0  0  0  0  0
    0.6052   -0.9831    1.5590 H   0  0  0  0  0  0  0  0  0  0  0  0
    0.8948   -2.1612    0.2537 H   0  0  0  0  0  0  0  0  0  0  0  0
    1.6320    1.5124    0.9398 H   0  0  0  0  0  0  0  0  0  0  0  0
    2.7906    3.6604    1.6297 H   0  0  0  0  0  0  0  0  0  0  0  0
    2.2823    3.6566    0.0626 H   0  0  0  0  0  0  0  0  0  0  0  0
    6.8239   -0.5156   -0.5724 H   0  0  0  0  0  0  0  0  0  0  0  0
    6.6222   -0.3470   -2.1727 H   0  0  0  0  0  0  0  0  0  0  0  0
    4.8596    3.0330   -0.0853 H   0  0  0  0  0  0  0  0  0  0  0  0
    5.0405   -2.3945   -1.2461 H   0  0  0  0  0  0  0  0  0  0  0  0
  1 13  1  0  0  0  0
  2 15  1  0  0  0  0
  3  2  2  0  0  0  0
  3  1  1  0  0  0  0
  4 10  1  0  0  0  0
  4  2  1  0  0  0  0
  5  9  1  0  0  0  0
  5  8  2  0  0  0  0
  6 16  1  0  0  0  0
  7 11  1  0  0  0  0
  7 18  1  0  0  0  0
  8  3  1  0  0  0  0
  9  4  2  0  0  0  0
 10  6  1  0  0  0  0
 11 21  1  0  0  0  0
 11  5  1  0  0  0  0
 12  1  1  0  0  0  0
 14  1  1  0  0  0  0
 17  6  1  0  0  0  0
 19  7  1  0  0  0  0
 20 10  1  0  0  0  0
M  END
>  <HBA>
6

>  <HBD>
4

>  <TPSA>
101.88

>  <cid>
52796

>  <dipole>
2.51

>  <excitation_energy_1>
4.657

>  <excitation_energy_2>
5.032

>  <excitation_energy_3>
5.042

>  <excitation_energy_4>
5.483

>  <homo_energy>
-5.712

>  <homo_lumo_gap>
5.456

>  <logP>
0.903

>  <lumo_energy>
-0.256

>  <melting_point>
219.1

>  <molecular_refractivity>
41.41

>  <oscillator_strength_1>
0.095

>  <oscillator_strength_2>
0.0009

>  <oscillator_strength_3>
0.0131

>  <oscillator_strength_4>
0.0849

>  <open_babel_can_smiles>
NNc1cc(C)nc(n1)NN

>  <mulliken_charges>
21
1   -0.526727
2   -0.248074
3   0.335287
4   0.536479
5   0.658135
6   -0.568431
7   -0.560611
8   -0.54931
9   -0.587594
10   -0.529094
11   -0.521654
12   0.163865
13   0.161586
14   0.177128
15   0.107005
16   0.324939
17   0.312825
18   0.316085
19   0.321068
20   0.336479
21   0.340615

>  <lowdin_charges>
21
1   -0.447007
2   -0.300278
3   0.092966
4   0.116021
5   0.122247
6   -0.459678
7   -0.456449
8   -0.232907
9   -0.254401
10   -0.227388
11   -0.223866
12   0.165501
13   0.161663
14   0.16951
15   0.15677
16   0.263992
17   0.256768
18   0.259042
19   0.26381
20   0.286467
21   0.287218

$$$$

