PCCDB-ID:  21478
public computational chemistry database (PCCDB) project, http://pccdb.org

 31 33  0  0  0  0  0  0  0  0999 V2000
   -2.5226    2.1345   -2.0831 C   0  0  0  0  0  0  0  0  0  0  0  0
   -1.4355    3.0088   -1.8780 C   0  0  0  0  0  0  0  0  0  0  0  0
   -0.4888   -5.8216   -1.0343 C   0  0  0  0  0  0  0  0  0  0  0  0
    0.3702   -5.1339   -2.1359 C   0  0  0  0  0  0  0  0  0  0  0  0
   -2.4299    0.7864   -1.7606 C   0  0  0  0  0  0  0  0  0  0  0  0
   -0.2347    2.5513   -1.3474 C   0  0  0  0  0  0  0  0  0  0  0  0
   -1.4655   -4.7215   -0.5767 C   0  0  0  0  0  0  0  0  0  0  0  0
   -0.1955   -3.7041   -2.2208 C   0  0  0  0  0  0  0  0  0  0  0  0
    0.5079   -0.8568   -0.3548 C   0  0  0  0  0  0  0  0  0  0  0  0
   -1.5876   -2.2826   -0.7675 C   0  0  0  0  0  0  0  0  0  0  0  0
   -0.7842   -1.0111   -0.7888 C   0  0  0  0  0  0  0  0  0  0  0  0
   -1.2284    0.2903   -1.2237 C   0  0  0  0  0  0  0  0  0  0  0  0
   -0.1457    1.1933   -1.0246 C   0  0  0  0  0  0  0  0  0  0  0  0
    0.8968    0.4642   -0.4913 N   0  0  0  0  0  0  0  0  0  0  0  0
   -0.7597   -3.4773   -0.8872 N   0  0  0  0  0  0  0  0  0  0  0  0
   -3.4469    2.5251   -2.5001 H   0  0  0  0  0  0  0  0  0  0  0  0
   -1.5369    4.0586   -2.1399 H   0  0  0  0  0  0  0  0  0  0  0  0
    0.1424   -6.1458   -0.2012 H   0  0  0  0  0  0  0  0  0  0  0  0
   -1.0223   -6.7026   -1.4040 H   0  0  0  0  0  0  0  0  0  0  0  0
    0.3087   -5.6471   -3.1005 H   0  0  0  0  0  0  0  0  0  0  0  0
    1.4247   -5.1143   -1.8435 H   0  0  0  0  0  0  0  0  0  0  0  0
   -3.2769    0.1243   -1.9221 H   0  0  0  0  0  0  0  0  0  0  0  0
    0.6031    3.2259   -1.1891 H   0  0  0  0  0  0  0  0  0  0  0  0
   -1.7102   -4.7702    0.4905 H   0  0  0  0  0  0  0  0  0  0  0  0
   -2.4178   -4.7991   -1.1405 H   0  0  0  0  0  0  0  0  0  0  0  0
   -0.9835   -3.6477   -2.9997 H   0  0  0  0  0  0  0  0  0  0  0  0
    0.5560   -2.9468   -2.4602 H   0  0  0  0  0  0  0  0  0  0  0  0
    1.1835   -1.5998    0.0439 H   0  0  0  0  0  0  0  0  0  0  0  0
   -2.3599   -2.2467   -1.5639 H   0  0  0  0  0  0  0  0  0  0  0  0
   -2.1394   -2.3606    0.1806 H   0  0  0  0  0  0  0  0  0  0  0  0
    1.8111    0.8264   -0.2715 H   0  0  0  0  0  0  0  0  0  0  0  0
  1  2  2  0  0  0  0
  1  5  1  0  0  0  0
  2  6  1  0  0  0  0
  3  7  1  0  0  0  0
  3 18  1  0  0  0  0
  4 21  1  0  0  0  0
  4  3  1  0  0  0  0
  5 12  2  0  0  0  0
  6 23  1  0  0  0  0
  6 13  2  0  0  0  0
  7 24  1  0  0  0  0
  8  4  1  0  0  0  0
  8 15  1  0  0  0  0
  9 28  1  0  0  0  0
 10 30  1  0  0  0  0
 11 10  1  0  0  0  0
 11  9  2  0  0  0  0
 12 13  1  0  0  0  0
 12 11  1  0  0  0  0
 13 14  1  0  0  0  0
 14  9  1  0  0  0  0
 14 31  1  0  0  0  0
 15 10  1  0  0  0  0
 15  7  1  0  0  0  0
 16  1  1  0  0  0  0
 17  2  1  0  0  0  0
 19  3  1  0  0  0  0
 20  4  1  0  0  0  0
 22  5  1  0  0  0  0
 25  7  1  0  0  0  0
 26  8  1  0  0  0  0
 27  8  1  0  0  0  0
 29 10  1  0  0  0  0
M  END
>  <HBA>
1

>  <HBD>
1

>  <TPSA>
19.03

>  <cid>
21478

>  <dipole>
1.8

>  <excitation_energy_1>
4.528

>  <excitation_energy_2>
4.675

>  <excitation_energy_3>
4.809

>  <excitation_energy_4>
4.863

>  <homo_energy>
-5.222

>  <homo_lumo_gap>
5.197

>  <logP>
2.702

>  <lumo_energy>
-0.024

>  <melting_point>
122.32

>  <molecular_refractivity>
67.19

>  <oscillator_strength_1>
0.0609

>  <oscillator_strength_2>
0.0009

>  <oscillator_strength_3>
0.0231

>  <oscillator_strength_4>
0.0012

>  <open_babel_can_smiles>
C1CCN(C1)Cc1c[nH]c2c1cccc2

>  <mulliken_charges>
31
1   -0.140741
2   -0.151887
3   -0.28149
4   -0.279396
5   -0.21016
6   -0.163488
7   -0.110601
8   -0.117767
9   0.008794
10   -0.185249
11   0.056689
12   0.074698
13   0.314782
14   -0.694753
15   -0.405819
16   0.117878
17   0.12017
18   0.144556
19   0.137201
20   0.137265
21   0.142661
22   0.121919
23   0.118145
24   0.13813
25   0.107747
26   0.108594
27   0.146446
28   0.156688
29   0.116377
30   0.148018
31   0.324592

>  <lowdin_charges>
31
1   -0.177732
2   -0.16447
3   -0.287208
4   -0.283794
5   -0.166325
6   -0.189648
7   -0.200251
8   -0.205404
9   -0.131947
10   -0.189522
11   -0.071217
12   -0.034943
13   0.030731
14   -0.199837
15   -0.189012
16   0.153649
17   0.152939
18   0.149572
19   0.147069
20   0.146268
21   0.145923
22   0.155198
23   0.154634
24   0.142131
25   0.11374
26   0.114814
27   0.149735
28   0.171476
29   0.123205
30   0.150833
31   0.289393

$$$$

