PCCDB-ID:  69134
public computational chemistry database (PCCDB) project, http://pccdb.org

 19 19  0  0  0  0  0  0  0  0999 V2000
   -1.4142   -0.1042    0.0186 C   0  0  0  0  0  0  0  0  0  0  0  0
   -0.7700    1.1155   -0.0407 C   0  0  0  0  0  0  0  0  0  0  0  0
    0.7447   -1.2018   -0.0717 C   0  0  0  0  0  0  0  0  0  0  0  0
   -0.6457   -1.2907    0.0147 C   0  0  0  0  0  0  0  0  0  0  0  0
    0.6322    1.2395   -0.1044 C   0  0  0  0  0  0  0  0  0  0  0  0
    1.4070    0.0371   -0.1426 C   0  0  0  0  0  0  0  0  0  0  0  0
    1.2952    2.5552   -0.1830 C   0  0  0  0  0  0  0  0  0  0  0  0
   -1.2715   -2.5229    0.1361 N   0  0  0  0  0  0  0  0  0  0  0  0
    2.7731    0.0782   -0.1999 N   0  0  0  0  0  0  0  0  0  0  0  0
    2.4474    2.7379   -0.5451 O   0  0  0  0  0  0  0  0  0  0  0  0
    0.5628    3.6506    0.1723 O   0  0  0  0  0  0  0  0  0  0  0  0
   -2.4983   -0.1566    0.0613 H   0  0  0  0  0  0  0  0  0  0  0  0
   -1.3896    2.0087   -0.0883 H   0  0  0  0  0  0  0  0  0  0  0  0
    1.3396   -2.1132   -0.0800 H   0  0  0  0  0  0  0  0  0  0  0  0
   -2.2427   -2.5565   -0.1444 H   0  0  0  0  0  0  0  0  0  0  0  0
   -0.7458   -3.3256   -0.1844 H   0  0  0  0  0  0  0  0  0  0  0  0
    3.2627   -0.7705   -0.4411 H   0  0  0  0  0  0  0  0  0  0  0  0
    3.1814    0.9620   -0.4861 H   0  0  0  0  0  0  0  0  0  0  0  0
   -0.2469    3.3699    0.6267 H   0  0  0  0  0  0  0  0  0  0  0  0
  1 12  1  0  0  0  0
  2  1  2  0  0  0  0
  3  4  2  0  0  0  0
  4  1  1  0  0  0  0
  4  8  1  0  0  0  0
  5  2  1  0  0  0  0
  6  5  2  0  0  0  0
  6  3  1  0  0  0  0
  7  5  1  0  0  0  0
  7 11  1  0  0  0  0
  9  6  1  0  0  0  0
 10  7  2  0  0  0  0
 11 19  1  0  0  0  0
 13  2  1  0  0  0  0
 14  3  1  0  0  0  0
 15  8  1  0  0  0  0
 16  8  1  0  0  0  0
 17  9  1  0  0  0  0
 18  9  1  0  0  0  0
M  END
>  <HBA>
4

>  <HBD>
3

>  <TPSA>
89.34

>  <cid>
69134

>  <dipole>
5.65

>  <excitation_energy_1>
4.072

>  <excitation_energy_2>
4.676

>  <excitation_energy_3>
4.814

>  <excitation_energy_4>
5.044

>  <homo_energy>
-5.524

>  <homo_lumo_gap>
4.77

>  <logP>
1.712

>  <lumo_energy>
-0.754

>  <melting_point>
194.96

>  <molecular_refractivity>
42.21

>  <oscillator_strength_1>
0.0833

>  <oscillator_strength_2>
0.1532

>  <oscillator_strength_3>
0.0109

>  <oscillator_strength_4>
0.0364

>  <open_babel_can_smiles>
Nc1ccc(c(c1)N)C(=O)O

>  <mulliken_charges>
19
1   -0.183758
2   -0.226685
3   -0.237831
4   0.335611
5   0.021762
6   0.312254
7   0.562371
8   -0.79299
9   -0.821447
10   -0.499828
11   -0.580855
12   0.118084
13   0.124089
14   0.10881
15   0.327495
16   0.326499
17   0.32154
18   0.376335
19   0.408542

>  <lowdin_charges>
19
1   -0.228205
2   -0.141961
3   -0.253268
4   0.086233
5   -0.131325
6   0.102325
7   0.198077
8   -0.47286
9   -0.470316
10   -0.28356
11   -0.362506
12   0.153152
13   0.154124
14   0.150793
15   0.279327
16   0.280711
17   0.279486
18   0.304381
19   0.355394

$$$$

