PCCDB-ID:  9246
public computational chemistry database (PCCDB) project, http://pccdb.org

 17 18  0  0  1  0  0  0  0  0999 V2000
   -1.5599    0.7698    0.0995 C   0  0  0  0  0  0  0  0  0  0  0  0
   -0.3641    1.5767   -0.4240 C   0  0  0  0  0  0  0  0  0  0  0  0
   -1.3724   -0.7458   -0.1031 C   0  0  0  0  0  0  0  0  0  0  0  0
    0.9142    1.2230    0.3522 C   0  0  0  0  0  0  0  0  0  0  0  0
    0.0395   -1.2226    0.2015 C   0  0  2  0  0  0  0  0  0  0  0  0
    1.1487   -0.2717    0.4144 C   0  0  1  0  0  0  0  0  0  0  0  0
    1.0232   -0.9841   -0.8250 O   0  0  0  0  0  0  0  0  0  0  0  0
   -2.4873    1.0944   -0.3876 H   0  0  0  0  0  0  0  0  0  0  0  0
   -1.6827    0.9786    1.1722 H   0  0  0  0  0  0  0  0  0  0  0  0
   -0.5616    2.6516   -0.3352 H   0  0  0  0  0  0  0  0  0  0  0  0
   -0.2113    1.3644   -1.4891 H   0  0  0  0  0  0  0  0  0  0  0  0
   -1.5986   -1.0213   -1.1418 H   0  0  0  0  0  0  0  0  0  0  0  0
   -2.0817   -1.2971    0.5270 H   0  0  0  0  0  0  0  0  0  0  0  0
    0.8434    1.5998    1.3833 H   0  0  0  0  0  0  0  0  0  0  0  0
    1.7893    1.7083   -0.1002 H   0  0  0  0  0  0  0  0  0  0  0  0
    0.1237   -2.2151    0.6489 H   0  0  0  0  0  0  0  0  0  0  0  0
    1.9957   -0.5936    1.0255 H   0  0  0  0  0  0  0  0  0  0  0  0
  1  9  1  0  0  0  0
  2 10  1  0  0  0  0
  2  1  1  0  0  0  0
  2  4  1  0  0  0  0
  3  1  1  0  0  0  0
  3  5  1  0  0  0  0
  3 13  1  0  0  0  0
  4  6  1  0  0  0  0
  4 14  1  0  0  0  0
  5  6  1  0  0  0  0
  5 16  1  1  0  0  0
  6 17  1  1  0  0  0
  7  5  1  0  0  0  0
  7  6  1  0  0  0  0
  8  1  1  0  0  0  0
 11  2  1  0  0  0  0
 12  3  1  0  0  0  0
 15  4  1  0  0  0  0
M  END
>  <HBA>
1

>  <HBD>
0

>  <TPSA>
12.53

>  <cid>
9246

>  <dipole>
1.89

>  <excitation_energy_1>
6.631

>  <excitation_energy_2>
7.086

>  <excitation_energy_3>
7.141

>  <excitation_energy_4>
7.171

>  <homo_energy>
-6.974

>  <homo_lumo_gap>
9.336

>  <logP>
1.328

>  <lumo_energy>
2.362

>  <melting_point>
9.64

>  <molecular_refractivity>
27.81

>  <oscillator_strength_1>
0.024

>  <oscillator_strength_2>
0.0138

>  <oscillator_strength_3>
0.0017

>  <oscillator_strength_4>
0.0134

>  <open_babel_can_smiles>
C1CC[C@H]2[C@@H](C1)O2

>  <mulliken_charges>
17
1   -0.268373
2   -0.271493
3   -0.274651
4   -0.275603
5   0.070516
6   0.087714
7   -0.461544
8   0.13516
9   0.131478
10   0.132804
11   0.154393
12   0.156245
13   0.134569
14   0.134237
15   0.146145
16   0.136177
17   0.132225

>  <lowdin_charges>
17
1   -0.273868
2   -0.276355
3   -0.286284
4   -0.282348
5   -0.029414
6   -0.02736
7   -0.297567
8   0.146324
9   0.136824
10   0.144232
11   0.149504
12   0.155002
13   0.150788
14   0.145398
15   0.153221
16   0.145945
17   0.145954

$$$$

