PCCDB-ID:  11397
public computational chemistry database (PCCDB) project, http://pccdb.org

 20 21  0  0  0  0  0  0  0  0999 V2000
    1.2214    1.4140   -0.0153 C   0  0  0  0  0  0  0  0  0  0  0  0
   -1.2649    1.3709   -0.0078 C   0  0  0  0  0  0  0  0  0  0  0  0
    2.4232    0.7459   -0.0208 C   0  0  0  0  0  0  0  0  0  0  0  0
   -2.4429    0.6615   -0.0054 C   0  0  0  0  0  0  0  0  0  0  0  0
    1.2666   -1.3928   -0.0272 C   0  0  0  0  0  0  0  0  0  0  0  0
   -1.2130   -1.4358   -0.0192 C   0  0  0  0  0  0  0  0  0  0  0  0
   -0.0099    0.7100   -0.0139 C   0  0  0  0  0  0  0  0  0  0  0  0
    0.0149   -0.7261   -0.0201 C   0  0  0  0  0  0  0  0  0  0  0  0
    2.4434   -0.6737   -0.0273 C   0  0  0  0  0  0  0  0  0  0  0  0
   -2.4140   -0.7579   -0.0116 C   0  0  0  0  0  0  0  0  0  0  0  0
    3.6236   -1.3668   -0.0319 O   0  0  0  0  0  0  0  0  0  0  0  0
   -3.5694   -1.4915   -0.0085 O   0  0  0  0  0  0  0  0  0  0  0  0
    1.2054    2.5014   -0.0098 H   0  0  0  0  0  0  0  0  0  0  0  0
   -1.2866    2.4582   -0.0028 H   0  0  0  0  0  0  0  0  0  0  0  0
    3.3620    1.2972   -0.0197 H   0  0  0  0  0  0  0  0  0  0  0  0
   -3.4002    1.1800    0.0007 H   0  0  0  0  0  0  0  0  0  0  0  0
    1.3079   -2.4778   -0.0319 H   0  0  0  0  0  0  0  0  0  0  0  0
   -1.2166   -2.5215   -0.0233 H   0  0  0  0  0  0  0  0  0  0  0  0
    4.3592   -0.7356   -0.0412 H   0  0  0  0  0  0  0  0  0  0  0  0
   -4.3265   -0.8861   -0.0112 H   0  0  0  0  0  0  0  0  0  0  0  0
  1  7  1  0  0  0  0
  1 13  1  0  0  0  0
  2  4  1  0  0  0  0
  2 14  1  0  0  0  0
  3 15  1  0  0  0  0
  3  1  2  0  0  0  0
  4 16  1  0  0  0  0
  5  8  1  0  0  0  0
  6 10  1  0  0  0  0
  7  2  2  0  0  0  0
  8  6  2  0  0  0  0
  8  7  1  0  0  0  0
  9  5  2  0  0  0  0
  9  3  1  0  0  0  0
 10 12  1  0  0  0  0
 10  4  2  0  0  0  0
 11  9  1  0  0  0  0
 17  5  1  0  0  0  0
 18  6  1  0  0  0  0
 19 11  1  0  0  0  0
 20 12  1  0  0  0  0
M  END
>  <HBA>
2

>  <HBD>
2

>  <TPSA>
40.46

>  <cid>
11397

>  <dipole>
2.65

>  <excitation_energy_1>
4.113

>  <excitation_energy_2>
4.215

>  <excitation_energy_3>
4.861

>  <excitation_energy_4>
4.938

>  <homo_energy>
-5.418

>  <homo_lumo_gap>
4.572

>  <logP>
2.251

>  <lumo_energy>
-0.846

>  <melting_point>
129.6

>  <molecular_refractivity>
47.99

>  <oscillator_strength_1>
0.0414

>  <oscillator_strength_2>
0.0224

>  <oscillator_strength_3>
0.0

>  <oscillator_strength_4>
0.0014

>  <open_babel_can_smiles>
Oc1ccc2c(c1)cc(cc2)O

>  <mulliken_charges>
20
1   -0.198057
2   -0.198123
3   -0.19902
4   -0.198938
5   -0.247234
6   -0.247356
7   0.137577
8   0.143115
9   0.35457
10   0.354537
11   -0.64417
12   -0.644171
13   0.131198
14   0.131169
15   0.118194
16   0.118168
17   0.137225
18   0.137261
19   0.407027
20   0.407028

>  <lowdin_charges>
20
1   -0.140158
2   -0.140189
3   -0.214363
4   -0.214091
5   -0.200435
6   -0.200384
7   -0.026804
8   0.021347
9   0.103739
10   0.103469
11   -0.378813
12   -0.378573
13   0.156424
14   0.156419
15   0.153607
16   0.153401
17   0.165022
18   0.16501
19   0.357706
20   0.357665

$$$$

