PCCDB-ID:  10626
public computational chemistry database (PCCDB) project, http://pccdb.org

 24 25  0  0  1  0  0  0  0  0999 V2000
   -1.6853   -0.1587   -0.8673 C   0  0  0  0  0  0  0  0  0  0  0  0
    1.9886    0.0773   -0.2335 C   0  0  0  0  0  0  0  0  0  0  0  0
   -1.0720    1.1250   -0.3807 C   0  0  0  0  0  0  0  0  0  0  0  0
    1.2491    1.1880    0.5343 C   0  0  0  0  0  0  0  0  0  0  0  0
   -1.5248   -2.6609   -0.4401 C   0  0  0  0  0  0  0  0  0  0  0  0
   -1.1461   -1.2178   -0.2582 C   0  0  0  0  0  0  0  0  0  0  0  0
    1.3890   -1.2030    0.3724 C   0  0  2  0  0  0  0  0  0  0  0  0
   -0.0813   -0.7777    0.7208 C   0  0  1  0  0  0  0  0  0  0  0  0
   -0.1314    0.7091    0.6817 N   0  0  2  0  0  0  0  0  0  0  0  0
   -2.7035   -2.8496   -1.2090 O   0  0  0  0  0  0  0  0  0  0  0  0
    2.1031   -1.6694    1.5144 O   0  0  0  0  0  0  0  0  0  0  0  0
   -2.4723   -0.1969   -1.6133 H   0  0  0  0  0  0  0  0  0  0  0  0
    3.0782    0.0980   -0.1334 H   0  0  0  0  0  0  0  0  0  0  0  0
    1.7397    0.1371   -1.3004 H   0  0  0  0  0  0  0  0  0  0  0  0
   -1.8308    1.8190    0.0141 H   0  0  0  0  0  0  0  0  0  0  0  0
   -0.5603    1.6621   -1.1983 H   0  0  0  0  0  0  0  0  0  0  0  0
    1.2696    2.1614    0.0356 H   0  0  0  0  0  0  0  0  0  0  0  0
    1.6987    1.3354    1.5288 H   0  0  0  0  0  0  0  0  0  0  0  0
   -1.6066   -3.1449    0.5493 H   0  0  0  0  0  0  0  0  0  0  0  0
   -0.7360   -3.2030   -0.9772 H   0  0  0  0  0  0  0  0  0  0  0  0
    1.4149   -2.0429   -0.3268 H   0  0  0  0  0  0  0  0  0  0  0  0
   -0.2932   -1.1640    1.7315 H   0  0  0  0  0  0  0  0  0  0  0  0
   -3.4183   -2.3817   -0.7486 H   0  0  0  0  0  0  0  0  0  0  0  0
    2.0757   -0.9713    2.1885 H   0  0  0  0  0  0  0  0  0  0  0  0
  1  3  1  0  0  0  0
  1  6  2  0  0  0  0
  2 13  1  0  0  0  0
  2  7  1  0  0  0  0
  2  4  1  0  0  0  0
  3 15  1  0  0  0  0
  4  9  1  0  0  0  0
  4 18  1  0  0  0  0
  5  6  1  0  0  0  0
  5 19  1  0  0  0  0
  6  8  1  0  0  0  0
  7 21  1  6  0  0  0
  7  8  1  0  0  0  0
  7 11  1  0  0  0  0
  8 22  1  1  0  0  0
  9  3  1  6  0  0  0
  9  8  1  0  0  0  0
 10 23  1  0  0  0  0
 10  5  1  0  0  0  0
 11 24  1  0  0  0  0
 12  1  1  0  0  0  0
 14  2  1  0  0  0  0
 16  3  1  0  0  0  0
 17  4  1  0  0  0  0
 20  5  1  0  0  0  0
M  END
>  <HBA>
3

>  <HBD>
2

>  <TPSA>
43.7

>  <cid>
10626

>  <dipole>
1.95

>  <excitation_energy_1>
4.906

>  <excitation_energy_2>
5.085

>  <excitation_energy_3>
5.27

>  <excitation_energy_4>
5.553

>  <homo_energy>
-5.657

>  <homo_lumo_gap>
6.136

>  <logP>
-0.708

>  <lumo_energy>
0.479

>  <melting_point>
70.35

>  <molecular_refractivity>
45.0

>  <oscillator_strength_1>
0.0243

>  <oscillator_strength_2>
0.0011

>  <oscillator_strength_3>
0.0043

>  <oscillator_strength_4>
0.0037

>  <open_babel_can_smiles>
OCC1=CCN2[C@@H]1[C@H](O)CC2

>  <mulliken_charges>
24
1   -0.188558
2   -0.290716
3   -0.146641
4   -0.16304
5   -0.088985
6   0.112257
7   0.117703
8   -0.044116
9   -0.418662
10   -0.607732
11   -0.630201
12   0.135566
13   0.15019
14   0.144777
15   0.146855
16   0.133593
17   0.147776
18   0.130897
19   0.136458
20   0.16498
21   0.142955
22   0.136598
23   0.389325
24   0.388721

>  <lowdin_charges>
24
1   -0.192405
2   -0.308423
3   -0.193523
4   -0.209554
5   -0.132396
6   -0.045661
7   -0.016987
8   -0.082377
9   -0.197779
10   -0.459256
11   -0.459959
12   0.162085
13   0.153755
14   0.149971
15   0.144167
16   0.137446
17   0.149518
18   0.131627
19   0.135978
20   0.159628
21   0.149333
22   0.140586
23   0.344293
24   0.339934

$$$$

