PCCDB-ID:  17673
public computational chemistry database (PCCDB) project, http://pccdb.org

 16 16  0  0  0  0  0  0  0  0999 V2000
    1.0811    0.1108   -0.0805 C   0  0  0  0  0  0  0  0  0  0  0  0
    5.7321    1.5701   -0.0833 C   0  0  0  0  0  0  0  0  0  0  0  0
    3.3545   -1.2763   -0.2849 C   0  0  0  0  0  0  0  0  0  0  0  0
    2.5692    0.0004   -0.1392 C   0  0  0  0  0  0  0  0  0  0  0  0
    4.7958   -0.7569   -0.2782 C   0  0  0  0  0  0  0  0  0  0  0  0
    3.3316    1.0388   -0.0645 N   0  0  0  0  0  0  0  0  0  0  0  0
    4.6559    0.6093   -0.1460 N   0  0  0  0  0  0  0  0  0  0  0  0
    5.8430   -1.3740   -0.3666 O   0  0  0  0  0  0  0  0  0  0  0  0
    0.6765   -0.4451    0.7754 H   0  0  0  0  0  0  0  0  0  0  0  0
    0.6169   -0.3098   -0.9820 H   0  0  0  0  0  0  0  0  0  0  0  0
    0.7872    1.1596    0.0109 H   0  0  0  0  0  0  0  0  0  0  0  0
    6.6645    1.0090   -0.1706 H   0  0  0  0  0  0  0  0  0  0  0  0
    5.7154    2.1116    0.8686 H   0  0  0  0  0  0  0  0  0  0  0  0
    5.6577    2.2909   -0.9046 H   0  0  0  0  0  0  0  0  0  0  0  0
    3.1395   -1.8136   -1.2165 H   0  0  0  0  0  0  0  0  0  0  0  0
    3.1915   -1.9833    0.5375 H   0  0  0  0  0  0  0  0  0  0  0  0
  1 11  1  0  0  0  0
  1  9  1  0  0  0  0
  2 13  1  0  0  0  0
  3  5  1  0  0  0  0
  3  4  1  0  0  0  0
  3 16  1  0  0  0  0
  4  1  1  0  0  0  0
  4  6  2  0  0  0  0
  5  7  1  0  0  0  0
  7  2  1  0  0  0  0
  7  6  1  0  0  0  0
  8  5  2  0  0  0  0
 10  1  1  0  0  0  0
 12  2  1  0  0  0  0
 14  2  1  0  0  0  0
 15  3  1  0  0  0  0
M  END
>  <HBA>
3

>  <HBD>
0

>  <TPSA>
32.67

>  <cid>
17673

>  <dipole>
2.64

>  <excitation_energy_1>
4.846

>  <excitation_energy_2>
4.853

>  <excitation_energy_3>
5.56

>  <excitation_energy_4>
6.103

>  <homo_energy>
-6.12

>  <homo_lumo_gap>
5.527

>  <logP>
-0.402

>  <lumo_energy>
-0.593

>  <melting_point>
38.57

>  <molecular_refractivity>
38.06

>  <oscillator_strength_1>
0.0016

>  <oscillator_strength_2>
0.1353

>  <oscillator_strength_3>
0.0011

>  <oscillator_strength_4>
0.0155

>  <open_babel_can_smiles>
CC1=NN(C(=O)C1)C

>  <mulliken_charges>
16
1   -0.517297
2   -0.310615
3   -0.472037
4   0.3453
5   0.609997
6   -0.28603
7   -0.304611
8   -0.508915
9   0.165673
10   0.16511
11   0.182823
12   0.19376
13   0.169047
14   0.169193
15   0.199327
16   0.199274

>  <lowdin_charges>
16
1   -0.443078
2   -0.350794
3   -0.324102
4   0.028653
5   0.149234
6   -0.108618
7   -0.044516
8   -0.291278
9   0.165529
10   0.164993
11   0.174069
12   0.180712
13   0.159889
14   0.160764
15   0.189105
16   0.189437

$$$$

