PCCDB-ID:  28027
public computational chemistry database (PCCDB) project, http://pccdb.org

 29 28  0  0  0  0  0  0  0  0999 V2000
    3.2178    1.2266    0.6385 C   0  0  0  0  0  0  0  0  0  0  0  0
    1.7309    0.4911   -2.5808 C   0  0  0  0  0  0  0  0  0  0  0  0
    5.6892   -1.3496    0.2984 C   0  0  0  0  0  0  0  0  0  0  0  0
    5.9665   -1.1394   -2.1806 C   0  0  0  0  0  0  0  0  0  0  0  0
    3.1307   -2.1165   -1.4219 C   0  0  0  0  0  0  0  0  0  0  0  0
    2.8951   -0.1928    0.1529 C   0  0  0  0  0  0  0  0  0  0  0  0
    3.2272    0.2375   -2.3458 C   0  0  0  0  0  0  0  0  0  0  0  0
    5.1740   -0.6281   -0.9614 C   0  0  0  0  0  0  0  0  0  0  0  0
    3.6109   -0.6755   -1.1420 C   0  0  0  0  0  0  0  0  0  0  0  0
    2.6341    1.4613    1.5362 H   0  0  0  0  0  0  0  0  0  0  0  0
    2.9747    1.9831   -0.1160 H   0  0  0  0  0  0  0  0  0  0  0  0
    4.2754    1.3470    0.8976 H   0  0  0  0  0  0  0  0  0  0  0  0
    1.5910    1.0759   -3.4975 H   0  0  0  0  0  0  0  0  0  0  0  0
    1.2691    1.0551   -1.7633 H   0  0  0  0  0  0  0  0  0  0  0  0
    1.1679   -0.4408   -2.7024 H   0  0  0  0  0  0  0  0  0  0  0  0
    6.7807   -1.2622    0.3571 H   0  0  0  0  0  0  0  0  0  0  0  0
    5.4526   -2.4202    0.2820 H   0  0  0  0  0  0  0  0  0  0  0  0
    5.2804   -0.9305    1.2228 H   0  0  0  0  0  0  0  0  0  0  0  0
    7.0400   -0.9889   -2.0156 H   0  0  0  0  0  0  0  0  0  0  0  0
    5.7053   -0.6171   -3.1057 H   0  0  0  0  0  0  0  0  0  0  0  0
    5.8128   -2.2125   -2.3447 H   0  0  0  0  0  0  0  0  0  0  0  0
    2.0380   -2.1591   -1.4907 H   0  0  0  0  0  0  0  0  0  0  0  0
    3.4262   -2.8031   -0.6207 H   0  0  0  0  0  0  0  0  0  0  0  0
    3.5338   -2.5054   -2.3632 H   0  0  0  0  0  0  0  0  0  0  0  0
    1.8126   -0.2674   -0.0102 H   0  0  0  0  0  0  0  0  0  0  0  0
    3.1100   -0.9027    0.9611 H   0  0  0  0  0  0  0  0  0  0  0  0
    3.7322    1.2068   -2.2335 H   0  0  0  0  0  0  0  0  0  0  0  0
    3.6371   -0.2064   -3.2608 H   0  0  0  0  0  0  0  0  0  0  0  0
    5.4326    0.4345   -0.8459 H   0  0  0  0  0  0  0  0  0  0  0  0
  1 12  1  0  0  0  0
  1 10  1  0  0  0  0
  2  7  1  0  0  0  0
  2 14  1  0  0  0  0
  3 16  1  0  0  0  0
  3 18  1  0  0  0  0
  4 19  1  0  0  0  0
  4  8  1  0  0  0  0
  5  9  1  0  0  0  0
  5 23  1  0  0  0  0
  6  1  1  0  0  0  0
  6 26  1  0  0  0  0
  7 27  1  0  0  0  0
  7  9  1  0  0  0  0
  8 29  1  0  0  0  0
  8  3  1  0  0  0  0
  9  8  1  0  0  0  0
  9  6  1  0  0  0  0
 11  1  1  0  0  0  0
 13  2  1  0  0  0  0
 15  2  1  0  0  0  0
 17  3  1  0  0  0  0
 20  4  1  0  0  0  0
 21  4  1  0  0  0  0
 22  5  1  0  0  0  0
 24  5  1  0  0  0  0
 25  6  1  0  0  0  0
 28  7  1  0  0  0  0
M  END
>  <HBA>
0

>  <HBD>
0

>  <TPSA>
0.0

>  <cid>
28027

>  <dipole>
0.07

>  <excitation_energy_1>
7.336

>  <excitation_energy_2>
7.412

>  <excitation_energy_3>
7.641

>  <excitation_energy_4>
7.708

>  <homo_energy>
-7.845

>  <homo_lumo_gap>
9.872

>  <logP>
3.469

>  <lumo_energy>
2.027

>  <melting_point>
-9.87

>  <molecular_refractivity>
45.12

>  <oscillator_strength_1>
0.0021

>  <oscillator_strength_2>
0.0056

>  <oscillator_strength_3>
0.0052

>  <oscillator_strength_4>
0.0167

>  <open_babel_can_smiles>
CCC(C(C)C)(CC)C

>  <mulliken_charges>
29
1   -0.458244
2   -0.457821
3   -0.459878
4   -0.458224
5   -0.467117
6   -0.266754
7   -0.264141
8   -0.069227
9   0.117832
10   0.141006
11   0.14633
12   0.147219
13   0.14073
14   0.147251
15   0.145146
16   0.138117
17   0.141775
18   0.146006
19   0.137794
20   0.144781
21   0.142483
22   0.14023
23   0.140383
24   0.140597
25   0.131196
26   0.131341
27   0.128229
28   0.132295
29   0.120664

>  <lowdin_charges>
29
1   -0.450989
2   -0.45154
3   -0.446477
4   -0.446007
5   -0.447533
6   -0.277475
7   -0.278018
8   -0.122285
9   0.006953
10   0.150737
11   0.148662
12   0.146429
13   0.150356
14   0.148546
15   0.14753
16   0.146465
17   0.144429
18   0.14929
19   0.146193
20   0.148894
21   0.144676
22   0.145905
23   0.148223
24   0.147433
25   0.140275
26   0.142507
27   0.139158
28   0.142864
29   0.134799

$$$$

