PCCDB-ID:  6780
public computational chemistry database (PCCDB) project, http://pccdb.org

 24 26  0  0  0  0  0  0  0  0999 V2000
    3.6955    0.7094   -0.0008 C   0  0  0  0  0  0  0  0  0  0  0  0
    3.6950   -0.6905   -0.0016 C   0  0  0  0  0  0  0  0  0  0  0  0
   -3.6948    0.7119   -0.0002 C   0  0  0  0  0  0  0  0  0  0  0  0
   -3.6953   -0.6881   -0.0004 C   0  0  0  0  0  0  0  0  0  0  0  0
    2.4913    1.4084   -0.0008 C   0  0  0  0  0  0  0  0  0  0  0  0
    2.4904   -1.3887   -0.0012 C   0  0  0  0  0  0  0  0  0  0  0  0
   -2.4902    1.4101    0.0007 C   0  0  0  0  0  0  0  0  0  0  0  0
   -2.4911   -1.3870   -0.0001 C   0  0  0  0  0  0  0  0  0  0  0  0
    1.2757    0.7147   -0.0011 C   0  0  0  0  0  0  0  0  0  0  0  0
    1.2753   -0.6942   -0.0011 C   0  0  0  0  0  0  0  0  0  0  0  0
   -1.2750    0.7156    0.0007 C   0  0  0  0  0  0  0  0  0  0  0  0
   -1.2755   -0.6933    0.0002 C   0  0  0  0  0  0  0  0  0  0  0  0
    0.0006    1.4891    0.0006 C   0  0  0  0  0  0  0  0  0  0  0  0
   -0.0004   -1.4677   -0.0005 C   0  0  0  0  0  0  0  0  0  0  0  0
    0.0010    2.7155    0.0021 O   0  0  0  0  0  0  0  0  0  0  0  0
   -0.0008   -2.6941   -0.0007 O   0  0  0  0  0  0  0  0  0  0  0  0
    4.6366    1.2524    0.0007 H   0  0  0  0  0  0  0  0  0  0  0  0
    4.6358   -1.2341   -0.0028 H   0  0  0  0  0  0  0  0  0  0  0  0
   -4.6356    1.2555   -0.0010 H   0  0  0  0  0  0  0  0  0  0  0  0
   -4.6364   -1.2310   -0.0009 H   0  0  0  0  0  0  0  0  0  0  0  0
    2.4650    2.4931   -0.0005 H   0  0  0  0  0  0  0  0  0  0  0  0
    2.4633   -2.4734    0.0003 H   0  0  0  0  0  0  0  0  0  0  0  0
   -2.4631    2.4947    0.0014 H   0  0  0  0  0  0  0  0  0  0  0  0
   -2.4648   -2.4717   -0.0001 H   0  0  0  0  0  0  0  0  0  0  0  0
  1  5  2  0  0  0  0
  1 17  1  0  0  0  0
  2  6  2  0  0  0  0
  2  1  1  0  0  0  0
  3  7  1  0  0  0  0
  4  3  2  0  0  0  0
  4  8  1  0  0  0  0
  5 21  1  0  0  0  0
  6 10  1  0  0  0  0
  6 22  1  0  0  0  0
  7 23  1  0  0  0  0
  8 12  2  0  0  0  0
  9  5  1  0  0  0  0
  9 13  1  0  0  0  0
 10  9  2  0  0  0  0
 10 14  1  0  0  0  0
 11  7  2  0  0  0  0
 12 11  1  0  0  0  0
 13 11  1  0  0  0  0
 13 15  2  0  0  0  0
 14 12  1  0  0  0  0
 16 14  2  0  0  0  0
 18  2  1  0  0  0  0
 19  3  1  0  0  0  0
 20  4  1  0  0  0  0
 24  8  1  0  0  0  0
M  END
>  <HBA>
2

>  <HBD>
0

>  <TPSA>
34.14

>  <cid>
6780

>  <dipole>
0.0

>  <excitation_energy_1>
2.952

>  <excitation_energy_2>
3.223

>  <excitation_energy_3>
3.641

>  <excitation_energy_4>
3.817

>  <homo_energy>
-6.996

>  <homo_lumo_gap>
4.204

>  <logP>
2.462

>  <lumo_energy>
-2.792

>  <melting_point>
122.88

>  <molecular_refractivity>
59.75

>  <oscillator_strength_1>
0.0

>  <oscillator_strength_2>
0.0

>  <oscillator_strength_3>
0.0

>  <oscillator_strength_4>
0.1181

>  <open_babel_can_smiles>
O=C1c2ccccc2C(=O)c2c1cccc2

>  <mulliken_charges>
24
1   -0.124678
2   -0.12482
3   -0.124666
4   -0.124806
5   -0.172385
6   -0.172385
7   -0.172415
8   -0.172392
9   0.047384
10   0.047542
11   0.047397
12   0.047523
13   0.347448
14   0.347453
15   -0.47821
16   -0.478206
17   0.146067
18   0.14607
19   0.146065
20   0.146067
21   0.168984
22   0.168991
23   0.168981
24   0.168989

>  <lowdin_charges>
24
1   -0.13876
2   -0.13877
3   -0.138765
4   -0.138765
5   -0.124836
6   -0.124836
7   -0.124837
8   -0.124836
9   -0.036126
10   -0.036121
11   -0.036124
12   -0.036123
13   0.150853
14   0.150853
15   -0.238943
16   -0.238943
17   0.165955
18   0.165959
19   0.165959
20   0.165955
21   0.177812
22   0.177813
23   0.177812
24   0.177812

$$$$

