PCCDB-ID:  9727
public computational chemistry database (PCCDB) project, http://pccdb.org

 24 24  0  0  0  0  0  0  0  0999 V2000
    0.9751   -0.1802    0.1433 C   0  0  0  0  0  0  0  0  0  0  0  0
    4.9655    3.7393   -0.9734 C   0  0  0  0  0  0  0  0  0  0  0  0
    5.0353    2.4045   -2.9636 C   0  0  0  0  0  0  0  0  0  0  0  0
    5.3456    4.8636   -1.7067 C   0  0  0  0  0  0  0  0  0  0  0  0
    5.4147    3.5152   -3.7120 C   0  0  0  0  0  0  0  0  0  0  0  0
    4.3468    1.2870   -0.7859 C   0  0  0  0  0  0  0  0  0  0  0  0
    2.8166    1.1432   -0.7419 C   0  0  0  0  0  0  0  0  0  0  0  0
    4.8023    2.4898   -1.5828 C   0  0  0  0  0  0  0  0  0  0  0  0
    5.5701    4.7540   -3.0820 C   0  0  0  0  0  0  0  0  0  0  0  0
    2.4203    0.0064    0.0834 N   0  0  0  0  0  0  0  0  0  0  0  0
    5.9470    5.8166   -3.8596 O   0  0  0  0  0  0  0  0  0  0  0  0
    0.7454   -1.0790    0.7252 H   0  0  0  0  0  0  0  0  0  0  0  0
    0.4841   -0.2720   -0.8444 H   0  0  0  0  0  0  0  0  0  0  0  0
    0.5202    0.6748    0.6578 H   0  0  0  0  0  0  0  0  0  0  0  0
    4.7989    3.8386    0.0971 H   0  0  0  0  0  0  0  0  0  0  0  0
    4.9234    1.4450   -3.4644 H   0  0  0  0  0  0  0  0  0  0  0  0
    5.4723    5.8237   -1.2086 H   0  0  0  0  0  0  0  0  0  0  0  0
    5.5986    3.4413   -4.7793 H   0  0  0  0  0  0  0  0  0  0  0  0
    4.7764    0.3723   -1.2189 H   0  0  0  0  0  0  0  0  0  0  0  0
    4.7130    1.3467    0.2457 H   0  0  0  0  0  0  0  0  0  0  0  0
    2.4238    1.0883   -1.7770 H   0  0  0  0  0  0  0  0  0  0  0  0
    2.3822    2.0496   -0.2988 H   0  0  0  0  0  0  0  0  0  0  0  0
    2.8483   -0.8384   -0.2940 H   0  0  0  0  0  0  0  0  0  0  0  0
    6.0214    6.6040   -3.2984 H   0  0  0  0  0  0  0  0  0  0  0  0
  1 14  1  0  0  0  0
  1 12  1  0  0  0  0
  2 15  1  0  0  0  0
  3  8  2  0  0  0  0
  4 17  1  0  0  0  0
  4  2  2  0  0  0  0
  5  9  2  0  0  0  0
  5  3  1  0  0  0  0
  6  7  1  0  0  0  0
  6 20  1  0  0  0  0
  7 22  1  0  0  0  0
  7 10  1  0  0  0  0
  8  2  1  0  0  0  0
  8  6  1  0  0  0  0
  9  4  1  0  0  0  0
 10  1  1  0  0  0  0
 11 24  1  0  0  0  0
 11  9  1  0  0  0  0
 13  1  1  0  0  0  0
 16  3  1  0  0  0  0
 18  5  1  0  0  0  0
 19  6  1  0  0  0  0
 21  7  1  0  0  0  0
 23 10  1  0  0  0  0
M  END
>  <HBA>
2

>  <HBD>
2

>  <TPSA>
32.26

>  <cid>
9727

>  <dipole>
0.57

>  <excitation_energy_1>
4.946

>  <excitation_energy_2>
5.097

>  <excitation_energy_3>
5.239

>  <excitation_energy_4>
5.305

>  <homo_energy>
-5.785

>  <homo_lumo_gap>
5.821

>  <logP>
1.545

>  <lumo_energy>
0.035

>  <melting_point>
73.98

>  <molecular_refractivity>
45.85

>  <oscillator_strength_1>
0.0319

>  <oscillator_strength_2>
0.0001

>  <oscillator_strength_3>
0.0051

>  <oscillator_strength_4>
0.003

>  <open_babel_can_smiles>
CNCCc1ccc(cc1)O

>  <mulliken_charges>
24
1   -0.298869
2   -0.188125
3   -0.186584
4   -0.193078
5   -0.157322
6   -0.358924
7   -0.106814
8   0.167831
9   0.347443
10   -0.539337
11   -0.644484
12   0.147122
13   0.119144
14   0.151213
15   0.12711
16   0.122615
17   0.116566
18   0.13771
19   0.132823
20   0.154474
21   0.112258
22   0.140684
23   0.290485
24   0.40606

>  <lowdin_charges>
24
1   -0.360397
2   -0.152843
3   -0.155263
4   -0.21401
5   -0.183492
6   -0.275324
7   -0.199435
8   -0.02109
9   0.099271
10   -0.36527
11   -0.381646
12   0.150325
13   0.120076
14   0.148916
15   0.154851
16   0.154881
17   0.152066
18   0.164688
19   0.143782
20   0.154362
21   0.115303
22   0.142627
23   0.250262
24   0.357358

$$$$

