PCCDB-ID:  6179
public computational chemistry database (PCCDB) project, http://pccdb.org

 22 22  0  0  1  0  0  0  0  0999 V2000
    1.1118   -0.0166    0.4400 C   0  0  0  0  0  0  0  0  0  0  0  0
    2.6739   -2.5264   -3.6766 C   0  0  0  0  0  0  0  0  0  0  0  0
    2.0981   -1.2573   -3.7746 C   0  0  0  0  0  0  0  0  0  0  0  0
    3.2145   -2.9459   -2.4603 C   0  0  0  0  0  0  0  0  0  0  0  0
    2.0576   -0.4161   -2.6625 C   0  0  0  0  0  0  0  0  0  0  0  0
    3.1774   -2.0998   -1.3502 C   0  0  0  0  0  0  0  0  0  0  0  0
    2.5050    0.0636   -0.2024 C   0  0  1  0  0  0  0  0  0  0  0  0
    2.5935   -0.8302   -1.4347 C   0  0  0  0  0  0  0  0  0  0  0  0
    4.2224    1.6316   -0.7909 N   0  0  0  0  0  0  0  0  0  0  0  0
    2.7704    1.4652   -0.5611 N   0  0  0  0  0  0  0  0  0  0  0  0
    0.8668   -1.0525    0.6931 H   0  0  0  0  0  0  0  0  0  0  0  0
    0.3491    0.3600   -0.2494 H   0  0  0  0  0  0  0  0  0  0  0  0
    1.0702    0.5768    1.3623 H   0  0  0  0  0  0  0  0  0  0  0  0
    2.7067   -3.1805   -4.5440 H   0  0  0  0  0  0  0  0  0  0  0  0
    1.6816   -0.9209   -4.7209 H   0  0  0  0  0  0  0  0  0  0  0  0
    3.6708   -3.9288   -2.3755 H   0  0  0  0  0  0  0  0  0  0  0  0
    1.6218    0.5762   -2.7339 H   0  0  0  0  0  0  0  0  0  0  0  0
    3.6082   -2.4275   -0.4062 H   0  0  0  0  0  0  0  0  0  0  0  0
    3.2505   -0.2956    0.5292 H   0  0  0  0  0  0  0  0  0  0  0  0
    4.2842    2.5025   -1.3244 H   0  0  0  0  0  0  0  0  0  0  0  0
    4.4424    0.9172   -1.4900 H   0  0  0  0  0  0  0  0  0  0  0  0
    2.6102    2.0050    0.2911 H   0  0  0  0  0  0  0  0  0  0  0  0
  1 11  1  0  0  0  0
  1 13  1  0  0  0  0
  2  4  1  0  0  0  0
  3  2  2  0  0  0  0
  3  5  1  0  0  0  0
  4 16  1  0  0  0  0
  4  6  2  0  0  0  0
  5  8  2  0  0  0  0
  6 18  1  0  0  0  0
  7  1  1  0  0  0  0
  7 19  1  1  0  0  0
  8  6  1  0  0  0  0
  8  7  1  0  0  0  0
  9 10  1  0  0  0  0
 10  7  1  0  0  0  0
 10 22  1  0  0  0  0
 12  1  1  0  0  0  0
 14  2  1  0  0  0  0
 15  3  1  0  0  0  0
 17  5  1  0  0  0  0
 20  9  1  0  0  0  0
 21  9  1  0  0  0  0
M  END
>  <HBA>
2

>  <HBD>
2

>  <TPSA>
38.05

>  <cid>
6179

>  <dipole>
0.47

>  <excitation_energy_1>
4.544

>  <excitation_energy_2>
4.65

>  <excitation_energy_3>
4.99

>  <excitation_energy_4>
5.314

>  <homo_energy>
-5.363

>  <homo_lumo_gap>
5.372

>  <logP>
2.302

>  <lumo_energy>
0.008

>  <melting_point>
87.91

>  <molecular_refractivity>
41.72

>  <oscillator_strength_1>
0.001

>  <oscillator_strength_2>
0.0001

>  <oscillator_strength_3>
0.0046

>  <oscillator_strength_4>
0.0001

>  <open_babel_can_smiles>
NN[C@H](c1ccccc1)C

>  <mulliken_charges>
22
1   -0.452102
2   -0.129367
3   -0.130816
4   -0.129101
5   -0.17215
6   -0.187137
7   -0.026929
8   0.135503
9   -0.602912
10   -0.4687
11   0.156434
12   0.161035
13   0.140237
14   0.127933
15   0.128495
16   0.128603
17   0.146375
18   0.125902
19   0.124278
20   0.304941
21   0.310117
22   0.309361

>  <lowdin_charges>
22
1   -0.443765
2   -0.160807
3   -0.156479
4   -0.155503
5   -0.16183
6   -0.168857
7   -0.068806
8   -0.018865
9   -0.501522
10   -0.316941
11   0.158688
12   0.158923
13   0.14736
14   0.157371
15   0.156653
16   0.15638
17   0.165269
18   0.155321
19   0.130632
20   0.254245
21   0.257563
22   0.254969

$$$$

