PCCDB-ID:  20653
public computational chemistry database (PCCDB) project, http://pccdb.org

 23 22  0  0  1  0  0  0  0  0999 V2000
    3.0277   -0.1327    1.2593 C   0  0  0  0  0  0  0  0  0  0  0  0
    3.9650   -4.4023   -2.2313 C   0  0  0  0  0  0  0  0  0  0  0  0
    2.4557   -0.6362   -0.0715 C   0  0  0  0  0  0  0  0  0  0  0  0
    2.7681   -2.1094   -0.3888 C   0  0  0  0  0  0  0  0  0  0  0  0
    4.2553   -2.3915   -0.6449 C   0  0  0  0  0  0  0  0  0  0  0  0
    4.5818   -3.8825   -0.9292 C   0  0  2  0  0  0  0  0  0  0  0  0
    6.1024   -4.0633   -0.9601 C   0  0  0  0  0  0  0  0  0  0  0  0
    6.7548   -4.2349   -1.9589 O   0  0  0  0  0  0  0  0  0  0  0  0
    6.7306   -3.9824    0.2496 O   0  0  0  0  0  0  0  0  0  0  0  0
    2.7292    0.9049    1.4456 H   0  0  0  0  0  0  0  0  0  0  0  0
    4.1231   -0.1633    1.2767 H   0  0  0  0  0  0  0  0  0  0  0  0
    2.6637   -0.7380    2.0993 H   0  0  0  0  0  0  0  0  0  0  0  0
    2.8735   -4.3340   -2.2050 H   0  0  0  0  0  0  0  0  0  0  0  0
    4.2376   -5.4482   -2.4001 H   0  0  0  0  0  0  0  0  0  0  0  0
    4.3344   -3.8260   -3.0849 H   0  0  0  0  0  0  0  0  0  0  0  0
    2.8231   -0.0041   -0.8921 H   0  0  0  0  0  0  0  0  0  0  0  0
    1.3651   -0.5107   -0.0577 H   0  0  0  0  0  0  0  0  0  0  0  0
    2.1850   -2.4073   -1.2685 H   0  0  0  0  0  0  0  0  0  0  0  0
    2.4158   -2.7405    0.4415 H   0  0  0  0  0  0  0  0  0  0  0  0
    4.8414   -2.0562    0.2209 H   0  0  0  0  0  0  0  0  0  0  0  0
    4.6048   -1.7915   -1.4966 H   0  0  0  0  0  0  0  0  0  0  0  0
    4.1948   -4.4784   -0.0866 H   0  0  0  0  0  0  0  0  0  0  0  0
    6.0740   -3.8689    0.9565 H   0  0  0  0  0  0  0  0  0  0  0  0
  1 11  1  0  0  0  0
  1 10  1  0  0  0  0
  1 12  1  0  0  0  0
  2 13  1  0  0  0  0
  2  6  1  0  0  0  0
  3 17  1  0  0  0  0
  3  1  1  0  0  0  0
  4  3  1  0  0  0  0
  4 19  1  0  0  0  0
  5  4  1  0  0  0  0
  5 20  1  0  0  0  0
  6  5  1  0  0  0  0
  6 22  1  1  0  0  0
  7  6  1  0  0  0  0
  7  9  1  0  0  0  0
  8  7  2  0  0  0  0
  9 23  1  0  0  0  0
 14  2  1  0  0  0  0
 15  2  1  0  0  0  0
 16  3  1  0  0  0  0
 18  4  1  0  0  0  0
 21  5  1  0  0  0  0
M  END
>  <HBA>
2

>  <HBD>
1

>  <TPSA>
37.3

>  <cid>
20653

>  <dipole>
4.4

>  <excitation_energy_1>
5.629

>  <excitation_energy_2>
6.336

>  <excitation_energy_3>
7.096

>  <excitation_energy_4>
7.294

>  <homo_energy>
-7.208

>  <homo_lumo_gap>
7.543

>  <logP>
1.897

>  <lumo_energy>
0.335

>  <melting_point>
49.93

>  <molecular_refractivity>
37.53

>  <oscillator_strength_1>
0.0025

>  <oscillator_strength_2>
0.0098

>  <oscillator_strength_3>
0.0016

>  <oscillator_strength_4>
0.0022

>  <open_babel_can_smiles>
C[C@@H](C(=O)O)CCCC

>  <mulliken_charges>
23
1   -0.447213
2   -0.444011
3   -0.251509
4   -0.255058
5   -0.265289
6   -0.20315
7   0.603079
8   -0.441209
9   -0.572666
10   0.149202
11   0.147202
12   0.140671
13   0.145117
14   0.160376
15   0.168793
16   0.136849
17   0.136954
18   0.142882
19   0.126139
20   0.129196
21   0.154305
22   0.131721
23   0.40762

>  <lowdin_charges>
23
1   -0.44581
2   -0.437892
3   -0.271433
4   -0.27872
5   -0.277648
6   -0.166012
7   0.196816
8   -0.239027
9   -0.363272
10   0.152649
11   0.144838
12   0.146493
13   0.149131
14   0.159937
15   0.16422
16   0.143413
17   0.143263
18   0.147673
19   0.137862
20   0.13955
21   0.152981
22   0.144314
23   0.356675

$$$$

