PCCDB-ID:  7259
public computational chemistry database (PCCDB) project, http://pccdb.org

 20 20  0  0  0  0  0  0  0  0999 V2000
    1.0421   -0.0199    0.0727 C   0  0  0  0  0  0  0  0  0  0  0  0
    6.8690   -0.1066   -0.5218 C   0  0  0  0  0  0  0  0  0  0  0  0
    3.2722    1.1599   -0.1884 C   0  0  0  0  0  0  0  0  0  0  0  0
    4.6605    1.1218   -0.3319 C   0  0  0  0  0  0  0  0  0  0  0  0
    3.2406   -1.2418   -0.1529 C   0  0  0  0  0  0  0  0  0  0  0  0
    2.5448   -0.0298   -0.0928 C   0  0  0  0  0  0  0  0  0  0  0  0
    5.3667   -0.0799   -0.3849 C   0  0  0  0  0  0  0  0  0  0  0  0
    4.6337   -1.2859   -0.2945 C   0  0  0  0  0  0  0  0  0  0  0  0
    5.3063   -2.5170   -0.2858 N   0  0  0  0  0  0  0  0  0  0  0  0
    0.6448    0.9992    0.0323 H   0  0  0  0  0  0  0  0  0  0  0  0
    0.7412   -0.4559    1.0341 H   0  0  0  0  0  0  0  0  0  0  0  0
    0.5458   -0.6032   -0.7130 H   0  0  0  0  0  0  0  0  0  0  0  0
    7.2807    0.9070   -0.5218 H   0  0  0  0  0  0  0  0  0  0  0  0
    7.1940   -0.5854   -1.4586 H   0  0  0  0  0  0  0  0  0  0  0  0
    7.3401   -0.6635    0.2992 H   0  0  0  0  0  0  0  0  0  0  0  0
    2.7565    2.1160   -0.1494 H   0  0  0  0  0  0  0  0  0  0  0  0
    5.2157    2.0550   -0.4032 H   0  0  0  0  0  0  0  0  0  0  0  0
    2.6898   -2.1794   -0.0825 H   0  0  0  0  0  0  0  0  0  0  0  0
    4.7165   -3.3106   -0.5068 H   0  0  0  0  0  0  0  0  0  0  0  0
    6.1594   -2.5405   -0.8312 H   0  0  0  0  0  0  0  0  0  0  0  0
  1 11  1  0  0  0  0
  2  7  1  0  0  0  0
  2 15  1  0  0  0  0
  3 16  1  0  0  0  0
  3  6  2  0  0  0  0
  4  3  1  0  0  0  0
  5  6  1  0  0  0  0
  5 18  1  0  0  0  0
  6  1  1  0  0  0  0
  7  4  2  0  0  0  0
  7  8  1  0  0  0  0
  8  9  1  0  0  0  0
  8  5  2  0  0  0  0
 10  1  1  0  0  0  0
 12  1  1  0  0  0  0
 13  2  1  0  0  0  0
 14  2  1  0  0  0  0
 17  4  1  0  0  0  0
 19  9  1  0  0  0  0
 20  9  1  0  0  0  0
M  END
>  <HBA>
1

>  <HBD>
1

>  <TPSA>
26.02

>  <cid>
7259

>  <dipole>
1.63

>  <excitation_energy_1>
4.624

>  <excitation_energy_2>
4.728

>  <excitation_energy_3>
5.29

>  <excitation_energy_4>
5.391

>  <homo_energy>
-5.265

>  <homo_lumo_gap>
5.627

>  <logP>
2.467

>  <lumo_energy>
0.362

>  <melting_point>
62.15

>  <molecular_refractivity>
40.78

>  <oscillator_strength_1>
0.0261

>  <oscillator_strength_2>
0.0369

>  <oscillator_strength_3>
0.0011

>  <oscillator_strength_4>
0.0106

>  <open_babel_can_smiles>
Cc1ccc(c(c1)N)C

>  <mulliken_charges>
20
1   -0.530909
2   -0.551879
3   -0.188586
4   -0.198047
5   -0.226173
6   0.175493
7   0.164444
8   0.245549
9   -0.791906
10   0.152656
11   0.159627
12   0.155641
13   0.158056
14   0.144598
15   0.166901
16   0.110746
17   0.114608
18   0.103214
19   0.31634
20   0.319628

>  <lowdin_charges>
20
1   -0.44237
2   -0.445631
3   -0.198481
4   -0.159207
5   -0.212162
6   0.006857
7   -0.04159
8   0.051065
9   -0.493528
10   0.15471
11   0.158653
12   0.157963
13   0.159221
14   0.147618
15   0.160598
16   0.15071
17   0.151582
18   0.146517
19   0.273293
20   0.274183

$$$$

