PCCDB-ID:  20735
public computational chemistry database (PCCDB) project, http://pccdb.org

 34 35  0  0  1  0  0  0  0  0999 V2000
    0.9914    0.0011    0.2209 C   0  0  0  0  0  0  0  0  0  0  0  0
    4.4834    1.6267   -0.6264 C   0  0  0  0  0  0  0  0  0  0  0  0
    4.0301    0.3243    4.2955 C   0  0  0  0  0  0  0  0  0  0  0  0
    1.4414    1.3072   -4.6989 C   0  0  0  0  0  0  0  0  0  0  0  0
    4.4284   -0.6914    3.4266 C   0  0  0  0  0  0  0  0  0  0  0  0
    3.1446    1.3049    3.8429 C   0  0  0  0  0  0  0  0  0  0  0  0
    1.0451    2.3234   -3.8295 C   0  0  0  0  0  0  0  0  0  0  0  0
    2.3260    0.3254   -4.2471 C   0  0  0  0  0  0  0  0  0  0  0  0
    3.9446   -0.7226    2.1170 C   0  0  0  0  0  0  0  0  0  0  0  0
    2.6630    1.2670    2.5346 C   0  0  0  0  0  0  0  0  0  0  0  0
    1.5298    2.3536   -2.5202 C   0  0  0  0  0  0  0  0  0  0  0  0
    2.8086    0.3625   -2.9392 C   0  0  0  0  0  0  0  0  0  0  0  0
    2.5204    0.1946    0.2211 C   0  0  1  0  0  0  0  0  0  0  0  0
    2.9543    1.4343   -0.6256 C   0  0  2  0  0  0  0  0  0  0  0  0
    3.0556    0.2528    1.6469 C   0  0  0  0  0  0  0  0  0  0  0  0
    2.4181    1.3772   -2.0511 C   0  0  0  0  0  0  0  0  0  0  0  0
    0.6113   -0.1430   -0.7948 H   0  0  0  0  0  0  0  0  0  0  0  0
    0.4799    0.8717    0.6489 H   0  0  0  0  0  0  0  0  0  0  0  0
    0.7147   -0.8727    0.8206 H   0  0  0  0  0  0  0  0  0  0  0  0
    4.8643    1.7701    0.3892 H   0  0  0  0  0  0  0  0  0  0  0  0
    4.7604    2.5005   -1.2258 H   0  0  0  0  0  0  0  0  0  0  0  0
    4.9940    0.7559   -1.0550 H   0  0  0  0  0  0  0  0  0  0  0  0
    4.4046    0.3527    5.3153 H   0  0  0  0  0  0  0  0  0  0  0  0
    1.0659    1.2794   -5.7184 H   0  0  0  0  0  0  0  0  0  0  0  0
    5.1169   -1.4613    3.7657 H   0  0  0  0  0  0  0  0  0  0  0  0
    2.8261    2.1011    4.5112 H   0  0  0  0  0  0  0  0  0  0  0  0
    0.3580    3.0947   -4.1683 H   0  0  0  0  0  0  0  0  0  0  0  0
    2.6432   -0.4708   -4.9159 H   0  0  0  0  0  0  0  0  0  0  0  0
    4.2615   -1.5191    1.4470 H   0  0  0  0  0  0  0  0  0  0  0  0
    1.9704    2.0368    2.2026 H   0  0  0  0  0  0  0  0  0  0  0  0
    1.2150    3.1507   -1.8501 H   0  0  0  0  0  0  0  0  0  0  0  0
    3.5007   -0.4080   -2.6080 H   0  0  0  0  0  0  0  0  0  0  0  0
    2.9656   -0.6911   -0.2535 H   0  0  0  0  0  0  0  0  0  0  0  0
    2.5101    2.3201   -0.1502 H   0  0  0  0  0  0  0  0  0  0  0  0
  1 13  1  0  0  0  0
  1 18  1  0  0  0  0
  1 19  1  0  0  0  0
  2 14  1  0  0  0  0
  2 20  1  0  0  0  0
  3 23  1  0  0  0  0
  4  8  2  0  0  0  0
  4  7  1  0  0  0  0
  5 25  1  0  0  0  0
  5  3  2  0  0  0  0
  6  3  1  0  0  0  0
  6 26  1  0  0  0  0
  7 11  2  0  0  0  0
  8 12  1  0  0  0  0
  9  5  1  0  0  0  0
 10  6  2  0  0  0  0
 11 16  1  0  0  0  0
 11 31  1  0  0  0  0
 12 32  1  0  0  0  0
 12 16  2  0  0  0  0
 13 33  1  6  0  0  0
 13 15  1  0  0  0  0
 14 34  1  1  0  0  0
 14 13  1  0  0  0  0
 15  9  2  0  0  0  0
 15 10  1  0  0  0  0
 16 14  1  0  0  0  0
 17  1  1  0  0  0  0
 21  2  1  0  0  0  0
 22  2  1  0  0  0  0
 24  4  1  0  0  0  0
 27  7  1  0  0  0  0
 28  8  1  0  0  0  0
 29  9  1  0  0  0  0
 30 10  1  0  0  0  0
M  END
>  <HBA>
0

>  <HBD>
0

>  <TPSA>
0.0

>  <cid>
20735

>  <dipole>
0.0

>  <excitation_energy_1>
5.257

>  <excitation_energy_2>
5.277

>  <excitation_energy_3>
5.628

>  <excitation_energy_4>
5.785

>  <homo_energy>
-6.275

>  <homo_lumo_gap>
6.226

>  <logP>
4.594

>  <lumo_energy>
-0.049

>  <melting_point>
35.55

>  <molecular_refractivity>
70.32

>  <oscillator_strength_1>
0.0044

>  <oscillator_strength_2>
0.0

>  <oscillator_strength_3>
0.1971

>  <oscillator_strength_4>
0.0

>  <open_babel_can_smiles>
C[C@H]([C@@H](c1ccccc1)C)c1ccccc1

>  <mulliken_charges>
34
1   -0.450571
2   -0.45059
3   -0.1317
4   -0.131694
5   -0.125821
6   -0.129989
7   -0.125822
8   -0.129989
9   -0.194982
10   -0.184998
11   -0.194994
12   -0.185008
13   -0.165052
14   -0.165121
15   0.181896
16   0.181931
17   0.159267
18   0.139973
19   0.148264
20   0.159261
21   0.148274
22   0.139955
23   0.127138
24   0.127135
25   0.127419
26   0.127492
27   0.127419
28   0.127493
29   0.122139
30   0.12505
31   0.122138
32   0.12505
33   0.124505
34   0.124532

>  <lowdin_charges>
34
1   -0.445509
2   -0.445513
3   -0.161151
4   -0.161155
5   -0.155986
6   -0.156085
7   -0.15598
8   -0.156084
9   -0.171901
10   -0.168589
11   -0.171898
12   -0.16859
13   -0.121244
14   -0.121253
15   0.001842
16   0.001853
17   0.157516
18   0.147079
19   0.153738
20   0.157511
21   0.153739
22   0.147065
23   0.155558
24   0.155562
25   0.157455
26   0.157334
27   0.157452
28   0.157333
29   0.154186
30   0.154524
31   0.154181
32   0.154523
33   0.141234
34   0.141251

$$$$

