PCCDB-ID:  27357
public computational chemistry database (PCCDB) project, http://pccdb.org

 10 10  0  0  0  0  0  0  0  0999 V2000
    0.3556    1.0720    0.0024 C   0  0  0  0  0  0  0  0  0  0  0  0
   -0.3496   -1.0550   -0.0962 C   0  0  0  0  0  0  0  0  0  0  0  0
   -1.0059    0.3429   -0.0467 C   0  0  0  0  0  0  0  0  0  0  0  0
    1.0118   -0.3260   -0.0464 C   0  0  0  0  0  0  0  0  0  0  0  0
   -2.1464    0.7210   -0.0465 O   0  0  0  0  0  0  0  0  0  0  0  0
    2.1524   -0.7041   -0.0454 O   0  0  0  0  0  0  0  0  0  0  0  0
    0.5455    1.6452    0.9184 H   0  0  0  0  0  0  0  0  0  0  0  0
    0.5699    1.7181   -0.8580 H   0  0  0  0  0  0  0  0  0  0  0  0
   -0.5392   -1.6272   -1.0129 H   0  0  0  0  0  0  0  0  0  0  0  0
   -0.5642   -1.7021    0.7634 H   0  0  0  0  0  0  0  0  0  0  0  0
  1  7  1  0  0  0  0
  2  3  1  0  0  0  0
  2  4  1  0  0  0  0
  2 10  1  0  0  0  0
  3  5  2  0  0  0  0
  3  1  1  0  0  0  0
  4  6  2  0  0  0  0
  4  1  1  0  0  0  0
  8  1  1  0  0  0  0
  9  2  1  0  0  0  0
M  END
>  <HBA>
2

>  <HBD>
0

>  <TPSA>
34.14

>  <cid>
27357

>  <dipole>
0.0

>  <excitation_energy_1>
3.614

>  <excitation_energy_2>
4.329

>  <excitation_energy_3>
5.116

>  <excitation_energy_4>
5.746

>  <homo_energy>
-6.778

>  <homo_lumo_gap>
5.105

>  <logP>
-0.082

>  <lumo_energy>
-1.674

>  <melting_point>
40.13

>  <molecular_refractivity>
19.63

>  <oscillator_strength_1>
0.0

>  <oscillator_strength_2>
0.0

>  <oscillator_strength_3>
0.0

>  <oscillator_strength_4>
0.0

>  <open_babel_can_smiles>
O=C1CC(=O)C1

>  <mulliken_charges>
10
1   -0.441472
2   -0.441573
3   0.432426
4   0.432493
5   -0.410749
6   -0.410746
7   0.209895
8   0.209909
9   0.209906
10   0.209912

>  <lowdin_charges>
10
1   -0.358866
2   -0.358879
3   0.158718
4   0.158724
5   -0.188815
6   -0.188814
7   0.194336
8   0.194629
9   0.194348
10   0.194618

$$$$

