PCCDB-ID:  25943
public computational chemistry database (PCCDB) project, http://pccdb.org

 19 20  0  0  0  0  0  0  0  0999 V2000
    2.0171   -1.3381   -0.1951 C   0  0  0  0  0  0  0  0  0  0  0  0
    2.9661    1.7834    1.4374 C   0  0  0  0  0  0  0  0  0  0  0  0
    3.6678    2.2971    2.5192 C   0  0  0  0  0  0  0  0  0  0  0  0
    4.9872   -0.5856    4.2408 C   0  0  0  0  0  0  0  0  0  0  0  0
    5.4321    0.4595    4.9836 C   0  0  0  0  0  0  0  0  0  0  0  0
    3.5117   -0.5206    2.0590 C   0  0  0  0  0  0  0  0  0  0  0  0
    4.2256   -0.0101    3.1582 C   0  0  0  0  0  0  0  0  0  0  0  0
    2.8862    0.3897    1.2073 C   0  0  0  0  0  0  0  0  0  0  0  0
    4.2860    1.3775    3.3611 C   0  0  0  0  0  0  0  0  0  0  0  0
    2.1586    0.0396    0.1009 O   0  0  0  0  0  0  0  0  0  0  0  0
    5.0264    1.6678    4.4799 O   0  0  0  0  0  0  0  0  0  0  0  0
    1.3986   -1.3910   -1.0932 H   0  0  0  0  0  0  0  0  0  0  0  0
    1.5178   -1.8785    0.6208 H   0  0  0  0  0  0  0  0  0  0  0  0
    2.9881   -1.8113   -0.3960 H   0  0  0  0  0  0  0  0  0  0  0  0
    2.4595    2.4408    0.7386 H   0  0  0  0  0  0  0  0  0  0  0  0
    3.7333    3.3648    2.7003 H   0  0  0  0  0  0  0  0  0  0  0  0
    5.1740   -1.6331    4.4329 H   0  0  0  0  0  0  0  0  0  0  0  0
    6.0333    0.5162    5.8790 H   0  0  0  0  0  0  0  0  0  0  0  0
    3.4574   -1.5894    1.8888 H   0  0  0  0  0  0  0  0  0  0  0  0
  1 10  1  0  0  0  0
  1 13  1  0  0  0  0
  2  3  1  0  0  0  0
  3 16  1  0  0  0  0
  3  9  2  0  0  0  0
  4 17  1  0  0  0  0
  4  5  2  0  0  0  0
  5 18  1  0  0  0  0
  6  7  2  0  0  0  0
  7  9  1  0  0  0  0
  7  4  1  0  0  0  0
  8  2  2  0  0  0  0
  8  6  1  0  0  0  0
  9 11  1  0  0  0  0
 10  8  1  0  0  0  0
 11  5  1  0  0  0  0
 12  1  1  0  0  0  0
 14  1  1  0  0  0  0
 15  2  1  0  0  0  0
 19  6  1  0  0  0  0
M  END
>  <HBA>
2

>  <HBD>
0

>  <TPSA>
22.37

>  <cid>
25943

>  <dipole>
1.87

>  <excitation_energy_1>
4.581

>  <excitation_energy_2>
5.11

>  <excitation_energy_3>
5.36

>  <excitation_energy_4>
5.647

>  <homo_energy>
-5.665

>  <homo_lumo_gap>
5.263

>  <logP>
2.441

>  <lumo_energy>
-0.403

>  <melting_point>
52.99

>  <molecular_refractivity>
42.71

>  <oscillator_strength_1>
0.0744

>  <oscillator_strength_2>
0.1582

>  <oscillator_strength_3>
0.0094

>  <oscillator_strength_4>
0.0023

>  <open_babel_can_smiles>
COc1ccc2c(c1)cco2

>  <mulliken_charges>
19
1   -0.210499
2   -0.188651
3   -0.178795
4   -0.220995
5   0.083486
6   -0.282144
7   0.125573
8   0.374131
9   0.302843
10   -0.511512
11   -0.478164
12   0.168207
13   0.149483
14   0.149393
15   0.140281
16   0.145178
17   0.142429
18   0.158056
19   0.1317

>  <lowdin_charges>
19
1   -0.278421
2   -0.18281
3   -0.162696
4   -0.214869
5   -0.056173
6   -0.221333
7   -0.020734
8   0.096996
9   0.065807
10   -0.203627
11   -0.114353
12   0.162046
13   0.144882
14   0.143473
15   0.170175
16   0.168807
17   0.169315
18   0.171563
19   0.16195

$$$$

