PCCDB-ID:  70096
public computational chemistry database (PCCDB) project, http://pccdb.org

 19 18  0  0  0  0  0  0  0  0999 V2000
    0.4661   -0.0123   -0.4715 C   0  0  0  0  0  0  0  0  0  0  0  0
   -2.6051    3.4230    1.0198 C   0  0  0  0  0  0  0  0  0  0  0  0
   -0.0696    0.7265    0.7550 C   0  0  0  0  0  0  0  0  0  0  0  0
   -2.3982    2.2435    0.0698 C   0  0  0  0  0  0  0  0  0  0  0  0
   -0.0524    0.5678   -1.7144 N   0  0  0  0  0  0  0  0  0  0  0  0
   -1.3745    3.7399    1.7510 N   0  0  0  0  0  0  0  0  0  0  0  0
   -1.9110    0.6740    0.9204 S   0  0  0  0  0  0  0  0  0  0  0  0
    0.2568   -1.0910   -0.3616 H   0  0  0  0  0  0  0  0  0  0  0  0
    1.5587    0.1012   -0.4767 H   0  0  0  0  0  0  0  0  0  0  0  0
   -3.4705    3.2116    1.6725 H   0  0  0  0  0  0  0  0  0  0  0  0
   -2.8710    4.2977    0.4108 H   0  0  0  0  0  0  0  0  0  0  0  0
    0.2296    1.7776    0.7412 H   0  0  0  0  0  0  0  0  0  0  0  0
    0.3287    0.2660    1.6655 H   0  0  0  0  0  0  0  0  0  0  0  0
   -1.6257    2.4671   -0.6703 H   0  0  0  0  0  0  0  0  0  0  0  0
   -3.3323    2.0271   -0.4596 H   0  0  0  0  0  0  0  0  0  0  0  0
   -1.0365    0.3159   -1.8026 H   0  0  0  0  0  0  0  0  0  0  0  0
    0.4198    0.1444   -2.5115 H   0  0  0  0  0  0  0  0  0  0  0  0
   -1.2103    3.0048    2.4384 H   0  0  0  0  0  0  0  0  0  0  0  0
   -1.5049    4.5990    2.2826 H   0  0  0  0  0  0  0  0  0  0  0  0
  1  8  1  0  0  0  0
  1  3  1  0  0  0  0
  2 10  1  0  0  0  0
  2  6  1  0  0  0  0
  3  7  1  0  0  0  0
  3 13  1  0  0  0  0
  4  7  1  0  0  0  0
  4  2  1  0  0  0  0
  5  1  1  0  0  0  0
  6 19  1  0  0  0  0
  6 18  1  0  0  0  0
  9  1  1  0  0  0  0
 11  2  1  0  0  0  0
 12  3  1  0  0  0  0
 14  4  1  0  0  0  0
 15  4  1  0  0  0  0
 16  5  1  0  0  0  0
 17  5  1  0  0  0  0
M  END
>  <HBA>
3

>  <HBD>
2

>  <TPSA>
77.34

>  <cid>
70096

>  <dipole>
0.08

>  <excitation_energy_1>
5.223

>  <excitation_energy_2>
5.302

>  <excitation_energy_3>
5.63

>  <excitation_energy_4>
5.871

>  <homo_energy>
-5.796

>  <homo_lumo_gap>
7.034

>  <logP>
1.038

>  <lumo_energy>
1.238

>  <melting_point>
92.23

>  <molecular_refractivity>
34.35

>  <oscillator_strength_1>
0.0

>  <oscillator_strength_2>
0.0279

>  <oscillator_strength_3>
0.0019

>  <oscillator_strength_4>
0.0548

>  <open_babel_can_smiles>
NCCSCCN

>  <mulliken_charges>
19
1   -0.124983
2   -0.125042
3   -0.41911
4   -0.420365
5   -0.71785
6   -0.717821
7   0.0326
8   0.125477
9   0.141928
10   0.124852
11   0.141884
12   0.207474
13   0.163655
14   0.209506
15   0.163057
16   0.309387
17   0.298243
18   0.309366
19   0.297741

>  <lowdin_charges>
19
1   -0.203347
2   -0.209114
3   -0.382214
4   -0.383868
5   -0.560043
6   -0.56187
7   0.055636
8   0.121661
9   0.143357
10   0.123913
11   0.146209
12   0.175478
13   0.162892
14   0.178546
15   0.162053
16   0.25751
17   0.257266
18   0.259483
19   0.25645

$$$$

