PCCDB-ID:  12674
public computational chemistry database (PCCDB) project, http://pccdb.org

 21 20  0  0  1  0  0  0  0  0999 V2000
    4.0872   -5.7002    1.6702 C   0  0  0  0  0  0  0  0  0  0  0  0
    1.2224   -2.1681   -2.3436 C   0  0  0  0  0  0  0  0  0  0  0  0
    2.3828   -2.4142    1.8933 C   0  0  0  0  0  0  0  0  0  0  0  0
    0.9595   -2.0961    1.3619 C   0  0  1  0  0  0  0  0  0  0  0  0
    2.6059   -3.9069    2.0376 C   0  0  0  0  0  0  0  0  0  0  0  0
    0.8187   -2.6373   -0.0677 C   0  0  0  0  0  0  0  0  0  0  0  0
   -0.0509   -2.5887    2.1983 O   0  0  0  0  0  0  0  0  0  0  0  0
    1.8033   -4.6759    2.5352 O   0  0  0  0  0  0  0  0  0  0  0  0
    0.4094   -3.7406   -0.3497 O   0  0  0  0  0  0  0  0  0  0  0  0
    3.8011   -4.2917    1.5609 O   0  0  0  0  0  0  0  0  0  0  0  0
    1.2597   -1.7358   -0.9715 O   0  0  0  0  0  0  0  0  0  0  0  0
    5.0778   -5.8288    1.2341 H   0  0  0  0  0  0  0  0  0  0  0  0
    3.3424   -6.2812    1.1214 H   0  0  0  0  0  0  0  0  0  0  0  0
    4.0829   -6.0096    2.7183 H   0  0  0  0  0  0  0  0  0  0  0  0
    1.6035   -1.3289   -2.9258 H   0  0  0  0  0  0  0  0  0  0  0  0
    0.1981   -2.4089   -2.6390 H   0  0  0  0  0  0  0  0  0  0  0  0
    1.8504   -3.0519   -2.4840 H   0  0  0  0  0  0  0  0  0  0  0  0
    2.4679   -1.9676    2.8911 H   0  0  0  0  0  0  0  0  0  0  0  0
    3.1501   -1.9735    1.2517 H   0  0  0  0  0  0  0  0  0  0  0  0
    0.8492   -1.0086    1.3258 H   0  0  0  0  0  0  0  0  0  0  0  0
    0.1412   -3.5362    2.3379 H   0  0  0  0  0  0  0  0  0  0  0  0
  1 14  1  0  0  0  0
  2 11  1  0  0  0  0
  3  5  1  0  0  0  0
  3 18  1  0  0  0  0
  4 20  1  6  0  0  0
  4  3  1  0  0  0  0
  4  7  1  0  0  0  0
  5  8  2  0  0  0  0
  6  4  1  0  0  0  0
  7 21  1  0  0  0  0
  9  6  2  0  0  0  0
 10  1  1  0  0  0  0
 10  5  1  0  0  0  0
 11  6  1  0  0  0  0
 12  1  1  0  0  0  0
 13  1  1  0  0  0  0
 15  2  1  0  0  0  0
 16  2  1  0  0  0  0
 17  2  1  0  0  0  0
 19  3  1  0  0  0  0
M  END
>  <HBA>
5

>  <HBD>
1

>  <TPSA>
72.83

>  <cid>
12674

>  <dipole>
4.04

>  <excitation_energy_1>
5.615

>  <excitation_energy_2>
5.737

>  <excitation_energy_3>
6.051

>  <excitation_energy_4>
6.503

>  <homo_energy>
-7.121

>  <homo_lumo_gap>
6.999

>  <logP>
-0.917

>  <lumo_energy>
-0.122

>  <melting_point>
16.94

>  <molecular_refractivity>
34.69

>  <oscillator_strength_1>
0.0037

>  <oscillator_strength_2>
0.0018

>  <oscillator_strength_3>
0.0058

>  <oscillator_strength_4>
0.0036

>  <open_babel_can_smiles>
COC(=O)C[C@@H](C(=O)OC)O

>  <mulliken_charges>
21
1   -0.226276
2   -0.221332
3   -0.380006
4   0.053169
5   0.630564
6   0.610885
7   -0.620156
8   -0.48621
9   -0.473819
10   -0.443858
11   -0.454813
12   0.169175
13   0.183717
14   0.175345
15   0.167068
16   0.177042
17   0.170219
18   0.195997
19   0.180273
20   0.165784
21   0.427236

>  <lowdin_charges>
21
1   -0.277119
2   -0.277594
3   -0.315209
4   -0.016482
5   0.202533
6   0.171734
7   -0.441868
8   -0.271583
9   -0.252952
10   -0.180727
11   -0.192564
12   0.162845
13   0.168267
14   0.161292
15   0.163109
16   0.162224
17   0.1598
18   0.18372
19   0.17536
20   0.16207
21   0.353144

$$$$

