PCCDB-ID:  65300
public computational chemistry database (PCCDB) project, http://pccdb.org

 33 32  0  0  0  0  0  0  0  0999 V2000
    0.8905    0.0581    0.5760 C   0  0  0  0  0  0  0  0  0  0  0  0
    2.9705   -1.2883    0.1732 C   0  0  0  0  0  0  0  0  0  0  0  0
    2.5764    3.0888    1.2978 C   0  0  0  0  0  0  0  0  0  0  0  0
    2.9120    3.7774   -1.0758 C   0  0  0  0  0  0  0  0  0  0  0  0
    2.5356    0.8469   -1.9486 C   0  0  0  0  0  0  0  0  0  0  0  0
    5.2000    0.7639    1.8612 C   0  0  0  0  0  0  0  0  0  0  0  0
    2.4272    0.1198    0.4834 C   0  0  0  0  0  0  0  0  0  0  0  0
    2.3909    2.6492   -0.1644 C   0  0  0  0  0  0  0  0  0  0  0  0
    4.5194    1.2780   -0.4428 C   0  0  0  0  0  0  0  0  0  0  0  0
    2.9714    1.2152   -0.5067 C   0  0  0  0  0  0  0  0  0  0  0  0
    5.3910    1.1268    0.4723 N   0  0  0  0  0  0  0  0  0  0  0  0
    5.0291    1.6138   -1.6706 O   0  0  0  0  0  0  0  0  0  0  0  0
    0.6015   -0.7052    1.3081 H   0  0  0  0  0  0  0  0  0  0  0  0
    0.4286   -0.2201   -0.3775 H   0  0  0  0  0  0  0  0  0  0  0  0
    0.4473    1.0038    0.9021 H   0  0  0  0  0  0  0  0  0  0  0  0
    2.7341   -1.9710    0.9978 H   0  0  0  0  0  0  0  0  0  0  0  0
    4.0568   -1.2912    0.0361 H   0  0  0  0  0  0  0  0  0  0  0  0
    2.5192   -1.7089   -0.7322 H   0  0  0  0  0  0  0  0  0  0  0  0
    2.0771    4.0513    1.4593 H   0  0  0  0  0  0  0  0  0  0  0  0
    3.6367    3.2302    1.5346 H   0  0  0  0  0  0  0  0  0  0  0  0
    2.1549    2.3809    2.0178 H   0  0  0  0  0  0  0  0  0  0  0  0
    2.3868    4.7090   -0.8342 H   0  0  0  0  0  0  0  0  0  0  0  0
    2.7508    3.5759   -2.1375 H   0  0  0  0  0  0  0  0  0  0  0  0
    3.9831    3.9523   -0.9300 H   0  0  0  0  0  0  0  0  0  0  0  0
    1.4434    0.8118   -2.0126 H   0  0  0  0  0  0  0  0  0  0  0  0
    2.9258   -0.1296   -2.2471 H   0  0  0  0  0  0  0  0  0  0  0  0
    2.8953    1.5667   -2.6816 H   0  0  0  0  0  0  0  0  0  0  0  0
    6.1397    0.9559    2.3909 H   0  0  0  0  0  0  0  0  0  0  0  0
    4.9835   -0.3071    1.9741 H   0  0  0  0  0  0  0  0  0  0  0  0
    4.4144    1.3257    2.3794 H   0  0  0  0  0  0  0  0  0  0  0  0
    2.7787    0.3791    1.4839 H   0  0  0  0  0  0  0  0  0  0  0  0
    1.3116    2.5683   -0.3511 H   0  0  0  0  0  0  0  0  0  0  0  0
    5.9924    1.6638   -1.5175 H   0  0  0  0  0  0  0  0  0  0  0  0
  1 15  1  0  0  0  0
  1 13  1  0  0  0  0
  2  7  1  0  0  0  0
  2 16  1  0  0  0  0
  3 19  1  0  0  0  0
  3 20  1  0  0  0  0
  3 21  1  0  0  0  0
  4 24  1  0  0  0  0
  4 22  1  0  0  0  0
  4  8  1  0  0  0  0
  5 10  1  0  0  0  0
  6 29  1  0  0  0  0
  6 30  1  0  0  0  0
  6 28  1  0  0  0  0
  7  1  1  0  0  0  0
  7 31  1  0  0  0  0
  8  3  1  0  0  0  0
  9 11  2  0  0  0  0
 10  9  1  0  0  0  0
 10  8  1  0  0  0  0
 10  7  1  0  0  0  0
 11  6  1  0  0  0  0
 12 33  1  0  0  0  0
 12  9  1  0  0  0  0
 14  1  1  0  0  0  0
 17  2  1  0  0  0  0
 18  2  1  0  0  0  0
 23  4  1  0  0  0  0
 25  5  1  0  0  0  0
 26  5  1  0  0  0  0
 27  5  1  0  0  0  0
 32  8  1  0  0  0  0
M  END
>  <HBA>
2

>  <HBD>
1

>  <TPSA>
29.1

>  <cid>
65300

>  <dipole>
1.22

>  <excitation_energy_1>
5.448

>  <excitation_energy_2>
6.054

>  <excitation_energy_3>
6.238

>  <excitation_energy_4>
6.288

>  <homo_energy>
-6.389

>  <homo_lumo_gap>
7.037

>  <logP>
2.442

>  <lumo_energy>
0.648

>  <melting_point>
38.04

>  <molecular_refractivity>
52.93

>  <oscillator_strength_1>
0.0006

>  <oscillator_strength_2>
0.0088

>  <oscillator_strength_3>
0.0561

>  <oscillator_strength_4>
0.0034

>  <open_babel_can_smiles>
C/N=C(\C(C(C)C)(C(C)C)C)/O

>  <mulliken_charges>
33
1   -0.463095
2   -0.465082
3   -0.464243
4   -0.449034
5   -0.468639
6   -0.32782
7   -0.082567
8   -0.082375
9   0.519428
10   0.031202
11   -0.491029
12   -0.599466
13   0.142516
14   0.147085
15   0.148463
16   0.139872
17   0.156508
18   0.146762
19   0.142768
20   0.156114
21   0.145405
22   0.135402
23   0.149641
24   0.153278
25   0.137628
26   0.15098
27   0.173495
28   0.154049
29   0.153719
30   0.147919
31   0.134272
32   0.130154
33   0.39669

>  <lowdin_charges>
33
1   -0.45062
2   -0.450863
3   -0.452677
4   -0.443991
5   -0.44617
6   -0.360636
7   -0.126522
8   -0.115643
9   0.141138
10   -0.00957
11   -0.255002
12   -0.374264
13   0.1522
14   0.148565
15   0.150203
16   0.150085
17   0.153217
18   0.149582
19   0.151082
20   0.152155
21   0.148898
22   0.14695
23   0.151104
24   0.150982
25   0.14482
26   0.154472
27   0.165233
28   0.150988
29   0.147519
30   0.14348
31   0.146299
32   0.13959
33   0.3474

$$$$

