PCCDB-ID:  11911
public computational chemistry database (PCCDB) project, http://pccdb.org

 19 20  0  0  0  0  0  0  0  0999 V2000
    2.3961   -0.6886   -0.0628 C   0  0  0  0  0  0  0  0  0  0  0  0
   -2.4332    0.6413   -0.0952 C   0  0  0  0  0  0  0  0  0  0  0  0
   -1.2802    1.3924   -0.1125 C   0  0  0  0  0  0  0  0  0  0  0  0
    2.4087    0.7236   -0.0593 C   0  0  0  0  0  0  0  0  0  0  0  0
    1.2134   -1.3913   -0.0324 C   0  0  0  0  0  0  0  0  0  0  0  0
   -2.3203   -0.7677   -0.0276 C   0  0  0  0  0  0  0  0  0  0  0  0
   -0.0210    0.7456   -0.0568 C   0  0  0  0  0  0  0  0  0  0  0  0
    1.2289    1.4502   -0.0463 C   0  0  0  0  0  0  0  0  0  0  0  0
   -0.0188   -0.6885   -0.0258 C   0  0  0  0  0  0  0  0  0  0  0  0
    1.2346    2.8516   -0.0849 N   0  0  0  0  0  0  0  0  0  0  0  0
   -1.1744   -1.4176   -0.0019 N   0  0  0  0  0  0  0  0  0  0  0  0
    3.3443   -1.2196   -0.0719 H   0  0  0  0  0  0  0  0  0  0  0  0
   -3.4124    1.1080   -0.1437 H   0  0  0  0  0  0  0  0  0  0  0  0
   -1.3362    2.4739   -0.1977 H   0  0  0  0  0  0  0  0  0  0  0  0
    3.3597    1.2519   -0.0557 H   0  0  0  0  0  0  0  0  0  0  0  0
    1.1818   -2.4753   -0.0168 H   0  0  0  0  0  0  0  0  0  0  0  0
   -3.2220   -1.3798   -0.0038 H   0  0  0  0  0  0  0  0  0  0  0  0
    2.1471    3.2540    0.0959 H   0  0  0  0  0  0  0  0  0  0  0  0
    0.5364    3.2932    0.5021 H   0  0  0  0  0  0  0  0  0  0  0  0
  1  4  2  0  0  0  0
  1  5  1  0  0  0  0
  2  6  1  0  0  0  0
  3  2  2  0  0  0  0
  3  7  1  0  0  0  0
  4 15  1  0  0  0  0
  4  8  1  0  0  0  0
  5  9  2  0  0  0  0
  5 16  1  0  0  0  0
  6 17  1  0  0  0  0
  6 11  2  0  0  0  0
  7  8  2  0  0  0  0
  7  9  1  0  0  0  0
  9 11  1  0  0  0  0
 10  8  1  0  0  0  0
 10 18  1  0  0  0  0
 10 19  1  0  0  0  0
 12  1  1  0  0  0  0
 13  2  1  0  0  0  0
 14  3  1  0  0  0  0
M  END
>  <HBA>
2

>  <HBD>
1

>  <TPSA>
38.91

>  <cid>
11911

>  <dipole>
3.41

>  <excitation_energy_1>
3.607

>  <excitation_energy_2>
4.245

>  <excitation_energy_3>
4.319

>  <excitation_energy_4>
4.685

>  <homo_energy>
-5.437

>  <homo_lumo_gap>
4.253

>  <logP>
2.398

>  <lumo_energy>
-1.184

>  <melting_point>
113.31

>  <molecular_refractivity>
46.15

>  <oscillator_strength_1>
0.0598

>  <oscillator_strength_2>
0.007

>  <oscillator_strength_3>
0.0021

>  <oscillator_strength_4>
0.0051

>  <open_babel_can_smiles>
Nc1cccc2c1cccn2

>  <mulliken_charges>
19
1   -0.142028
2   -0.153817
3   -0.153945
4   -0.181997
5   -0.144372
6   0.04429
7   0.128188
8   0.229177
9   0.221955
10   -0.786632
11   -0.497058
12   0.131013
13   0.134108
14   0.137099
15   0.116402
16   0.136425
17   0.137977
18   0.322074
19   0.321139

>  <lowdin_charges>
19
1   -0.142373
2   -0.185598
3   -0.130359
4   -0.209161
5   -0.177694
6   -0.086067
7   -0.042012
8   0.057251
9   0.050319
10   -0.490187
11   -0.150718
12   0.159837
13   0.162756
14   0.158257
15   0.153078
16   0.165741
17   0.15527
18   0.275367
19   0.276294

$$$$

