PCCDB-ID:  61634
public computational chemistry database (PCCDB) project, http://pccdb.org

 19 19  0  0  1  0  0  0  0  0999 V2000
    0.9337    0.1257    0.2157 C   0  0  0  0  0  0  0  0  0  0  0  0
    5.5878    0.8274   -0.7273 C   0  0  0  0  0  0  0  0  0  0  0  0
    3.0275    1.1090   -1.0051 C   0  0  0  0  0  0  0  0  0  0  0  0
    2.4317    0.0283   -0.0673 C   0  0  2  0  0  0  0  0  0  0  0  0
    4.3418    0.5207   -1.5823 C   0  0  2  0  0  0  0  0  0  0  0  0
    2.8501   -1.2827   -0.7211 C   0  0  0  0  0  0  0  0  0  0  0  0
    4.0883   -0.9842   -1.6181 C   0  0  0  0  0  0  0  0  0  0  0  0
    2.3339   -2.3699   -0.6053 O   0  0  0  0  0  0  0  0  0  0  0  0
    4.7215   -1.8266   -2.2107 O   0  0  0  0  0  0  0  0  0  0  0  0
    0.6945    1.0482    0.7552 H   0  0  0  0  0  0  0  0  0  0  0  0
    0.6019   -0.7265    0.8164 H   0  0  0  0  0  0  0  0  0  0  0  0
    0.3606    0.1195   -0.7185 H   0  0  0  0  0  0  0  0  0  0  0  0
    5.7905    1.9038   -0.7268 H   0  0  0  0  0  0  0  0  0  0  0  0
    6.4636    0.3081   -1.1288 H   0  0  0  0  0  0  0  0  0  0  0  0
    5.4547    0.5106    0.3140 H   0  0  0  0  0  0  0  0  0  0  0  0
    3.1910    2.0595   -0.4870 H   0  0  0  0  0  0  0  0  0  0  0  0
    2.3184    1.3029   -1.8201 H   0  0  0  0  0  0  0  0  0  0  0  0
    2.9779    0.0625    0.8909 H   0  0  0  0  0  0  0  0  0  0  0  0
    4.5301    0.8692   -2.6040 H   0  0  0  0  0  0  0  0  0  0  0  0
  1 10  1  0  0  0  0
  1 11  1  0  0  0  0
  2 13  1  0  0  0  0
  2 15  1  0  0  0  0
  3 16  1  0  0  0  0
  3  4  1  0  0  0  0
  4  1  1  0  0  0  0
  4 18  1  1  0  0  0
  5 19  1  6  0  0  0
  5  3  1  0  0  0  0
  5  2  1  0  0  0  0
  6  8  2  0  0  0  0
  6  4  1  0  0  0  0
  7  5  1  0  0  0  0
  7  6  1  0  0  0  0
  9  7  2  0  0  0  0
 12  1  1  0  0  0  0
 14  2  1  0  0  0  0
 17  3  1  0  0  0  0
M  END
>  <HBA>
2

>  <HBD>
0

>  <TPSA>
34.14

>  <cid>
61634

>  <dipole>
4.56

>  <excitation_energy_1>
2.295

>  <excitation_energy_2>
4.125

>  <excitation_energy_3>
5.524

>  <excitation_energy_4>
5.67

>  <homo_energy>
-6.267

>  <homo_lumo_gap>
3.837

>  <logP>
0.8

>  <lumo_energy>
-2.43

>  <melting_point>
38.13

>  <molecular_refractivity>
34.05

>  <oscillator_strength_1>
0.0002

>  <oscillator_strength_2>
0.0002

>  <oscillator_strength_3>
0.0023

>  <oscillator_strength_4>
0.0051

>  <open_babel_can_smiles>
C[C@@H]1C[C@H](C(=O)C1=O)C

>  <mulliken_charges>
19
1   -0.444572
2   -0.454909
3   -0.299094
4   -0.185305
5   -0.179627
6   0.395909
7   0.400017
8   -0.41709
9   -0.414864
10   0.149493
11   0.172708
12   0.153559
13   0.158961
14   0.175327
15   0.150255
16   0.150482
17   0.152178
18   0.169565
19   0.167008

>  <lowdin_charges>
19
1   -0.437932
2   -0.434176
3   -0.283399
4   -0.16333
5   -0.161695
6   0.121349
7   0.12491
8   -0.176496
9   -0.176236
10   0.155053
11   0.167341
12   0.154785
13   0.156298
14   0.166613
15   0.149268
16   0.153681
17   0.15216
18   0.165927
19   0.165879

$$$$

