PCCDB-ID:  40705
public computational chemistry database (PCCDB) project, http://pccdb.org

 23 24  0  0  0  0  0  0  0  0999 V2000
   -0.1810    3.0607   -2.2943 C   0  0  0  0  0  0  0  0  0  0  0  0
   -0.6577    2.2776   -1.2406 C   0  0  0  0  0  0  0  0  0  0  0  0
    1.1939    3.2280   -2.4639 C   0  0  0  0  0  0  0  0  0  0  0  0
    5.7606    2.4104    1.9824 C   0  0  0  0  0  0  0  0  0  0  0  0
    0.2345    1.6689   -0.3603 C   0  0  0  0  0  0  0  0  0  0  0  0
    2.0890    2.6217   -1.5822 C   0  0  0  0  0  0  0  0  0  0  0  0
    4.9018    1.3914    1.4891 C   0  0  0  0  0  0  0  0  0  0  0  0
    5.2310    3.6660    1.8418 C   0  0  0  0  0  0  0  0  0  0  0  0
    1.6192    1.8364   -0.5179 C   0  0  0  0  0  0  0  0  0  0  0  0
    3.7207    1.8719    0.9582 C   0  0  0  0  0  0  0  0  0  0  0  0
    2.5660    1.1493    0.4126 C   0  0  0  0  0  0  0  0  0  0  0  0
    2.2340   -0.0773    0.6681 N   0  0  0  0  0  0  0  0  0  0  0  0
    3.0886   -0.7191    1.5752 O   0  0  0  0  0  0  0  0  0  0  0  0
    3.6788    3.6293    1.0869 S   0  0  0  0  0  0  0  0  0  0  0  0
   -0.8776    3.5375   -2.9789 H   0  0  0  0  0  0  0  0  0  0  0  0
   -1.7272    2.1453   -1.1001 H   0  0  0  0  0  0  0  0  0  0  0  0
    1.5744    3.8265   -3.2872 H   0  0  0  0  0  0  0  0  0  0  0  0
    6.7315    2.2151    2.4247 H   0  0  0  0  0  0  0  0  0  0  0  0
   -0.1296    1.0593    0.4600 H   0  0  0  0  0  0  0  0  0  0  0  0
    3.1572    2.7447   -1.7307 H   0  0  0  0  0  0  0  0  0  0  0  0
    5.1365    0.3373    1.5204 H   0  0  0  0  0  0  0  0  0  0  0  0
    5.6688    4.6127    2.1302 H   0  0  0  0  0  0  0  0  0  0  0  0
    2.6741   -1.5930    1.6483 H   0  0  0  0  0  0  0  0  0  0  0  0
  1  2  1  0  0  0  0
  2 16  1  0  0  0  0
  2  5  2  0  0  0  0
  3  1  2  0  0  0  0
  3  6  1  0  0  0  0
  4 18  1  0  0  0  0
  5 19  1  0  0  0  0
  6  9  2  0  0  0  0
  7 21  1  0  0  0  0
  7  4  1  0  0  0  0
  8  4  2  0  0  0  0
  8 22  1  0  0  0  0
  9  5  1  0  0  0  0
  9 11  1  0  0  0  0
 10 14  1  0  0  0  0
 10  7  2  0  0  0  0
 11 12  2  0  0  0  0
 11 10  1  0  0  0  0
 12 13  1  0  0  0  0
 13 23  1  0  0  0  0
 14  8  1  0  0  0  0
 15  1  1  0  0  0  0
 17  3  1  0  0  0  0
 20  6  1  0  0  0  0
M  END
>  <HBA>
3

>  <HBD>
1

>  <TPSA>
60.83

>  <cid>
40705

>  <dipole>
0.58

>  <excitation_energy_1>
4.338

>  <excitation_energy_2>
4.659

>  <excitation_energy_3>
4.715

>  <excitation_energy_4>
4.875

>  <homo_energy>
-5.856

>  <homo_lumo_gap>
4.612

>  <logP>
2.975

>  <lumo_energy>
-1.244

>  <melting_point>
108.54

>  <molecular_refractivity>
58.19

>  <oscillator_strength_1>
0.1705

>  <oscillator_strength_2>
0.0306

>  <oscillator_strength_3>
0.0118

>  <oscillator_strength_4>
0.164

>  <open_babel_can_smiles>
O/N=C(\c1cccs1)/c1ccccc1

>  <mulliken_charges>
23
1   -0.122959
2   -0.135551
3   -0.134748
4   -0.10614
5   -0.146481
6   -0.164676
7   -0.093553
8   -0.339287
9   0.07841
10   -0.196261
11   0.245925
12   -0.248615
13   -0.501021
14   0.270621
15   0.131496
16   0.132518
17   0.132752
18   0.143449
19   0.144068
20   0.147696
21   0.16753
22   0.175037
23   0.419792

>  <lowdin_charges>
23
1   -0.153114
2   -0.154232
3   -0.156628
4   -0.182042
5   -0.144193
6   -0.152126
7   -0.161607
8   -0.314603
9   -0.010492
10   -0.176645
11   0.022756
12   -0.072734
13   -0.366162
14   0.325711
15   0.160126
16   0.157471
17   0.160073
18   0.166141
19   0.167941
20   0.164501
21   0.179181
22   0.183794
23   0.356882

$$$$

