PCCDB-ID:  36566
public computational chemistry database (PCCDB) project, http://pccdb.org

 25 26  0  0  0  0  0  0  0  0999 V2000
    1.7390   -0.3165    0.4243 C   0  0  0  0  0  0  0  0  0  0  0  0
    5.8876   -0.1847   -3.8461 C   0  0  0  0  0  0  0  0  0  0  0  0
    4.9390    0.0341   -2.8493 C   0  0  0  0  0  0  0  0  0  0  0  0
    3.8148   -3.3974   -1.9220 C   0  0  0  0  0  0  0  0  0  0  0  0
    2.9543   -2.5260   -0.9715 C   0  0  0  0  0  0  0  0  0  0  0  0
    5.5712   -2.6024   -3.6855 C   0  0  0  0  0  0  0  0  0  0  0  0
    2.7875   -0.0189   -0.6342 C   0  0  0  0  0  0  0  0  0  0  0  0
    4.6292   -2.3876   -2.6969 C   0  0  0  0  0  0  0  0  0  0  0  0
    6.1931   -1.4840   -4.2521 C   0  0  0  0  0  0  0  0  0  0  0  0
    4.3131   -1.0822   -2.2789 C   0  0  0  0  0  0  0  0  0  0  0  0
    3.3351   -1.1237   -1.2708 N   0  0  0  0  0  0  0  0  0  0  0  0
    7.1924   -1.6885   -5.3009 N   0  0  0  0  0  0  0  0  0  0  0  0
    3.1257    1.1241   -0.9064 O   0  0  0  0  0  0  0  0  0  0  0  0
    7.7261   -0.6925   -5.7929 O   0  0  0  0  0  0  0  0  0  0  0  0
    7.4449   -2.8491   -5.6346 O   0  0  0  0  0  0  0  0  0  0  0  0
    0.8803   -0.8536    0.0049 H   0  0  0  0  0  0  0  0  0  0  0  0
    1.4002    0.6366    0.8314 H   0  0  0  0  0  0  0  0  0  0  0  0
    2.1467   -0.9285    1.2374 H   0  0  0  0  0  0  0  0  0  0  0  0
    6.3975    0.6468   -4.3167 H   0  0  0  0  0  0  0  0  0  0  0  0
    4.6876    1.0309   -2.5189 H   0  0  0  0  0  0  0  0  0  0  0  0
    3.1873   -4.0067   -2.5818 H   0  0  0  0  0  0  0  0  0  0  0  0
    4.4524   -4.0895   -1.3609 H   0  0  0  0  0  0  0  0  0  0  0  0
    3.1534   -2.7520    0.0808 H   0  0  0  0  0  0  0  0  0  0  0  0
    1.8835   -2.6691   -1.1471 H   0  0  0  0  0  0  0  0  0  0  0  0
    5.8360   -3.5949   -4.0300 H   0  0  0  0  0  0  0  0  0  0  0  0
  1 17  1  0  0  0  0
  1 18  1  0  0  0  0
  2  3  1  0  0  0  0
  3 20  1  0  0  0  0
  3 10  2  0  0  0  0
  4 22  1  0  0  0  0
  4  5  1  0  0  0  0
  5 23  1  0  0  0  0
  6  8  2  0  0  0  0
  7  1  1  0  0  0  0
  8 10  1  0  0  0  0
  8  4  1  0  0  0  0
  9  2  2  0  0  0  0
  9  6  1  0  0  0  0
 10 11  1  0  0  0  0
 11  5  1  0  0  0  0
 11  7  1  0  0  0  0
 12  9  1  0  0  0  0
 13  7  2  0  0  0  0
 14 12  2  0  0  0  0
 15 12  2  0  0  0  0
 16  1  1  0  0  0  0
 19  2  1  0  0  0  0
 21  4  1  0  0  0  0
 24  5  1  0  0  0  0
 25  6  1  0  0  0  0
M  END
>  <HBA>
2

>  <HBD>
0

>  <TPSA>
66.13

>  <cid>
36566

>  <dipole>
7.44

>  <excitation_energy_1>
3.682

>  <excitation_energy_2>
3.739

>  <excitation_energy_3>
4.241

>  <excitation_energy_4>
4.249

>  <homo_energy>
-6.373

>  <homo_lumo_gap>
4.172

>  <logP>
2.092

>  <lumo_energy>
-2.201

>  <melting_point>
100.6

>  <molecular_refractivity>
60.27

>  <oscillator_strength_1>
0.3493

>  <oscillator_strength_2>
0.0006

>  <oscillator_strength_3>
0.0004

>  <oscillator_strength_4>
0.0197

>  <open_babel_can_smiles>
CC(=O)N1CCc2c1ccc(c2)N(=O)=O

>  <mulliken_charges>
25
1   -0.546364
2   -0.173837
3   -0.157705
4   -0.368671
5   -0.133136
6   -0.2305
7   0.574302
8   0.075245
9   0.282302
10   0.360478
11   -0.566889
12   0.372833
13   -0.479751
14   -0.403683
15   -0.40425
16   0.173561
17   0.196216
18   0.173729
19   0.184283
20   0.197039
21   0.178316
22   0.178381
23   0.170419
24   0.170271
25   0.17741

>  <lowdin_charges>
25
1   -0.472741
2   -0.131577
3   -0.174056
4   -0.278957
5   -0.182949
6   -0.143836
7   0.169618
8   -0.027032
9   -0.012111
10   0.072759
11   -0.079108
12   0.309223
13   -0.279785
14   -0.254437
15   -0.258525
16   0.170961
17   0.183943
18   0.171249
19   0.190102
20   0.193944
21   0.168954
22   0.168938
23   0.15489
24   0.154502
25   0.186031

$$$$

