PCCDB-ID:  69255
public computational chemistry database (PCCDB) project, http://pccdb.org

 25 25  0  0  0  0  0  0  0  0999 V2000
    4.4953    2.8034   -3.5120 C   0  0  0  0  0  0  0  0  0  0  0  0
    3.8543    2.7732   -2.1339 C   0  0  0  0  0  0  0  0  0  0  0  0
    6.3466    0.8635    0.6575 C   0  0  0  0  0  0  0  0  0  0  0  0
    5.4062   -1.2831    0.0419 C   0  0  0  0  0  0  0  0  0  0  0  0
    7.1322   -1.1664    1.7599 C   0  0  0  0  0  0  0  0  0  0  0  0
    5.4613    0.1055   -0.1149 C   0  0  0  0  0  0  0  0  0  0  0  0
    7.1627    0.2120    1.5783 C   0  0  0  0  0  0  0  0  0  0  0  0
    6.2405   -1.8899    0.9738 C   0  0  0  0  0  0  0  0  0  0  0  0
    4.5468    0.7276   -1.1276 C   0  0  0  0  0  0  0  0  0  0  0  0
    8.0965    1.0164    2.3925 N   0  0  0  0  0  0  0  0  0  0  0  0
    6.1835   -3.3574    1.1400 N   0  0  0  0  0  0  0  0  0  0  0  0
    3.7715    0.0856   -1.8061 O   0  0  0  0  0  0  0  0  0  0  0  0
    8.1071    2.2299    2.2008 O   0  0  0  0  0  0  0  0  0  0  0  0
    8.7988    0.4202    3.2047 O   0  0  0  0  0  0  0  0  0  0  0  0
    5.3929   -3.9747    0.4319 O   0  0  0  0  0  0  0  0  0  0  0  0
    6.9315   -3.8584    1.9756 O   0  0  0  0  0  0  0  0  0  0  0  0
    4.6914    2.0626   -1.1805 O   0  0  0  0  0  0  0  0  0  0  0  0
    3.8825    3.4104   -4.1879 H   0  0  0  0  0  0  0  0  0  0  0  0
    4.5676    1.7950   -3.9287 H   0  0  0  0  0  0  0  0  0  0  0  0
    5.4965    3.2437   -3.4672 H   0  0  0  0  0  0  0  0  0  0  0  0
    2.8739    2.2925   -2.1577 H   0  0  0  0  0  0  0  0  0  0  0  0
    3.7606    3.7743   -1.7079 H   0  0  0  0  0  0  0  0  0  0  0  0
    6.4047    1.9382    0.5489 H   0  0  0  0  0  0  0  0  0  0  0  0
    4.7211   -1.8713   -0.5562 H   0  0  0  0  0  0  0  0  0  0  0  0
    7.7730   -1.6560    2.4805 H   0  0  0  0  0  0  0  0  0  0  0  0
  1 20  1  0  0  0  0
  1  2  1  0  0  0  0
  2 22  1  0  0  0  0
  2 17  1  0  0  0  0
  3  7  2  0  0  0  0
  4  8  1  0  0  0  0
  5 25  1  0  0  0  0
  6  4  2  0  0  0  0
  6  3  1  0  0  0  0
  7  5  1  0  0  0  0
  7 10  1  0  0  0  0
  8 11  1  0  0  0  0
  8  5  2  0  0  0  0
  9  6  1  0  0  0  0
 10 14  2  0  0  0  0
 11 16  2  0  0  0  0
 12  9  2  0  0  0  0
 13 10  2  0  0  0  0
 15 11  2  0  0  0  0
 17  9  1  0  0  0  0
 18  1  1  0  0  0  0
 19  1  1  0  0  0  0
 21  2  1  0  0  0  0
 23  3  1  0  0  0  0
 24  4  1  0  0  0  0
M  END
>  <HBA>
2

>  <HBD>
0

>  <TPSA>
117.94

>  <cid>
69255

>  <dipole>
4.74

>  <excitation_energy_1>
3.727

>  <excitation_energy_2>
3.729

>  <excitation_energy_3>
4.164

>  <excitation_energy_4>
4.206

>  <homo_energy>
-8.253

>  <homo_lumo_gap>
5.061

>  <logP>
2.726

>  <lumo_energy>
-3.192

>  <melting_point>
108.19

>  <molecular_refractivity>
60.17

>  <oscillator_strength_1>
0.0

>  <oscillator_strength_2>
0.0

>  <oscillator_strength_3>
0.0002

>  <oscillator_strength_4>
0.0002

>  <open_babel_can_smiles>
CCOC(=O)c1cc(cc(c1)N(=O)=O)N(=O)=O

>  <mulliken_charges>
25
1   -0.465017
2   -0.050179
3   -0.162099
4   -0.158649
5   -0.165218
6   0.016376
7   0.266357
8   0.265328
9   0.628961
10   0.39013
11   0.389565
12   -0.477888
13   -0.3823
14   -0.378895
15   -0.378983
16   -0.379186
17   -0.47749
18   0.160419
19   0.179544
20   0.163682
21   0.179685
22   0.164517
23   0.216196
24   0.222966
25   0.232176

>  <lowdin_charges>
25
1   -0.45412
2   -0.123743
3   -0.101486
4   -0.095383
5   -0.108883
6   -0.031926
7   0.005768
8   0.007509
9   0.199048
10   0.307615
11   0.31184
12   -0.256393
13   -0.229961
14   -0.229433
15   -0.22964
16   -0.231635
17   -0.184374
18   0.165993
19   0.166594
20   0.159052
21   0.163249
22   0.158047
23   0.204035
24   0.211729
25   0.216499

$$$$

