PCCDB-ID:  43006
public computational chemistry database (PCCDB) project, http://pccdb.org

 25 26  0  0  0  0  0  0  0  0999 V2000
   -2.2286    0.5226    0.0017 C   0  0  0  0  0  0  0  0  0  0  0  0
   -1.0770    1.2961   -0.0132 C   0  0  0  0  0  0  0  0  0  0  0  0
    1.9467    3.0107    1.4134 C   0  0  0  0  0  0  0  0  0  0  0  0
    1.9263    2.4342   -0.0105 C   0  0  0  0  0  0  0  0  0  0  0  0
   -0.9297   -1.5719   -0.0189 C   0  0  0  0  0  0  0  0  0  0  0  0
    2.2352   -0.0861   -0.0710 C   0  0  0  0  0  0  0  0  0  0  0  0
   -2.1379   -0.8830    0.0000 C   0  0  0  0  0  0  0  0  0  0  0  0
    0.2326   -0.8003   -0.0348 C   0  0  0  0  0  0  0  0  0  0  0  0
    0.1472    0.6172   -0.0312 C   0  0  0  0  0  0  0  0  0  0  0  0
    2.3800    4.4065    1.3562 N   0  0  0  0  0  0  0  0  0  0  0  0
    1.5599   -1.2043   -0.0604 N   0  0  0  0  0  0  0  0  0  0  0  0
    1.4566    1.0556   -0.0591 N   0  0  0  0  0  0  0  0  0  0  0  0
   -3.3846   -1.6581    0.0199 N   0  0  0  0  0  0  0  0  0  0  0  0
   -4.4488   -1.0360    0.0339 O   0  0  0  0  0  0  0  0  0  0  0  0
   -3.2990   -2.8868    0.0215 O   0  0  0  0  0  0  0  0  0  0  0  0
   -3.2101    0.9786    0.0147 H   0  0  0  0  0  0  0  0  0  0  0  0
   -1.1375    2.3799   -0.0142 H   0  0  0  0  0  0  0  0  0  0  0  0
    2.5619    2.3566    2.0556 H   0  0  0  0  0  0  0  0  0  0  0  0
    0.9298    2.9840    1.8203 H   0  0  0  0  0  0  0  0  0  0  0  0
    2.9324    2.4576   -0.4441 H   0  0  0  0  0  0  0  0  0  0  0  0
    1.2877    3.0548   -0.6457 H   0  0  0  0  0  0  0  0  0  0  0  0
   -0.9032   -2.6539   -0.0219 H   0  0  0  0  0  0  0  0  0  0  0  0
    3.3162   -0.0133   -0.0967 H   0  0  0  0  0  0  0  0  0  0  0  0
    3.3897    4.4594    1.2305 H   0  0  0  0  0  0  0  0  0  0  0  0
    2.1790    4.8722    2.2381 H   0  0  0  0  0  0  0  0  0  0  0  0
  1 16  1  0  0  0  0
  2  1  2  0  0  0  0
  3 19  1  0  0  0  0
  3 18  1  0  0  0  0
  4  3  1  0  0  0  0
  5  7  2  0  0  0  0
  6 11  2  0  0  0  0
  6 12  1  0  0  0  0
  7  1  1  0  0  0  0
  7 13  1  0  0  0  0
  8  9  2  0  0  0  0
  8  5  1  0  0  0  0
  9  2  1  0  0  0  0
 10  3  1  0  0  0  0
 10 25  1  0  0  0  0
 11  8  1  0  0  0  0
 12  9  1  0  0  0  0
 12  4  1  0  0  0  0
 13 15  2  0  0  0  0
 13 14  2  0  0  0  0
 17  2  1  0  0  0  0
 20  4  1  0  0  0  0
 21  4  1  0  0  0  0
 22  5  1  0  0  0  0
 23  6  1  0  0  0  0
 24 10  1  0  0  0  0
M  END
>  <HBA>
3

>  <HBD>
1

>  <TPSA>
89.66

>  <cid>
43006

>  <dipole>
8.78

>  <excitation_energy_1>
3.769

>  <excitation_energy_2>
3.814

>  <excitation_energy_3>
4.174

>  <excitation_energy_4>
4.329

>  <homo_energy>
-6.689

>  <homo_lumo_gap>
4.615

>  <logP>
2.127

>  <lumo_energy>
-2.074

>  <melting_point>
159.71

>  <molecular_refractivity>
57.33

>  <oscillator_strength_1>
0.0

>  <oscillator_strength_2>
0.0101

>  <oscillator_strength_3>
0.2233

>  <oscillator_strength_4>
0.0004

>  <open_babel_can_smiles>
NCCn1cnc2c1ccc(c2)N(=O)=O

>  <mulliken_charges>
25
1   -0.180788
2   -0.171005
3   -0.145139
4   -0.154248
5   -0.208167
6   0.218694
7   0.269231
8   0.216364
9   0.353724
10   -0.717163
11   -0.49487
12   -0.507411
13   0.377165
14   -0.405641
15   -0.396805
16   0.180642
17   0.150689
18   0.135161
19   0.161418
20   0.161677
21   0.184768
22   0.191999
23   0.165329
24   0.302388
25   0.311988

>  <lowdin_charges>
25
1   -0.146449
2   -0.176836
3   -0.213365
4   -0.198574
5   -0.128665
6   -0.057244
7   -0.010759
8   0.011425
9   0.024848
10   -0.551162
11   -0.178379
12   -0.024601
13   0.306437
14   -0.256153
15   -0.249936
16   0.187383
17   0.166694
18   0.130685
19   0.152723
20   0.158188
21   0.17022
22   0.194486
23   0.16872
24   0.255303
25   0.26501

$$$$

