PCCDB-ID:  7974
public computational chemistry database (PCCDB) project, http://pccdb.org

 20 20  0  0  1  0  0  0  0  0999 V2000
    1.0147   -0.0025   -0.0365 C   0  0  0  0  0  0  0  0  0  0  0  0
    4.6252    1.3446    0.6314 C   0  0  0  0  0  0  0  0  0  0  0  0
    5.1607    0.0603    1.2818 C   0  0  0  0  0  0  0  0  0  0  0  0
    3.0886    1.3420    0.5950 C   0  0  0  0  0  0  0  0  0  0  0  0
    4.5509   -1.1800    0.6064 C   0  0  0  0  0  0  0  0  0  0  0  0
    2.5420    0.0546   -0.0569 C   0  0  1  0  0  0  0  0  0  0  0  0
    3.0849   -1.1733    0.5481 N   0  0  0  0  0  0  0  0  0  0  0  0
    0.5810    0.8618   -0.5519 H   0  0  0  0  0  0  0  0  0  0  0  0
    0.6379    0.0042    0.9953 H   0  0  0  0  0  0  0  0  0  0  0  0
    0.6581   -0.9167   -0.5213 H   0  0  0  0  0  0  0  0  0  0  0  0
    5.0099    1.4147   -0.3971 H   0  0  0  0  0  0  0  0  0  0  0  0
    4.9950    2.2308    1.1623 H   0  0  0  0  0  0  0  0  0  0  0  0
    4.8984    0.0532    2.3505 H   0  0  0  0  0  0  0  0  0  0  0  0
    6.2571    0.0242    1.2252 H   0  0  0  0  0  0  0  0  0  0  0  0
    2.7168    2.2243    0.0561 H   0  0  0  0  0  0  0  0  0  0  0  0
    2.6955    1.4114    1.6215 H   0  0  0  0  0  0  0  0  0  0  0  0
    4.8691   -2.0976    1.1157 H   0  0  0  0  0  0  0  0  0  0  0  0
    4.9206   -1.2489   -0.4271 H   0  0  0  0  0  0  0  0  0  0  0  0
    2.8747    0.0449   -1.1071 H   0  0  0  0  0  0  0  0  0  0  0  0
    2.7168   -1.2545    1.4977 H   0  0  0  0  0  0  0  0  0  0  0  0
  1  9  1  0  0  0  0
  2 12  1  0  0  0  0
  2  3  1  0  0  0  0
  3 13  1  0  0  0  0
  4  2  1  0  0  0  0
  4 16  1  0  0  0  0
  5 17  1  0  0  0  0
  5  3  1  0  0  0  0
  6 19  1  6  0  0  0
  6  1  1  0  0  0  0
  6  7  1  0  0  0  0
  6  4  1  0  0  0  0
  7  5  1  0  0  0  0
  7 20  1  0  0  0  0
  8  1  1  0  0  0  0
 10  1  1  0  0  0  0
 11  2  1  0  0  0  0
 14  3  1  0  0  0  0
 15  4  1  0  0  0  0
 18  5  1  0  0  0  0
M  END
>  <HBA>
1

>  <HBD>
1

>  <TPSA>
12.03

>  <cid>
7974

>  <dipole>
1.07

>  <excitation_energy_1>
5.339

>  <excitation_energy_2>
5.546

>  <excitation_energy_3>
5.827

>  <excitation_energy_4>
5.911

>  <homo_energy>
-5.676

>  <homo_lumo_gap>
7.978

>  <logP>
1.477

>  <lumo_energy>
2.302

>  <melting_point>
23.19

>  <molecular_refractivity>
35.56

>  <oscillator_strength_1>
0.0147

>  <oscillator_strength_2>
0.0162

>  <oscillator_strength_3>
0.0074

>  <oscillator_strength_4>
0.0047

>  <open_babel_can_smiles>
C[C@H]1CCCCN1

>  <mulliken_charges>
20
1   -0.44857
2   -0.261278
3   -0.26021
4   -0.25404
5   -0.142091
6   0.037565
7   -0.532975
8   0.141259
9   0.132304
10   0.157388
11   0.128245
12   0.131702
13   0.122422
14   0.128142
15   0.12643
16   0.11787
17   0.135359
18   0.135792
19   0.124664
20   0.280023

>  <lowdin_charges>
20
1   -0.446839
2   -0.279177
3   -0.290773
4   -0.293776
5   -0.208676
6   -0.063187
7   -0.360585
8   0.151505
9   0.141996
10   0.158182
11   0.136775
12   0.144146
13   0.133036
14   0.141738
15   0.143391
16   0.132913
17   0.14448
18   0.137841
19   0.133135
20   0.243874

$$$$

