PCCDB-ID:  1057
public computational chemistry database (PCCDB) project, http://pccdb.org

 15 15  0  0  0  0  0  0  0  0999 V2000
   -1.2016   -0.6895    0.0457 C   0  0  0  0  0  0  0  0  0  0  0  0
   -0.0015   -1.4005    0.0703 C   0  0  0  0  0  0  0  0  0  0  0  0
   -1.1935    0.7033   -0.0264 C   0  0  0  0  0  0  0  0  0  0  0  0
    1.2017   -0.6972    0.0227 C   0  0  0  0  0  0  0  0  0  0  0  0
    0.0170    1.4034   -0.0747 C   0  0  0  0  0  0  0  0  0  0  0  0
    1.2297    0.7010   -0.0488 C   0  0  0  0  0  0  0  0  0  0  0  0
    2.4475   -1.2895    0.0392 O   0  0  0  0  0  0  0  0  0  0  0  0
    0.0945    2.7662   -0.1466 O   0  0  0  0  0  0  0  0  0  0  0  0
    2.4100    1.3837   -0.0950 O   0  0  0  0  0  0  0  0  0  0  0  0
   -2.1467   -1.2226    0.0832 H   0  0  0  0  0  0  0  0  0  0  0  0
    0.0042   -2.4868    0.1256 H   0  0  0  0  0  0  0  0  0  0  0  0
   -2.1290    1.2588   -0.0462 H   0  0  0  0  0  0  0  0  0  0  0  0
    2.3466   -2.2491    0.1222 H   0  0  0  0  0  0  0  0  0  0  0  0
   -0.8071    3.1224   -0.1566 H   0  0  0  0  0  0  0  0  0  0  0  0
    3.1200    0.7199   -0.0667 H   0  0  0  0  0  0  0  0  0  0  0  0
  1  2  1  0  0  0  0
  1 10  1  0  0  0  0
  2 11  1  0  0  0  0
  3  1  2  0  0  0  0
  4  7  1  0  0  0  0
  4  2  2  0  0  0  0
  5  6  2  0  0  0  0
  5  3  1  0  0  0  0
  6  4  1  0  0  0  0
  7 13  1  0  0  0  0
  8  5  1  0  0  0  0
  9 15  1  0  0  0  0
  9  6  1  0  0  0  0
 12  3  1  0  0  0  0
 14  8  1  0  0  0  0
M  END
>  <HBA>
3

>  <HBD>
3

>  <TPSA>
60.69

>  <cid>
1057

>  <dipole>
2.73

>  <excitation_energy_1>
4.647

>  <excitation_energy_2>
4.993

>  <excitation_energy_3>
5.011

>  <excitation_energy_4>
5.143

>  <homo_energy>
-5.448

>  <homo_lumo_gap>
5.965

>  <logP>
0.803

>  <lumo_energy>
0.517

>  <melting_point>
125.24

>  <molecular_refractivity>
32.51

>  <oscillator_strength_1>
0.0014

>  <oscillator_strength_2>
0.0102

>  <oscillator_strength_3>
0.0009

>  <oscillator_strength_4>
0.0

>  <open_babel_can_smiles>
Oc1c(O)cccc1O

>  <mulliken_charges>
15
1   -0.144783
2   -0.198202
3   -0.200845
4   0.303001
5   0.308955
6   0.280517
7   -0.680111
8   -0.632022
9   -0.645041
10   0.127816
11   0.11594
12   0.114597
13   0.41698
14   0.407125
15   0.426073

>  <lowdin_charges>
15
1   -0.159468
2   -0.222714
3   -0.225077
4   0.062539
5   0.084236
6   0.051801
7   -0.399838
8   -0.36917
9   -0.372679
10   0.159266
11   0.151837
12   0.153704
13   0.363073
14   0.357005
15   0.365485

$$$$

