PCCDB-ID:  25252
public computational chemistry database (PCCDB) project, http://pccdb.org

 29 29  0  0  1  0  0  0  0  0999 V2000
    1.2847   -0.0455   -0.4488 C   0  0  0  0  0  0  0  0  0  0  0  0
    6.1781    1.6916    6.5888 C   0  0  0  0  0  0  0  0  0  0  0  0
    2.8084    0.0435   -0.3774 C   0  0  0  0  0  0  0  0  0  0  0  0
    5.5110    1.4129    5.2432 C   0  0  0  0  0  0  0  0  0  0  0  0
    4.4736    0.3874    1.2397 C   0  0  0  0  0  0  0  0  0  0  0  0
    6.1163    0.7829    3.0655 C   0  0  0  0  0  0  0  0  0  0  0  0
    6.7195    0.1181    0.8254 C   0  0  2  0  0  0  0  0  0  0  0  0
    9.0317   -0.3981    0.4766 N   0  0  0  0  0  0  0  0  0  0  0  0
    3.2248    0.3996    0.9734 N   0  0  0  0  0  0  0  0  0  0  0  0
    6.5140    1.0725    4.2444 N   0  0  0  0  0  0  0  0  0  0  0  0
    4.8357    0.7434    2.5644 N   0  0  0  0  0  0  0  0  0  0  0  0
    5.5016    0.0587    0.3695 N   0  0  0  0  0  0  0  0  0  0  0  0
    7.0725    0.4527    2.0965 N   0  0  0  0  0  0  0  0  0  0  0  0
    7.7546   -0.1419   -0.0446 N   0  0  0  0  0  0  0  0  0  0  0  0
    0.9531   -0.3021   -1.4622 H   0  0  0  0  0  0  0  0  0  0  0  0
    0.8287    0.9099   -0.1666 H   0  0  0  0  0  0  0  0  0  0  0  0
    0.9095   -0.8095    0.2412 H   0  0  0  0  0  0  0  0  0  0  0  0
    5.4335    1.9525    7.3497 H   0  0  0  0  0  0  0  0  0  0  0  0
    6.8887    2.5198    6.4980 H   0  0  0  0  0  0  0  0  0  0  0  0
    6.7313    0.8105    6.9303 H   0  0  0  0  0  0  0  0  0  0  0  0
    3.1702    0.7923   -1.0993 H   0  0  0  0  0  0  0  0  0  0  0  0
    3.2556   -0.9119   -0.6912 H   0  0  0  0  0  0  0  0  0  0  0  0
    4.9322    2.3022    4.9359 H   0  0  0  0  0  0  0  0  0  0  0  0
    4.7777    0.5957    5.3669 H   0  0  0  0  0  0  0  0  0  0  0  0
    9.7238    0.1039   -0.0737 H   0  0  0  0  0  0  0  0  0  0  0  0
    9.2477   -1.3947    0.4501 H   0  0  0  0  0  0  0  0  0  0  0  0
    4.0590    0.9610    3.1726 H   0  0  0  0  0  0  0  0  0  0  0  0
    8.0481    0.4436    2.3670 H   0  0  0  0  0  0  0  0  0  0  0  0
    7.4535   -0.5807   -0.9092 H   0  0  0  0  0  0  0  0  0  0  0  0
  1  3  1  0  0  0  0
  1 16  1  0  0  0  0
  1 17  1  0  0  0  0
  2 20  1  0  0  0  0
  2 18  1  0  0  0  0
  3  9  1  0  0  0  0
  4 24  1  0  0  0  0
  4  2  1  0  0  0  0
  5 11  1  0  0  0  0
  6 10  2  0  0  0  0
  7 14  1  6  0  0  0
  7 13  1  0  0  0  0
  9  5  1  0  0  0  0
 10  4  1  0  0  0  0
 11  6  1  0  0  0  0
 11 27  1  0  0  0  0
 12  7  1  0  0  0  0
 12  5  2  0  0  0  0
 13 28  1  0  0  0  0
 13  6  1  0  0  0  0
 14  8  1  0  0  0  0
 15  1  1  0  0  0  0
 19  2  1  0  0  0  0
 21  3  1  0  0  0  0
 22  3  1  0  0  0  0
 23  4  1  0  0  0  0
 25  8  1  0  0  0  0
 26  8  1  0  0  0  0
 29 14  1  0  0  0  0
M  RAD  2   7   2   9   2
M  END
>  <HBA>
7

>  <HBD>
4

>  <TPSA>
100.78

>  <cid>
25252

>  <dipole>
5.46

>  <excitation_energy_1>
4.698

>  <excitation_energy_2>
5.014

>  <excitation_energy_3>
5.054

>  <excitation_energy_4>
5.275

>  <homo_energy>
-5.597

>  <homo_lumo_gap>
5.663

>  <logP>
0.94

>  <lumo_energy>
0.065

>  <melting_point>
209.08

>  <molecular_refractivity>
55.26

>  <oscillator_strength_1>
0.024

>  <oscillator_strength_2>
0.0253

>  <oscillator_strength_3>
0.08

>  <oscillator_strength_4>
0.0073

>  <open_babel_can_smiles>
CC[N]C1=N[C](NN)N/C(=N/CC)/N1

>  <mulliken_charges>
29
1   -0.434526
2   -0.433315
3   -0.111031
4   -0.147806
5   0.679776
6   0.769944
7   0.770995
8   -0.587671
9   -0.529521
10   -0.51446
11   -0.722576
12   -0.584131
13   -0.700375
14   -0.536374
15   0.124749
16   0.143895
17   0.141978
18   0.132763
19   0.150926
20   0.149921
21   0.129895
22   0.129187
23   0.129655
24   0.127152
25   0.339092
26   0.32883
27   0.34821
28   0.366335
29   0.338482

>  <lowdin_charges>
29
1   -0.447516
2   -0.44538
3   -0.19333
4   -0.200749
5   0.121331
6   0.132278
7   0.154427
8   -0.458181
9   -0.26023
10   -0.276816
11   -0.257215
12   -0.273469
13   -0.225716
14   -0.231336
15   0.140423
16   0.148834
17   0.148781
18   0.146507
19   0.153414
20   0.153038
21   0.13644
22   0.133874
23   0.130447
24   0.128947
25   0.276522
26   0.265047
27   0.303548
28   0.310417
29   0.285663

$$$$

