PCCDB-ID:  59007
public computational chemistry database (PCCDB) project, http://pccdb.org

 34 36  0  0  0  0  0  0  0  0999 V2000
    4.2225    2.0071   -2.3526 C   0  0  0  0  0  0  0  0  0  0  0  0
    3.5506    1.8640   -1.1372 C   0  0  0  0  0  0  0  0  0  0  0  0
    4.2813    0.9289   -3.2376 C   0  0  0  0  0  0  0  0  0  0  0  0
    2.9420    0.6506   -0.8120 C   0  0  0  0  0  0  0  0  0  0  0  0
    3.6717   -0.2823   -2.9071 C   0  0  0  0  0  0  0  0  0  0  0  0
    2.9334   -6.6539    0.8555 C   0  0  0  0  0  0  0  0  0  0  0  0
    4.0885   -5.8950    0.9848 C   0  0  0  0  0  0  0  0  0  0  0  0
    2.3505   -1.7627   -1.3265 C   0  0  0  0  0  0  0  0  0  0  0  0
    1.7811   -4.8536   -0.2977 C   0  0  0  0  0  0  0  0  0  0  0  0
    0.5295   -7.0059    0.1302 C   0  0  0  0  0  0  0  0  0  0  0  0
    4.5633   -2.4990   -0.2023 C   0  0  0  0  0  0  0  0  0  0  0  0
    2.9920   -0.4387   -1.6918 C   0  0  0  0  0  0  0  0  0  0  0  0
    1.7744   -6.1453    0.2210 C   0  0  0  0  0  0  0  0  0  0  0  0
    3.2679   -2.7157   -0.5997 C   0  0  0  0  0  0  0  0  0  0  0  0
    2.9327   -4.0556   -0.1808 C   0  0  0  0  0  0  0  0  0  0  0  0
    4.0766   -4.5955    0.4653 C   0  0  0  0  0  0  0  0  0  0  0  0
    0.8503   -8.3680   -0.3218 N   0  0  0  0  0  0  0  0  0  0  0  0
    5.0545   -3.6232    0.4392 N   0  0  0  0  0  0  0  0  0  0  0  0
    4.6928    2.9526   -2.6096 H   0  0  0  0  0  0  0  0  0  0  0  0
    3.4955    2.6990   -0.4433 H   0  0  0  0  0  0  0  0  0  0  0  0
    4.7986    1.0312   -4.1882 H   0  0  0  0  0  0  0  0  0  0  0  0
    2.4173    0.5455    0.1352 H   0  0  0  0  0  0  0  0  0  0  0  0
    3.7198   -1.1183   -3.6015 H   0  0  0  0  0  0  0  0  0  0  0  0
    2.9085   -7.6718    1.2315 H   0  0  0  0  0  0  0  0  0  0  0  0
    4.9710   -6.3002    1.4740 H   0  0  0  0  0  0  0  0  0  0  0  0
    1.9787   -2.2478   -2.2405 H   0  0  0  0  0  0  0  0  0  0  0  0
    1.4593   -1.5747   -0.7101 H   0  0  0  0  0  0  0  0  0  0  0  0
    0.8925   -4.4651   -0.7919 H   0  0  0  0  0  0  0  0  0  0  0  0
   -0.2133   -6.4846   -0.4996 H   0  0  0  0  0  0  0  0  0  0  0  0
    0.0723   -7.1038    1.1254 H   0  0  0  0  0  0  0  0  0  0  0  0
    5.1820   -1.6215   -0.3241 H   0  0  0  0  0  0  0  0  0  0  0  0
    1.2185   -8.3297   -1.2715 H   0  0  0  0  0  0  0  0  0  0  0  0
   -0.0015   -8.9258   -0.3622 H   0  0  0  0  0  0  0  0  0  0  0  0
    5.9843   -3.7168    0.8158 H   0  0  0  0  0  0  0  0  0  0  0  0
  1  2  2  0  0  0  0
  2  4  1  0  0  0  0
  2 20  1  0  0  0  0
  3  5  2  0  0  0  0
  3  1  1  0  0  0  0
  4 22  1  0  0  0  0
  5 12  1  0  0  0  0
  6  7  1  0  0  0  0
  6 24  1  0  0  0  0
  7 25  1  0  0  0  0
  8 27  1  0  0  0  0
  8 14  1  0  0  0  0
  9 15  2  0  0  0  0
  9 13  1  0  0  0  0
 10 13  1  0  0  0  0
 10 30  1  0  0  0  0
 11 18  1  0  0  0  0
 12  8  1  0  0  0  0
 12  4  2  0  0  0  0
 13  6  2  0  0  0  0
 14 11  2  0  0  0  0
 14 15  1  0  0  0  0
 15 16  1  0  0  0  0
 16  7  2  0  0  0  0
 17 10  1  0  0  0  0
 18 16  1  0  0  0  0
 18 34  1  0  0  0  0
 19  1  1  0  0  0  0
 21  3  1  0  0  0  0
 23  5  1  0  0  0  0
 26  8  1  0  0  0  0
 28  9  1  0  0  0  0
 29 10  1  0  0  0  0
 31 11  1  0  0  0  0
 32 17  1  0  0  0  0
 33 17  1  0  0  0  0
M  END
>  <HBA>
1

>  <HBD>
2

>  <TPSA>
41.81

>  <cid>
59007

>  <dipole>
1.17

>  <excitation_energy_1>
4.521

>  <excitation_energy_2>
4.537

>  <excitation_energy_3>
4.623

>  <excitation_energy_4>
4.71

>  <homo_energy>
-5.222

>  <homo_lumo_gap>
5.236

>  <logP>
3.918

>  <lumo_energy>
0.014

>  <melting_point>
189.24

>  <molecular_refractivity>
75.43

>  <oscillator_strength_1>
0.0525

>  <oscillator_strength_2>
0.0002

>  <oscillator_strength_3>
0.0311

>  <oscillator_strength_4>
0.0619

>  <open_babel_can_smiles>
NCc1ccc2c(c1)c(c[nH]2)Cc1ccccc1

>  <mulliken_charges>
34
1   -0.13168
2   -0.130206
3   -0.130256
4   -0.176792
5   -0.174549
6   -0.189366
7   -0.163628
8   -0.425969
9   -0.28538
10   -0.213993
11   -0.001249
12   0.153194
13   0.149734
14   0.073619
15   0.088135
16   0.317821
17   -0.711944
18   -0.70085
19   0.12679
20   0.127642
21   0.127633
22   0.127752
23   0.127442
24   0.141405
25   0.11855
26   0.151442
27   0.152746
28   0.114054
29   0.117009
30   0.149402
31   0.157705
32   0.295511
33   0.293775
34   0.324499

>  <lowdin_charges>
34
1   -0.162399
2   -0.158789
3   -0.156701
4   -0.16643
5   -0.167231
6   -0.161793
7   -0.186997
8   -0.265082
9   -0.1787
10   -0.201068
11   -0.138401
12   0.002299
13   -0.030769
14   -0.064909
15   -0.037791
16   0.028928
17   -0.555785
18   -0.199793
19   0.156307
20   0.157254
21   0.156202
22   0.156316
23   0.157298
24   0.165279
25   0.154479
26   0.155733
27   0.155947
28   0.151248
29   0.122966
30   0.146802
31   0.170744
32   0.252395
33   0.253207
34   0.289237

$$$$

