PCCDB-ID:  1043
public computational chemistry database (PCCDB) project, http://pccdb.org

 14 15  0  0  0  0  0  0  0  0999 V2000
    2.3101   -0.6959   -0.0020 C   0  0  0  0  0  0  0  0  0  0  0  0
    2.2851    0.7305   -0.0012 C   0  0  0  0  0  0  0  0  0  0  0  0
   -1.2060   -1.3729    0.0016 C   0  0  0  0  0  0  0  0  0  0  0  0
   -2.2485    0.6487   -0.0004 C   0  0  0  0  0  0  0  0  0  0  0  0
    0.0498   -0.7114   -0.0003 C   0  0  0  0  0  0  0  0  0  0  0  0
    0.0193    0.7103   -0.0010 C   0  0  0  0  0  0  0  0  0  0  0  0
   -2.3447   -0.7130    0.0015 N   0  0  0  0  0  0  0  0  0  0  0  0
    1.2122   -1.4202   -0.0012 N   0  0  0  0  0  0  0  0  0  0  0  0
    1.1744    1.4350   -0.0010 N   0  0  0  0  0  0  0  0  0  0  0  0
   -1.1585    1.3866   -0.0013 N   0  0  0  0  0  0  0  0  0  0  0  0
    3.2622   -1.2236   -0.0033 H   0  0  0  0  0  0  0  0  0  0  0  0
    3.2239    1.2833   -0.0006 H   0  0  0  0  0  0  0  0  0  0  0  0
   -1.2329   -2.4621    0.0036 H   0  0  0  0  0  0  0  0  0  0  0  0
   -3.1983    1.1792   -0.0010 H   0  0  0  0  0  0  0  0  0  0  0  0
  1  2  1  0  0  0  0
  1  8  2  0  0  0  0
  2  9  1  0  0  0  0
  2 12  1  0  0  0  0
  3 13  1  0  0  0  0
  4  7  2  0  0  0  0
  5  3  2  0  0  0  0
  6  5  1  0  0  0  0
  7  3  1  0  0  0  0
  8  5  1  0  0  0  0
  9  6  2  0  0  0  0
 10  6  1  0  0  0  0
 10  4  1  0  0  0  0
 11  1  1  0  0  0  0
 14  4  1  0  0  0  0
M  RAD  2   2   2  10   2
M  END
>  <HBA>
4

>  <HBD>
0

>  <TPSA>
51.56

>  <cid>
1043

>  <dipole>
2.54

>  <excitation_energy_1>
2.978

>  <excitation_energy_2>
3.893

>  <excitation_energy_3>
4.207

>  <excitation_energy_4>
4.565

>  <homo_energy>
-6.89

>  <homo_lumo_gap>
4.144

>  <logP>
0.42

>  <lumo_energy>
-2.746

>  <melting_point>
109.67

>  <molecular_refractivity>
35.13

>  <oscillator_strength_1>
0.0

>  <oscillator_strength_2>
0.005

>  <oscillator_strength_3>
0.0004

>  <oscillator_strength_4>
0.1267

>  <open_babel_can_smiles>
C1=Nc2c(=N[CH]1)[n]cnc2

>  <mulliken_charges>
14
1   0.036731
2   0.042231
3   0.055763
4   0.166653
5   0.272293
6   0.417038
7   -0.384333
8   -0.454025
9   -0.406814
10   -0.419303
11   0.164007
12   0.165923
13   0.175257
14   0.168579

>  <lowdin_charges>
14
1   -0.09872
2   -0.08272
3   -0.045582
4   -0.029175
5   -0.009435
6   0.072668
7   -0.149062
8   -0.104838
9   -0.099743
10   -0.135069
11   0.170016
12   0.170562
13   0.172727
14   0.16837

$$$$

