PCCDB-ID:  47143
public computational chemistry database (PCCDB) project, http://pccdb.org

 37 37  0  0  0  0  0  0  0  0999 V2000
    0.8505    3.6108    2.2132 C   0  0  0  0  0  0  0  0  0  0  0  0
    5.6109    5.6450    6.5824 C   0  0  0  0  0  0  0  0  0  0  0  0
    8.5783    2.8444    4.3910 C   0  0  0  0  0  0  0  0  0  0  0  0
    2.3253    3.2390    2.4006 C   0  0  0  0  0  0  0  0  0  0  0  0
    5.2237    4.7056    5.4343 C   0  0  0  0  0  0  0  0  0  0  0  0
    7.4151    3.3552    5.2486 C   0  0  0  0  0  0  0  0  0  0  0  0
    3.1541    3.4793    1.1325 C   0  0  0  0  0  0  0  0  0  0  0  0
    4.6303    3.0742    1.2309 C   0  0  0  0  0  0  0  0  0  0  0  0
    7.0111    5.4139    3.7945 C   0  0  0  0  0  0  0  0  0  0  0  0
    5.6753    3.3179    3.4495 C   0  0  0  0  0  0  0  0  0  0  0  0
    5.8679    5.1453    1.7958 C   0  0  0  0  0  0  0  0  0  0  0  0
    6.3781    4.2194    4.4816 C   0  0  0  0  0  0  0  0  0  0  0  0
    6.7519    5.8435    2.6187 N   0  0  0  0  0  0  0  0  0  0  0  0
    5.4032    3.8669    2.2125 N   0  0  0  0  0  0  0  0  0  0  0  0
    7.9139    6.1301    4.4934 O   0  0  0  0  0  0  0  0  0  0  0  0
    5.3205    2.1908    3.7637 O   0  0  0  0  0  0  0  0  0  0  0  0
    5.5188    5.5856    0.7192 O   0  0  0  0  0  0  0  0  0  0  0  0
    0.2754    3.4377    3.1299 H   0  0  0  0  0  0  0  0  0  0  0  0
    0.3902    3.0161    1.4145 H   0  0  0  0  0  0  0  0  0  0  0  0
    0.7393    4.6680    1.9427 H   0  0  0  0  0  0  0  0  0  0  0  0
    4.7198    5.8729    7.1767 H   0  0  0  0  0  0  0  0  0  0  0  0
    6.0127    6.5979    6.2228 H   0  0  0  0  0  0  0  0  0  0  0  0
    6.3394    5.1933    7.2658 H   0  0  0  0  0  0  0  0  0  0  0  0
    9.2575    2.2366    4.9979 H   0  0  0  0  0  0  0  0  0  0  0  0
    9.1622    3.6642    3.9574 H   0  0  0  0  0  0  0  0  0  0  0  0
    8.2136    2.2132    3.5742 H   0  0  0  0  0  0  0  0  0  0  0  0
    2.4093    2.1867    2.7018 H   0  0  0  0  0  0  0  0  0  0  0  0
    2.7424    3.8250    3.2306 H   0  0  0  0  0  0  0  0  0  0  0  0
    4.4630    5.1981    4.8158 H   0  0  0  0  0  0  0  0  0  0  0  0
    4.7639    3.7953    5.8339 H   0  0  0  0  0  0  0  0  0  0  0  0
    7.8049    3.9091    6.1141 H   0  0  0  0  0  0  0  0  0  0  0  0
    6.8634    2.5060    5.6615 H   0  0  0  0  0  0  0  0  0  0  0  0
    3.0975    4.5328    0.8348 H   0  0  0  0  0  0  0  0  0  0  0  0
    2.7213    2.8999    0.3043 H   0  0  0  0  0  0  0  0  0  0  0  0
    5.1142    3.2136    0.2626 H   0  0  0  0  0  0  0  0  0  0  0  0
    4.7286    2.0315    1.5365 H   0  0  0  0  0  0  0  0  0  0  0  0
    8.0509    5.7264    5.3651 H   0  0  0  0  0  0  0  0  0  0  0  0
  1  4  1  0  0  0  0
  1 18  1  0  0  0  0
  2 21  1  0  0  0  0
  2 23  1  0  0  0  0
  3 24  1  0  0  0  0
  3  6  1  0  0  0  0
  4 27  1  0  0  0  0
  4 28  1  0  0  0  0
  5 30  1  0  0  0  0
  5  2  1  0  0  0  0
  6 32  1  0  0  0  0
  6 31  1  0  0  0  0
  7  8  1  0  0  0  0
  7  4  1  0  0  0  0
  8 36  1  0  0  0  0
  8 14  1  0  0  0  0
  9 12  1  0  0  0  0
  9 15  1  0  0  0  0
 10 16  2  0  0  0  0
 10 12  1  0  0  0  0
 11 14  1  0  0  0  0
 11 13  1  0  0  0  0
 12  6  1  0  0  0  0
 12  5  1  0  0  0  0
 13  9  2  0  0  0  0
 14 10  1  0  0  0  0
 15 37  1  0  0  0  0
 17 11  2  0  0  0  0
 19  1  1  0  0  0  0
 20  1  1  0  0  0  0
 22  2  1  0  0  0  0
 25  3  1  0  0  0  0
 26  3  1  0  0  0  0
 29  5  1  0  0  0  0
 33  7  1  0  0  0  0
 34  7  1  0  0  0  0
 35  8  1  0  0  0  0
M  END
>  <HBA>
5

>  <HBD>
1

>  <TPSA>
66.48

>  <cid>
47143

>  <dipole>
5.03

>  <excitation_energy_1>
4.485

>  <excitation_energy_2>
4.819

>  <excitation_energy_3>
4.955

>  <excitation_energy_4>
5.271

>  <homo_energy>
-7.203

>  <homo_lumo_gap>
5.769

>  <logP>
1.938

>  <lumo_energy>
-1.434

>  <melting_point>
115.04

>  <molecular_refractivity>
71.94

>  <oscillator_strength_1>
0.0008

>  <oscillator_strength_2>
0.001

>  <oscillator_strength_3>
0.0109

>  <oscillator_strength_4>
0.0335

>  <open_babel_can_smiles>
CCCCN1C(=O)N=C(C(C1=O)(CC)CC)O

>  <mulliken_charges>
37
1   -0.442955
2   -0.488252
3   -0.467331
4   -0.251308
5   -0.26351
6   -0.294953
7   -0.26048
8   -0.155588
9   0.53358
10   0.649713
11   0.701679
12   -0.122445
13   -0.486723
14   -0.516152
15   -0.568284
16   -0.519843
17   -0.469327
18   0.141781
19   0.143104
20   0.144411
21   0.169821
22   0.169393
23   0.150675
24   0.159041
25   0.159966
26   0.174141
27   0.144837
28   0.127677
29   0.164085
30   0.179028
31   0.124105
32   0.189535
33   0.164784
34   0.136298
35   0.173832
36   0.178479
37   0.427185

>  <lowdin_charges>
37
1   -0.444227
2   -0.461952
3   -0.456821
4   -0.27462
5   -0.26518
6   -0.278084
7   -0.28011
8   -0.195853
9   0.159946
10   0.163591
11   0.184839
12   -0.053777
13   -0.184735
14   -0.087977
15   -0.318582
16   -0.282394
17   -0.247319
18   0.149615
19   0.148056
20   0.146482
21   0.167637
22   0.15845
23   0.150004
24   0.162141
25   0.15549
26   0.164007
27   0.144862
28   0.136994
29   0.158482
30   0.167383
31   0.136507
32   0.175442
33   0.155065
34   0.148672
35   0.167626
36   0.167641
37   0.362701

$$$$

