PCCDB-ID:  16547
public computational chemistry database (PCCDB) project, http://pccdb.org

 25 25  0  0  0  0  0  0  0  0999 V2000
    1.5325   -0.5346   -0.3368 C   0  0  0  0  0  0  0  0  0  0  0  0
    6.0089   -3.0286    4.4210 C   0  0  0  0  0  0  0  0  0  0  0  0
    4.7587    1.0446    3.0244 C   0  0  0  0  0  0  0  0  0  0  0  0
    2.8389    0.2176   -0.1787 C   0  0  0  0  0  0  0  0  0  0  0  0
    5.1823   -2.7503    3.1848 C   0  0  0  0  0  0  0  0  0  0  0  0
    4.0065    1.1694    1.8486 C   0  0  0  0  0  0  0  0  0  0  0  0
    5.1483   -0.2102    3.4747 C   0  0  0  0  0  0  0  0  0  0  0  0
    3.6097    0.0433    1.1131 C   0  0  0  0  0  0  0  0  0  0  0  0
    4.7957   -1.3926    2.7746 C   0  0  0  0  0  0  0  0  0  0  0  0
    4.0107   -1.2223    1.5808 C   0  0  0  0  0  0  0  0  0  0  0  0
    3.2428    0.9854   -1.0317 O   0  0  0  0  0  0  0  0  0  0  0  0
    4.8307   -3.7368    2.5072 O   0  0  0  0  0  0  0  0  0  0  0  0
    3.6003    2.3857    1.4150 O   0  0  0  0  0  0  0  0  0  0  0  0
    5.8832   -0.3212    4.6161 O   0  0  0  0  0  0  0  0  0  0  0  0
    3.6555   -2.2829    0.8515 O   0  0  0  0  0  0  0  0  0  0  0  0
    1.6875   -1.6110   -0.2305 H   0  0  0  0  0  0  0  0  0  0  0  0
    1.1040   -0.3049   -1.3149 H   0  0  0  0  0  0  0  0  0  0  0  0
    0.8342   -0.2248    0.4519 H   0  0  0  0  0  0  0  0  0  0  0  0
    5.5080   -2.6649    5.3230 H   0  0  0  0  0  0  0  0  0  0  0  0
    6.9760   -2.5196    4.3743 H   0  0  0  0  0  0  0  0  0  0  0  0
    6.1550   -4.1086    4.4833 H   0  0  0  0  0  0  0  0  0  0  0  0
    5.0350    1.9339    3.5891 H   0  0  0  0  0  0  0  0  0  0  0  0
    3.9402    3.0709    2.0114 H   0  0  0  0  0  0  0  0  0  0  0  0
    6.0543    0.5677    4.9656 H   0  0  0  0  0  0  0  0  0  0  0  0
    4.0290   -3.0907    1.3226 H   0  0  0  0  0  0  0  0  0  0  0  0
  1 16  1  0  0  0  0
  1  4  1  0  0  0  0
  1 18  1  0  0  0  0
  2 21  1  0  0  0  0
  2 19  1  0  0  0  0
  3  7  1  0  0  0  0
  3 22  1  0  0  0  0
  4  8  1  0  0  0  0
  5  2  1  0  0  0  0
  6  3  2  0  0  0  0
  7 14  1  0  0  0  0
  8 10  2  0  0  0  0
  8  6  1  0  0  0  0
  9  5  1  0  0  0  0
  9  7  2  0  0  0  0
 10  9  1  0  0  0  0
 11  4  2  0  0  0  0
 12  5  2  0  0  0  0
 13  6  1  0  0  0  0
 13 23  1  0  0  0  0
 14 24  1  0  0  0  0
 15 25  1  0  0  0  0
 15 10  1  0  0  0  0
 17  1  1  0  0  0  0
 20  2  1  0  0  0  0
M  END
>  <HBA>
5

>  <HBD>
3

>  <TPSA>
94.83

>  <cid>
16547

>  <dipole>
6.6

>  <excitation_energy_1>
3.983

>  <excitation_energy_2>
4.061

>  <excitation_energy_3>
4.194

>  <excitation_energy_4>
4.382

>  <homo_energy>
-6.226

>  <homo_lumo_gap>
4.699

>  <logP>
1.209

>  <lumo_energy>
-1.527

>  <melting_point>
197.04

>  <molecular_refractivity>
52.9

>  <oscillator_strength_1>
0.029

>  <oscillator_strength_2>
0.0076

>  <oscillator_strength_3>
0.0053

>  <oscillator_strength_4>
0.0146

>  <open_babel_can_smiles>
CC(=O)c1c(O)cc(c(c1O)C(=O)C)O

>  <mulliken_charges>
25
1   -0.535537
2   -0.50936
3   -0.287756
4   0.422224
5   0.429878
6   0.341095
7   0.302276
8   -0.025505
9   0.005895
10   0.258016
11   -0.426077
12   -0.53677
13   -0.613422
14   -0.643368
15   -0.64759
16   0.199794
17   0.170327
18   0.162872
19   0.179286
20   0.180104
21   0.174678
22   0.111618
23   0.415072
24   0.41885
25   0.4534

>  <lowdin_charges>
25
1   -0.47583
2   -0.463136
3   -0.299623
4   0.179558
5   0.183845
6   0.149302
7   0.139348
8   -0.125156
9   -0.152344
10   0.149945
11   -0.222019
12   -0.301581
13   -0.339857
14   -0.354278
15   -0.365309
16   0.182261
17   0.167837
18   0.168204
19   0.176661
20   0.176415
21   0.169141
22   0.153083
23   0.363988
24   0.36295
25   0.376596

$$$$

