PCCDB-ID:  7338
public computational chemistry database (PCCDB) project, http://pccdb.org

 24 24  0  0  0  0  0  0  0  0999 V2000
    0.6574    1.5473    0.7302 C   0  0  0  0  0  0  0  0  0  0  0  0
    8.4493   -1.2123    1.2691 C   0  0  0  0  0  0  0  0  0  0  0  0
    2.1213    1.8755    0.7030 C   0  0  0  0  0  0  0  0  0  0  0  0
    3.1002    0.9693    0.5609 C   0  0  0  0  0  0  0  0  0  0  0  0
    5.1370    2.4805    0.5968 C   0  0  0  0  0  0  0  0  0  0  0  0
    6.5191    2.6352    0.5521 C   0  0  0  0  0  0  0  0  0  0  0  0
    5.4156    0.1027    0.4108 C   0  0  0  0  0  0  0  0  0  0  0  0
    4.5508    1.2058    0.5219 C   0  0  0  0  0  0  0  0  0  0  0  0
    7.3643    1.5287    0.4278 C   0  0  0  0  0  0  0  0  0  0  0  0
    6.8001    0.2412    0.3654 C   0  0  0  0  0  0  0  0  0  0  0  0
    8.7278    1.6406    0.3532 O   0  0  0  0  0  0  0  0  0  0  0  0
    7.5705   -0.8831    0.1908 O   0  0  0  0  0  0  0  0  0  0  0  0
    0.1156    2.0687   -0.0713 H   0  0  0  0  0  0  0  0  0  0  0  0
    0.1936    1.8632    1.6752 H   0  0  0  0  0  0  0  0  0  0  0  0
    0.4841    0.4724    0.6111 H   0  0  0  0  0  0  0  0  0  0  0  0
    8.9269   -2.1544    0.9899 H   0  0  0  0  0  0  0  0  0  0  0  0
    7.8865   -1.3540    2.2017 H   0  0  0  0  0  0  0  0  0  0  0  0
    9.2137   -0.4432    1.4163 H   0  0  0  0  0  0  0  0  0  0  0  0
    2.3712    2.9315    0.8089 H   0  0  0  0  0  0  0  0  0  0  0  0
    2.8104   -0.0780    0.4614 H   0  0  0  0  0  0  0  0  0  0  0  0
    4.5145    3.3655    0.6843 H   0  0  0  0  0  0  0  0  0  0  0  0
    6.9548    3.6323    0.6036 H   0  0  0  0  0  0  0  0  0  0  0  0
    5.0142   -0.9052    0.3492 H   0  0  0  0  0  0  0  0  0  0  0  0
    8.9626    2.5807    0.3947 H   0  0  0  0  0  0  0  0  0  0  0  0
  1 14  1  0  0  0  0
  2 18  1  0  0  0  0
  2 17  1  0  0  0  0
  3  1  1  0  0  0  0
  3 19  1  0  0  0  0
  4  3  2  0  0  0  0
  5 21  1  0  0  0  0
  6  5  1  0  0  0  0
  6 22  1  0  0  0  0
  7  8  1  0  0  0  0
  8  4  1  0  0  0  0
  8  5  2  0  0  0  0
  9  6  2  0  0  0  0
 10  7  2  0  0  0  0
 10  9  1  0  0  0  0
 11 24  1  0  0  0  0
 11  9  1  0  0  0  0
 12 10  1  0  0  0  0
 12  2  1  0  0  0  0
 13  1  1  0  0  0  0
 15  1  1  0  0  0  0
 16  2  1  0  0  0  0
 20  4  1  0  0  0  0
 23  7  1  0  0  0  0
M  END
>  <HBA>
2

>  <HBD>
1

>  <TPSA>
29.46

>  <cid>
7338

>  <dipole>
2.22

>  <excitation_energy_1>
4.485

>  <excitation_energy_2>
4.598

>  <excitation_energy_3>
4.673

>  <excitation_energy_4>
5.255

>  <homo_energy>
-5.355

>  <homo_lumo_gap>
4.895

>  <logP>
2.434

>  <lumo_energy>
-0.46

>  <melting_point>
73.26

>  <molecular_refractivity>
49.85

>  <oscillator_strength_1>
0.0746

>  <oscillator_strength_2>
0.3114

>  <oscillator_strength_3>
0.0077

>  <oscillator_strength_4>
0.0005

>  <open_babel_can_smiles>
C/C=C/c1ccc(c(c1)OC)O

>  <mulliken_charges>
24
1   -0.489142
2   -0.213602
3   -0.099358
4   -0.166853
5   -0.191363
6   -0.198826
7   -0.26021
8   0.178547
9   0.313037
10   0.335073
11   -0.641779
12   -0.522129
13   0.15533
14   0.154957
15   0.154271
16   0.157922
17   0.138296
18   0.16733
19   0.121165
20   0.118014
21   0.126575
22   0.118777
23   0.134559
24   0.409409

>  <lowdin_charges>
24
1   -0.436408
2   -0.277096
3   -0.15754
4   -0.167215
5   -0.15872
6   -0.205713
7   -0.172961
8   -0.012641
9   0.077067
10   0.067587
11   -0.374613
12   -0.223176
13   0.157653
14   0.156445
15   0.153322
16   0.155789
17   0.138313
18   0.152415
19   0.145321
20   0.148906
21   0.158368
22   0.152682
23   0.164849
24   0.357366

$$$$

