PCCDB-ID:  58533
public computational chemistry database (PCCDB) project, http://pccdb.org

 37 38  0  0  1  0  0  0  0  0999 V2000
    3.2312    0.7985    0.8453 C   0  0  0  0  0  0  0  0  0  0  0  0
    1.8929   -1.1065    1.7114 C   0  0  0  0  0  0  0  0  0  0  0  0
    0.8148    0.4703    0.1208 C   0  0  0  0  0  0  0  0  0  0  0  0
    3.1075   -3.2888   -1.7250 C   0  0  0  0  0  0  0  0  0  0  0  0
    3.4174   -2.7006   -2.9433 C   0  0  0  0  0  0  0  0  0  0  0  0
    2.7121   -2.4818   -0.6548 C   0  0  0  0  0  0  0  0  0  0  0  0
    3.3337   -1.3142   -3.0812 C   0  0  0  0  0  0  0  0  0  0  0  0
    3.3260    5.1130   -3.5291 C   0  0  0  0  0  0  0  0  0  0  0  0
    2.3107    4.9303   -2.3682 C   0  0  0  0  0  0  0  0  0  0  0  0
    3.1728    1.4600   -3.3675 C   0  0  0  0  0  0  0  0  0  0  0  0
    2.6097   -1.0884   -0.7454 C   0  0  0  0  0  0  0  0  0  0  0  0
    2.9378   -0.5155   -2.0033 C   0  0  0  0  0  0  0  0  0  0  0  0
    3.0559    2.9504   -3.2217 C   0  0  3  0  0  0  0  0  0  0  0  0
    2.1483   -0.2405    0.4600 C   0  0  0  0  0  0  0  0  0  0  0  0
    3.8445    3.7629   -3.8235 N   0  0  0  0  0  0  0  0  0  0  0  0
    1.9960    3.4992   -2.5067 N   0  0  0  0  0  0  0  0  0  0  0  0
    2.8548    0.8549   -2.1155 O   0  0  0  0  0  0  0  0  0  0  0  0
    2.8968    1.3800    1.7135 H   0  0  0  0  0  0  0  0  0  0  0  0
    3.4460    1.4888    0.0287 H   0  0  0  0  0  0  0  0  0  0  0  0
    4.1661    0.2958    1.1190 H   0  0  0  0  0  0  0  0  0  0  0  0
    1.5722   -0.4593    2.5355 H   0  0  0  0  0  0  0  0  0  0  0  0
    2.7966   -1.6327    2.0391 H   0  0  0  0  0  0  0  0  0  0  0  0
    1.1017   -1.8466    1.5482 H   0  0  0  0  0  0  0  0  0  0  0  0
    0.4979    1.1033    0.9591 H   0  0  0  0  0  0  0  0  0  0  0  0
    0.0225   -0.2645   -0.0632 H   0  0  0  0  0  0  0  0  0  0  0  0
    0.9001    1.0940   -0.7715 H   0  0  0  0  0  0  0  0  0  0  0  0
    3.1692   -4.3657   -1.5968 H   0  0  0  0  0  0  0  0  0  0  0  0
    3.7256   -3.3049   -3.7921 H   0  0  0  0  0  0  0  0  0  0  0  0
    2.4738   -2.9667    0.2843 H   0  0  0  0  0  0  0  0  0  0  0  0
    3.5808   -0.8645   -4.0351 H   0  0  0  0  0  0  0  0  0  0  0  0
    4.1442    5.7953   -3.2788 H   0  0  0  0  0  0  0  0  0  0  0  0
    2.8319    5.5071   -4.4281 H   0  0  0  0  0  0  0  0  0  0  0  0
    1.4146    5.5490   -2.4739 H   0  0  0  0  0  0  0  0  0  0  0  0
    2.7694    5.1465   -1.3919 H   0  0  0  0  0  0  0  0  0  0  0  0
    4.1942    1.2247   -3.6831 H   0  0  0  0  0  0  0  0  0  0  0  0
    2.4738    1.1056   -4.1392 H   0  0  0  0  0  0  0  0  0  0  0  0
    1.6912    2.9915   -1.6850 H   0  0  0  0  0  0  0  0  0  0  0  0
  1 20  1  0  0  0  0
  1 18  1  0  0  0  0
  2 22  1  0  0  0  0
  2 21  1  0  0  0  0
  3 14  1  0  0  0  0
  3 24  1  0  0  0  0
  4 27  1  0  0  0  0
  4  6  2  0  0  0  0
  5  4  1  0  0  0  0
  6 29  1  0  0  0  0
  7  5  2  0  0  0  0
  7 12  1  0  0  0  0
  8 31  1  0  0  0  0
  8  9  1  0  0  0  0
  9 34  1  0  0  0  0
 10 13  1  0  0  0  0
 10 17  1  0  0  0  0
 11  6  1  0  0  0  0
 11 14  1  0  0  0  0
 12 11  2  0  0  0  0
 13 16  1  0  0  0  0
 14  1  1  0  0  0  0
 14  2  1  0  0  0  0
 15  8  1  0  0  0  0
 15 13  1  0  0  0  0
 16  9  1  0  0  0  0
 16 37  1  0  0  0  0
 17 12  1  0  0  0  0
 19  1  1  0  0  0  0
 23  2  1  0  0  0  0
 25  3  1  0  0  0  0
 26  3  1  0  0  0  0
 28  5  1  0  0  0  0
 30  7  1  0  0  0  0
 32  8  1  0  0  0  0
 33  9  1  0  0  0  0
 35 10  1  0  0  0  0
 36 10  1  0  0  0  0
M  RAD  2  13   2  15   2
M  END
>  <HBA>
3

>  <HBD>
1

>  <TPSA>
33.62

>  <cid>
58533

>  <dipole>
1.72

>  <excitation_energy_1>
5.055

>  <excitation_energy_2>
5.379

>  <excitation_energy_3>
5.427

>  <excitation_energy_4>
5.478

>  <homo_energy>
-5.948

>  <homo_lumo_gap>
5.957

>  <logP>
2.129

>  <lumo_energy>
0.008

>  <melting_point>
83.84

>  <molecular_refractivity>
78.24

>  <oscillator_strength_1>
0.0381

>  <oscillator_strength_2>
0.0049

>  <oscillator_strength_3>
0.0057

>  <oscillator_strength_4>
0.0111

>  <open_babel_can_smiles>
CC(c1ccccc1OC[C]1[N]CCN1)(C)C

>  <mulliken_charges>
37
1   -0.452896
2   -0.45747
3   -0.458377
4   -0.127757
5   -0.140117
6   -0.205673
7   -0.191526
8   -0.161882
9   -0.149412
10   -0.097674
11   0.122265
12   0.325855
13   0.456508
14   0.032979
15   -0.464831
16   -0.610877
17   -0.543983
18   0.131485
19   0.16228
20   0.144019
21   0.141207
22   0.146584
23   0.145014
24   0.134357
25   0.145813
26   0.158255
27   0.124879
28   0.12985
29   0.128906
30   0.140922
31   0.151598
32   0.152477
33   0.1527
34   0.144072
35   0.178188
36   0.167309
37   0.344955

>  <lowdin_charges>
37
1   -0.449212
2   -0.445462
3   -0.447312
4   -0.173061
5   -0.151039
6   -0.16319
7   -0.210883
8   -0.209527
9   -0.209206
10   -0.131126
11   -0.026474
12   0.099646
13   0.073858
14   0.022213
15   -0.239471
16   -0.315885
17   -0.210848
18   0.144219
19   0.157081
20   0.150368
21   0.151416
22   0.150167
23   0.14906
24   0.14581
25   0.151651
26   0.150868
27   0.154738
28   0.159117
29   0.162201
30   0.165158
31   0.152707
32   0.148443
33   0.151935
34   0.1373
35   0.165382
36   0.158952
37   0.280406

$$$$

