PCCDB-ID:  535
public computational chemistry database (PCCDB) project, http://pccdb.org

 14 14  0  0  0  0  0  0  0  0999 V2000
   -0.5194    0.9895   -0.2255 C   0  0  0  0  0  0  0  0  0  0  0  0
    0.6659    0.1853    0.2064 C   0  0  0  0  0  0  0  0  0  0  0  0
   -1.3929   -0.8400    1.3532 C   0  0  0  0  0  0  0  0  0  0  0  0
   -0.6844   -0.4934    0.0575 C   0  0  0  0  0  0  0  0  0  0  0  0
   -0.9424   -1.4461   -1.0092 N   0  0  0  0  0  0  0  0  0  0  0  0
   -1.3052   -0.1713    2.3596 O   0  0  0  0  0  0  0  0  0  0  0  0
   -2.1284   -1.9602    1.2764 O   0  0  0  0  0  0  0  0  0  0  0  0
   -0.5813    1.2981   -1.2662 H   0  0  0  0  0  0  0  0  0  0  0  0
   -0.9634    1.6698    0.4940 H   0  0  0  0  0  0  0  0  0  0  0  0
    1.0291    0.3170    1.2205 H   0  0  0  0  0  0  0  0  0  0  0  0
    1.4210   -0.0598   -0.5364 H   0  0  0  0  0  0  0  0  0  0  0  0
   -0.0965   -1.9067   -1.3333 H   0  0  0  0  0  0  0  0  0  0  0  0
   -1.4051   -1.0203   -1.8075 H   0  0  0  0  0  0  0  0  0  0  0  0
   -2.0016   -2.2813    0.3496 H   0  0  0  0  0  0  0  0  0  0  0  0
  1  4  1  0  0  0  0
  1  2  1  0  0  0  0
  1  9  1  0  0  0  0
  2 10  1  0  0  0  0
  3  6  2  0  0  0  0
  4  2  1  0  0  0  0
  4  3  1  0  0  0  0
  5  4  1  0  0  0  0
  7  3  1  0  0  0  0
  8  1  1  0  0  0  0
 11  2  1  0  0  0  0
 12  5  1  0  0  0  0
 13  5  1  0  0  0  0
 14  7  1  0  0  0  0
M  END
>  <HBA>
3

>  <HBD>
2

>  <TPSA>
63.32

>  <cid>
535

>  <dipole>
5.68

>  <excitation_energy_1>
5.624

>  <excitation_energy_2>
5.927

>  <excitation_energy_3>
6.874

>  <excitation_energy_4>
6.914

>  <homo_energy>
-6.77

>  <homo_lumo_gap>
7.32

>  <logP>
0.263

>  <lumo_energy>
0.55

>  <melting_point>
139.77

>  <molecular_refractivity>
23.75

>  <oscillator_strength_1>
0.0004

>  <oscillator_strength_2>
0.0138

>  <oscillator_strength_3>
0.0025

>  <oscillator_strength_4>
0.0114

>  <open_babel_can_smiles>
OC(=O)C1(N)CC1

>  <mulliken_charges>
14
1   -0.312118
2   -0.312392
3   0.616587
4   0.106162
5   -0.802993
6   -0.485513
7   -0.590794
8   0.153243
9   0.194487
10   0.19453
11   0.153275
12   0.32742
13   0.327465
14   0.43064

>  <lowdin_charges>
14
1   -0.297524
2   -0.29829
3   0.18357
4   -0.016663
5   -0.532846
6   -0.274159
7   -0.354568
8   0.159085
9   0.182961
10   0.181031
11   0.161228
12   0.273878
13   0.274264
14   0.358035

$$$$

