PCCDB-ID:  19508
public computational chemistry database (PCCDB) project, http://pccdb.org

 35 36  0  0  0  0  0  0  0  0999 V2000
    1.8148    0.8558   -2.8134 C   0  0  0  0  0  0  0  0  0  0  0  0
   -0.6203    9.1905   -2.2402 C   0  0  0  0  0  0  0  0  0  0  0  0
    0.4738   10.0113   -0.1370 C   0  0  0  0  0  0  0  0  0  0  0  0
    4.1996   -0.7305   -0.2867 C   0  0  0  0  0  0  0  0  0  0  0  0
    4.4455    0.3318    0.5889 C   0  0  0  0  0  0  0  0  0  0  0  0
    3.3506   -0.5486   -1.3783 C   0  0  0  0  0  0  0  0  0  0  0  0
    3.8428    1.5633    0.3657 C   0  0  0  0  0  0  0  0  0  0  0  0
    2.1687    6.1741    0.4129 C   0  0  0  0  0  0  0  0  0  0  0  0
    1.1011    5.3810   -1.5992 C   0  0  0  0  0  0  0  0  0  0  0  0
    1.5968    7.4251    0.2400 C   0  0  0  0  0  0  0  0  0  0  0  0
    0.5262    6.6245   -1.7850 C   0  0  0  0  0  0  0  0  0  0  0  0
    2.7304    0.6811   -1.6253 C   0  0  0  0  0  0  0  0  0  0  0  0
    1.9345    5.1286   -0.4927 C   0  0  0  0  0  0  0  0  0  0  0  0
    0.7505    7.6855   -0.8656 C   0  0  0  0  0  0  0  0  0  0  0  0
    2.9870    1.7478   -0.7342 C   0  0  0  0  0  0  0  0  0  0  0  0
    2.5693    3.9087   -0.2095 N   0  0  0  0  0  0  0  0  0  0  0  0
    2.3372    2.9720   -1.0292 N   0  0  0  0  0  0  0  0  0  0  0  0
    0.1613    8.9206   -1.0448 N   0  0  0  0  0  0  0  0  0  0  0  0
    1.7455   -0.0745   -3.3866 H   0  0  0  0  0  0  0  0  0  0  0  0
    2.1717    1.6462   -3.4824 H   0  0  0  0  0  0  0  0  0  0  0  0
    0.8045    1.1437   -2.5030 H   0  0  0  0  0  0  0  0  0  0  0  0
   -1.0023   10.2115   -2.1948 H   0  0  0  0  0  0  0  0  0  0  0  0
   -1.4814    8.5141   -2.3181 H   0  0  0  0  0  0  0  0  0  0  0  0
   -0.0244    9.0890   -3.1592 H   0  0  0  0  0  0  0  0  0  0  0  0
   -0.0942   10.8959   -0.4295 H   0  0  0  0  0  0  0  0  0  0  0  0
    1.5428   10.2713   -0.1501 H   0  0  0  0  0  0  0  0  0  0  0  0
    0.1985    9.7624    0.8962 H   0  0  0  0  0  0  0  0  0  0  0  0
    4.6663   -1.6977   -0.1188 H   0  0  0  0  0  0  0  0  0  0  0  0
    5.1051    0.1965    1.4422 H   0  0  0  0  0  0  0  0  0  0  0  0
    3.1625   -1.3775   -2.0568 H   0  0  0  0  0  0  0  0  0  0  0  0
    4.0152    2.4050    1.0270 H   0  0  0  0  0  0  0  0  0  0  0  0
    2.8168    5.9781    1.2623 H   0  0  0  0  0  0  0  0  0  0  0  0
    0.9209    4.5802   -2.3080 H   0  0  0  0  0  0  0  0  0  0  0  0
    1.8090    8.2024    0.9640 H   0  0  0  0  0  0  0  0  0  0  0  0
   -0.1056    6.7817   -2.6514 H   0  0  0  0  0  0  0  0  0  0  0  0
  1 21  1  0  0  0  0
  1 12  1  0  0  0  0
  2 22  1  0  0  0  0
  2 18  1  0  0  0  0
  3 27  1  0  0  0  0
  4 28  1  0  0  0  0
  4  5  2  0  0  0  0
  5 29  1  0  0  0  0
  6  4  1  0  0  0  0
  7  5  1  0  0  0  0
  7 31  1  0  0  0  0
  8 32  1  0  0  0  0
  9 13  1  0  0  0  0
 10  8  1  0  0  0  0
 10 34  1  0  0  0  0
 11  9  2  0  0  0  0
 11 14  1  0  0  0  0
 12  6  2  0  0  0  0
 12 15  1  0  0  0  0
 13 16  1  0  0  0  0
 13  8  2  0  0  0  0
 14 10  2  0  0  0  0
 15  7  2  0  0  0  0
 17 15  1  0  0  0  0
 17 16  1  0  0  0  0
 18 14  1  0  0  0  0
 18  3  1  0  0  0  0
 19  1  1  0  0  0  0
 20  1  1  0  0  0  0
 23  2  1  0  0  0  0
 24  2  1  0  0  0  0
 25  3  1  0  0  0  0
 26  3  1  0  0  0  0
 30  6  1  0  0  0  0
 33  9  1  0  0  0  0
 35 11  1  0  0  0  0
M  RAD  2  16   2  17   2
M  END
>  <HBA>
3

>  <HBD>
0

>  <TPSA>
27.96

>  <cid>
19508

>  <dipole>
4.28

>  <excitation_energy_1>
2.603

>  <excitation_energy_2>
3.053

>  <excitation_energy_3>
3.889

>  <excitation_energy_4>
4.158

>  <homo_energy>
-5.061

>  <homo_lumo_gap>
3.32

>  <logP>
4.476

>  <lumo_energy>
-1.742

>  <melting_point>
76.0

>  <molecular_refractivity>
76.23

>  <oscillator_strength_1>
0.0003

>  <oscillator_strength_2>
0.8965

>  <oscillator_strength_3>
0.0146

>  <oscillator_strength_4>
0.0053

>  <open_babel_can_smiles>
Cc1ccccc1[N][N]c1ccc(cc1)N(C)C

>  <mulliken_charges>
35
1   -0.513593
2   -0.313566
3   -0.313565
4   -0.114652
5   -0.149951
6   -0.197885
7   -0.126925
8   -0.148875
9   -0.137462
10   -0.204028
11   -0.206308
12   0.154589
13   0.273271
14   0.38029
15   0.221675
16   -0.317542
17   -0.330546
18   -0.472674
19   0.141607
20   0.167314
21   0.167289
22   0.158341
23   0.166418
24   0.161667
25   0.158173
26   0.161236
27   0.166372
28   0.126024
29   0.127325
30   0.120828
31   0.149965
32   0.136995
33   0.151962
34   0.127406
35   0.128826

>  <lowdin_charges>
35
1   -0.440877
2   -0.349158
3   -0.3477
4   -0.151817
5   -0.16125
6   -0.172445
7   -0.155129
8   -0.134401
9   -0.139985
10   -0.215865
11   -0.203922
12   0.006554
13   -0.017598
14   0.068233
15   0.002795
16   -0.080861
17   -0.105219
18   -0.102877
19   0.150021
20   0.16578
21   0.164168
22   0.158736
23   0.153883
24   0.149164
25   0.160046
26   0.147126
27   0.152631
28   0.156171
29   0.15627
30   0.154577
31   0.171327
32   0.165854
33   0.17274
34   0.161979
35   0.161047

$$$$

