PCCDB-ID:  10558
public computational chemistry database (PCCDB) project, http://pccdb.org

 15 14  0  0  0  0  0  0  0  0999 V2000
    0.9896   -0.1230    0.0904 C   0  0  0  0  0  0  0  0  0  0  0  0
    2.9732    0.4731   -1.3674 C   0  0  0  0  0  0  0  0  0  0  0  0
    3.0419    0.8523    1.1569 C   0  0  0  0  0  0  0  0  0  0  0  0
    2.5226   -0.0308    0.0090 C   0  0  0  0  0  0  0  0  0  0  0  0
    4.8747    0.9095    1.3681 S   0  0  0  0  0  0  0  0  0  0  0  0
    0.5963   -0.7776   -0.6959 H   0  0  0  0  0  0  0  0  0  0  0  0
    0.5286    0.8646   -0.0399 H   0  0  0  0  0  0  0  0  0  0  0  0
    0.6590   -0.5221    1.0567 H   0  0  0  0  0  0  0  0  0  0  0  0
    2.6234   -0.1973   -2.1608 H   0  0  0  0  0  0  0  0  0  0  0  0
    4.0635    0.5390   -1.4306 H   0  0  0  0  0  0  0  0  0  0  0  0
    2.5614    1.4710   -1.5688 H   0  0  0  0  0  0  0  0  0  0  0  0
    2.5961    0.5485    2.1095 H   0  0  0  0  0  0  0  0  0  0  0  0
    2.7567    1.8977    0.9890 H   0  0  0  0  0  0  0  0  0  0  0  0
    2.9296   -1.0424    0.1566 H   0  0  0  0  0  0  0  0  0  0  0  0
    5.0317   -0.3873    1.7142 H   0  0  0  0  0  0  0  0  0  0  0  0
  1  8  1  0  0  0  0
  2  4  1  0  0  0  0
  3  5  1  0  0  0  0
  3 12  1  0  0  0  0
  4  1  1  0  0  0  0
  4 14  1  0  0  0  0
  4  3  1  0  0  0  0
  5 15  1  0  0  0  0
  6  1  1  0  0  0  0
  7  1  1  0  0  0  0
  9  2  1  0  0  0  0
 10  2  1  0  0  0  0
 11  2  1  0  0  0  0
 13  3  1  0  0  0  0
M  END
>  <HBA>
1

>  <HBD>
1

>  <TPSA>
38.8

>  <cid>
10558

>  <dipole>
1.83

>  <excitation_energy_1>
5.222

>  <excitation_energy_2>
5.846

>  <excitation_energy_3>
6.338

>  <excitation_energy_4>
6.525

>  <homo_energy>
-6.362

>  <homo_lumo_gap>
7.157

>  <logP>
1.572

>  <lumo_energy>
0.795

>  <melting_point>
-4.98

>  <molecular_refractivity>
29.27

>  <oscillator_strength_1>
0.0091

>  <oscillator_strength_2>
0.0306

>  <oscillator_strength_3>
0.004

>  <oscillator_strength_4>
0.0107

>  <open_babel_can_smiles>
SCC(C)C

>  <mulliken_charges>
15
1   -0.445165
2   -0.444139
3   -0.410623
4   -0.059479
5   -0.088869
6   0.148755
7   0.143235
8   0.141936
9   0.141146
10   0.171456
11   0.136666
12   0.172697
13   0.173022
14   0.127255
15   0.092107

>  <lowdin_charges>
15
1   -0.445595
2   -0.44637
3   -0.370954
4   -0.123273
5   -0.088334
6   0.154011
7   0.147447
8   0.148057
9   0.150268
10   0.160943
11   0.144601
12   0.159013
13   0.163533
14   0.137493
15   0.109158

$$$$

