PCCDB-ID:  35253
public computational chemistry database (PCCDB) project, http://pccdb.org

 28 29  0  0  0  0  0  0  0  0999 V2000
    0.9144    0.9842   -0.2475 C   0  0  0  0  0  0  0  0  0  0  0  0
    5.2068    3.4403   -0.2014 C   0  0  0  0  0  0  0  0  0  0  0  0
    2.5412   -6.1138    0.1730 C   0  0  0  0  0  0  0  0  0  0  0  0
    3.9010   -5.9472    0.4451 C   0  0  0  0  0  0  0  0  0  0  0  0
    1.7668   -4.9942   -0.1383 C   0  0  0  0  0  0  0  0  0  0  0  0
    4.4711   -4.6783    0.4029 C   0  0  0  0  0  0  0  0  0  0  0  0
    2.3281   -3.7183   -0.1753 C   0  0  0  0  0  0  0  0  0  0  0  0
    2.3479    0.5439   -0.1682 C   0  0  0  0  0  0  0  0  0  0  0  0
    3.7000   -3.5391    0.0995 C   0  0  0  0  0  0  0  0  0  0  0  0
    3.9210   -1.1538   -0.0124 C   0  0  0  0  0  0  0  0  0  0  0  0
    4.5118    1.1855   -0.1096 C   0  0  0  0  0  0  0  0  0  0  0  0
    2.6030   -0.7368   -0.0928 N   0  0  0  0  0  0  0  0  0  0  0  0
    3.2661    1.5742   -0.1836 N   0  0  0  0  0  0  0  0  0  0  0  0
    4.4143   -2.3328    0.0801 N   0  0  0  0  0  0  0  0  0  0  0  0
    4.8825   -0.1054   -0.0236 N   0  0  0  0  0  0  0  0  0  0  0  0
    5.5331    2.0392   -0.1116 O   0  0  0  0  0  0  0  0  0  0  0  0
    0.2464    0.1224   -0.2250 H   0  0  0  0  0  0  0  0  0  0  0  0
    0.7510    1.5577   -1.1674 H   0  0  0  0  0  0  0  0  0  0  0  0
    0.6842    1.6545    0.5886 H   0  0  0  0  0  0  0  0  0  0  0  0
    6.1693    3.9514   -0.1902 H   0  0  0  0  0  0  0  0  0  0  0  0
    4.5948    3.7440    0.6504 H   0  0  0  0  0  0  0  0  0  0  0  0
    4.6669    3.6470   -1.1278 H   0  0  0  0  0  0  0  0  0  0  0  0
    2.0915   -7.1029    0.2002 H   0  0  0  0  0  0  0  0  0  0  0  0
    4.5202   -6.8080    0.6858 H   0  0  0  0  0  0  0  0  0  0  0  0
    0.7076   -5.1125   -0.3550 H   0  0  0  0  0  0  0  0  0  0  0  0
    5.5283   -4.5338    0.6046 H   0  0  0  0  0  0  0  0  0  0  0  0
    1.7163   -2.8581   -0.4118 H   0  0  0  0  0  0  0  0  0  0  0  0
    5.8591   -0.3694    0.0329 H   0  0  0  0  0  0  0  0  0  0  0  0
  1 17  1  0  0  0  0
  1  8  1  0  0  0  0
  1 19  1  0  0  0  0
  2 20  1  0  0  0  0
  2 16  1  0  0  0  0
  2 21  1  0  0  0  0
  3 23  1  0  0  0  0
  3  4  2  0  0  0  0
  4 24  1  0  0  0  0
  5  3  1  0  0  0  0
  6  4  1  0  0  0  0
  6 26  1  0  0  0  0
  7  5  2  0  0  0  0
  7  9  1  0  0  0  0
  8 12  2  0  0  0  0
  9  6  2  0  0  0  0
 10 14  1  0  0  0  0
 11 15  1  0  0  0  0
 12 10  2  0  0  0  0
 13  8  1  0  0  0  0
 13 11  2  0  0  0  0
 14  9  1  0  0  0  0
 15 10  1  0  0  0  0
 15 28  1  0  0  0  0
 16 11  1  0  0  0  0
 18  1  1  0  0  0  0
 22  2  1  0  0  0  0
 25  5  1  0  0  0  0
 27  7  1  0  0  0  0
M  RAD  1  14   2
M  END
>  <HBA>
4

>  <HBD>
1

>  <TPSA>
59.93

>  <cid>
35253

>  <dipole>
5.03

>  <excitation_energy_1>
3.415

>  <excitation_energy_2>
4.403

>  <excitation_energy_3>
4.532

>  <excitation_energy_4>
4.616

>  <homo_energy>
-5.26

>  <homo_lumo_gap>
4.093

>  <logP>
2.005

>  <lumo_energy>
-1.167

>  <melting_point>
134.9

>  <molecular_refractivity>
60.83

>  <oscillator_strength_1>
0.0965

>  <oscillator_strength_2>
0.0048

>  <oscillator_strength_3>
0.4627

>  <oscillator_strength_4>
0.1051

>  <open_babel_can_smiles>
COC1=NC(=[N]=C(N1)[N]c1ccccc1)C

>  <mulliken_charges>
28
1   -0.502531
2   -0.214142
3   -0.129459
4   -0.134297
5   -0.145731
6   -0.160508
7   -0.150262
8   0.437399
9   0.270433
10   0.678968
11   0.790533
12   -0.499202
13   -0.539785
14   -0.6165
15   -0.665428
16   -0.482773
17   0.179318
18   0.174269
19   0.174751
20   0.17569
21   0.182126
22   0.182179
23   0.118546
24   0.119795
25   0.119645
26   0.121199
27   0.158549
28   0.357216

>  <lowdin_charges>
28
1   -0.444705
2   -0.267751
3   -0.169274
4   -0.162781
5   -0.156948
6   -0.163519
7   -0.184447
8   0.129755
9   0.046338
10   0.128722
11   0.195184
12   -0.209823
13   -0.261663
14   -0.224991
15   -0.199394
16   -0.171001
17   0.172355
18   0.173108
19   0.173799
20   0.166567
21   0.167077
22   0.166493
23   0.152218
24   0.154119
25   0.150647
26   0.156477
27   0.173467
28   0.309968

$$$$

