PCCDB-ID:  59888
public computational chemistry database (PCCDB) project, http://pccdb.org

 34 34  0  0  0  0  0  0  0  0999 V2000
    6.7353   -2.7389   -0.8987 C   0  0  0  0  0  0  0  0  0  0  0  0
   10.2956   -0.9836    7.5820 C   0  0  0  0  0  0  0  0  0  0  0  0
    6.4614   -2.3339    0.5533 C   0  0  0  0  0  0  0  0  0  0  0  0
    7.7128   -1.8389    1.2884 C   0  0  0  0  0  0  0  0  0  0  0  0
    7.4428   -1.4200    2.7382 C   0  0  0  0  0  0  0  0  0  0  0  0
    8.8389   -5.2248    5.2795 C   0  0  0  0  0  0  0  0  0  0  0  0
    9.0269   -4.2479    4.2997 C   0  0  0  0  0  0  0  0  0  0  0  0
    8.6939   -0.9734    3.4938 C   0  0  0  0  0  0  0  0  0  0  0  0
    9.4279   -3.6003    6.9719 C   0  0  0  0  0  0  0  0  0  0  0  0
    9.0299   -4.9055    6.6281 C   0  0  0  0  0  0  0  0  0  0  0  0
    9.4134   -2.9525    4.6258 C   0  0  0  0  0  0  0  0  0  0  0  0
    9.6276   -2.6326    5.9862 C   0  0  0  0  0  0  0  0  0  0  0  0
    8.7752   -5.8470    7.6384 N   0  0  0  0  0  0  0  0  0  0  0  0
   10.0338   -1.3524    6.2393 O   0  0  0  0  0  0  0  0  0  0  0  0
    9.6658   -2.0277    3.6350 O   0  0  0  0  0  0  0  0  0  0  0  0
    5.8243   -3.0904   -1.3967 H   0  0  0  0  0  0  0  0  0  0  0  0
    7.4766   -3.5459   -0.9522 H   0  0  0  0  0  0  0  0  0  0  0  0
    7.1267   -1.8936   -1.4784 H   0  0  0  0  0  0  0  0  0  0  0  0
   11.0924   -1.5990    8.0205 H   0  0  0  0  0  0  0  0  0  0  0  0
    9.3965   -1.0605    8.2085 H   0  0  0  0  0  0  0  0  0  0  0  0
   10.6222    0.0576    7.5477 H   0  0  0  0  0  0  0  0  0  0  0  0
    6.0357   -3.1889    1.0979 H   0  0  0  0  0  0  0  0  0  0  0  0
    5.6918   -1.5487    0.5750 H   0  0  0  0  0  0  0  0  0  0  0  0
    8.1431   -0.9870    0.7403 H   0  0  0  0  0  0  0  0  0  0  0  0
    8.4802   -2.6241    1.2813 H   0  0  0  0  0  0  0  0  0  0  0  0
    6.9738   -2.2484    3.2865 H   0  0  0  0  0  0  0  0  0  0  0  0
    6.7211   -0.5896    2.7601 H   0  0  0  0  0  0  0  0  0  0  0  0
    8.5356   -6.2295    4.9959 H   0  0  0  0  0  0  0  0  0  0  0  0
    8.8889   -4.4900    3.2501 H   0  0  0  0  0  0  0  0  0  0  0  0
    8.4342   -0.5794    4.4826 H   0  0  0  0  0  0  0  0  0  0  0  0
    9.2175   -0.1863    2.9403 H   0  0  0  0  0  0  0  0  0  0  0  0
    9.5748   -3.3560    8.0187 H   0  0  0  0  0  0  0  0  0  0  0  0
    8.8454   -6.8091    7.3284 H   0  0  0  0  0  0  0  0  0  0  0  0
    9.3171   -5.7069    8.4832 H   0  0  0  0  0  0  0  0  0  0  0  0
  1  3  1  0  0  0  0
  2 19  1  0  0  0  0
  2 20  1  0  0  0  0
  3 23  1  0  0  0  0
  3 22  1  0  0  0  0
  3  4  1  0  0  0  0
  4  5  1  0  0  0  0
  5 27  1  0  0  0  0
  5 26  1  0  0  0  0
  5  8  1  0  0  0  0
  6 10  2  0  0  0  0
  7 11  2  0  0  0  0
  7  6  1  0  0  0  0
  8 15  1  0  0  0  0
  8 30  1  0  0  0  0
  9 32  1  0  0  0  0
 10  9  1  0  0  0  0
 10 13  1  0  0  0  0
 11 12  1  0  0  0  0
 12 14  1  0  0  0  0
 12  9  2  0  0  0  0
 13 34  1  0  0  0  0
 14  2  1  0  0  0  0
 15 11  1  0  0  0  0
 16  1  1  0  0  0  0
 17  1  1  0  0  0  0
 18  1  1  0  0  0  0
 21  2  1  0  0  0  0
 24  4  1  0  0  0  0
 25  4  1  0  0  0  0
 28  6  1  0  0  0  0
 29  7  1  0  0  0  0
 31  8  1  0  0  0  0
 33 13  1  0  0  0  0
M  END
>  <HBA>
3

>  <HBD>
1

>  <TPSA>
44.48

>  <cid>
59888

>  <dipole>
2.67

>  <excitation_energy_1>
4.441

>  <excitation_energy_2>
4.592

>  <excitation_energy_3>
4.975

>  <excitation_energy_4>
5.095

>  <homo_energy>
-5.04

>  <homo_lumo_gap>
5.461

>  <logP>
3.428

>  <lumo_energy>
0.422

>  <melting_point>
62.03

>  <molecular_refractivity>
63.06

>  <oscillator_strength_1>
0.0071

>  <oscillator_strength_2>
0.0502

>  <oscillator_strength_3>
0.0024

>  <oscillator_strength_4>
0.002

>  <open_babel_can_smiles>
CCCCCOc1ccc(cc1OC)N

>  <mulliken_charges>
34
1   -0.440958
2   -0.212414
3   -0.246997
4   -0.247132
5   -0.276063
6   -0.190832
7   -0.183334
8   -0.036091
9   -0.261568
10   0.310963
11   0.304654
12   0.347333
13   -0.789056
14   -0.507644
15   -0.537411
16   0.139575
17   0.141293
18   0.140684
19   0.150031
20   0.15054
21   0.169193
22   0.129992
23   0.127293
24   0.12355
25   0.146328
26   0.142825
27   0.126355
28   0.113037
29   0.134352
30   0.14286
31   0.137279
32   0.119391
33   0.317342
34   0.31463

>  <lowdin_charges>
34
1   -0.446369
2   -0.277031
3   -0.273338
4   -0.278547
5   -0.294478
6   -0.217558
7   -0.162361
8   -0.12508
9   -0.251009
10   0.059483
11   0.045801
12   0.089236
13   -0.491608
14   -0.193787
15   -0.231051
16   0.148483
17   0.146714
18   0.146735
19   0.145576
20   0.144365
21   0.161009
22   0.139433
23   0.137548
24   0.137343
25   0.145602
26   0.14838
27   0.143481
28   0.151442
29   0.162799
30   0.142521
31   0.146005
32   0.156169
33   0.272132
34   0.27196

$$$$

