PCCDB-ID:  14903
public computational chemistry database (PCCDB) project, http://pccdb.org

 20 19  0  0  1  0  0  0  0  0999 V2000
    5.2502    5.1775    4.9863 C   0  0  0  0  0  0  0  0  0  0  0  0
    3.2729    3.8167    0.2579 C   0  0  0  0  0  0  0  0  0  0  0  0
    5.7516    4.6238    3.8832 C   0  0  0  0  0  0  0  0  0  0  0  0
    4.9320    3.9167    2.8440 C   0  0  0  0  0  0  0  0  0  0  0  0
    5.5583    4.3229   -0.7428 C   0  0  0  0  0  0  0  0  0  0  0  0
    4.7885    3.7197    0.4358 C   0  0  1  0  0  0  0  0  0  0  0  0
    5.3101    5.7129   -0.8720 O   0  0  0  0  0  0  0  0  0  0  0  0
    5.2510    4.4627    1.5700 O   0  0  0  0  0  0  0  0  0  0  0  0
    5.8860    5.6529    5.7281 H   0  0  0  0  0  0  0  0  0  0  0  0
    4.1819    5.1736    5.1935 H   0  0  0  0  0  0  0  0  0  0  0  0
    2.9552    3.2211   -0.6058 H   0  0  0  0  0  0  0  0  0  0  0  0
    2.9849    4.8572    0.0829 H   0  0  0  0  0  0  0  0  0  0  0  0
    2.7351    3.4419    1.1347 H   0  0  0  0  0  0  0  0  0  0  0  0
    6.8239    4.6472    3.6916 H   0  0  0  0  0  0  0  0  0  0  0  0
    3.8601    4.0161    3.0704 H   0  0  0  0  0  0  0  0  0  0  0  0
    5.1708    2.8378    2.8451 H   0  0  0  0  0  0  0  0  0  0  0  0
    5.2426    3.8544   -1.6809 H   0  0  0  0  0  0  0  0  0  0  0  0
    6.6322    4.1213   -0.6026 H   0  0  0  0  0  0  0  0  0  0  0  0
    5.0861    2.6629    0.5513 H   0  0  0  0  0  0  0  0  0  0  0  0
    5.4778    6.0856    0.0102 H   0  0  0  0  0  0  0  0  0  0  0  0
  1 10  1  0  0  0  0
  1  9  1  0  0  0  0
  2  6  1  0  0  0  0
  2 13  1  0  0  0  0
  3  1  2  0  0  0  0
  4 16  1  0  0  0  0
  4 15  1  0  0  0  0
  4  3  1  0  0  0  0
  5 18  1  0  0  0  0
  5  6  1  0  0  0  0
  6 19  1  1  0  0  0
  6  8  1  0  0  0  0
  7  5  1  0  0  0  0
  7 20  1  0  0  0  0
  8  4  1  0  0  0  0
 11  2  1  0  0  0  0
 12  2  1  0  0  0  0
 14  3  1  0  0  0  0
 17  5  1  0  0  0  0
M  END
>  <HBA>
2

>  <HBD>
1

>  <TPSA>
29.46

>  <cid>
14903

>  <dipole>
2.43

>  <excitation_energy_1>
6.086

>  <excitation_energy_2>
6.505

>  <excitation_energy_3>
6.567

>  <excitation_energy_4>
6.828

>  <homo_energy>
-6.912

>  <homo_lumo_gap>
7.119

>  <logP>
0.57

>  <lumo_energy>
0.207

>  <melting_point>
-37.49

>  <molecular_refractivity>
32.73

>  <oscillator_strength_1>
0.0231

>  <oscillator_strength_2>
0.0104

>  <oscillator_strength_3>
0.0105

>  <oscillator_strength_4>
0.0092

>  <open_babel_can_smiles>
C[C@H](OCC=C)CO

>  <mulliken_charges>
20
1   -0.335501
2   -0.460566
3   -0.053674
4   -0.055457
5   -0.029738
6   0.133303
7   -0.623371
8   -0.504608
9   0.147063
10   0.141521
11   0.144306
12   0.169678
13   0.144718
14   0.139709
15   0.133461
16   0.129401
17   0.140386
18   0.126104
19   0.109912
20   0.403351

>  <lowdin_charges>
20
1   -0.326314
2   -0.461871
3   -0.149323
4   -0.11956
5   -0.137037
6   -0.012188
7   -0.467161
8   -0.285699
9   0.163736
10   0.15535
11   0.155838
12   0.16264
13   0.151347
14   0.156337
15   0.133519
16   0.132559
17   0.147786
18   0.129863
19   0.125176
20   0.345003

$$$$

