PCCDB-ID:  62539
public computational chemistry database (PCCDB) project, http://pccdb.org

 18 17  0  0  0  0  0  0  0  0999 V2000
    3.0674   -0.4722    1.6013 C   0  0  0  0  0  0  0  0  0  0  0  0
    2.8063   -0.0526   -4.0454 C   0  0  0  0  0  0  0  0  0  0  0  0
    2.0143   -0.4082    0.4975 C   0  0  0  0  0  0  0  0  0  0  0  0
    2.0551   -1.2314   -3.3901 C   0  0  0  0  0  0  0  0  0  0  0  0
    2.5341   -0.8603   -0.8500 C   0  0  0  0  0  0  0  0  0  0  0  0
    1.5207   -0.8485   -2.0268 C   0  0  0  0  0  0  0  0  0  0  0  0
    3.6786   -1.2245   -1.0485 O   0  0  0  0  0  0  0  0  0  0  0  0
    0.3692   -0.5170   -1.8138 O   0  0  0  0  0  0  0  0  0  0  0  0
    2.6447   -0.1342    2.5529 H   0  0  0  0  0  0  0  0  0  0  0  0
    3.9276    0.1601    1.3616 H   0  0  0  0  0  0  0  0  0  0  0  0
    3.4389   -1.4932    1.7327 H   0  0  0  0  0  0  0  0  0  0  0  0
    3.1632   -0.3426   -5.0387 H   0  0  0  0  0  0  0  0  0  0  0  0
    3.6732    0.2393   -3.4456 H   0  0  0  0  0  0  0  0  0  0  0  0
    2.1491    0.8160   -4.1605 H   0  0  0  0  0  0  0  0  0  0  0  0
    1.6138    0.6081    0.3749 H   0  0  0  0  0  0  0  0  0  0  0  0
    1.1320   -1.0174    0.7364 H   0  0  0  0  0  0  0  0  0  0  0  0
    2.7415   -2.0772   -3.2830 H   0  0  0  0  0  0  0  0  0  0  0  0
    1.2046   -1.5305   -4.0097 H   0  0  0  0  0  0  0  0  0  0  0  0
  1 11  1  0  0  0  0
  1  9  1  0  0  0  0
  2 13  1  0  0  0  0
  2  4  1  0  0  0  0
  3 16  1  0  0  0  0
  3  1  1  0  0  0  0
  4 17  1  0  0  0  0
  4  6  1  0  0  0  0
  5  3  1  0  0  0  0
  6  8  2  0  0  0  0
  6  5  1  0  0  0  0
  7  5  2  0  0  0  0
 10  1  1  0  0  0  0
 12  2  1  0  0  0  0
 14  2  1  0  0  0  0
 15  3  1  0  0  0  0
 18  4  1  0  0  0  0
M  END
>  <HBA>
2

>  <HBD>
0

>  <TPSA>
34.14

>  <cid>
62539

>  <dipole>
0.3

>  <excitation_energy_1>
2.609

>  <excitation_energy_2>
4.431

>  <excitation_energy_3>
5.866

>  <excitation_energy_4>
6.108

>  <homo_energy>
-6.49

>  <homo_lumo_gap>
4.201

>  <logP>
0.945

>  <lumo_energy>
-2.288

>  <melting_point>
16.22

>  <molecular_refractivity>
31.36

>  <oscillator_strength_1>
0.0001

>  <oscillator_strength_2>
0.0002

>  <oscillator_strength_3>
0.0004

>  <oscillator_strength_4>
0.0004

>  <open_babel_can_smiles>
CCC(=O)C(=O)CC

>  <mulliken_charges>
18
1   -0.438496
2   -0.462343
3   -0.345737
4   -0.328805
5   0.386749
6   0.389515
7   -0.432387
8   -0.424773
9   0.14703
10   0.160222
11   0.160328
12   0.161571
13   0.170978
14   0.160354
15   0.178146
16   0.180322
17   0.172707
18   0.164618

>  <lowdin_charges>
18
1   -0.440261
2   -0.438314
3   -0.302331
4   -0.300564
5   0.131267
6   0.132831
7   -0.208589
8   -0.207341
9   0.154021
10   0.158991
11   0.157686
12   0.160046
13   0.161434
14   0.155611
15   0.173532
16   0.175719
17   0.171025
18   0.165236

$$$$

