PCCDB-ID:  12199
public computational chemistry database (PCCDB) project, http://pccdb.org

 22 21  0  0  0  0  0  0  0  0999 V2000
    1.7654    3.0167    0.3734 C   0  0  0  0  0  0  0  0  0  0  0  0
    5.0688    1.5718   -2.9267 C   0  0  0  0  0  0  0  0  0  0  0  0
    2.8133    3.6610    1.2834 C   0  0  0  0  0  0  0  0  0  0  0  0
    6.1048    2.4097   -2.1926 C   0  0  0  0  0  0  0  0  0  0  0  0
    4.0786    2.8110    1.4443 C   0  0  0  0  0  0  0  0  0  0  0  0
    5.8182    1.9451    0.1195 C   0  0  0  0  0  0  0  0  0  0  0  0
    4.7664    2.6583    0.1692 N   0  0  0  0  0  0  0  0  0  0  0  0
    6.4147    1.2521    1.1237 O   0  0  0  0  0  0  0  0  0  0  0  0
    6.5539    1.7597   -0.9845 O   0  0  0  0  0  0  0  0  0  0  0  0
    0.8887    3.6639    0.2590 H   0  0  0  0  0  0  0  0  0  0  0  0
    1.4219    2.0576    0.7818 H   0  0  0  0  0  0  0  0  0  0  0  0
    2.1850    2.8284   -0.6196 H   0  0  0  0  0  0  0  0  0  0  0  0
    4.8071    2.0533   -3.8762 H   0  0  0  0  0  0  0  0  0  0  0  0
    4.1598    1.4750   -2.3272 H   0  0  0  0  0  0  0  0  0  0  0  0
    5.4607    0.5728   -3.1438 H   0  0  0  0  0  0  0  0  0  0  0  0
    2.3873    3.8430    2.2793 H   0  0  0  0  0  0  0  0  0  0  0  0
    3.1076    4.6377    0.8791 H   0  0  0  0  0  0  0  0  0  0  0  0
    5.7113    3.3969   -1.9387 H   0  0  0  0  0  0  0  0  0  0  0  0
    7.0168    2.5210   -2.7853 H   0  0  0  0  0  0  0  0  0  0  0  0
    3.7859    1.8292    1.8644 H   0  0  0  0  0  0  0  0  0  0  0  0
    4.7338    3.2940    2.1911 H   0  0  0  0  0  0  0  0  0  0  0  0
    5.8807    1.3635    1.9259 H   0  0  0  0  0  0  0  0  0  0  0  0
  1 11  1  0  0  0  0
  1  3  1  0  0  0  0
  2 14  1  0  0  0  0
  2  4  1  0  0  0  0
  3  5  1  0  0  0  0
  3 16  1  0  0  0  0
  4 18  1  0  0  0  0
  4  9  1  0  0  0  0
  5 20  1  0  0  0  0
  5 21  1  0  0  0  0
  6  7  2  0  0  0  0
  6  8  1  0  0  0  0
  7  5  1  0  0  0  0
  8 22  1  0  0  0  0
  9  6  1  0  0  0  0
 10  1  1  0  0  0  0
 12  1  1  0  0  0  0
 13  2  1  0  0  0  0
 15  2  1  0  0  0  0
 17  3  1  0  0  0  0
 19  4  1  0  0  0  0
M  END
>  <HBA>
3

>  <HBD>
1

>  <TPSA>
38.33

>  <cid>
12199

>  <dipole>
1.16

>  <excitation_energy_1>
5.829

>  <excitation_energy_2>
6.288

>  <excitation_energy_3>
6.561

>  <excitation_energy_4>
6.725

>  <homo_energy>
-6.591

>  <homo_lumo_gap>
7.921

>  <logP>
1.533

>  <lumo_energy>
1.331

>  <melting_point>
23.39

>  <molecular_refractivity>
35.43

>  <oscillator_strength_1>
0.006

>  <oscillator_strength_2>
0.0134

>  <oscillator_strength_3>
0.0128

>  <oscillator_strength_4>
0.0028

>  <open_babel_can_smiles>
CCC/N=C(/OCC)\O

>  <mulliken_charges>
22
1   -0.443661
2   -0.463205
3   -0.245918
4   -0.031229
5   -0.170418
6   0.692674
7   -0.466919
8   -0.594151
9   -0.461172
10   0.140235
11   0.134366
12   0.166262
13   0.145302
14   0.175427
15   0.156798
16   0.125483
17   0.144047
18   0.169189
19   0.150848
20   0.120301
21   0.130399
22   0.425343

>  <lowdin_charges>
22
1   -0.446384
2   -0.455939
3   -0.27121
4   -0.121277
5   -0.20931
6   0.188893
7   -0.286871
8   -0.36078
9   -0.179768
10   0.149269
11   0.143028
12   0.156546
13   0.156405
14   0.163891
15   0.155336
16   0.139331
17   0.147474
18   0.15767
19   0.151584
20   0.123453
21   0.132766
22   0.365893

$$$$

