PCCDB-ID:  59269
public computational chemistry database (PCCDB) project, http://pccdb.org

 22 21  0  0  0  0  0  0  0  0999 V2000
    1.0875    0.0177   -0.0244 C   0  0  0  0  0  0  0  0  0  0  0  0
    0.5607    0.6538    1.2694 C   0  0  0  0  0  0  0  0  0  0  0  0
    2.6059   -0.1746   -0.0186 C   0  0  0  0  0  0  0  0  0  0  0  0
   -0.9609    0.8159    1.2422 C   0  0  0  0  0  0  0  0  0  0  0  0
   -3.3075    1.4149    2.6409 C   0  0  0  0  0  0  0  0  0  0  0  0
    3.0554   -0.7521   -1.2908 N   0  0  0  0  0  0  0  0  0  0  0  0
   -3.8040    0.7525    1.6693 N   0  0  0  0  0  0  0  0  0  0  0  0
   -3.9771    1.9864    3.7172 N   0  0  0  0  0  0  0  0  0  0  0  0
   -1.5295    1.6286    2.7892 S   0  0  0  0  0  0  0  0  0  0  0  0
    0.8187    0.6345   -0.8910 H   0  0  0  0  0  0  0  0  0  0  0  0
    0.6013   -0.9582   -0.1746 H   0  0  0  0  0  0  0  0  0  0  0  0
    1.0382    1.6329    1.4135 H   0  0  0  0  0  0  0  0  0  0  0  0
    0.8475    0.0367    2.1311 H   0  0  0  0  0  0  0  0  0  0  0  0
    2.8916   -0.7675    0.8709 H   0  0  0  0  0  0  0  0  0  0  0  0
    3.0932    0.8031    0.0913 H   0  0  0  0  0  0  0  0  0  0  0  0
   -1.4749   -0.1454    1.1734 H   0  0  0  0  0  0  0  0  0  0  0  0
   -1.2832    1.4255    0.3934 H   0  0  0  0  0  0  0  0  0  0  0  0
    2.6954   -1.7023   -1.3775 H   0  0  0  0  0  0  0  0  0  0  0  0
    4.0707   -0.8383   -1.2901 H   0  0  0  0  0  0  0  0  0  0  0  0
   -4.8263    0.7139    1.7289 H   0  0  0  0  0  0  0  0  0  0  0  0
   -4.9650    2.1555    3.5681 H   0  0  0  0  0  0  0  0  0  0  0  0
   -3.5127    2.7567    4.1832 H   0  0  0  0  0  0  0  0  0  0  0  0
  1  3  1  0  0  0  0
  1  2  1  0  0  0  0
  2 12  1  0  0  0  0
  2 13  1  0  0  0  0
  3 15  1  0  0  0  0
  3 14  1  0  0  0  0
  4  2  1  0  0  0  0
  4  9  1  0  0  0  0
  5  9  1  0  0  0  0
  5  8  2  0  0  0  0
  6 19  1  0  0  0  0
  6  3  1  0  0  0  0
  7 20  1  0  0  0  0
  7  5  1  0  0  0  0
  8 22  1  0  0  0  0
 10  1  1  0  0  0  0
 11  1  1  0  0  0  0
 16  4  1  0  0  0  0
 17  4  1  0  0  0  0
 18  6  1  0  0  0  0
 21  8  1  0  0  0  0
M  RAD  1   7   2
M  END
>  <HBA>
4

>  <HBD>
3

>  <TPSA>
101.19

>  <cid>
59269

>  <dipole>
1.49

>  <excitation_energy_1>
5.255

>  <excitation_energy_2>
5.437

>  <excitation_energy_3>
5.605

>  <excitation_energy_4>
5.835

>  <homo_energy>
-6.144

>  <homo_lumo_gap>
6.86

>  <logP>
1.852

>  <lumo_energy>
0.716

>  <melting_point>
122.87

>  <molecular_refractivity>
42.75

>  <oscillator_strength_1>
0.0052

>  <oscillator_strength_2>
0.001

>  <oscillator_strength_3>
0.0137

>  <oscillator_strength_4>
0.0018

>  <open_babel_can_smiles>
NCCCCSC(=[NH2])[NH]

>  <mulliken_charges>
22
1   -0.250661
2   -0.279548
3   -0.133254
4   -0.395261
5   0.277804
6   -0.715438
7   -0.60894
8   -0.728315
9   0.101256
10   0.152171
11   0.129168
12   0.145984
13   0.149213
14   0.111808
15   0.138868
16   0.200854
17   0.182689
18   0.291721
19   0.295335
20   0.272694
21   0.323784
22   0.338067

>  <lowdin_charges>
22
1   -0.27764
2   -0.278903
3   -0.20388
4   -0.357498
5   -0.007949
6   -0.554411
7   -0.44722
8   -0.490747
9   0.117672
10   0.151829
11   0.138556
12   0.146678
13   0.149363
14   0.11638
15   0.140691
16   0.175675
17   0.165801
18   0.249706
19   0.2522
20   0.247933
21   0.277392
22   0.288373

$$$$

