PCCDB-ID:  66358
public computational chemistry database (PCCDB) project, http://pccdb.org

 23 22  0  0  0  0  0  0  0  0999 V2000
    1.4220   -0.2738   -0.4032 C   0  0  0  0  0  0  0  0  0  0  0  0
    5.6856    3.0966    0.2506 C   0  0  0  0  0  0  0  0  0  0  0  0
    1.0567   -1.7621   -0.3867 C   0  0  0  0  0  0  0  0  0  0  0  0
    7.1628    3.0960    0.6587 C   0  0  0  0  0  0  0  0  0  0  0  0
    2.8961   -0.0351   -0.0691 C   0  0  0  0  0  0  0  0  0  0  0  0
    5.0924    1.6867    0.2155 C   0  0  0  0  0  0  0  0  0  0  0  0
    1.8144   -2.5370   -1.3105 O   0  0  0  0  0  0  0  0  0  0  0  0
    7.3904    2.5242    1.9429 O   0  0  0  0  0  0  0  0  0  0  0  0
    3.3011    1.7528   -0.1838 S   0  0  0  0  0  0  0  0  0  0  0  0
    0.7797    0.2574    0.3118 H   0  0  0  0  0  0  0  0  0  0  0  0
    1.1953    0.1432   -1.3952 H   0  0  0  0  0  0  0  0  0  0  0  0
    5.5892    3.5741   -0.7336 H   0  0  0  0  0  0  0  0  0  0  0  0
    5.1162    3.7195    0.9559 H   0  0  0  0  0  0  0  0  0  0  0  0
   -0.0244   -1.8785   -0.5640 H   0  0  0  0  0  0  0  0  0  0  0  0
    1.2731   -2.1938    0.5968 H   0  0  0  0  0  0  0  0  0  0  0  0
    7.5606    4.1220    0.6049 H   0  0  0  0  0  0  0  0  0  0  0  0
    7.7476    2.4838   -0.0368 H   0  0  0  0  0  0  0  0  0  0  0  0
    3.5276   -0.5979   -0.7634 H   0  0  0  0  0  0  0  0  0  0  0  0
    3.1138   -0.3882    0.9464 H   0  0  0  0  0  0  0  0  0  0  0  0
    5.2308    1.2037    1.1876 H   0  0  0  0  0  0  0  0  0  0  0  0
    5.6070    1.0795   -0.5392 H   0  0  0  0  0  0  0  0  0  0  0  0
    1.5846   -2.2335   -2.2029 H   0  0  0  0  0  0  0  0  0  0  0  0
    6.9508    3.0907    2.5964 H   0  0  0  0  0  0  0  0  0  0  0  0
  1  3  1  0  0  0  0
  1  5  1  0  0  0  0
  1 10  1  0  0  0  0
  2  4  1  0  0  0  0
  2 13  1  0  0  0  0
  3 15  1  0  0  0  0
  4  8  1  0  0  0  0
  5 19  1  0  0  0  0
  6  2  1  0  0  0  0
  6 20  1  0  0  0  0
  7  3  1  0  0  0  0
  8 23  1  0  0  0  0
  9  5  1  0  0  0  0
  9  6  1  0  0  0  0
 11  1  1  0  0  0  0
 12  2  1  0  0  0  0
 14  3  1  0  0  0  0
 16  4  1  0  0  0  0
 17  4  1  0  0  0  0
 18  5  1  0  0  0  0
 21  6  1  0  0  0  0
 22  7  1  0  0  0  0
M  END
>  <HBA>
3

>  <HBD>
2

>  <TPSA>
65.76

>  <cid>
66358

>  <dipole>
1.47

>  <excitation_energy_1>
5.045

>  <excitation_energy_2>
5.327

>  <excitation_energy_3>
5.657

>  <excitation_energy_4>
5.768

>  <homo_energy>
-5.818

>  <homo_lumo_gap>
6.849

>  <logP>
0.484

>  <lumo_energy>
1.031

>  <melting_point>
19.64

>  <molecular_refractivity>
40.87

>  <oscillator_strength_1>
0.0001

>  <oscillator_strength_2>
0.005

>  <oscillator_strength_3>
0.0102

>  <oscillator_strength_4>
0.0008

>  <open_babel_can_smiles>
OCCCSCCCO

>  <mulliken_charges>
23
1   -0.292836
2   -0.293226
3   -0.037967
4   -0.038049
5   -0.396151
6   -0.395591
7   -0.608453
8   -0.608434
9   0.070781
10   0.150853
11   0.142906
12   0.150793
13   0.143093
14   0.127217
15   0.149299
16   0.127324
17   0.149319
18   0.17857
19   0.162676
20   0.178351
21   0.162781
22   0.388349
23   0.388394

>  <lowdin_charges>
23
1   -0.296785
2   -0.296963
3   -0.132025
4   -0.13438
5   -0.373165
6   -0.373065
7   -0.466127
8   -0.469401
9   0.071335
10   0.156562
11   0.145487
12   0.154791
13   0.14745
14   0.128596
15   0.146943
16   0.129765
17   0.149102
18   0.161756
19   0.151721
20   0.160078
21   0.153808
22   0.34125
23   0.343267

$$$$

