PCCDB-ID:  8055
public computational chemistry database (PCCDB) project, http://pccdb.org

 18 17  0  0  0  0  0  0  0  0999 V2000
    0.8605    0.2759    0.0685 C   0  0  0  0  0  0  0  0  0  0  0  0
    2.3765    0.2016   -0.1392 C   0  0  0  0  0  0  0  0  0  0  0  0
    2.9148   -1.2338   -0.0501 C   0  0  0  0  0  0  0  0  0  0  0  0
    4.4205   -1.2877   -0.2500 C   0  0  0  0  0  0  0  0  0  0  0  0
    6.1051   -2.9994   -0.2771 C   0  0  0  0  0  0  0  0  0  0  0  0
    4.8164   -2.6833   -0.1596 O   0  0  0  0  0  0  0  0  0  0  0  0
    7.3743   -1.9783   -0.5198 S   0  0  0  0  0  0  0  0  0  0  0  0
    6.3511   -4.7527   -0.1383 S   0  0  0  0  0  0  0  0  0  0  0  0
    0.5012    1.3080   -0.0065 H   0  0  0  0  0  0  0  0  0  0  0  0
    0.5771   -0.1061    1.0565 H   0  0  0  0  0  0  0  0  0  0  0  0
    0.3279   -0.3190   -0.6832 H   0  0  0  0  0  0  0  0  0  0  0  0
    2.8800    0.8280    0.6101 H   0  0  0  0  0  0  0  0  0  0  0  0
    2.6341    0.6281   -1.1185 H   0  0  0  0  0  0  0  0  0  0  0  0
    2.4292   -1.8624   -0.8078 H   0  0  0  0  0  0  0  0  0  0  0  0
    2.6663   -1.6660    0.9279 H   0  0  0  0  0  0  0  0  0  0  0  0
    4.9655   -0.7249    0.5145 H   0  0  0  0  0  0  0  0  0  0  0  0
    4.7263   -0.9073   -1.2299 H   0  0  0  0  0  0  0  0  0  0  0  0
    5.0525   -5.0870    0.0422 H   0  0  0  0  0  0  0  0  0  0  0  0
  1 10  1  0  0  0  0
  2  3  1  0  0  0  0
  2  1  1  0  0  0  0
  2 12  1  0  0  0  0
  3 15  1  0  0  0  0
  4  6  1  0  0  0  0
  4  3  1  0  0  0  0
  4 16  1  0  0  0  0
  5  6  1  0  0  0  0
  5  8  1  0  0  0  0
  7  5  2  0  0  0  0
  8 18  1  0  0  0  0
  9  1  1  0  0  0  0
 11  1  1  0  0  0  0
 13  2  1  0  0  0  0
 14  3  1  0  0  0  0
 17  4  1  0  0  0  0
M  END
>  <HBA>
3

>  <HBD>
1

>  <TPSA>
80.12

>  <cid>
8055

>  <dipole>
4.0

>  <excitation_energy_1>
3.541

>  <excitation_energy_2>
4.92

>  <excitation_energy_3>
5.389

>  <excitation_energy_4>
5.532

>  <homo_energy>
-6.316

>  <homo_lumo_gap>
4.977

>  <logP>
2.018

>  <lumo_energy>
-1.339

>  <melting_point>
15.77

>  <molecular_refractivity>
42.95

>  <oscillator_strength_1>
0.0002

>  <oscillator_strength_2>
0.1378

>  <oscillator_strength_3>
0.0089

>  <oscillator_strength_4>
0.0

>  <open_babel_can_smiles>
CCCCOC(=S)S

>  <mulliken_charges>
18
1   -0.441887
2   -0.260812
3   -0.274554
4   -0.047441
5   0.064247
6   -0.407921
7   -0.171475
8   0.048665
9   0.150161
10   0.147023
11   0.146883
12   0.141445
13   0.141366
14   0.150309
15   0.150407
16   0.177662
17   0.176252
18   0.10967

>  <lowdin_charges>
18
1   -0.442243
2   -0.27283
3   -0.283226
4   -0.124037
5   -0.113161
6   -0.170225
7   -0.140999
8   0.053158
9   0.153093
10   0.149075
11   0.150625
12   0.145578
13   0.143959
14   0.152041
15   0.15055
16   0.163784
17   0.161308
18   0.12355

$$$$

