PCCDB-ID:  17783
public computational chemistry database (PCCDB) project, http://pccdb.org

 28 28  0  0  0  0  0  0  0  0999 V2000
    0.9791    0.0850    0.0328 C   0  0  0  0  0  0  0  0  0  0  0  0
    2.5605   -2.5119    0.0215 C   0  0  0  0  0  0  0  0  0  0  0  0
    2.4312    2.6160    0.0279 C   0  0  0  0  0  0  0  0  0  0  0  0
    5.5005   -2.3639    0.0329 C   0  0  0  0  0  0  0  0  0  0  0  0
    5.4018    2.6133    0.0328 C   0  0  0  0  0  0  0  0  0  0  0  0
    2.4992    0.0612    0.0306 C   0  0  0  0  0  0  0  0  0  0  0  0
    3.2298   -1.1477    0.0284 C   0  0  0  0  0  0  0  0  0  0  0  0
    3.1892    1.2998    0.0306 C   0  0  0  0  0  0  0  0  0  0  0  0
    4.6412   -1.1150    0.0313 C   0  0  0  0  0  0  0  0  0  0  0  0
    4.5915    1.3374    0.0321 C   0  0  0  0  0  0  0  0  0  0  0  0
    5.2896    0.1238    0.0327 C   0  0  0  0  0  0  0  0  0  0  0  0
    6.6621    0.2220    0.0337 O   0  0  0  0  0  0  0  0  0  0  0  0
    0.5349   -0.9090    0.0549 H   0  0  0  0  0  0  0  0  0  0  0  0
    0.5802    0.5873   -0.8576 H   0  0  0  0  0  0  0  0  0  0  0  0
    0.5852    0.6218    0.9047 H   0  0  0  0  0  0  0  0  0  0  0  0
    1.4734   -2.4593    0.0044 H   0  0  0  0  0  0  0  0  0  0  0  0
    2.8346   -3.0977    0.9081 H   0  0  0  0  0  0  0  0  0  0  0  0
    2.8608   -3.0996   -0.8550 H   0  0  0  0  0  0  0  0  0  0  0  0
    1.3503    2.4812    0.0194 H   0  0  0  0  0  0  0  0  0  0  0  0
    2.6869    3.2225   -0.8499 H   0  0  0  0  0  0  0  0  0  0  0  0
    2.6742    3.2200    0.9111 H   0  0  0  0  0  0  0  0  0  0  0  0
    4.9110   -3.2801    0.0413 H   0  0  0  0  0  0  0  0  0  0  0  0
    6.1555   -2.4071    0.9164 H   0  0  0  0  0  0  0  0  0  0  0  0
    6.1469   -2.4164   -0.8565 H   0  0  0  0  0  0  0  0  0  0  0  0
    4.7768    3.5070    0.0340 H   0  0  0  0  0  0  0  0  0  0  0  0
    6.0598    2.6584   -0.8437 H   0  0  0  0  0  0  0  0  0  0  0  0
    6.0604    2.6566    0.9089 H   0  0  0  0  0  0  0  0  0  0  0  0
    7.0439   -0.6675    0.0357 H   0  0  0  0  0  0  0  0  0  0  0  0
  1 13  1  0  0  0  0
  1 15  1  0  0  0  0
  2  7  1  0  0  0  0
  2 17  1  0  0  0  0
  3  8  1  0  0  0  0
  3 21  1  0  0  0  0
  4 22  1  0  0  0  0
  4 23  1  0  0  0  0
  5 25  1  0  0  0  0
  5 27  1  0  0  0  0
  6  1  1  0  0  0  0
  7  6  2  0  0  0  0
  7  9  1  0  0  0  0
  8  6  1  0  0  0  0
  8 10  2  0  0  0  0
  9 11  2  0  0  0  0
  9  4  1  0  0  0  0
 10 11  1  0  0  0  0
 10  5  1  0  0  0  0
 11 12  1  0  0  0  0
 12 28  1  0  0  0  0
 14  1  1  0  0  0  0
 16  2  1  0  0  0  0
 18  2  1  0  0  0  0
 19  3  1  0  0  0  0
 20  3  1  0  0  0  0
 24  4  1  0  0  0  0
 26  5  1  0  0  0  0
M  END
>  <HBA>
1

>  <HBD>
1

>  <TPSA>
20.23

>  <cid>
17783

>  <dipole>
1.37

>  <excitation_energy_1>
4.761

>  <excitation_energy_2>
4.843

>  <excitation_energy_3>
5.233

>  <excitation_energy_4>
5.308

>  <homo_energy>
-5.382

>  <homo_lumo_gap>
5.676

>  <logP>
2.934

>  <lumo_energy>
0.294

>  <melting_point>
67.48

>  <molecular_refractivity>
53.3

>  <oscillator_strength_1>
0.0008

>  <oscillator_strength_2>
0.0424

>  <oscillator_strength_3>
0.0008

>  <oscillator_strength_4>
0.0022

>  <open_babel_can_smiles>
Cc1c(C)c(C)c(c(c1C)O)C

>  <mulliken_charges>
28
1   -0.550797
2   -0.551077
3   -0.543256
4   -0.591447
5   -0.514879
6   0.081583
7   0.060628
8   0.05709
9   0.117354
10   0.092157
11   0.211813
12   -0.654496
13   0.151264
14   0.157453
15   0.157624
16   0.156987
17   0.157831
18   0.157856
19   0.15413
20   0.159935
21   0.159808
22   0.170528
23   0.158405
24   0.158954
25   0.145448
26   0.163441
27   0.163492
28   0.412173

>  <lowdin_charges>
28
1   -0.449866
2   -0.44792
3   -0.448157
4   -0.459353
5   -0.442715
6   -0.038502
7   -0.015538
8   -0.012834
9   -0.065931
10   -0.039694
11   0.086486
12   -0.390085
13   0.153928
14   0.155926
15   0.156228
16   0.155462
17   0.156775
18   0.156951
19   0.157584
20   0.158909
21   0.158779
22   0.16978
23   0.153981
24   0.154193
25   0.155523
26   0.162695
27   0.162738
28   0.354656

$$$$

