PCCDB-ID:  8554
public computational chemistry database (PCCDB) project, http://pccdb.org

 24 24  0  0  0  0  0  0  0  0999 V2000
    3.2047    1.2612   -0.7336 C   0  0  0  0  0  0  0  0  0  0  0  0
    3.1180   -3.5750    2.0018 C   0  0  0  0  0  0  0  0  0  0  0  0
    0.9375   -2.6893   -3.9288 C   0  0  0  0  0  0  0  0  0  0  0  0
    1.0215   -4.0332   -3.5647 C   0  0  0  0  0  0  0  0  0  0  0  0
    1.5436   -1.7155   -3.1364 C   0  0  0  0  0  0  0  0  0  0  0  0
    1.6956   -4.3960   -2.3990 C   0  0  0  0  0  0  0  0  0  0  0  0
    2.2280   -2.0700   -1.9666 C   0  0  0  0  0  0  0  0  0  0  0  0
    2.2837   -3.4252   -1.5839 C   0  0  0  0  0  0  0  0  0  0  0  0
    2.9998   -1.0345   -1.2134 C   0  0  0  0  0  0  0  0  0  0  0  0
    2.9259   -3.9096   -0.3164 C   0  0  0  0  0  0  0  0  0  0  0  0
    4.0048   -1.2515   -0.5682 O   0  0  0  0  0  0  0  0  0  0  0  0
    3.6761   -4.8605   -0.2607 O   0  0  0  0  0  0  0  0  0  0  0  0
    2.4734    0.2015   -1.3708 O   0  0  0  0  0  0  0  0  0  0  0  0
    2.4893   -3.2251    0.7584 O   0  0  0  0  0  0  0  0  0  0  0  0
    4.2250    1.3128   -1.1229 H   0  0  0  0  0  0  0  0  0  0  0  0
    3.2448    1.1012    0.3470 H   0  0  0  0  0  0  0  0  0  0  0  0
    2.6565    2.1744   -0.9666 H   0  0  0  0  0  0  0  0  0  0  0  0
    2.9907   -4.6398    2.2124 H   0  0  0  0  0  0  0  0  0  0  0  0
    2.6211   -2.9693    2.7602 H   0  0  0  0  0  0  0  0  0  0  0  0
    4.1845   -3.3387    1.9603 H   0  0  0  0  0  0  0  0  0  0  0  0
    0.4139   -2.3986   -4.8351 H   0  0  0  0  0  0  0  0  0  0  0  0
    0.5626   -4.7986   -4.1841 H   0  0  0  0  0  0  0  0  0  0  0  0
    1.5074   -0.6719   -3.4278 H   0  0  0  0  0  0  0  0  0  0  0  0
    1.7675   -5.4376   -2.1025 H   0  0  0  0  0  0  0  0  0  0  0  0
  1 16  1  0  0  0  0
  2 18  1  0  0  0  0
  2 19  1  0  0  0  0
  3  4  2  0  0  0  0
  3  5  1  0  0  0  0
  4  6  1  0  0  0  0
  5  7  2  0  0  0  0
  6 24  1  0  0  0  0
  6  8  2  0  0  0  0
  7  8  1  0  0  0  0
  7  9  1  0  0  0  0
  8 10  1  0  0  0  0
  9 11  2  0  0  0  0
 10 12  2  0  0  0  0
 10 14  1  0  0  0  0
 13  9  1  0  0  0  0
 13  1  1  0  0  0  0
 14  2  1  0  0  0  0
 15  1  1  0  0  0  0
 17  1  1  0  0  0  0
 20  2  1  0  0  0  0
 21  3  1  0  0  0  0
 22  4  1  0  0  0  0
 23  5  1  0  0  0  0
M  END
>  <HBA>
4

>  <HBD>
0

>  <TPSA>
52.6

>  <cid>
8554

>  <dipole>
3.22

>  <excitation_energy_1>
4.667

>  <excitation_energy_2>
4.801

>  <excitation_energy_3>
4.991

>  <excitation_energy_4>
5.386

>  <homo_energy>
-6.974

>  <homo_lumo_gap>
5.529

>  <logP>
1.26

>  <lumo_energy>
-1.445

>  <melting_point>
56.21

>  <molecular_refractivity>
49.0

>  <oscillator_strength_1>
0.0358

>  <oscillator_strength_2>
0.0179

>  <oscillator_strength_3>
0.0128

>  <oscillator_strength_4>
0.0856

>  <open_babel_can_smiles>
COC(=O)c1ccccc1C(=O)OC

>  <mulliken_charges>
24
1   -0.217306
2   -0.218333
3   -0.124253
4   -0.123336
5   -0.170475
6   -0.163871
7   0.057158
8   0.070323
9   0.575916
10   0.549315
11   -0.486828
12   -0.477661
13   -0.45806
14   -0.441583
15   0.172707
16   0.173091
17   0.16574
18   0.169899
19   0.161492
20   0.179317
21   0.141949
22   0.143985
23   0.159741
24   0.161074

>  <lowdin_charges>
24
1   -0.274951
2   -0.275143
3   -0.147213
4   -0.142024
5   -0.137752
6   -0.135898
7   -0.030051
8   -0.007101
9   0.197401
10   0.196848
11   -0.257607
12   -0.25594
13   -0.187797
14   -0.18055
15   0.159698
16   0.159127
17   0.161363
18   0.157698
19   0.160692
20   0.162649
21   0.16425
22   0.166509
23   0.17222
24   0.17357

$$$$

