PCCDB-ID:  20470
public computational chemistry database (PCCDB) project, http://pccdb.org

 28 28  0  0  0  0  0  0  0  0999 V2000
    7.4325    0.4916    0.8375 C   0  0  0  0  0  0  0  0  0  0  0  0
    6.1061    0.2025    0.1273 C   0  0  0  0  0  0  0  0  0  0  0  0
    5.5667    1.4123   -0.6450 C   0  0  0  0  0  0  0  0  0  0  0  0
    0.6012    1.2980   -3.8248 C   0  0  0  0  0  0  0  0  0  0  0  0
    1.0648    2.5186   -4.6380 C   0  0  0  0  0  0  0  0  0  0  0  0
    4.2411    1.1242   -1.3532 C   0  0  0  0  0  0  0  0  0  0  0  0
    1.8733    0.8695   -3.0746 C   0  0  0  0  0  0  0  0  0  0  0  0
    2.0324    3.2310   -3.6828 C   0  0  0  0  0  0  0  0  0  0  0  0
    3.7062    2.3381   -2.1145 C   0  0  0  0  0  0  0  0  0  0  0  0
    2.5977    2.1317   -2.8871 N   0  0  0  0  0  0  0  0  0  0  0  0
    4.2333    3.4462   -2.0405 O   0  0  0  0  0  0  0  0  0  0  0  0
    7.7984   -0.3891    1.3778 H   0  0  0  0  0  0  0  0  0  0  0  0
    7.3233    1.3072    1.5627 H   0  0  0  0  0  0  0  0  0  0  0  0
    8.2075    0.7899    0.1209 H   0  0  0  0  0  0  0  0  0  0  0  0
    5.3597   -0.1235    0.8665 H   0  0  0  0  0  0  0  0  0  0  0  0
    6.2385   -0.6443   -0.5621 H   0  0  0  0  0  0  0  0  0  0  0  0
    6.3048    1.7413   -1.3873 H   0  0  0  0  0  0  0  0  0  0  0  0
    5.4314    2.2632    0.0330 H   0  0  0  0  0  0  0  0  0  0  0  0
    0.1910    0.4921   -4.4408 H   0  0  0  0  0  0  0  0  0  0  0  0
   -0.1708    1.5967   -3.1055 H   0  0  0  0  0  0  0  0  0  0  0  0
    0.2393    3.1624   -4.9558 H   0  0  0  0  0  0  0  0  0  0  0  0
    1.5986    2.1896   -5.5380 H   0  0  0  0  0  0  0  0  0  0  0  0
    3.4835    0.8055   -0.6210 H   0  0  0  0  0  0  0  0  0  0  0  0
    4.3532    0.2772   -2.0456 H   0  0  0  0  0  0  0  0  0  0  0  0
    2.4636    0.1586   -3.6726 H   0  0  0  0  0  0  0  0  0  0  0  0
    1.6486    0.3878   -2.1166 H   0  0  0  0  0  0  0  0  0  0  0  0
    1.5113    3.9444   -3.0297 H   0  0  0  0  0  0  0  0  0  0  0  0
    2.8325    3.7791   -4.1873 H   0  0  0  0  0  0  0  0  0  0  0  0
  1 12  1  0  0  0  0
  1 13  1  0  0  0  0
  2  1  1  0  0  0  0
  2 15  1  0  0  0  0
  3 18  1  0  0  0  0
  3  2  1  0  0  0  0
  4 20  1  0  0  0  0
  4  7  1  0  0  0  0
  5  4  1  0  0  0  0
  5  8  1  0  0  0  0
  6  3  1  0  0  0  0
  6 23  1  0  0  0  0
  7 10  1  0  0  0  0
  7 26  1  0  0  0  0
  8 27  1  0  0  0  0
  8 10  1  0  0  0  0
  9 11  2  0  0  0  0
  9  6  1  0  0  0  0
 10  9  1  0  0  0  0
 14  1  1  0  0  0  0
 16  2  1  0  0  0  0
 17  3  1  0  0  0  0
 19  4  1  0  0  0  0
 21  5  1  0  0  0  0
 22  5  1  0  0  0  0
 24  6  1  0  0  0  0
 25  7  1  0  0  0  0
 28  8  1  0  0  0  0
M  END
>  <HBA>
2

>  <HBD>
0

>  <TPSA>
20.31

>  <cid>
20470

>  <dipole>
3.87

>  <excitation_energy_1>
5.585

>  <excitation_energy_2>
5.601

>  <excitation_energy_3>
5.94

>  <excitation_energy_4>
6.166

>  <homo_energy>
-6.212

>  <homo_lumo_gap>
7.252

>  <logP>
1.737

>  <lumo_energy>
1.039

>  <melting_point>
18.05

>  <molecular_refractivity>
50.27

>  <oscillator_strength_1>
0.0011

>  <oscillator_strength_2>
0.0106

>  <oscillator_strength_3>
0.0113

>  <oscillator_strength_4>
0.0262

>  <open_babel_can_smiles>
CCCCC(=O)N1CCCC1

>  <mulliken_charges>
28
1   -0.440994
2   -0.251332
3   -0.235576
4   -0.297608
5   -0.301275
6   -0.373422
7   -0.110284
8   -0.100471
9   0.593722
10   -0.454157
11   -0.527127
12   0.139252
13   0.144237
14   0.143492
15   0.125944
16   0.125433
17   0.144989
18   0.151851
19   0.148473
20   0.15211
21   0.149283
22   0.149205
23   0.153813
24   0.148566
25   0.146657
26   0.152367
27   0.152331
28   0.170521

>  <lowdin_charges>
28
1   -0.445964
2   -0.275087
3   -0.270364
4   -0.283794
5   -0.285628
6   -0.307987
7   -0.19698
8   -0.19231
9   0.154702
10   -0.12074
11   -0.3191
12   0.148687
13   0.148425
14   0.148422
15   0.137323
16   0.136391
17   0.150276
18   0.153269
19   0.154369
20   0.150949
21   0.155104
22   0.149002
23   0.156409
24   0.153233
25   0.140999
26   0.149808
27   0.147408
28   0.163177

$$$$

