PCCDB-ID:  61256
public computational chemistry database (PCCDB) project, http://pccdb.org

 19 18  0  0  0  0  0  0  0  0999 V2000
    0.7050   -0.2104   -0.2209 C   0  0  0  0  0  0  0  0  0  0  0  0
    2.6156    1.1920   -1.1575 C   0  0  0  0  0  0  0  0  0  0  0  0
    2.6484    0.4406    1.2514 C   0  0  0  0  0  0  0  0  0  0  0  0
    2.8619   -1.7676   -1.6147 C   0  0  0  0  0  0  0  0  0  0  0  0
    2.2045    0.0954   -0.1712 C   0  0  0  0  0  0  0  0  0  0  0  0
    3.8141   -4.3105   -3.4617 N   0  0  0  0  0  0  0  0  0  0  0  0
    3.7247   -2.9049   -1.5493 N   0  0  0  0  0  0  0  0  0  0  0  0
    3.7235   -3.5982   -2.5851 N   0  0  0  0  0  0  0  0  0  0  0  0
    2.1775   -1.4727   -2.5708 O   0  0  0  0  0  0  0  0  0  0  0  0
    2.9757   -1.1400   -0.4477 O   0  0  0  0  0  0  0  0  0  0  0  0
    0.1441    0.6741    0.1002 H   0  0  0  0  0  0  0  0  0  0  0  0
    0.4604   -1.0328    0.4600 H   0  0  0  0  0  0  0  0  0  0  0  0
    0.3860   -0.4772   -1.2299 H   0  0  0  0  0  0  0  0  0  0  0  0
    2.1343    2.1342   -0.8732 H   0  0  0  0  0  0  0  0  0  0  0  0
    2.3175    0.9430   -2.1774 H   0  0  0  0  0  0  0  0  0  0  0  0
    3.7001    1.3431   -1.1297 H   0  0  0  0  0  0  0  0  0  0  0  0
    2.1406    1.3497    1.5896 H   0  0  0  0  0  0  0  0  0  0  0  0
    3.7289    0.6110    1.2890 H   0  0  0  0  0  0  0  0  0  0  0  0
    2.4026   -0.3726    1.9414 H   0  0  0  0  0  0  0  0  0  0  0  0
  1  5  1  0  0  0  0
  1 11  1  0  0  0  0
  1 12  1  0  0  0  0
  2 16  1  0  0  0  0
  2 14  1  0  0  0  0
  2  5  1  0  0  0  0
  3 18  1  0  0  0  0
  3 17  1  0  0  0  0
  3 19  1  0  0  0  0
  4  7  1  0  0  0  0
  4 10  1  0  0  0  0
  5  3  1  0  0  0  0
  6  8  2  0  0  0  0
  8  7  2  0  0  0  0
  9  4  2  0  0  0  0
 10  5  1  0  0  0  0
 13  1  1  0  0  0  0
 15  2  1  0  0  0  0
M  RAD  1   6   2
M  END
>  <HBA>
3

>  <HBD>
0

>  <TPSA>
76.05

>  <cid>
61256

>  <dipole>
2.54

>  <excitation_energy_1>
4.791

>  <excitation_energy_2>
5.215

>  <excitation_energy_3>
5.239

>  <excitation_energy_4>
6.213

>  <homo_energy>
-7.687

>  <homo_lumo_gap>
6.381

>  <logP>
1.685

>  <lumo_energy>
-1.306

>  <melting_point>
54.83

>  <molecular_refractivity>
32.68

>  <oscillator_strength_1>
0.0005

>  <oscillator_strength_2>
0.0013

>  <oscillator_strength_3>
0.0001

>  <oscillator_strength_4>
0.1912

>  <open_babel_can_smiles>
O=C(N=[N]=[N])OC(C)(C)C

>  <mulliken_charges>
19
1   -0.468903
2   -0.4688
3   -0.450647
4   0.784944
5   0.303213
6   -0.213044
7   -0.446913
8   0.476392
9   -0.482536
10   -0.486626
11   0.149266
12   0.154258
13   0.187929
14   0.149279
15   0.187861
16   0.154279
17   0.149518
18   0.160198
19   0.160333

>  <lowdin_charges>
19
1   -0.457256
2   -0.454106
3   -0.44269
4   0.21089
5   0.149199
6   -0.041244
7   -0.192882
8   0.226332
9   -0.280766
10   -0.170064
11   0.159201
12   0.15801
13   0.172258
14   0.158751
15   0.171928
16   0.15553
17   0.157429
18   0.158457
19   0.161024

$$$$

