PCCDB-ID:  61522
public computational chemistry database (PCCDB) project, http://pccdb.org

 29 28  0  0  0  0  0  0  0  0999 V2000
    1.2475   -0.5203   -0.6682 C   0  0  0  0  0  0  0  0  0  0  0  0
    9.7970   -0.0421   -1.6645 C   0  0  0  0  0  0  0  0  0  0  0  0
    2.6545   -0.2612   -0.1203 C   0  0  0  0  0  0  0  0  0  0  0  0
    3.2826    1.0327   -0.6543 C   0  0  0  0  0  0  0  0  0  0  0  0
    4.6932    1.2967   -0.1127 C   0  0  0  0  0  0  0  0  0  0  0  0
    5.3116    2.5966   -0.6413 C   0  0  0  0  0  0  0  0  0  0  0  0
    6.7265    2.8867   -0.0933 C   0  0  0  0  0  0  0  0  0  0  0  0
    7.7583    1.8940   -0.5451 C   0  0  0  0  0  0  0  0  0  0  0  0
    8.5149    1.1354    0.2628 C   0  0  0  0  0  0  0  0  0  0  0  0
    9.5377    0.1545   -0.1770 C   0  0  0  0  0  0  0  0  0  0  0  0
   10.1591   -0.4883    0.6578 O   0  0  0  0  0  0  0  0  0  0  0  0
    0.8263   -1.4491   -0.2669 H   0  0  0  0  0  0  0  0  0  0  0  0
    1.2568   -0.6044   -1.7620 H   0  0  0  0  0  0  0  0  0  0  0  0
    0.5632    0.2962   -0.4061 H   0  0  0  0  0  0  0  0  0  0  0  0
   10.0815    0.9004   -2.1467 H   0  0  0  0  0  0  0  0  0  0  0  0
    8.8986   -0.4121   -2.1731 H   0  0  0  0  0  0  0  0  0  0  0  0
   10.6027   -0.7683   -1.7855 H   0  0  0  0  0  0  0  0  0  0  0  0
    3.3069   -1.1100   -0.3698 H   0  0  0  0  0  0  0  0  0  0  0  0
    2.6185   -0.2191    0.9775 H   0  0  0  0  0  0  0  0  0  0  0  0
    2.6303    1.8826   -0.4033 H   0  0  0  0  0  0  0  0  0  0  0  0
    3.3160    0.9913   -1.7535 H   0  0  0  0  0  0  0  0  0  0  0  0
    5.3462    0.4498   -0.3653 H   0  0  0  0  0  0  0  0  0  0  0  0
    4.6608    1.3349    0.9864 H   0  0  0  0  0  0  0  0  0  0  0  0
    4.6612    3.4426   -0.3810 H   0  0  0  0  0  0  0  0  0  0  0  0
    5.3484    2.5674   -1.7402 H   0  0  0  0  0  0  0  0  0  0  0  0
    6.7023    2.9270    1.0031 H   0  0  0  0  0  0  0  0  0  0  0  0
    7.0313    3.8861   -0.4395 H   0  0  0  0  0  0  0  0  0  0  0  0
    7.8782    1.8041   -1.6262 H   0  0  0  0  0  0  0  0  0  0  0  0
    8.4106    1.2041    1.3446 H   0  0  0  0  0  0  0  0  0  0  0  0
  1 14  1  0  0  0  0
  1 12  1  0  0  0  0
  1  3  1  0  0  0  0
  2 10  1  0  0  0  0
  3 19  1  0  0  0  0
  4 20  1  0  0  0  0
  4  3  1  0  0  0  0
  4  5  1  0  0  0  0
  5 23  1  0  0  0  0
  6 24  1  0  0  0  0
  6  5  1  0  0  0  0
  6  7  1  0  0  0  0
  7 26  1  0  0  0  0
  8  7  1  0  0  0  0
  8  9  2  0  0  0  0
  9 29  1  0  0  0  0
 10  9  1  0  0  0  0
 10 11  2  0  0  0  0
 13  1  1  0  0  0  0
 15  2  1  0  0  0  0
 16  2  1  0  0  0  0
 17  2  1  0  0  0  0
 18  3  1  0  0  0  0
 21  4  1  0  0  0  0
 22  5  1  0  0  0  0
 25  6  1  0  0  0  0
 27  7  1  0  0  0  0
 28  8  1  0  0  0  0
M  END
>  <HBA>
1

>  <HBD>
0

>  <TPSA>
17.07

>  <cid>
61522

>  <dipole>
3.72

>  <excitation_energy_1>
3.696

>  <excitation_energy_2>
5.685

>  <excitation_energy_3>
6.177

>  <excitation_energy_4>
6.523

>  <homo_energy>
-6.531

>  <homo_lumo_gap>
5.227

>  <logP>
3.102

>  <lumo_energy>
-1.303

>  <melting_point>
1.96

>  <molecular_refractivity>
49.91

>  <oscillator_strength_1>
0.0003

>  <oscillator_strength_2>
0.4566

>  <oscillator_strength_3>
0.0189

>  <oscillator_strength_4>
0.0044

>  <open_babel_can_smiles>
CCCCCC/C=C/C(=O)C

>  <mulliken_charges>
29
1   -0.441737
2   -0.541194
3   -0.247607
4   -0.246322
5   -0.250095
6   -0.263851
7   -0.310338
8   -0.073665
9   -0.179339
10   0.445929
11   -0.460599
12   0.143442
13   0.141124
14   0.141386
15   0.165061
16   0.166532
17   0.179854
18   0.132133
19   0.131937
20   0.127216
21   0.126196
22   0.136928
23   0.130235
24   0.137625
25   0.131622
26   0.148938
27   0.151732
28   0.135764
29   0.141093

>  <lowdin_charges>
29
1   -0.443368
2   -0.479852
3   -0.270305
4   -0.272573
5   -0.27555
6   -0.270564
7   -0.270654
8   -0.115609
9   -0.203526
10   0.158862
11   -0.24498
12   0.150452
13   0.144109
14   0.147008
15   0.166564
16   0.168174
17   0.174723
18   0.140415
19   0.137473
20   0.137983
21   0.134775
22   0.143499
23   0.137474
24   0.145809
25   0.137416
26   0.148891
27   0.157123
28   0.152726
29   0.163506

$$$$

