PCCDB-ID:  18639
public computational chemistry database (PCCDB) project, http://pccdb.org

 16 15  0  0  0  0  0  0  0  0999 V2000
    1.4691    0.8976   -0.3242 C   0  0  0  0  0  0  0  0  0  0  0  0
    2.2498    1.7145   -1.2031 C   0  0  0  0  0  0  0  0  0  0  0  0
    1.9206   -0.2012    0.3369 C   0  0  0  0  0  0  0  0  0  0  0  0
    1.7203    2.7960   -1.8220 C   0  0  0  0  0  0  0  0  0  0  0  0
    1.0420   -0.9568    1.2042 C   0  0  0  0  0  0  0  0  0  0  0  0
    1.6493   -2.1907    1.9105 C   0  0  0  0  0  0  0  0  0  0  0  0
    2.3539    3.6308   -2.6628 O   0  0  0  0  0  0  0  0  0  0  0  0
   -0.1464   -0.7121    1.4361 O   0  0  0  0  0  0  0  0  0  0  0  0
    2.7956   -2.5509    1.7779 O   0  0  0  0  0  0  0  0  0  0  0  0
    0.7494   -2.8075    2.6843 O   0  0  0  0  0  0  0  0  0  0  0  0
    0.4268    1.1774   -0.1689 H   0  0  0  0  0  0  0  0  0  0  0  0
    3.2942    1.4507   -1.3706 H   0  0  0  0  0  0  0  0  0  0  0  0
    2.9425   -0.5534    0.2423 H   0  0  0  0  0  0  0  0  0  0  0  0
    0.6849    3.0944   -1.6828 H   0  0  0  0  0  0  0  0  0  0  0  0
    3.2781    3.3482   -2.7750 H   0  0  0  0  0  0  0  0  0  0  0  0
   -0.0776   -2.2812    2.5821 H   0  0  0  0  0  0  0  0  0  0  0  0
  1 11  1  0  0  0  0
  1  3  2  0  0  0  0
  2  1  1  0  0  0  0
  3  5  1  0  0  0  0
  4 14  1  0  0  0  0
  4  2  2  0  0  0  0
  5  8  2  0  0  0  0
  5  6  1  0  0  0  0
  6 10  1  0  0  0  0
  7  4  1  0  0  0  0
  9  6  2  0  0  0  0
 12  2  1  0  0  0  0
 13  3  1  0  0  0  0
 15  7  1  0  0  0  0
 16 10  1  0  0  0  0
M  END
>  <HBA>
4

>  <HBD>
2

>  <TPSA>
74.6

>  <cid>
18639

>  <dipole>
5.77

>  <excitation_energy_1>
2.965

>  <excitation_energy_2>
3.876

>  <excitation_energy_3>
4.8

>  <excitation_energy_4>
5.302

>  <homo_energy>
-6.558

>  <homo_lumo_gap>
3.905

>  <logP>
0.268

>  <lumo_energy>
-2.653

>  <melting_point>
102.86

>  <molecular_refractivity>
33.55

>  <oscillator_strength_1>
0.0

>  <oscillator_strength_2>
0.5972

>  <oscillator_strength_3>
0.0

>  <oscillator_strength_4>
0.0005

>  <open_babel_can_smiles>
O/C=C/C=C/C(=O)C(=O)O

>  <mulliken_charges>
16
1   -0.071881
2   -0.17866
3   -0.204533
4   0.141384
5   0.338571
6   0.557974
7   -0.553205
8   -0.515352
9   -0.448407
10   -0.573474
11   0.168947
12   0.137477
13   0.167587
14   0.179956
15   0.422436
16   0.431179

>  <lowdin_charges>
16
1   -0.066689
2   -0.230011
3   -0.225059
4   0.001039
5   0.110906
6   0.155217
7   -0.328129
8   -0.270806
9   -0.233514
10   -0.332688
11   0.173213
12   0.159691
13   0.17851
14   0.173587
15   0.366033
16   0.3687

$$$$

