PCCDB-ID:  6817
public computational chemistry database (PCCDB) project, http://pccdb.org

 26 28  0  0  0  0  0  0  0  0999 V2000
    0.8722   -0.0462   -0.3215 C   0  0  0  0  0  0  0  0  0  0  0  0
    4.5503   -3.6395    0.0094 C   0  0  0  0  0  0  0  0  0  0  0  0
    3.1477   -3.6861    0.0320 C   0  0  0  0  0  0  0  0  0  0  0  0
    3.1374    3.5730    0.0694 C   0  0  0  0  0  0  0  0  0  0  0  0
    5.1822   -2.4094   -0.0444 C   0  0  0  0  0  0  0  0  0  0  0  0
    2.3834   -2.5266   -0.0120 C   0  0  0  0  0  0  0  0  0  0  0  0
    2.3637    2.3672    0.0389 C   0  0  0  0  0  0  0  0  0  0  0  0
    4.4980    3.6051    0.0032 C   0  0  0  0  0  0  0  0  0  0  0  0
    4.4369   -1.2150   -0.0855 C   0  0  0  0  0  0  0  0  0  0  0  0
    3.0136   -1.2688   -0.0859 C   0  0  0  0  0  0  0  0  0  0  0  0
    2.9950    1.1504   -0.0604 C   0  0  0  0  0  0  0  0  0  0  0  0
    5.2717    2.3798   -0.0966 C   0  0  0  0  0  0  0  0  0  0  0  0
    4.4612    1.0899   -0.0978 C   0  0  0  0  0  0  0  0  0  0  0  0
    5.1262   -0.0271   -0.1222 N   0  0  0  0  0  0  0  0  0  0  0  0
    2.3217   -0.0685   -0.1578 N   0  0  0  0  0  0  0  0  0  0  0  0
    6.4980    2.3467   -0.1672 O   0  0  0  0  0  0  0  0  0  0  0  0
    0.5374   -0.9663   -0.7975 H   0  0  0  0  0  0  0  0  0  0  0  0
    0.6061    0.7880   -0.9744 H   0  0  0  0  0  0  0  0  0  0  0  0
    0.3573    0.0764    0.6393 H   0  0  0  0  0  0  0  0  0  0  0  0
    5.1292   -4.5569    0.0432 H   0  0  0  0  0  0  0  0  0  0  0  0
    2.6400   -4.6446    0.0950 H   0  0  0  0  0  0  0  0  0  0  0  0
    2.5878    4.5087    0.1499 H   0  0  0  0  0  0  0  0  0  0  0  0
    6.2631   -2.3143   -0.0525 H   0  0  0  0  0  0  0  0  0  0  0  0
    1.3046   -2.6085    0.0396 H   0  0  0  0  0  0  0  0  0  0  0  0
    1.2869    2.4454    0.1179 H   0  0  0  0  0  0  0  0  0  0  0  0
    5.0530    4.5372    0.0204 H   0  0  0  0  0  0  0  0  0  0  0  0
  1 15  1  0  0  0  0
  1 19  1  0  0  0  0
  2  3  2  0  0  0  0
  2 20  1  0  0  0  0
  3 21  1  0  0  0  0
  4 22  1  0  0  0  0
  5  2  1  0  0  0  0
  6  3  1  0  0  0  0
  6 24  1  0  0  0  0
  7  4  1  0  0  0  0
  7 25  1  0  0  0  0
  8 26  1  0  0  0  0
  8  4  2  0  0  0  0
  9  5  2  0  0  0  0
 10  9  1  0  0  0  0
 10  6  2  0  0  0  0
 11  7  2  0  0  0  0
 12  8  1  0  0  0  0
 13 12  1  0  0  0  0
 13 11  1  0  0  0  0
 14 13  2  0  0  0  0
 14  9  1  0  0  0  0
 15 10  1  0  0  0  0
 15 11  1  0  0  0  0
 16 12  2  0  0  0  0
 17  1  1  0  0  0  0
 18  1  1  0  0  0  0
 23  5  1  0  0  0  0
M  END
>  <HBA>
3

>  <HBD>
0

>  <TPSA>
34.89

>  <cid>
6817

>  <dipole>
7.56

>  <excitation_energy_1>
2.115

>  <excitation_energy_2>
2.419

>  <excitation_energy_3>
3.475

>  <excitation_energy_4>
3.703

>  <homo_energy>
-5.184

>  <homo_lumo_gap>
2.582

>  <logP>
2.087

>  <lumo_energy>
-2.601

>  <melting_point>
147.1

>  <molecular_refractivity>
64.77

>  <oscillator_strength_1>
0.109

>  <oscillator_strength_2>
0.0043

>  <oscillator_strength_3>
0.0016

>  <oscillator_strength_4>
0.0042

>  <open_babel_can_smiles>
Cn1c2ccccc2nc2c1cccc2=O

>  <mulliken_charges>
26
1   -0.335362
2   -0.137982
3   -0.127777
4   -0.117313
5   -0.155105
6   -0.198806
7   -0.250938
8   -0.199647
9   0.243931
10   0.372886
11   0.38532
12   0.415059
13   0.16604
14   -0.500515
15   -0.611927
16   -0.490752
17   0.181753
18   0.186952
19   0.181177
20   0.14208
21   0.14247
22   0.135902
23   0.165423
24   0.141662
25   0.128487
26   0.136981

>  <lowdin_charges>
26
1   -0.35176
2   -0.169578
3   -0.130237
4   -0.119243
5   -0.128125
6   -0.198735
7   -0.25349
8   -0.221257
9   0.011683
10   0.053215
11   0.039729
12   0.119808
13   0.019855
14   -0.073926
15   -0.017265
16   -0.250719
17   0.171704
18   0.173934
19   0.164297
20   0.165959
21   0.164846
22   0.161704
23   0.178116
24   0.162539
25   0.15858
26   0.168366

$$$$

