PCCDB-ID:  11504
public computational chemistry database (PCCDB) project, http://pccdb.org

 20 20  0  0  0  0  0  0  0  0999 V2000
    1.0594    0.5933    0.3765 C   0  0  0  0  0  0  0  0  0  0  0  0
    2.3897   -0.0852    0.0025 C   0  0  0  0  0  0  0  0  0  0  0  0
    2.4909   -2.4209    1.0021 C   0  0  0  0  0  0  0  0  0  0  0  0
    3.6825   -0.6694    2.1126 C   0  0  0  0  0  0  0  0  0  0  0  0
    2.8983   -3.3279    1.9771 C   0  0  0  0  0  0  0  0  0  0  0  0
    4.0984   -1.5636    3.0958 C   0  0  0  0  0  0  0  0  0  0  0  0
    2.8693   -1.0728    1.0455 C   0  0  0  0  0  0  0  0  0  0  0  0
    3.7106   -2.9121    3.0442 C   0  0  0  0  0  0  0  0  0  0  0  0
    4.0781   -3.8059    4.0597 N   0  0  0  0  0  0  0  0  0  0  0  0
    0.7447    1.3000   -0.4008 H   0  0  0  0  0  0  0  0  0  0  0  0
    1.1521    1.1438    1.3196 H   0  0  0  0  0  0  0  0  0  0  0  0
    0.2633   -0.1490    0.5040 H   0  0  0  0  0  0  0  0  0  0  0  0
    3.1545    0.6874   -0.1512 H   0  0  0  0  0  0  0  0  0  0  0  0
    2.2714   -0.5976   -0.9612 H   0  0  0  0  0  0  0  0  0  0  0  0
    1.8665   -2.7737    0.1832 H   0  0  0  0  0  0  0  0  0  0  0  0
    4.0047    0.3685    2.1751 H   0  0  0  0  0  0  0  0  0  0  0  0
    2.5881   -4.3691    1.9137 H   0  0  0  0  0  0  0  0  0  0  0  0
    4.7307   -1.2184    3.9114 H   0  0  0  0  0  0  0  0  0  0  0  0
    4.0971   -4.7779    3.7748 H   0  0  0  0  0  0  0  0  0  0  0  0
    4.9300   -3.5570    4.5481 H   0  0  0  0  0  0  0  0  0  0  0  0
  1 12  1  0  0  0  0
  1 11  1  0  0  0  0
  2  1  1  0  0  0  0
  2  7  1  0  0  0  0
  3  7  2  0  0  0  0
  3  5  1  0  0  0  0
  4 16  1  0  0  0  0
  4  6  2  0  0  0  0
  5  8  2  0  0  0  0
  6 18  1  0  0  0  0
  7  4  1  0  0  0  0
  8  6  1  0  0  0  0
  8  9  1  0  0  0  0
  9 20  1  0  0  0  0
 10  1  1  0  0  0  0
 13  2  1  0  0  0  0
 14  2  1  0  0  0  0
 15  3  1  0  0  0  0
 17  5  1  0  0  0  0
 19  9  1  0  0  0  0
M  END
>  <HBA>
1

>  <HBD>
1

>  <TPSA>
26.02

>  <cid>
11504

>  <dipole>
1.58

>  <excitation_energy_1>
4.621

>  <excitation_energy_2>
4.647

>  <excitation_energy_3>
5.107

>  <excitation_energy_4>
5.337

>  <homo_energy>
-5.244

>  <homo_lumo_gap>
5.505

>  <logP>
2.412

>  <lumo_energy>
0.261

>  <melting_point>
56.65

>  <molecular_refractivity>
40.62

>  <oscillator_strength_1>
0.0316

>  <oscillator_strength_2>
0.0093

>  <oscillator_strength_3>
0.0775

>  <oscillator_strength_4>
0.1152

>  <open_babel_can_smiles>
CCc1ccc(cc1)N

>  <mulliken_charges>
20
1   -0.430097
2   -0.339433
3   -0.191246
4   -0.191182
5   -0.170238
6   -0.170339
7   0.17449
8   0.303158
9   -0.787025
10   0.138086
11   0.146757
12   0.146795
13   0.137762
14   0.137684
15   0.117395
16   0.117381
17   0.113189
18   0.113267
19   0.316788
20   0.316809

>  <lowdin_charges>
20
1   -0.443099
2   -0.270159
3   -0.157633
4   -0.155689
5   -0.198889
6   -0.199946
7   -0.027692
8   0.055122
9   -0.490198
10   0.147144
11   0.149232
12   0.149943
13   0.146555
14   0.145528
15   0.152965
16   0.150963
17   0.149444
18   0.151503
19   0.271883
20   0.273024

$$$$

