PCCDB-ID:  10800
public computational chemistry database (PCCDB) project, http://pccdb.org

 20 20  0  0  0  0  0  0  0  0999 V2000
    1.0051    0.0052    0.1763 C   0  0  0  0  0  0  0  0  0  0  0  0
    3.2599    1.1424    0.0797 C   0  0  0  0  0  0  0  0  0  0  0  0
    5.3320   -0.1160   -0.0216 C   0  0  0  0  0  0  0  0  0  0  0  0
    2.5146   -0.0286    0.1173 C   0  0  0  0  0  0  0  0  0  0  0  0
    4.6531    1.0913    0.0100 C   0  0  0  0  0  0  0  0  0  0  0  0
    4.5972   -1.2949    0.0362 C   0  0  0  0  0  0  0  0  0  0  0  0
    3.1871   -1.2765    0.1003 C   0  0  0  0  0  0  0  0  0  0  0  0
    5.4150    2.3431   -0.0348 N   0  0  0  0  0  0  0  0  0  0  0  0
    5.3605   -2.5536    0.0337 N   0  0  0  0  0  0  0  0  0  0  0  0
    2.5039   -2.4353    0.1088 O   0  0  0  0  0  0  0  0  0  0  0  0
    4.7770    3.3964   -0.0103 O   0  0  0  0  0  0  0  0  0  0  0  0
    6.6408    2.2638   -0.0938 O   0  0  0  0  0  0  0  0  0  0  0  0
    6.4870   -2.5166   -0.4625 O   0  0  0  0  0  0  0  0  0  0  0  0
    4.8443   -3.5443    0.5401 O   0  0  0  0  0  0  0  0  0  0  0  0
    0.6445    1.0362    0.1949 H   0  0  0  0  0  0  0  0  0  0  0  0
    0.6172   -0.4888    1.0780 H   0  0  0  0  0  0  0  0  0  0  0  0
    0.5464   -0.4782   -0.6981 H   0  0  0  0  0  0  0  0  0  0  0  0
    2.7719    2.1098    0.0981 H   0  0  0  0  0  0  0  0  0  0  0  0
    6.4108   -0.1514   -0.0906 H   0  0  0  0  0  0  0  0  0  0  0  0
    1.5513   -2.2482    0.1036 H   0  0  0  0  0  0  0  0  0  0  0  0
  1 15  1  0  0  0  0
  1 16  1  0  0  0  0
  2 18  1  0  0  0  0
  2  4  2  0  0  0  0
  3  5  2  0  0  0  0
  3  6  1  0  0  0  0
  4  1  1  0  0  0  0
  5  2  1  0  0  0  0
  6  7  2  0  0  0  0
  7 10  1  0  0  0  0
  7  4  1  0  0  0  0
  8 11  2  0  0  0  0
  8  5  1  0  0  0  0
  9  6  1  0  0  0  0
  9 14  2  0  0  0  0
 12  8  2  0  0  0  0
 13  9  2  0  0  0  0
 17  1  1  0  0  0  0
 19  3  1  0  0  0  0
 20 10  1  0  0  0  0
M  END
>  <HBA>
1

>  <HBD>
1

>  <TPSA>
111.87

>  <cid>
10800

>  <dipole>
6.72

>  <excitation_energy_1>
3.715

>  <excitation_energy_2>
3.774

>  <excitation_energy_3>
4.031

>  <excitation_energy_4>
4.252

>  <homo_energy>
-7.472

>  <homo_lumo_gap>
4.748

>  <logP>
2.563

>  <lumo_energy>
-2.724

>  <melting_point>
127.72

>  <molecular_refractivity>
51.08

>  <oscillator_strength_1>
0.0081

>  <oscillator_strength_2>
0.0

>  <oscillator_strength_3>
0.0273

>  <oscillator_strength_4>
0.0502

>  <open_babel_can_smiles>
O=N(=O)c1cc(C)c(c(c1)N(=O)=O)O

>  <mulliken_charges>
20
1   -0.589379
2   -0.20488
3   -0.188231
4   0.145553
5   0.278352
6   0.255295
7   0.284443
8   0.378628
9   0.363675
10   -0.592757
11   -0.396128
12   -0.387892
13   -0.381463
14   -0.365596
15   0.19341
16   0.181771
17   0.178252
18   0.188942
19   0.22644
20   0.431565

>  <lowdin_charges>
20
1   -0.45437
2   -0.123645
3   -0.110419
4   -0.038877
5   -0.012819
6   -0.018185
7   0.123832
8   0.307144
9   0.307106
10   -0.317117
11   -0.247873
12   -0.236435
13   -0.241649
14   -0.221282
15   0.179504
16   0.167825
17   0.166362
18   0.191643
19   0.211293
20   0.367961

$$$$

