PCCDB-ID:  7284
public computational chemistry database (PCCDB) project, http://pccdb.org

 16 15  0  0  1  0  0  0  0  0999 V2000
    3.4199   -0.9471    0.5077 C   0  0  0  0  0  0  0  0  0  0  0  0
    2.5076    2.1200   -1.7767 C   0  0  0  0  0  0  0  0  0  0  0  0
    2.8992    0.4344    0.0962 C   0  0  0  0  0  0  0  0  0  0  0  0
    4.6863    0.9328   -1.5898 C   0  0  0  0  0  0  0  0  0  0  0  0
    3.1908    0.7986   -1.3763 C   0  0  2  0  0  0  0  0  0  0  0  0
    5.3499    0.2761   -2.3608 O   0  0  0  0  0  0  0  0  0  0  0  0
    3.1758   -1.1617    1.5539 H   0  0  0  0  0  0  0  0  0  0  0  0
    4.5080   -1.0210    0.3973 H   0  0  0  0  0  0  0  0  0  0  0  0
    2.9739   -1.7358   -0.1094 H   0  0  0  0  0  0  0  0  0  0  0  0
    1.4269    2.0559   -1.6090 H   0  0  0  0  0  0  0  0  0  0  0  0
    2.6740    2.3527   -2.8340 H   0  0  0  0  0  0  0  0  0  0  0  0
    2.8878    2.9599   -1.1816 H   0  0  0  0  0  0  0  0  0  0  0  0
    3.3319    1.2073    0.7485 H   0  0  0  0  0  0  0  0  0  0  0  0
    1.8134    0.4820    0.2510 H   0  0  0  0  0  0  0  0  0  0  0  0
    5.1645    1.7230   -0.9600 H   0  0  0  0  0  0  0  0  0  0  0  0
    2.8456   -0.0108   -2.0313 H   0  0  0  0  0  0  0  0  0  0  0  0
  1  7  1  0  0  0  0
  2 10  1  0  0  0  0
  2  5  1  0  0  0  0
  2 12  1  0  0  0  0
  3 14  1  0  0  0  0
  3  1  1  0  0  0  0
  3 13  1  0  0  0  0
  4  5  1  0  0  0  0
  4 15  1  0  0  0  0
  5 16  1  6  0  0  0
  5  3  1  0  0  0  0
  6  4  2  0  0  0  0
  8  1  1  0  0  0  0
  9  1  1  0  0  0  0
 11  2  1  0  0  0  0
M  END
>  <HBA>
1

>  <HBD>
0

>  <TPSA>
17.07

>  <cid>
7284

>  <dipole>
2.76

>  <excitation_energy_1>
4.202

>  <excitation_energy_2>
6.455

>  <excitation_energy_3>
6.808

>  <excitation_energy_4>
6.899

>  <homo_energy>
-6.724

>  <homo_lumo_gap>
6.158

>  <logP>
1.231

>  <lumo_energy>
-0.566

>  <melting_point>
5.83

>  <molecular_refractivity>
26.35

>  <oscillator_strength_1>
0.0002

>  <oscillator_strength_2>
0.0078

>  <oscillator_strength_3>
0.0334

>  <oscillator_strength_4>
0.003

>  <open_babel_can_smiles>
C[C@@H](C=O)CC

>  <mulliken_charges>
16
1   -0.449426
2   -0.465289
3   -0.267832
4   0.260301
5   -0.135961
6   -0.387926
7   0.148485
8   0.15694
9   0.152062
10   0.157183
11   0.161613
12   0.149046
13   0.136322
14   0.143445
15   0.092196
16   0.148841

>  <lowdin_charges>
16
1   -0.445145
2   -0.439222
3   -0.270656
4   0.054283
5   -0.158631
6   -0.217112
7   0.152487
8   0.151751
9   0.153416
10   0.155951
11   0.156963
12   0.151858
13   0.143105
14   0.146178
15   0.110072
16   0.154703

$$$$

