PCCDB-ID:  70770
public computational chemistry database (PCCDB) project, http://pccdb.org

 26 26  0  0  0  0  0  0  0  0999 V2000
    3.0385    3.8372   -0.0998 C   0  0  0  0  0  0  0  0  0  0  0  0
    3.5391    3.0387    1.0944 C   0  0  0  0  0  0  0  0  0  0  0  0
    5.7087    0.2473   -1.7102 C   0  0  0  0  0  0  0  0  0  0  0  0
    5.3431   -1.3418    0.2223 C   0  0  0  0  0  0  0  0  0  0  0  0
    6.8765   -0.6406   -2.1511 C   0  0  0  0  0  0  0  0  0  0  0  0
    6.5220   -2.1676   -0.3015 C   0  0  0  0  0  0  0  0  0  0  0  0
    5.4929    0.1371   -0.1813 C   0  0  0  0  0  0  0  0  0  0  0  0
    4.2716    0.9430    0.2230 C   0  0  0  0  0  0  0  0  0  0  0  0
    6.6187   -2.0249   -1.7549 N   0  0  0  0  0  0  0  0  0  0  0  0
    3.1229    0.5717    0.0970 O   0  0  0  0  0  0  0  0  0  0  0  0
    4.6223    2.1534    0.7202 O   0  0  0  0  0  0  0  0  0  0  0  0
    2.2766    4.5555    0.2248 H   0  0  0  0  0  0  0  0  0  0  0  0
    2.5891    3.1740   -0.8443 H   0  0  0  0  0  0  0  0  0  0  0  0
    3.8578    4.3934   -0.5672 H   0  0  0  0  0  0  0  0  0  0  0  0
    2.7363    2.4439    1.5369 H   0  0  0  0  0  0  0  0  0  0  0  0
    3.9731    3.6892    1.8580 H   0  0  0  0  0  0  0  0  0  0  0  0
    4.7961   -0.0766   -2.2240 H   0  0  0  0  0  0  0  0  0  0  0  0
    5.9030    1.2899   -1.9901 H   0  0  0  0  0  0  0  0  0  0  0  0
    5.2812   -1.4333    1.3138 H   0  0  0  0  0  0  0  0  0  0  0  0
    4.4081   -1.7301   -0.1943 H   0  0  0  0  0  0  0  0  0  0  0  0
    7.8153   -0.2388   -1.7173 H   0  0  0  0  0  0  0  0  0  0  0  0
    6.9811   -0.6027   -3.2417 H   0  0  0  0  0  0  0  0  0  0  0  0
    6.3690   -3.2267   -0.0648 H   0  0  0  0  0  0  0  0  0  0  0  0
    7.4475   -1.8458    0.2192 H   0  0  0  0  0  0  0  0  0  0  0  0
    6.3668    0.5698    0.3212 H   0  0  0  0  0  0  0  0  0  0  0  0
    7.3566   -2.6278   -2.1120 H   0  0  0  0  0  0  0  0  0  0  0  0
  1 12  1  0  0  0  0
  1  2  1  0  0  0  0
  2 15  1  0  0  0  0
  2 16  1  0  0  0  0
  3  7  1  0  0  0  0
  4 19  1  0  0  0  0
  5  9  1  0  0  0  0
  5 21  1  0  0  0  0
  5  3  1  0  0  0  0
  6 23  1  0  0  0  0
  6 24  1  0  0  0  0
  6  4  1  0  0  0  0
  7  4  1  0  0  0  0
  7  8  1  0  0  0  0
  7 25  1  0  0  0  0
  8 11  1  0  0  0  0
  9  6  1  0  0  0  0
 10  8  2  0  0  0  0
 11  2  1  0  0  0  0
 13  1  1  0  0  0  0
 14  1  1  0  0  0  0
 17  3  1  0  0  0  0
 18  3  1  0  0  0  0
 20  4  1  0  0  0  0
 22  5  1  0  0  0  0
 26  9  1  0  0  0  0
M  END
>  <HBA>
3

>  <HBD>
1

>  <TPSA>
38.33

>  <cid>
70770

>  <dipole>
2.32

>  <excitation_energy_1>
5.312

>  <excitation_energy_2>
5.634

>  <excitation_energy_3>
5.739

>  <excitation_energy_4>
6.077

>  <homo_energy>
-6.006

>  <homo_lumo_gap>
6.46

>  <logP>
0.878

>  <lumo_energy>
0.454

>  <melting_point>
34.31

>  <molecular_refractivity>
46.46

>  <oscillator_strength_1>
0.004

>  <oscillator_strength_2>
0.0015

>  <oscillator_strength_3>
0.0013

>  <oscillator_strength_4>
0.0355

>  <open_babel_can_smiles>
CCOC(=O)C1CCNCC1

>  <mulliken_charges>
26
1   -0.461927
2   -0.044995
3   -0.26248
4   -0.254332
5   -0.13314
6   -0.138089
7   -0.177493
8   0.625253
9   -0.54371
10   -0.489642
11   -0.465029
12   0.149683
13   0.176377
14   0.155557
15   0.170575
16   0.150671
17   0.162911
18   0.139502
19   0.135099
20   0.169654
21   0.109078
22   0.140111
23   0.140067
24   0.107135
25   0.142458
26   0.296707

>  <lowdin_charges>
26
1   -0.458098
2   -0.132673
3   -0.27469
4   -0.275107
5   -0.200877
6   -0.20249
7   -0.153987
8   0.200133
9   -0.367445
10   -0.272665
11   -0.197258
12   0.159376
13   0.166605
14   0.156173
15   0.160103
16   0.152628
17   0.15741
18   0.147556
19   0.145588
20   0.161678
21   0.114262
22   0.145403
23   0.146074
24   0.113425
25   0.152655
26   0.256219

$$$$

