PCCDB-ID:  10695
public computational chemistry database (PCCDB) project, http://pccdb.org

 24 24  0  0  0  0  0  0  0  0999 V2000
    1.0047    0.0542   -0.0617 C   0  0  0  0  0  0  0  0  0  0  0  0
    5.3466    2.6150   -0.0808 C   0  0  0  0  0  0  0  0  0  0  0  0
    5.3639   -2.4813   -0.0787 C   0  0  0  0  0  0  0  0  0  0  0  0
    6.8642    0.0253   -0.0850 C   0  0  0  0  0  0  0  0  0  0  0  0
    3.2390    1.2513   -0.0709 C   0  0  0  0  0  0  0  0  0  0  0  0
    3.2379   -1.1397   -0.0722 C   0  0  0  0  0  0  0  0  0  0  0  0
    2.5163    0.0583   -0.0687 C   0  0  0  0  0  0  0  0  0  0  0  0
    4.6402    1.2748   -0.0767 C   0  0  0  0  0  0  0  0  0  0  0  0
    4.6341   -1.1573   -0.0766 C   0  0  0  0  0  0  0  0  0  0  0  0
    5.3511    0.0595   -0.0790 C   0  0  0  0  0  0  0  0  0  0  0  0
    0.6033    1.0727   -0.0630 H   0  0  0  0  0  0  0  0  0  0  0  0
    0.6078   -0.4589    0.8234 H   0  0  0  0  0  0  0  0  0  0  0  0
    0.5996   -0.4642   -0.9400 H   0  0  0  0  0  0  0  0  0  0  0  0
    4.6207    3.4338   -0.0851 H   0  0  0  0  0  0  0  0  0  0  0  0
    5.9880    2.7412   -0.9620 H   0  0  0  0  0  0  0  0  0  0  0  0
    5.9851    2.7481    0.8017 H   0  0  0  0  0  0  0  0  0  0  0  0
    4.6596   -3.3186   -0.0820 H   0  0  0  0  0  0  0  0  0  0  0  0
    6.0095   -2.5934    0.8024 H   0  0  0  0  0  0  0  0  0  0  0  0
    6.0136   -2.5890   -0.9572 H   0  0  0  0  0  0  0  0  0  0  0  0
    7.3038    1.0242   -0.0800 H   0  0  0  0  0  0  0  0  0  0  0  0
    7.2514   -0.4990   -0.9689 H   0  0  0  0  0  0  0  0  0  0  0  0
    7.2579   -0.5104    0.7891 H   0  0  0  0  0  0  0  0  0  0  0  0
    2.6995    2.1966   -0.0681 H   0  0  0  0  0  0  0  0  0  0  0  0
    2.6998   -2.0865   -0.0723 H   0  0  0  0  0  0  0  0  0  0  0  0
  1 12  1  0  0  0  0
  2  8  1  0  0  0  0
  2 16  1  0  0  0  0
  3  9  1  0  0  0  0
  3 18  1  0  0  0  0
  4 20  1  0  0  0  0
  4 10  1  0  0  0  0
  4 22  1  0  0  0  0
  5  7  2  0  0  0  0
  5 23  1  0  0  0  0
  6  7  1  0  0  0  0
  7  1  1  0  0  0  0
  8  5  1  0  0  0  0
  9  6  2  0  0  0  0
 10  8  2  0  0  0  0
 10  9  1  0  0  0  0
 11  1  1  0  0  0  0
 13  1  1  0  0  0  0
 14  2  1  0  0  0  0
 15  2  1  0  0  0  0
 17  3  1  0  0  0  0
 19  3  1  0  0  0  0
 21  4  1  0  0  0  0
 24  6  1  0  0  0  0
M  END
>  <HBA>
0

>  <HBD>
0

>  <TPSA>
0.0

>  <cid>
10695

>  <dipole>
0.33

>  <excitation_energy_1>
5.085

>  <excitation_energy_2>
5.629

>  <excitation_energy_3>
5.642

>  <excitation_energy_4>
5.856

>  <homo_energy>
-5.935

>  <homo_lumo_gap>
6.21

>  <logP>
2.92

>  <lumo_energy>
0.275

>  <melting_point>
21.67

>  <molecular_refractivity>
46.31

>  <oscillator_strength_1>
0.0015

>  <oscillator_strength_2>
0.0039

>  <oscillator_strength_3>
0.027

>  <oscillator_strength_4>
0.0

>  <open_babel_can_smiles>
Cc1cc(C)c(c(c1)C)C

>  <mulliken_charges>
24
1   -0.532286
2   -0.539762
3   -0.532541
4   -0.536251
5   -0.254369
6   -0.246769
7   0.200422
8   0.142883
9   0.141298
10   0.065587
11   0.152273
12   0.158754
13   0.15862
14   0.153161
15   0.158718
16   0.158761
17   0.152713
18   0.15672
19   0.156556
20   0.154733
21   0.156943
22   0.15683
23   0.108393
24   0.108612

>  <lowdin_charges>
24
1   -0.442606
2   -0.445153
3   -0.442126
4   -0.446963
5   -0.185909
6   -0.183052
7   -0.001819
8   -0.008471
9   -0.005115
10   -0.023515
11   0.15425
12   0.159036
13   0.159027
14   0.156171
15   0.157542
16   0.157546
17   0.156101
18   0.157012
19   0.156968
20   0.158616
21   0.157731
22   0.157793
23   0.148392
24   0.148546

$$$$

