PCCDB-ID:  7593
public computational chemistry database (PCCDB) project, http://pccdb.org

 30 31  0  0  0  0  0  0  0  0999 V2000
    1.8599    0.3350   -4.8386 C   0  0  0  0  0  0  0  0  0  0  0  0
    0.1527   -2.5403    3.7633 C   0  0  0  0  0  0  0  0  0  0  0  0
    3.1001    0.5176   -4.2218 C   0  0  0  0  0  0  0  0  0  0  0  0
    0.7251    0.1226   -4.0554 C   0  0  0  0  0  0  0  0  0  0  0  0
   -0.5360   -2.5424    2.5501 C   0  0  0  0  0  0  0  0  0  0  0  0
    1.5478   -2.4654    3.7650 C   0  0  0  0  0  0  0  0  0  0  0  0
    3.2038    0.4880   -2.8318 C   0  0  0  0  0  0  0  0  0  0  0  0
    0.8306    0.0932   -2.6631 C   0  0  0  0  0  0  0  0  0  0  0  0
    0.1670   -2.4697    1.3455 C   0  0  0  0  0  0  0  0  0  0  0  0
    2.2480   -2.3928    2.5616 C   0  0  0  0  0  0  0  0  0  0  0  0
    2.1973    0.2409   -0.5207 C   0  0  0  0  0  0  0  0  0  0  0  0
    2.3432   -2.3056    0.0337 C   0  0  0  0  0  0  0  0  0  0  0  0
    2.0681    0.2791   -2.0356 C   0  0  0  0  0  0  0  0  0  0  0  0
    1.5652   -2.3975    1.3364 C   0  0  0  0  0  0  0  0  0  0  0  0
    3.0495   -0.9527   -0.0833 C   0  0  0  0  0  0  0  0  0  0  0  0
    4.2359   -0.8322    0.1552 O   0  0  0  0  0  0  0  0  0  0  0  0
    1.7794    0.3598   -5.9220 H   0  0  0  0  0  0  0  0  0  0  0  0
   -0.3926   -2.5984    4.7014 H   0  0  0  0  0  0  0  0  0  0  0  0
    3.9892    0.6829   -4.8247 H   0  0  0  0  0  0  0  0  0  0  0  0
   -0.2445   -0.0185   -4.5258 H   0  0  0  0  0  0  0  0  0  0  0  0
   -1.6211   -2.6037    2.5382 H   0  0  0  0  0  0  0  0  0  0  0  0
    2.0920   -2.4633    4.7058 H   0  0  0  0  0  0  0  0  0  0  0  0
    4.1706    0.6221   -2.3532 H   0  0  0  0  0  0  0  0  0  0  0  0
   -0.0593   -0.0653   -2.0579 H   0  0  0  0  0  0  0  0  0  0  0  0
   -0.3756   -2.4808    0.4027 H   0  0  0  0  0  0  0  0  0  0  0  0
    3.3332   -2.3278    2.5647 H   0  0  0  0  0  0  0  0  0  0  0  0
    1.2047    0.1758   -0.0618 H   0  0  0  0  0  0  0  0  0  0  0  0
    2.6913    1.1462   -0.1535 H   0  0  0  0  0  0  0  0  0  0  0  0
    1.6661   -2.4391   -0.8178 H   0  0  0  0  0  0  0  0  0  0  0  0
    3.1157   -3.0798   -0.0112 H   0  0  0  0  0  0  0  0  0  0  0  0
  1  3  2  0  0  0  0
  1  4  1  0  0  0  0
  2  6  1  0  0  0  0
  2 18  1  0  0  0  0
  3  7  1  0  0  0  0
  4  8  2  0  0  0  0
  5  2  2  0  0  0  0
  6 22  1  0  0  0  0
  7 23  1  0  0  0  0
  7 13  2  0  0  0  0
  8 24  1  0  0  0  0
  8 13  1  0  0  0  0
  9  5  1  0  0  0  0
 10 26  1  0  0  0  0
 10  6  2  0  0  0  0
 11 28  1  0  0  0  0
 11 15  1  0  0  0  0
 11 27  1  0  0  0  0
 12 14  1  0  0  0  0
 13 11  1  0  0  0  0
 14  9  2  0  0  0  0
 14 10  1  0  0  0  0
 15 12  1  0  0  0  0
 15 16  2  0  0  0  0
 17  1  1  0  0  0  0
 19  3  1  0  0  0  0
 20  4  1  0  0  0  0
 21  5  1  0  0  0  0
 25  9  1  0  0  0  0
 29 12  1  0  0  0  0
 30 12  1  0  0  0  0
M  END
>  <HBA>
1

>  <HBD>
0

>  <TPSA>
17.07

>  <cid>
7593

>  <dipole>
2.44

>  <excitation_energy_1>
4.064

>  <excitation_energy_2>
5.039

>  <excitation_energy_3>
5.075

>  <excitation_energy_4>
5.194

>  <homo_energy>
-6.242

>  <homo_lumo_gap>
5.456

>  <logP>
3.041

>  <lumo_energy>
-0.786

>  <melting_point>
57.61

>  <molecular_refractivity>
65.71

>  <oscillator_strength_1>
0.0066

>  <oscillator_strength_2>
0.0101

>  <oscillator_strength_3>
0.0

>  <oscillator_strength_4>
0.0675

>  <open_babel_can_smiles>
O=C(Cc1ccccc1)Cc1ccccc1

>  <mulliken_charges>
30
1   -0.129325
2   -0.129498
3   -0.128024
4   -0.126858
5   -0.126788
6   -0.127379
7   -0.171992
8   -0.189264
9   -0.189545
10   -0.173265
11   -0.421991
12   -0.423396
13   0.147729
14   0.149638
15   0.466823
16   -0.44729
17   0.131329
18   0.13166
19   0.134061
20   0.131026
21   0.131441
22   0.134236
23   0.150031
24   0.12487
25   0.125311
26   0.148744
27   0.161138
28   0.177462
29   0.16209
30   0.177023

>  <lowdin_charges>
30
1   -0.155034
2   -0.157998
3   -0.152232
4   -0.15441
5   -0.151473
6   -0.151444
7   -0.160918
8   -0.172521
9   -0.171979
10   -0.158601
11   -0.301929
12   -0.302276
13   -0.003349
14   -0.004509
15   0.169241
16   -0.237115
17   0.156619
18   0.159045
19   0.160355
20   0.158245
21   0.156489
22   0.160011
23   0.166998
24   0.154963
25   0.154658
26   0.164296
27   0.163185
28   0.17353
29   0.164871
30   0.173283

$$$$

