PCCDB-ID:  8902
public computational chemistry database (PCCDB) project, http://pccdb.org

 22 21  0  0  0  0  0  0  0  0999 V2000
    0.8709   -0.0909   -0.1294 C   0  0  0  0  0  0  0  0  0  0  0  0
    7.0376    3.9417    1.4996 C   0  0  0  0  0  0  0  0  0  0  0  0
    2.3988   -0.0222   -0.0451 C   0  0  0  0  0  0  0  0  0  0  0  0
    6.4351    2.6207    1.0119 C   0  0  0  0  0  0  0  0  0  0  0  0
    2.9088    1.3420    0.4241 C   0  0  0  0  0  0  0  0  0  0  0  0
    4.9066    2.6489    0.9514 C   0  0  0  0  0  0  0  0  0  0  0  0
    4.3656    1.3581    0.5323 N   0  0  0  0  0  0  0  0  0  0  0  0
    0.5359   -1.0775   -0.4680 H   0  0  0  0  0  0  0  0  0  0  0  0
    0.4750    0.6537   -0.8309 H   0  0  0  0  0  0  0  0  0  0  0  0
    0.4111    0.0985    0.8483 H   0  0  0  0  0  0  0  0  0  0  0  0
    8.1318    3.8927    1.5267 H   0  0  0  0  0  0  0  0  0  0  0  0
    6.6911    4.1862    2.5112 H   0  0  0  0  0  0  0  0  0  0  0  0
    6.7582    4.7753    0.8436 H   0  0  0  0  0  0  0  0  0  0  0  0
    2.8293   -0.2475   -1.0322 H   0  0  0  0  0  0  0  0  0  0  0  0
    2.7777   -0.7904    0.6401 H   0  0  0  0  0  0  0  0  0  0  0  0
    6.7427    1.7965    1.6672 H   0  0  0  0  0  0  0  0  0  0  0  0
    6.8312    2.3865    0.0125 H   0  0  0  0  0  0  0  0  0  0  0  0
    2.4973    1.5611    1.4196 H   0  0  0  0  0  0  0  0  0  0  0  0
    2.5193    2.1330   -0.2497 H   0  0  0  0  0  0  0  0  0  0  0  0
    4.5788    3.4841    0.2986 H   0  0  0  0  0  0  0  0  0  0  0  0
    4.5068    2.8698    1.9513 H   0  0  0  0  0  0  0  0  0  0  0  0
    4.7628    1.1176   -0.3765 H   0  0  0  0  0  0  0  0  0  0  0  0
  1  3  1  0  0  0  0
  1 10  1  0  0  0  0
  2 11  1  0  0  0  0
  2 12  1  0  0  0  0
  3  5  1  0  0  0  0
  3 15  1  0  0  0  0
  4  2  1  0  0  0  0
  4 16  1  0  0  0  0
  5  7  1  0  0  0  0
  5 18  1  0  0  0  0
  6  4  1  0  0  0  0
  6 21  1  0  0  0  0
  7  6  1  0  0  0  0
  8  1  1  0  0  0  0
  9  1  1  0  0  0  0
 13  2  1  0  0  0  0
 14  3  1  0  0  0  0
 17  4  1  0  0  0  0
 19  5  1  0  0  0  0
 20  6  1  0  0  0  0
 22  7  1  0  0  0  0
M  END
>  <HBA>
1

>  <HBD>
1

>  <TPSA>
12.03

>  <cid>
8902

>  <dipole>
0.84

>  <excitation_energy_1>
5.457

>  <excitation_energy_2>
5.861

>  <excitation_energy_3>
5.975

>  <excitation_energy_4>
6.145

>  <homo_energy>
-5.831

>  <homo_lumo_gap>
8.261

>  <logP>
1.787

>  <lumo_energy>
2.43

>  <melting_point>
0.62

>  <molecular_refractivity>
33.76

>  <oscillator_strength_1>
0.0002

>  <oscillator_strength_2>
0.0264

>  <oscillator_strength_3>
0.0114

>  <oscillator_strength_4>
0.0475

>  <open_babel_can_smiles>
CCCNCCC

>  <mulliken_charges>
22
1   -0.445161
2   -0.44502
3   -0.258423
4   -0.258999
5   -0.100534
6   -0.100152
7   -0.559111
8   0.144709
9   0.142016
10   0.143626
11   0.144701
12   0.143734
13   0.141991
14   0.124679
15   0.14797
16   0.148035
17   0.124743
18   0.134227
19   0.103884
20   0.103872
21   0.13419
22   0.285022

>  <lowdin_charges>
22
1   -0.445011
2   -0.442243
3   -0.276923
4   -0.276817
5   -0.201042
6   -0.201025
7   -0.363897
8   0.150923
9   0.14752
10   0.147195
11   0.149192
12   0.146763
13   0.147122
14   0.135547
15   0.149578
16   0.149348
17   0.135395
18   0.138243
19   0.113007
20   0.112761
21   0.137959
22   0.246403

$$$$

