PCCDB-ID:  31431
public computational chemistry database (PCCDB) project, http://pccdb.org

 35 36  0  0  1  0  0  0  0  0999 V2000
    3.0667    2.1594    1.7425 C   0  0  0  0  0  0  0  0  0  0  0  0
   12.0394   -2.1196   -4.4467 C   0  0  0  0  0  0  0  0  0  0  0  0
    3.0684    1.3486    0.6854 C   0  0  0  0  0  0  0  0  0  0  0  0
   11.0105   -1.3703   -4.8401 C   0  0  0  0  0  0  0  0  0  0  0  0
    3.9161    1.5504   -0.5361 C   0  0  0  0  0  0  0  0  0  0  0  0
    9.5862   -1.6050   -4.4303 C   0  0  0  0  0  0  0  0  0  0  0  0
    7.5279    0.0282   -1.3912 C   0  0  0  0  0  0  0  0  0  0  0  0
    5.6847   -1.1547   -2.3730 C   0  0  0  0  0  0  0  0  0  0  0  0
    7.1528    1.0565   -3.5270 C   0  0  0  0  0  0  0  0  0  0  0  0
    6.6095    1.0609   -2.0780 C   0  0  1  0  0  0  0  0  0  0  0  0
    7.2305   -1.0890   -2.4132 C   0  0  1  0  0  0  0  0  0  0  0  0
    5.2535    0.3125   -2.0862 C   0  0  2  0  0  0  0  0  0  0  0  0
    7.6322   -0.4073   -3.7439 C   0  0  2  0  0  0  0  0  0  0  0  0
    4.5848    0.3304   -0.8287 O   0  0  0  0  0  0  0  0  0  0  0  0
    9.0394   -0.3773   -3.9660 O   0  0  0  0  0  0  0  0  0  0  0  0
    2.4106    1.9911    2.5921 H   0  0  0  0  0  0  0  0  0  0  0  0
    3.7203    3.0276    1.7983 H   0  0  0  0  0  0  0  0  0  0  0  0
   13.0511   -1.9321   -4.7958 H   0  0  0  0  0  0  0  0  0  0  0  0
   11.9097   -2.9544   -3.7607 H   0  0  0  0  0  0  0  0  0  0  0  0
    2.4140    0.4781    0.6562 H   0  0  0  0  0  0  0  0  0  0  0  0
   11.1653   -0.5318   -5.5182 H   0  0  0  0  0  0  0  0  0  0  0  0
    4.6264    2.3758   -0.3763 H   0  0  0  0  0  0  0  0  0  0  0  0
    3.2788    1.8312   -1.3952 H   0  0  0  0  0  0  0  0  0  0  0  0
    9.5353   -2.3902   -3.6603 H   0  0  0  0  0  0  0  0  0  0  0  0
    8.9974   -1.9599   -5.2963 H   0  0  0  0  0  0  0  0  0  0  0  0
    7.2042   -0.2170   -0.3750 H   0  0  0  0  0  0  0  0  0  0  0  0
    8.5814    0.3241   -1.3817 H   0  0  0  0  0  0  0  0  0  0  0  0
    5.3352   -1.7831   -1.5485 H   0  0  0  0  0  0  0  0  0  0  0  0
    5.2504   -1.5464   -3.3001 H   0  0  0  0  0  0  0  0  0  0  0  0
    8.0168    1.7197   -3.6291 H   0  0  0  0  0  0  0  0  0  0  0  0
    6.4035    1.3673   -4.2644 H   0  0  0  0  0  0  0  0  0  0  0  0
    6.5661    2.0568   -1.6289 H   0  0  0  0  0  0  0  0  0  0  0  0
    7.7152   -2.0538   -2.2425 H   0  0  0  0  0  0  0  0  0  0  0  0
    4.5759    0.7146   -2.8569 H   0  0  0  0  0  0  0  0  0  0  0  0
    7.1447   -0.8901   -4.6065 H   0  0  0  0  0  0  0  0  0  0  0  0
  1 17  1  0  0  0  0
  1 16  1  0  0  0  0
  2 19  1  0  0  0  0
  3  1  2  0  0  0  0
  4  2  2  0  0  0  0
  4  6  1  0  0  0  0
  5 22  1  0  0  0  0
  5  3  1  0  0  0  0
  6 15  1  0  0  0  0
  6 24  1  0  0  0  0
  7 27  1  0  0  0  0
  7 26  1  0  0  0  0
  8 12  1  0  0  0  0
  8 28  1  0  0  0  0
  9 10  1  0  0  0  0
 10 32  1  1  0  0  0
 10  7  1  0  0  0  0
 11  8  1  0  0  0  0
 11 33  1  1  0  0  0
 11  7  1  0  0  0  0
 12 34  1  6  0  0  0
 12 10  1  0  0  0  0
 12 14  1  0  0  0  0
 13 35  1  6  0  0  0
 13  9  1  0  0  0  0
 13 11  1  0  0  0  0
 14  5  1  0  0  0  0
 15 13  1  0  0  0  0
 18  2  1  0  0  0  0
 20  3  1  0  0  0  0
 21  4  1  0  0  0  0
 23  5  1  0  0  0  0
 25  6  1  0  0  0  0
 29  8  1  0  0  0  0
 30  9  1  0  0  0  0
 31  9  1  0  0  0  0
M  END
>  <HBA>
2

>  <HBD>
0

>  <TPSA>
18.46

>  <cid>
31431

>  <dipole>
0.97

>  <excitation_energy_1>
5.957

>  <excitation_energy_2>
5.963

>  <excitation_energy_3>
6.269

>  <excitation_energy_4>
6.321

>  <homo_energy>
-6.651

>  <homo_lumo_gap>
7.045

>  <logP>
2.559

>  <lumo_energy>
0.395

>  <melting_point>
-45.15

>  <molecular_refractivity>
61.6

>  <oscillator_strength_1>
0.0198

>  <oscillator_strength_2>
0.0222

>  <oscillator_strength_3>
0.0064

>  <oscillator_strength_4>
0.0001

>  <open_babel_can_smiles>
C=CCO[C@@H]1C[C@@H]2C[C@H]1C[C@H]2OCC=C

>  <mulliken_charges>
35
1   -0.338208
2   -0.338128
3   -0.049299
4   -0.04928
5   -0.058965
6   -0.058919
7   -0.28033
8   -0.302792
9   -0.302413
10   -0.13239
11   -0.131909
12   0.171598
13   0.171712
14   -0.503062
15   -0.503585
16   0.144127
17   0.138954
18   0.144144
19   0.138981
20   0.138959
21   0.138946
22   0.129455
23   0.125913
24   0.129261
25   0.126
26   0.150194
27   0.150172
28   0.163268
29   0.133618
30   0.163235
31   0.13363
32   0.122179
33   0.122253
34   0.10635
35   0.106333

>  <lowdin_charges>
35
1   -0.331231
2   -0.329836
3   -0.147973
4   -0.148103
5   -0.128025
6   -0.128024
7   -0.284493
8   -0.293023
9   -0.293054
10   -0.149873
11   -0.15013
12   -0.006864
13   -0.005817
14   -0.270091
15   -0.271247
16   0.161336
17   0.155753
18   0.160059
19   0.155777
20   0.158221
21   0.158286
22   0.133191
23   0.133001
24   0.13302
25   0.132983
26   0.151848
27   0.15123
28   0.16464
29   0.144948
30   0.164224
31   0.145649
32   0.142938
33   0.143396
34   0.123778
35   0.123507

$$$$

