PCCDB-ID:  17703
public computational chemistry database (PCCDB) project, http://pccdb.org

 33 32  0  0  1  0  0  0  0  0999 V2000
    1.6403   -1.4403   -0.6580 C   0  0  0  0  0  0  0  0  0  0  0  0
    4.2526    3.4224   -0.0280 C   0  0  0  0  0  0  0  0  0  0  0  0
    3.0872   -0.9821   -0.4498 C   0  0  0  0  0  0  0  0  0  0  0  0
    3.2973    0.5111   -0.7377 C   0  0  0  0  0  0  0  0  0  0  0  0
    7.0235    4.0512   -1.3940 C   0  0  0  0  0  0  0  0  0  0  0  0
    8.5494    4.2088   -1.3897 C   0  0  0  0  0  0  0  0  0  0  0  0
    4.7469    0.9677   -0.5224 C   0  0  0  0  0  0  0  0  0  0  0  0
    6.5643    2.6980   -0.8322 C   0  0  0  0  0  0  0  0  0  0  0  0
    9.0115    5.5494   -1.9461 C   0  0  0  0  0  0  0  0  0  0  0  0
    5.0451    2.4345   -0.8996 C   0  0  2  0  0  0  0  0  0  0  0  0
   10.4347    5.5844   -1.8892 O   0  0  0  0  0  0  0  0  0  0  0  0
    1.5230   -2.5087   -0.4435 H   0  0  0  0  0  0  0  0  0  0  0  0
    1.3157   -1.2707   -1.6922 H   0  0  0  0  0  0  0  0  0  0  0  0
    0.9524   -0.8918   -0.0026 H   0  0  0  0  0  0  0  0  0  0  0  0
    3.1728    3.2624   -0.1131 H   0  0  0  0  0  0  0  0  0  0  0  0
    4.4479    4.4618   -0.3119 H   0  0  0  0  0  0  0  0  0  0  0  0
    4.5237    3.3097    1.0305 H   0  0  0  0  0  0  0  0  0  0  0  0
    3.7548   -1.5726   -1.0934 H   0  0  0  0  0  0  0  0  0  0  0  0
    3.3943   -1.1975    0.5836 H   0  0  0  0  0  0  0  0  0  0  0  0
    2.6172    1.0926   -0.1007 H   0  0  0  0  0  0  0  0  0  0  0  0
    2.9992    0.7241   -1.7756 H   0  0  0  0  0  0  0  0  0  0  0  0
    6.6471    4.1618   -2.4223 H   0  0  0  0  0  0  0  0  0  0  0  0
    6.5767    4.8710   -0.8154 H   0  0  0  0  0  0  0  0  0  0  0  0
    9.0149    3.4094   -1.9813 H   0  0  0  0  0  0  0  0  0  0  0  0
    8.9373    4.1065   -0.3675 H   0  0  0  0  0  0  0  0  0  0  0  0
    5.4075    0.3161   -1.1131 H   0  0  0  0  0  0  0  0  0  0  0  0
    5.0260    0.8053    0.5303 H   0  0  0  0  0  0  0  0  0  0  0  0
    6.8983    2.6069    0.2128 H   0  0  0  0  0  0  0  0  0  0  0  0
    7.0815    1.9003   -1.3848 H   0  0  0  0  0  0  0  0  0  0  0  0
    8.5706    6.3702   -1.3551 H   0  0  0  0  0  0  0  0  0  0  0  0
    8.6531    5.6660   -2.9830 H   0  0  0  0  0  0  0  0  0  0  0  0
    4.7302    2.5780   -1.9462 H   0  0  0  0  0  0  0  0  0  0  0  0
   10.7255    6.4367   -2.2468 H   0  0  0  0  0  0  0  0  0  0  0  0
  1  3  1  0  0  0  0
  1 12  1  0  0  0  0
  1 14  1  0  0  0  0
  2 17  1  0  0  0  0
  3 19  1  0  0  0  0
  4  7  1  0  0  0  0
  4  3  1  0  0  0  0
  4 20  1  0  0  0  0
  5  6  1  0  0  0  0
  5  8  1  0  0  0  0
  5 23  1  0  0  0  0
  6 25  1  0  0  0  0
  7 27  1  0  0  0  0
  8 28  1  0  0  0  0
  9 11  1  0  0  0  0
  9  6  1  0  0  0  0
  9 30  1  0  0  0  0
 10 32  1  6  0  0  0
 10  8  1  0  0  0  0
 10  7  1  0  0  0  0
 10  2  1  0  0  0  0
 13  1  1  0  0  0  0
 15  2  1  0  0  0  0
 16  2  1  0  0  0  0
 18  3  1  0  0  0  0
 21  4  1  0  0  0  0
 22  5  1  0  0  0  0
 24  6  1  0  0  0  0
 26  7  1  0  0  0  0
 29  8  1  0  0  0  0
 31  9  1  0  0  0  0
 33 11  1  0  0  0  0
M  END
>  <HBA>
1

>  <HBD>
1

>  <TPSA>
20.23

>  <cid>
17703

>  <dipole>
1.48

>  <excitation_energy_1>
6.315

>  <excitation_energy_2>
7.217

>  <excitation_energy_3>
7.464

>  <excitation_energy_4>
7.544

>  <homo_energy>
-7.097

>  <homo_lumo_gap>
9.219

>  <logP>
2.975

>  <lumo_energy>
2.123

>  <melting_point>
-10.6

>  <molecular_refractivity>
51.35

>  <oscillator_strength_1>
0.0007

>  <oscillator_strength_2>
0.0103

>  <oscillator_strength_3>
0.0056

>  <oscillator_strength_4>
0.0043

>  <open_babel_can_smiles>
CCCC[C@H](CCCCO)C

>  <mulliken_charges>
33
1   -0.441391
2   -0.454539
3   -0.246856
4   -0.252184
5   -0.268251
6   -0.260212
7   -0.253012
8   -0.251709
9   -0.027432
10   -0.068901
11   -0.620285
12   0.141211
13   0.140674
14   0.140606
15   0.145423
16   0.143523
17   0.13707
18   0.129793
19   0.130212
20   0.131153
21   0.124935
22   0.126833
23   0.132705
24   0.143309
25   0.143915
26   0.124692
27   0.123617
28   0.125845
29   0.127027
30   0.114174
31   0.114224
32   0.114366
33   0.389466

>  <lowdin_charges>
33
1   -0.443344
2   -0.444487
3   -0.272004
4   -0.277252
5   -0.276803
6   -0.279701
7   -0.275391
8   -0.273919
9   -0.13258
10   -0.121696
11   -0.475526
12   0.147397
13   0.14489
14   0.147086
15   0.147775
16   0.147319
17   0.143325
18   0.139745
19   0.137759
20   0.140267
21   0.135436
22   0.136115
23   0.140187
24   0.148153
25   0.146737
26   0.13997
27   0.135343
28   0.136692
29   0.140955
30   0.123072
31   0.121079
32   0.130738
33   0.342661

$$$$

