PCCDB-ID:  29354
public computational chemistry database (PCCDB) project, http://pccdb.org

 32 32  0  0  0  0  0  0  0  0999 V2000
    0.3748    1.5805    0.0731 C   0  0  0  0  0  0  0  0  0  0  0  0
    1.8256    1.8767    0.4674 C   0  0  0  0  0  0  0  0  0  0  0  0
    2.8228    1.5810   -0.6622 C   0  0  0  0  0  0  0  0  0  0  0  0
    4.3003    1.7898   -0.2921 C   0  0  0  0  0  0  0  0  0  0  0  0
    4.6859    3.2512   -0.0226 C   0  0  0  0  0  0  0  0  0  0  0  0
   10.0912    3.3795    1.9184 C   0  0  0  0  0  0  0  0  0  0  0  0
    9.2367    2.0394    3.7335 C   0  0  0  0  0  0  0  0  0  0  0  0
    8.8148    3.4269    1.3444 C   0  0  0  0  0  0  0  0  0  0  0  0
    7.9710    2.0842    3.1669 C   0  0  0  0  0  0  0  0  0  0  0  0
    6.1661    3.4419    0.2843 C   0  0  0  0  0  0  0  0  0  0  0  0
   10.3095    2.6889    3.1087 C   0  0  0  0  0  0  0  0  0  0  0  0
    7.7459    2.7780    1.9676 C   0  0  0  0  0  0  0  0  0  0  0  0
   11.5383    2.6087    3.7162 O   0  0  0  0  0  0  0  0  0  0  0  0
    6.4587    2.7588    1.4993 O   0  0  0  0  0  0  0  0  0  0  0  0
   -0.3165    1.7986    0.8951 H   0  0  0  0  0  0  0  0  0  0  0  0
    0.2458    0.5259   -0.2001 H   0  0  0  0  0  0  0  0  0  0  0  0
    0.0673    2.1845   -0.7897 H   0  0  0  0  0  0  0  0  0  0  0  0
    2.0955    1.2791    1.3499 H   0  0  0  0  0  0  0  0  0  0  0  0
    1.9072    2.9274    0.7759 H   0  0  0  0  0  0  0  0  0  0  0  0
    2.5737    2.2009   -1.5371 H   0  0  0  0  0  0  0  0  0  0  0  0
    2.6873    0.5383   -0.9835 H   0  0  0  0  0  0  0  0  0  0  0  0
    4.9273    1.4088   -1.1112 H   0  0  0  0  0  0  0  0  0  0  0  0
    4.5487    1.1867    0.5901 H   0  0  0  0  0  0  0  0  0  0  0  0
    4.1061    3.6557    0.8158 H   0  0  0  0  0  0  0  0  0  0  0  0
    4.4447    3.8676   -0.9005 H   0  0  0  0  0  0  0  0  0  0  0  0
   10.9171    3.8886    1.4241 H   0  0  0  0  0  0  0  0  0  0  0  0
    9.4139    1.5049    4.6616 H   0  0  0  0  0  0  0  0  0  0  0  0
    8.6760    3.9728    0.4185 H   0  0  0  0  0  0  0  0  0  0  0  0
    7.1317    1.5846    3.6407 H   0  0  0  0  0  0  0  0  0  0  0  0
    6.4054    4.5108    0.3899 H   0  0  0  0  0  0  0  0  0  0  0  0
    6.7854    3.0371   -0.5314 H   0  0  0  0  0  0  0  0  0  0  0  0
   12.1820    3.0982    3.1816 H   0  0  0  0  0  0  0  0  0  0  0  0
  1  2  1  0  0  0  0
  1 15  1  0  0  0  0
  2 19  1  0  0  0  0
  2 18  1  0  0  0  0
  3  4  1  0  0  0  0
  3  2  1  0  0  0  0
  4  5  1  0  0  0  0
  4 23  1  0  0  0  0
  5 10  1  0  0  0  0
  5 24  1  0  0  0  0
  6 11  1  0  0  0  0
  7 27  1  0  0  0  0
  8  6  2  0  0  0  0
  8 12  1  0  0  0  0
  9 29  1  0  0  0  0
  9  7  1  0  0  0  0
 10 30  1  0  0  0  0
 10 14  1  0  0  0  0
 11 13  1  0  0  0  0
 11  7  2  0  0  0  0
 12  9  2  0  0  0  0
 14 12  1  0  0  0  0
 16  1  1  0  0  0  0
 17  1  1  0  0  0  0
 20  3  1  0  0  0  0
 21  3  1  0  0  0  0
 22  4  1  0  0  0  0
 25  5  1  0  0  0  0
 26  6  1  0  0  0  0
 28  8  1  0  0  0  0
 31 10  1  0  0  0  0
 32 13  1  0  0  0  0
M  END
>  <HBA>
2

>  <HBD>
1

>  <TPSA>
29.46

>  <cid>
29354

>  <dipole>
2.32

>  <excitation_energy_1>
4.615

>  <excitation_energy_2>
4.709

>  <excitation_energy_3>
5.125

>  <excitation_energy_4>
5.499

>  <homo_energy>
-5.323

>  <homo_lumo_gap>
5.361

>  <logP>
3.351

>  <lumo_energy>
0.038

>  <melting_point>
46.08

>  <molecular_refractivity>
58.99

>  <oscillator_strength_1>
0.0573

>  <oscillator_strength_2>
0.0

>  <oscillator_strength_3>
0.0053

>  <oscillator_strength_4>
0.0008

>  <open_babel_can_smiles>
CCCCCCOc1ccc(cc1)O

>  <mulliken_charges>
32
1   -0.441495
2   -0.249099
3   -0.248799
4   -0.255809
5   -0.278476
6   -0.20456
7   -0.161219
8   -0.19891
9   -0.181417
10   -0.032393
11   0.34844
12   0.377553
13   -0.650525
14   -0.526585
15   0.1419
16   0.14143
17   0.140492
18   0.133226
19   0.1342
20   0.123365
21   0.12878
22   0.124771
23   0.152051
24   0.152465
25   0.131719
26   0.116335
27   0.140013
28   0.13357
29   0.137559
30   0.134752
31   0.132318
32   0.404348

>  <lowdin_charges>
32
1   -0.444244
2   -0.27367
3   -0.274426
4   -0.278696
5   -0.28397
6   -0.208772
7   -0.174123
8   -0.202877
9   -0.171079
10   -0.125298
11   0.086999
12   0.085628
13   -0.390177
14   -0.208687
15   0.149993
16   0.144795
17   0.146427
18   0.140736
19   0.138182
20   0.135929
21   0.140031
22   0.140741
23   0.150395
24   0.151983
25   0.146245
26   0.153246
27   0.167724
28   0.162635
29   0.16773
30   0.134711
31   0.13458
32   0.35731

$$$$

