PCCDB-ID:  6560
public computational chemistry database (PCCDB) project, http://pccdb.org

 15 14  0  0  0  0  0  0  0  0999 V2000
    0.9041   -0.0983   -0.0057 C   0  0  0  0  0  0  0  0  0  0  0  0
    2.9786    0.8163   -1.1549 C   0  0  0  0  0  0  0  0  0  0  0  0
    2.9524    0.4604    1.3534 C   0  0  0  0  0  0  0  0  0  0  0  0
    2.4379   -0.0411   -0.0042 C   0  0  0  0  0  0  0  0  0  0  0  0
    4.3730    0.4955    1.4496 O   0  0  0  0  0  0  0  0  0  0  0  0
    0.5255   -0.4880   -0.9573 H   0  0  0  0  0  0  0  0  0  0  0  0
    0.4749    0.9020    0.1360 H   0  0  0  0  0  0  0  0  0  0  0  0
    0.5218   -0.7423    0.7957 H   0  0  0  0  0  0  0  0  0  0  0  0
    2.6855    0.4054   -2.1281 H   0  0  0  0  0  0  0  0  0  0  0  0
    4.0703    0.8752   -1.1164 H   0  0  0  0  0  0  0  0  0  0  0  0
    2.5866    1.8401   -1.0921 H   0  0  0  0  0  0  0  0  0  0  0  0
    2.5190   -0.1488    2.1643 H   0  0  0  0  0  0  0  0  0  0  0  0
    2.6257    1.4948    1.5144 H   0  0  0  0  0  0  0  0  0  0  0  0
    2.8150   -1.0697   -0.1350 H   0  0  0  0  0  0  0  0  0  0  0  0
    4.6911   -0.4168    1.3624 H   0  0  0  0  0  0  0  0  0  0  0  0
  1  4  1  0  0  0  0
  1  7  1  0  0  0  0
  1  8  1  0  0  0  0
  2 10  1  0  0  0  0
  2 11  1  0  0  0  0
  2  4  1  0  0  0  0
  3  5  1  0  0  0  0
  3 13  1  0  0  0  0
  3 12  1  0  0  0  0
  4  3  1  0  0  0  0
  6  1  1  0  0  0  0
  9  2  1  0  0  0  0
 14  4  1  0  0  0  0
 15  5  1  0  0  0  0
M  END
>  <HBA>
1

>  <HBD>
1

>  <TPSA>
20.23

>  <cid>
6560

>  <dipole>
1.66

>  <excitation_energy_1>
6.403

>  <excitation_energy_2>
7.117

>  <excitation_energy_3>
7.486

>  <excitation_energy_4>
7.563

>  <homo_energy>
-7.113

>  <homo_lumo_gap>
9.094

>  <logP>
0.635

>  <lumo_energy>
1.981

>  <melting_point>
-6.62

>  <molecular_refractivity>
22.5

>  <oscillator_strength_1>
0.0039

>  <oscillator_strength_2>
0.0207

>  <oscillator_strength_3>
0.0078

>  <oscillator_strength_4>
0.0068

>  <open_babel_can_smiles>
OCC(C)C

>  <mulliken_charges>
15
1   -0.447796
2   -0.436321
3   -0.02148
4   -0.096122
5   -0.614202
6   0.146282
7   0.143111
8   0.140525
9   0.137078
10   0.15725
11   0.138122
12   0.116316
13   0.140992
14   0.110811
15   0.385433

>  <lowdin_charges>
15
1   -0.445942
2   -0.443592
3   -0.13756
4   -0.137598
5   -0.465895
6   0.152276
7   0.147257
8   0.148546
9   0.146554
10   0.154813
11   0.145168
12   0.126373
13   0.143331
14   0.127936
15   0.338333

$$$$

