PCCDB-ID:  67956
public computational chemistry database (PCCDB) project, http://pccdb.org

 14 14  0  0  1  0  0  0  0  0999 V2000
   -0.7512    1.1588   -0.0423 C   0  0  1  0  0  0  0  0  0  0  0  0
   -1.3786   -0.0874   -0.0924 C   0  0  0  0  0  0  0  0  0  0  0  0
    0.6477    1.1567   -0.0201 C   0  0  0  0  0  0  0  0  0  0  0  0
    0.6395   -1.0853    0.0422 C   0  0  0  0  0  0  0  0  0  0  0  0
   -0.6905   -1.2246   -0.0370 N   0  0  0  0  0  0  0  0  0  0  0  0
    1.3588    0.0362    0.0382 N   0  0  0  0  0  0  0  0  0  0  0  0
   -1.4833    2.3480   -0.1298 O   0  0  0  0  0  0  0  0  0  0  0  0
   -2.7173   -0.1834   -0.1903 O   0  0  0  0  0  0  0  0  0  0  0  0
    1.3322    2.3149   -0.0471 O   0  0  0  0  0  0  0  0  0  0  0  0
    1.3520   -2.2212    0.1248 O   0  0  0  0  0  0  0  0  0  0  0  0
   -1.6855    2.6553    0.7714 H   0  0  0  0  0  0  0  0  0  0  0  0
   -3.0566    0.7202   -0.3253 H   0  0  0  0  0  0  0  0  0  0  0  0
    0.6841    3.0256   -0.2036 H   0  0  0  0  0  0  0  0  0  0  0  0
    0.7037   -2.9470    0.1058 H   0  0  0  0  0  0  0  0  0  0  0  0
  1  7  1  6  0  0  0
  1  3  1  0  0  0  0
  2  1  1  0  0  0  0
  2  5  2  0  0  0  0
  3  6  2  0  0  0  0
  4 10  1  0  0  0  0
  5  4  2  0  0  0  0
  6  4  1  0  0  0  0
  7 11  1  0  0  0  0
  8  2  1  0  0  0  0
  9  3  1  0  0  0  0
 12  8  1  0  0  0  0
 13  9  1  0  0  0  0
 14 10  1  0  0  0  0
M  END
>  <HBA>
4

>  <HBD>
4

>  <TPSA>
106.18

>  <cid>
67956

>  <dipole>
4.64

>  <excitation_energy_1>
4.92

>  <excitation_energy_2>
5.407

>  <excitation_energy_3>
5.438

>  <excitation_energy_4>
5.694

>  <homo_energy>
-6.607

>  <homo_lumo_gap>
6.223

>  <logP>
-1.526

>  <lumo_energy>
-0.384

>  <melting_point>
249.7

>  <molecular_refractivity>
31.73

>  <oscillator_strength_1>
0.0011

>  <oscillator_strength_2>
0.061

>  <oscillator_strength_3>
0.0044

>  <oscillator_strength_4>
0.0005

>  <open_babel_can_smiles>
OC1=[N]=C([C@@H](C(=N1)O)O)O

>  <mulliken_charges>
14
1   0.131378
2   0.528314
3   0.525515
4   0.63726
5   -0.546003
6   -0.498455
7   -0.685308
8   -0.59783
9   -0.593789
10   -0.582016
11   0.420768
12   0.420563
13   0.418963
14   0.420639

>  <lowdin_charges>
14
1   -0.075979
2   0.143163
3   0.14343
4   0.171228
5   -0.227766
6   -0.187718
7   -0.42077
8   -0.336803
9   -0.335004
10   -0.332751
11   0.36321
12   0.363502
13   0.364355
14   0.367904

$$$$

