PCCDB-ID:  57571
public computational chemistry database (PCCDB) project, http://pccdb.org

 31 31  0  0  1  0  0  0  0  0999 V2000
   -1.7063   -1.6862   -0.4829 C   0  0  0  0  0  0  0  0  0  0  0  0
   -0.4766   -0.7922   -0.6858 C   0  0  0  0  0  0  0  0  0  0  0  0
    1.6027   -0.2515    4.7606 C   0  0  0  0  0  0  0  0  0  0  0  0
    1.5181    1.2864    4.6921 C   0  0  0  0  0  0  0  0  0  0  0  0
    2.7018    3.2629    5.5937 C   0  0  0  0  0  0  0  0  0  0  0  0
    3.7010    2.1645    5.4734 C   0  0  0  0  0  0  0  0  0  0  0  0
    0.8565   -1.5476    1.3738 C   0  0  0  0  0  0  0  0  0  0  0  0
    0.1968   -0.3862    0.6331 C   0  0  1  0  0  0  0  0  0  0  0  0
    0.7851   -0.8681    3.6521 C   0  0  0  0  0  0  0  0  0  0  0  0
    2.2995    1.8694    5.7777 N   0  0  0  0  0  0  0  0  0  0  0  0
    1.2775    0.6417    0.3344 N   0  0  0  0  0  0  0  0  0  0  0  0
   -0.4039   -1.0979    3.6922 O   0  0  0  0  0  0  0  0  0  0  0  0
    1.1695    1.7467    0.8585 O   0  0  0  0  0  0  0  0  0  0  0  0
    2.1860    0.2955   -0.4155 O   0  0  0  0  0  0  0  0  0  0  0  0
    1.5500   -1.0866    2.5437 O   0  0  0  0  0  0  0  0  0  0  0  0
   -2.1933   -1.8736   -1.4452 H   0  0  0  0  0  0  0  0  0  0  0  0
   -2.4408   -1.2126    0.1782 H   0  0  0  0  0  0  0  0  0  0  0  0
   -1.4454   -2.6585   -0.0524 H   0  0  0  0  0  0  0  0  0  0  0  0
   -0.7783    0.1250   -1.2061 H   0  0  0  0  0  0  0  0  0  0  0  0
    0.2633   -1.2873   -1.3241 H   0  0  0  0  0  0  0  0  0  0  0  0
    1.2023   -0.5892    5.7198 H   0  0  0  0  0  0  0  0  0  0  0  0
    2.6465   -0.5671    4.6740 H   0  0  0  0  0  0  0  0  0  0  0  0
    0.4741    1.5956    4.8184 H   0  0  0  0  0  0  0  0  0  0  0  0
    1.8476    1.6322    3.6959 H   0  0  0  0  0  0  0  0  0  0  0  0
    2.4026    3.7649    4.6729 H   0  0  0  0  0  0  0  0  0  0  0  0
    2.6638    3.8848    6.4854 H   0  0  0  0  0  0  0  0  0  0  0  0
    4.4093    1.9689    6.2755 H   0  0  0  0  0  0  0  0  0  0  0  0
    4.0684    1.9359    4.4720 H   0  0  0  0  0  0  0  0  0  0  0  0
    1.6188   -2.0135    0.7470 H   0  0  0  0  0  0  0  0  0  0  0  0
    0.0955   -2.2761    1.6600 H   0  0  0  0  0  0  0  0  0  0  0  0
   -0.5008    0.1318    1.2920 H   0  0  0  0  0  0  0  0  0  0  0  0
  1 18  1  0  0  0  0
  1 17  1  0  0  0  0
  2  1  1  0  0  0  0
  2  8  1  0  0  0  0
  3 21  1  0  0  0  0
  4  3  1  0  0  0  0
  4 23  1  0  0  0  0
  4 10  1  0  0  0  0
  5 10  1  0  0  0  0
  5 26  1  0  0  0  0
  6  5  1  0  0  0  0
  6 10  1  0  0  0  0
  6 27  1  0  0  0  0
  7 30  1  0  0  0  0
  7 15  1  0  0  0  0
  8 31  1  1  0  0  0
  8  7  1  0  0  0  0
  9 12  2  0  0  0  0
  9  3  1  0  0  0  0
 11  8  1  0  0  0  0
 11 13  2  0  0  0  0
 14 11  2  0  0  0  0
 15  9  1  0  0  0  0
 16  1  1  0  0  0  0
 19  2  1  0  0  0  0
 20  2  1  0  0  0  0
 22  3  1  0  0  0  0
 24  4  1  0  0  0  0
 25  5  1  0  0  0  0
 28  6  1  0  0  0  0
 29  7  1  0  0  0  0
M  END
>  <HBA>
3

>  <HBD>
0

>  <TPSA>
75.13

>  <cid>
57571

>  <dipole>
1.94

>  <excitation_energy_1>
3.81

>  <excitation_energy_2>
4.125

>  <excitation_energy_3>
4.403

>  <excitation_energy_4>
4.962

>  <homo_energy>
-6.463

>  <homo_lumo_gap>
4.553

>  <logP>
0.752

>  <lumo_energy>
-1.91

>  <melting_point>
25.93

>  <molecular_refractivity>
59.46

>  <oscillator_strength_1>
0.0049

>  <oscillator_strength_2>
0.0002

>  <oscillator_strength_3>
0.0004

>  <oscillator_strength_4>
0.0008

>  <open_babel_can_smiles>
CC[C@H](N(=O)=O)COC(=O)CCN1CC1

>  <mulliken_charges>
31
1   -0.457496
2   -0.276796
3   -0.332103
4   -0.143837
5   -0.194837
6   -0.199539
7   -0.056519
8   -0.033609
9   0.59929
10   -0.356635
11   0.461334
12   -0.473334
13   -0.3773
14   -0.375948
15   -0.45914
16   0.162363
17   0.164545
18   0.157183
19   0.165527
20   0.171195
21   0.183322
22   0.1689
23   0.163869
24   0.144743
25   0.153946
26   0.159753
27   0.159271
28   0.152364
29   0.184262
30   0.187501
31   0.197725

>  <lowdin_charges>
31
1   -0.44533
2   -0.277476
3   -0.295561
4   -0.193189
5   -0.241008
6   -0.246199
7   -0.143389
8   -0.094012
9   0.202229
10   -0.193704
11   0.295298
12   -0.263392
13   -0.241405
14   -0.244797
15   -0.195251
16   0.16219
17   0.159877
18   0.153105
19   0.160862
20   0.162418
21   0.176272
22   0.165972
23   0.154034
24   0.133819
25   0.152956
26   0.160705
27   0.16064
28   0.150433
29   0.172334
30   0.172353
31   0.179216

$$$$

