PCCDB-ID:  12881
public computational chemistry database (PCCDB) project, http://pccdb.org

 35 37  0  0  1  0  0  0  0  0999 V2000
    0.6779    0.4149    0.0905 C   0  0  0  0  0  0  0  0  0  0  0  0
    3.4557    4.4968    0.2202 C   0  0  0  0  0  0  0  0  0  0  0  0
    3.8324    3.6113   -0.9761 C   0  0  0  0  0  0  0  0  0  0  0  0
    3.5574    3.7170    1.5390 C   0  0  0  0  0  0  0  0  0  0  0  0
    2.9754    2.3361   -1.0222 C   0  0  0  0  0  0  0  0  0  0  0  0
    2.6963    2.4448    1.5061 C   0  0  0  0  0  0  0  0  0  0  0  0
    5.1783   -1.5359    0.6914 C   0  0  0  0  0  0  0  0  0  0  0  0
    5.0539   -3.2386   -1.2658 C   0  0  0  0  0  0  0  0  0  0  0  0
    5.6826   -2.0708   -0.6353 C   0  0  2  0  0  0  0  0  0  0  0  0
    4.3832    0.8375    0.4803 C   0  0  0  0  0  0  0  0  0  0  0  0
    2.7778   -0.8277    0.3815 C   0  0  0  0  0  0  0  0  0  0  0  0
    3.0171    1.5270    0.2989 C   0  0  0  0  0  0  0  0  0  0  0  0
    2.1178    0.3622    0.2473 N   0  0  0  0  0  0  0  0  0  0  0  0
    4.1496   -0.5181    0.5240 N   0  0  0  0  0  0  0  0  0  0  0  0
    5.4764    1.3700    0.5732 O   0  0  0  0  0  0  0  0  0  0  0  0
    2.3144   -1.9558    0.3878 O   0  0  0  0  0  0  0  0  0  0  0  0
    6.3071   -3.3555   -0.5715 O   0  0  0  0  0  0  0  0  0  0  0  0
    0.3169   -0.6148    0.0801 H   0  0  0  0  0  0  0  0  0  0  0  0
    0.3940    0.9004   -0.8503 H   0  0  0  0  0  0  0  0  0  0  0  0
    0.2008    0.9487    0.9207 H   0  0  0  0  0  0  0  0  0  0  0  0
    2.4275    4.8687    0.0919 H   0  0  0  0  0  0  0  0  0  0  0  0
    4.1050    5.3801    0.2539 H   0  0  0  0  0  0  0  0  0  0  0  0
    4.8902    3.3360   -0.9067 H   0  0  0  0  0  0  0  0  0  0  0  0
    3.7013    4.1617   -1.9160 H   0  0  0  0  0  0  0  0  0  0  0  0
    3.2355    4.3432    2.3803 H   0  0  0  0  0  0  0  0  0  0  0  0
    4.6023    3.4435    1.7204 H   0  0  0  0  0  0  0  0  0  0  0  0
    3.2784    1.6878   -1.8537 H   0  0  0  0  0  0  0  0  0  0  0  0
    1.9281    2.6150   -1.2042 H   0  0  0  0  0  0  0  0  0  0  0  0
    1.6377    2.7302    1.4297 H   0  0  0  0  0  0  0  0  0  0  0  0
    2.8035    1.8726    2.4357 H   0  0  0  0  0  0  0  0  0  0  0  0
    5.9977   -1.0763    1.2511 H   0  0  0  0  0  0  0  0  0  0  0  0
    4.7553   -2.3559    1.2764 H   0  0  0  0  0  0  0  0  0  0  0  0
    5.1117   -3.3632   -2.3472 H   0  0  0  0  0  0  0  0  0  0  0  0
    4.1975   -3.7034   -0.7801 H   0  0  0  0  0  0  0  0  0  0  0  0
    6.1967   -1.3427   -1.2659 H   0  0  0  0  0  0  0  0  0  0  0  0
  1 13  1  0  0  0  0
  1 20  1  0  0  0  0
  2 22  1  0  0  0  0
  2  4  1  0  0  0  0
  3 23  1  0  0  0  0
  3  2  1  0  0  0  0
  4 26  1  0  0  0  0
  4 25  1  0  0  0  0
  5  3  1  0  0  0  0
  5 12  1  0  0  0  0
  6  4  1  0  0  0  0
  6 30  1  0  0  0  0
  7 31  1  0  0  0  0
  7 32  1  0  0  0  0
  8 34  1  0  0  0  0
  8  9  1  0  0  0  0
  8 17  1  0  0  0  0
  9 35  1  6  0  0  0
  9 17  1  0  0  0  0
  9  7  1  0  0  0  0
 10 14  1  0  0  0  0
 10 15  2  0  0  0  0
 11 16  2  0  0  0  0
 11 14  1  0  0  0  0
 12 10  1  0  0  0  0
 12  6  1  0  0  0  0
 13 12  1  0  0  0  0
 13 11  1  0  0  0  0
 14  7  1  0  0  0  0
 18  1  1  0  0  0  0
 19  1  1  0  0  0  0
 21  2  1  0  0  0  0
 24  3  1  0  0  0  0
 27  5  1  0  0  0  0
 28  5  1  0  0  0  0
 29  6  1  0  0  0  0
 33  8  1  0  0  0  0
M  END
>  <HBA>
5

>  <HBD>
0

>  <TPSA>
53.15

>  <cid>
12881

>  <dipole>
4.51

>  <excitation_energy_1>
5.228

>  <excitation_energy_2>
5.614

>  <excitation_energy_3>
5.95

>  <excitation_energy_4>
6.183

>  <homo_energy>
-6.757

>  <homo_lumo_gap>
6.504

>  <logP>
0.858

>  <lumo_energy>
-0.253

>  <melting_point>
97.65

>  <molecular_refractivity>
68.99

>  <oscillator_strength_1>
0.0014

>  <oscillator_strength_2>
0.0301

>  <oscillator_strength_3>
0.0028

>  <oscillator_strength_4>
0.0029

>  <open_babel_can_smiles>
O=C1N(C[C@@H]2CO2)C(=O)C2(N1C)CCCCC2

>  <mulliken_charges>
35
1   -0.328941
2   -0.262615
3   -0.268582
4   -0.269049
5   -0.267031
6   -0.266514
7   -0.181398
8   -0.110852
9   0.102151
10   0.598132
11   0.793424
12   0.122639
13   -0.494836
14   -0.516061
15   -0.509272
16   -0.533602
17   -0.444219
18   0.20361
19   0.16212
20   0.162876
21   0.124279
22   0.139626
23   0.171777
24   0.134374
25   0.134697
26   0.172369
27   0.145184
28   0.139435
29   0.139431
30   0.147158
31   0.188198
32   0.186439
33   0.150751
34   0.178811
35   0.155493

>  <lowdin_charges>
35
1   -0.351713
2   -0.275852
3   -0.280951
4   -0.282094
5   -0.274533
6   -0.273526
7   -0.199306
8   -0.161943
9   -0.033732
10   0.160463
11   0.179198
12   0.044101
13   -0.107171
14   -0.081321
15   -0.27956
16   -0.311856
17   -0.28269
18   0.185318
19   0.153135
20   0.15418
21   0.133464
22   0.14963
23   0.158542
24   0.146961
25   0.14793
26   0.159107
27   0.152361
28   0.144411
29   0.144248
30   0.152674
31   0.177069
32   0.178111
33   0.152493
34   0.167167
35   0.155687

$$$$

