PCCDB-ID:  29637
public computational chemistry database (PCCDB) project, http://pccdb.org

 30 31  0  0  1  0  0  0  0  0999 V2000
    1.3113    0.8426    0.7472 C   0  0  0  0  0  0  0  0  0  0  0  0
    2.8298    0.9355    0.8913 C   0  0  0  0  0  0  0  0  0  0  0  0
    5.8851    3.3631   -4.1873 C   0  0  0  0  0  0  0  0  0  0  0  0
    5.2276    2.1325   -4.0922 C   0  0  0  0  0  0  0  0  0  0  0  0
    5.5687    3.8869    0.7353 C   0  0  0  0  0  0  0  0  0  0  0  0
    6.2214    4.0540   -3.0281 C   0  0  0  0  0  0  0  0  0  0  0  0
    6.3311    4.3211   -0.5203 C   0  0  0  0  0  0  0  0  0  0  0  0
    4.9201    1.6163   -2.8382 C   0  0  0  0  0  0  0  0  0  0  0  0
    5.6078    2.3613    0.8587 C   0  0  0  0  0  0  0  0  0  0  0  0
    5.9228    3.5390   -1.7562 C   0  0  0  0  0  0  0  0  0  0  0  0
    5.2681    2.2988   -1.6625 C   0  0  0  0  0  0  0  0  0  0  0  0
    4.8793    1.6784   -0.3216 C   0  0  2  0  0  0  0  0  0  0  0  0
    3.4091    1.6529   -0.2414 N   0  0  0  0  0  0  0  0  0  0  0  0
    0.8753    0.2672    1.5717 H   0  0  0  0  0  0  0  0  0  0  0  0
    1.0441    0.3626   -0.1995 H   0  0  0  0  0  0  0  0  0  0  0  0
    0.8522    1.8395    0.7608 H   0  0  0  0  0  0  0  0  0  0  0  0
    3.2628   -0.0742    0.8936 H   0  0  0  0  0  0  0  0  0  0  0  0
    3.0737    1.3766    1.8758 H   0  0  0  0  0  0  0  0  0  0  0  0
    6.1269    3.7827   -5.1606 H   0  0  0  0  0  0  0  0  0  0  0  0
    4.9556    1.5842   -4.9904 H   0  0  0  0  0  0  0  0  0  0  0  0
    4.5251    4.2284    0.6755 H   0  0  0  0  0  0  0  0  0  0  0  0
    6.0010    4.3624    1.6237 H   0  0  0  0  0  0  0  0  0  0  0  0
    6.7236    5.0170   -3.1006 H   0  0  0  0  0  0  0  0  0  0  0  0
    7.4085    4.1760   -0.3446 H   0  0  0  0  0  0  0  0  0  0  0  0
    6.1992    5.3949   -0.7044 H   0  0  0  0  0  0  0  0  0  0  0  0
    4.3879    0.6727   -2.7506 H   0  0  0  0  0  0  0  0  0  0  0  0
    5.1690    2.0301    1.8067 H   0  0  0  0  0  0  0  0  0  0  0  0
    6.6565    2.0307    0.8701 H   0  0  0  0  0  0  0  0  0  0  0  0
    5.1843    0.6218   -0.3354 H   0  0  0  0  0  0  0  0  0  0  0  0
    3.0419    2.6025   -0.2864 H   0  0  0  0  0  0  0  0  0  0  0  0
  1 16  1  0  0  0  0
  1  2  1  0  0  0  0
  1 14  1  0  0  0  0
  2 17  1  0  0  0  0
  2 18  1  0  0  0  0
  3  4  2  0  0  0  0
  3  6  1  0  0  0  0
  4  8  1  0  0  0  0
  5  9  1  0  0  0  0
  5 22  1  0  0  0  0
  6 10  2  0  0  0  0
  7 24  1  0  0  0  0
  7  5  1  0  0  0  0
  8 26  1  0  0  0  0
  8 11  2  0  0  0  0
  9 28  1  0  0  0  0
  9 27  1  0  0  0  0
 10 11  1  0  0  0  0
 10  7  1  0  0  0  0
 11 12  1  0  0  0  0
 12 29  1  6  0  0  0
 12 13  1  0  0  0  0
 12  9  1  0  0  0  0
 13  2  1  0  0  0  0
 15  1  1  0  0  0  0
 19  3  1  0  0  0  0
 20  4  1  0  0  0  0
 21  5  1  0  0  0  0
 23  6  1  0  0  0  0
 25  7  1  0  0  0  0
 30 13  1  0  0  0  0
M  END
>  <HBA>
1

>  <HBD>
1

>  <TPSA>
12.03

>  <cid>
29637

>  <dipole>
1.19

>  <excitation_energy_1>
4.921

>  <excitation_energy_2>
5.063

>  <excitation_energy_3>
5.261

>  <excitation_energy_4>
5.351

>  <homo_energy>
-5.736

>  <homo_lumo_gap>
5.87

>  <logP>
3.064

>  <lumo_energy>
0.133

>  <melting_point>
59.09

>  <molecular_refractivity>
56.29

>  <oscillator_strength_1>
0.003

>  <oscillator_strength_2>
0.013

>  <oscillator_strength_3>
0.0134

>  <oscillator_strength_4>
0.0214

>  <open_babel_can_smiles>
CCN[C@@H]1CCCc2c1cccc2

>  <mulliken_charges>
30
1   -0.444991
2   -0.109061
3   -0.125833
4   -0.135114
5   -0.270881
6   -0.192128
7   -0.339374
8   -0.159475
9   -0.280617
10   0.119248
11   0.091262
12   -0.036119
13   -0.549024
14   0.14108
15   0.158158
16   0.138594
17   0.136421
18   0.115043
19   0.123732
20   0.123941
21   0.127659
22   0.134309
23   0.11683
24   0.150382
25   0.143126
26   0.130459
27   0.136758
28   0.13298
29   0.131881
30   0.290755

>  <lowdin_charges>
30
1   -0.447802
2   -0.198055
3   -0.157621
4   -0.165563
5   -0.277516
6   -0.167661
7   -0.272484
8   -0.147243
9   -0.293817
10   -0.016185
11   -0.024207
12   -0.061814
13   -0.359967
14   0.15172
15   0.155871
16   0.144902
17   0.139329
18   0.115771
19   0.154896
20   0.155797
21   0.134479
22   0.147057
23   0.151169
24   0.149402
25   0.149048
26   0.159822
27   0.146334
28   0.142224
29   0.142687
30   0.249424

$$$$

