PCCDB-ID:  9133
public computational chemistry database (PCCDB) project, http://pccdb.org

 25 28  0  0  0  0  0  0  0  0999 V2000
    3.5142    0.0276    0.0003 C   0  0  0  0  0  0  0  0  0  0  0  0
   -3.4932    0.0462   -0.0009 C   0  0  0  0  0  0  0  0  0  0  0  0
    2.8420   -1.1966    0.0022 C   0  0  0  0  0  0  0  0  0  0  0  0
   -2.8299   -1.1819   -0.0011 C   0  0  0  0  0  0  0  0  0  0  0  0
    2.8092    1.2318    0.0018 C   0  0  0  0  0  0  0  0  0  0  0  0
   -2.7835    1.2478   -0.0018 C   0  0  0  0  0  0  0  0  0  0  0  0
    0.6840   -2.4753   -0.0006 C   0  0  0  0  0  0  0  0  0  0  0  0
   -0.6800   -2.4665    0.0013 C   0  0  0  0  0  0  0  0  0  0  0  0
    0.6014    2.4184   -0.0003 C   0  0  0  0  0  0  0  0  0  0  0  0
    1.4385   -1.2505    0.0009 C   0  0  0  0  0  0  0  0  0  0  0  0
   -1.4267   -1.2362    0.0001 C   0  0  0  0  0  0  0  0  0  0  0  0
    1.4071    1.2224    0.0016 C   0  0  0  0  0  0  0  0  0  0  0  0
   -1.3809    1.2403   -0.0032 C   0  0  0  0  0  0  0  0  0  0  0  0
    0.7192   -0.0203    0.0003 C   0  0  0  0  0  0  0  0  0  0  0  0
   -0.6998   -0.0103   -0.0013 C   0  0  0  0  0  0  0  0  0  0  0  0
   -0.7003    2.4476   -0.0042 N   0  0  0  0  0  0  0  0  0  0  0  0
    4.6006    0.0408   -0.0050 H   0  0  0  0  0  0  0  0  0  0  0  0
   -4.5797    0.0666    0.0004 H   0  0  0  0  0  0  0  0  0  0  0  0
    3.4094   -2.1244    0.0059 H   0  0  0  0  0  0  0  0  0  0  0  0
   -3.3993   -2.1083   -0.0030 H   0  0  0  0  0  0  0  0  0  0  0  0
    3.3410    2.1801    0.0041 H   0  0  0  0  0  0  0  0  0  0  0  0
   -3.2924    2.2064   -0.0007 H   0  0  0  0  0  0  0  0  0  0  0  0
    1.2285   -3.4165   -0.0050 H   0  0  0  0  0  0  0  0  0  0  0  0
   -1.2340   -3.4024    0.0039 H   0  0  0  0  0  0  0  0  0  0  0  0
    1.1148    3.3822    0.0010 H   0  0  0  0  0  0  0  0  0  0  0  0
  1  5  2  0  0  0  0
  1  3  1  0  0  0  0
  2 18  1  0  0  0  0
  3 19  1  0  0  0  0
  4  2  1  0  0  0  0
  4 11  2  0  0  0  0
  5 21  1  0  0  0  0
  6  2  2  0  0  0  0
  6 22  1  0  0  0  0
  7 10  1  0  0  0  0
  7  8  2  0  0  0  0
  8 24  1  0  0  0  0
  9 25  1  0  0  0  0
  9 12  2  0  0  0  0
 10  3  2  0  0  0  0
 11  8  1  0  0  0  0
 12  5  1  0  0  0  0
 13  6  1  0  0  0  0
 13 15  1  0  0  0  0
 14 10  1  0  0  0  0
 14 12  1  0  0  0  0
 15 11  1  0  0  0  0
 15 14  2  0  0  0  0
 16 13  2  0  0  0  0
 16  9  1  0  0  0  0
 17  1  1  0  0  0  0
 20  4  1  0  0  0  0
 23  7  1  0  0  0  0
M  END
>  <HBA>
1

>  <HBD>
0

>  <TPSA>
12.89

>  <cid>
9133

>  <dipole>
2.25

>  <excitation_energy_1>
3.626

>  <excitation_energy_2>
3.757

>  <excitation_energy_3>
4.058

>  <excitation_energy_4>
4.324

>  <homo_energy>
-5.644

>  <homo_lumo_gap>
3.85

>  <logP>
3.979

>  <lumo_energy>
-1.793

>  <melting_point>
153.06

>  <molecular_refractivity>
67.94

>  <oscillator_strength_1>
0.242

>  <oscillator_strength_2>
0.0052

>  <oscillator_strength_3>
0.0007

>  <oscillator_strength_4>
0.025

>  <open_babel_can_smiles>
c1cc2ccc3c4c2c(c1)cnc4ccc3

>  <mulliken_charges>
25
1   -0.120122
2   -0.131244
3   -0.224198
4   -0.220138
5   -0.224498
6   -0.155295
7   -0.198349
8   -0.190378
9   -0.001601
10   0.182658
11   0.15269
12   0.124287
13   0.235566
14   0.019835
15   0.025984
16   -0.502315
17   0.13591
18   0.134168
19   0.135557
20   0.132053
21   0.138256
22   0.143349
23   0.133215
24   0.133888
25   0.140721

>  <lowdin_charges>
25
1   -0.152535
2   -0.1504
3   -0.151269
4   -0.159621
5   -0.151556
6   -0.152522
7   -0.158491
8   -0.151897
9   -0.080113
10   -0.000257
11   -0.000858
12   -0.024695
13   0.036065
14   0.008317
15   -0.014079
16   -0.145684
17   0.159872
18   0.159204
19   0.161014
20   0.159422
21   0.162462
22   0.170019
23   0.160773
24   0.161195
25   0.155631

$$$$

