PCCDB-ID:  6989
public computational chemistry database (PCCDB) project, http://pccdb.org

 25 25  0  0  0  0  0  0  0  0999 V2000
    4.0152    0.6279    0.4934 C   0  0  0  0  0  0  0  0  0  0  0  0
    1.8451    1.0290   -0.7774 C   0  0  0  0  0  0  0  0  0  0  0  0
    3.5879   -4.9371   -3.1298 C   0  0  0  0  0  0  0  0  0  0  0  0
    2.6850   -3.6880   -1.1138 C   0  0  0  0  0  0  0  0  0  0  0  0
    2.4841   -2.5025   -0.4044 C   0  0  0  0  0  0  0  0  0  0  0  0
    3.8689   -2.4471   -2.7857 C   0  0  0  0  0  0  0  0  0  0  0  0
    2.7104   -0.0048   -0.0293 C   0  0  0  0  0  0  0  0  0  0  0  0
    3.3829   -3.6756   -2.3238 C   0  0  0  0  0  0  0  0  0  0  0  0
    2.9580   -1.2646   -0.8496 C   0  0  0  0  0  0  0  0  0  0  0  0
    3.6641   -1.2662   -2.0692 C   0  0  0  0  0  0  0  0  0  0  0  0
    4.1518   -0.0681   -2.5363 O   0  0  0  0  0  0  0  0  0  0  0  0
    3.7887    1.4764    1.1508 H   0  0  0  0  0  0  0  0  0  0  0  0
    4.6360    0.9912   -0.3304 H   0  0  0  0  0  0  0  0  0  0  0  0
    4.6010   -0.0984    1.0681 H   0  0  0  0  0  0  0  0  0  0  0  0
    1.6228    1.8816   -0.1241 H   0  0  0  0  0  0  0  0  0  0  0  0
    0.8931    0.5883   -1.0945 H   0  0  0  0  0  0  0  0  0  0  0  0
    2.3598    1.4047   -1.6661 H   0  0  0  0  0  0  0  0  0  0  0  0
    3.5219   -5.8283   -2.4973 H   0  0  0  0  0  0  0  0  0  0  0  0
    4.5659   -4.9459   -3.6242 H   0  0  0  0  0  0  0  0  0  0  0  0
    2.8271   -5.0371   -3.9157 H   0  0  0  0  0  0  0  0  0  0  0  0
    2.2979   -4.6249   -0.7213 H   0  0  0  0  0  0  0  0  0  0  0  0
    1.9388   -2.5365    0.5365 H   0  0  0  0  0  0  0  0  0  0  0  0
    4.4235   -2.4063   -3.7238 H   0  0  0  0  0  0  0  0  0  0  0  0
    2.1356   -0.3271    0.8501 H   0  0  0  0  0  0  0  0  0  0  0  0
    4.6093   -0.2280   -3.3763 H   0  0  0  0  0  0  0  0  0  0  0  0
  1 14  1  0  0  0  0
  1 12  1  0  0  0  0
  2 15  1  0  0  0  0
  2  7  1  0  0  0  0
  3 18  1  0  0  0  0
  3  8  1  0  0  0  0
  4 21  1  0  0  0  0
  4  5  2  0  0  0  0
  5 22  1  0  0  0  0
  6  8  2  0  0  0  0
  6 10  1  0  0  0  0
  7  1  1  0  0  0  0
  7 24  1  0  0  0  0
  8  4  1  0  0  0  0
  9  5  1  0  0  0  0
  9  7  1  0  0  0  0
 10  9  2  0  0  0  0
 11 10  1  0  0  0  0
 13  1  1  0  0  0  0
 16  2  1  0  0  0  0
 17  2  1  0  0  0  0
 19  3  1  0  0  0  0
 20  3  1  0  0  0  0
 23  6  1  0  0  0  0
 25 11  1  0  0  0  0
M  END
>  <HBA>
1

>  <HBD>
1

>  <TPSA>
20.23

>  <cid>
6989

>  <dipole>
1.59

>  <excitation_energy_1>
4.945

>  <excitation_energy_2>
5.058

>  <excitation_energy_3>
5.622

>  <excitation_energy_4>
5.647

>  <homo_energy>
-5.755

>  <homo_lumo_gap>
5.916

>  <logP>
2.824

>  <lumo_energy>
0.161

>  <melting_point>
51.64

>  <molecular_refractivity>
48.01

>  <oscillator_strength_1>
0.051

>  <oscillator_strength_2>
0.0

>  <oscillator_strength_3>
0.0212

>  <oscillator_strength_4>
0.0025

>  <open_babel_can_smiles>
Cc1ccc(c(c1)O)C(C)C

>  <mulliken_charges>
25
1   -0.446361
2   -0.44755
3   -0.530627
4   -0.180737
5   -0.208378
6   -0.24585
7   -0.143347
8   0.175965
9   0.151164
10   0.295084
11   -0.648185
12   0.134046
13   0.165474
14   0.140089
15   0.134052
16   0.140004
17   0.166209
18   0.157209
19   0.154305
20   0.164439
21   0.115725
22   0.122476
23   0.104575
24   0.12386
25   0.406356

>  <lowdin_charges>
25
1   -0.449644
2   -0.448241
3   -0.441614
4   -0.191253
5   -0.155541
6   -0.222584
7   -0.112852
8   0.006968
9   -0.034045
10   0.097723
11   -0.382354
12   0.145557
13   0.158692
14   0.149356
15   0.1456
16   0.147895
17   0.158585
18   0.158576
19   0.156111
20   0.161609
21   0.153354
22   0.154061
23   0.146794
24   0.141209
25   0.356037

$$$$

