PCCDB-ID:  56631
public computational chemistry database (PCCDB) project, http://pccdb.org

 36 37  0  0  0  0  0  0  0  0999 V2000
    6.4600   -1.6021    0.2625 C   0  0  0  0  0  0  0  0  0  0  0  0
   -1.0211   -0.8403    0.5338 C   0  0  0  0  0  0  0  0  0  0  0  0
    6.4750   -0.0668    0.3793 C   0  0  0  0  0  0  0  0  0  0  0  0
    3.2061    1.9325    5.0702 C   0  0  0  0  0  0  0  0  0  0  0  0
    4.1781    1.1615    5.7325 C   0  0  0  0  0  0  0  0  0  0  0  0
    3.1989    2.0504    3.6818 C   0  0  0  0  0  0  0  0  0  0  0  0
    5.1729    0.4878    5.0226 C   0  0  0  0  0  0  0  0  0  0  0  0
    2.4540   -0.0568   -0.3500 C   0  0  0  0  0  0  0  0  0  0  0  0
    1.0299   -0.5314   -0.5915 C   0  0  0  0  0  0  0  0  0  0  0  0
    3.7729    1.8881    0.3944 C   0  0  0  0  0  0  0  0  0  0  0  0
    4.1886    1.3805    2.9470 C   0  0  0  0  0  0  0  0  0  0  0  0
    4.5254    1.2552    1.5409 C   0  0  0  0  0  0  0  0  0  0  0  0
    5.6277    0.4519    1.4936 C   0  0  0  0  0  0  0  0  0  0  0  0
    5.1457    0.6203    3.6407 C   0  0  0  0  0  0  0  0  0  0  0  0
    2.4474    1.3335    0.0919 N   0  0  0  0  0  0  0  0  0  0  0  0
    0.3421   -0.4963    0.6489 O   0  0  0  0  0  0  0  0  0  0  0  0
    6.0260    0.0542    2.7590 O   0  0  0  0  0  0  0  0  0  0  0  0
    7.1137   -1.9314   -0.5526 H   0  0  0  0  0  0  0  0  0  0  0  0
    5.4482   -1.9702    0.0610 H   0  0  0  0  0  0  0  0  0  0  0  0
    6.8097   -2.0652    1.1901 H   0  0  0  0  0  0  0  0  0  0  0  0
   -1.4573   -0.7755    1.5343 H   0  0  0  0  0  0  0  0  0  0  0  0
   -1.1514   -1.8668    0.1541 H   0  0  0  0  0  0  0  0  0  0  0  0
   -1.5604   -0.1528   -0.1378 H   0  0  0  0  0  0  0  0  0  0  0  0
    6.1327    0.3846   -0.5578 H   0  0  0  0  0  0  0  0  0  0  0  0
    7.5096    0.2714    0.5317 H   0  0  0  0  0  0  0  0  0  0  0  0
    2.4468    2.4452    5.6542 H   0  0  0  0  0  0  0  0  0  0  0  0
    4.1560    1.0892    6.8162 H   0  0  0  0  0  0  0  0  0  0  0  0
    2.4422    2.6521    3.1849 H   0  0  0  0  0  0  0  0  0  0  0  0
    5.9317   -0.1097    5.5175 H   0  0  0  0  0  0  0  0  0  0  0  0
    3.0090   -0.1210   -1.2963 H   0  0  0  0  0  0  0  0  0  0  0  0
    2.9409   -0.7466    0.3622 H   0  0  0  0  0  0  0  0  0  0  0  0
    1.0330   -1.5565   -1.0002 H   0  0  0  0  0  0  0  0  0  0  0  0
    0.5342    0.1286   -1.3217 H   0  0  0  0  0  0  0  0  0  0  0  0
    4.3723    1.8312   -0.5225 H   0  0  0  0  0  0  0  0  0  0  0  0
    3.6340    2.9567    0.6042 H   0  0  0  0  0  0  0  0  0  0  0  0
    1.8507    1.3928    0.9155 H   0  0  0  0  0  0  0  0  0  0  0  0
  1  3  1  0  0  0  0
  1 20  1  0  0  0  0
  2 16  1  0  0  0  0
  2 21  1  0  0  0  0
  3 25  1  0  0  0  0
  3 13  1  0  0  0  0
  4 26  1  0  0  0  0
  4  5  1  0  0  0  0
  5 27  1  0  0  0  0
  6  4  2  0  0  0  0
  7 29  1  0  0  0  0
  7  5  2  0  0  0  0
  8 15  1  0  0  0  0
  8 31  1  0  0  0  0
  9  8  1  0  0  0  0
  9 16  1  0  0  0  0
 10 35  1  0  0  0  0
 10 12  1  0  0  0  0
 11 14  2  0  0  0  0
 11  6  1  0  0  0  0
 12 11  1  0  0  0  0
 13 12  2  0  0  0  0
 13 17  1  0  0  0  0
 14  7  1  0  0  0  0
 15 10  1  0  0  0  0
 15 36  1  0  0  0  0
 17 14  1  0  0  0  0
 18  1  1  0  0  0  0
 19  1  1  0  0  0  0
 22  2  1  0  0  0  0
 23  2  1  0  0  0  0
 24  3  1  0  0  0  0
 28  6  1  0  0  0  0
 30  8  1  0  0  0  0
 32  9  1  0  0  0  0
 33  9  1  0  0  0  0
 34 10  1  0  0  0  0
M  END
>  <HBA>
3

>  <HBD>
1

>  <TPSA>
34.4

>  <cid>
56631

>  <dipole>
1.41

>  <excitation_energy_1>
4.794

>  <excitation_energy_2>
4.852

>  <excitation_energy_3>
5.032

>  <excitation_energy_4>
5.276

>  <homo_energy>
-5.652

>  <homo_lumo_gap>
5.344

>  <logP>
3.122

>  <lumo_energy>
-0.307

>  <melting_point>
72.13

>  <molecular_refractivity>
69.26

>  <oscillator_strength_1>
0.1169

>  <oscillator_strength_2>
0.0472

>  <oscillator_strength_3>
0.0833

>  <oscillator_strength_4>
0.0141

>  <open_babel_can_smiles>
COCCNCc1c(CC)oc2c1cccc2

>  <mulliken_charges>
36
1   -0.446681
2   -0.189841
3   -0.346745
4   -0.137434
5   -0.145568
6   -0.213467
7   -0.189369
8   -0.13456
9   -0.01781
10   -0.231554
11   0.091381
12   0.049286
13   0.290907
14   0.315497
15   -0.546384
16   -0.466342
17   -0.525904
18   0.146483
19   0.15381
20   0.166574
21   0.158466
22   0.129668
23   0.132059
24   0.1533
25   0.161399
26   0.125217
27   0.127971
28   0.127543
29   0.139717
30   0.130841
31   0.13547
32   0.117283
33   0.129661
34   0.14399
35   0.151415
36   0.313722

>  <lowdin_charges>
36
1   -0.442308
2   -0.2779
3   -0.274353
4   -0.168726
5   -0.158869
6   -0.16871
7   -0.177989
8   -0.212052
9   -0.133647
10   -0.198447
11   -0.034394
12   -0.085435
13   0.080048
14   0.084047
15   -0.360749
16   -0.276605
17   -0.127764
18   0.152685
19   0.151587
20   0.15944
21   0.154815
22   0.130471
23   0.134301
24   0.157731
25   0.159193
26   0.158049
27   0.156189
28   0.157605
29   0.168278
30   0.14221
31   0.131074
32   0.127178
33   0.133901
34   0.148063
35   0.151559
36   0.259523

$$$$

