PCCDB-ID:  23197
public computational chemistry database (PCCDB) project, http://pccdb.org

 32 32  0  0  1  0  0  0  0  0999 V2000
    0.6720    2.0021    0.6227 C   0  0  0  0  0  0  0  0  0  0  0  0
    4.8658    0.0768   -1.2304 C   0  0  0  0  0  0  0  0  0  0  0  0
    6.7812    2.2538    3.3460 C   0  0  0  0  0  0  0  0  0  0  0  0
    2.1965    2.1163    0.5140 C   0  0  0  0  0  0  0  0  0  0  0  0
    5.1136    1.2040   -0.2214 C   0  0  0  0  0  0  0  0  0  0  0  0
    2.9199    0.8947    1.0949 C   0  0  0  0  0  0  0  0  0  0  0  0
    5.0655   -0.1622    1.9562 C   0  0  0  0  0  0  0  0  0  0  0  0
    5.3082    1.8611    3.2364 C   0  0  2  0  0  0  0  0  0  0  0  0
    5.0476    0.3412    3.4075 C   0  0  2  0  0  0  0  0  0  0  0  0
    4.4609    1.0094    1.1593 C   0  0  1  0  0  0  0  0  0  0  0  0
    5.9213   -0.3325    4.2971 O   0  0  0  0  0  0  0  0  0  0  0  0
    4.8020    2.1921    1.9375 O   0  0  0  0  0  0  0  0  0  0  0  0
    0.1758    2.8803    0.1939 H   0  0  0  0  0  0  0  0  0  0  0  0
    0.3534    1.9182    1.6691 H   0  0  0  0  0  0  0  0  0  0  0  0
    0.2980    1.1172    0.0924 H   0  0  0  0  0  0  0  0  0  0  0  0
    5.4238    0.2617   -2.1550 H   0  0  0  0  0  0  0  0  0  0  0  0
    3.8070   -0.0081   -1.4987 H   0  0  0  0  0  0  0  0  0  0  0  0
    5.1891   -0.8960   -0.8404 H   0  0  0  0  0  0  0  0  0  0  0  0
    7.1548    2.0848    4.3621 H   0  0  0  0  0  0  0  0  0  0  0  0
    6.8965    3.3155    3.1077 H   0  0  0  0  0  0  0  0  0  0  0  0
    7.4049    1.6907    2.6396 H   0  0  0  0  0  0  0  0  0  0  0  0
    2.5430    3.0126    1.0412 H   0  0  0  0  0  0  0  0  0  0  0  0
    2.4711    2.2497   -0.5407 H   0  0  0  0  0  0  0  0  0  0  0  0
    4.7685    2.1578   -0.6370 H   0  0  0  0  0  0  0  0  0  0  0  0
    6.1921    1.3211   -0.0560 H   0  0  0  0  0  0  0  0  0  0  0  0
    2.6517   -0.0035    0.5214 H   0  0  0  0  0  0  0  0  0  0  0  0
    2.5497    0.7217    2.1152 H   0  0  0  0  0  0  0  0  0  0  0  0
    4.5176   -1.1007    1.8334 H   0  0  0  0  0  0  0  0  0  0  0  0
    6.1053   -0.3408    1.6471 H   0  0  0  0  0  0  0  0  0  0  0  0
    4.7362    2.4363    3.9762 H   0  0  0  0  0  0  0  0  0  0  0  0
    4.0540    0.1932    3.8408 H   0  0  0  0  0  0  0  0  0  0  0  0
    6.8153   -0.2883    3.9225 H   0  0  0  0  0  0  0  0  0  0  0  0
  1 14  1  0  0  0  0
  2 18  1  0  0  0  0
  2  5  1  0  0  0  0
  3 19  1  0  0  0  0
  4  1  1  0  0  0  0
  4 22  1  0  0  0  0
  4  6  1  0  0  0  0
  5 25  1  0  0  0  0
  6 10  1  0  0  0  0
  6 27  1  0  0  0  0
  7  9  1  0  0  0  0
  8  3  1  0  0  0  0
  8  9  1  0  0  0  0
  8 30  1  1  0  0  0
  9 31  1  1  0  0  0
  9 11  1  0  0  0  0
 10  5  1  6  0  0  0
 10 12  1  0  0  0  0
 10  7  1  0  0  0  0
 12  8  1  0  0  0  0
 13  1  1  0  0  0  0
 15  1  1  0  0  0  0
 16  2  1  0  0  0  0
 17  2  1  0  0  0  0
 20  3  1  0  0  0  0
 21  3  1  0  0  0  0
 23  4  1  0  0  0  0
 24  5  1  0  0  0  0
 26  6  1  0  0  0  0
 28  7  1  0  0  0  0
 29  7  1  0  0  0  0
 32 11  1  0  0  0  0
M  END
>  <HBA>
2

>  <HBD>
1

>  <TPSA>
29.46

>  <cid>
23197

>  <dipole>
1.28

>  <excitation_energy_1>
6.057

>  <excitation_energy_2>
6.331

>  <excitation_energy_3>
6.382

>  <excitation_energy_4>
6.506

>  <homo_energy>
-6.58

>  <homo_lumo_gap>
8.368

>  <logP>
2.105

>  <lumo_energy>
1.788

>  <melting_point>
14.05

>  <molecular_refractivity>
50.35

>  <oscillator_strength_1>
0.033

>  <oscillator_strength_2>
0.0057

>  <oscillator_strength_3>
0.0068

>  <oscillator_strength_4>
0.0004

>  <open_babel_can_smiles>
CCC[C@]1(CC)C[C@H]([C@H](O1)C)O

>  <mulliken_charges>
32
1   -0.443915
2   -0.460168
3   -0.476955
4   -0.258003
5   -0.272816
6   -0.27117
7   -0.341399
8   0.155214
9   0.103489
10   0.346914
11   -0.625357
12   -0.539138
13   0.142335
14   0.141097
15   0.138121
16   0.147553
17   0.150187
18   0.145627
19   0.150349
20   0.163971
21   0.132862
22   0.156099
23   0.131683
24   0.148815
25   0.13106
26   0.128388
27   0.128251
28   0.154589
29   0.126522
30   0.129597
31   0.146091
32   0.390108

>  <lowdin_charges>
32
1   -0.443963
2   -0.448191
3   -0.46443
4   -0.275808
5   -0.27893
6   -0.286488
7   -0.306002
8   -0.013788
9   -0.019382
10   0.124467
11   -0.446876
12   -0.28297
13   0.150196
14   0.14459
15   0.14478
16   0.153856
17   0.148025
18   0.147041
19   0.154285
20   0.162527
21   0.143311
22   0.152778
23   0.137727
24   0.151238
25   0.141689
26   0.141791
27   0.140338
28   0.158386
29   0.140807
30   0.140887
31   0.147871
32   0.340237

$$$$

