PCCDB-ID:  35429
public computational chemistry database (PCCDB) project, http://pccdb.org

 30 30  0  0  0  0  0  0  0  0999 V2000
    7.9291   -4.9836   -0.0115 C   0  0  0  0  0  0  0  0  0  0  0  0
    8.0594   -3.5959   -0.1282 C   0  0  0  0  0  0  0  0  0  0  0  0
    6.6663   -5.5447    0.1812 C   0  0  0  0  0  0  0  0  0  0  0  0
    2.6339    1.7223   -2.7240 C   0  0  0  0  0  0  0  0  0  0  0  0
    6.9380   -2.7762   -0.0567 C   0  0  0  0  0  0  0  0  0  0  0  0
    5.5433   -4.7231    0.2543 C   0  0  0  0  0  0  0  0  0  0  0  0
    4.4377   -2.5149    0.2070 C   0  0  0  0  0  0  0  0  0  0  0  0
    4.3121   -1.1953   -0.0424 C   0  0  0  0  0  0  0  0  0  0  0  0
    3.5128    1.2129   -1.5688 C   0  0  0  0  0  0  0  0  0  0  0  0
    1.5330    2.6925   -2.2733 C   0  0  0  0  0  0  0  0  0  0  0  0
    5.6553   -3.3265    0.1293 C   0  0  0  0  0  0  0  0  0  0  0  0
    3.0361   -0.4607    0.0778 C   0  0  0  0  0  0  0  0  0  0  0  0
    2.6918    0.6034   -0.5306 N   0  0  0  0  0  0  0  0  0  0  0  0
    0.4994    2.0616   -1.5437 O   0  0  0  0  0  0  0  0  0  0  0  0
    2.1083   -0.9889    0.9352 O   0  0  0  0  0  0  0  0  0  0  0  0
    8.8078   -5.6201   -0.0658 H   0  0  0  0  0  0  0  0  0  0  0  0
    9.0410   -3.1523   -0.2706 H   0  0  0  0  0  0  0  0  0  0  0  0
    6.5548   -6.6213    0.2753 H   0  0  0  0  0  0  0  0  0  0  0  0
    2.1630    0.8705   -3.2306 H   0  0  0  0  0  0  0  0  0  0  0  0
    3.2876    2.2204   -3.4538 H   0  0  0  0  0  0  0  0  0  0  0  0
    7.0607   -1.7001   -0.1363 H   0  0  0  0  0  0  0  0  0  0  0  0
    4.5606   -5.1646    0.4031 H   0  0  0  0  0  0  0  0  0  0  0  0
    3.5390   -3.0755    0.4658 H   0  0  0  0  0  0  0  0  0  0  0  0
    5.1681   -0.6150   -0.3710 H   0  0  0  0  0  0  0  0  0  0  0  0
    4.0308    2.0763   -1.1228 H   0  0  0  0  0  0  0  0  0  0  0  0
    4.2852    0.5401   -1.9701 H   0  0  0  0  0  0  0  0  0  0  0  0
    1.0622    3.1461   -3.1539 H   0  0  0  0  0  0  0  0  0  0  0  0
    1.9944    3.5172   -1.6968 H   0  0  0  0  0  0  0  0  0  0  0  0
    0.9530    1.5149   -0.8707 H   0  0  0  0  0  0  0  0  0  0  0  0
    2.5666   -1.5605    1.5709 H   0  0  0  0  0  0  0  0  0  0  0  0
  1  3  2  0  0  0  0
  2  5  2  0  0  0  0
  2  1  1  0  0  0  0
  3  6  1  0  0  0  0
  3 18  1  0  0  0  0
  4 10  1  0  0  0  0
  4  9  1  0  0  0  0
  5 11  1  0  0  0  0
  6 22  1  0  0  0  0
  7 23  1  0  0  0  0
  8 12  1  0  0  0  0
  8  7  2  0  0  0  0
  9 25  1  0  0  0  0
  9 13  1  0  0  0  0
 10 28  1  0  0  0  0
 10 14  1  0  0  0  0
 11  7  1  0  0  0  0
 11  6  2  0  0  0  0
 12 15  1  0  0  0  0
 13 12  2  0  0  0  0
 14 29  1  0  0  0  0
 15 30  1  0  0  0  0
 16  1  1  0  0  0  0
 17  2  1  0  0  0  0
 19  4  1  0  0  0  0
 20  4  1  0  0  0  0
 21  5  1  0  0  0  0
 24  8  1  0  0  0  0
 26  9  1  0  0  0  0
 27 10  1  0  0  0  0
M  END
>  <HBA>
3

>  <HBD>
2

>  <TPSA>
49.33

>  <cid>
35429

>  <dipole>
7.27

>  <excitation_energy_1>
3.755

>  <excitation_energy_2>
4.022

>  <excitation_energy_3>
4.192

>  <excitation_energy_4>
4.526

>  <homo_energy>
-6.21

>  <homo_lumo_gap>
4.218

>  <logP>
1.589

>  <lumo_energy>
-1.992

>  <melting_point>
91.37

>  <molecular_refractivity>
59.92

>  <oscillator_strength_1>
0.013

>  <oscillator_strength_2>
0.0014

>  <oscillator_strength_3>
0.6871

>  <oscillator_strength_4>
0.0074

>  <open_babel_can_smiles>
OCCC/N=C(\C=C\c1ccccc1)/O

>  <mulliken_charges>
30
1   -0.123864
2   -0.13017
3   -0.13007
4   -0.280835
5   -0.175195
6   -0.189435
7   -0.191446
8   -0.192485
9   -0.144247
10   -0.00775
11   0.168961
12   0.497501
13   -0.458828
14   -0.643641
15   -0.58585
16   0.14041
17   0.140209
18   0.140653
19   0.14865
20   0.124352
21   0.13575
22   0.137436
23   0.142458
24   0.156836
25   0.145622
26   0.12494
27   0.130697
28   0.101444
29   0.414404
30   0.403492

>  <lowdin_charges>
30
1   -0.146505
2   -0.149635
3   -0.149189
4   -0.300546
5   -0.146536
6   -0.1517
7   -0.136604
8   -0.205335
9   -0.205183
10   -0.133097
11   -0.009142
12   0.130713
13   -0.201579
14   -0.491063
15   -0.368859
16   0.163865
17   0.162534
18   0.161362
19   0.150984
20   0.146269
21   0.158375
22   0.160059
23   0.160412
24   0.170168
25   0.14608
26   0.131958
27   0.140599
28   0.115996
29   0.339389
30   0.35621

$$$$

