PCCDB-ID:  27475
public computational chemistry database (PCCDB) project, http://pccdb.org

 16 16  0  0  0  0  0  0  0  0999 V2000
    1.1979   -0.0366   -0.8824 C   0  0  0  0  0  0  0  0  0  0  0  0
    2.7715    0.9804    0.9499 C   0  0  0  0  0  0  0  0  0  0  0  0
    3.3386   -1.0143    0.2789 C   0  0  0  0  0  0  0  0  0  0  0  0
    2.2019   -0.0491   -0.0135 C   0  0  0  0  0  0  0  0  0  0  0  0
    4.1194    0.1720    0.9250 C   0  0  0  0  0  0  0  0  0  0  0  0
    4.7435   -0.0991    2.2809 C   0  0  0  0  0  0  0  0  0  0  0  0
    4.2331   -0.8035    3.1175 O   0  0  0  0  0  0  0  0  0  0  0  0
    5.9200    0.5305    2.5503 O   0  0  0  0  0  0  0  0  0  0  0  0
    0.5272    0.8151   -0.9665 H   0  0  0  0  0  0  0  0  0  0  0  0
    1.0066   -0.8787   -1.5432 H   0  0  0  0  0  0  0  0  0  0  0  0
    2.3078    0.9283    1.9422 H   0  0  0  0  0  0  0  0  0  0  0  0
    2.8087    2.0253    0.6254 H   0  0  0  0  0  0  0  0  0  0  0  0
    3.8120   -1.5246   -0.5661 H   0  0  0  0  0  0  0  0  0  0  0  0
    3.0792   -1.7507    1.0483 H   0  0  0  0  0  0  0  0  0  0  0  0
    4.8308    0.6160    0.2195 H   0  0  0  0  0  0  0  0  0  0  0  0
    6.1995    1.0534    1.7815 H   0  0  0  0  0  0  0  0  0  0  0  0
  1  4  2  0  0  0  0
  2 11  1  0  0  0  0
  3  5  1  0  0  0  0
  3 14  1  0  0  0  0
  4  3  1  0  0  0  0
  4  2  1  0  0  0  0
  5  2  1  0  0  0  0
  5  6  1  0  0  0  0
  6  8  1  0  0  0  0
  6  7  2  0  0  0  0
  9  1  1  0  0  0  0
 10  1  1  0  0  0  0
 12  2  1  0  0  0  0
 13  3  1  0  0  0  0
 15  5  1  0  0  0  0
 16  8  1  0  0  0  0
M  END
>  <HBA>
2

>  <HBD>
1

>  <TPSA>
37.3

>  <cid>
27475

>  <dipole>
3.97

>  <excitation_energy_1>
5.555

>  <excitation_energy_2>
5.82

>  <excitation_energy_3>
5.938

>  <excitation_energy_4>
6.41

>  <homo_energy>
-6.844

>  <homo_lumo_gap>
6.885

>  <logP>
1.037

>  <lumo_energy>
0.041

>  <melting_point>
56.0

>  <molecular_refractivity>
30.14

>  <oscillator_strength_1>
0.0005

>  <oscillator_strength_2>
0.0049

>  <oscillator_strength_3>
0.0025

>  <oscillator_strength_4>
0.0517

>  <open_babel_can_smiles>
OC(=O)C1CC(=C)C1

>  <mulliken_charges>
16
1   -0.442829
2   -0.325284
3   -0.321544
4   0.22738
5   -0.230017
6   0.602792
7   -0.446217
8   -0.569159
9   0.140106
10   0.141161
11   0.182063
12   0.156838
13   0.156094
14   0.190498
15   0.130479
16   0.40764

>  <lowdin_charges>
16
1   -0.362773
2   -0.270695
3   -0.27737
4   0.002391
5   -0.173953
6   0.193607
7   -0.245252
8   -0.355658
9   0.161897
10   0.162701
11   0.171021
12   0.154546
13   0.157022
14   0.177837
15   0.147602
16   0.357078

$$$$

