PCCDB-ID:  20138
public computational chemistry database (PCCDB) project, http://pccdb.org

 11 10  0  0  0  0  0  0  0  0999 V2000
    0.9534   -0.0159    0.0764 C   0  0  0  0  0  0  0  0  0  0  0  0
    2.4414   -0.0226    0.2285 C   0  0  0  0  0  0  0  0  0  0  0  0
    3.1769   -1.0283    0.7275 C   0  0  0  0  0  0  0  0  0  0  0  0
    4.6392   -0.9253    0.8267 C   0  0  0  0  0  0  0  0  0  0  0  0
    5.3648   -1.7986    1.2648 O   0  0  0  0  0  0  0  0  0  0  0  0
    0.6715    0.1330   -0.9746 H   0  0  0  0  0  0  0  0  0  0  0  0
    0.5093    0.8171    0.6377 H   0  0  0  0  0  0  0  0  0  0  0  0
    0.5027   -0.9491    0.4269 H   0  0  0  0  0  0  0  0  0  0  0  0
    2.9627    0.8792   -0.1004 H   0  0  0  0  0  0  0  0  0  0  0  0
    2.7265   -1.9560    1.0756 H   0  0  0  0  0  0  0  0  0  0  0  0
    5.0620    0.0393    0.4616 H   0  0  0  0  0  0  0  0  0  0  0  0
  1  2  1  0  0  0  0
  1  8  1  0  0  0  0
  1  7  1  0  0  0  0
  2  3  2  0  0  0  0
  3  4  1  0  0  0  0
  3 10  1  0  0  0  0
  4  5  2  0  0  0  0
  6  1  1  0  0  0  0
  9  2  1  0  0  0  0
 11  4  1  0  0  0  0
M  END
>  <HBA>
1

>  <HBD>
0

>  <TPSA>
17.07

>  <cid>
20138

>  <dipole>
3.91

>  <excitation_energy_1>
3.72

>  <excitation_energy_2>
5.978

>  <excitation_energy_3>
6.597

>  <excitation_energy_4>
6.647

>  <homo_energy>
-6.77

>  <homo_lumo_gap>
5.279

>  <logP>
0.761

>  <lumo_energy>
-1.491

>  <melting_point>
16.28

>  <molecular_refractivity>
21.07

>  <oscillator_strength_1>
0.0002

>  <oscillator_strength_2>
0.452

>  <oscillator_strength_3>
0.0003

>  <oscillator_strength_4>
0.1249

>  <open_babel_can_smiles>
C/C=C/C=O

>  <mulliken_charges>
11
1   -0.495779
2   -0.077521
3   -0.142407
4   0.229275
5   -0.415322
6   0.172331
7   0.172255
8   0.16869
9   0.145098
10   0.147064
11   0.096317

>  <lowdin_charges>
11
1   -0.439239
2   -0.104743
3   -0.204657
4   0.043322
5   -0.231834
6   0.167517
7   0.169506
8   0.163588
9   0.158093
10   0.166878
11   0.111572

$$$$

