PCCDB-ID:  50033
public computational chemistry database (PCCDB) project, http://pccdb.org

 35 35  0  0  0  0  0  0  0  0999 V2000
    6.5024    3.0646    5.7793 C   0  0  0  0  0  0  0  0  0  0  0  0
    4.1334    2.8447    6.0923 C   0  0  0  0  0  0  0  0  0  0  0  0
    7.7686    0.4812   -3.0663 C   0  0  0  0  0  0  0  0  0  0  0  0
    3.2427   -0.0089   -0.9089 C   0  0  0  0  0  0  0  0  0  0  0  0
    3.6484    0.4433   -2.1605 C   0  0  0  0  0  0  0  0  0  0  0  0
    4.2002   -0.4217    0.0205 C   0  0  0  0  0  0  0  0  0  0  0  0
    5.0083    0.4827   -2.4855 C   0  0  0  0  0  0  0  0  0  0  0  0
    5.1796    1.7902    4.1879 C   0  0  0  0  0  0  0  0  0  0  0  0
    6.1731    0.6936    3.8133 C   0  0  0  0  0  0  0  0  0  0  0  0
    5.5665   -0.3906   -0.2781 C   0  0  0  0  0  0  0  0  0  0  0  0
    5.9673    0.0664   -1.5584 C   0  0  0  0  0  0  0  0  0  0  0  0
    6.6509   -0.5496    1.8055 C   0  0  0  0  0  0  0  0  0  0  0  0
    6.5586   -0.8859    0.5846 N   0  0  0  0  0  0  0  0  0  0  0  0
    5.3397    2.2061    5.5791 N   0  0  0  0  0  0  0  0  0  0  0  0
    7.6089   -1.0937    2.5930 O   0  0  0  0  0  0  0  0  0  0  0  0
    7.3147    0.0778   -1.7881 O   0  0  0  0  0  0  0  0  0  0  0  0
    5.8756    0.3380    2.4452 O   0  0  0  0  0  0  0  0  0  0  0  0
    6.6096    3.2893    6.8457 H   0  0  0  0  0  0  0  0  0  0  0  0
    6.4302    4.0249    5.2310 H   0  0  0  0  0  0  0  0  0  0  0  0
    7.4168    2.5588    5.4557 H   0  0  0  0  0  0  0  0  0  0  0  0
    4.2699    3.0821    7.1530 H   0  0  0  0  0  0  0  0  0  0  0  0
    3.2839    2.1593    6.0050 H   0  0  0  0  0  0  0  0  0  0  0  0
    3.8752    3.7834    5.5640 H   0  0  0  0  0  0  0  0  0  0  0  0
    8.8563    0.3859   -3.0417 H   0  0  0  0  0  0  0  0  0  0  0  0
    7.5034    1.5254   -3.2830 H   0  0  0  0  0  0  0  0  0  0  0  0
    7.3675   -0.1608   -3.8627 H   0  0  0  0  0  0  0  0  0  0  0  0
    2.1879   -0.0473   -0.6513 H   0  0  0  0  0  0  0  0  0  0  0  0
    2.9156    0.7683   -2.8942 H   0  0  0  0  0  0  0  0  0  0  0  0
    3.8929   -0.7859    0.9957 H   0  0  0  0  0  0  0  0  0  0  0  0
    5.3116    0.8395   -3.4632 H   0  0  0  0  0  0  0  0  0  0  0  0
    4.1714    1.3807    4.0631 H   0  0  0  0  0  0  0  0  0  0  0  0
    5.2733    2.6316    3.4750 H   0  0  0  0  0  0  0  0  0  0  0  0
    6.0466   -0.1762    4.4642 H   0  0  0  0  0  0  0  0  0  0  0  0
    7.2120    1.0278    3.8808 H   0  0  0  0  0  0  0  0  0  0  0  0
    8.1051   -1.6889    2.0029 H   0  0  0  0  0  0  0  0  0  0  0  0
  1 18  1  0  0  0  0
  2 21  1  0  0  0  0
  3 24  1  0  0  0  0
  3 16  1  0  0  0  0
  4 27  1  0  0  0  0
  4  6  2  0  0  0  0
  5  4  1  0  0  0  0
  6 29  1  0  0  0  0
  7  5  2  0  0  0  0
  7 11  1  0  0  0  0
  8 14  1  0  0  0  0
  9 34  1  0  0  0  0
  9  8  1  0  0  0  0
  9 33  1  0  0  0  0
 10  6  1  0  0  0  0
 10 13  1  0  0  0  0
 11 10  2  0  0  0  0
 12 17  1  0  0  0  0
 12 15  1  0  0  0  0
 13 12  2  0  0  0  0
 14  1  1  0  0  0  0
 14  2  1  0  0  0  0
 16 11  1  0  0  0  0
 17  9  1  0  0  0  0
 19  1  1  0  0  0  0
 20  1  1  0  0  0  0
 22  2  1  0  0  0  0
 23  2  1  0  0  0  0
 25  3  1  0  0  0  0
 26  3  1  0  0  0  0
 28  5  1  0  0  0  0
 30  7  1  0  0  0  0
 31  8  1  0  0  0  0
 32  8  1  0  0  0  0
 35 15  1  0  0  0  0
M  END
>  <HBA>
5

>  <HBD>
1

>  <TPSA>
50.8

>  <cid>
50033

>  <dipole>
1.94

>  <excitation_energy_1>
4.671

>  <excitation_energy_2>
4.908

>  <excitation_energy_3>
5.097

>  <excitation_energy_4>
5.161

>  <homo_energy>
-5.203

>  <homo_lumo_gap>
5.434

>  <logP>
1.878

>  <lumo_energy>
0.231

>  <melting_point>
66.73

>  <molecular_refractivity>
66.04

>  <oscillator_strength_1>
0.1402

>  <oscillator_strength_2>
0.0071

>  <oscillator_strength_3>
0.1021

>  <oscillator_strength_4>
0.0366

>  <open_babel_can_smiles>
COc1ccccc1/N=C(\OCCN(C)C)/O

>  <mulliken_charges>
35
1   -0.304699
2   -0.295789
3   -0.21154
4   -0.144321
5   -0.137981
6   -0.149728
7   -0.206256
8   -0.140078
9   -0.029834
10   0.212171
11   0.348825
12   0.732834
13   -0.559978
14   -0.375184
15   -0.603135
16   -0.500163
17   -0.476307
18   0.153492
19   0.123328
20   0.151893
21   0.150595
22   0.152536
23   0.122653
24   0.163993
25   0.146585
26   0.148532
27   0.118155
28   0.119949
29   0.123664
30   0.125703
31   0.153494
32   0.132813
33   0.167706
34   0.159566
35   0.426506

>  <lowdin_charges>
35
1   -0.357183
2   -0.35401
3   -0.275119
4   -0.175701
5   -0.164792
6   -0.169934
7   -0.214651
8   -0.206431
9   -0.122798
10   0.028754
11   0.088085
12   0.20123
13   -0.230335
14   -0.184216
15   -0.36396
16   -0.192825
17   -0.185816
18   0.151435
19   0.122857
20   0.150071
21   0.149427
22   0.151938
23   0.123137
24   0.157344
25   0.140235
26   0.144075
27   0.152059
28   0.155104
29   0.157586
30   0.159149
31   0.153836
32   0.130595
33   0.156368
34   0.149382
35   0.375106

$$$$

