PCCDB-ID:  54425
public computational chemistry database (PCCDB) project, http://pccdb.org

 25 26  0  0  1  0  0  0  0  0999 V2000
   -3.3936   -3.9970    0.0554 C   0  0  0  0  0  0  0  0  0  0  0  0
   -2.0973   -4.5745    0.0530 C   0  0  0  0  0  0  0  0  0  0  0  0
    1.2644   -7.4280   -1.4739 C   0  0  0  0  0  0  0  0  0  0  0  0
    2.7080   -8.6181    0.0260 C   0  0  0  0  0  0  0  0  0  0  0  0
    0.8156   -8.6686   -1.9243 C   0  0  0  0  0  0  0  0  0  0  0  0
    2.1799   -9.8017   -0.4892 C   0  0  0  0  0  0  0  0  0  0  0  0
   -3.3775   -2.6504    0.3204 C   0  0  0  0  0  0  0  0  0  0  0  0
    0.3348   -3.8682    0.4000 C   0  0  0  0  0  0  0  0  0  0  0  0
    2.2415   -7.3914   -0.4705 C   0  0  0  0  0  0  0  0  0  0  0  0
   -1.0953   -3.6620    0.3169 C   0  0  0  0  0  0  0  0  0  0  0  0
    2.8200   -6.1209    0.0473 C   0  0  1  0  0  0  0  0  0  0  0  0
    1.2519   -9.8443   -1.4516 N   0  0  0  0  0  0  0  0  0  0  0  0
    0.8538   -5.0306    0.1857 N   0  0  0  0  0  0  0  0  0  0  0  0
    2.2354   -5.0102    0.3299 N   0  0  0  0  0  0  0  0  0  0  0  0
    4.1582   -6.1409    0.2966 O   0  0  0  0  0  0  0  0  0  0  0  0
   -1.7699   -2.0656    0.5726 S   0  0  0  0  0  0  0  0  0  0  0  0
   -4.3046   -4.5557   -0.1301 H   0  0  0  0  0  0  0  0  0  0  0  0
   -1.8874   -5.6219   -0.1284 H   0  0  0  0  0  0  0  0  0  0  0  0
    0.8685   -6.5114   -1.8912 H   0  0  0  0  0  0  0  0  0  0  0  0
    3.4454   -8.6538    0.8233 H   0  0  0  0  0  0  0  0  0  0  0  0
    0.0640   -8.7209   -2.7100 H   0  0  0  0  0  0  0  0  0  0  0  0
    2.5200  -10.7626   -0.1068 H   0  0  0  0  0  0  0  0  0  0  0  0
   -4.2163   -1.9702    0.3820 H   0  0  0  0  0  0  0  0  0  0  0  0
    0.9762   -3.0177    0.6509 H   0  0  0  0  0  0  0  0  0  0  0  0
    4.5466   -6.9090   -0.1514 H   0  0  0  0  0  0  0  0  0  0  0  0
  1  7  2  0  0  0  0
  2  1  1  0  0  0  0
  2 10  2  0  0  0  0
  3  9  1  0  0  0  0
  4 20  1  0  0  0  0
  5  3  2  0  0  0  0
  5 12  1  0  0  0  0
  6 22  1  0  0  0  0
  6  4  1  0  0  0  0
  7 23  1  0  0  0  0
  7 16  1  0  0  0  0
  8 24  1  0  0  0  0
  9  4  2  0  0  0  0
  9 11  1  0  0  0  0
 10  8  1  0  0  0  0
 10 16  1  0  0  0  0
 11 15  1  1  0  0  0
 11 14  1  0  0  0  0
 12  6  2  0  0  0  0
 13 14  1  0  0  0  0
 13  8  1  0  0  0  0
 17  1  1  0  0  0  0
 18  2  1  0  0  0  0
 19  3  1  0  0  0  0
 21  5  1  0  0  0  0
 25 15  1  0  0  0  0
M  RAD  4   8   2  11   2  13   2  14   2
M  END
>  <HBA>
5

>  <HBD>
1

>  <TPSA>
82.59

>  <cid>
54425

>  <dipole>
1.05

>  <excitation_energy_1>
3.369

>  <excitation_energy_2>
3.548

>  <excitation_energy_3>
4.166

>  <excitation_energy_4>
4.246

>  <homo_energy>
-5.837

>  <homo_lumo_gap>
3.902

>  <logP>
2.298

>  <lumo_energy>
-1.935

>  <melting_point>
128.38

>  <molecular_refractivity>
63.28

>  <oscillator_strength_1>
0.0394

>  <oscillator_strength_2>
0.4202

>  <oscillator_strength_3>
0.197

>  <oscillator_strength_4>
0.1279

>  <open_babel_can_smiles>
O[C](c1ccncc1)[N][N][CH]c1cccs1

>  <mulliken_charges>
25
1   -0.097154
2   -0.110883
3   -0.138432
4   -0.202736
5   0.028721
6   0.041141
7   -0.342396
8   0.078715
9   0.102048
10   -0.150632
11   0.447704
12   -0.399529
13   -0.295779
14   -0.319292
15   -0.575243
16   0.265569
17   0.148145
18   0.162184
19   0.166425
20   0.152267
21   0.149645
22   0.149225
23   0.179083
24   0.148458
25   0.412748

>  <lowdin_charges>
25
1   -0.176381
2   -0.160878
3   -0.154294
4   -0.185627
5   -0.087656
6   -0.088423
7   -0.314518
8   -0.084646
9   -0.014487
10   -0.167052
11   0.125399
12   -0.138974
13   -0.117499
14   -0.13404
15   -0.349883
16   0.328564
17   0.16927
18   0.176558
19   0.181178
20   0.168966
21   0.161212
22   0.161247
23   0.186315
24   0.15469
25   0.360961

$$$$

