PCCDB-ID:  23520
public computational chemistry database (PCCDB) project, http://pccdb.org

 26 28  0  0  0  0  0  0  0  0999 V2000
   -3.7006   -0.6323    0.0360 C   0  0  0  0  0  0  0  0  0  0  0  0
   -3.6412    0.7691    0.0478 C   0  0  0  0  0  0  0  0  0  0  0  0
   -2.5223   -1.3633    0.0251 C   0  0  0  0  0  0  0  0  0  0  0  0
   -2.4161    1.4140    0.0482 C   0  0  0  0  0  0  0  0  0  0  0  0
    3.6345    0.7547    0.0187 C   0  0  0  0  0  0  0  0  0  0  0  0
    2.4103    1.4082    0.0290 C   0  0  0  0  0  0  0  0  0  0  0  0
    2.5021   -1.3791    0.0041 C   0  0  0  0  0  0  0  0  0  0  0  0
    3.6838   -0.6483    0.0059 C   0  0  0  0  0  0  0  0  0  0  0  0
   -1.2584   -0.7465    0.0253 C   0  0  0  0  0  0  0  0  0  0  0  0
    1.2572   -0.7359    0.0148 C   0  0  0  0  0  0  0  0  0  0  0  0
   -1.2199    0.6695    0.0372 C   0  0  0  0  0  0  0  0  0  0  0  0
    1.2150    0.6734    0.0274 C   0  0  0  0  0  0  0  0  0  0  0  0
    0.0044   -1.5314    0.0127 C   0  0  0  0  0  0  0  0  0  0  0  0
    0.1093   -2.8166    0.0007 N   0  0  0  0  0  0  0  0  0  0  0  0
   -0.0095    1.3269    0.0376 N   0  0  0  0  0  0  0  0  0  0  0  0
    4.8667   -1.3417   -0.0045 O   0  0  0  0  0  0  0  0  0  0  0  0
   -4.6596   -1.1412    0.0357 H   0  0  0  0  0  0  0  0  0  0  0  0
   -4.5560    1.3554    0.0565 H   0  0  0  0  0  0  0  0  0  0  0  0
   -2.5804   -2.4482    0.0160 H   0  0  0  0  0  0  0  0  0  0  0  0
   -2.3647    2.5007    0.0575 H   0  0  0  0  0  0  0  0  0  0  0  0
    4.5554    1.3351    0.0203 H   0  0  0  0  0  0  0  0  0  0  0  0
    2.3761    2.4953    0.0389 H   0  0  0  0  0  0  0  0  0  0  0  0
    2.5262   -2.4624   -0.0056 H   0  0  0  0  0  0  0  0  0  0  0  0
   -0.8078   -3.2689    0.0005 H   0  0  0  0  0  0  0  0  0  0  0  0
   -0.0137    2.3366    0.0477 H   0  0  0  0  0  0  0  0  0  0  0  0
    5.6021   -0.7103   -0.0038 H   0  0  0  0  0  0  0  0  0  0  0  0
  1  2  2  0  0  0  0
  2  4  1  0  0  0  0
  2 18  1  0  0  0  0
  3  9  2  0  0  0  0
  3  1  1  0  0  0  0
  4 20  1  0  0  0  0
  5 21  1  0  0  0  0
  5  6  2  0  0  0  0
  6 22  1  0  0  0  0
  7  8  2  0  0  0  0
  7 10  1  0  0  0  0
  8  5  1  0  0  0  0
  9 11  1  0  0  0  0
 10 12  2  0  0  0  0
 11 15  1  0  0  0  0
 11  4  2  0  0  0  0
 12  6  1  0  0  0  0
 12 15  1  0  0  0  0
 13 10  1  0  0  0  0
 13  9  1  0  0  0  0
 14 13  2  0  0  0  0
 15 25  1  0  0  0  0
 16 26  1  0  0  0  0
 16  8  1  0  0  0  0
 17  1  1  0  0  0  0
 19  3  1  0  0  0  0
 23  7  1  0  0  0  0
 24 14  1  0  0  0  0
M  END
>  <HBA>
3

>  <HBD>
2

>  <TPSA>
59.14

>  <cid>
23520

>  <dipole>
4.85

>  <excitation_energy_1>
3.248

>  <excitation_energy_2>
4.147

>  <excitation_energy_3>
4.286

>  <excitation_energy_4>
4.294

>  <homo_energy>
-5.034

>  <homo_lumo_gap>
3.772

>  <logP>
3.257

>  <lumo_energy>
-1.263

>  <melting_point>
199.63

>  <molecular_refractivity>
65.68

>  <oscillator_strength_1>
0.089

>  <oscillator_strength_2>
0.0707

>  <oscillator_strength_3>
0.0

>  <oscillator_strength_4>
0.0892

>  <open_babel_can_smiles>
Oc1ccc2c(c1)c(=N)c1c([nH]2)cccc1

>  <mulliken_charges>
26
1   -0.137857
2   -0.131587
3   -0.213396
4   -0.184821
5   -0.194334
6   -0.190398
7   -0.237978
8   0.362076
9   0.109164
10   0.098456
11   0.349894
12   0.335664
13   0.228015
14   -0.656368
15   -0.845381
16   -0.646463
17   0.13111
18   0.134498
19   0.133594
20   0.124092
21   0.121648
22   0.125032
23   0.180136
24   0.280084
25   0.320845
26   0.404277

>  <lowdin_charges>
26
1   -0.177691
2   -0.138755
3   -0.135897
4   -0.19112
5   -0.194465
6   -0.181622
7   -0.153379
8   0.089584
9   -0.062181
10   -0.032068
11   0.063915
12   0.041109
13   0.053632
14   -0.400091
15   -0.213794
16   -0.382281
17   0.160048
18   0.161662
19   0.155611
20   0.152951
21   0.155863
22   0.153815
23   0.18906
24   0.244362
25   0.28531
26   0.356421

$$$$

