PCCDB-ID:  15591
public computational chemistry database (PCCDB) project, http://pccdb.org

 23 24  0  0  0  0  0  0  0  0999 V2000
    0.8124    0.1077    0.1401 C   0  0  0  0  0  0  0  0  0  0  0  0
    2.3432   -2.4373   -0.0139 C   0  0  0  0  0  0  0  0  0  0  0  0
    6.6063    2.3836   -0.1685 C   0  0  0  0  0  0  0  0  0  0  0  0
    7.2418    1.1191   -0.2346 C   0  0  0  0  0  0  0  0  0  0  0  0
    5.2339    2.4684   -0.0829 C   0  0  0  0  0  0  0  0  0  0  0  0
    6.4974   -0.0401   -0.2146 C   0  0  0  0  0  0  0  0  0  0  0  0
    3.0274    1.2966    0.0281 C   0  0  0  0  0  0  0  0  0  0  0  0
    2.3176    0.1182    0.0454 C   0  0  0  0  0  0  0  0  0  0  0  0
    3.0620   -1.1100   -0.0277 C   0  0  0  0  0  0  0  0  0  0  0  0
    4.4423    1.2915   -0.0592 C   0  0  0  0  0  0  0  0  0  0  0  0
    5.0822    0.0169   -0.1267 C   0  0  0  0  0  0  0  0  0  0  0  0
    4.3786   -1.1529   -0.1092 N   0  0  0  0  0  0  0  0  0  0  0  0
    0.4158    1.1272    0.1737 H   0  0  0  0  0  0  0  0  0  0  0  0
    0.4658   -0.4159    1.0403 H   0  0  0  0  0  0  0  0  0  0  0  0
    0.3541   -0.4022   -0.7168 H   0  0  0  0  0  0  0  0  0  0  0  0
    1.6510   -2.5300   -0.8609 H   0  0  0  0  0  0  0  0  0  0  0  0
    1.7459   -2.5636    0.8986 H   0  0  0  0  0  0  0  0  0  0  0  0
    3.0763   -3.2440   -0.0694 H   0  0  0  0  0  0  0  0  0  0  0  0
    7.2077    3.2885   -0.1864 H   0  0  0  0  0  0  0  0  0  0  0  0
    8.3252    1.0682   -0.3029 H   0  0  0  0  0  0  0  0  0  0  0  0
    4.7408    3.4367   -0.0313 H   0  0  0  0  0  0  0  0  0  0  0  0
    6.9613   -1.0204   -0.2644 H   0  0  0  0  0  0  0  0  0  0  0  0
    2.5039    2.2499    0.0817 H   0  0  0  0  0  0  0  0  0  0  0  0
  1 13  1  0  0  0  0
  1 14  1  0  0  0  0
  2 17  1  0  0  0  0
  3  5  2  0  0  0  0
  4  6  2  0  0  0  0
  4  3  1  0  0  0  0
  5 10  1  0  0  0  0
  5 21  1  0  0  0  0
  6 11  1  0  0  0  0
  7  8  1  0  0  0  0
  7 23  1  0  0  0  0
  8  1  1  0  0  0  0
  9  2  1  0  0  0  0
  9  8  2  0  0  0  0
 10  7  2  0  0  0  0
 11 12  2  0  0  0  0
 11 10  1  0  0  0  0
 12  9  1  0  0  0  0
 15  1  1  0  0  0  0
 16  2  1  0  0  0  0
 18  2  1  0  0  0  0
 19  3  1  0  0  0  0
 20  4  1  0  0  0  0
 22  6  1  0  0  0  0
M  END
>  <HBA>
1

>  <HBD>
0

>  <TPSA>
12.89

>  <cid>
15591

>  <dipole>
1.91

>  <excitation_energy_1>
4.356

>  <excitation_energy_2>
4.421

>  <excitation_energy_3>
4.448

>  <excitation_energy_4>
5.236

>  <homo_energy>
-6.087

>  <homo_lumo_gap>
4.936

>  <logP>
2.852

>  <lumo_energy>
-1.151

>  <melting_point>
72.83

>  <molecular_refractivity>
51.67

>  <oscillator_strength_1>
0.0014

>  <oscillator_strength_2>
0.042

>  <oscillator_strength_3>
0.0328

>  <oscillator_strength_4>
0.0

>  <open_babel_can_smiles>
Cc1cc2ccccc2nc1C

>  <mulliken_charges>
23
1   -0.536006
2   -0.521924
3   -0.134227
4   -0.139022
5   -0.199785
6   -0.143771
7   -0.215796
8   0.137014
9   0.268985
10   0.168549
11   0.234072
12   -0.55849
13   0.157725
14   0.164249
15   0.163965
16   0.157594
17   0.157259
18   0.178579
19   0.130626
20   0.131612
21   0.129046
22   0.140125
23   0.129622

>  <lowdin_charges>
23
1   -0.440739
2   -0.449133
3   -0.159079
4   -0.153279
5   -0.159231
6   -0.152962
7   -0.14384
8   -0.025786
9   0.05111
10   -0.017385
11   0.038748
12   -0.160422
13   0.158038
14   0.161693
15   0.161961
16   0.160001
17   0.159609
18   0.172762
19   0.159298
20   0.1574
21   0.156834
22   0.167455
23   0.156948

$$$$

