PCCDB-ID:  7346
public computational chemistry database (PCCDB) project, http://pccdb.org

 25 24  0  0  0  0  0  0  0  0999 V2000
    1.3866   -0.3771   -0.3343 C   0  0  0  0  0  0  0  0  0  0  0  0
    0.2473   -1.9431   -1.9974 C   0  0  0  0  0  0  0  0  0  0  0  0
    6.3850   -1.8157   -3.2709 C   0  0  0  0  0  0  0  0  0  0  0  0
    7.2176    0.4816   -2.5318 C   0  0  0  0  0  0  0  0  0  0  0  0
    1.5760   -1.4931   -1.3842 C   0  0  0  0  0  0  0  0  0  0  0  0
    6.1759   -0.6198   -2.3173 C   0  0  0  0  0  0  0  0  0  0  0  0
    2.5305   -1.0140   -2.4634 C   0  0  0  0  0  0  0  0  0  0  0  0
    4.7714   -0.0697   -2.4895 C   0  0  0  0  0  0  0  0  0  0  0  0
    2.2567   -0.7419   -3.5993 O   0  0  0  0  0  0  0  0  0  0  0  0
    4.4656    0.9901   -2.9615 O   0  0  0  0  0  0  0  0  0  0  0  0
    3.8353   -0.9658   -1.9652 O   0  0  0  0  0  0  0  0  0  0  0  0
    0.7361   -0.7321    0.4721 H   0  0  0  0  0  0  0  0  0  0  0  0
    0.9177    0.5048   -0.7849 H   0  0  0  0  0  0  0  0  0  0  0  0
    2.3416   -0.0730    0.1042 H   0  0  0  0  0  0  0  0  0  0  0  0
   -0.4247   -2.3080   -1.2133 H   0  0  0  0  0  0  0  0  0  0  0  0
    0.3950   -2.7462   -2.7260 H   0  0  0  0  0  0  0  0  0  0  0  0
   -0.2421   -1.1125   -2.5151 H   0  0  0  0  0  0  0  0  0  0  0  0
    7.3850   -2.2368   -3.1233 H   0  0  0  0  0  0  0  0  0  0  0  0
    6.3016   -1.4985   -4.3165 H   0  0  0  0  0  0  0  0  0  0  0  0
    5.6497   -2.6050   -3.0902 H   0  0  0  0  0  0  0  0  0  0  0  0
    8.2251    0.0841   -2.3694 H   0  0  0  0  0  0  0  0  0  0  0  0
    7.0614    1.3181   -1.8436 H   0  0  0  0  0  0  0  0  0  0  0  0
    7.1610    0.8769   -3.5507 H   0  0  0  0  0  0  0  0  0  0  0  0
    2.0648   -2.3412   -0.8864 H   0  0  0  0  0  0  0  0  0  0  0  0
    6.2393   -0.9980   -1.2880 H   0  0  0  0  0  0  0  0  0  0  0  0
  1 14  1  0  0  0  0
  1 12  1  0  0  0  0
  2  5  1  0  0  0  0
  2 15  1  0  0  0  0
  3 18  1  0  0  0  0
  3 20  1  0  0  0  0
  3  6  1  0  0  0  0
  4 21  1  0  0  0  0
  4  6  1  0  0  0  0
  4 22  1  0  0  0  0
  5 24  1  0  0  0  0
  5  1  1  0  0  0  0
  6 25  1  0  0  0  0
  7 11  1  0  0  0  0
  7  5  1  0  0  0  0
  8  6  1  0  0  0  0
  8 11  1  0  0  0  0
  9  7  2  0  0  0  0
 10  8  2  0  0  0  0
 13  1  1  0  0  0  0
 16  2  1  0  0  0  0
 17  2  1  0  0  0  0
 19  3  1  0  0  0  0
 23  4  1  0  0  0  0
M  END
>  <HBA>
3

>  <HBD>
0

>  <TPSA>
43.37

>  <cid>
7346

>  <dipole>
3.56

>  <excitation_energy_1>
4.988

>  <excitation_energy_2>
5.489

>  <excitation_energy_3>
6.421

>  <excitation_energy_4>
6.787

>  <homo_energy>
-7.285

>  <homo_lumo_gap>
6.593

>  <logP>
1.368

>  <lumo_energy>
-0.691

>  <melting_point>
5.94

>  <molecular_refractivity>
42.05

>  <oscillator_strength_1>
0.0042

>  <oscillator_strength_2>
0.0

>  <oscillator_strength_3>
0.0005

>  <oscillator_strength_4>
0.0074

>  <open_babel_can_smiles>
CC(C(=O)OC(=O)C(C)C)C

>  <mulliken_charges>
25
1   -0.453149
2   -0.439907
3   -0.45294
4   -0.439476
5   -0.171063
6   -0.172401
7   0.627756
8   0.628735
9   -0.420191
10   -0.420275
11   -0.508399
12   0.156698
13   0.164807
14   0.162389
15   0.143568
16   0.157109
17   0.166951
18   0.156643
19   0.164456
20   0.162494
21   0.143466
22   0.157667
23   0.166227
24   0.159156
25   0.159679

>  <lowdin_charges>
25
1   -0.439812
2   -0.442116
3   -0.437414
4   -0.438835
5   -0.146588
6   -0.144476
7   0.219717
8   0.21803
9   -0.205097
10   -0.204936
11   -0.198178
12   0.158157
13   0.159343
14   0.159033
15   0.153236
16   0.159063
17   0.163018
18   0.156757
19   0.157341
20   0.159704
21   0.151476
22   0.159365
23   0.160856
24   0.162068
25   0.160288

$$$$

