PCCDB-ID:  922
public computational chemistry database (PCCDB) project, http://pccdb.org

 23 22  0  0  1  0  0  0  0  0999 V2000
    3.7283   -2.8684    0.2379 C   0  0  0  0  0  0  0  0  0  0  0  0
    0.7694   -1.3529   -1.8409 C   0  0  0  0  0  0  0  0  0  0  0  0
    2.3102   -1.2318   -1.8623 C   0  0  0  0  0  0  0  0  0  0  0  0
    0.1631   -2.1389   -3.0304 C   0  0  1  0  0  0  0  0  0  0  0  0
    3.0406   -2.5624   -2.0231 C   0  0  0  0  0  0  0  0  0  0  0  0
   -1.3656   -1.9823   -3.0259 C   0  0  0  0  0  0  0  0  0  0  0  0
    0.7615   -1.7050   -4.2944 N   0  0  0  0  0  0  0  0  0  0  0  0
    3.6360   -3.2622   -1.1479 N   0  0  0  0  0  0  0  0  0  0  0  0
    3.0251   -3.0441   -3.2962 O   0  0  0  0  0  0  0  0  0  0  0  0
   -1.9666   -1.3283   -3.8416 O   0  0  0  0  0  0  0  0  0  0  0  0
   -2.0266   -2.6040   -2.0170 O   0  0  0  0  0  0  0  0  0  0  0  0
    4.7857   -2.8082    0.5264 H   0  0  0  0  0  0  0  0  0  0  0  0
    3.2801   -3.6502    0.8655 H   0  0  0  0  0  0  0  0  0  0  0  0
    3.2534   -1.9120    0.5122 H   0  0  0  0  0  0  0  0  0  0  0  0
    0.3424   -0.3410   -1.8298 H   0  0  0  0  0  0  0  0  0  0  0  0
    0.4555   -1.8304   -0.9046 H   0  0  0  0  0  0  0  0  0  0  0  0
    2.6203   -0.7316   -0.9418 H   0  0  0  0  0  0  0  0  0  0  0  0
    2.6097   -0.5778   -2.6887 H   0  0  0  0  0  0  0  0  0  0  0  0
    0.4098   -3.2022   -2.9099 H   0  0  0  0  0  0  0  0  0  0  0  0
    0.5110   -0.7301   -4.4641 H   0  0  0  0  0  0  0  0  0  0  0  0
    0.3363   -2.2233   -5.0629 H   0  0  0  0  0  0  0  0  0  0  0  0
    2.4574   -2.4597   -3.8539 H   0  0  0  0  0  0  0  0  0  0  0  0
   -1.4080   -3.1189   -1.4717 H   0  0  0  0  0  0  0  0  0  0  0  0
  1 14  1  0  0  0  0
  1 12  1  0  0  0  0
  1 13  1  0  0  0  0
  2 15  1  0  0  0  0
  2 16  1  0  0  0  0
  3  2  1  0  0  0  0
  3 17  1  0  0  0  0
  4  6  1  0  0  0  0
  4 19  1  1  0  0  0
  4  2  1  0  0  0  0
  5  3  1  0  0  0  0
  5  8  2  0  0  0  0
  6 11  1  0  0  0  0
  7  4  1  0  0  0  0
  8  1  1  0  0  0  0
  9  5  1  0  0  0  0
 10  6  2  0  0  0  0
 11 23  1  0  0  0  0
 18  3  1  0  0  0  0
 20  7  1  0  0  0  0
 21  7  1  0  0  0  0
 22  9  1  0  0  0  0
M  END
>  <HBA>
5

>  <HBD>
3

>  <TPSA>
92.42

>  <cid>
922

>  <dipole>
2.23

>  <excitation_energy_1>
5.247

>  <excitation_energy_2>
5.474

>  <excitation_energy_3>
5.527

>  <excitation_energy_4>
5.571

>  <homo_energy>
-6.414

>  <homo_lumo_gap>
6.139

>  <logP>
0.016

>  <lumo_energy>
-0.275

>  <melting_point>
153.41

>  <molecular_refractivity>
38.44

>  <oscillator_strength_1>
0.0002

>  <oscillator_strength_2>
0.0122

>  <oscillator_strength_3>
0.0004

>  <oscillator_strength_4>
0.0015

>  <open_babel_can_smiles>
C/N=C(\CC[C@@H](C(=O)O)N)/O

>  <mulliken_charges>
23
1   -0.322113
2   -0.273354
3   -0.361204
4   -0.116849
5   0.486135
6   0.594057
7   -0.739127
8   -0.411812
9   -0.61869
10   -0.441656
11   -0.560164
12   0.159908
13   0.151907
14   0.113318
15   0.162479
16   0.147089
17   0.166025
18   0.166396
19   0.179599
20   0.32758
21   0.332479
22   0.440466
23   0.417531

>  <lowdin_charges>
23
1   -0.356436
2   -0.27556
3   -0.313619
4   -0.120441
5   0.119488
6   0.178655
7   -0.519364
8   -0.213558
9   -0.395704
10   -0.24065
11   -0.347792
12   0.152589
13   0.151222
14   0.119897
15   0.156601
16   0.150379
17   0.165495
18   0.16351
19   0.16197
20   0.271983
21   0.277418
22   0.349717
23   0.3642

$$$$

