PCCDB-ID:  5419
public computational chemistry database (PCCDB) project, http://pccdb.org

 31 33  0  0  1  0  0  0  0  0999 V2000
    2.5102    0.2678    0.4109 C   0  0  0  0  0  0  0  0  0  0  0  0
    2.2800   -1.1096    0.4207 C   0  0  0  0  0  0  0  0  0  0  0  0
   -2.3177    1.0659   -0.6170 C   0  0  0  0  0  0  0  0  0  0  0  0
    1.4443    1.1398    0.2075 C   0  0  0  0  0  0  0  0  0  0  0  0
   -0.9955    1.6748   -0.1338 C   0  0  0  0  0  0  0  0  0  0  0  0
    0.9890   -1.5888    0.2108 C   0  0  0  0  0  0  0  0  0  0  0  0
   -2.5873   -0.2752    0.0727 C   0  0  0  0  0  0  0  0  0  0  0  0
   -2.5520   -2.4910   -3.6034 C   0  0  0  0  0  0  0  0  0  0  0  0
   -1.0144   -2.6553   -3.7315 C   0  0  0  0  0  0  0  0  0  0  0  0
    0.1388    0.6711   -0.0043 C   0  0  0  0  0  0  0  0  0  0  0  0
   -0.0890   -0.7177   -0.0210 C   0  0  0  0  0  0  0  0  0  0  0  0
   -1.4840   -1.2909   -0.2724 C   0  0  2  0  0  0  0  0  0  0  0  0
   -1.6578   -1.8208   -1.6940 C   0  0  3  0  0  0  0  0  0  0  0  0
   -2.7731   -1.7839   -2.3304 N   0  0  0  0  0  0  0  0  0  0  0  0
   -0.6073   -2.4859   -2.3294 N   0  0  0  0  0  0  0  0  0  0  0  0
    3.5114    0.6591    0.5708 H   0  0  0  0  0  0  0  0  0  0  0  0
    3.0968   -1.8041    0.5987 H   0  0  0  0  0  0  0  0  0  0  0  0
   -2.2914    0.9023   -1.7006 H   0  0  0  0  0  0  0  0  0  0  0  0
   -3.1381    1.7676   -0.4254 H   0  0  0  0  0  0  0  0  0  0  0  0
    1.6193    2.2140    0.2171 H   0  0  0  0  0  0  0  0  0  0  0  0
   -1.1519    2.1321    0.8554 H   0  0  0  0  0  0  0  0  0  0  0  0
   -0.6865    2.4970   -0.7926 H   0  0  0  0  0  0  0  0  0  0  0  0
    0.8029   -2.6608    0.2308 H   0  0  0  0  0  0  0  0  0  0  0  0
   -3.5533   -0.6792   -0.2386 H   0  0  0  0  0  0  0  0  0  0  0  0
   -2.6102   -0.1363    1.1621 H   0  0  0  0  0  0  0  0  0  0  0  0
   -3.0513   -3.4693   -3.5587 H   0  0  0  0  0  0  0  0  0  0  0  0
   -2.9939   -1.9382   -4.4389 H   0  0  0  0  0  0  0  0  0  0  0  0
   -0.5750   -1.8761   -4.3726 H   0  0  0  0  0  0  0  0  0  0  0  0
   -0.7136   -3.6323   -4.1221 H   0  0  0  0  0  0  0  0  0  0  0  0
   -1.5983   -2.1706    0.3785 H   0  0  0  0  0  0  0  0  0  0  0  0
    0.3281   -2.1437   -2.1446 H   0  0  0  0  0  0  0  0  0  0  0  0
  1  2  1  0  0  0  0
  1 16  1  0  0  0  0
  2 17  1  0  0  0  0
  3 19  1  0  0  0  0
  3  5  1  0  0  0  0
  3  7  1  0  0  0  0
  4 20  1  0  0  0  0
  4  1  2  0  0  0  0
  5 10  1  0  0  0  0
  5 21  1  0  0  0  0
  6 23  1  0  0  0  0
  6  2  2  0  0  0  0
  7 25  1  0  0  0  0
  8 26  1  0  0  0  0
  8 14  1  0  0  0  0
  9  8  1  0  0  0  0
  9 15  1  0  0  0  0
 10  4  1  0  0  0  0
 11 10  2  0  0  0  0
 11  6  1  0  0  0  0
 12 11  1  0  0  0  0
 12  7  1  0  0  0  0
 12 30  1  1  0  0  0
 13 12  1  0  0  0  0
 14 13  1  0  0  0  0
 15 31  1  0  0  0  0
 15 13  1  0  0  0  0
 18  3  1  0  0  0  0
 22  5  1  0  0  0  0
 24  7  1  0  0  0  0
 27  8  1  0  0  0  0
 28  9  1  0  0  0  0
 29  9  1  0  0  0  0
M  RAD  2  13   2  14   2
M  END
>  <HBA>
2

>  <HBD>
1

>  <TPSA>
24.39

>  <cid>
5419

>  <dipole>
2.15

>  <excitation_energy_1>
4.792

>  <excitation_energy_2>
5.03

>  <excitation_energy_3>
5.137

>  <excitation_energy_4>
5.232

>  <homo_energy>
-5.761

>  <homo_lumo_gap>
5.554

>  <logP>
1.873

>  <lumo_energy>
-0.207

>  <melting_point>
98.87

>  <molecular_refractivity>
69.91

>  <oscillator_strength_1>
0.002

>  <oscillator_strength_2>
0.0007

>  <oscillator_strength_3>
0.0115

>  <oscillator_strength_4>
0.0041

>  <open_babel_can_smiles>
C1CN[C]([N]1)[C@@H]1CCCc2c1cccc2

>  <mulliken_charges>
31
1   -0.127405
2   -0.130452
3   -0.273818
4   -0.186001
5   -0.342108
6   -0.209698
7   -0.268048
8   -0.157424
9   -0.146372
10   0.126247
11   0.08171
12   -0.242199
13   0.500763
14   -0.482241
15   -0.616218
16   0.128567
17   0.129092
18   0.154659
19   0.133114
20   0.122547
21   0.152083
22   0.145163
23   0.137183
24   0.170711
25   0.12703
26   0.147951
27   0.145825
28   0.139068
29   0.148584
30   0.164775
31   0.326911

>  <lowdin_charges>
31
1   -0.156961
2   -0.164959
3   -0.277651
4   -0.160218
5   -0.278309
6   -0.174753
7   -0.270727
8   -0.208599
9   -0.212379
10   -0.009622
11   -0.022686
12   -0.132704
13   0.08337
14   -0.249967
15   -0.319877
16   0.156829
17   0.15858
18   0.148755
19   0.147581
20   0.152857
21   0.152221
22   0.152924
23   0.1567
24   0.166809
25   0.138482
26   0.144832
27   0.149158
28   0.136515
29   0.148864
30   0.167316
31   0.277621

$$$$

