PCCDB-ID:  69303
public computational chemistry database (PCCDB) project, http://pccdb.org

 17 17  0  0  0  0  0  0  0  0999 V2000
    0.7956   -0.0859    0.2105 C   0  0  0  0  0  0  0  0  0  0  0  0
    4.4177    1.1263    0.0665 C   0  0  0  0  0  0  0  0  0  0  0  0
    3.0285    1.1210    0.2066 C   0  0  0  0  0  0  0  0  0  0  0  0
    5.1047   -0.0485   -0.2248 C   0  0  0  0  0  0  0  0  0  0  0  0
    2.9925   -1.2448   -0.2359 C   0  0  0  0  0  0  0  0  0  0  0  0
    4.9153   -3.5849   -0.8777 C   0  0  0  0  0  0  0  0  0  0  0  0
    2.2993   -0.0651    0.0574 C   0  0  0  0  0  0  0  0  0  0  0  0
    4.3857   -1.2402   -0.3768 C   0  0  0  0  0  0  0  0  0  0  0  0
    5.0981   -2.4082   -0.6699 N   0  0  0  0  0  0  0  0  0  0  0  0
    4.8804   -4.7429   -1.0960 O   0  0  0  0  0  0  0  0  0  0  0  0
    0.3999    0.9180    0.3918 H   0  0  0  0  0  0  0  0  0  0  0  0
    0.4885   -0.7225    1.0495 H   0  0  0  0  0  0  0  0  0  0  0  0
    0.3075   -0.4814   -0.6885 H   0  0  0  0  0  0  0  0  0  0  0  0
    4.9694    2.0549    0.1845 H   0  0  0  0  0  0  0  0  0  0  0  0
    2.5045    2.0460    0.4333 H   0  0  0  0  0  0  0  0  0  0  0  0
    6.1836   -0.0615   -0.3377 H   0  0  0  0  0  0  0  0  0  0  0  0
    2.4488   -2.1789   -0.3576 H   0  0  0  0  0  0  0  0  0  0  0  0
  1 11  1  0  0  0  0
  1 12  1  0  0  0  0
  2 14  1  0  0  0  0
  2  3  1  0  0  0  0
  3 15  1  0  0  0  0
  4  2  2  0  0  0  0
  5  7  1  0  0  0  0
  6  9  2  0  0  0  0
  7  3  2  0  0  0  0
  7  1  1  0  0  0  0
  8  5  2  0  0  0  0
  8  4  1  0  0  0  0
  9  8  1  0  0  0  0
 10  6  2  0  0  0  0
 13  1  1  0  0  0  0
 16  4  1  0  0  0  0
 17  5  1  0  0  0  0
M  END
>  <HBA>
2

>  <HBD>
0

>  <TPSA>
29.43

>  <cid>
69303

>  <dipole>
2.7

>  <excitation_energy_1>
4.923

>  <excitation_energy_2>
5.208

>  <excitation_energy_3>
5.415

>  <excitation_energy_4>
5.958

>  <homo_energy>
-6.362

>  <homo_lumo_gap>
5.802

>  <logP>
1.962

>  <lumo_energy>
-0.561

>  <melting_point>
66.3

>  <molecular_refractivity>
39.19

>  <oscillator_strength_1>
0.0263

>  <oscillator_strength_2>
0.0

>  <oscillator_strength_3>
0.1911

>  <oscillator_strength_4>
0.0001

>  <open_babel_can_smiles>
O=C=Nc1cccc(c1)C

>  <mulliken_charges>
17
1   -0.530609
2   -0.134323
3   -0.177543
4   -0.144575
5   -0.196581
6   0.597896
7   0.165028
8   0.287525
9   -0.49935
10   -0.399028
11   0.158685
12   0.16755
13   0.16634
14   0.136615
15   0.126763
16   0.144469
17   0.13114

>  <lowdin_charges>
17
1   -0.442674
2   -0.146829
3   -0.173269
4   -0.166411
5   -0.18308
6   0.183418
7   0.010745
8   0.066976
9   -0.138915
10   -0.144217
11   0.158537
12   0.164323
13   0.163638
14   0.162255
15   0.157971
16   0.166981
17   0.160548

$$$$

