PCCDB-ID:  38674
public computational chemistry database (PCCDB) project, http://pccdb.org

 14 14  0  0  0  0  0  0  0  0999 V2000
    1.1791   -0.0346    0.2003 C   0  0  0  0  0  0  0  0  0  0  0  0
    4.5996   -0.8883   -0.8930 C   0  0  0  0  0  0  0  0  0  0  0  0
    4.6146    0.6097   -0.5928 C   0  0  0  0  0  0  0  0  0  0  0  0
    3.2659   -1.3233   -0.2802 C   0  0  0  0  0  0  0  0  0  0  0  0
    2.6090   -0.1637    0.0685 N   0  0  0  0  0  0  0  0  0  0  0  0
    2.8446   -2.4518   -0.0958 O   0  0  0  0  0  0  0  0  0  0  0  0
    3.2231    0.9789   -0.5347 O   0  0  0  0  0  0  0  0  0  0  0  0
    0.8078   -1.0132    0.5119 H   0  0  0  0  0  0  0  0  0  0  0  0
    0.7201    0.2477   -0.7561 H   0  0  0  0  0  0  0  0  0  0  0  0
    0.9342    0.7161    0.9567 H   0  0  0  0  0  0  0  0  0  0  0  0
    5.4325   -1.4452   -0.4585 H   0  0  0  0  0  0  0  0  0  0  0  0
    4.5632   -1.1013   -1.9680 H   0  0  0  0  0  0  0  0  0  0  0  0
    5.0644    1.2351   -1.3662 H   0  0  0  0  0  0  0  0  0  0  0  0
    5.0907    0.8165    0.3755 H   0  0  0  0  0  0  0  0  0  0  0  0
  1  8  1  0  0  0  0
  1 10  1  0  0  0  0
  2  3  1  0  0  0  0
  2 11  1  0  0  0  0
  2  4  1  0  0  0  0
  3  7  1  0  0  0  0
  3 14  1  0  0  0  0
  4  6  2  0  0  0  0
  4  5  1  0  0  0  0
  5  1  1  0  0  0  0
  7  5  1  0  0  0  0
  9  1  1  0  0  0  0
 12  2  1  0  0  0  0
 13  3  1  0  0  0  0
M  END
>  <HBA>
3

>  <HBD>
0

>  <TPSA>
29.54

>  <cid>
38674

>  <dipole>
2.41

>  <excitation_energy_1>
5.327

>  <excitation_energy_2>
5.705

>  <excitation_energy_3>
5.954

>  <excitation_energy_4>
6.12

>  <homo_energy>
-6.068

>  <homo_lumo_gap>
6.471

>  <logP>
-0.282

>  <lumo_energy>
0.403

>  <melting_point>
14.77

>  <molecular_refractivity>
27.32

>  <oscillator_strength_1>
0.0229

>  <oscillator_strength_2>
0.0037

>  <oscillator_strength_3>
0.0359

>  <oscillator_strength_4>
0.0453

>  <open_babel_can_smiles>
O=C1CCON1C

>  <mulliken_charges>
14
1   -0.315306
2   -0.399031
3   -0.026849
4   0.587171
5   -0.17346
6   -0.502203
7   -0.395175
8   0.198473
9   0.167464
10   0.173123
11   0.184165
12   0.183734
13   0.164698
14   0.153197

>  <lowdin_charges>
14
1   -0.3506
2   -0.318638
3   -0.129658
4   0.146289
5   -0.00077
6   -0.287157
7   -0.221778
8   0.184625
9   0.156538
10   0.164347
11   0.178305
12   0.172855
13   0.162125
14   0.143518

$$$$

