PCCDB-ID:  19955
public computational chemistry database (PCCDB) project, http://pccdb.org

 21 22  0  0  0  0  0  0  0  0999 V2000
   -1.6753    0.3322   -0.0072 C   0  0  0  0  0  0  0  0  0  0  0  0
   -0.7710    1.3909   -0.1112 C   0  0  0  0  0  0  0  0  0  0  0  0
   -1.1868   -0.9726    0.0612 C   0  0  0  0  0  0  0  0  0  0  0  0
    0.5975    1.1436   -0.1465 C   0  0  0  0  0  0  0  0  0  0  0  0
    0.1825   -1.2389    0.0277 C   0  0  0  0  0  0  0  0  0  0  0  0
    5.4238   -2.1723   -0.1030 C   0  0  0  0  0  0  0  0  0  0  0  0
    3.7233   -3.6119    0.0690 C   0  0  0  0  0  0  0  0  0  0  0  0
    1.0875   -0.1718   -0.0776 C   0  0  0  0  0  0  0  0  0  0  0  0
    3.3040   -1.4076   -0.0748 C   0  0  0  0  0  0  0  0  0  0  0  0
    5.0482   -3.4575    0.0057 N   0  0  0  0  0  0  0  0  0  0  0  0
    4.6271   -1.1152   -0.1486 N   0  0  0  0  0  0  0  0  0  0  0  0
    2.8003   -2.6514    0.0351 N   0  0  0  0  0  0  0  0  0  0  0  0
    2.4887   -0.3188   -0.1211 N   0  0  0  0  0  0  0  0  0  0  0  0
   -2.7442    0.5224    0.0199 H   0  0  0  0  0  0  0  0  0  0  0  0
   -1.1284    2.4156   -0.1652 H   0  0  0  0  0  0  0  0  0  0  0  0
   -1.8789   -1.8065    0.1435 H   0  0  0  0  0  0  0  0  0  0  0  0
    1.2964    1.9740   -0.2259 H   0  0  0  0  0  0  0  0  0  0  0  0
    0.5543   -2.2520    0.0815 H   0  0  0  0  0  0  0  0  0  0  0  0
    6.4940   -1.9782   -0.1598 H   0  0  0  0  0  0  0  0  0  0  0  0
    3.3516   -4.6317    0.1580 H   0  0  0  0  0  0  0  0  0  0  0  0
    3.0181    0.5407   -0.2038 H   0  0  0  0  0  0  0  0  0  0  0  0
  1 14  1  0  0  0  0
  1  3  2  0  0  0  0
  2  1  1  0  0  0  0
  3 16  1  0  0  0  0
  4  2  2  0  0  0  0
  4  8  1  0  0  0  0
  5  3  1  0  0  0  0
  5 18  1  0  0  0  0
  6 10  2  0  0  0  0
  7 20  1  0  0  0  0
  8  5  2  0  0  0  0
  9 12  1  0  0  0  0
 10  7  2  0  0  0  0
 11  6  1  0  0  0  0
 11  9  2  0  0  0  0
 12  7  1  0  0  0  0
 13  8  1  0  0  0  0
 13  9  1  0  0  0  0
 15  2  1  0  0  0  0
 17  4  1  0  0  0  0
 19  6  1  0  0  0  0
 21 13  1  0  0  0  0
M  RAD  1  12   2
M  END
>  <HBA>
3

>  <HBD>
1

>  <TPSA>
50.7

>  <cid>
19955

>  <dipole>
1.9

>  <excitation_energy_1>
3.983

>  <excitation_energy_2>
4.578

>  <excitation_energy_3>
4.648

>  <excitation_energy_4>
4.748

>  <homo_energy>
-5.976

>  <homo_lumo_gap>
4.759

>  <logP>
1.688

>  <lumo_energy>
-1.216

>  <melting_point>
123.96

>  <molecular_refractivity>
49.37

>  <oscillator_strength_1>
0.007

>  <oscillator_strength_2>
0.584

>  <oscillator_strength_3>
0.002

>  <oscillator_strength_4>
0.0038

>  <open_babel_can_smiles>
c1ccc(cc1)NC1=NC=[N]=C[N]1

>  <mulliken_charges>
21
1   -0.12735
2   -0.132156
3   -0.142984
4   -0.197753
5   -0.154356
6   0.192063
7   0.192992
8   0.3574
9   0.683259
10   -0.394462
11   -0.45798
12   -0.447958
13   -0.751784
14   0.130237
15   0.133578
16   0.134524
17   0.126759
18   0.180815
19   0.163725
20   0.163052
21   0.348381

>  <lowdin_charges>
21
1   -0.166801
2   -0.146664
3   -0.146339
4   -0.188277
5   -0.183812
6   -0.009195
7   -0.006167
8   0.061424
9   0.143244
10   -0.197533
11   -0.201651
12   -0.197225
13   -0.204877
14   0.157316
15   0.15943
16   0.161158
17   0.156146
18   0.183771
19   0.162999
20   0.164026
21   0.299026

$$$$

