PCCDB-ID:  69081
public computational chemistry database (PCCDB) project, http://pccdb.org

 26 27  0  0  0  0  0  0  0  0999 V2000
   -1.9307    0.4535   -1.4706 C   0  0  0  0  0  0  0  0  0  0  0  0
    2.6286   -5.0233    0.2174 C   0  0  0  0  0  0  0  0  0  0  0  0
   -0.7632    1.1076   -1.8674 C   0  0  0  0  0  0  0  0  0  0  0  0
   -1.8457   -0.6351   -0.6012 C   0  0  0  0  0  0  0  0  0  0  0  0
    2.8625   -4.1941    1.3138 C   0  0  0  0  0  0  0  0  0  0  0  0
    2.1114   -4.4795   -0.9620 C   0  0  0  0  0  0  0  0  0  0  0  0
    0.4831    0.6809   -1.4100 C   0  0  0  0  0  0  0  0  0  0  0  0
   -0.6063   -1.0640   -0.1295 C   0  0  0  0  0  0  0  0  0  0  0  0
    2.5770   -2.8292    1.2389 C   0  0  0  0  0  0  0  0  0  0  0  0
    1.8438   -3.1158   -1.0518 C   0  0  0  0  0  0  0  0  0  0  0  0
    2.8317    0.0060    0.3336 C   0  0  0  0  0  0  0  0  0  0  0  0
    0.5641   -0.4102   -0.5358 C   0  0  0  0  0  0  0  0  0  0  0  0
    2.0790   -2.2825    0.0503 C   0  0  0  0  0  0  0  0  0  0  0  0
    1.8314   -0.8752   -0.0506 N   0  0  0  0  0  0  0  0  0  0  0  0
    2.7486    1.2182    0.3483 O   0  0  0  0  0  0  0  0  0  0  0  0
   -2.8976    0.7897   -1.8344 H   0  0  0  0  0  0  0  0  0  0  0  0
    2.8421   -6.0865    0.2807 H   0  0  0  0  0  0  0  0  0  0  0  0
   -0.8169    1.9560   -2.5441 H   0  0  0  0  0  0  0  0  0  0  0  0
   -2.7465   -1.1512   -0.2801 H   0  0  0  0  0  0  0  0  0  0  0  0
    3.2522   -4.6081    2.2396 H   0  0  0  0  0  0  0  0  0  0  0  0
    1.9277   -5.1178   -1.8219 H   0  0  0  0  0  0  0  0  0  0  0  0
    1.3845    1.1967   -1.7144 H   0  0  0  0  0  0  0  0  0  0  0  0
   -0.5425   -1.9051    0.5533 H   0  0  0  0  0  0  0  0  0  0  0  0
    2.7225   -2.1902    2.1047 H   0  0  0  0  0  0  0  0  0  0  0  0
    1.4569   -2.6877   -1.9712 H   0  0  0  0  0  0  0  0  0  0  0  0
    3.7486   -0.5357    0.6260 H   0  0  0  0  0  0  0  0  0  0  0  0
  1  4  1  0  0  0  0
  2 17  1  0  0  0  0
  2  5  2  0  0  0  0
  3  1  2  0  0  0  0
  3  7  1  0  0  0  0
  4 19  1  0  0  0  0
  4  8  2  0  0  0  0
  5 20  1  0  0  0  0
  6  2  1  0  0  0  0
  7 12  2  0  0  0  0
  8 23  1  0  0  0  0
  9  5  1  0  0  0  0
  9 24  1  0  0  0  0
 10  6  2  0  0  0  0
 10 13  1  0  0  0  0
 11 15  2  0  0  0  0
 11 26  1  0  0  0  0
 12  8  1  0  0  0  0
 12 14  1  0  0  0  0
 13  9  2  0  0  0  0
 14 13  1  0  0  0  0
 14 11  1  0  0  0  0
 16  1  1  0  0  0  0
 18  3  1  0  0  0  0
 21  6  1  0  0  0  0
 22  7  1  0  0  0  0
 25 10  1  0  0  0  0
M  END
>  <HBA>
1

>  <HBD>
0

>  <TPSA>
20.31

>  <cid>
69081

>  <dipole>
3.62

>  <excitation_energy_1>
4.581

>  <excitation_energy_2>
4.69

>  <excitation_energy_3>
4.839

>  <excitation_energy_4>
4.985

>  <homo_energy>
-5.948

>  <homo_lumo_gap>
5.434

>  <logP>
3.617

>  <lumo_energy>
-0.514

>  <melting_point>
68.65

>  <molecular_refractivity>
61.48

>  <oscillator_strength_1>
0.0135

>  <oscillator_strength_2>
0.2024

>  <oscillator_strength_3>
0.0995

>  <oscillator_strength_4>
0.0018

>  <open_babel_can_smiles>
O=CN(c1ccccc1)c1ccccc1

>  <mulliken_charges>
26
1   -0.121955
2   -0.121908
3   -0.146103
4   -0.141054
5   -0.140529
6   -0.141552
7   -0.136636
8   -0.153507
9   -0.160536
10   -0.139357
11   0.338931
12   0.281762
13   0.252259
14   -0.561431
15   -0.447885
16   0.13099
17   0.136137
18   0.135648
19   0.133331
20   0.139577
21   0.139567
22   0.159666
23   0.144368
24   0.14722
25   0.15099
26   0.122006

>  <lowdin_charges>
26
1   -0.159984
2   -0.155315
3   -0.150318
4   -0.154258
5   -0.149348
6   -0.149795
7   -0.158416
8   -0.168694
9   -0.178078
10   -0.16251
11   0.045029
12   0.048543
13   0.043552
14   -0.064714
15   -0.268961
16   0.159038
17   0.159999
18   0.161064
19   0.1604
20   0.163103
21   0.163451
22   0.176791
23   0.167099
24   0.167407
25   0.171124
26   0.13379

$$$$

