PCCDB-ID:  68533
public computational chemistry database (PCCDB) project, http://pccdb.org

 22 21  0  0  0  0  0  0  0  0999 V2000
    1.8759   -0.7515    1.2175 C   0  0  0  0  0  0  0  0  0  0  0  0
    1.5497    2.2144   -1.3531 C   0  0  0  0  0  0  0  0  0  0  0  0
    1.0702    2.2622    1.1138 C   0  0  0  0  0  0  0  0  0  0  0  0
    1.5273    0.0374   -0.0491 C   0  0  0  0  0  0  0  0  0  0  0  0
    4.2758    1.3684   -0.3338 C   0  0  0  0  0  0  0  0  0  0  0  0
    1.8377    1.5479   -0.0034 C   0  0  0  0  0  0  0  0  0  0  0  0
    4.2066    0.6917   -1.4134 N   0  0  0  0  0  0  0  0  0  0  0  0
    5.3949    1.8047    0.3151 O   0  0  0  0  0  0  0  0  0  0  0  0
    3.2380    1.7864    0.3894 O   0  0  0  0  0  0  0  0  0  0  0  0
    1.6661   -1.8162    1.0667 H   0  0  0  0  0  0  0  0  0  0  0  0
    1.2960   -0.4236    2.0872 H   0  0  0  0  0  0  0  0  0  0  0  0
    2.9372   -0.6532    1.4677 H   0  0  0  0  0  0  0  0  0  0  0  0
    0.4760    2.1573   -1.5648 H   0  0  0  0  0  0  0  0  0  0  0  0
    2.0959    1.7234   -2.1599 H   0  0  0  0  0  0  0  0  0  0  0  0
    1.8334    3.2721   -1.3222 H   0  0  0  0  0  0  0  0  0  0  0  0
   -0.0074    2.1248    0.9756 H   0  0  0  0  0  0  0  0  0  0  0  0
    1.2884    3.3347    1.0995 H   0  0  0  0  0  0  0  0  0  0  0  0
    1.3487    1.8736    2.0969 H   0  0  0  0  0  0  0  0  0  0  0  0
    0.4531   -0.0568   -0.2595 H   0  0  0  0  0  0  0  0  0  0  0  0
    2.0587   -0.3910   -0.9026 H   0  0  0  0  0  0  0  0  0  0  0  0
    5.1299    0.4851   -1.7945 H   0  0  0  0  0  0  0  0  0  0  0  0
    6.1698    1.5030   -0.1832 H   0  0  0  0  0  0  0  0  0  0  0  0
  1 12  1  0  0  0  0
  1 11  1  0  0  0  0
  2 15  1  0  0  0  0
  2  6  1  0  0  0  0
  3 18  1  0  0  0  0
  4  6  1  0  0  0  0
  4  1  1  0  0  0  0
  5  8  1  0  0  0  0
  5  9  1  0  0  0  0
  6  9  1  0  0  0  0
  6  3  1  0  0  0  0
  7  5  2  0  0  0  0
 10  1  1  0  0  0  0
 13  2  1  0  0  0  0
 14  2  1  0  0  0  0
 16  3  1  0  0  0  0
 17  3  1  0  0  0  0
 19  4  1  0  0  0  0
 20  4  1  0  0  0  0
 21  7  1  0  0  0  0
 22  8  1  0  0  0  0
M  END
>  <HBA>
3

>  <HBD>
1

>  <TPSA>
52.32

>  <cid>
68533

>  <dipole>
1.05

>  <excitation_energy_1>
5.828

>  <excitation_energy_2>
6.283

>  <excitation_energy_3>
6.93

>  <excitation_energy_4>
7.1

>  <homo_energy>
-6.914

>  <homo_lumo_gap>
8.21

>  <logP>
1.971

>  <lumo_energy>
1.295

>  <melting_point>
61.48

>  <molecular_refractivity>
35.38

>  <oscillator_strength_1>
0.0039

>  <oscillator_strength_2>
0.0481

>  <oscillator_strength_3>
0.0002

>  <oscillator_strength_4>
0.004

>  <open_babel_can_smiles>
CCC(OC(=N)O)(C)C

>  <mulliken_charges>
22
1   -0.452903
2   -0.469397
3   -0.455453
4   -0.273683
5   0.654793
6   0.32021
7   -0.629709
8   -0.57023
9   -0.481226
10   0.142561
11   0.142217
12   0.156057
13   0.140212
14   0.189741
15   0.145653
16   0.142621
17   0.153888
18   0.161016
19   0.12804
20   0.179744
21   0.271861
22   0.40399

>  <lowdin_charges>
22
1   -0.444509
2   -0.455134
3   -0.441726
4   -0.289087
5   0.193499
6   0.148645
7   -0.475738
8   -0.369788
9   -0.18359
10   0.150033
11   0.146613
12   0.152251
13   0.151871
14   0.174928
15   0.151799
16   0.151473
17   0.155613
18   0.159139
19   0.143471
20   0.168567
21   0.25299
22   0.358679

$$$$

