PCCDB-ID:  3677
public computational chemistry database (PCCDB) project, http://pccdb.org

 29 29  0  0  0  0  0  0  0  0999 V2000
    0.9790    0.3796   -0.0424 C   0  0  0  0  0  0  0  0  0  0  0  0
    3.0295    0.5404    1.3981 C   0  0  0  0  0  0  0  0  0  0  0  0
    2.8697    0.8545   -2.3711 C   0  0  0  0  0  0  0  0  0  0  0  0
    1.1415   -4.3020    2.4787 C   0  0  0  0  0  0  0  0  0  0  0  0
    0.4308   -3.9085    1.3435 C   0  0  0  0  0  0  0  0  0  0  0  0
    2.4005   -3.7517    2.7240 C   0  0  0  0  0  0  0  0  0  0  0  0
    0.9757   -2.9699    0.4662 C   0  0  0  0  0  0  0  0  0  0  0  0
    2.9393   -2.8130    1.8432 C   0  0  0  0  0  0  0  0  0  0  0  0
    2.8271   -1.3831   -0.2536 C   0  0  0  0  0  0  0  0  0  0  0  0
    2.2342   -2.3971    0.7037 C   0  0  0  0  0  0  0  0  0  0  0  0
    2.4990    0.1190    0.0186 C   0  0  0  0  0  0  0  0  0  0  0  0
    3.2692    0.9150   -0.9673 N   0  0  0  0  0  0  0  0  0  0  0  0
    0.4508   -0.1666    0.7457 H   0  0  0  0  0  0  0  0  0  0  0  0
    0.5487    0.0723   -1.0024 H   0  0  0  0  0  0  0  0  0  0  0  0
    0.7707    1.4486    0.0916 H   0  0  0  0  0  0  0  0  0  0  0  0
    2.5672   -0.0429    2.1992 H   0  0  0  0  0  0  0  0  0  0  0  0
    2.8074    1.5992    1.5863 H   0  0  0  0  0  0  0  0  0  0  0  0
    4.1160    0.4100    1.4468 H   0  0  0  0  0  0  0  0  0  0  0  0
    3.5101    1.5379   -2.9391 H   0  0  0  0  0  0  0  0  0  0  0  0
    1.8202    1.1264   -2.5796 H   0  0  0  0  0  0  0  0  0  0  0  0
    3.0392   -0.1497   -2.7727 H   0  0  0  0  0  0  0  0  0  0  0  0
    0.7223   -5.0373    3.1603 H   0  0  0  0  0  0  0  0  0  0  0  0
   -0.5456   -4.3385    1.1351 H   0  0  0  0  0  0  0  0  0  0  0  0
    2.9688   -4.0589    3.5984 H   0  0  0  0  0  0  0  0  0  0  0  0
    0.4185   -2.6800   -0.4218 H   0  0  0  0  0  0  0  0  0  0  0  0
    3.9262   -2.3995    2.0374 H   0  0  0  0  0  0  0  0  0  0  0  0
    2.4915   -1.6293   -1.2679 H   0  0  0  0  0  0  0  0  0  0  0  0
    3.9197   -1.4694   -0.2554 H   0  0  0  0  0  0  0  0  0  0  0  0
    3.2461    1.8881   -0.6670 H   0  0  0  0  0  0  0  0  0  0  0  0
  1 11  1  0  0  0  0
  1 15  1  0  0  0  0
  1 13  1  0  0  0  0
  2 18  1  0  0  0  0
  2 17  1  0  0  0  0
  2 16  1  0  0  0  0
  3 12  1  0  0  0  0
  4  6  1  0  0  0  0
  4 22  1  0  0  0  0
  5  4  2  0  0  0  0
  6 24  1  0  0  0  0
  7 10  2  0  0  0  0
  7  5  1  0  0  0  0
  8 26  1  0  0  0  0
  8  6  2  0  0  0  0
  9 11  1  0  0  0  0
  9 10  1  0  0  0  0
 10  8  1  0  0  0  0
 11  2  1  0  0  0  0
 12 29  1  0  0  0  0
 12 11  1  0  0  0  0
 14  1  1  0  0  0  0
 19  3  1  0  0  0  0
 20  3  1  0  0  0  0
 21  3  1  0  0  0  0
 23  5  1  0  0  0  0
 25  7  1  0  0  0  0
 27  9  1  0  0  0  0
 28  9  1  0  0  0  0
M  END
>  <HBA>
1

>  <HBD>
1

>  <TPSA>
12.03

>  <cid>
3677

>  <dipole>
0.91

>  <excitation_energy_1>
5.108

>  <excitation_energy_2>
5.163

>  <excitation_energy_3>
5.29

>  <excitation_energy_4>
5.364

>  <homo_energy>
-5.774

>  <homo_lumo_gap>
5.875

>  <logP>
2.618

>  <lumo_energy>
0.101

>  <melting_point>
42.7

>  <molecular_refractivity>
53.48

>  <oscillator_strength_1>
0.0123

>  <oscillator_strength_2>
0.0009

>  <oscillator_strength_3>
0.0043

>  <oscillator_strength_4>
0.0004

>  <open_babel_can_smiles>
CNC(Cc1ccccc1)(C)C

>  <mulliken_charges>
29
1   -0.457619
2   -0.463728
3   -0.308094
4   -0.131962
5   -0.129436
6   -0.12931
7   -0.182831
8   -0.183944
9   -0.353193
10   0.172663
11   0.218192
12   -0.549884
13   0.155443
14   0.138883
15   0.131253
16   0.15734
17   0.130556
18   0.151039
19   0.147338
20   0.123702
21   0.153553
22   0.126745
23   0.127017
24   0.127399
25   0.123056
26   0.126599
27   0.138522
28   0.152405
29   0.288299

>  <lowdin_charges>
29
1   -0.461755
2   -0.447565
3   -0.36415
4   -0.162994
5   -0.156658
6   -0.157805
7   -0.168925
8   -0.166603
9   -0.277003
10   -0.000813
11   0.070575
12   -0.363555
13   0.159288
14   0.146399
15   0.143566
16   0.15955
17   0.142353
18   0.151688
19   0.152954
20   0.121359
21   0.147032
22   0.157466
23   0.155782
24   0.157041
25   0.154371
26   0.155022
27   0.148493
28   0.155599
29   0.24929

$$$$

