PCCDB-ID:  854
public computational chemistry database (PCCDB) project, http://pccdb.org

 20 19  0  0  1  0  0  0  0  0999 V2000
    0.6397    2.9554   -1.1412 C   0  0  0  0  0  0  0  0  0  0  0  0
   -0.4890    0.4094   -4.7893 C   0  0  0  0  0  0  0  0  0  0  0  0
   -0.3084    1.7582   -1.1197 C   0  0  1  0  0  0  0  0  0  0  0  0
   -0.4851    1.4364   -3.6617 C   0  0  2  0  0  0  0  0  0  0  0  0
   -0.1303    0.8057   -2.3100 C   0  0  1  0  0  0  0  0  0  0  0  0
    1.6488    3.0195   -1.8213 O   0  0  0  0  0  0  0  0  0  0  0  0
   -0.9388    1.1162   -5.9487 O   0  0  0  0  0  0  0  0  0  0  0  0
    0.0016    1.0822    0.1009 O   0  0  0  0  0  0  0  0  0  0  0  0
   -1.7774    2.0171   -3.5321 O   0  0  0  0  0  0  0  0  0  0  0  0
    1.1973    0.2766   -2.3004 O   0  0  0  0  0  0  0  0  0  0  0  0
    0.4079    3.7510   -0.4044 H   0  0  0  0  0  0  0  0  0  0  0  0
   -1.1803   -0.4082   -4.5343 H   0  0  0  0  0  0  0  0  0  0  0  0
    0.5161   -0.0088   -4.9292 H   0  0  0  0  0  0  0  0  0  0  0  0
   -1.3439    2.1010   -1.0518 H   0  0  0  0  0  0  0  0  0  0  0  0
    0.2590    2.2102   -3.9088 H   0  0  0  0  0  0  0  0  0  0  0  0
   -0.7939   -0.0487   -2.1345 H   0  0  0  0  0  0  0  0  0  0  0  0
   -1.1374    0.4722   -6.6439 H   0  0  0  0  0  0  0  0  0  0  0  0
    0.7794    0.5333   -0.1160 H   0  0  0  0  0  0  0  0  0  0  0  0
   -2.0700    2.1911   -4.4439 H   0  0  0  0  0  0  0  0  0  0  0  0
    1.7830    1.0505   -2.4121 H   0  0  0  0  0  0  0  0  0  0  0  0
  1  3  1  0  0  0  0
  1 11  1  0  0  0  0
  2 12  1  0  0  0  0
  2  4  1  0  0  0  0
  3 14  1  1  0  0  0
  3  8  1  0  0  0  0
  4 15  1  6  0  0  0
  4  9  1  0  0  0  0
  4  5  1  0  0  0  0
  5 10  1  0  0  0  0
  5 16  1  1  0  0  0
  5  3  1  0  0  0  0
  6  1  2  0  0  0  0
  7  2  1  0  0  0  0
 13  2  1  0  0  0  0
 17  7  1  0  0  0  0
 18  8  1  0  0  0  0
 19  9  1  0  0  0  0
 20 10  1  0  0  0  0
M  END
>  <HBA>
5

>  <HBD>
4

>  <TPSA>
97.99

>  <cid>
854

>  <dipole>
2.48

>  <excitation_energy_1>
3.949

>  <excitation_energy_2>
5.351

>  <excitation_energy_3>
5.483

>  <excitation_energy_4>
6.052

>  <homo_energy>
-6.89

>  <homo_lumo_gap>
5.663

>  <logP>
-2.74

>  <lumo_energy>
-1.227

>  <melting_point>
80.3

>  <molecular_refractivity>
31.0

>  <oscillator_strength_1>
0.0016

>  <oscillator_strength_2>
0.0052

>  <oscillator_strength_3>
0.0011

>  <oscillator_strength_4>
0.0112

>  <open_babel_can_smiles>
OC[C@H]([C@H]([C@H](C=O)O)O)O

>  <mulliken_charges>
20
1   0.249945
2   -0.053693
3   0.063799
4   0.116614
5   0.08125
6   -0.411313
7   -0.637726
8   -0.623498
9   -0.654235
10   -0.658134
11   0.138131
12   0.129455
13   0.147623
14   0.177889
15   0.139235
16   0.155141
17   0.404397
18   0.40664
19   0.413183
20   0.415297

>  <lowdin_charges>
20
1   0.056562
2   -0.152466
3   -0.048313
4   -0.028385
5   -0.024073
6   -0.232928
7   -0.47729
8   -0.441293
9   -0.470294
10   -0.468459
11   0.138514
12   0.134816
13   0.14486
14   0.171149
15   0.140058
16   0.157174
17   0.353867
18   0.349019
19   0.35073
20   0.346754

$$$$

