PCCDB-ID:  22297
public computational chemistry database (PCCDB) project, http://pccdb.org

 29 28  0  0  1  0  0  0  0  0999 V2000
    0.9010    1.5660    0.9317 C   0  0  0  0  0  0  0  0  0  0  0  0
    2.5177    2.8047   -0.5820 C   0  0  0  0  0  0  0  0  0  0  0  0
    7.8152    2.4608    3.1048 C   0  0  0  0  0  0  0  0  0  0  0  0
    8.9288    0.1424    1.3139 C   0  0  0  0  0  0  0  0  0  0  0  0
    4.8194    1.2265    0.8891 C   0  0  0  0  0  0  0  0  0  0  0  0
    3.3376    1.1375    1.1353 C   0  0  0  0  0  0  0  0  0  0  0  0
    5.5917    1.7493    2.1151 C   0  0  0  0  0  0  0  0  0  0  0  0
    2.3387    1.7982    0.5289 C   0  0  0  0  0  0  0  0  0  0  0  0
    7.1215    1.7135    1.9502 C   0  0  2  0  0  0  0  0  0  0  0  0
    7.5602    0.3206    1.7847 N   0  0  0  0  0  0  0  0  0  0  0  0
    0.3025    1.2090    0.0812 H   0  0  0  0  0  0  0  0  0  0  0  0
    0.4279    2.4983    1.2723 H   0  0  0  0  0  0  0  0  0  0  0  0
    0.8160    0.8295    1.7372 H   0  0  0  0  0  0  0  0  0  0  0  0
    2.0784    3.7727   -0.3022 H   0  0  0  0  0  0  0  0  0  0  0  0
    1.9921    2.4791   -1.4909 H   0  0  0  0  0  0  0  0  0  0  0  0
    3.5639    2.9762   -0.8453 H   0  0  0  0  0  0  0  0  0  0  0  0
    7.5090    3.5132    3.1374 H   0  0  0  0  0  0  0  0  0  0  0  0
    8.9060    2.4355    3.0074 H   0  0  0  0  0  0  0  0  0  0  0  0
    7.5521    2.0084    4.0706 H   0  0  0  0  0  0  0  0  0  0  0  0
    9.1403   -0.9287    1.2252 H   0  0  0  0  0  0  0  0  0  0  0  0
    9.7139    0.5898    1.9496 H   0  0  0  0  0  0  0  0  0  0  0  0
    9.0244    0.5811    0.3135 H   0  0  0  0  0  0  0  0  0  0  0  0
    5.0433    1.8650    0.0264 H   0  0  0  0  0  0  0  0  0  0  0  0
    5.2153    0.2316    0.6465 H   0  0  0  0  0  0  0  0  0  0  0  0
    3.0586    0.4409    1.9294 H   0  0  0  0  0  0  0  0  0  0  0  0
    5.3201    1.1546    3.0015 H   0  0  0  0  0  0  0  0  0  0  0  0
    5.2772    2.7781    2.3347 H   0  0  0  0  0  0  0  0  0  0  0  0
    7.3755    2.2242    1.0090 H   0  0  0  0  0  0  0  0  0  0  0  0
    7.4358   -0.1720    2.6690 H   0  0  0  0  0  0  0  0  0  0  0  0
  1 12  1  0  0  0  0
  1 13  1  0  0  0  0
  2 14  1  0  0  0  0
  2  8  1  0  0  0  0
  3 17  1  0  0  0  0
  3 19  1  0  0  0  0
  4 10  1  0  0  0  0
  4 21  1  0  0  0  0
  5  6  1  0  0  0  0
  5  7  1  0  0  0  0
  6 25  1  0  0  0  0
  7 27  1  0  0  0  0
  7 26  1  0  0  0  0
  8  1  1  0  0  0  0
  8  6  2  0  0  0  0
  9 28  1  6  0  0  0
  9  7  1  0  0  0  0
  9  3  1  0  0  0  0
 10  9  1  0  0  0  0
 10 29  1  0  0  0  0
 11  1  1  0  0  0  0
 15  2  1  0  0  0  0
 16  2  1  0  0  0  0
 18  3  1  0  0  0  0
 20  4  1  0  0  0  0
 22  4  1  0  0  0  0
 23  5  1  0  0  0  0
 24  5  1  0  0  0  0
M  END
>  <HBA>
1

>  <HBD>
1

>  <TPSA>
12.03

>  <cid>
22297

>  <dipole>
1.0

>  <excitation_energy_1>
5.289

>  <excitation_energy_2>
5.563

>  <excitation_energy_3>
5.571

>  <excitation_energy_4>
5.838

>  <homo_energy>
-5.682

>  <homo_lumo_gap>
6.781

>  <logP>
2.732

>  <lumo_energy>
1.099

>  <melting_point>
11.83

>  <molecular_refractivity>
47.7

>  <oscillator_strength_1>
0.007

>  <oscillator_strength_2>
0.0022

>  <oscillator_strength_3>
0.0089

>  <oscillator_strength_4>
0.0552

>  <open_babel_can_smiles>
CN[C@@H](CCC=C(C)C)C

>  <mulliken_charges>
29
1   -0.505299
2   -0.512095
3   -0.455024
4   -0.300405
5   -0.296378
6   -0.162892
7   -0.252149
8   0.186716
9   0.04184
10   -0.535001
11   0.146692
12   0.145769
13   0.1489
14   0.147953
15   0.14986
16   0.153183
17   0.142355
18   0.145421
19   0.133718
20   0.147777
21   0.121641
22   0.150299
23   0.127496
24   0.163018
25   0.105153
26   0.119489
27   0.13194
28   0.123628
29   0.286399

>  <lowdin_charges>
29
1   -0.440998
2   -0.443754
3   -0.458231
4   -0.359636
5   -0.276768
6   -0.188911
7   -0.274986
8   -0.014786
9   -0.062973
10   -0.358664
11   0.151557
12   0.150565
13   0.153548
14   0.152574
15   0.154049
16   0.153564
17   0.149615
18   0.147497
19   0.143441
20   0.148828
21   0.121735
22   0.147038
23   0.141903
24   0.159136
25   0.142631
26   0.135884
27   0.142247
28   0.135864
29   0.248031

$$$$

