PCCDB-ID:  20960
public computational chemistry database (PCCDB) project, http://pccdb.org

 34 34  0  0  1  0  0  0  0  0999 V2000
    0.9650   -0.7755    1.9017 C   0  0  0  0  0  0  0  0  0  0  0  0
    3.3359   -1.1044    2.6977 C   0  0  0  0  0  0  0  0  0  0  0  0
    5.1239   -5.1120    1.6969 C   0  0  0  0  0  0  0  0  0  0  0  0
    1.2682    0.4423   -2.5454 C   0  0  0  0  0  0  0  0  0  0  0  0
    4.9070   -2.9578    0.4549 C   0  0  0  0  0  0  0  0  0  0  0  0
    2.8253   -4.0888    1.1890 C   0  0  0  0  0  0  0  0  0  0  0  0
    4.1828   -1.7931   -0.1774 C   0  0  0  0  0  0  0  0  0  0  0  0
    2.0905   -3.1073    0.2665 C   0  0  0  0  0  0  0  0  0  0  0  0
    2.4445   -0.7995    1.4806 C   0  0  0  0  0  0  0  0  0  0  0  0
    4.3289   -3.9952    1.0724 C   0  0  0  0  0  0  0  0  0  0  0  0
    2.2422    0.0997   -1.4363 C   0  0  0  0  0  0  0  0  0  0  0  0
    2.6949   -1.6908    0.2226 C   0  0  1  0  0  0  0  0  0  0  0  0
    3.1720    0.8037   -1.1009 O   0  0  0  0  0  0  0  0  0  0  0  0
    1.9187   -1.0905   -0.8897 O   0  0  0  0  0  0  0  0  0  0  0  0
    0.7988    0.0192    2.6378 H   0  0  0  0  0  0  0  0  0  0  0  0
    0.6577   -1.7191    2.3693 H   0  0  0  0  0  0  0  0  0  0  0  0
    0.3026   -0.5892    1.0506 H   0  0  0  0  0  0  0  0  0  0  0  0
    3.1668   -0.3364    3.4619 H   0  0  0  0  0  0  0  0  0  0  0  0
    4.4005   -1.0942    2.4498 H   0  0  0  0  0  0  0  0  0  0  0  0
    3.1057   -2.0716    3.1558 H   0  0  0  0  0  0  0  0  0  0  0  0
    6.2017   -4.9530    1.5901 H   0  0  0  0  0  0  0  0  0  0  0  0
    4.8753   -6.0810    1.2416 H   0  0  0  0  0  0  0  0  0  0  0  0
    4.9007   -5.2067    2.7693 H   0  0  0  0  0  0  0  0  0  0  0  0
    0.2541    0.5309   -2.1413 H   0  0  0  0  0  0  0  0  0  0  0  0
    1.2511   -0.3551   -3.2951 H   0  0  0  0  0  0  0  0  0  0  0  0
    1.5639    1.3844   -3.0084 H   0  0  0  0  0  0  0  0  0  0  0  0
    5.9945   -2.9241    0.3851 H   0  0  0  0  0  0  0  0  0  0  0  0
    2.5019   -5.1106    0.9419 H   0  0  0  0  0  0  0  0  0  0  0  0
    2.5280   -3.9453    2.2385 H   0  0  0  0  0  0  0  0  0  0  0  0
    4.2341   -1.8931   -1.2714 H   0  0  0  0  0  0  0  0  0  0  0  0
    4.7012   -0.8566    0.0498 H   0  0  0  0  0  0  0  0  0  0  0  0
    1.0292   -3.0522    0.5268 H   0  0  0  0  0  0  0  0  0  0  0  0
    2.1367   -3.4901   -0.7601 H   0  0  0  0  0  0  0  0  0  0  0  0
    2.7129    0.2101    1.1524 H   0  0  0  0  0  0  0  0  0  0  0  0
  1 16  1  0  0  0  0
  1 15  1  0  0  0  0
  2 20  1  0  0  0  0
  2 18  1  0  0  0  0
  3 23  1  0  0  0  0
  4 24  1  0  0  0  0
  4 11  1  0  0  0  0
  5 10  2  0  0  0  0
  6 29  1  0  0  0  0
  7 31  1  0  0  0  0
  7 12  1  0  0  0  0
  7  5  1  0  0  0  0
  8 32  1  0  0  0  0
  8  6  1  0  0  0  0
  9  1  1  0  0  0  0
  9  2  1  0  0  0  0
 10  6  1  0  0  0  0
 10  3  1  0  0  0  0
 11 13  2  0  0  0  0
 11 14  1  0  0  0  0
 12 14  1  6  0  0  0
 12  8  1  0  0  0  0
 12  9  1  0  0  0  0
 17  1  1  0  0  0  0
 19  2  1  0  0  0  0
 21  3  1  0  0  0  0
 22  3  1  0  0  0  0
 25  4  1  0  0  0  0
 26  4  1  0  0  0  0
 27  5  1  0  0  0  0
 28  6  1  0  0  0  0
 30  7  1  0  0  0  0
 33  8  1  0  0  0  0
 34  9  1  0  0  0  0
M  END
>  <HBA>
2

>  <HBD>
0

>  <TPSA>
26.3

>  <cid>
20960

>  <dipole>
1.99

>  <excitation_energy_1>
5.619

>  <excitation_energy_2>
5.646

>  <excitation_energy_3>
5.955

>  <excitation_energy_4>
6.133

>  <homo_energy>
-6.278

>  <homo_lumo_gap>
6.74

>  <logP>
3.075

>  <lumo_energy>
0.463

>  <melting_point>
28.7

>  <molecular_refractivity>
58.53

>  <oscillator_strength_1>
0.0014

>  <oscillator_strength_2>
0.0043

>  <oscillator_strength_3>
0.0047

>  <oscillator_strength_4>
0.0043

>  <open_babel_can_smiles>
CC(=O)O[C@]1(CCC(=CC1)C)C(C)C

>  <mulliken_charges>
34
1   -0.45937
2   -0.456376
3   -0.514237
4   -0.520795
5   -0.180436
6   -0.341158
7   -0.335175
8   -0.293934
9   -0.101562
10   0.194251
11   0.61339
12   0.323461
13   -0.476987
14   -0.507938
15   0.143129
16   0.139926
17   0.149946
18   0.141919
19   0.156148
20   0.142959
21   0.153225
22   0.1504
23   0.150727
24   0.178431
25   0.177442
26   0.179339
27   0.115187
28   0.142133
29   0.148784
30   0.152376
31   0.175901
32   0.146074
33   0.148619
34   0.164202

>  <lowdin_charges>
34
1   -0.451157
2   -0.444674
3   -0.43495
4   -0.465029
5   -0.191434
6   -0.276335
7   -0.285166
8   -0.277471
9   -0.136841
10   -0.018158
11   0.201535
12   0.137058
13   -0.272323
14   -0.20093
15   0.151973
16   0.144341
17   0.152003
18   0.150981
19   0.155199
20   0.145901
21   0.154154
22   0.153032
23   0.152001
24   0.174863
25   0.17562
26   0.173528
27   0.147909
28   0.150181
29   0.145831
30   0.156595
31   0.16709
32   0.151772
33   0.152327
34   0.160574

$$$$

