PCCDB-ID:  19994
public computational chemistry database (PCCDB) project, http://pccdb.org

 25 25  0  0  0  0  0  0  0  0999 V2000
    0.9382   -0.3123   -0.0261 C   0  0  0  0  0  0  0  0  0  0  0  0
    2.4590   -0.1264   -0.0180 C   0  0  0  0  0  0  0  0  0  0  0  0
    2.9007    1.2431   -0.5485 C   0  0  0  0  0  0  0  0  0  0  0  0
    5.3493    5.1328   -0.6937 C   0  0  0  0  0  0  0  0  0  0  0  0
    4.4311    1.4307   -0.5443 C   0  0  0  0  0  0  0  0  0  0  0  0
    4.9916    3.8803   -0.1982 C   0  0  0  0  0  0  0  0  0  0  0  0
    5.5868    5.3177   -2.0563 C   0  0  0  0  0  0  0  0  0  0  0  0
    5.1042    2.9717   -2.4300 C   0  0  0  0  0  0  0  0  0  0  0  0
    4.8633    2.7849   -1.0661 C   0  0  0  0  0  0  0  0  0  0  0  0
    5.4626    4.2292   -2.9249 C   0  0  0  0  0  0  0  0  0  0  0  0
    5.6841    4.3317   -4.2727 O   0  0  0  0  0  0  0  0  0  0  0  0
    0.6535   -1.2984    0.3584 H   0  0  0  0  0  0  0  0  0  0  0  0
    0.5333   -0.2206   -1.0414 H   0  0  0  0  0  0  0  0  0  0  0  0
    0.4433    0.4437    0.5959 H   0  0  0  0  0  0  0  0  0  0  0  0
    2.9283   -0.9173   -0.6205 H   0  0  0  0  0  0  0  0  0  0  0  0
    2.8392   -0.2591    1.0051 H   0  0  0  0  0  0  0  0  0  0  0  0
    2.4395    2.0381    0.0541 H   0  0  0  0  0  0  0  0  0  0  0  0
    2.5247    1.3813   -1.5719 H   0  0  0  0  0  0  0  0  0  0  0  0
    5.4512    5.9763   -0.0157 H   0  0  0  0  0  0  0  0  0  0  0  0
    4.8894    0.6379   -1.1501 H   0  0  0  0  0  0  0  0  0  0  0  0
    4.8038    1.2955    0.4798 H   0  0  0  0  0  0  0  0  0  0  0  0
    4.8139    3.7473    0.8661 H   0  0  0  0  0  0  0  0  0  0  0  0
    5.8711    6.2957   -2.4408 H   0  0  0  0  0  0  0  0  0  0  0  0
    5.0204    2.1441   -3.1292 H   0  0  0  0  0  0  0  0  0  0  0  0
    5.9289    5.2468   -4.4801 H   0  0  0  0  0  0  0  0  0  0  0  0
  1  2  1  0  0  0  0
  1 12  1  0  0  0  0
  1 14  1  0  0  0  0
  2 16  1  0  0  0  0
  3  5  1  0  0  0  0
  3  2  1  0  0  0  0
  3 17  1  0  0  0  0
  4  6  1  0  0  0  0
  4 19  1  0  0  0  0
  5 21  1  0  0  0  0
  6 22  1  0  0  0  0
  7  4  2  0  0  0  0
  8  9  1  0  0  0  0
  9  5  1  0  0  0  0
  9  6  2  0  0  0  0
 10  8  2  0  0  0  0
 10  7  1  0  0  0  0
 11 10  1  0  0  0  0
 13  1  1  0  0  0  0
 15  2  1  0  0  0  0
 18  3  1  0  0  0  0
 20  5  1  0  0  0  0
 23  7  1  0  0  0  0
 24  8  1  0  0  0  0
 25 11  1  0  0  0  0
M  END
>  <HBA>
1

>  <HBD>
1

>  <TPSA>
20.23

>  <cid>
19994

>  <dipole>
1.07

>  <excitation_energy_1>
5.017

>  <excitation_energy_2>
5.165

>  <excitation_energy_3>
5.701

>  <excitation_energy_4>
5.781

>  <homo_energy>
-5.856

>  <homo_lumo_gap>
5.962

>  <logP>
2.735

>  <lumo_energy>
0.106

>  <melting_point>
46.13

>  <molecular_refractivity>
47.85

>  <oscillator_strength_1>
0.0369

>  <oscillator_strength_2>
0.0

>  <oscillator_strength_3>
0.014

>  <oscillator_strength_4>
0.0044

>  <open_babel_can_smiles>
CCCCc1cccc(c1)O

>  <mulliken_charges>
25
1   -0.44155
2   -0.246081
3   -0.241997
4   -0.132864
5   -0.349517
6   -0.185525
7   -0.198178
8   -0.216211
9   0.169639
10   0.353245
11   -0.644997
12   0.141884
13   0.14296
14   0.142168
15   0.131034
16   0.130193
17   0.134332
18   0.136305
19   0.128032
20   0.140435
21   0.138478
22   0.117691
23   0.114306
24   0.13052
25   0.405698

>  <lowdin_charges>
25
1   -0.444313
2   -0.273083
3   -0.271848
4   -0.145384
5   -0.272784
6   -0.189895
7   -0.221242
8   -0.200017
9   0.013231
10   0.105678
11   -0.381446
12   0.149087
13   0.146415
14   0.147947
15   0.140183
16   0.137741
17   0.142733
18   0.141646
19   0.158108
20   0.148949
21   0.146176
22   0.151746
23   0.151314
24   0.164005
25   0.355055

$$$$

