PCCDB-ID:  7471
public computational chemistry database (PCCDB) project, http://pccdb.org

 23 23  0  0  0  0  0  0  0  0999 V2000
    0.8420   -0.1170    0.1224 C   0  0  0  0  0  0  0  0  0  0  0  0
    7.2888    1.2331   -0.2612 C   0  0  0  0  0  0  0  0  0  0  0  0
    7.2402   -1.0777   -1.1689 C   0  0  0  0  0  0  0  0  0  0  0  0
    3.0545   -1.1947   -0.5100 C   0  0  0  0  0  0  0  0  0  0  0  0
    3.1008    1.0228    0.3606 C   0  0  0  0  0  0  0  0  0  0  0  0
    4.4387   -1.1779   -0.6592 C   0  0  0  0  0  0  0  0  0  0  0  0
    4.4857    1.0621    0.2202 C   0  0  0  0  0  0  0  0  0  0  0  0
    2.3478   -0.0995   -0.0008 C   0  0  0  0  0  0  0  0  0  0  0  0
    5.1975   -0.0467   -0.2870 C   0  0  0  0  0  0  0  0  0  0  0  0
    6.5892   -0.0323   -0.3988 N   0  0  0  0  0  0  0  0  0  0  0  0
    0.4673   -1.1263    0.3275 H   0  0  0  0  0  0  0  0  0  0  0  0
    0.3525    0.2270   -0.7996 H   0  0  0  0  0  0  0  0  0  0  0  0
    0.4984    0.5367    0.9320 H   0  0  0  0  0  0  0  0  0  0  0  0
    8.3620    1.0612   -0.3702 H   0  0  0  0  0  0  0  0  0  0  0  0
    7.1256    1.6642    0.7334 H   0  0  0  0  0  0  0  0  0  0  0  0
    6.9812    1.9825   -1.0100 H   0  0  0  0  0  0  0  0  0  0  0  0
    8.3202   -0.9156   -1.1483 H   0  0  0  0  0  0  0  0  0  0  0  0
    6.9153   -1.1063   -2.2227 H   0  0  0  0  0  0  0  0  0  0  0  0
    7.0486   -2.0639   -0.7305 H   0  0  0  0  0  0  0  0  0  0  0  0
    2.5112   -2.0908   -0.8043 H   0  0  0  0  0  0  0  0  0  0  0  0
    2.5944    1.8988    0.7619 H   0  0  0  0  0  0  0  0  0  0  0  0
    4.9259   -2.0579   -1.0623 H   0  0  0  0  0  0  0  0  0  0  0  0
    5.0102    1.9631    0.5160 H   0  0  0  0  0  0  0  0  0  0  0  0
  1 11  1  0  0  0  0
  1 13  1  0  0  0  0
  2 15  1  0  0  0  0
  3 17  1  0  0  0  0
  3 19  1  0  0  0  0
  3 10  1  0  0  0  0
  4  8  1  0  0  0  0
  5 21  1  0  0  0  0
  6  4  2  0  0  0  0
  6  9  1  0  0  0  0
  7  5  1  0  0  0  0
  7 23  1  0  0  0  0
  8  1  1  0  0  0  0
  8  5  2  0  0  0  0
  9  7  2  0  0  0  0
 10  9  1  0  0  0  0
 10  2  1  0  0  0  0
 12  1  1  0  0  0  0
 14  2  1  0  0  0  0
 16  2  1  0  0  0  0
 18  3  1  0  0  0  0
 20  4  1  0  0  0  0
 22  6  1  0  0  0  0
M  END
>  <HBA>
1

>  <HBD>
0

>  <TPSA>
3.24

>  <cid>
7471

>  <dipole>
1.56

>  <excitation_energy_1>
4.389

>  <excitation_energy_2>
4.424

>  <excitation_energy_3>
4.965

>  <excitation_energy_4>
4.996

>  <homo_energy>
-4.895

>  <homo_lumo_gap>
5.265

>  <logP>
2.061

>  <lumo_energy>
0.37

>  <melting_point>
17.5

>  <molecular_refractivity>
45.62

>  <oscillator_strength_1>
0.0418

>  <oscillator_strength_2>
0.028

>  <oscillator_strength_3>
0.0148

>  <oscillator_strength_4>
0.0003

>  <open_babel_can_smiles>
Cc1ccc(cc1)N(C)C

>  <mulliken_charges>
23
1   -0.529608
2   -0.308567
3   -0.308698
4   -0.191226
5   -0.191673
6   -0.191394
7   -0.191545
8   0.180151
9   0.358942
10   -0.470739
11   0.151023
12   0.157335
13   0.150709
14   0.151175
15   0.162019
16   0.146631
17   0.151193
18   0.146733
19   0.162028
20   0.113941
21   0.113906
22   0.118843
23   0.11882

>  <lowdin_charges>
23
1   -0.442126
2   -0.349238
3   -0.346506
4   -0.159138
5   -0.159521
6   -0.208097
7   -0.208313
8   -0.027685
9   0.055027
10   -0.124573
11   0.153898
12   0.156096
13   0.155219
14   0.153398
15   0.152141
16   0.139311
17   0.153288
18   0.136811
19   0.152022
20   0.15135
21   0.151506
22   0.157655
23   0.157473

$$$$

