PCCDB-ID:  59003
public computational chemistry database (PCCDB) project, http://pccdb.org

 24 25  0  0  0  0  0  0  0  0999 V2000
    0.8818   -0.0306   -0.1339 C   0  0  0  0  0  0  0  0  0  0  0  0
    2.8627    2.5810   -0.0258 C   0  0  0  0  0  0  0  0  0  0  0  0
    4.1112   -3.3833   -0.0018 C   0  0  0  0  0  0  0  0  0  0  0  0
    3.0138   -2.5342   -0.0590 C   0  0  0  0  0  0  0  0  0  0  0  0
    5.4303   -2.8869    0.0114 C   0  0  0  0  0  0  0  0  0  0  0  0
    2.3799    0.0127   -0.0842 C   0  0  0  0  0  0  0  0  0  0  0  0
    3.1934    1.1228   -0.0523 C   0  0  0  0  0  0  0  0  0  0  0  0
    3.2443   -1.1457   -0.0717 C   0  0  0  0  0  0  0  0  0  0  0  0
    5.6904   -1.5165   -0.0205 C   0  0  0  0  0  0  0  0  0  0  0  0
    4.5737   -0.6678   -0.0437 C   0  0  0  0  0  0  0  0  0  0  0  0
    6.9912   -0.9601    0.0246 N   0  0  0  0  0  0  0  0  0  0  0  0
    4.5268    0.7157   -0.0726 N   0  0  0  0  0  0  0  0  0  0  0  0
    0.4406    0.9706   -0.0974 H   0  0  0  0  0  0  0  0  0  0  0  0
    0.4699   -0.6011    0.7092 H   0  0  0  0  0  0  0  0  0  0  0  0
    0.5204   -0.5143   -1.0515 H   0  0  0  0  0  0  0  0  0  0  0  0
    1.7810    2.7331   -0.0024 H   0  0  0  0  0  0  0  0  0  0  0  0
    3.2543    3.1032   -0.9090 H   0  0  0  0  0  0  0  0  0  0  0  0
    3.2834    3.0776    0.8598 H   0  0  0  0  0  0  0  0  0  0  0  0
    3.9598   -4.4595    0.0169 H   0  0  0  0  0  0  0  0  0  0  0  0
    2.0034   -2.9329   -0.0817 H   0  0  0  0  0  0  0  0  0  0  0  0
    6.2664   -3.5830    0.0332 H   0  0  0  0  0  0  0  0  0  0  0  0
    7.7118   -1.6721   -0.0434 H   0  0  0  0  0  0  0  0  0  0  0  0
    7.1428   -0.2767   -0.7139 H   0  0  0  0  0  0  0  0  0  0  0  0
    5.2912    1.2999    0.2351 H   0  0  0  0  0  0  0  0  0  0  0  0
  1 13  1  0  0  0  0
  1  6  1  0  0  0  0
  1 14  1  0  0  0  0
  2 16  1  0  0  0  0
  2 18  1  0  0  0  0
  3  5  2  0  0  0  0
  3 19  1  0  0  0  0
  4  3  1  0  0  0  0
  5 21  1  0  0  0  0
  6  8  1  0  0  0  0
  6  7  2  0  0  0  0
  7  2  1  0  0  0  0
  8  4  2  0  0  0  0
  8 10  1  0  0  0  0
  9  5  1  0  0  0  0
  9 11  1  0  0  0  0
 10  9  2  0  0  0  0
 12  7  1  0  0  0  0
 12 10  1  0  0  0  0
 12 24  1  0  0  0  0
 15  1  1  0  0  0  0
 17  2  1  0  0  0  0
 20  4  1  0  0  0  0
 22 11  1  0  0  0  0
 23 11  1  0  0  0  0
M  END
>  <HBA>
1

>  <HBD>
2

>  <TPSA>
41.81

>  <cid>
59003

>  <dipole>
2.48

>  <excitation_energy_1>
4.198

>  <excitation_energy_2>
4.587

>  <excitation_energy_3>
4.71

>  <excitation_energy_4>
4.751

>  <homo_energy>
-4.857

>  <homo_lumo_gap>
5.151

>  <logP>
2.948

>  <lumo_energy>
0.294

>  <melting_point>
154.76

>  <molecular_refractivity>
52.64

>  <oscillator_strength_1>
0.0059

>  <oscillator_strength_2>
0.0936

>  <oscillator_strength_3>
0.0124

>  <oscillator_strength_4>
0.0395

>  <open_babel_can_smiles>
Cc1[nH]c2c(c1C)cccc2N

>  <mulliken_charges>
24
1   -0.534431
2   -0.539547
3   -0.141428
4   -0.219348
5   -0.206695
6   0.045101
7   0.288867
8   0.096342
9   0.262628
10   0.264431
11   -0.803044
12   -0.743623
13   0.146475
14   0.156718
15   0.156297
16   0.17022
17   0.163108
18   0.156642
19   0.114109
20   0.113354
21   0.104436
22   0.316053
23   0.310869
24   0.322468

>  <lowdin_charges>
24
1   -0.438736
2   -0.445549
3   -0.165902
4   -0.187053
5   -0.214142
6   -0.069031
7   0.019355
8   -0.028436
9   0.026454
10   0.008687
11   -0.509172
12   -0.225549
13   0.152392
14   0.15726
15   0.156071
16   0.165742
17   0.160758
18   0.157784
19   0.15012
20   0.152252
21   0.148969
22   0.271421
23   0.268643
24   0.287662

$$$$

