PCCDB-ID:  30947
public computational chemistry database (PCCDB) project, http://pccdb.org

 35 35  0  0  0  0  0  0  0  0999 V2000
    1.1901   -0.3788    0.9794 C   0  0  0  0  0  0  0  0  0  0  0  0
   10.8920    5.5088   -0.4460 C   0  0  0  0  0  0  0  0  0  0  0  0
    8.8917    5.9885   -1.6786 C   0  0  0  0  0  0  0  0  0  0  0  0
    2.7072   -0.4187    0.9033 C   0  0  0  0  0  0  0  0  0  0  0  0
    6.3143    2.7447    1.4357 C   0  0  0  0  0  0  0  0  0  0  0  0
    6.8623    0.4680    0.8930 C   0  0  0  0  0  0  0  0  0  0  0  0
    4.9640    2.4129    1.4308 C   0  0  0  0  0  0  0  0  0  0  0  0
    5.5079    0.1311    0.8893 C   0  0  0  0  0  0  0  0  0  0  0  0
    9.2067    3.3915    1.0474 C   0  0  0  0  0  0  0  0  0  0  0  0
    9.0195    3.9609   -0.3722 C   0  0  0  0  0  0  0  0  0  0  0  0
    7.2985    1.7731    1.1684 C   0  0  0  0  0  0  0  0  0  0  0  0
    4.5425    1.1066    1.1589 C   0  0  0  0  0  0  0  0  0  0  0  0
    8.6724    2.0493    1.2297 N   0  0  0  0  0  0  0  0  0  0  0  0
    9.4434    5.3542   -0.4880 N   0  0  0  0  0  0  0  0  0  0  0  0
    3.1867    0.8922    1.1757 O   0  0  0  0  0  0  0  0  0  0  0  0
    0.7746   -1.3714    0.7738 H   0  0  0  0  0  0  0  0  0  0  0  0
    0.7867    0.3264    0.2459 H   0  0  0  0  0  0  0  0  0  0  0  0
    0.8630   -0.0638    1.9753 H   0  0  0  0  0  0  0  0  0  0  0  0
   11.1473    6.5728   -0.4939 H   0  0  0  0  0  0  0  0  0  0  0  0
   11.4070    4.9959   -1.2837 H   0  0  0  0  0  0  0  0  0  0  0  0
   11.2959    5.1156    0.4915 H   0  0  0  0  0  0  0  0  0  0  0  0
    9.1698    7.0483   -1.6923 H   0  0  0  0  0  0  0  0  0  0  0  0
    7.7986    5.9246   -1.6605 H   0  0  0  0  0  0  0  0  0  0  0  0
    9.2466    5.5321   -2.6242 H   0  0  0  0  0  0  0  0  0  0  0  0
    3.0388   -0.7423   -0.0950 H   0  0  0  0  0  0  0  0  0  0  0  0
    3.1159   -1.1303    1.6367 H   0  0  0  0  0  0  0  0  0  0  0  0
    6.5996    3.7686    1.6545 H   0  0  0  0  0  0  0  0  0  0  0  0
    7.5982   -0.3062    0.6830 H   0  0  0  0  0  0  0  0  0  0  0  0
    4.2113    3.1679    1.6373 H   0  0  0  0  0  0  0  0  0  0  0  0
    5.2238   -0.8924    0.6719 H   0  0  0  0  0  0  0  0  0  0  0  0
    8.7405    4.0721    1.7673 H   0  0  0  0  0  0  0  0  0  0  0  0
   10.2683    3.3464    1.3130 H   0  0  0  0  0  0  0  0  0  0  0  0
    7.9527    3.9117   -0.6158 H   0  0  0  0  0  0  0  0  0  0  0  0
    9.5406    3.3041   -1.1007 H   0  0  0  0  0  0  0  0  0  0  0  0
    9.2351    1.3321    0.7886 H   0  0  0  0  0  0  0  0  0  0  0  0
  1 18  1  0  0  0  0
  2 21  1  0  0  0  0
  3 23  1  0  0  0  0
  3 14  1  0  0  0  0
  4  1  1  0  0  0  0
  4 15  1  0  0  0  0
  4 26  1  0  0  0  0
  5 27  1  0  0  0  0
  6 11  1  0  0  0  0
  7  5  1  0  0  0  0
  7 29  1  0  0  0  0
  8  6  2  0  0  0  0
  8 12  1  0  0  0  0
  9 13  1  0  0  0  0
  9 32  1  0  0  0  0
  9 31  1  0  0  0  0
 10  9  1  0  0  0  0
 11 13  1  0  0  0  0
 11  5  2  0  0  0  0
 12 15  1  0  0  0  0
 12  7  2  0  0  0  0
 14  2  1  0  0  0  0
 14 10  1  0  0  0  0
 16  1  1  0  0  0  0
 17  1  1  0  0  0  0
 19  2  1  0  0  0  0
 20  2  1  0  0  0  0
 22  3  1  0  0  0  0
 24  3  1  0  0  0  0
 25  4  1  0  0  0  0
 28  6  1  0  0  0  0
 30  8  1  0  0  0  0
 33 10  1  0  0  0  0
 34 10  1  0  0  0  0
 35 13  1  0  0  0  0
M  END
>  <HBA>
3

>  <HBD>
1

>  <TPSA>
24.5

>  <cid>
30947

>  <dipole>
2.09

>  <excitation_energy_1>
4.17

>  <excitation_energy_2>
4.281

>  <excitation_energy_3>
4.673

>  <excitation_energy_4>
4.729

>  <homo_energy>
-4.729

>  <homo_lumo_gap>
4.961

>  <logP>
2.132

>  <lumo_energy>
0.231

>  <melting_point>
43.96

>  <molecular_refractivity>
64.36

>  <oscillator_strength_1>
0.0379

>  <oscillator_strength_2>
0.0126

>  <oscillator_strength_3>
0.0009

>  <oscillator_strength_4>
0.0199

>  <open_babel_can_smiles>
CCOc1ccc(cc1)NCCN(C)C

>  <mulliken_charges>
35
1   -0.455607
2   -0.30227
3   -0.294468
4   -0.023059
5   -0.18406
6   -0.207487
7   -0.187687
8   -0.196903
9   -0.151684
10   -0.118218
11   0.347331
12   0.37256
13   -0.646919
14   -0.367401
15   -0.525788
16   0.144623
17   0.161169
18   0.161748
19   0.150313
20   0.116404
21   0.151969
22   0.147087
23   0.152361
24   0.117648
25   0.133883
26   0.135001
27   0.129631
28   0.11231
29   0.132313
30   0.127763
31   0.16446
32   0.143222
33   0.152073
34   0.10062
35   0.307063

>  <lowdin_charges>
35
1   -0.447753
2   -0.358404
3   -0.351649
4   -0.124072
5   -0.19502
6   -0.19554
7   -0.173994
8   -0.201788
9   -0.206698
10   -0.217099
11   0.044767
12   0.079549
13   -0.304327
14   -0.183639
15   -0.213437
16   0.154585
17   0.15973
18   0.158467
19   0.14991
20   0.12044
21   0.149796
22   0.147353
23   0.149083
24   0.120208
25   0.133375
26   0.135804
27   0.158796
28   0.150951
29   0.165043
30   0.159383
31   0.155292
32   0.145848
33   0.15125
34   0.113869
35   0.269923

$$$$

