PCCDB-ID:  66035
public computational chemistry database (PCCDB) project, http://pccdb.org

 20 20  0  0  0  0  0  0  0  0999 V2000
    0.8492    0.0290    0.1535 C   0  0  0  0  0  0  0  0  0  0  0  0
    2.9899   -1.3275    0.0407 C   0  0  0  0  0  0  0  0  0  0  0  0
    3.1232    1.0371   -0.3409 C   0  0  0  0  0  0  0  0  0  0  0  0
    4.3650   -1.4365   -0.1729 C   0  0  0  0  0  0  0  0  0  0  0  0
    4.4964    0.9322   -0.5498 C   0  0  0  0  0  0  0  0  0  0  0  0
    6.6399   -0.4267   -0.6545 C   0  0  0  0  0  0  0  0  0  0  0  0
    2.3432   -0.0895   -0.0421 C   0  0  0  0  0  0  0  0  0  0  0  0
    5.1397   -0.3101   -0.4655 C   0  0  0  0  0  0  0  0  0  0  0  0
    7.1220    0.4601   -1.7209 N   0  0  0  0  0  0  0  0  0  0  0  0
    0.4506   -0.8189    0.7205 H   0  0  0  0  0  0  0  0  0  0  0  0
    0.3201    0.0564   -0.8087 H   0  0  0  0  0  0  0  0  0  0  0  0
    0.5865    0.9472    0.6910 H   0  0  0  0  0  0  0  0  0  0  0  0
    2.4108   -2.2198    0.2694 H   0  0  0  0  0  0  0  0  0  0  0  0
    2.6460    2.0130   -0.4081 H   0  0  0  0  0  0  0  0  0  0  0  0
    4.8414   -2.4131   -0.1084 H   0  0  0  0  0  0  0  0  0  0  0  0
    5.0859    1.8118   -0.7900 H   0  0  0  0  0  0  0  0  0  0  0  0
    6.8941   -1.4918   -0.8017 H   0  0  0  0  0  0  0  0  0  0  0  0
    7.1502   -0.1191    0.2696 H   0  0  0  0  0  0  0  0  0  0  0  0
    6.7466    0.1505   -2.6164 H   0  0  0  0  0  0  0  0  0  0  0  0
    8.1359    0.3928   -1.7916 H   0  0  0  0  0  0  0  0  0  0  0  0
  1 12  1  0  0  0  0
  1 10  1  0  0  0  0
  2 13  1  0  0  0  0
  3  7  2  0  0  0  0
  4 15  1  0  0  0  0
  4  2  2  0  0  0  0
  5  8  2  0  0  0  0
  5  3  1  0  0  0  0
  6  8  1  0  0  0  0
  6 18  1  0  0  0  0
  7  2  1  0  0  0  0
  7  1  1  0  0  0  0
  8  4  1  0  0  0  0
  9  6  1  0  0  0  0
 11  1  1  0  0  0  0
 14  3  1  0  0  0  0
 16  5  1  0  0  0  0
 17  6  1  0  0  0  0
 19  9  1  0  0  0  0
 20  9  1  0  0  0  0
M  END
>  <HBA>
1

>  <HBD>
1

>  <TPSA>
26.02

>  <cid>
66035

>  <dipole>
1.23

>  <excitation_energy_1>
5.14

>  <excitation_energy_2>
5.397

>  <excitation_energy_3>
5.725

>  <excitation_energy_4>
5.745

>  <homo_energy>
-6.065

>  <homo_lumo_gap>
6.272

>  <logP>
2.154

>  <lumo_energy>
0.207

>  <melting_point>
66.24

>  <molecular_refractivity>
39.08

>  <oscillator_strength_1>
0.0021

>  <oscillator_strength_2>
0.0573

>  <oscillator_strength_3>
0.0412

>  <oscillator_strength_4>
0.0004

>  <open_babel_can_smiles>
NCc1ccc(cc1)C

>  <mulliken_charges>
20
1   -0.529017
2   -0.181193
3   -0.180968
4   -0.186152
5   -0.165033
6   -0.208941
7   0.178219
8   0.143801
9   -0.714371
10   0.153427
11   0.162845
12   0.156501
13   0.11721
14   0.118394
15   0.116553
16   0.147586
17   0.119875
18   0.15573
19   0.297943
20   0.29759

>  <lowdin_charges>
20
1   -0.443516
2   -0.170861
3   -0.166854
4   -0.168312
5   -0.157617
6   -0.199908
7   -0.001706
8   -0.019759
9   -0.552457
10   0.156787
11   0.160045
12   0.158022
13   0.152682
14   0.152119
15   0.151072
16   0.168494
17   0.121478
18   0.151587
19   0.255081
20   0.253625

$$$$

