PCCDB-ID:  73082
public computational chemistry database (PCCDB) project, http://pccdb.org

 24 24  0  0  0  0  0  0  0  0999 V2000
    1.9869   -1.7091   -0.3398 N   0  0  0  0  0  0  0  0  0  0  0  0
    3.7912   -0.1429   -1.2064 N   0  0  0  0  0  0  0  0  0  0  0  0
    2.4877    3.4865    0.8012 N   0  0  0  0  0  0  0  0  0  0  0  0
    0.1195    2.5581    1.6488 N   0  0  0  0  0  0  0  0  0  0  0  0
    4.8379    1.1448    3.2388 N   0  0  0  0  0  0  0  0  0  0  0  0
    3.2306   -0.6192    4.1494 N   0  0  0  0  0  0  0  0  0  0  0  0
    1.8227    1.0562    0.0623 N   0  0  0  0  0  0  0  0  0  0  0  0
    3.4360   -0.6060    1.5423 N   0  0  0  0  0  0  0  0  0  0  0  0
    2.2837    1.5801    2.7407 N   0  0  0  0  0  0  0  0  0  0  0  0
    2.7473   -0.2728    0.1184 P   0  0  0  0  0  0  0  0  0  0  0  0
    1.7117    2.0664    1.3201 P   0  0  0  0  0  0  0  0  0  0  0  0
    3.3835    0.3925    2.8138 P   0  0  0  0  0  0  0  0  0  0  0  0
    1.4516   -1.6293   -1.1994 H   0  0  0  0  0  0  0  0  0  0  0  0
    1.4373   -2.1273    0.4035 H   0  0  0  0  0  0  0  0  0  0  0  0
    4.4791   -0.8893   -1.2562 H   0  0  0  0  0  0  0  0  0  0  0  0
    4.2297    0.7694   -1.2805 H   0  0  0  0  0  0  0  0  0  0  0  0
    2.3774    3.6586   -0.1934 H   0  0  0  0  0  0  0  0  0  0  0  0
    2.2517    4.3116    1.3460 H   0  0  0  0  0  0  0  0  0  0  0  0
   -0.4243    2.7271    0.8058 H   0  0  0  0  0  0  0  0  0  0  0  0
   -0.3642    1.8928    2.2462 H   0  0  0  0  0  0  0  0  0  0  0  0
    4.9937    2.0106    2.7317 H   0  0  0  0  0  0  0  0  0  0  0  0
    5.6504    0.5358    3.2036 H   0  0  0  0  0  0  0  0  0  0  0  0
    2.5133   -1.3286    4.0445 H   0  0  0  0  0  0  0  0  0  0  0  0
    3.1445   -0.1213    5.0301 H   0  0  0  0  0  0  0  0  0  0  0  0
  1 10  1  0  0  0  0
  1 14  1  0  0  0  0
  2 10  1  0  0  0  0
  3 11  1  0  0  0  0
  3 18  1  0  0  0  0
  4 20  1  0  0  0  0
  6 24  1  0  0  0  0
  7 10  1  0  0  0  0
  7 11  1  0  0  0  0
  8 12  1  0  0  0  0
  9 12  1  0  0  0  0
 10  8  1  0  0  0  0
 11  4  1  0  0  0  0
 11  9  1  0  0  0  0
 12  5  1  0  0  0  0
 12  6  1  0  0  0  0
 13  1  1  0  0  0  0
 15  2  1  0  0  0  0
 16  2  1  0  0  0  0
 17  3  1  0  0  0  0
 19  4  1  0  0  0  0
 21  5  1  0  0  0  0
 22  5  1  0  0  0  0
 23  6  1  0  0  0  0
M  RAD  3   7   2   8   2   9   2
M  END
>  <HBA>
9

>  <HBD>
6

>  <TPSA>
222.63

>  <cid>
73082

>  <dipole>
1.67

>  <excitation_energy_1>
5.238

>  <excitation_energy_2>
5.397

>  <excitation_energy_3>
5.535

>  <excitation_energy_4>
5.77

>  <homo_energy>
-6.025

>  <homo_lumo_gap>
7.573

>  <logP>
2.099

>  <lumo_energy>
1.548

>  <melting_point>
316.13

>  <molecular_refractivity>
60.61

>  <oscillator_strength_1>
0.0004

>  <oscillator_strength_2>
0.0042

>  <oscillator_strength_3>
0.004

>  <oscillator_strength_4>
0.007

>  <open_babel_can_smiles>
NP1(N)[N]P(N)(N)[N]P([N]1)(N)N

>  <mulliken_charges>
24
1   -0.797967
2   -0.803672
3   -0.825244
4   -0.799536
5   -0.814468
6   -0.792526
7   -0.684827
8   -0.667909
9   -0.67248
10   0.943277
11   0.958672
12   0.95307
13   0.337727
14   0.328931
15   0.337258
16   0.329056
17   0.331468
18   0.332656
19   0.327828
20   0.333766
21   0.337947
22   0.334566
23   0.331157
24   0.341252

>  <lowdin_charges>
24
1   -0.697408
2   -0.700856
3   -0.713245
4   -0.709565
5   -0.70371
6   -0.690071
7   -0.76107
8   -0.750304
9   -0.743576
10   1.001777
11   0.998429
12   1.001147
13   0.290972
14   0.287748
15   0.291027
16   0.286039
17   0.287207
18   0.28809
19   0.283934
20   0.291146
21   0.29096
22   0.289572
23   0.288692
24   0.293068

$$$$

