PCCDB-ID:  402
public computational chemistry database (PCCDB) project, http://pccdb.org

  3  2  0  0  0  0  0  0  0  0999 V2000
    0.9759   -0.0954   -0.1212 S   0  0  0  0  0  0  0  0  0  0  0  0
    2.3111    0.0065    0.0463 H   0  0  0  0  0  0  0  0  0  0  0  0
    0.7158    0.5932    1.0101 H   0  0  0  0  0  0  0  0  0  0  0  0
  1  2  1  0  0  0  0
  1  3  1  0  0  0  0
M  END
>  <HBA>
1

>  <HBD>
1

>  <TPSA>
25.3

>  <cid>
402

>  <dipole>
1.43

>  <excitation_energy_1>
5.806

>  <excitation_energy_2>
6.13

>  <excitation_energy_3>
7.548

>  <excitation_energy_4>
7.797

>  <homo_energy>
-7.116

>  <homo_lumo_gap>
7.649

>  <logP>
0.113

>  <lumo_energy>
0.533

>  <melting_point>
8.97

>  <molecular_refractivity>
10.38

>  <oscillator_strength_1>
0.0728

>  <oscillator_strength_2>
0.0

>  <oscillator_strength_3>
0.0

>  <oscillator_strength_4>
0.0157

>  <open_babel_can_smiles>
S

>  <mulliken_charges>
3
1   -0.235026
2   0.117515
3   0.11751

>  <lowdin_charges>
3
1   -0.256344
2   0.127001
3   0.129343

$$$$

