PCCDB-ID:  70194
public computational chemistry database (PCCDB) project, http://pccdb.org

 16 15  0  0  0  0  0  0  0  0999 V2000
    1.2366   -0.1454   -0.0947 C   0  0  0  0  0  0  0  0  0  0  0  0
    3.6174   -0.5387   -1.0001 C   0  0  0  0  0  0  0  0  0  0  0  0
    2.7259   -0.0385    0.1615 C   0  0  0  0  0  0  0  0  0  0  0  0
    3.1552    1.4014    0.4598 N   0  0  0  0  0  0  0  0  0  0  0  0
    3.0529   -0.8078    1.4532 N   0  0  0  0  0  0  0  0  0  0  0  0
    3.2570   -1.8256   -1.4276 O   0  0  0  0  0  0  0  0  0  0  0  0
    4.2818    1.5329    0.9247 O   0  0  0  0  0  0  0  0  0  0  0  0
    2.3854    2.2993    0.1527 O   0  0  0  0  0  0  0  0  0  0  0  0
    3.6986   -1.8487    1.3434 O   0  0  0  0  0  0  0  0  0  0  0  0
    2.6022   -0.3526    2.4904 O   0  0  0  0  0  0  0  0  0  0  0  0
    0.9741    0.4728   -0.9551 H   0  0  0  0  0  0  0  0  0  0  0  0
    0.6693    0.1914    0.7747 H   0  0  0  0  0  0  0  0  0  0  0  0
    0.9963   -1.1862   -0.3233 H   0  0  0  0  0  0  0  0  0  0  0  0
    4.6658   -0.4667   -0.6885 H   0  0  0  0  0  0  0  0  0  0  0  0
    3.4573    0.1414   -1.8431 H   0  0  0  0  0  0  0  0  0  0  0  0
    3.5477   -2.4327   -0.7255 H   0  0  0  0  0  0  0  0  0  0  0  0
  1  3  1  0  0  0  0
  1 12  1  0  0  0  0
  2 14  1  0  0  0  0
  2  3  1  0  0  0  0
  3  4  1  0  0  0  0
  3  5  1  0  0  0  0
  4  7  2  0  0  0  0
  5 10  2  0  0  0  0
  6  2  1  0  0  0  0
  6 16  1  0  0  0  0
  8  4  2  0  0  0  0
  9  5  2  0  0  0  0
 11  1  1  0  0  0  0
 13  1  1  0  0  0  0
 15  2  1  0  0  0  0
M  END
>  <HBA>
1

>  <HBD>
1

>  <TPSA>
111.87

>  <cid>
70194

>  <dipole>
2.55

>  <excitation_energy_1>
4.095

>  <excitation_energy_2>
4.119

>  <excitation_energy_3>
4.28

>  <excitation_energy_4>
4.305

>  <homo_energy>
-8.332

>  <homo_lumo_gap>
5.459

>  <logP>
0.295

>  <lumo_energy>
-2.874

>  <melting_point>
66.58

>  <molecular_refractivity>
33.94

>  <oscillator_strength_1>
0.0002

>  <oscillator_strength_2>
0.0001

>  <oscillator_strength_3>
0.0001

>  <oscillator_strength_4>
0.0034

>  <open_babel_can_smiles>
OCC(N(=O)=O)(N(=O)=O)C

>  <mulliken_charges>
16
1   -0.450966
2   -0.035395
3   0.174504
4   0.48054
5   0.490458
6   -0.603399
7   -0.350694
8   -0.358299
9   -0.383419
10   -0.336193
11   0.196974
12   0.199165
13   0.194255
14   0.182507
15   0.17956
16   0.420403

>  <lowdin_charges>
16
1   -0.444745
2   -0.143404
3   0.061949
4   0.290901
5   0.295315
6   -0.443184
7   -0.219485
8   -0.207528
9   -0.228809
10   -0.199091
11   0.186378
12   0.183102
13   0.182017
14   0.161651
15   0.171122
16   0.35381

$$$$

