PCCDB-ID:  46194
public computational chemistry database (PCCDB) project, http://pccdb.org

 23 23  0  0  0  0  0  0  0  0999 V2000
    1.4133   -0.8210    0.7089 C   0  0  0  0  0  0  0  0  0  0  0  0
    3.4146   -4.8527   -3.7463 C   0  0  0  0  0  0  0  0  0  0  0  0
    4.8194   -0.8171   -2.9729 C   0  0  0  0  0  0  0  0  0  0  0  0
    4.0579   -0.1304   -2.0314 C   0  0  0  0  0  0  0  0  0  0  0  0
    4.7124   -2.2008   -3.1011 C   0  0  0  0  0  0  0  0  0  0  0  0
    3.0589   -2.2320   -1.3398 C   0  0  0  0  0  0  0  0  0  0  0  0
    2.3744   -0.0697   -0.1988 C   0  0  0  0  0  0  0  0  0  0  0  0
    3.1764   -0.8406   -1.2063 C   0  0  0  0  0  0  0  0  0  0  0  0
    3.8194   -2.9220   -2.2903 C   0  0  0  0  0  0  0  0  0  0  0  0
    3.7701   -4.3424   -2.4193 N   0  0  0  0  0  0  0  0  0  0  0  0
    2.4886    1.1435   -0.1083 O   0  0  0  0  0  0  0  0  0  0  0  0
    2.8123   -4.9028   -1.5083 O   0  0  0  0  0  0  0  0  0  0  0  0
    0.6462   -1.3431    0.1246 H   0  0  0  0  0  0  0  0  0  0  0  0
    0.9332   -0.1043    1.3773 H   0  0  0  0  0  0  0  0  0  0  0  0
    1.9392   -1.5771    1.3039 H   0  0  0  0  0  0  0  0  0  0  0  0
    4.0997   -4.4372   -4.4879 H   0  0  0  0  0  0  0  0  0  0  0  0
    2.3828   -4.5917   -4.0221 H   0  0  0  0  0  0  0  0  0  0  0  0
    3.5224   -5.9397   -3.7390 H   0  0  0  0  0  0  0  0  0  0  0  0
    5.5136   -0.2764   -3.6106 H   0  0  0  0  0  0  0  0  0  0  0  0
    4.1338    0.9446   -1.9115 H   0  0  0  0  0  0  0  0  0  0  0  0
    5.3396   -2.7252   -3.8157 H   0  0  0  0  0  0  0  0  0  0  0  0
    2.3778   -2.7967   -0.7185 H   0  0  0  0  0  0  0  0  0  0  0  0
    3.3752   -5.3903   -0.8845 H   0  0  0  0  0  0  0  0  0  0  0  0
  1 15  1  0  0  0  0
  1 14  1  0  0  0  0
  2 18  1  0  0  0  0
  2 10  1  0  0  0  0
  3  4  1  0  0  0  0
  4 20  1  0  0  0  0
  4  8  2  0  0  0  0
  5  3  2  0  0  0  0
  5  9  1  0  0  0  0
  6  8  1  0  0  0  0
  6 22  1  0  0  0  0
  7 11  2  0  0  0  0
  7  1  1  0  0  0  0
  8  7  1  0  0  0  0
  9  6  2  0  0  0  0
 10  9  1  0  0  0  0
 10 12  1  0  0  0  0
 12 23  1  0  0  0  0
 13  1  1  0  0  0  0
 16  2  1  0  0  0  0
 17  2  1  0  0  0  0
 19  3  1  0  0  0  0
 21  5  1  0  0  0  0
M  END
>  <HBA>
3

>  <HBD>
1

>  <TPSA>
40.54

>  <cid>
46194

>  <dipole>
4.07

>  <excitation_energy_1>
3.703

>  <excitation_energy_2>
3.873

>  <excitation_energy_3>
4.948

>  <excitation_energy_4>
5.146

>  <homo_energy>
-5.867

>  <homo_lumo_gap>
4.509

>  <logP>
1.715

>  <lumo_energy>
-1.358

>  <melting_point>
103.13

>  <molecular_refractivity>
46.77

>  <oscillator_strength_1>
0.0047

>  <oscillator_strength_2>
0.0329

>  <oscillator_strength_3>
0.0287

>  <oscillator_strength_4>
0.0617

>  <open_babel_can_smiles>
CN(c1cccc(c1)C(=O)C)O

>  <mulliken_charges>
23
1   -0.540702
2   -0.287828
3   -0.138284
4   -0.162004
5   -0.161102
6   -0.23676
7   0.407592
8   0.073942
9   0.303655
10   -0.292514
11   -0.454444
12   -0.511423
13   0.173165
14   0.178758
15   0.16854
16   0.160876
17   0.156949
18   0.162004
19   0.13585
20   0.159419
21   0.13538
22   0.151582
23   0.417349

>  <lowdin_charges>
23
1   -0.478751
2   -0.352559
3   -0.150436
4   -0.14389
5   -0.170114
6   -0.185785
7   0.161109
8   -0.044645
9   0.038925
10   -0.043226
11   -0.242811
12   -0.398578
13   0.172282
14   0.174812
15   0.169955
16   0.160971
17   0.145319
18   0.156268
19   0.162418
20   0.173856
21   0.16232
22   0.174798
23   0.35776

$$$$

