PCCDB-ID:  13047
public computational chemistry database (PCCDB) project, http://pccdb.org

 25 26  0  0  0  0  0  0  0  0999 V2000
    2.5374    0.9442    0.0065 C   0  0  0  0  0  0  0  0  0  0  0  0
    2.5648   -0.4686    0.0634 C   0  0  0  0  0  0  0  0  0  0  0  0
   -2.3227    0.8693   -0.0529 C   0  0  0  0  0  0  0  0  0  0  0  0
    1.3308    1.6033   -0.0375 C   0  0  0  0  0  0  0  0  0  0  0  0
   -1.1417    1.5719   -0.0720 C   0  0  0  0  0  0  0  0  0  0  0  0
   -2.3051   -0.5419    0.0186 C   0  0  0  0  0  0  0  0  0  0  0  0
    1.3929   -1.1935    0.0783 C   0  0  0  0  0  0  0  0  0  0  0  0
   -1.1903   -2.7762    0.1090 C   0  0  0  0  0  0  0  0  0  0  0  0
   -1.1086   -3.4533   -1.2740 C   0  0  0  0  0  0  0  0  0  0  0  0
    0.1022    0.8894   -0.0245 C   0  0  0  0  0  0  0  0  0  0  0  0
   -1.1242   -1.2618    0.0620 C   0  0  0  0  0  0  0  0  0  0  0  0
    0.1227   -0.5475    0.0363 C   0  0  0  0  0  0  0  0  0  0  0  0
    0.1534   -3.3193   -1.9106 O   0  0  0  0  0  0  0  0  0  0  0  0
    3.4685    1.5043   -0.0040 H   0  0  0  0  0  0  0  0  0  0  0  0
    3.5188   -0.9879    0.0943 H   0  0  0  0  0  0  0  0  0  0  0  0
   -3.2746    1.3925   -0.0847 H   0  0  0  0  0  0  0  0  0  0  0  0
    1.2976    2.6894   -0.0843 H   0  0  0  0  0  0  0  0  0  0  0  0
   -1.1418    2.6582   -0.1207 H   0  0  0  0  0  0  0  0  0  0  0  0
   -3.2509   -1.0787    0.0482 H   0  0  0  0  0  0  0  0  0  0  0  0
    1.4398   -2.2760    0.0964 H   0  0  0  0  0  0  0  0  0  0  0  0
   -0.4021   -3.1902    0.7475 H   0  0  0  0  0  0  0  0  0  0  0  0
   -2.1457   -3.0710    0.5616 H   0  0  0  0  0  0  0  0  0  0  0  0
   -1.9200   -3.0709   -1.9140 H   0  0  0  0  0  0  0  0  0  0  0  0
   -1.2622   -4.5311   -1.1549 H   0  0  0  0  0  0  0  0  0  0  0  0
    0.2938   -2.3764   -2.0927 H   0  0  0  0  0  0  0  0  0  0  0  0
  1  2  2  0  0  0  0
  2  7  1  0  0  0  0
  2 15  1  0  0  0  0
  3  6  1  0  0  0  0
  4 10  2  0  0  0  0
  4  1  1  0  0  0  0
  5  3  2  0  0  0  0
  5 10  1  0  0  0  0
  6 19  1  0  0  0  0
  6 11  2  0  0  0  0
  7 20  1  0  0  0  0
  8 22  1  0  0  0  0
  8 21  1  0  0  0  0
  9 24  1  0  0  0  0
  9  8  1  0  0  0  0
 10 12  1  0  0  0  0
 11  8  1  0  0  0  0
 12 11  1  0  0  0  0
 12  7  2  0  0  0  0
 13  9  1  0  0  0  0
 14  1  1  0  0  0  0
 16  3  1  0  0  0  0
 17  4  1  0  0  0  0
 18  5  1  0  0  0  0
 23  9  1  0  0  0  0
 25 13  1  0  0  0  0
M  END
>  <HBA>
1

>  <HBD>
1

>  <TPSA>
20.23

>  <cid>
13047

>  <dipole>
1.47

>  <excitation_energy_1>
4.229

>  <excitation_energy_2>
4.386

>  <excitation_energy_3>
5.296

>  <excitation_energy_4>
5.445

>  <homo_energy>
-5.763

>  <homo_lumo_gap>
4.699

>  <logP>
2.375

>  <lumo_energy>
-1.064

>  <melting_point>
70.44

>  <molecular_refractivity>
54.88

>  <oscillator_strength_1>
0.0997

>  <oscillator_strength_2>
0.0016

>  <oscillator_strength_3>
0.0023

>  <oscillator_strength_4>
0.005

>  <open_babel_can_smiles>
OCCc1cccc2c1cccc2

>  <mulliken_charges>
25
1   -0.132261
2   -0.136174
3   -0.128724
4   -0.195118
5   -0.193962
6   -0.200143
7   -0.213522
8   -0.362468
9   -0.026878
10   0.141676
11   0.105237
12   0.053279
13   -0.61404
14   0.131093
15   0.132861
16   0.130595
17   0.130219
18   0.129682
19   0.123286
20   0.154915
21   0.156711
22   0.143747
23   0.12527
24   0.146677
25   0.398044

>  <lowdin_charges>
25
1   -0.158554
2   -0.158618
3   -0.158448
4   -0.154019
5   -0.156556
6   -0.17059
7   -0.167798
8   -0.295817
9   -0.130207
10   0.000346
11   -0.011057
12   -0.017558
13   -0.463716
14   0.159419
15   0.159892
16   0.159119
17   0.155545
18   0.155642
19   0.154864
20   0.166294
21   0.157548
22   0.156024
23   0.129118
24   0.14572
25   0.343404

$$$$

