PCCDB-ID:  7915 
public computational chemistry database (PCCDB) project, http://pccdb.org 
 
 17 16  0  0  0  0  0  0  0  0999 V2000 
    0.6831    0.0461    0.2095 C   0  0  0  0  0  0  0  0  0  0  0  0 
    2.8627    0.0583    1.5322 C   0  0  0  0  0  0  0  0  0  0  0  0 
    3.4165   -1.9971   -2.6247 C   0  0  0  0  0  0  0  0  0  0  0  0 
    2.2040    0.1555    0.1631 C   0  0  0  0  0  0  0  0  0  0  0  0 
    2.7924   -0.7881   -1.9643 C   0  0  0  0  0  0  0  0  0  0  0  0 
    2.4044    0.2012   -2.5483 O   0  0  0  0  0  0  0  0  0  0  0  0 
    2.7459   -0.9478   -0.6221 O   0  0  0  0  0  0  0  0  0  0  0  0 
    0.2645    0.8586    0.8142 H   0  0  0  0  0  0  0  0  0  0  0  0 
    0.3788   -0.9075    0.6557 H   0  0  0  0  0  0  0  0  0  0  0  0 
    0.2623    0.1176   -0.7971 H   0  0  0  0  0  0  0  0  0  0  0  0 
    2.5180    0.8764    2.1742 H   0  0  0  0  0  0  0  0  0  0  0  0 
    3.9520    0.1226    1.4462 H   0  0  0  0  0  0  0  0  0  0  0  0 
    2.6107   -0.8905    2.0186 H   0  0  0  0  0  0  0  0  0  0  0  0 
    3.2466   -1.9512   -3.7011 H   0  0  0  0  0  0  0  0  0  0  0  0 
    3.0031   -2.9216   -2.2116 H   0  0  0  0  0  0  0  0  0  0  0  0 
    4.4953   -2.0038   -2.4312 H   0  0  0  0  0  0  0  0  0  0  0  0 
    2.4896    1.0842   -0.3393 H   0  0  0  0  0  0  0  0  0  0  0  0 
  1  9  1  0  0  0  0 
  1  8  1  0  0  0  0 
  2 13  1  0  0  0  0 
  2 11  1  0  0  0  0 
  3 16  1  0  0  0  0 
  3 15  1  0  0  0  0 
  3  5  1  0  0  0  0 
  4  1  1  0  0  0  0 
  4  2  1  0  0  0  0 
  5  7  1  0  0  0  0 
  6  5  2  0  0  0  0 
  7  4  1  0  0  0  0 
 10  1  1  0  0  0  0 
 12  2  1  0  0  0  0 
 14  3  1  0  0  0  0 
 17  4  1  0  0  0  0 
M  END 
>  <HBA> 
2 
 
>  <HBD> 
0 
 
>  <TPSA> 
26.3 
 
>  <cid> 
7915 
 
>  <dipole> 
1.88 
 
>  <excitation_energy_1> 
5.799 
 
>  <excitation_energy_2> 
6.949 
 
>  <excitation_energy_3> 
7.488 
 
>  <excitation_energy_4> 
7.634 
 
>  <homo_energy> 
-7.225 
 
>  <homo_lumo_gap> 
7.695 
 
>  <logP> 
0.958 
 
>  <lumo_energy> 
0.471 
 
>  <melting_point> 
-13.46 
 
>  <molecular_refractivity> 
27.43 
 
>  <oscillator_strength_1> 
0.0013 
 
>  <oscillator_strength_2> 
0.0368 
 
>  <oscillator_strength_3> 
0.0212 
 
>  <oscillator_strength_4> 
0.0063 
 
>  <open_babel_can_smiles> 
CC(OC(=O)C)C 
 
>  <mulliken_charges> 
17 
1   -0.457737 
2   -0.451087 
3   -0.523744 
4   0.129575 
5   0.60435 
6   -0.471765 
7   -0.461728 
8   0.147318 
9   0.149611 
10   0.173311 
11   0.148966 
12   0.156294 
13   0.154587 
14   0.181225 
15   0.177494 
16   0.182167 
17   0.161162 
 
>  <lowdin_charges> 
17 
1   -0.454647 
2   -0.446643 
3   -0.462621 
4   0.010849 
5   0.202662 
6   -0.271585 
7   -0.20259 
8   0.157558 
9   0.153058 
10   0.165421 
11   0.157573 
12   0.156139 
13   0.155697 
14   0.173313 
15   0.174676 
16   0.176944 
17   0.154196 
 
$$$$ 
 
