PCCDB-ID:  7352 
public computational chemistry database (PCCDB) project, http://pccdb.org 
 
 24 23  0  0  0  0  0  0  0  0999 V2000 
   -0.7977    0.9212   -0.8777 C   0  0  0  0  0  0  0  0  0  0  0  0 
   -0.9526    0.1819    1.5463 C   0  0  0  0  0  0  0  0  0  0  0  0 
    3.3115    0.4403    4.0466 C   0  0  0  0  0  0  0  0  0  0  0  0 
    4.0736    2.8004    3.6456 C   0  0  0  0  0  0  0  0  0  0  0  0 
    1.2958    0.3980    0.3882 C   0  0  0  0  0  0  0  0  0  0  0  0 
   -0.1286    0.9494    0.5045 C   0  0  0  0  0  0  0  0  0  0  0  0 
    3.3474    1.5341    3.2753 C   0  0  0  0  0  0  0  0  0  0  0  0 
    2.6453    1.5786    1.9553 C   0  0  0  0  0  0  0  0  0  0  0  0 
    2.6567    2.5554    1.2290 O   0  0  0  0  0  0  0  0  0  0  0  0 
    2.0019    0.4273    1.6492 O   0  0  0  0  0  0  0  0  0  0  0  0 
   -1.8078    1.3422   -0.8272 H   0  0  0  0  0  0  0  0  0  0  0  0 
   -0.8865   -0.1064   -1.2544 H   0  0  0  0  0  0  0  0  0  0  0  0 
   -0.2293    1.5022   -1.6135 H   0  0  0  0  0  0  0  0  0  0  0  0 
   -1.9527    0.6179    1.6507 H   0  0  0  0  0  0  0  0  0  0  0  0 
   -0.4695    0.2012    2.5282 H   0  0  0  0  0  0  0  0  0  0  0  0 
   -1.0762   -0.8688    1.2519 H   0  0  0  0  0  0  0  0  0  0  0  0 
    3.8222    0.4141    5.0057 H   0  0  0  0  0  0  0  0  0  0  0  0 
    2.7765   -0.4525    3.7437 H   0  0  0  0  0  0  0  0  0  0  0  0 
    4.5703    2.6961    4.6144 H   0  0  0  0  0  0  0  0  0  0  0  0 
    3.3814    3.6488    3.6931 H   0  0  0  0  0  0  0  0  0  0  0  0 
    4.8236    3.0574    2.8893 H   0  0  0  0  0  0  0  0  0  0  0  0 
    1.8709    0.9634   -0.3495 H   0  0  0  0  0  0  0  0  0  0  0  0 
    1.2831   -0.6605    0.1080 H   0  0  0  0  0  0  0  0  0  0  0  0 
   -0.0417    1.9965    0.8223 H   0  0  0  0  0  0  0  0  0  0  0  0 
  1 11  1  0  0  0  0 
  1  6  1  0  0  0  0 
  2 14  1  0  0  0  0 
  2 15  1  0  0  0  0 
  3 17  1  0  0  0  0 
  4 20  1  0  0  0  0 
  4 19  1  0  0  0  0 
  5  6  1  0  0  0  0 
  5 10  1  0  0  0  0 
  6 24  1  0  0  0  0 
  6  2  1  0  0  0  0 
  7  4  1  0  0  0  0 
  7  3  2  0  0  0  0 
  8  7  1  0  0  0  0 
  9  8  2  0  0  0  0 
 10  8  1  0  0  0  0 
 12  1  1  0  0  0  0 
 13  1  1  0  0  0  0 
 16  2  1  0  0  0  0 
 18  3  1  0  0  0  0 
 21  4  1  0  0  0  0 
 22  5  1  0  0  0  0 
 23  5  1  0  0  0  0 
M  END 
>  <HBA> 
2 
 
>  <HBD> 
0 
 
>  <TPSA> 
26.3 
 
>  <cid> 
7352 
 
>  <dipole> 
1.56 
 
>  <excitation_energy_1> 
4.789 
 
>  <excitation_energy_2> 
5.753 
 
>  <excitation_energy_3> 
6.274 
 
>  <excitation_energy_4> 
6.754 
 
>  <homo_energy> 
-7.255 
 
>  <homo_lumo_gap> 
6.223 
 
>  <logP> 
1.762 
 
>  <lumo_energy> 
-1.031 
 
>  <melting_point> 
-32.63 
 
>  <molecular_refractivity> 
41.38 
 
>  <oscillator_strength_1> 
0.0002 
 
>  <oscillator_strength_2> 
0.1756 
 
>  <oscillator_strength_3> 
0.162 
 
>  <oscillator_strength_4> 
0.002 
 
>  <open_babel_can_smiles> 
CC(COC(=O)C(=C)C)C 
 
>  <mulliken_charges> 
24 
1   -0.451997 
2   -0.443759 
3   -0.370257 
4   -0.500236 
5   -0.037509 
6   -0.096987 
7   0.126851 
8   0.595896 
9   -0.488267 
10   -0.482803 
11   0.149598 
12   0.139876 
13   0.150348 
14   0.143534 
15   0.155665 
16   0.13631 
17   0.147783 
18   0.172074 
19   0.146662 
20   0.172114 
21   0.17315 
22   0.166234 
23   0.143062 
24   0.152656 
 
>  <lowdin_charges> 
24 
1   -0.443696 
2   -0.444667 
3   -0.302416 
4   -0.435947 
5   -0.133146 
6   -0.131637 
7   -0.027944 
8   0.194651 
9   -0.271677 
10   -0.192068 
11   0.153571 
12   0.145084 
13   0.153858 
14   0.149741 
15   0.154466 
16   0.143306 
17   0.162337 
18   0.175256 
19   0.154856 
20   0.168698 
21   0.169611 
22   0.160339 
23   0.147097 
24   0.150327 
 
$$$$ 
 
