PCCDB-ID:  20360 
public computational chemistry database (PCCDB) project, http://pccdb.org 
 
 23 23  0  0  0  0  0  0  0  0999 V2000 
    0.9226    0.3500   -1.1343 C   0  0  0  0  0  0  0  0  0  0  0  0 
    5.3036   -0.6707   -2.0119 C   0  0  0  0  0  0  0  0  0  0  0  0 
    2.4547    0.3155   -1.1511 C   0  0  0  0  0  0  0  0  0  0  0  0 
    3.0117   -1.0952   -0.9205 C   0  0  0  0  0  0  0  0  0  0  0  0 
    5.3028   -1.3574    1.3832 C   0  0  0  0  0  0  0  0  0  0  0  0 
    5.7390   -2.5869    0.5922 C   0  0  0  0  0  0  0  0  0  0  0  0 
    4.5386   -1.1746   -0.7905 C   0  0  0  0  0  0  0  0  0  0  0  0 
    4.9931   -0.4286    0.3499 O   0  0  0  0  0  0  0  0  0  0  0  0 
    4.8695   -2.5487   -0.5327 O   0  0  0  0  0  0  0  0  0  0  0  0 
    0.5463    1.3667   -1.2956 H   0  0  0  0  0  0  0  0  0  0  0  0 
    0.5280   -0.0031   -0.1737 H   0  0  0  0  0  0  0  0  0  0  0  0 
    0.5010   -0.2902   -1.9192 H   0  0  0  0  0  0  0  0  0  0  0  0 
    5.1584    0.4052   -2.1458 H   0  0  0  0  0  0  0  0  0  0  0  0 
    4.9649   -1.1890   -2.9149 H   0  0  0  0  0  0  0  0  0  0  0  0 
    6.3728   -0.8597   -1.8786 H   0  0  0  0  0  0  0  0  0  0  0  0 
    2.8500    0.9840   -0.3764 H   0  0  0  0  0  0  0  0  0  0  0  0 
    2.8120    0.7065   -2.1128 H   0  0  0  0  0  0  0  0  0  0  0  0 
    2.7044   -1.7652   -1.7345 H   0  0  0  0  0  0  0  0  0  0  0  0 
    2.5884   -1.5134    0.0019 H   0  0  0  0  0  0  0  0  0  0  0  0 
    6.0862   -0.9250    2.0122 H   0  0  0  0  0  0  0  0  0  0  0  0 
    4.4206   -1.5744    2.0041 H   0  0  0  0  0  0  0  0  0  0  0  0 
    5.5871   -3.5356    1.1153 H   0  0  0  0  0  0  0  0  0  0  0  0 
    6.7935   -2.5099    0.2861 H   0  0  0  0  0  0  0  0  0  0  0  0 
  1 11  1  0  0  0  0 
  2 15  1  0  0  0  0 
  2  7  1  0  0  0  0 
  3  1  1  0  0  0  0 
  3  4  1  0  0  0  0 
  3 16  1  0  0  0  0 
  4  7  1  0  0  0  0 
  4 19  1  0  0  0  0 
  5 21  1  0  0  0  0 
  5 20  1  0  0  0  0 
  6 22  1  0  0  0  0 
  6  5  1  0  0  0  0 
  7  9  1  0  0  0  0 
  7  8  1  0  0  0  0 
  8  5  1  0  0  0  0 
  9  6  1  0  0  0  0 
 10  1  1  0  0  0  0 
 12  1  1  0  0  0  0 
 13  2  1  0  0  0  0 
 14  2  1  0  0  0  0 
 17  3  1  0  0  0  0 
 18  4  1  0  0  0  0 
 23  6  1  0  0  0  0 
M  END 
>  <HBA> 
2 
 
>  <HBD> 
0 
 
>  <TPSA> 
18.46 
 
>  <cid> 
20360 
 
>  <dipole> 
0.9 
 
>  <excitation_energy_1> 
6.416 
 
>  <excitation_energy_2> 
6.713 
 
>  <excitation_energy_3> 
6.808 
 
>  <excitation_energy_4> 
6.873 
 
>  <homo_energy> 
-6.702 
 
>  <homo_lumo_gap> 
8.996 
 
>  <logP> 
1.55 
 
>  <lumo_energy> 
2.294 
 
>  <melting_point> 
-11.52 
 
>  <molecular_refractivity> 
35.86 
 
>  <oscillator_strength_1> 
0.0028 
 
>  <oscillator_strength_2> 
0.0274 
 
>  <oscillator_strength_3> 
0.0122 
 
>  <oscillator_strength_4> 
0.0077 
 
>  <open_babel_can_smiles> 
CCCC1(C)OCCO1 
 
>  <mulliken_charges> 
23 
1   -0.443001 
2   -0.455438 
3   -0.261429 
4   -0.257641 
5   -0.046183 
6   -0.045474 
7   0.530627 
8   -0.509481 
9   -0.515922 
10   0.142333 
11   0.142058 
12   0.141232 
13   0.156721 
14   0.148635 
15   0.149425 
16   0.151778 
17   0.133242 
18   0.137745 
19   0.132643 
20   0.149045 
21   0.135655 
22   0.148903 
23   0.134527 
 
>  <lowdin_charges> 
23 
1   -0.443581 
2   -0.452521 
3   -0.277987 
4   -0.289262 
5   -0.146349 
6   -0.142342 
7   0.22107 
8   -0.272988 
9   -0.272969 
10   0.148924 
11   0.146387 
12   0.14702 
13   0.158573 
14   0.157211 
15   0.156433 
16   0.150742 
17   0.140387 
18   0.150313 
19   0.14759 
20   0.154137 
21   0.13479 
22   0.152644 
23   0.131779 
 
$$$$ 
 
