PCCDB-ID:  28445 
public computational chemistry database (PCCDB) project, http://pccdb.org 
 
 24 25  0  0  0  0  0  0  0  0999 V2000 
    4.1194   -3.5796    2.4238 C   0  0  0  0  0  0  0  0  0  0  0  0 
    3.5987   -3.1795    1.0533 C   0  0  0  0  0  0  0  0  0  0  0  0 
    4.7367    3.5738    0.9051 C   0  0  0  0  0  0  0  0  0  0  0  0 
    5.7811    4.0245    0.0916 C   0  0  0  0  0  0  0  0  0  0  0  0 
    4.4136    2.2139    1.0063 C   0  0  0  0  0  0  0  0  0  0  0  0 
    6.5527    3.1269   -0.6582 C   0  0  0  0  0  0  0  0  0  0  0  0 
    5.1840    1.3291    0.2610 C   0  0  0  0  0  0  0  0  0  0  0  0 
    6.2226    1.7901   -0.5456 C   0  0  0  0  0  0  0  0  0  0  0  0 
    4.2690   -0.9333    0.7496 C   0  0  0  0  0  0  0  0  0  0  0  0 
    6.2077   -0.4417   -0.8070 C   0  0  0  0  0  0  0  0  0  0  0  0 
    5.1742   -0.0759    0.0969 N   0  0  0  0  0  0  0  0  0  0  0  0 
    3.4202   -0.5102    1.5068 O   0  0  0  0  0  0  0  0  0  0  0  0 
    6.5318   -1.5204   -1.2098 O   0  0  0  0  0  0  0  0  0  0  0  0 
    4.4740   -2.2063    0.4216 O   0  0  0  0  0  0  0  0  0  0  0  0 
    6.8352    0.7313   -1.1821 O   0  0  0  0  0  0  0  0  0  0  0  0 
    3.4836   -4.3687    2.8411 H   0  0  0  0  0  0  0  0  0  0  0  0 
    4.1018   -2.7279    3.1097 H   0  0  0  0  0  0  0  0  0  0  0  0 
    5.1424   -3.9621    2.3543 H   0  0  0  0  0  0  0  0  0  0  0  0 
    2.5920   -2.7597    1.1106 H   0  0  0  0  0  0  0  0  0  0  0  0 
    3.6059   -4.0195    0.3561 H   0  0  0  0  0  0  0  0  0  0  0  0 
    4.1554    4.2928    1.4745 H   0  0  0  0  0  0  0  0  0  0  0  0 
    6.0017    5.0862    0.0379 H   0  0  0  0  0  0  0  0  0  0  0  0 
    3.6067    1.8591    1.6322 H   0  0  0  0  0  0  0  0  0  0  0  0 
    7.3679    3.4519   -1.2951 H   0  0  0  0  0  0  0  0  0  0  0  0 
  1 16  1  0  0  0  0 
  1 17  1  0  0  0  0 
  2 19  1  0  0  0  0 
  2  1  1  0  0  0  0 
  3  5  1  0  0  0  0 
  3 21  1  0  0  0  0 
  4  3  2  0  0  0  0 
  5 23  1  0  0  0  0 
  6  8  2  0  0  0  0 
  6  4  1  0  0  0  0 
  7  5  2  0  0  0  0 
  8  7  1  0  0  0  0 
  9 12  2  0  0  0  0 
 10 11  1  0  0  0  0 
 11  7  1  0  0  0  0 
 11  9  1  0  0  0  0 
 13 10  2  0  0  0  0 
 14  9  1  0  0  0  0 
 14  2  1  0  0  0  0 
 15 10  1  0  0  0  0 
 15  8  1  0  0  0  0 
 18  1  1  0  0  0  0 
 20  2  1  0  0  0  0 
 22  4  1  0  0  0  0 
 24  6  1  0  0  0  0 
M  END 
>  <HBA> 
5 
 
>  <HBD> 
0 
 
>  <TPSA> 
61.44 
 
>  <cid> 
28445 
 
>  <dipole> 
2.26 
 
>  <excitation_energy_1> 
5.034 
 
>  <excitation_energy_2> 
5.262 
 
>  <excitation_energy_3> 
5.791 
 
>  <excitation_energy_4> 
5.87 
 
>  <homo_energy> 
-6.422 
 
>  <homo_lumo_gap> 
5.861 
 
>  <logP> 
1.599 
 
>  <lumo_energy> 
-0.561 
 
>  <melting_point> 
106.94 
 
>  <molecular_refractivity> 
53.02 
 
>  <oscillator_strength_1> 
0.0564 
 
>  <oscillator_strength_2> 
0.0871 
 
>  <oscillator_strength_3> 
0.0112 
 
>  <oscillator_strength_4> 
0.2418 
 
>  <open_babel_can_smiles> 
CCOC(=O)n1c(=O)oc2c1cccc2 
 
>  <mulliken_charges> 
24 
1   -0.466218 
2   -0.046429 
3   -0.148567 
4   -0.136565 
5   -0.149356 
6   -0.18657 
7   0.347175 
8   0.300963 
9   0.81639 
10   0.787549 
11   -0.692498 
12   -0.492952 
13   -0.444342 
14   -0.444908 
15   -0.513981 
16   0.156383 
17   0.176705 
18   0.169123 
19   0.175611 
20   0.169254 
21   0.140643 
22   0.14075 
23   0.18466 
24   0.15718 
 
>  <lowdin_charges> 
24 
1   -0.455425 
2   -0.120481 
3   -0.159493 
4   -0.151285 
5   -0.164432 
6   -0.170831 
7   0.029339 
8   0.079944 
9   0.228513 
10   0.227552 
11   -0.071228 
12   -0.278283 
13   -0.214942 
14   -0.158909 
15   -0.128591 
16   0.163626 
17   0.16628 
18   0.161392 
19   0.16062 
20   0.162229 
21   0.166075 
22   0.16312 
23   0.188193 
24   0.177017 
 
$$$$ 
 
