PCCDB-ID:  17898 
public computational chemistry database (PCCDB) project, http://pccdb.org 
 
 17 17  0  0  0  0  0  0  0  0999 V2000 
    0.9986    0.4702    0.0780 C   0  0  0  0  0  0  0  0  0  0  0  0 
    2.6511   -3.4119    0.4863 C   0  0  0  0  0  0  0  0  0  0  0  0 
    4.6311    1.0322    0.1687 C   0  0  0  0  0  0  0  0  0  0  0  0 
    5.1266   -0.2536    0.3064 C   0  0  0  0  0  0  0  0  0  0  0  0 
    2.4809    0.2370    0.1558 C   0  0  0  0  0  0  0  0  0  0  0  0 
    3.0144   -1.0748    0.2948 C   0  0  0  0  0  0  0  0  0  0  0  0 
    3.3077    1.2750    0.0941 N   0  0  0  0  0  0  0  0  0  0  0  0 
    4.3114   -1.3226    0.3701 N   0  0  0  0  0  0  0  0  0  0  0  0 
    2.1233   -2.0880    0.3488 O   0  0  0  0  0  0  0  0  0  0  0  0 
    0.4930    0.1014    0.9785 H   0  0  0  0  0  0  0  0  0  0  0  0 
    0.5580   -0.0660   -0.7710 H   0  0  0  0  0  0  0  0  0  0  0  0 
    0.8061    1.5396   -0.0312 H   0  0  0  0  0  0  0  0  0  0  0  0 
    1.7791   -4.0671    0.5121 H   0  0  0  0  0  0  0  0  0  0  0  0 
    3.2305   -3.5084    1.4094 H   0  0  0  0  0  0  0  0  0  0  0  0 
    3.2960   -3.6657   -0.3604 H   0  0  0  0  0  0  0  0  0  0  0  0 
    5.2934    1.8926    0.1162 H   0  0  0  0  0  0  0  0  0  0  0  0 
    6.1950   -0.4488    0.3683 H   0  0  0  0  0  0  0  0  0  0  0  0 
  1  5  1  0  0  0  0 
  1 10  1  0  0  0  0 
  2 13  1  0  0  0  0 
  2 14  1  0  0  0  0 
  3  4  2  0  0  0  0 
  4 17  1  0  0  0  0 
  4  8  1  0  0  0  0 
  5  6  1  0  0  0  0 
  6  9  1  0  0  0  0 
  6  8  2  0  0  0  0 
  7  5  2  0  0  0  0 
  7  3  1  0  0  0  0 
  9  2  1  0  0  0  0 
 11  1  1  0  0  0  0 
 12  1  1  0  0  0  0 
 15  2  1  0  0  0  0 
 16  3  1  0  0  0  0 
M  END 
>  <HBA> 
3 
 
>  <HBD> 
0 
 
>  <TPSA> 
35.01 
 
>  <cid> 
17898 
 
>  <dipole> 
1.48 
 
>  <excitation_energy_1> 
4.402 
 
>  <excitation_energy_2> 
4.82 
 
>  <excitation_energy_3> 
5.211 
 
>  <excitation_energy_4> 
5.851 
 
>  <homo_energy> 
-6.384 
 
>  <homo_lumo_gap> 
5.421 
 
>  <logP> 
0.794 
 
>  <lumo_energy> 
-0.963 
 
>  <melting_point> 
44.27 
 
>  <molecular_refractivity> 
33.49 
 
>  <oscillator_strength_1> 
0.0042 
 
>  <oscillator_strength_2> 
0.1345 
 
>  <oscillator_strength_3> 
0.0 
 
>  <oscillator_strength_4> 
0.0 
 
>  <open_babel_can_smiles> 
COc1nccnc1C 
 
>  <mulliken_charges> 
17 
1   -0.505156 
2   -0.206986 
3   0.009551 
4   0.03006 
5   0.262412 
6   0.521682 
7   -0.435878 
8   -0.4801 
9   -0.49067 
10   0.168578 
11   0.168606 
12   0.172607 
13   0.163088 
14   0.166834 
15   0.166539 
16   0.14335 
17   0.145484 
 
>  <lowdin_charges> 
17 
1   -0.443399 
2   -0.275178 
3   -0.133886 
4   -0.102733 
5   0.025467 
6   0.109563 
7   -0.127974 
8   -0.163373 
9   -0.188851 
10   0.16765 
11   0.16798 
12   0.16848 
13   0.159853 
14   0.15695 
15   0.157481 
16   0.162502 
17   0.159468 
 
$$$$ 
 
