PCCDB-ID:  69995 
public computational chemistry database (PCCDB) project, http://pccdb.org 
 
 25 26  0  0  0  0  0  0  0  0999 V2000 
   -0.7160   -1.0931   -0.2068 C   0  0  0  0  0  0  0  0  0  0  0  0 
    0.7334   -1.0018    0.3046 C   0  0  0  0  0  0  0  0  0  0  0  0 
   -0.7251    4.6943   -1.4631 C   0  0  0  0  0  0  0  0  0  0  0  0 
   -1.2189    0.3617   -0.1206 C   0  0  0  0  0  0  0  0  0  0  0  0 
    1.2475    0.3336   -0.2723 C   0  0  0  0  0  0  0  0  0  0  0  0 
   -1.2303    3.4294   -0.7235 C   0  0  0  0  0  0  0  0  0  0  0  0 
    0.7530    4.8160   -1.0566 C   0  0  0  0  0  0  0  0  0  0  0  0 
    0.0140    1.2143   -0.3653 C   0  0  0  0  0  0  0  0  0  0  0  0 
   -0.0073    2.5377   -0.6224 C   0  0  0  0  0  0  0  0  0  0  0  0 
    1.2078    3.3684   -0.8354 C   0  0  0  0  0  0  0  0  0  0  0  0 
    2.3697    2.9900   -0.8348 O   0  0  0  0  0  0  0  0  0  0  0  0 
   -1.3346   -1.7930    0.3640 H   0  0  0  0  0  0  0  0  0  0  0  0 
   -0.7221   -1.4271   -1.2527 H   0  0  0  0  0  0  0  0  0  0  0  0 
    1.3483   -1.8577    0.0085 H   0  0  0  0  0  0  0  0  0  0  0  0 
    0.7374   -0.9616    1.4020 H   0  0  0  0  0  0  0  0  0  0  0  0 
   -1.3144    5.5843   -1.2226 H   0  0  0  0  0  0  0  0  0  0  0  0 
   -0.7965    4.5370   -2.5462 H   0  0  0  0  0  0  0  0  0  0  0  0 
   -1.6094    0.5703    0.8878 H   0  0  0  0  0  0  0  0  0  0  0  0 
   -2.0338    0.5895   -0.8182 H   0  0  0  0  0  0  0  0  0  0  0  0 
    1.6642    0.1875   -1.2794 H   0  0  0  0  0  0  0  0  0  0  0  0 
    2.0482    0.8006    0.3068 H   0  0  0  0  0  0  0  0  0  0  0  0 
   -2.0694    2.9514   -1.2422 H   0  0  0  0  0  0  0  0  0  0  0  0 
   -1.5965    3.6974    0.2795 H   0  0  0  0  0  0  0  0  0  0  0  0 
    0.8571    5.3492   -0.0999 H   0  0  0  0  0  0  0  0  0  0  0  0 
    1.3939    5.3247   -1.7822 H   0  0  0  0  0  0  0  0  0  0  0  0 
  1  4  1  0  0  0  0 
  1  2  1  0  0  0  0 
  1 12  1  0  0  0  0 
  2 15  1  0  0  0  0 
  3 16  1  0  0  0  0 
  3  7  1  0  0  0  0 
  3  6  1  0  0  0  0 
  4 18  1  0  0  0  0 
  5  2  1  0  0  0  0 
  5 21  1  0  0  0  0 
  6  9  1  0  0  0  0 
  6 23  1  0  0  0  0 
  7 10  1  0  0  0  0 
  7 24  1  0  0  0  0 
  8  5  1  0  0  0  0 
  8  4  1  0  0  0  0 
  9  8  2  0  0  0  0 
 10 11  2  0  0  0  0 
 10  9  1  0  0  0  0 
 13  1  1  0  0  0  0 
 14  2  1  0  0  0  0 
 17  3  1  0  0  0  0 
 19  4  1  0  0  0  0 
 20  5  1  0  0  0  0 
 22  6  1  0  0  0  0 
 25  7  1  0  0  0  0 
M  END 
>  <HBA> 
1 
 
>  <HBD> 
0 
 
>  <TPSA> 
17.07 
 
>  <cid> 
69995 
 
>  <dipole> 
2.94 
 
>  <excitation_energy_1> 
3.517 
 
>  <excitation_energy_2> 
5.025 
 
>  <excitation_energy_3> 
5.905 
 
>  <excitation_energy_4> 
6.025 
 
>  <homo_energy> 
-6.166 
 
>  <homo_lumo_gap> 
4.985 
 
>  <logP> 
2.61 
 
>  <lumo_energy> 
-1.181 
 
>  <melting_point> 
53.96 
 
>  <molecular_refractivity> 
45.68 
 
>  <oscillator_strength_1> 
0.0002 
 
>  <oscillator_strength_2> 
0.3452 
 
>  <oscillator_strength_3> 
0.0025 
 
>  <oscillator_strength_4> 
0.0012 
 
>  <open_babel_can_smiles> 
O=C1CCCC1=C1CCCC1 
 
>  <mulliken_charges> 
25 
1   -0.276686 
2   -0.282347 
3   -0.28607 
4   -0.328225 
5   -0.311123 
6   -0.344364 
7   -0.356318 
8   0.096979 
9   0.037111 
10   0.403956 
11   -0.484042 
12   0.138054 
13   0.142642 
14   0.139536 
15   0.139931 
16   0.140428 
17   0.148953 
18   0.158821 
19   0.152729 
20   0.165209 
21   0.179279 
22   0.14679 
23   0.149135 
24   0.164771 
25   0.16485 
 
>  <lowdin_charges> 
25 
1   -0.280957 
2   -0.281568 
3   -0.277242 
4   -0.283479 
5   -0.282034 
6   -0.28005 
7   -0.312728 
8   0.039061 
9   -0.091138 
10   0.14557 
11   -0.254559 
12   0.148921 
13   0.142855 
14   0.149175 
15   0.140431 
16   0.148648 
17   0.145447 
18   0.158 
19   0.156753 
20   0.164122 
21   0.173828 
22   0.151838 
23   0.148612 
24   0.164289 
25   0.166207 
 
$$$$ 
 
