PCCDB-ID:  34917 
public computational chemistry database (PCCDB) project, http://pccdb.org 
 
 25 25  0  0  1  0  0  0  0  0999 V2000 
    3.3684   -0.5056    1.4215 C   0  0  0  0  0  0  0  0  0  0  0  0 
    2.5306    2.0104   -1.4821 C   0  0  0  0  0  0  0  0  0  0  0  0 
    2.6874    0.6337    0.6575 C   0  0  0  0  0  0  0  0  0  0  0  0 
    3.3464    0.9652   -0.6973 C   0  0  2  0  0  0  0  0  0  0  0  0 
    4.7670    1.4681   -0.5066 C   0  0  2  0  0  0  0  0  0  0  0  0 
    6.3133    2.9404    0.3985 C   0  0  0  0  0  0  0  0  0  0  0  0 
    7.1091    1.1803   -1.1531 C   0  0  0  0  0  0  0  0  0  0  0  0 
    6.6712    3.9274    1.1261 N   0  0  0  0  0  0  0  0  0  0  0  0 
    8.0839    0.6305   -1.7700 N   0  0  0  0  0  0  0  0  0  0  0  0 
    4.9964    2.4791    0.2621 N   0  0  0  0  0  0  0  0  0  0  0  0 
    5.7534    0.8072   -1.2065 N   0  0  0  0  0  0  0  0  0  0  0  0 
    7.3037    2.2591   -0.3232 N   0  0  0  0  0  0  0  0  0  0  0  0 
    2.8430   -0.7126    2.3599 H   0  0  0  0  0  0  0  0  0  0  0  0 
    4.4050   -0.2554    1.6742 H   0  0  0  0  0  0  0  0  0  0  0  0 
    3.3772   -1.4339    0.8360 H   0  0  0  0  0  0  0  0  0  0  0  0 
    1.5116    1.6456   -1.6506 H   0  0  0  0  0  0  0  0  0  0  0  0 
    2.9818    2.2236   -2.4576 H   0  0  0  0  0  0  0  0  0  0  0  0 
    2.4793    2.9474   -0.9199 H   0  0  0  0  0  0  0  0  0  0  0  0 
    2.6859    1.5436    1.2680 H   0  0  0  0  0  0  0  0  0  0  0  0 
    1.6383    0.3740    0.4650 H   0  0  0  0  0  0  0  0  0  0  0  0 
    3.3888    0.0399   -1.2918 H   0  0  0  0  0  0  0  0  0  0  0  0 
    5.8395    4.3091    1.5794 H   0  0  0  0  0  0  0  0  0  0  0  0 
    7.7753   -0.1551   -2.3430 H   0  0  0  0  0  0  0  0  0  0  0  0 
    5.5096    0.0141   -1.7824 H   0  0  0  0  0  0  0  0  0  0  0  0 
    8.2546    2.5924   -0.2295 H   0  0  0  0  0  0  0  0  0  0  0  0 
  1 14  1  0  0  0  0 
  1 13  1  0  0  0  0 
  2 18  1  0  0  0  0 
  2  4  1  0  0  0  0 
  3 19  1  0  0  0  0 
  3  1  1  0  0  0  0 
  4 21  1  6  0  0  0 
  4  3  1  0  0  0  0 
  5  4  1  6  0  0  0 
  5 10  1  0  0  0  0 
  6  8  1  0  0  0  0 
  7 12  1  0  0  0  0 
  8 22  1  0  0  0  0 
  9  7  2  0  0  0  0 
 10  6  2  0  0  0  0 
 11  7  1  0  0  0  0 
 11  5  1  0  0  0  0 
 12 25  1  0  0  0  0 
 12  6  1  0  0  0  0 
 15  1  1  0  0  0  0 
 16  2  1  0  0  0  0 
 17  2  1  0  0  0  0 
 20  3  1  0  0  0  0 
 23  9  1  0  0  0  0 
 24 11  1  0  0  0  0 
M  RAD  2   5   2   8   2 
M  END 
>  <HBA> 
5 
 
>  <HBD> 
2 
 
>  <TPSA> 
90.71 
 
>  <cid> 
34917 
 
>  <dipole> 
5.65 
 
>  <excitation_energy_1> 
4.845 
 
>  <excitation_energy_2> 
5.147 
 
>  <excitation_energy_3> 
5.296 
 
>  <excitation_energy_4> 
5.377 
 
>  <homo_energy> 
-6.275 
 
>  <homo_lumo_gap> 
5.489 
 
>  <logP> 
1.712 
 
>  <lumo_energy> 
-0.786 
 
>  <melting_point> 
151.99 
 
>  <molecular_refractivity> 
48.02 
 
>  <oscillator_strength_1> 
0.0294 
 
>  <oscillator_strength_2> 
0.0583 
 
>  <oscillator_strength_3> 
0.0046 
 
>  <oscillator_strength_4> 
0.0005 
 
>  <open_babel_can_smiles> 
CC[C@H]([C]1NC(=N)NC(=N1)[NH])C 
 
>  <mulliken_charges> 
25 
1   -0.456922 
2   -0.447764 
3   -0.246648 
4   -0.16011 
5   0.550063 
6   0.600107 
7   0.68936 
8   -0.647447 
9   -0.645783 
10   -0.514869 
11   -0.697957 
12   -0.644327 
13   0.154777 
14   0.158944 
15   0.136558 
16   0.15212 
17   0.149469 
18   0.179404 
19   0.169612 
20   0.136394 
21   0.119092 
22   0.293708 
23   0.275119 
24   0.338707 
25   0.358391 
 
>  <lowdin_charges> 
25 
1   -0.44738 
2   -0.43579 
3   -0.267401 
4   -0.128843 
5   0.12338 
6   0.11596 
7   0.139457 
8   -0.428545 
9   -0.455445 
10   -0.227936 
11   -0.249403 
12   -0.232367 
13   0.157392 
14   0.153133 
15   0.143683 
16   0.154063 
17   0.152807 
18   0.167105 
19   0.160895 
20   0.144211 
21   0.136441 
22   0.262856 
23   0.2551 
24   0.295619 
25   0.311006 
 
$$$$ 
 
