PCCDB-ID:  32400 
public computational chemistry database (PCCDB) project, http://pccdb.org 
 
 31 33  0  0  0  0  0  0  0  0999 V2000 
   -1.4617   -0.0769    0.2549 C   0  0  0  0  0  0  0  0  0  0  0  0 
   -0.8980    0.9205   -0.5428 C   0  0  0  0  0  0  0  0  0  0  0  0 
   -0.6280   -0.9987    0.8908 C   0  0  0  0  0  0  0  0  0  0  0  0 
    0.4848    0.9939   -0.7039 C   0  0  0  0  0  0  0  0  0  0  0  0 
    0.7548   -0.9224    0.7315 C   0  0  0  0  0  0  0  0  0  0  0  0 
    4.9746   -0.9227   -0.4846 C   0  0  0  0  0  0  0  0  0  0  0  0 
    3.5962   -1.0097   -0.3273 C   0  0  0  0  0  0  0  0  0  0  0  0 
    7.1315    0.3951   -0.7145 C   0  0  0  0  0  0  0  0  0  0  0  0 
    7.5741    1.7767   -1.2010 C   0  0  0  0  0  0  0  0  0  0  0  0 
    3.4677    1.3888   -0.3147 C   0  0  0  0  0  0  0  0  0  0  0  0 
    5.5022    2.8532   -0.5797 C   0  0  0  0  0  0  0  0  0  0  0  0 
    1.3379    0.0749   -0.0691 C   0  0  0  0  0  0  0  0  0  0  0  0 
    5.6257    0.3155   -0.5596 C   0  0  0  0  0  0  0  0  0  0  0  0 
    2.8113    0.1532   -0.2390 C   0  0  0  0  0  0  0  0  0  0  0  0 
    4.8537    1.4847   -0.4716 C   0  0  0  0  0  0  0  0  0  0  0  0 
    6.9442    2.7847   -0.3482 N   0  0  0  0  0  0  0  0  0  0  0  0 
   -2.5396   -0.1355    0.3796 H   0  0  0  0  0  0  0  0  0  0  0  0 
   -1.5372    1.6381   -1.0508 H   0  0  0  0  0  0  0  0  0  0  0  0 
   -1.0543   -1.7743    1.5219 H   0  0  0  0  0  0  0  0  0  0  0  0 
    0.9099    1.7569   -1.3502 H   0  0  0  0  0  0  0  0  0  0  0  0 
    1.3948   -1.6280    1.2541 H   0  0  0  0  0  0  0  0  0  0  0  0 
    5.5625   -1.8352   -0.5628 H   0  0  0  0  0  0  0  0  0  0  0  0 
    3.1179   -1.9848   -0.3021 H   0  0  0  0  0  0  0  0  0  0  0  0 
    7.6071    0.1990    0.2562 H   0  0  0  0  0  0  0  0  0  0  0  0 
    7.4829   -0.3826   -1.4048 H   0  0  0  0  0  0  0  0  0  0  0  0 
    7.3109    1.8948   -2.2710 H   0  0  0  0  0  0  0  0  0  0  0  0 
    8.6620    1.8752   -1.1191 H   0  0  0  0  0  0  0  0  0  0  0  0 
    2.8865    2.3037   -0.2201 H   0  0  0  0  0  0  0  0  0  0  0  0 
    5.0612    3.5292    0.1634 H   0  0  0  0  0  0  0  0  0  0  0  0 
    5.2532    3.2741   -1.5760 H   0  0  0  0  0  0  0  0  0  0  0  0 
    7.3541    3.6988   -0.5256 H   0  0  0  0  0  0  0  0  0  0  0  0 
  1 17  1  0  0  0  0 
  1  3  2  0  0  0  0 
  2  1  1  0  0  0  0 
  3 19  1  0  0  0  0 
  4  2  2  0  0  0  0 
  4 12  1  0  0  0  0 
  5  3  1  0  0  0  0 
  5 21  1  0  0  0  0 
  6  7  1  0  0  0  0 
  7 23  1  0  0  0  0 
  7 14  2  0  0  0  0 
  8 13  1  0  0  0  0 
  8 24  1  0  0  0  0 
  9 27  1  0  0  0  0 
  9  8  1  0  0  0  0 
  9 16  1  0  0  0  0 
 10 14  1  0  0  0  0 
 10 28  1  0  0  0  0 
 11 15  1  0  0  0  0 
 11 16  1  0  0  0  0 
 11 29  1  0  0  0  0 
 12  5  2  0  0  0  0 
 13  6  2  0  0  0  0 
 13 15  1  0  0  0  0 
 14 12  1  0  0  0  0 
 15 10  2  0  0  0  0 
 18  2  1  0  0  0  0 
 20  4  1  0  0  0  0 
 22  6  1  0  0  0  0 
 25  8  1  0  0  0  0 
 26  9  1  0  0  0  0 
 30 11  1  0  0  0  0 
 31 16  1  0  0  0  0 
M  END 
>  <HBA> 
1 
 
>  <HBD> 
1 
 
>  <TPSA> 
12.03 
 
>  <cid> 
32400 
 
>  <dipole> 
1.25 
 
>  <excitation_energy_1> 
4.629 
 
>  <excitation_energy_2> 
4.714 
 
>  <excitation_energy_3> 
4.852 
 
>  <excitation_energy_4> 
4.948 
 
>  <homo_energy> 
-5.818 
 
>  <homo_lumo_gap> 
5.238 
 
>  <logP> 
3.328 
 
>  <lumo_energy> 
-0.58 
 
>  <melting_point> 
99.36 
 
>  <molecular_refractivity> 
71.22 
 
>  <oscillator_strength_1> 
0.0325 
 
>  <oscillator_strength_2> 
0.45 
 
>  <oscillator_strength_3> 
0.0185 
 
>  <oscillator_strength_4> 
0.025 
 
>  <open_babel_can_smiles> 
c1ccc(cc1)c1ccc2c(c1)CNCC2 
 
>  <mulliken_charges> 
31 
1   -0.127496 
2   -0.13431 
3   -0.133832 
4   -0.172857 
5   -0.174551 
6   -0.195925 
7   -0.176399 
8   -0.320577 
9   -0.149742 
10   -0.241875 
11   -0.199164 
12   0.088254 
13   0.126561 
14   0.095887 
15   0.115771 
16   -0.552483 
17   0.127838 
18   0.128358 
19   0.128846 
20   0.129595 
21   0.131599 
22   0.120734 
23   0.128533 
24   0.162574 
25   0.139351 
26   0.11668 
27   0.137128 
28   0.1224 
29   0.152123 
30   0.127968 
31   0.29901 
 
>  <lowdin_charges> 
31 
1   -0.157694 
2   -0.15693 
3   -0.155783 
4   -0.163426 
5   -0.163752 
6   -0.16262 
7   -0.164435 
8   -0.279106 
9   -0.198834 
10   -0.169255 
11   -0.202918 
12   0.000133 
13   -0.010431 
14   -0.003967 
15   -0.014169 
16   -0.363247 
17   0.155224 
18   0.158433 
19   0.158251 
20   0.159092 
21   0.160389 
22   0.154543 
23   0.157938 
24   0.159179 
25   0.15119 
26   0.115589 
27   0.14448 
28   0.155622 
29   0.154667 
30   0.12583 
31   0.256003 
 
$$$$ 
 
