PCCDB-ID:  61126 
public computational chemistry database (PCCDB) project, http://pccdb.org 
 
 27 28  0  0  1  0  0  0  0  0999 V2000 
    0.9231    0.0990   -0.0176 C   0  0  0  0  0  0  0  0  0  0  0  0 
    4.0696    0.7329   -2.4306 C   0  0  0  0  0  0  0  0  0  0  0  0 
    5.0373    2.6705   -1.2315 C   0  0  0  0  0  0  0  0  0  0  0  0 
    3.1385   -1.0932    0.0415 C   0  0  0  0  0  0  0  0  0  0  0  0 
    4.3191    1.1965    1.1258 C   0  0  0  0  0  0  0  0  0  0  0  0 
    2.4237    0.0426    0.0179 C   0  0  0  0  0  0  0  0  0  0  0  0 
    3.2098    1.3471    0.0393 C   0  0  2  0  0  0  0  0  0  0  0  0 
    5.1238    0.4310    0.0358 C   0  0  1  0  0  0  0  0  0  0  0  0 
    4.6543   -1.0388    0.0623 C   0  0  2  0  0  0  0  0  0  0  0  0 
    4.3654    1.3005   -1.0366 C   0  0  0  0  0  0  0  0  0  0  0  0 
    5.2493   -1.8451   -0.9609 O   0  0  0  0  0  0  0  0  0  0  0  0 
    0.4786   -0.9015   -0.0172 H   0  0  0  0  0  0  0  0  0  0  0  0 
    0.5688    0.6309   -0.9119 H   0  0  0  0  0  0  0  0  0  0  0  0 
    0.5269    0.6495    0.8472 H   0  0  0  0  0  0  0  0  0  0  0  0 
    3.5229    1.4696   -3.0333 H   0  0  0  0  0  0  0  0  0  0  0  0 
    3.4585   -0.1734   -2.4045 H   0  0  0  0  0  0  0  0  0  0  0  0 
    5.0037    0.5135   -2.9637 H   0  0  0  0  0  0  0  0  0  0  0  0 
    4.3754    3.3455   -1.7888 H   0  0  0  0  0  0  0  0  0  0  0  0 
    5.9607    2.5600   -1.8140 H   0  0  0  0  0  0  0  0  0  0  0  0 
    5.2994    3.1662   -0.2931 H   0  0  0  0  0  0  0  0  0  0  0  0 
    2.6686   -2.0753    0.0362 H   0  0  0  0  0  0  0  0  0  0  0  0 
    4.0417    0.6380    2.0253 H   0  0  0  0  0  0  0  0  0  0  0  0 
    4.7806    2.1412    1.4212 H   0  0  0  0  0  0  0  0  0  0  0  0 
    2.5626    2.2312    0.0593 H   0  0  0  0  0  0  0  0  0  0  0  0 
    6.2184    0.4814    0.0453 H   0  0  0  0  0  0  0  0  0  0  0  0 
    5.0262   -1.4943    0.9906 H   0  0  0  0  0  0  0  0  0  0  0  0 
    4.8467   -1.5862   -1.8033 H   0  0  0  0  0  0  0  0  0  0  0  0 
  1 12  1  0  0  0  0 
  1  6  1  0  0  0  0 
  1 14  1  0  0  0  0 
  2 16  1  0  0  0  0 
  2 10  1  0  0  0  0 
  3 10  1  0  0  0  0 
  3 20  1  0  0  0  0 
  4  9  1  0  0  0  0 
  5 23  1  0  0  0  0 
  5 22  1  0  0  0  0 
  6  7  1  0  0  0  0 
  6  4  2  0  0  0  0 
  7 24  1  1  0  0  0 
  7  5  1  0  0  0  0 
  8 25  1  1  0  0  0 
  8  9  1  0  0  0  0 
  8  5  1  0  0  0  0 
  9 26  1  1  0  0  0 
 10  8  1  0  0  0  0 
 10  7  1  0  0  0  0 
 11  9  1  0  0  0  0 
 13  1  1  0  0  0  0 
 15  2  1  0  0  0  0 
 17  2  1  0  0  0  0 
 18  3  1  0  0  0  0 
 19  3  1  0  0  0  0 
 21  4  1  0  0  0  0 
 27 11  1  0  0  0  0 
M  END 
>  <HBA> 
1 
 
>  <HBD> 
1 
 
>  <TPSA> 
20.23 
 
>  <cid> 
61126 
 
>  <dipole> 
2.16 
 
>  <excitation_energy_1> 
5.621 
 
>  <excitation_energy_2> 
5.824 
 
>  <excitation_energy_3> 
6.073 
 
>  <excitation_energy_4> 
6.186 
 
>  <homo_energy> 
-6.185 
 
>  <homo_lumo_gap> 
6.55 
 
>  <logP> 
1.97 
 
>  <lumo_energy> 
0.365 
 
>  <melting_point> 
66.45 
 
>  <molecular_refractivity> 
46.38 
 
>  <oscillator_strength_1> 
0.0401 
 
>  <oscillator_strength_2> 
0.0428 
 
>  <oscillator_strength_3> 
0.0019 
 
>  <oscillator_strength_4> 
0.009 
 
>  <open_babel_can_smiles> 
CC1=C[C@@H](O)[C@@H]2C[C@H]1C2(C)C 
 
>  <mulliken_charges> 
27 
1   -0.525435 
2   -0.492307 
3   -0.464912 
4   -0.254145 
5   -0.283478 
6   0.230108 
7   -0.195049 
8   -0.147599 
9   0.140795 
10   0.135171 
11   -0.643994 
12   0.156003 
13   0.155703 
14   0.157072 
15   0.142194 
16   0.142869 
17   0.147376 
18   0.140612 
19   0.145369 
20   0.145453 
21   0.122718 
22   0.139054 
23   0.139343 
24   0.111359 
25   0.122917 
26   0.138426 
27   0.394377 
 
>  <lowdin_charges> 
27 
1   -0.44063 
2   -0.463738 
3   -0.443294 
4   -0.224168 
5   -0.280225 
6   0.002076 
7   -0.138632 
8   -0.144622 
9   -0.001093 
10   0.012851 
11   -0.465205 
12   0.15703 
13   0.157444 
14   0.158582 
15   0.152289 
16   0.149548 
17   0.151375 
18   0.149062 
19   0.150641 
20   0.150775 
21   0.153355 
22   0.144985 
23   0.146897 
24   0.137786 
25   0.139408 
26   0.147601 
27   0.339902 
 
$$$$ 
 
