PCCDB-ID:  14465 
public computational chemistry database (PCCDB) project, http://pccdb.org 
 
 32 31  0  0  0  0  0  0  0  0999 V2000 
    1.0974    5.9131   -5.0955 C   0  0  0  0  0  0  0  0  0  0  0  0 
    4.9014    7.6899   -4.3301 C   0  0  0  0  0  0  0  0  0  0  0  0 
    5.8980    2.1833   -2.6775 C   0  0  0  0  0  0  0  0  0  0  0  0 
    5.4092    2.2593   -6.0353 C   0  0  0  0  0  0  0  0  0  0  0  0 
    2.1818    5.9882   -4.0190 C   0  0  0  0  0  0  0  0  0  0  0  0 
    4.2240    6.6641   -5.2486 C   0  0  0  0  0  0  0  0  0  0  0  0 
    6.3010    3.4897   -3.3723 C   0  0  0  0  0  0  0  0  0  0  0  0 
    5.3729    3.7565   -5.7055 C   0  0  0  0  0  0  0  0  0  0  0  0 
    4.2542    4.7545   -3.6864 C   0  0  0  0  0  0  0  0  0  0  0  0 
    3.5003    5.5916   -4.5388 N   0  0  0  0  0  0  0  0  0  0  0  0 
    5.2971    4.0660   -4.2770 N   0  0  0  0  0  0  0  0  0  0  0  0 
    4.0095    4.6374   -2.4862 O   0  0  0  0  0  0  0  0  0  0  0  0 
    0.1274    6.2040   -4.6752 H   0  0  0  0  0  0  0  0  0  0  0  0 
    1.0116    4.8939   -5.4873 H   0  0  0  0  0  0  0  0  0  0  0  0 
    1.3034    6.5819   -5.9397 H   0  0  0  0  0  0  0  0  0  0  0  0 
    5.3811    8.4734   -4.9289 H   0  0  0  0  0  0  0  0  0  0  0  0 
    5.6722    7.2146   -3.7141 H   0  0  0  0  0  0  0  0  0  0  0  0 
    4.1838    8.1720   -3.6581 H   0  0  0  0  0  0  0  0  0  0  0  0 
    5.0000    2.3502   -2.0793 H   0  0  0  0  0  0  0  0  0  0  0  0 
    6.7058    1.8556   -2.0114 H   0  0  0  0  0  0  0  0  0  0  0  0 
    5.7026    1.3785   -3.3923 H   0  0  0  0  0  0  0  0  0  0  0  0 
    5.4262    2.1313   -7.1241 H   0  0  0  0  0  0  0  0  0  0  0  0 
    4.5231    1.7488   -5.6439 H   0  0  0  0  0  0  0  0  0  0  0  0 
    6.2981    1.7643   -5.6321 H   0  0  0  0  0  0  0  0  0  0  0  0 
    1.9461    5.3178   -3.1918 H   0  0  0  0  0  0  0  0  0  0  0  0 
    2.2201    7.0004   -3.5903 H   0  0  0  0  0  0  0  0  0  0  0  0 
    4.9728    6.2271   -5.9137 H   0  0  0  0  0  0  0  0  0  0  0  0 
    3.4968    7.1644   -5.8972 H   0  0  0  0  0  0  0  0  0  0  0  0 
    7.2170    3.3474   -3.9591 H   0  0  0  0  0  0  0  0  0  0  0  0 
    6.5191    4.2393   -2.6054 H   0  0  0  0  0  0  0  0  0  0  0  0 
    4.4889    4.1901   -6.1735 H   0  0  0  0  0  0  0  0  0  0  0  0 
    6.2579    4.2419   -6.1462 H   0  0  0  0  0  0  0  0  0  0  0  0 
  1 13  1  0  0  0  0 
  1  5  1  0  0  0  0 
  2 17  1  0  0  0  0 
  2 18  1  0  0  0  0 
  3 19  1  0  0  0  0 
  3 20  1  0  0  0  0 
  4  8  1  0  0  0  0 
  4 23  1  0  0  0  0 
  4 24  1  0  0  0  0 
  5 26  1  0  0  0  0 
  5 25  1  0  0  0  0 
  6 10  1  0  0  0  0 
  6  2  1  0  0  0  0 
  7  3  1  0  0  0  0 
  7 30  1  0  0  0  0 
  8 11  1  0  0  0  0 
  9 12  2  0  0  0  0 
 10  5  1  0  0  0  0 
 10  9  1  0  0  0  0 
 11  9  1  0  0  0  0 
 11  7  1  0  0  0  0 
 14  1  1  0  0  0  0 
 15  1  1  0  0  0  0 
 16  2  1  0  0  0  0 
 21  3  1  0  0  0  0 
 22  4  1  0  0  0  0 
 27  6  1  0  0  0  0 
 28  6  1  0  0  0  0 
 29  7  1  0  0  0  0 
 31  8  1  0  0  0  0 
 32  8  1  0  0  0  0 
M  END 
>  <HBA> 
3 
 
>  <HBD> 
0 
 
>  <TPSA> 
23.55 
 
>  <cid> 
14465 
 
>  <dipole> 
3.1 
 
>  <excitation_energy_1> 
5.397 
 
>  <excitation_energy_2> 
5.607 
 
>  <excitation_energy_3> 
5.769 
 
>  <excitation_energy_4> 
5.921 
 
>  <homo_energy> 
-5.976 
 
>  <homo_lumo_gap> 
7.17 
 
>  <logP> 
1.79 
 
>  <lumo_energy> 
1.195 
 
>  <melting_point> 
8.44 
 
>  <molecular_refractivity> 
51.76 
 
>  <oscillator_strength_1> 
0.0332 
 
>  <oscillator_strength_2> 
0.0287 
 
>  <oscillator_strength_3> 
0.0425 
 
>  <oscillator_strength_4> 
0.0035 
 
>  <open_babel_can_smiles> 
CCN(C(=O)N(CC)CC)CC 
 
>  <mulliken_charges> 
32 
1   -0.440255 
2   -0.449454 
3   -0.448494 
4   -0.449279 
5   -0.13262 
6   -0.147454 
7   -0.131127 
8   -0.145578 
9   0.713446 
10   -0.452817 
11   -0.420485 
12   -0.536062 
13   0.143651 
14   0.150083 
15   0.140513 
16   0.142784 
17   0.160189 
18   0.15792 
19   0.18784 
20   0.135474 
21   0.140746 
22   0.146326 
23   0.159457 
24   0.154487 
25   0.181019 
26   0.133104 
27   0.151812 
28   0.147628 
29   0.132511 
30   0.161975 
31   0.176403 
32   0.136254 
 
>  <lowdin_charges> 
32 
1   -0.450129 
2   -0.461021 
3   -0.460562 
4   -0.45279 
5   -0.195518 
6   -0.200083 
7   -0.190169 
8   -0.199865 
9   0.171132 
10   -0.161265 
11   -0.122795 
12   -0.331088 
13   0.151762 
14   0.150923 
15   0.145094 
16   0.153808 
17   0.157368 
18   0.155708 
19   0.170908 
20   0.149881 
21   0.147281 
22   0.152915 
23   0.156825 
24   0.152825 
25   0.171314 
26   0.133673 
27   0.151532 
28   0.149608 
29   0.141177 
30   0.1597 
31   0.166567 
32   0.135286 
 
$$$$ 
 
