PCCDB-ID:  70775 
public computational chemistry database (PCCDB) project, http://pccdb.org 
 
 21 21  0  0  0  0  0  0  0  0999 V2000 
    2.0126    2.6387    1.9875 C   0  0  0  0  0  0  0  0  0  0  0  0 
    2.7906    1.5555    2.0052 C   0  0  0  0  0  0  0  0  0  0  0  0 
    3.0959    0.6915    0.8078 C   0  0  0  0  0  0  0  0  0  0  0  0 
    5.3859    1.7170    0.3949 C   0  0  0  0  0  0  0  0  0  0  0  0 
    6.7448    1.5993    0.0933 C   0  0  0  0  0  0  0  0  0  0  0  0 
    5.1804   -0.6734    0.3073 C   0  0  0  0  0  0  0  0  0  0  0  0 
    4.5830    0.5795    0.5037 C   0  0  0  0  0  0  0  0  0  0  0  0 
    7.3334    0.3513   -0.1029 C   0  0  0  0  0  0  0  0  0  0  0  0 
    6.5355   -0.8028    0.0068 C   0  0  0  0  0  0  0  0  0  0  0  0 
    8.6576    0.1745   -0.3973 O   0  0  0  0  0  0  0  0  0  0  0  0 
    7.1499   -2.0086   -0.1905 O   0  0  0  0  0  0  0  0  0  0  0  0 
    1.8226    3.2226    2.8841 H   0  0  0  0  0  0  0  0  0  0  0  0 
    1.5295    2.9799    1.0737 H   0  0  0  0  0  0  0  0  0  0  0  0 
    3.2625    1.2496    2.9396 H   0  0  0  0  0  0  0  0  0  0  0  0 
    2.5601    1.0875   -0.0662 H   0  0  0  0  0  0  0  0  0  0  0  0 
    2.6967   -0.3184    0.9796 H   0  0  0  0  0  0  0  0  0  0  0  0 
    4.9533    2.7008    0.5521 H   0  0  0  0  0  0  0  0  0  0  0  0 
    7.3626    2.4925    0.0115 H   0  0  0  0  0  0  0  0  0  0  0  0 
    4.5759   -1.5767    0.3893 H   0  0  0  0  0  0  0  0  0  0  0  0 
    9.0815    1.0460   -0.4263 H   0  0  0  0  0  0  0  0  0  0  0  0 
    6.4889   -2.7096   -0.0797 H   0  0  0  0  0  0  0  0  0  0  0  0 
  1  2  2  0  0  0  0 
  1 12  1  0  0  0  0 
  2 14  1  0  0  0  0 
  3 16  1  0  0  0  0 
  3  2  1  0  0  0  0 
  4  7  1  0  0  0  0 
  4 17  1  0  0  0  0 
  5  4  2  0  0  0  0 
  6 19  1  0  0  0  0 
  6  7  2  0  0  0  0 
  7  3  1  0  0  0  0 
  8  9  2  0  0  0  0 
  8  5  1  0  0  0  0 
  9  6  1  0  0  0  0 
 10  8  1  0  0  0  0 
 11 21  1  0  0  0  0 
 11  9  1  0  0  0  0 
 13  1  1  0  0  0  0 
 15  3  1  0  0  0  0 
 18  5  1  0  0  0  0 
 20 10  1  0  0  0  0 
M  END 
>  <HBA> 
2 
 
>  <HBD> 
2 
 
>  <TPSA> 
40.46 
 
>  <cid> 
70775 
 
>  <dipole> 
1.12 
 
>  <excitation_energy_1> 
4.708 
 
>  <excitation_energy_2> 
4.783 
 
>  <excitation_energy_3> 
4.981 
 
>  <excitation_energy_4> 
5.234 
 
>  <homo_energy> 
-5.442 
 
>  <homo_lumo_gap> 
5.573 
 
>  <logP> 
1.826 
 
>  <lumo_energy> 
0.131 
 
>  <melting_point> 
67.17 
 
>  <molecular_refractivity> 
44.59 
 
>  <oscillator_strength_1> 
0.0981 
 
>  <oscillator_strength_2> 
0.0004 
 
>  <oscillator_strength_3> 
0.0002 
 
>  <oscillator_strength_4> 
0.0196 
 
>  <open_babel_can_smiles> 
C=CCc1ccc(c(c1)O)O 
 
>  <mulliken_charges> 
21 
1   -0.347934 
2   -0.029444 
3   -0.392617 
4   -0.187949 
5   -0.196497 
6   -0.273785 
7   0.170051 
8   0.315805 
9   0.331879 
10   -0.633713 
11   -0.635481 
12   0.140034 
13   0.135431 
14   0.131412 
15   0.154624 
16   0.147985 
17   0.129796 
18   0.117495 
19   0.110237 
20   0.406209 
21   0.406463 
 
>  <lowdin_charges> 
21 
1   -0.347332 
2   -0.141367 
3   -0.267352 
4   -0.17522 
5   -0.204864 
6   -0.21881 
7   -0.013188 
8   0.076056 
9   0.078417 
10   -0.372274 
11   -0.371809 
12   0.159357 
13   0.15423 
14   0.153368 
15   0.157121 
16   0.153345 
17   0.160866 
18   0.15389 
19   0.150239 
20   0.356949 
21   0.358376 
 
$$$$ 
 
