PCCDB-ID:  21158 
public computational chemistry database (PCCDB) project, http://pccdb.org 
 
 16 16  0  0  1  0  0  0  0  0999 V2000 
    1.0807    0.0649   -0.0045 C   0  0  0  0  0  0  0  0  0  0  0  0 
    2.8262    1.7100   -2.0934 C   0  0  0  0  0  0  0  0  0  0  0  0 
    4.7766    1.4382   -0.4677 C   0  0  0  0  0  0  0  0  0  0  0  0 
    2.5855    0.1739    0.0215 C   0  0  2  0  0  0  0  0  0  0  0  0 
    3.4187    0.9430   -0.9285 C   0  0  0  0  0  0  0  0  0  0  0  0 
    3.3172   -0.4962   -1.0206 O   0  0  0  0  0  0  0  0  0  0  0  0 
    0.6313    0.7891    0.6859 H   0  0  0  0  0  0  0  0  0  0  0  0 
    0.7738   -0.9376    0.3163 H   0  0  0  0  0  0  0  0  0  0  0  0 
    0.6722    0.2346   -1.0034 H   0  0  0  0  0  0  0  0  0  0  0  0 
    2.6768    2.7641   -1.8296 H   0  0  0  0  0  0  0  0  0  0  0  0 
    1.8702    1.2926   -2.4159 H   0  0  0  0  0  0  0  0  0  0  0  0 
    3.5116    1.6743   -2.9488 H   0  0  0  0  0  0  0  0  0  0  0  0 
    4.7167    2.4732   -0.1092 H   0  0  0  0  0  0  0  0  0  0  0  0 
    5.4960    1.4111   -1.2952 H   0  0  0  0  0  0  0  0  0  0  0  0 
    5.1648    0.8113    0.3405 H   0  0  0  0  0  0  0  0  0  0  0  0 
    3.0183    0.0198    1.0149 H   0  0  0  0  0  0  0  0  0  0  0  0 
  1  4  1  0  0  0  0 
  1  8  1  0  0  0  0 
  1  7  1  0  0  0  0 
  2 10  1  0  0  0  0 
  2  5  1  0  0  0  0 
  3 13  1  0  0  0  0 
  3 15  1  0  0  0  0 
  4 16  1  1  0  0  0 
  5  3  1  0  0  0  0 
  5  4  1  0  0  0  0 
  6  5  1  0  0  0  0 
  6  4  1  0  0  0  0 
  9  1  1  0  0  0  0 
 11  2  1  0  0  0  0 
 12  2  1  0  0  0  0 
 14  3  1  0  0  0  0 
M  END 
>  <HBA> 
1 
 
>  <HBD> 
0 
 
>  <TPSA> 
12.53 
 
>  <cid> 
21158 
 
>  <dipole> 
1.93 
 
>  <excitation_energy_1> 
6.652 
 
>  <excitation_energy_2> 
7.139 
 
>  <excitation_energy_3> 
7.187 
 
>  <excitation_energy_4> 
7.239 
 
>  <homo_energy> 
-6.909 
 
>  <homo_lumo_gap> 
9.445 
 
>  <logP> 
1.184 
 
>  <lumo_energy> 
2.536 
 
>  <melting_point> 
-1.25 
 
>  <molecular_refractivity> 
25.16 
 
>  <oscillator_strength_1> 
0.0182 
 
>  <oscillator_strength_2> 
0.01 
 
>  <oscillator_strength_3> 
0.0248 
 
>  <oscillator_strength_4> 
0.0063 
 
>  <open_babel_can_smiles> 
C[C@H]1OC1(C)C 
 
>  <mulliken_charges> 
16 
1   -0.469002 
2   -0.477403 
3   -0.474558 
4   0.076672 
5   0.315434 
6   -0.481147 
7   0.148129 
8   0.160339 
9   0.158032 
10   0.146908 
11   0.158131 
12   0.155303 
13   0.145724 
14   0.153287 
15   0.157317 
16   0.126833 
 
>  <lowdin_charges> 
16 
1   -0.44897 
2   -0.445671 
3   -0.445662 
4   -0.025338 
5   0.107033 
6   -0.301792 
7   0.157655 
8   0.16051 
9   0.158317 
10   0.15379 
11   0.159753 
12   0.158786 
13   0.153036 
14   0.1568 
15   0.160999 
16   0.140755 
 
$$$$ 
 
