PCCDB-ID:  17130 
public computational chemistry database (PCCDB) project, http://pccdb.org 
 
 20 21  0  0  0  0  0  0  0  0999 V2000 
    0.9668   -0.1264    0.0843 C   0  0  0  0  0  0  0  0  0  0  0  0 
    6.7587    2.2539   -0.1946 C   0  0  0  0  0  0  0  0  0  0  0  0 
    7.3984    1.0057   -0.2338 C   0  0  0  0  0  0  0  0  0  0  0  0 
    5.3738    2.3195   -0.1241 C   0  0  0  0  0  0  0  0  0  0  0  0 
    6.6585   -0.1719   -0.2028 C   0  0  0  0  0  0  0  0  0  0  0  0 
    3.1616    1.1241   -0.0188 C   0  0  0  0  0  0  0  0  0  0  0  0 
    2.4638   -0.0376    0.0098 C   0  0  0  0  0  0  0  0  0  0  0  0 
    4.6009    1.1439   -0.0916 C   0  0  0  0  0  0  0  0  0  0  0  0 
    5.2666   -0.0945   -0.1323 C   0  0  0  0  0  0  0  0  0  0  0  0 
    3.1816   -1.3206   -0.0334 C   0  0  0  0  0  0  0  0  0  0  0  0 
    2.6586   -2.4113   -0.0121 O   0  0  0  0  0  0  0  0  0  0  0  0 
    4.5699   -1.2689   -0.1037 O   0  0  0  0  0  0  0  0  0  0  0  0 
    0.5152    0.8693    0.1197 H   0  0  0  0  0  0  0  0  0  0  0  0 
    0.6540   -0.6889    0.9714 H   0  0  0  0  0  0  0  0  0  0  0  0 
    0.5653   -0.6667   -0.7808 H   0  0  0  0  0  0  0  0  0  0  0  0 
    7.3461    3.1667   -0.2200 H   0  0  0  0  0  0  0  0  0  0  0  0 
    8.4821    0.9539   -0.2884 H   0  0  0  0  0  0  0  0  0  0  0  0 
    4.8679    3.2813   -0.0925 H   0  0  0  0  0  0  0  0  0  0  0  0 
    7.1312   -1.1480   -0.2322 H   0  0  0  0  0  0  0  0  0  0  0  0 
    2.6333    2.0753    0.0136 H   0  0  0  0  0  0  0  0  0  0  0  0 
  1 13  1  0  0  0  0 
  1 14  1  0  0  0  0 
  2  4  2  0  0  0  0 
  3  5  2  0  0  0  0 
  3  2  1  0  0  0  0 
  4 18  1  0  0  0  0 
  4  8  1  0  0  0  0 
  5  9  1  0  0  0  0 
  6  7  2  0  0  0  0 
  6 20  1  0  0  0  0 
  7  1  1  0  0  0  0 
  8  6  1  0  0  0  0 
  9 12  1  0  0  0  0 
  9  8  2  0  0  0  0 
 10 11  2  0  0  0  0 
 10  7  1  0  0  0  0 
 12 10  1  0  0  0  0 
 15  1  1  0  0  0  0 
 16  2  1  0  0  0  0 
 17  3  1  0  0  0  0 
 19  5  1  0  0  0  0 
M  END 
>  <HBA> 
2 
 
>  <HBD> 
0 
 
>  <TPSA> 
30.21 
 
>  <cid> 
17130 
 
>  <dipole> 
4.31 
 
>  <excitation_energy_1> 
4.194 
 
>  <excitation_energy_2> 
4.558 
 
>  <excitation_energy_3> 
4.567 
 
>  <excitation_energy_4> 
5.317 
 
>  <homo_energy> 
-6.338 
 
>  <homo_lumo_gap> 
4.637 
 
>  <logP> 
2.101 
 
>  <lumo_energy> 
-1.701 
 
>  <melting_point> 
87.16 
 
>  <molecular_refractivity> 
47.45 
 
>  <oscillator_strength_1> 
0.188 
 
>  <oscillator_strength_2> 
0.0003 
 
>  <oscillator_strength_3> 
0.1641 
 
>  <oscillator_strength_4> 
0.0156 
 
>  <open_babel_can_smiles> 
O=c1oc2ccccc2cc1C 
 
>  <mulliken_charges> 
20 
1   -0.509832 
2   -0.131755 
3   -0.133933 
4   -0.201616 
5   -0.169461 
6   -0.186596 
7   0.067558 
8   0.138343 
9   0.307682 
10   0.563778 
11   -0.461252 
12   -0.516116 
13   0.150077 
14   0.180323 
15   0.180105 
16   0.138219 
17   0.142832 
18   0.139513 
19   0.156509 
20   0.145621 
 
>  <lowdin_charges> 
20 
1   -0.432064 
2   -0.165538 
3   -0.136537 
4   -0.148035 
5   -0.171997 
6   -0.129453 
7   -0.04162 
8   -0.036856 
9   0.108787 
10   0.19462 
11   -0.244568 
12   -0.12938 
13   0.155506 
14   0.1734 
15   0.173477 
16   0.163637 
17   0.163225 
18   0.162507 
19   0.175537 
20   0.165352 
 
$$$$ 
 
