PCCDB-ID:  31142 
public computational chemistry database (PCCDB) project, http://pccdb.org 
 
 33 34  0  0  1  0  0  0  0  0999 V2000 
    0.6488   -0.2830   -0.0526 C   0  0  0  0  0  0  0  0  0  0  0  0 
    2.4818   -0.2615    1.5930 C   0  0  0  0  0  0  0  0  0  0  0  0 
    2.2884    2.4868   -0.1863 C   0  0  0  0  0  0  0  0  0  0  0  0 
    5.6175    2.7903    0.4056 C   0  0  0  0  0  0  0  0  0  0  0  0 
    2.5715   -0.7465   -2.2320 C   0  0  0  0  0  0  0  0  0  0  0  0 
    2.4374    0.8041   -2.1288 C   0  0  0  0  0  0  0  0  0  0  0  0 
    4.4427   -0.6774   -0.5935 C   0  0  0  0  0  0  0  0  0  0  0  0 
    2.9860   -1.1466   -0.7971 C   0  0  1  0  0  0  0  0  0  0  0  0 
    4.3394    0.8842   -0.5384 C   0  0  1  0  0  0  0  0  0  0  0  0 
    2.1789   -0.1459    0.0854 C   0  0  0  0  0  0  0  0  0  0  0  0 
    2.7809    1.1192   -0.6426 C   0  0  1  0  0  0  0  0  0  0  0  0 
    5.0746    1.4496    0.5970 N   0  0  0  0  0  0  0  0  0  0  0  0 
    0.3283   -1.2750    0.2896 H   0  0  0  0  0  0  0  0  0  0  0  0 
    0.2806   -0.1544   -1.0728 H   0  0  0  0  0  0  0  0  0  0  0  0 
    0.1350    0.4548    0.5759 H   0  0  0  0  0  0  0  0  0  0  0  0 
    2.0034   -1.1613    1.9995 H   0  0  0  0  0  0  0  0  0  0  0  0 
    2.0687    0.5936    2.1431 H   0  0  0  0  0  0  0  0  0  0  0  0 
    3.5446   -0.3368    1.8333 H   0  0  0  0  0  0  0  0  0  0  0  0 
    2.6831    3.2844   -0.8274 H   0  0  0  0  0  0  0  0  0  0  0  0 
    2.5909    2.7133    0.8429 H   0  0  0  0  0  0  0  0  0  0  0  0 
    1.1942    2.5464   -0.2304 H   0  0  0  0  0  0  0  0  0  0  0  0 
    6.1759    3.0792    1.3033 H   0  0  0  0  0  0  0  0  0  0  0  0 
    4.8773    3.5824    0.1987 H   0  0  0  0  0  0  0  0  0  0  0  0 
    6.3271    2.7746   -0.4303 H   0  0  0  0  0  0  0  0  0  0  0  0 
    3.3219   -1.0554   -2.9679 H   0  0  0  0  0  0  0  0  0  0  0  0 
    1.6263   -1.2142   -2.5261 H   0  0  0  0  0  0  0  0  0  0  0  0 
    1.4245    1.1396   -2.3770 H   0  0  0  0  0  0  0  0  0  0  0  0 
    3.1154    1.3319   -2.8094 H   0  0  0  0  0  0  0  0  0  0  0  0 
    5.0988   -1.0172   -1.4029 H   0  0  0  0  0  0  0  0  0  0  0  0 
    4.8775   -1.0480    0.3390 H   0  0  0  0  0  0  0  0  0  0  0  0 
    2.8270   -2.2059   -0.5661 H   0  0  0  0  0  0  0  0  0  0  0  0 
    4.8113    1.3186   -1.4276 H   0  0  0  0  0  0  0  0  0  0  0  0 
    4.5181    1.4192    1.4453 H   0  0  0  0  0  0  0  0  0  0  0  0 
  1 10  1  0  0  0  0 
  1 13  1  0  0  0  0 
  1 15  1  0  0  0  0 
  2 18  1  0  0  0  0 
  2 16  1  0  0  0  0 
  2 17  1  0  0  0  0 
  3 20  1  0  0  0  0 
  4 12  1  0  0  0  0 
  4 22  1  0  0  0  0 
  5  6  1  0  0  0  0 
  5  8  1  0  0  0  0 
  6 11  1  0  0  0  0 
  7  9  1  0  0  0  0 
  7 30  1  0  0  0  0 
  8  7  1  0  0  0  0 
  8 31  1  1  0  0  0 
  8 10  1  0  0  0  0 
  9 32  1  6  0  0  0 
  9 12  1  0  0  0  0 
 10  2  1  0  0  0  0 
 11  9  1  0  0  0  0 
 11  3  1  1  0  0  0 
 11 10  1  0  0  0  0 
 12 33  1  0  0  0  0 
 14  1  1  0  0  0  0 
 19  3  1  0  0  0  0 
 21  3  1  0  0  0  0 
 23  4  1  0  0  0  0 
 24  4  1  0  0  0  0 
 25  5  1  0  0  0  0 
 26  5  1  0  0  0  0 
 27  6  1  0  0  0  0 
 28  6  1  0  0  0  0 
 29  7  1  0  0  0  0 
M  END 
>  <HBA> 
1 
 
>  <HBD> 
1 
 
>  <TPSA> 
12.03 
 
>  <cid> 
31142 
 
>  <dipole> 
0.9 
 
>  <excitation_energy_1> 
5.096 
 
>  <excitation_energy_2> 
5.371 
 
>  <excitation_energy_3> 
5.494 
 
>  <excitation_energy_4> 
5.627 
 
>  <homo_energy> 
-5.524 
 
>  <homo_lumo_gap> 
7.519 
 
>  <logP> 
2.812 
 
>  <lumo_energy> 
1.995 
 
>  <melting_point> 
79.83 
 
>  <molecular_refractivity> 
53.04 
 
>  <oscillator_strength_1> 
0.0008 
 
>  <oscillator_strength_2> 
0.0018 
 
>  <oscillator_strength_3> 
0.0021 
 
>  <oscillator_strength_4> 
0.0302 
 
>  <open_babel_can_smiles> 
CN[C@H]1C[C@H]2C([C@]1(C)CC2)(C)C 
 
>  <mulliken_charges> 
33 
1   -0.468696 
2   -0.485512 
3   -0.480169 
4   -0.303328 
5   -0.27725 
6   -0.293412 
7   -0.284901 
8   -0.09805 
9   0.039427 
10   0.104405 
11   0.086368 
12   -0.565267 
13   0.139738 
14   0.145801 
15   0.14032 
16   0.142716 
17   0.139356 
18   0.150438 
19   0.143982 
20   0.133953 
21   0.142215 
22   0.144192 
23   0.125812 
24   0.148933 
25   0.130764 
26   0.135071 
27   0.133808 
28   0.130201 
29   0.128811 
30   0.146414 
31   0.106769 
32   0.117652 
33   0.299437 
 
>  <lowdin_charges> 
33 
1   -0.447644 
2   -0.453679 
3   -0.4435 
4   -0.362374 
5   -0.287353 
6   -0.287193 
7   -0.291568 
8   -0.13434 
9   -0.071464 
10   0.002625 
11   -0.013829 
12   -0.363669 
13   0.148508 
14   0.150527 
15   0.149139 
16   0.151611 
17   0.147477 
18   0.150531 
19   0.151527 
20   0.143387 
21   0.147779 
22   0.14873 
23   0.123609 
24   0.146596 
25   0.143808 
26   0.14338 
27   0.141636 
28   0.142897 
29   0.14415 
30   0.150607 
31   0.135384 
32   0.139821 
33   0.252884 
 
$$$$ 
 
