PCCDB-ID:  16622 
public computational chemistry database (PCCDB) project, http://pccdb.org 
 
 36 37  0  0  0  0  0  0  0  0999 V2000 
    0.9250    1.7009   -1.7203 C   0  0  0  0  0  0  0  0  0  0  0  0 
    2.4373    1.8856   -1.8323 C   0  0  0  0  0  0  0  0  0  0  0  0 
    5.9802    1.0667   -5.5099 C   0  0  0  0  0  0  0  0  0  0  0  0 
    5.2230    0.1779    1.5497 C   0  0  0  0  0  0  0  0  0  0  0  0 
    6.4671    1.9414   -4.5411 C   0  0  0  0  0  0  0  0  0  0  0  0 
    5.0547    0.0888   -5.1386 C   0  0  0  0  0  0  0  0  0  0  0  0 
    4.6946   -0.9368    0.6372 C   0  0  0  0  0  0  0  0  0  0  0  0 
    4.7776    1.5587    1.0490 C   0  0  0  0  0  0  0  0  0  0  0  0 
    6.0384    1.8388   -3.2142 C   0  0  0  0  0  0  0  0  0  0  0  0 
    4.6321   -0.0071   -3.8146 C   0  0  0  0  0  0  0  0  0  0  0  0 
    5.0711   -0.6898   -0.8326 C   0  0  0  0  0  0  0  0  0  0  0  0 
    5.1839    1.7771   -0.4157 C   0  0  0  0  0  0  0  0  0  0  0  0 
    5.1152    0.8607   -2.8199 C   0  0  0  0  0  0  0  0  0  0  0  0 
    4.6093    0.6961   -1.3655 C   0  0  0  0  0  0  0  0  0  0  0  0 
    3.1306    0.7190   -1.2813 N   0  0  0  0  0  0  0  0  0  0  0  0 
    0.3964    2.5809   -2.1030 H   0  0  0  0  0  0  0  0  0  0  0  0 
    0.6293    1.5402   -0.6782 H   0  0  0  0  0  0  0  0  0  0  0  0 
    0.5879    0.8341   -2.3039 H   0  0  0  0  0  0  0  0  0  0  0  0 
    2.7336    2.7684   -1.2537 H   0  0  0  0  0  0  0  0  0  0  0  0 
    2.7092    2.0929   -2.8819 H   0  0  0  0  0  0  0  0  0  0  0  0 
    6.3137    1.1452   -6.5412 H   0  0  0  0  0  0  0  0  0  0  0  0 
    6.3230    0.1392    1.5723 H   0  0  0  0  0  0  0  0  0  0  0  0 
    4.8837    0.0177    2.5811 H   0  0  0  0  0  0  0  0  0  0  0  0 
    7.1842    2.7119   -4.8131 H   0  0  0  0  0  0  0  0  0  0  0  0 
    4.6609   -0.6006   -5.8813 H   0  0  0  0  0  0  0  0  0  0  0  0 
    3.6035   -0.9911    0.7271 H   0  0  0  0  0  0  0  0  0  0  0  0 
    5.0929   -1.9097    0.9540 H   0  0  0  0  0  0  0  0  0  0  0  0 
    5.2218    2.3480    1.6695 H   0  0  0  0  0  0  0  0  0  0  0  0 
    3.6890    1.6476    1.1414 H   0  0  0  0  0  0  0  0  0  0  0  0 
    6.4357    2.5383   -2.4872 H   0  0  0  0  0  0  0  0  0  0  0  0 
    3.9060   -0.7736   -3.5536 H   0  0  0  0  0  0  0  0  0  0  0  0 
    4.6515   -1.4840   -1.4648 H   0  0  0  0  0  0  0  0  0  0  0  0 
    6.1610   -0.7510   -0.9524 H   0  0  0  0  0  0  0  0  0  0  0  0 
    6.2793    1.7459   -0.4838 H   0  0  0  0  0  0  0  0  0  0  0  0 
    4.8843    2.7787   -0.7467 H   0  0  0  0  0  0  0  0  0  0  0  0 
    2.7636   -0.1189   -1.7305 H   0  0  0  0  0  0  0  0  0  0  0  0 
  1 17  1  0  0  0  0 
  2  1  1  0  0  0  0 
  2 15  1  0  0  0  0 
  2 19  1  0  0  0  0 
  3  6  2  0  0  0  0 
  3  5  1  0  0  0  0 
  4 22  1  0  0  0  0 
  4 23  1  0  0  0  0 
  5  9  2  0  0  0  0 
  6 10  1  0  0  0  0 
  7 26  1  0  0  0  0 
  7 27  1  0  0  0  0 
  7  4  1  0  0  0  0 
  8 29  1  0  0  0  0 
  8  4  1  0  0  0  0 
  8 28  1  0  0  0  0 
  9 13  1  0  0  0  0 
  9 30  1  0  0  0  0 
 10 31  1  0  0  0  0 
 10 13  2  0  0  0  0 
 11  7  1  0  0  0  0 
 12  8  1  0  0  0  0 
 13 14  1  0  0  0  0 
 14 15  1  0  0  0  0 
 14 11  1  0  0  0  0 
 14 12  1  0  0  0  0 
 16  1  1  0  0  0  0 
 18  1  1  0  0  0  0 
 20  2  1  0  0  0  0 
 21  3  1  0  0  0  0 
 24  5  1  0  0  0  0 
 25  6  1  0  0  0  0 
 32 11  1  0  0  0  0 
 33 11  1  0  0  0  0 
 34 12  1  0  0  0  0 
 35 12  1  0  0  0  0 
 36 15  1  0  0  0  0 
M  END 
>  <HBA> 
1 
 
>  <HBD> 
1 
 
>  <TPSA> 
12.03 
 
>  <cid> 
16622 
 
>  <dipole> 
0.6 
 
>  <excitation_energy_1> 
4.884 
 
>  <excitation_energy_2> 
4.994 
 
>  <excitation_energy_3> 
5.27 
 
>  <excitation_energy_4> 
5.372 
 
>  <homo_energy> 
-5.81 
 
>  <homo_lumo_gap> 
5.85 
 
>  <logP> 
3.846 
 
>  <lumo_energy> 
0.041 
 
>  <melting_point> 
59.2 
 
>  <molecular_refractivity> 
65.63 
 
>  <oscillator_strength_1> 
0.0062 
 
>  <oscillator_strength_2> 
0.0204 
 
>  <oscillator_strength_3> 
0.0022 
 
>  <oscillator_strength_4> 
0.0023 
 
>  <open_babel_can_smiles> 
CCNC1(CCCCC1)c1ccccc1 
 
>  <mulliken_charges> 
36 
1   -0.45386 
2   -0.111733 
3   -0.12859 
4   -0.259382 
5   -0.133109 
6   -0.132481 
7   -0.24824 
8   -0.250606 
9   -0.191804 
10   -0.186779 
11   -0.278844 
12   -0.290106 
13   0.172569 
14   0.124018 
15   -0.562416 
16   0.144597 
17   0.155672 
18   0.136461 
19   0.14081 
20   0.127719 
21   0.126531 
22   0.122139 
23   0.127659 
24   0.1265 
25   0.126473 
26   0.143835 
27   0.124506 
28   0.122399 
29   0.149723 
30   0.127957 
31   0.111783 
32   0.122953 
33   0.136786 
34   0.13293 
35   0.135831 
36   0.2881 
 
>  <lowdin_charges> 
36 
1   -0.44751 
2   -0.202039 
3   -0.160349 
4   -0.272257 
5   -0.156175 
6   -0.158206 
7   -0.277193 
8   -0.2766 
9   -0.174975 
10   -0.167232 
11   -0.277371 
12   -0.280984 
13   -0.011435 
14   0.061227 
15   -0.358524 
16   0.1534 
17   0.152673 
18   0.14422 
19   0.141864 
20   0.124491 
21   0.155307 
22   0.131604 
23   0.141258 
24   0.156525 
25   0.157104 
26   0.144898 
27   0.140817 
28   0.141406 
29   0.147473 
30   0.160235 
31   0.148258 
32   0.140849 
33   0.14407 
34   0.14091 
35   0.143545 
36   0.248718 
 
$$$$ 
 
