PCCDB-ID:  7888 
public computational chemistry database (PCCDB) project, http://pccdb.org 
 
 32 31  0  0  1  0  0  0  0  0999 V2000 
    1.1279   -0.2515    0.0467 C   0  0  0  0  0  0  0  0  0  0  0  0 
    3.1946    6.2476    1.3637 C   0  0  0  0  0  0  0  0  0  0  0  0 
    3.1846    5.3353   -0.9881 C   0  0  0  0  0  0  0  0  0  0  0  0 
    2.6686    2.5179    0.2495 C   0  0  0  0  0  0  0  0  0  0  0  0 
    3.0281    1.2073    0.9652 C   0  0  0  0  0  0  0  0  0  0  0  0 
    3.3124   -1.3428    0.7705 C   0  0  0  0  0  0  0  0  0  0  0  0 
    3.1524    3.7529    1.0220 C   0  0  0  0  0  0  0  0  0  0  0  0 
    2.8498   -1.6864    2.1685 C   0  0  0  0  0  0  0  0  0  0  0  0 
    2.6476   -0.0667    0.1805 C   0  0  1  0  0  0  0  0  0  0  0  0 
    2.7004    5.1122    0.4535 C   0  0  0  0  0  0  0  0  0  0  0  0 
    2.1746   -2.6538    2.4489 O   0  0  0  0  0  0  0  0  0  0  0  0 
    1.2619    5.0731    0.4808 O   0  0  0  0  0  0  0  0  0  0  0  0 
    0.6691    0.5880   -0.4850 H   0  0  0  0  0  0  0  0  0  0  0  0 
    0.6466   -0.3268    1.0296 H   0  0  0  0  0  0  0  0  0  0  0  0 
    0.8902   -1.1676   -0.5058 H   0  0  0  0  0  0  0  0  0  0  0  0 
    4.2896    6.2850    1.4032 H   0  0  0  0  0  0  0  0  0  0  0  0 
    2.8137    6.1120    2.3813 H   0  0  0  0  0  0  0  0  0  0  0  0 
    2.8430    7.2204    0.9951 H   0  0  0  0  0  0  0  0  0  0  0  0 
    4.2785    5.3014   -1.0543 H   0  0  0  0  0  0  0  0  0  0  0  0 
    2.8639    6.3209   -1.3510 H   0  0  0  0  0  0  0  0  0  0  0  0 
    2.7716    4.5796   -1.6622 H   0  0  0  0  0  0  0  0  0  0  0  0 
    1.5850    2.5961    0.1143 H   0  0  0  0  0  0  0  0  0  0  0  0 
    3.1125    2.5035   -0.7557 H   0  0  0  0  0  0  0  0  0  0  0  0 
    2.5448    1.1946    1.9528 H   0  0  0  0  0  0  0  0  0  0  0  0 
    4.1119    1.1949    1.1556 H   0  0  0  0  0  0  0  0  0  0  0  0 
    3.1012   -2.2055    0.1294 H   0  0  0  0  0  0  0  0  0  0  0  0 
    4.4016   -1.1911    0.8019 H   0  0  0  0  0  0  0  0  0  0  0  0 
    4.2495    3.7501    1.0828 H   0  0  0  0  0  0  0  0  0  0  0  0 
    2.7809    3.6935    2.0540 H   0  0  0  0  0  0  0  0  0  0  0  0 
    3.1677   -0.9775    2.9666 H   0  0  0  0  0  0  0  0  0  0  0  0 
    3.0643    0.0389   -0.8322 H   0  0  0  0  0  0  0  0  0  0  0  0 
    0.9419    5.9135    0.1157 H   0  0  0  0  0  0  0  0  0  0  0  0 
  1  9  1  0  0  0  0 
  1 14  1  0  0  0  0 
  2 16  1  0  0  0  0 
  2 17  1  0  0  0  0 
  3 10  1  0  0  0  0 
  4  5  1  0  0  0  0 
  4  7  1  0  0  0  0 
  5 25  1  0  0  0  0 
  5 24  1  0  0  0  0 
  6 27  1  0  0  0  0 
  6  8  1  0  0  0  0 
  7 28  1  0  0  0  0 
  7 29  1  0  0  0  0 
  8 11  2  0  0  0  0 
  8 30  1  0  0  0  0 
  9 31  1  6  0  0  0 
  9  6  1  0  0  0  0 
  9  5  1  0  0  0  0 
 10 12  1  0  0  0  0 
 10  7  1  0  0  0  0 
 10  2  1  0  0  0  0 
 13  1  1  0  0  0  0 
 15  1  1  0  0  0  0 
 18  2  1  0  0  0  0 
 19  3  1  0  0  0  0 
 20  3  1  0  0  0  0 
 21  3  1  0  0  0  0 
 22  4  1  0  0  0  0 
 23  4  1  0  0  0  0 
 26  6  1  0  0  0  0 
 32 12  1  0  0  0  0 
M  END 
>  <HBA> 
2 
 
>  <HBD> 
1 
 
>  <TPSA> 
37.3 
 
>  <cid> 
7888 
 
>  <dipole> 
4.41 
 
>  <excitation_energy_1> 
4.132 
 
>  <excitation_energy_2> 
6.166 
 
>  <excitation_energy_3> 
6.329 
 
>  <excitation_energy_4> 
6.396 
 
>  <homo_energy> 
-6.645 
 
>  <homo_lumo_gap> 
6.093 
 
>  <logP> 
2.153 
 
>  <lumo_energy> 
-0.552 
 
>  <melting_point> 
32.15 
 
>  <molecular_refractivity> 
51.58 
 
>  <oscillator_strength_1> 
0.0001 
 
>  <oscillator_strength_2> 
0.0005 
 
>  <oscillator_strength_3> 
0.0035 
 
>  <oscillator_strength_4> 
0.0207 
 
>  <open_babel_can_smiles> 
O=CC[C@H](CCCC(O)(C)C)C 
 
>  <mulliken_charges> 
32 
1   -0.452982 
2   -0.453415 
3   -0.462475 
4   -0.272816 
5   -0.263071 
6   -0.335056 
7   -0.255289 
8   0.255966 
9   -0.086752 
10   0.305599 
11   -0.388256 
12   -0.637322 
13   0.153765 
14   0.152739 
15   0.149688 
16   0.140725 
17   0.154652 
18   0.128661 
19   0.141889 
20   0.129651 
21   0.159437 
22   0.166485 
23   0.126371 
24   0.133875 
25   0.123186 
26   0.158755 
27   0.146579 
28   0.124165 
29   0.138249 
30   0.102669 
31   0.130524 
32   0.3838 
 
>  <lowdin_charges> 
32 
1   -0.449757 
2   -0.452466 
3   -0.458689 
4   -0.276878 
5   -0.276722 
6   -0.309681 
7   -0.273845 
8   0.05138 
9   -0.116288 
10   0.125439 
11   -0.219134 
12   -0.467251 
13   0.155305 
14   0.151912 
15   0.154123 
16   0.149331 
17   0.155361 
18   0.143158 
19   0.150312 
20   0.143833 
21   0.158233 
22   0.15427 
23   0.136513 
24   0.139446 
25   0.134824 
26   0.16111 
27   0.155633 
28   0.138717 
29   0.146745 
30   0.115628 
31   0.140561 
32   0.338878 
 
$$$$ 
 
