PCCDB-ID:  9750 
public computational chemistry database (PCCDB) project, http://pccdb.org 
 
 25 24  0  0  1  0  0  0  0  0999 V2000 
    1.6402    0.7891   -1.3183 C   0  0  0  0  0  0  0  0  0  0  0  0 
    0.6007   -0.0779   -2.0475 C   0  0  0  0  0  0  0  0  0  0  0  0 
    2.4796    0.0118   -0.2900 C   0  0  0  0  0  0  0  0  0  0  0  0 
   -0.6179   -0.4546   -1.1977 C   0  0  1  0  0  0  0  0  0  0  0  0 
   -1.5097    0.7731   -0.9371 C   0  0  0  0  0  0  0  0  0  0  0  0 
    3.0314    1.6622    1.4991 C   0  0  0  0  0  0  0  0  0  0  0  0 
   -1.4431   -1.4325   -1.9283 N   0  0  0  0  0  0  0  0  0  0  0  0 
    3.6670    2.6187    2.0623 N   0  0  0  0  0  0  0  0  0  0  0  0 
    3.4212    0.8341    0.4672 N   0  0  0  0  0  0  0  0  0  0  0  0 
   -1.4908    1.7947   -1.5717 O   0  0  0  0  0  0  0  0  0  0  0  0 
   -2.4076    0.6199    0.0796 O   0  0  0  0  0  0  0  0  0  0  0  0 
    1.7967    1.3270    1.9652 O   0  0  0  0  0  0  0  0  0  0  0  0 
    1.1413    1.6286   -0.8218 H   0  0  0  0  0  0  0  0  0  0  0  0 
    2.3164    1.2292   -2.0630 H   0  0  0  0  0  0  0  0  0  0  0  0 
    1.0734   -1.0061   -2.4009 H   0  0  0  0  0  0  0  0  0  0  0  0 
    0.2276    0.4461   -2.9318 H   0  0  0  0  0  0  0  0  0  0  0  0 
    3.0623   -0.7684   -0.7956 H   0  0  0  0  0  0  0  0  0  0  0  0 
    1.8397   -0.4932    0.4370 H   0  0  0  0  0  0  0  0  0  0  0  0 
   -0.2755   -0.8274   -0.2120 H   0  0  0  0  0  0  0  0  0  0  0  0 
   -0.9152   -2.2942   -2.0555 H   0  0  0  0  0  0  0  0  0  0  0  0 
   -2.2799   -1.6753   -1.4007 H   0  0  0  0  0  0  0  0  0  0  0  0 
    4.5790    2.7793    1.6354 H   0  0  0  0  0  0  0  0  0  0  0  0 
    4.2200    1.1751   -0.0505 H   0  0  0  0  0  0  0  0  0  0  0  0 
   -2.2280   -0.2035    0.5630 H   0  0  0  0  0  0  0  0  0  0  0  0 
    1.6454    1.9464    2.7012 H   0  0  0  0  0  0  0  0  0  0  0  0 
  1 13  1  0  0  0  0 
  1  3  1  0  0  0  0 
  2  1  1  0  0  0  0 
  2  4  1  0  0  0  0 
  3 18  1  0  0  0  0 
  3  9  1  0  0  0  0 
  4  5  1  0  0  0  0 
  4 19  1  1  0  0  0 
  5 11  1  0  0  0  0 
  6 12  1  0  0  0  0 
  6  8  2  0  0  0  0 
  7 21  1  0  0  0  0 
  7  4  1  0  0  0  0 
  9  6  1  0  0  0  0 
 10  5  2  0  0  0  0 
 11 24  1  0  0  0  0 
 12 25  1  0  0  0  0 
 14  1  1  0  0  0  0 
 15  2  1  0  0  0  0 
 16  2  1  0  0  0  0 
 17  3  1  0  0  0  0 
 20  7  1  0  0  0  0 
 22  8  1  0  0  0  0 
 23  9  1  0  0  0  0 
M  END 
>  <HBA> 
6 
 
>  <HBD> 
4 
 
>  <TPSA> 
118.44 
 
>  <cid> 
9750 
 
>  <dipole> 
5.24 
 
>  <excitation_energy_1> 
5.145 
 
>  <excitation_energy_2> 
5.227 
 
>  <excitation_energy_3> 
5.305 
 
>  <excitation_energy_4> 
5.628 
 
>  <homo_energy> 
-6.188 
 
>  <homo_lumo_gap> 
6.144 
 
>  <logP> 
0.638 
 
>  <lumo_energy> 
-0.044 
 
>  <melting_point> 
218.0 
 
>  <molecular_refractivity> 
41.53 
 
>  <oscillator_strength_1> 
0.0001 
 
>  <oscillator_strength_2> 
0.0046 
 
>  <oscillator_strength_3> 
0.0011 
 
>  <oscillator_strength_4> 
0.0029 
 
>  <open_babel_can_smiles> 
OC(=N)NCCC[C@@H](C(=O)O)N 
 
>  <mulliken_charges> 
25 
1   -0.277316 
2   -0.255189 
3   -0.137985 
4   -0.091249 
5   0.624794 
6   0.654322 
7   -0.71156 
8   -0.663327 
9   -0.600217 
10   -0.431992 
11   -0.569927 
12   -0.608419 
13   0.173543 
14   0.133986 
15   0.121394 
16   0.181933 
17   0.141667 
18   0.172032 
19   0.118738 
20   0.307782 
21   0.295775 
22   0.271894 
23   0.318748 
24   0.407915 
25   0.42266 
 
>  <lowdin_charges> 
25 
1   -0.294827 
2   -0.277006 
3   -0.205812 
4   -0.103978 
5   0.197477 
6   0.163377 
7   -0.544011 
8   -0.49413 
9   -0.300879 
10   -0.222439 
11   -0.357966 
12   -0.385545 
13   0.162042 
14   0.147692 
15   0.140524 
16   0.173 
17   0.146977 
18   0.159182 
19   0.121355 
20   0.260924 
21   0.254542 
22   0.253429 
23   0.279995 
24   0.356322 
25   0.369753 
 
$$$$ 
 
