PCCDB-ID:  68400 
public computational chemistry database (PCCDB) project, http://pccdb.org 
 
 16 15  0  0  0  0  0  0  0  0999 V2000 
    1.4884   -0.7556   -0.0919 C   0  0  0  0  0  0  0  0  0  0  0  0 
   -2.4589    1.1245   -0.1810 C   0  0  0  0  0  0  0  0  0  0  0  0 
   -0.7767   -0.5467    0.6238 C   0  0  0  0  0  0  0  0  0  0  0  0 
    2.6268   -1.3270   -0.0639 N   0  0  0  0  0  0  0  0  0  0  0  0 
   -3.5417    0.8927    0.4336 N   0  0  0  0  0  0  0  0  0  0  0  0 
    0.3845   -1.1118    0.6596 N   0  0  0  0  0  0  0  0  0  0  0  0 
   -1.1958    0.5092   -0.1323 N   0  0  0  0  0  0  0  0  0  0  0  0 
    1.3304    0.3154   -0.9410 O   0  0  0  0  0  0  0  0  0  0  0  0 
   -2.3692    2.1320   -1.0870 O   0  0  0  0  0  0  0  0  0  0  0  0 
   -1.7305   -1.0467    1.4351 O   0  0  0  0  0  0  0  0  0  0  0  0 
    2.6079   -2.0988    0.6023 H   0  0  0  0  0  0  0  0  0  0  0  0 
   -3.4625    0.1123    1.0792 H   0  0  0  0  0  0  0  0  0  0  0  0 
   -0.4824    0.8983   -0.7416 H   0  0  0  0  0  0  0  0  0  0  0  0 
    2.1907    0.4200   -1.3861 H   0  0  0  0  0  0  0  0  0  0  0  0 
   -3.2530    2.5400   -1.0998 H   0  0  0  0  0  0  0  0  0  0  0  0 
   -1.2982   -1.7834    1.9057 H   0  0  0  0  0  0  0  0  0  0  0  0 
  1  4  1  0  0  0  0 
  1  6  2  0  0  0  0 
  2  7  1  0  0  0  0 
  2  5  2  0  0  0  0 
  3  6  2  0  0  0  0 
  3 10  1  0  0  0  0 
  4 11  1  0  0  0  0 
  5 12  1  0  0  0  0 
  7  3  1  0  0  0  0 
  8  1  1  0  0  0  0 
  9  2  1  0  0  0  0 
 10 16  1  0  0  0  0 
 13  7  1  0  0  0  0 
 14  8  1  0  0  0  0 
 15  9  1  0  0  0  0 
M  RAD  1   4   2 
M  END 
>  <HBA> 
7 
 
>  <HBD> 
4 
 
>  <TPSA> 
127.31 
 
>  <cid> 
68400 
 
>  <dipole> 
0.66 
 
>  <excitation_energy_1> 
5.458 
 
>  <excitation_energy_2> 
5.624 
 
>  <excitation_energy_3> 
5.751 
 
>  <excitation_energy_4> 
6.012 
 
>  <homo_energy> 
-6.618 
 
>  <homo_lumo_gap> 
5.84 
 
>  <logP> 
0.625 
 
>  <lumo_energy> 
-0.778 
 
>  <melting_point> 
233.46 
 
>  <molecular_refractivity> 
29.32 
 
>  <oscillator_strength_1> 
0.6359 
 
>  <oscillator_strength_2> 
0.0011 
 
>  <oscillator_strength_3> 
0.0 
 
>  <oscillator_strength_4> 
0.0049 
 
>  <open_babel_can_smiles> 
OC(=N)NC(=[N]=C(O)[NH])O 
 
>  <mulliken_charges> 
16 
1   0.62888 
2   0.659585 
3   0.754919 
4   -0.642484 
5   -0.634448 
6   -0.566764 
7   -0.685683 
8   -0.630439 
9   -0.600575 
10   -0.598121 
11   0.298097 
12   0.326529 
13   0.402455 
14   0.427064 
15   0.428335 
16   0.43265 
 
>  <lowdin_charges> 
16 
1   0.157658 
2   0.170176 
3   0.207961 
4   -0.437592 
5   -0.445399 
6   -0.276691 
7   -0.247584 
8   -0.400106 
9   -0.372119 
10   -0.343986 
11   0.268118 
12   0.27667 
13   0.32173 
14   0.371614 
15   0.372245 
16   0.377304 
 
$$$$ 
 
