PCCDB-ID:  66304 
public computational chemistry database (PCCDB) project, http://pccdb.org 
 
 21 21  0  0  0  0  0  0  0  0999 V2000 
    2.9319   -1.5302   -1.4602 C   0  0  0  0  0  0  0  0  0  0  0  0 
    4.0203    0.0342    0.7243 C   0  0  0  0  0  0  0  0  0  0  0  0 
    3.0296    3.5944   -3.2691 C   0  0  0  0  0  0  0  0  0  0  0  0 
    1.8614    3.3822   -2.5356 C   0  0  0  0  0  0  0  0  0  0  0  0 
    4.0982    2.7013   -3.1545 C   0  0  0  0  0  0  0  0  0  0  0  0 
    1.7586    2.2785   -1.6871 C   0  0  0  0  0  0  0  0  0  0  0  0 
    3.9965    1.5977   -2.3079 C   0  0  0  0  0  0  0  0  0  0  0  0 
    2.8252    1.3778   -1.5674 C   0  0  0  0  0  0  0  0  0  0  0  0 
    1.2565   -0.0408    0.2314 O   0  0  0  0  0  0  0  0  0  0  0  0 
    2.6017   -0.0438   -0.4365 P   0  0  0  0  0  0  0  0  0  0  0  0 
    2.1505   -1.6159   -2.2209 H   0  0  0  0  0  0  0  0  0  0  0  0 
    2.8963   -2.4201   -0.8236 H   0  0  0  0  0  0  0  0  0  0  0  0 
    3.9072   -1.4832   -1.9558 H   0  0  0  0  0  0  0  0  0  0  0  0 
    4.9817    0.0638    0.2010 H   0  0  0  0  0  0  0  0  0  0  0  0 
    3.9964   -0.8420    1.3801 H   0  0  0  0  0  0  0  0  0  0  0  0 
    3.9237    0.9325    1.3410 H   0  0  0  0  0  0  0  0  0  0  0  0 
    3.1092    4.4529   -3.9308 H   0  0  0  0  0  0  0  0  0  0  0  0 
    1.0294    4.0757   -2.6236 H   0  0  0  0  0  0  0  0  0  0  0  0 
    5.0097    2.8660   -3.7229 H   0  0  0  0  0  0  0  0  0  0  0  0 
    0.8570    2.0992   -1.1086 H   0  0  0  0  0  0  0  0  0  0  0  0 
    4.8364    0.9105   -2.2305 H   0  0  0  0  0  0  0  0  0  0  0  0 
  1 12  1  0  0  0  0 
  1 10  1  0  0  0  0 
  2 16  1  0  0  0  0 
  2 15  1  0  0  0  0 
  3  5  2  0  0  0  0 
  3  4  1  0  0  0  0 
  4  6  2  0  0  0  0 
  5  7  1  0  0  0  0 
  6  8  1  0  0  0  0 
  6 20  1  0  0  0  0 
  7 21  1  0  0  0  0 
  7  8  2  0  0  0  0 
  8 10  1  0  0  0  0 
 10  9  2  0  0  0  0 
 10  2  1  0  0  0  0 
 11  1  1  0  0  0  0 
 13  1  1  0  0  0  0 
 14  2  1  0  0  0  0 
 17  3  1  0  0  0  0 
 18  4  1  0  0  0  0 
 19  5  1  0  0  0  0 
M  END 
>  <HBA> 
1 
 
>  <HBD> 
0 
 
>  <TPSA> 
26.88 
 
>  <cid> 
66304 
 
>  <dipole> 
4.16 
 
>  <excitation_energy_1> 
5.271 
 
>  <excitation_energy_2> 
5.41 
 
>  <excitation_energy_3> 
5.487 
 
>  <excitation_energy_4> 
5.829 
 
>  <homo_energy> 
-6.882 
 
>  <homo_lumo_gap> 
6.264 
 
>  <logP> 
1.935 
 
>  <lumo_energy> 
-0.618 
 
>  <melting_point> 
28.0 
 
>  <molecular_refractivity> 
45.41 
 
>  <oscillator_strength_1> 
0.0039 
 
>  <oscillator_strength_2> 
0.002 
 
>  <oscillator_strength_3> 
0.0093 
 
>  <oscillator_strength_4> 
0.0004 
 
>  <open_babel_can_smiles> 
CP(=O)(c1ccccc1)C 
 
>  <mulliken_charges> 
21 
1   -0.656721 
2   -0.657112 
3   -0.12768 
4   -0.122033 
5   -0.121403 
6   -0.165999 
7   -0.165467 
8   -0.099448 
9   -0.570934 
10   0.869327 
11   0.195627 
12   0.186067 
13   0.168784 
14   0.168832 
15   0.186195 
16   0.195696 
17   0.136611 
18   0.138553 
19   0.134486 
20   0.179209 
21   0.127409 
 
>  <lowdin_charges> 
21 
1   -0.63693 
2   -0.637165 
3   -0.145073 
4   -0.153876 
5   -0.1562 
6   -0.13716 
7   -0.154416 
8   -0.190173 
9   -0.630087 
10   0.929969 
11   0.188766 
12   0.183053 
13   0.172475 
14   0.172611 
15   0.183175 
16   0.188472 
17   0.16088 
18   0.162569 
19   0.159995 
20   0.183747 
21   0.155366 
 
$$$$ 
 
