PCCDB-ID:  30829 
public computational chemistry database (PCCDB) project, http://pccdb.org 
 
 30 29  0  0  1  0  0  0  0  0999 V2000 
    5.6863   -1.1443   -3.4950 C   0  0  0  0  0  0  0  0  0  0  0  0 
    2.3129    4.6329   -3.4838 C   0  0  0  0  0  0  0  0  0  0  0  0 
    4.3134   -1.3931   -4.1286 C   0  0  0  0  0  0  0  0  0  0  0  0 
    2.6226    3.3238   -2.7531 C   0  0  0  0  0  0  0  0  0  0  0  0 
    2.8275   -0.9491   -2.0629 C   0  0  0  0  0  0  0  0  0  0  0  0 
    1.6999    1.2028   -1.6553 C   0  0  0  0  0  0  0  0  0  0  0  0 
    3.2511   -1.9354   -3.1633 C   0  0  1  0  0  0  0  0  0  0  0  0 
    1.3660    2.5278   -2.3708 C   0  0  2  0  0  0  0  0  0  0  0  0 
    2.1066    0.1883   -2.6351 N   0  0  0  0  0  0  0  0  0  0  0  0 
    2.0885   -2.3747   -3.8844 O   0  0  0  0  0  0  0  0  0  0  0  0 
    0.5420    2.2687   -3.5116 O   0  0  0  0  0  0  0  0  0  0  0  0 
    6.4108   -0.8289   -4.2537 H   0  0  0  0  0  0  0  0  0  0  0  0 
    6.0770   -2.0533   -3.0213 H   0  0  0  0  0  0  0  0  0  0  0  0 
    5.6480   -0.3585   -2.7328 H   0  0  0  0  0  0  0  0  0  0  0  0 
    3.2333    5.1522   -3.7736 H   0  0  0  0  0  0  0  0  0  0  0  0 
    1.7319    5.3117   -2.8472 H   0  0  0  0  0  0  0  0  0  0  0  0 
    1.7237    4.4450   -4.3864 H   0  0  0  0  0  0  0  0  0  0  0  0 
    4.4134   -2.1217   -4.9435 H   0  0  0  0  0  0  0  0  0  0  0  0 
    3.9374   -0.4591   -4.5682 H   0  0  0  0  0  0  0  0  0  0  0  0 
    3.1931    3.5335   -1.8374 H   0  0  0  0  0  0  0  0  0  0  0  0 
    3.2629    2.6808   -3.3736 H   0  0  0  0  0  0  0  0  0  0  0  0 
    3.7150   -0.5753   -1.5379 H   0  0  0  0  0  0  0  0  0  0  0  0 
    2.2223   -1.4986   -1.3196 H   0  0  0  0  0  0  0  0  0  0  0  0 
    0.8343    0.8735   -1.0559 H   0  0  0  0  0  0  0  0  0  0  0  0 
    2.5293    1.3663   -0.9565 H   0  0  0  0  0  0  0  0  0  0  0  0 
    3.6422   -2.8369   -2.6741 H   0  0  0  0  0  0  0  0  0  0  0  0 
    0.7428    3.1403   -1.7075 H   0  0  0  0  0  0  0  0  0  0  0  0 
    1.2586   -0.1881   -3.0557 H   0  0  0  0  0  0  0  0  0  0  0  0 
    1.9734   -1.7690   -4.6332 H   0  0  0  0  0  0  0  0  0  0  0  0 
    1.1076    1.7621   -4.1194 H   0  0  0  0  0  0  0  0  0  0  0  0 
  1 13  1  0  0  0  0 
  1 14  1  0  0  0  0 
  2 16  1  0  0  0  0 
  2  4  1  0  0  0  0 
  3  1  1  0  0  0  0 
  3  7  1  0  0  0  0 
  4  8  1  0  0  0  0 
  4 20  1  0  0  0  0 
  5 22  1  0  0  0  0 
  5 23  1  0  0  0  0 
  6 24  1  0  0  0  0 
  6 25  1  0  0  0  0 
  7 26  1  1  0  0  0 
  7  5  1  0  0  0  0 
  8 27  1  1  0  0  0 
  8  6  1  0  0  0  0 
  9  5  1  0  0  0  0 
  9  6  1  0  0  0  0 
 10  7  1  0  0  0  0 
 11  8  1  0  0  0  0 
 12  1  1  0  0  0  0 
 15  2  1  0  0  0  0 
 17  2  1  0  0  0  0 
 18  3  1  0  0  0  0 
 19  3  1  0  0  0  0 
 21  4  1  0  0  0  0 
 28  9  1  0  0  0  0 
 29 10  1  0  0  0  0 
 30 11  1  0  0  0  0 
M  END 
>  <HBA> 
3 
 
>  <HBD> 
3 
 
>  <TPSA> 
52.49 
 
>  <cid> 
30829 
 
>  <dipole> 
2.0 
 
>  <excitation_energy_1> 
5.495 
 
>  <excitation_energy_2> 
5.821 
 
>  <excitation_energy_3> 
6.142 
 
>  <excitation_energy_4> 
6.27 
 
>  <homo_energy> 
-6.226 
 
>  <homo_lumo_gap> 
7.799 
 
>  <logP> 
0.509 
 
>  <lumo_energy> 
1.573 
 
>  <melting_point> 
36.52 
 
>  <molecular_refractivity> 
45.7 
 
>  <oscillator_strength_1> 
0.0036 
 
>  <oscillator_strength_2> 
0.0205 
 
>  <oscillator_strength_3> 
0.0382 
 
>  <oscillator_strength_4> 
0.0188 
 
>  <open_babel_can_smiles> 
CC[C@H](CNC[C@H](CC)O)O 
 
>  <mulliken_charges> 
30 
1   -0.454159 
2   -0.438064 
3   -0.289285 
4   -0.276911 
5   -0.120855 
6   -0.136345 
7   0.140627 
8   0.147435 
9   -0.597195 
10   -0.637162 
11   -0.633276 
12   0.149452 
13   0.146109 
14   0.151751 
15   0.138089 
16   0.140416 
17   0.155793 
18   0.143564 
19   0.139924 
20   0.1265 
21   0.137462 
22   0.138142 
23   0.125953 
24   0.128457 
25   0.135483 
26   0.130144 
27   0.128669 
28   0.302472 
29   0.389796 
30   0.387014 
 
>  <lowdin_charges> 
30 
1   -0.447132 
2   -0.447695 
3   -0.296513 
4   -0.29479 
5   -0.219571 
6   -0.218394 
7   -0.00665 
8   -0.009387 
9   -0.376661 
10   -0.468941 
11   -0.467672 
12   0.15579 
13   0.14916 
14   0.150392 
15   0.148174 
16   0.148069 
17   0.154429 
18   0.148133 
19   0.144446 
20   0.142004 
21   0.144355 
22   0.144681 
23   0.129935 
24   0.130656 
25   0.145302 
26   0.142326 
27   0.142642 
28   0.25346 
29   0.341576 
30   0.337877 
 
$$$$ 
 
