PCCDB-ID:  15088 
public computational chemistry database (PCCDB) project, http://pccdb.org 
 
 24 24  0  0  0  0  0  0  0  0999 V2000 
    1.9314   -1.0256    0.6404 C   0  0  0  0  0  0  0  0  0  0  0  0 
    4.9627    7.0225   -0.7948 C   0  0  0  0  0  0  0  0  0  0  0  0 
   -0.1308    4.1643    0.8963 C   0  0  0  0  0  0  0  0  0  0  0  0 
    0.3750    2.8657    0.8367 C   0  0  0  0  0  0  0  0  0  0  0  0 
    0.6871    5.2478    0.5847 C   0  0  0  0  0  0  0  0  0  0  0  0 
    2.5297    3.7383    0.1475 C   0  0  0  0  0  0  0  0  0  0  0  0 
    1.7086    2.6499    0.4615 C   0  0  0  0  0  0  0  0  0  0  0  0 
    2.0216    5.0386    0.2085 C   0  0  0  0  0  0  0  0  0  0  0  0 
    2.3063    1.2853    0.3815 C   0  0  0  0  0  0  0  0  0  0  0  0 
    2.8497    6.2377   -0.1129 C   0  0  0  0  0  0  0  0  0  0  0  0 
    3.4587    1.0565    0.0718 O   0  0  0  0  0  0  0  0  0  0  0  0 
    2.4454    7.3828   -0.0592 O   0  0  0  0  0  0  0  0  0  0  0  0 
    1.4181    0.3145    0.6959 O   0  0  0  0  0  0  0  0  0  0  0  0 
    4.1099    5.9125   -0.4738 O   0  0  0  0  0  0  0  0  0  0  0  0 
    1.0938   -1.6701    0.9088 H   0  0  0  0  0  0  0  0  0  0  0  0 
    2.7554   -1.1501    1.3479 H   0  0  0  0  0  0  0  0  0  0  0  0 
    2.2897   -1.2579   -0.3658 H   0  0  0  0  0  0  0  0  0  0  0  0 
    5.9293    6.5842   -1.0441 H   0  0  0  0  0  0  0  0  0  0  0  0 
    5.0534    7.6964    0.0611 H   0  0  0  0  0  0  0  0  0  0  0  0 
    4.5615    7.5803   -1.6452 H   0  0  0  0  0  0  0  0  0  0  0  0 
   -1.1637    4.3303    1.1880 H   0  0  0  0  0  0  0  0  0  0  0  0 
   -0.2556    2.0176    1.0787 H   0  0  0  0  0  0  0  0  0  0  0  0 
    0.3138    6.2658    0.6262 H   0  0  0  0  0  0  0  0  0  0  0  0 
    3.5583    3.5561   -0.1392 H   0  0  0  0  0  0  0  0  0  0  0  0 
  1 13  1  0  0  0  0 
  1 15  1  0  0  0  0 
  1 16  1  0  0  0  0 
  2 14  1  0  0  0  0 
  2 19  1  0  0  0  0 
  3 21  1  0  0  0  0 
  4  3  1  0  0  0  0 
  4 22  1  0  0  0  0 
  5 23  1  0  0  0  0 
  5  3  2  0  0  0  0 
  6  8  2  0  0  0  0 
  6  7  1  0  0  0  0 
  7  4  2  0  0  0  0 
  8  5  1  0  0  0  0 
  9  7  1  0  0  0  0 
  9 13  1  0  0  0  0 
 10 12  2  0  0  0  0 
 10  8  1  0  0  0  0 
 11  9  2  0  0  0  0 
 14 10  1  0  0  0  0 
 17  1  1  0  0  0  0 
 18  2  1  0  0  0  0 
 20  2  1  0  0  0  0 
 24  6  1  0  0  0  0 
M  END 
>  <HBA> 
4 
 
>  <HBD> 
0 
 
>  <TPSA> 
52.6 
 
>  <cid> 
15088 
 
>  <dipole> 
1.78 
 
>  <excitation_energy_1> 
4.739 
 
>  <excitation_energy_2> 
4.782 
 
>  <excitation_energy_3> 
4.855 
 
>  <excitation_energy_4> 
5.27 
 
>  <homo_energy> 
-7.244 
 
>  <homo_lumo_gap> 
5.687 
 
>  <logP> 
1.26 
 
>  <lumo_energy> 
-1.557 
 
>  <melting_point> 
56.21 
 
>  <molecular_refractivity> 
49.0 
 
>  <oscillator_strength_1> 
0.0161 
 
>  <oscillator_strength_2> 
0.0002 
 
>  <oscillator_strength_3> 
0.0 
 
>  <oscillator_strength_4> 
0.0906 
 
>  <open_babel_can_smiles> 
COC(=O)c1cccc(c1)C(=O)OC 
 
>  <mulliken_charges> 
24 
1   -0.217234 
2   -0.217507 
3   -0.143894 
4   -0.147776 
5   -0.14014 
6   -0.189362 
7   0.040803 
8   0.040668 
9   0.601333 
10   0.59933 
11   -0.487456 
12   -0.491657 
13   -0.470625 
14   -0.462755 
15   0.165206 
16   0.173022 
17   0.173477 
18   0.168042 
19   0.172706 
20   0.172087 
21   0.14375 
22   0.162311 
23   0.169365 
24   0.186307 
 
>  <lowdin_charges> 
24 
1   -0.276353 
2   -0.277783 
3   -0.154602 
4   -0.126627 
5   -0.115486 
6   -0.111666 
7   -0.04598 
8   -0.045747 
9   0.192456 
10   0.195808 
11   -0.2647 
12   -0.268246 
13   -0.190846 
14   -0.186663 
15   0.161799 
16   0.161491 
17   0.160639 
18   0.162094 
19   0.161546 
20   0.161315 
21   0.163727 
22   0.176067 
23   0.17939 
24   0.188366 
 
$$$$ 
 
