PCCDB-ID:  72930 
public computational chemistry database (PCCDB) project, http://pccdb.org 
 
 16 16  0  0  0  0  0  0  0  0999 V2000 
   -1.2400   -0.6704   -0.0634 C   0  0  0  0  0  0  0  0  0  0  0  0 
   -0.0579   -1.3904    0.0428 C   0  0  0  0  0  0  0  0  0  0  0  0 
   -1.1333    0.7212   -0.1613 C   0  0  0  0  0  0  0  0  0  0  0  0 
    1.1831   -0.7404    0.0486 C   0  0  0  0  0  0  0  0  0  0  0  0 
    1.1658    0.6920   -0.0163 C   0  0  0  0  0  0  0  0  0  0  0  0 
    2.4699   -1.4684    0.1561 C   0  0  0  0  0  0  0  0  0  0  0  0 
    2.3008    1.4248    0.0125 N   0  0  0  0  0  0  0  0  0  0  0  0 
    0.0140    1.3903   -0.1354 N   0  0  0  0  0  0  0  0  0  0  0  0 
    3.5330   -0.9433    0.4372 O   0  0  0  0  0  0  0  0  0  0  0  0 
    2.4575   -2.8089   -0.0736 O   0  0  0  0  0  0  0  0  0  0  0  0 
   -2.2077   -1.1592   -0.0631 H   0  0  0  0  0  0  0  0  0  0  0  0 
   -0.1112   -2.4715    0.1572 H   0  0  0  0  0  0  0  0  0  0  0  0 
   -2.0306    1.3318   -0.2568 H   0  0  0  0  0  0  0  0  0  0  0  0 
    3.1697    0.9666    0.2584 H   0  0  0  0  0  0  0  0  0  0  0  0 
    2.2001    2.4282    0.0470 H   0  0  0  0  0  0  0  0  0  0  0  0 
    1.6090   -3.0789   -0.4585 H   0  0  0  0  0  0  0  0  0  0  0  0 
  1 11  1  0  0  0  0 
  1  2  2  0  0  0  0 
  2  4  1  0  0  0  0 
  2 12  1  0  0  0  0 
  3  8  2  0  0  0  0 
  3  1  1  0  0  0  0 
  4  6  1  0  0  0  0 
  5  7  1  0  0  0  0 
  5  4  2  0  0  0  0 
  6  9  2  0  0  0  0 
  7 15  1  0  0  0  0 
  7 14  1  0  0  0  0 
  8  5  1  0  0  0  0 
 10  6  1  0  0  0  0 
 13  3  1  0  0  0  0 
 16 10  1  0  0  0  0 
M  END 
>  <HBA> 
4 
 
>  <HBD> 
2 
 
>  <TPSA> 
76.21 
 
>  <cid> 
72930 
 
>  <dipole> 
3.06 
 
>  <excitation_energy_1> 
3.905 
 
>  <excitation_energy_2> 
4.501 
 
>  <excitation_energy_3> 
4.875 
 
>  <excitation_energy_4> 
5.223 
 
>  <homo_energy> 
-6.106 
 
>  <homo_lumo_gap> 
4.542 
 
>  <logP> 
0.943 
 
>  <lumo_energy> 
-1.565 
 
>  <melting_point> 
160.31 
 
>  <molecular_refractivity> 
35.6 
 
>  <oscillator_strength_1> 
0.1093 
 
>  <oscillator_strength_2> 
0.0025 
 
>  <oscillator_strength_3> 
0.0013 
 
>  <oscillator_strength_4> 
0.0424 
 
>  <open_babel_can_smiles> 
OC(=O)c1cccnc1N 
 
>  <mulliken_charges> 
16 
1   -0.161922 
2   -0.1808 
3   0.055567 
4   0.026409 
5   0.471017 
6   0.569978 
7   -0.777643 
8   -0.49983 
9   -0.485798 
10   -0.574573 
11   0.138501 
12   0.135076 
13   0.148111 
14   0.38075 
15   0.341844 
16   0.413311 
 
>  <lowdin_charges> 
16 
1   -0.217597 
2   -0.121922 
3   -0.058567 
4   -0.122787 
5   0.130271 
6   0.204727 
7   -0.439425 
8   -0.189591 
9   -0.269121 
10   -0.354636 
11   0.166584 
12   0.155198 
13   0.160823 
14   0.307655 
15   0.291262 
16   0.357125 
 
$$$$ 
 
