PCCDB-ID:  7848 
public computational chemistry database (PCCDB) project, http://pccdb.org 
 
 12 11  0  0  0  0  0  0  0  0999 V2000 
    0.9658    0.0538    0.0108 C   0  0  0  0  0  0  0  0  0  0  0  0 
    2.4987    0.0597    0.0620 C   0  0  0  0  0  0  0  0  0  0  0  0 
    3.0336    0.8666    1.2467 C   0  0  0  0  0  0  0  0  0  0  0  0 
    4.8721    0.9752    1.3332 S   0  0  0  0  0  0  0  0  0  0  0  0 
    0.6048   -0.5332   -0.8409 H   0  0  0  0  0  0  0  0  0  0  0  0 
    0.5669    1.0702   -0.0919 H   0  0  0  0  0  0  0  0  0  0  0  0 
    0.5364   -0.3815    0.9214 H   0  0  0  0  0  0  0  0  0  0  0  0 
    2.9071    0.4725   -0.8680 H   0  0  0  0  0  0  0  0  0  0  0  0 
    2.8683   -0.9723    0.1306 H   0  0  0  0  0  0  0  0  0  0  0  0 
    2.6538    0.4725    2.1953 H   0  0  0  0  0  0  0  0  0  0  0  0 
    2.7061    1.9101    1.1800 H   0  0  0  0  0  0  0  0  0  0  0  0 
    5.1025   -0.3494    1.4701 H   0  0  0  0  0  0  0  0  0  0  0  0 
  1  2  1  0  0  0  0 
  1  7  1  0  0  0  0 
  2  9  1  0  0  0  0 
  2  3  1  0  0  0  0 
  3  4  1  0  0  0  0 
  3 10  1  0  0  0  0 
  4 12  1  0  0  0  0 
  5  1  1  0  0  0  0 
  6  1  1  0  0  0  0 
  8  2  1  0  0  0  0 
 11  3  1  0  0  0  0 
M  END 
>  <HBA> 
1 
 
>  <HBD> 
1 
 
>  <TPSA> 
38.8 
 
>  <cid> 
7848 
 
>  <dipole> 
1.9 
 
>  <excitation_energy_1> 
5.259 
 
>  <excitation_energy_2> 
5.855 
 
>  <excitation_energy_3> 
6.453 
 
>  <excitation_energy_4> 
6.543 
 
>  <homo_energy> 
-6.365 
 
>  <homo_lumo_gap> 
7.14 
 
>  <logP> 
1.326 
 
>  <lumo_energy> 
0.776 
 
>  <melting_point> 
-4.31 
 
>  <molecular_refractivity> 
24.46 
 
>  <oscillator_strength_1> 
0.0109 
 
>  <oscillator_strength_2> 
0.0329 
 
>  <oscillator_strength_3> 
0.0049 
 
>  <oscillator_strength_4> 
0.0111 
 
>  <open_babel_can_smiles> 
CCCS 
 
>  <mulliken_charges> 
12 
1   -0.446406 
2   -0.239973 
3   -0.406582 
4   -0.085378 
5   0.151704 
6   0.147034 
7   0.145378 
8   0.155915 
9   0.137488 
10   0.173723 
11   0.176286 
12   0.090812 
 
>  <lowdin_charges> 
12 
1   -0.446309 
2   -0.276347 
3   -0.36937 
4   -0.086876 
5   0.155704 
6   0.148509 
7   0.148876 
8   0.152965 
9   0.142181 
10   0.157422 
11   0.164646 
12   0.108598 
 
$$$$ 
 
