PCCDB-ID:  21324 
public computational chemistry database (PCCDB) project, http://pccdb.org 
 
 33 35  0  0  1  0  0  0  0  0999 V2000 
    2.5354    0.5845   -0.0203 C   0  0  0  0  0  0  0  0  0  0  0  0 
    2.2979   -0.6479   -0.6347 C   0  0  0  0  0  0  0  0  0  0  0  0 
   -2.3198    1.0047    0.9813 C   0  0  0  0  0  0  0  0  0  0  0  0 
    1.4892    1.2562    0.6057 C   0  0  0  0  0  0  0  0  0  0  0  0 
   -0.9116    1.4760    1.3632 C   0  0  0  0  0  0  0  0  0  0  0  0 
    1.0135   -1.1839   -0.6147 C   0  0  0  0  0  0  0  0  0  0  0  0 
   -2.3895   -0.5236    1.0056 C   0  0  0  0  0  0  0  0  0  0  0  0 
   -4.3335   -3.5243   -2.1194 C   0  0  0  0  0  0  0  0  0  0  0  0 
   -4.3990   -2.6579   -3.4088 C   0  0  0  0  0  0  0  0  0  0  0  0 
    0.1903    0.7263    0.6343 C   0  0  0  0  0  0  0  0  0  0  0  0 
   -0.0481   -0.5117    0.0111 C   0  0  0  0  0  0  0  0  0  0  0  0 
   -1.4373   -1.1333   -0.0346 C   0  0  2  0  0  0  0  0  0  0  0  0 
   -2.8825   -1.8828   -1.8850 C   0  0  3  0  0  0  0  0  0  0  0  0 
   -3.4575   -2.8001   -1.1894 N   0  0  0  0  0  0  0  0  0  0  0  0 
   -3.1923   -1.8250   -3.2584 N   0  0  0  0  0  0  0  0  0  0  0  0 
   -1.9848   -0.9590   -1.3988 N   0  0  0  0  0  0  0  0  0  0  0  0 
    3.5319    1.0186   -0.0293 H   0  0  0  0  0  0  0  0  0  0  0  0 
    3.1073   -1.1862   -1.1205 H   0  0  0  0  0  0  0  0  0  0  0  0 
   -2.5724    1.3570   -0.0271 H   0  0  0  0  0  0  0  0  0  0  0  0 
   -3.0568    1.4397    1.6667 H   0  0  0  0  0  0  0  0  0  0  0  0 
    1.6757    2.2159    1.0840 H   0  0  0  0  0  0  0  0  0  0  0  0 
   -0.7705    1.3343    2.4461 H   0  0  0  0  0  0  0  0  0  0  0  0 
   -0.8003    2.5536    1.1865 H   0  0  0  0  0  0  0  0  0  0  0  0 
    0.8212   -2.1458   -1.0865 H   0  0  0  0  0  0  0  0  0  0  0  0 
   -3.4005   -0.8900    0.8057 H   0  0  0  0  0  0  0  0  0  0  0  0 
   -2.1042   -0.8941    2.0007 H   0  0  0  0  0  0  0  0  0  0  0  0 
   -3.9057   -4.5143   -2.3345 H   0  0  0  0  0  0  0  0  0  0  0  0 
   -5.3246   -3.6906   -1.6818 H   0  0  0  0  0  0  0  0  0  0  0  0 
   -5.3099   -2.0417   -3.4315 H   0  0  0  0  0  0  0  0  0  0  0  0 
   -4.3613   -3.2493   -4.3288 H   0  0  0  0  0  0  0  0  0  0  0  0 
   -1.3580   -2.2114    0.1553 H   0  0  0  0  0  0  0  0  0  0  0  0 
   -3.2639   -0.8846   -3.6348 H   0  0  0  0  0  0  0  0  0  0  0  0 
   -1.3156   -0.6306   -2.0839 H   0  0  0  0  0  0  0  0  0  0  0  0 
  1  4  2  0  0  0  0 
  2  6  2  0  0  0  0 
  2  1  1  0  0  0  0 
  3  7  1  0  0  0  0 
  3  5  1  0  0  0  0 
  3 20  1  0  0  0  0 
  4 10  1  0  0  0  0 
  4 21  1  0  0  0  0 
  5 22  1  0  0  0  0 
  6 11  1  0  0  0  0 
  7 26  1  0  0  0  0 
  8 28  1  0  0  0  0 
  8 14  1  0  0  0  0 
  9 15  1  0  0  0  0 
  9  8  1  0  0  0  0 
 10  5  1  0  0  0  0 
 11 10  2  0  0  0  0 
 12 11  1  0  0  0  0 
 12 31  1  1  0  0  0 
 12  7  1  0  0  0  0 
 13 16  1  0  0  0  0 
 13 14  1  0  0  0  0 
 15 13  1  0  0  0  0 
 16 12  1  0  0  0  0 
 17  1  1  0  0  0  0 
 18  2  1  0  0  0  0 
 19  3  1  0  0  0  0 
 23  5  1  0  0  0  0 
 24  6  1  0  0  0  0 
 25  7  1  0  0  0  0 
 27  8  1  0  0  0  0 
 29  9  1  0  0  0  0 
 30  9  1  0  0  0  0 
 32 15  1  0  0  0  0 
 33 16  1  0  0  0  0 
M  RAD  2  13   2  14   2 
M  END 
>  <HBA> 
3 
 
>  <HBD> 
2 
 
>  <TPSA> 
36.42 
 
>  <cid> 
21324 
 
>  <dipole> 
2.39 
 
>  <excitation_energy_1> 
4.777 
 
>  <excitation_energy_2> 
4.929 
 
>  <excitation_energy_3> 
4.979 
 
>  <excitation_energy_4> 
5.196 
 
>  <homo_energy> 
-5.551 
 
>  <homo_lumo_gap> 
5.448 
 
>  <logP> 
1.768 
 
>  <lumo_energy> 
-0.103 
 
>  <melting_point> 
126.05 
 
>  <molecular_refractivity> 
72.71 
 
>  <oscillator_strength_1> 
0.0033 
 
>  <oscillator_strength_2> 
0.0083 
 
>  <oscillator_strength_3> 
0.014 
 
>  <oscillator_strength_4> 
0.0089 
 
>  <open_babel_can_smiles> 
C1CN[C]([N]1)N[C@@H]1CCCc2c1cccc2 
 
>  <mulliken_charges> 
33 
1   -0.125004 
2   -0.132827 
3   -0.271148 
4   -0.190559 
5   -0.342353 
6   -0.182967 
7   -0.266614 
8   -0.145624 
9   -0.152033 
10   0.131017 
11   0.054313 
12   -0.010834 
13   0.669762 
14   -0.503034 
15   -0.622692 
16   -0.652021 
17   0.128051 
18   0.128711 
19   0.143127 
20   0.132209 
21   0.121699 
22   0.152187 
23   0.143118 
24   0.133395 
25   0.164386 
26   0.130866 
27   0.141984 
28   0.13927 
29   0.137896 
30   0.148265 
31   0.164357 
32   0.310499 
33   0.322596 
 
>  <lowdin_charges> 
33 
1   -0.154424 
2   -0.163974 
3   -0.279724 
4   -0.163928 
5   -0.273738 
6   -0.162944 
7   -0.280058 
8   -0.200853 
9   -0.211835 
10   -0.007356 
11   -0.031139 
12   -0.044745 
13   0.114759 
14   -0.292877 
15   -0.335599 
16   -0.303343 
17   0.156624 
18   0.158694 
19   0.143819 
20   0.147015 
21   0.153773 
22   0.150687 
23   0.14919 
24   0.157954 
25   0.16199 
26   0.142354 
27   0.139486 
28   0.142957 
29   0.134591 
30   0.147843 
31   0.156248 
32   0.26814 
33   0.280414 
 
$$$$ 
 
