PCCDB-ID:  7118 
public computational chemistry database (PCCDB) project, http://pccdb.org 
 
 24 24  0  0  0  0  0  0  0  0999 V2000 
    2.1115   -1.9968   -0.5844 C   0  0  0  0  0  0  0  0  0  0  0  0 
    2.2287    2.2259    0.3051 C   0  0  0  0  0  0  0  0  0  0  0  0 
    4.1755   -1.4555    3.0682 C   0  0  0  0  0  0  0  0  0  0  0  0 
    3.4597   -1.6621    1.8858 C   0  0  0  0  0  0  0  0  0  0  0  0 
    4.4225    0.8681    2.5139 C   0  0  0  0  0  0  0  0  0  0  0  0 
    5.4791    0.0212    4.6599 C   0  0  0  0  0  0  0  0  0  0  0  0 
    4.6727   -0.1928    3.3940 C   0  0  0  0  0  0  0  0  0  0  0  0 
    3.2318   -0.6044    1.0006 C   0  0  0  0  0  0  0  0  0  0  0  0 
    3.7177    0.6815    1.3290 C   0  0  0  0  0  0  0  0  0  0  0  0 
    5.0525   -0.7896    5.7499 O   0  0  0  0  0  0  0  0  0  0  0  0 
    2.5667   -0.7127   -0.1888 O   0  0  0  0  0  0  0  0  0  0  0  0 
    3.5648    1.7495    0.4775 O   0  0  0  0  0  0  0  0  0  0  0  0 
    1.6450   -1.8600   -1.5617 H   0  0  0  0  0  0  0  0  0  0  0  0 
    1.3699   -2.3988    0.1188 H   0  0  0  0  0  0  0  0  0  0  0  0 
    2.9435   -2.7071   -0.6751 H   0  0  0  0  0  0  0  0  0  0  0  0 
    1.7936    2.5253    1.2684 H   0  0  0  0  0  0  0  0  0  0  0  0 
    1.5906    1.4728   -0.1668 H   0  0  0  0  0  0  0  0  0  0  0  0 
    2.3030    3.1018   -0.3438 H   0  0  0  0  0  0  0  0  0  0  0  0 
    4.3482   -2.2857    3.7464 H   0  0  0  0  0  0  0  0  0  0  0  0 
    3.0918   -2.6560    1.6562 H   0  0  0  0  0  0  0  0  0  0  0  0 
    4.7824    1.8709    2.7310 H   0  0  0  0  0  0  0  0  0  0  0  0 
    5.4710    1.0903    4.9274 H   0  0  0  0  0  0  0  0  0  0  0  0 
    6.5280   -0.2569    4.5008 H   0  0  0  0  0  0  0  0  0  0  0  0 
    4.1094   -0.6063    5.8880 H   0  0  0  0  0  0  0  0  0  0  0  0 
  1 11  1  0  0  0  0 
  1 14  1  0  0  0  0 
  2 12  1  0  0  0  0 
  2 16  1  0  0  0  0 
  3  7  1  0  0  0  0 
  3 19  1  0  0  0  0 
  4  3  2  0  0  0  0 
  5 21  1  0  0  0  0 
  5  7  2  0  0  0  0 
  6 22  1  0  0  0  0 
  6 10  1  0  0  0  0 
  7  6  1  0  0  0  0 
  8  9  2  0  0  0  0 
  8  4  1  0  0  0  0 
  9  5  1  0  0  0  0 
 10 24  1  0  0  0  0 
 11  8  1  0  0  0  0 
 12  9  1  0  0  0  0 
 13  1  1  0  0  0  0 
 15  1  1  0  0  0  0 
 17  2  1  0  0  0  0 
 18  2  1  0  0  0  0 
 20  4  1  0  0  0  0 
 23  6  1  0  0  0  0 
M  END 
>  <HBA> 
3 
 
>  <HBD> 
1 
 
>  <TPSA> 
38.69 
 
>  <cid> 
7118 
 
>  <dipole> 
2.82 
 
>  <excitation_energy_1> 
4.897 
 
>  <excitation_energy_2> 
5.326 
 
>  <excitation_energy_3> 
5.375 
 
>  <excitation_energy_4> 
5.618 
 
>  <homo_energy> 
-5.733 
 
>  <homo_lumo_gap> 
5.823 
 
>  <logP> 
1.196 
 
>  <lumo_energy> 
0.09 
 
>  <melting_point> 
37.99 
 
>  <molecular_refractivity> 
45.55 
 
>  <oscillator_strength_1> 
0.0352 
 
>  <oscillator_strength_2> 
0.0725 
 
>  <oscillator_strength_3> 
0.0464 
 
>  <oscillator_strength_4> 
0.0145 
 
>  <open_babel_can_smiles> 
COc1cc(CO)ccc1OC 
 
>  <mulliken_charges> 
24 
1   -0.215386 
2   -0.210278 
3   -0.184392 
4   -0.205361 
5   -0.235621 
6   -0.092779 
7   0.101035 
8   0.347618 
9   0.317205 
10   -0.610121 
11   -0.508367 
12   -0.5211 
13   0.170604 
14   0.151349 
15   0.155951 
16   0.136324 
17   0.162719 
18   0.15805 
19   0.140543 
20   0.133849 
21   0.129765 
22   0.128714 
23   0.163071 
24   0.386607 
 
>  <lowdin_charges> 
24 
1   -0.278238 
2   -0.277138 
3   -0.166583 
4   -0.207631 
5   -0.180796 
6   -0.127974 
7   -0.045606 
8   0.077024 
9   0.071367 
10   -0.460913 
11   -0.195858 
12   -0.223792 
13   0.1627 
14   0.145697 
15   0.148468 
16   0.137301 
17   0.151099 
18   0.155981 
19   0.165474 
20   0.16224 
21   0.162954 
22   0.130083 
23   0.154892 
24   0.339249 
 
$$$$ 
 
