PCCDB-ID:  61183 
public computational chemistry database (PCCDB) project, http://pccdb.org 
 
 25 25  0  0  1  0  0  0  0  0999 V2000 
    5.9639    2.3176    0.8668 C   0  0  0  0  0  0  0  0  0  0  0  0 
    5.4128    1.0293    0.2593 C   0  0  0  0  0  0  0  0  0  0  0  0 
    6.6247   -5.0793   -0.7804 C   0  0  0  0  0  0  0  0  0  0  0  0 
    6.9411   -3.5749   -0.8198 C   0  0  0  0  0  0  0  0  0  0  0  0 
    7.2842   -5.4879    0.5375 C   0  0  0  0  0  0  0  0  0  0  0  0 
    5.5644   -2.5814    1.1208 C   0  0  0  0  0  0  0  0  0  0  0  0 
    6.9011   -3.1761    0.6705 C   0  0  1  0  0  0  0  0  0  0  0  0 
    5.7976   -0.2062    1.0510 C   0  0  0  0  0  0  0  0  0  0  0  0 
    6.4545   -0.2129    2.0688 O   0  0  0  0  0  0  0  0  0  0  0  0 
    7.0813   -4.3856    1.4249 O   0  0  0  0  0  0  0  0  0  0  0  0 
    5.2974   -1.3234    0.4644 O   0  0  0  0  0  0  0  0  0  0  0  0 
    5.6642    3.1820    0.2655 H   0  0  0  0  0  0  0  0  0  0  0  0 
    7.0566    2.2926    0.9158 H   0  0  0  0  0  0  0  0  0  0  0  0 
    5.5942    2.4601    1.8865 H   0  0  0  0  0  0  0  0  0  0  0  0 
    5.7652    0.8888   -0.7707 H   0  0  0  0  0  0  0  0  0  0  0  0 
    4.3174    1.0539    0.1921 H   0  0  0  0  0  0  0  0  0  0  0  0 
    7.0145   -5.6262   -1.6444 H   0  0  0  0  0  0  0  0  0  0  0  0 
    5.5427   -5.2496   -0.7316 H   0  0  0  0  0  0  0  0  0  0  0  0 
    6.2372   -2.9923   -1.4213 H   0  0  0  0  0  0  0  0  0  0  0  0 
    7.9445   -3.4099   -1.2282 H   0  0  0  0  0  0  0  0  0  0  0  0 
    8.3622   -5.6691    0.3978 H   0  0  0  0  0  0  0  0  0  0  0  0 
    6.8454   -6.3775    1.0006 H   0  0  0  0  0  0  0  0  0  0  0  0 
    5.5672   -2.4428    2.2037 H   0  0  0  0  0  0  0  0  0  0  0  0 
    4.7374   -3.2362    0.8338 H   0  0  0  0  0  0  0  0  0  0  0  0 
    7.7019   -2.4715    0.9259 H   0  0  0  0  0  0  0  0  0  0  0  0 
  1 13  1  0  0  0  0 
  1 14  1  0  0  0  0 
  2  1  1  0  0  0  0 
  2  8  1  0  0  0  0 
  3 18  1  0  0  0  0 
  3  5  1  0  0  0  0 
  4  3  1  0  0  0  0 
  4  7  1  0  0  0  0 
  5 22  1  0  0  0  0 
  5 10  1  0  0  0  0 
  6 23  1  0  0  0  0 
  7 25  1  1  0  0  0 
  7  6  1  0  0  0  0 
  7 10  1  0  0  0  0 
  8  9  2  0  0  0  0 
 11  8  1  0  0  0  0 
 11  6  1  0  0  0  0 
 12  1  1  0  0  0  0 
 15  2  1  0  0  0  0 
 16  2  1  0  0  0  0 
 17  3  1  0  0  0  0 
 19  4  1  0  0  0  0 
 20  4  1  0  0  0  0 
 21  5  1  0  0  0  0 
 24  6  1  0  0  0  0 
M  END 
>  <HBA> 
3 
 
>  <HBD> 
0 
 
>  <TPSA> 
35.53 
 
>  <cid> 
61183 
 
>  <dipole> 
3.12 
 
>  <excitation_energy_1> 
5.826 
 
>  <excitation_energy_2> 
6.224 
 
>  <excitation_energy_3> 
6.404 
 
>  <excitation_energy_4> 
6.634 
 
>  <homo_energy> 
-6.727 
 
>  <homo_lumo_gap> 
7.11 
 
>  <logP> 
1.119 
 
>  <lumo_energy> 
0.384 
 
>  <melting_point> 
-1.82 
 
>  <molecular_refractivity> 
40.83 
 
>  <oscillator_strength_1> 
0.001 
 
>  <oscillator_strength_2> 
0.0094 
 
>  <oscillator_strength_3> 
0.0135 
 
>  <oscillator_strength_4> 
0.0041 
 
>  <open_babel_can_smiles> 
CCC(=O)OC[C@@H]1CCCO1 
 
>  <mulliken_charges> 
25 
1   -0.435419 
2   -0.353106 
3   -0.301104 
4   -0.318012 
5   -0.012929 
6   -0.064549 
7   0.145654 
8   0.620941 
9   -0.471795 
10   -0.502584 
11   -0.471781 
12   0.142775 
13   0.161991 
14   0.163761 
15   0.170546 
16   0.173386 
17   0.145985 
18   0.147986 
19   0.159428 
20   0.146584 
21   0.128012 
22   0.145312 
23   0.182296 
24   0.147808 
25   0.148815 
 
>  <lowdin_charges> 
25 
1   -0.437293 
2   -0.296125 
3   -0.293825 
4   -0.298903 
5   -0.12825 
6   -0.143937 
7   -0.010043 
8   0.195578 
9   -0.261376 
10   -0.28097 
11   -0.200667 
12   0.152455 
13   0.157293 
14   0.159362 
15   0.166732 
16   0.167159 
17   0.155003 
18   0.145683 
19   0.160385 
20   0.149709 
21   0.127696 
22   0.148246 
23   0.165248 
24   0.1527 
25   0.148138 
 
$$$$ 
 
