PCCDB-ID:  6988 
public computational chemistry database (PCCDB) project, http://pccdb.org 
 
 27 27  0  0  1  0  0  0  0  0999 V2000 
    0.9799   -0.0946   -0.3837 C   0  0  0  0  0  0  0  0  0  0  0  0 
    3.1476    0.8722   -1.1966 C   0  0  0  0  0  0  0  0  0  0  0  0 
    5.0440   -1.8515    4.6767 C   0  0  0  0  0  0  0  0  0  0  0  0 
    5.0890   -0.5479    2.4870 C   0  0  0  0  0  0  0  0  0  0  0  0 
    4.6605   -0.5395    1.0114 C   0  0  0  0  0  0  0  0  0  0  0  0 
    3.0223   -1.7773    3.1477 C   0  0  0  0  0  0  0  0  0  0  0  0 
    2.4761   -0.0196   -0.1773 C   0  0  0  0  0  0  0  0  0  0  0  0 
    4.5564   -1.7801    3.2255 C   0  0  2  0  0  0  0  0  0  0  0  0 
    3.1534   -0.6684    0.8056 C   0  0  0  0  0  0  0  0  0  0  0  0 
    2.4382   -1.5888    1.7469 C   0  0  0  0  0  0  0  0  0  0  0  0 
    1.3964   -2.1632    1.4538 O   0  0  0  0  0  0  0  0  0  0  0  0 
    0.6169    0.8478   -0.8126 H   0  0  0  0  0  0  0  0  0  0  0  0 
    0.4279   -0.3182    0.5285 H   0  0  0  0  0  0  0  0  0  0  0  0 
    0.7340   -0.8924   -1.0970 H   0  0  0  0  0  0  0  0  0  0  0  0 
    2.7881    0.6123   -2.2010 H   0  0  0  0  0  0  0  0  0  0  0  0 
    4.2362    0.8098   -1.2080 H   0  0  0  0  0  0  0  0  0  0  0  0 
    2.8645    1.9220   -1.0343 H   0  0  0  0  0  0  0  0  0  0  0  0 
    6.1389   -1.8894    4.7251 H   0  0  0  0  0  0  0  0  0  0  0  0 
    4.6544   -2.7419    5.1840 H   0  0  0  0  0  0  0  0  0  0  0  0 
    4.7141   -0.9725    5.2456 H   0  0  0  0  0  0  0  0  0  0  0  0 
    4.7187    0.3598    2.9867 H   0  0  0  0  0  0  0  0  0  0  0  0 
    6.1849   -0.5133    2.5437 H   0  0  0  0  0  0  0  0  0  0  0  0 
    5.1655   -1.3773    0.5043 H   0  0  0  0  0  0  0  0  0  0  0  0 
    5.0416    0.3708    0.5422 H   0  0  0  0  0  0  0  0  0  0  0  0 
    2.6438   -0.9385    3.7558 H   0  0  0  0  0  0  0  0  0  0  0  0 
    2.5841   -2.6902    3.5641 H   0  0  0  0  0  0  0  0  0  0  0  0 
    4.9242   -2.6744    2.6980 H   0  0  0  0  0  0  0  0  0  0  0  0 
  1  7  1  0  0  0  0 
  1 13  1  0  0  0  0 
  2 17  1  0  0  0  0 
  2  7  1  0  0  0  0 
  3 18  1  0  0  0  0 
  3 19  1  0  0  0  0 
  3 20  1  0  0  0  0 
  4 22  1  0  0  0  0 
  4 21  1  0  0  0  0 
  4  8  1  0  0  0  0 
  5  4  1  0  0  0  0 
  6  8  1  0  0  0  0 
  6 26  1  0  0  0  0 
  6 25  1  0  0  0  0 
  7  9  2  0  0  0  0 
  8 27  1  6  0  0  0 
  8  3  1  0  0  0  0 
  9  5  1  0  0  0  0 
  9 10  1  0  0  0  0 
 10  6  1  0  0  0  0 
 11 10  2  0  0  0  0 
 12  1  1  0  0  0  0 
 14  1  1  0  0  0  0 
 15  2  1  0  0  0  0 
 16  2  1  0  0  0  0 
 23  5  1  0  0  0  0 
 24  5  1  0  0  0  0 
M  END 
>  <HBA> 
1 
 
>  <HBD> 
0 
 
>  <TPSA> 
17.07 
 
>  <cid> 
6988 
 
>  <dipole> 
2.8 
 
>  <excitation_energy_1> 
3.652 
 
>  <excitation_energy_2> 
5.01 
 
>  <excitation_energy_3> 
5.759 
 
>  <excitation_energy_4> 
5.948 
 
>  <homo_energy> 
-6.185 
 
>  <homo_lumo_gap> 
5.181 
 
>  <logP> 
2.712 
 
>  <lumo_energy> 
-1.004 
 
>  <melting_point> 
31.38 
 
>  <molecular_refractivity> 
47.8 
 
>  <oscillator_strength_1> 
0.0003 
 
>  <oscillator_strength_2> 
0.2395 
 
>  <oscillator_strength_3> 
0.001 
 
>  <oscillator_strength_4> 
0.0359 
 
>  <open_babel_can_smiles> 
C[C@@H]1CCC(=C(C)C)C(=O)C1 
 
>  <mulliken_charges> 
27 
1   -0.492781 
2   -0.518412 
3   -0.445333 
4   -0.260722 
5   -0.344525 
6   -0.344442 
7   0.121078 
8   -0.083371 
9   0.058025 
10   0.385465 
11   -0.475439 
12   0.135103 
13   0.181332 
14   0.1714 
15   0.164248 
16   0.159264 
17   0.163026 
18   0.142687 
19   0.146184 
20   0.140342 
21   0.131751 
22   0.132674 
23   0.148108 
24   0.142909 
25   0.153996 
26   0.159147 
27   0.128285 
 
>  <lowdin_charges> 
27 
1   -0.445465 
2   -0.443522 
3   -0.44236 
4   -0.274999 
5   -0.279155 
6   -0.305347 
7   0.0391 
8   -0.12604 
9   -0.086505 
10   0.151755 
11   -0.252189 
12   0.14639 
13   0.174159 
14   0.170803 
15   0.162743 
16   0.155786 
17   0.161322 
18   0.147626 
19   0.152085 
20   0.147334 
21   0.139924 
22   0.143268 
23   0.149302 
24   0.152634 
25   0.160664 
26   0.162458 
27   0.138228 
 
$$$$ 
 
