PCCDB-ID:  15957 
public computational chemistry database (PCCDB) project, http://pccdb.org 
 
 25 26  0  0  0  0  0  0  0  0999 V2000 
   -0.0924   -3.7262    0.4299 C   0  0  0  0  0  0  0  0  0  0  0  0 
    1.2615   -3.9637    0.6902 C   0  0  0  0  0  0  0  0  0  0  0  0 
   -0.4939   -2.4832   -0.0609 C   0  0  0  0  0  0  0  0  0  0  0  0 
    2.2058   -2.9687    0.4628 C   0  0  0  0  0  0  0  0  0  0  0  0 
    0.4525   -1.4866   -0.2887 C   0  0  0  0  0  0  0  0  0  0  0  0 
    2.7628   -0.6220   -0.2918 C   0  0  0  0  0  0  0  0  0  0  0  0 
    4.0987   -0.6364   -0.1069 C   0  0  0  0  0  0  0  0  0  0  0  0 
    1.8186   -1.7074   -0.0318 C   0  0  0  0  0  0  0  0  0  0  0  0 
    4.9599    0.5074   -0.3947 C   0  0  0  0  0  0  0  0  0  0  0  0 
    7.0251    1.4215   -0.4278 C   0  0  0  0  0  0  0  0  0  0  0  0 
    5.2947    2.6226   -1.1080 C   0  0  0  0  0  0  0  0  0  0  0  0 
    6.2732    0.3477   -0.1494 N   0  0  0  0  0  0  0  0  0  0  0  0 
    4.4180    1.6402   -0.8803 N   0  0  0  0  0  0  0  0  0  0  0  0 
    6.6115    2.5908   -0.9078 N   0  0  0  0  0  0  0  0  0  0  0  0 
    8.3388    1.3149   -0.2013 O   0  0  0  0  0  0  0  0  0  0  0  0 
    4.8099    3.7721   -1.5915 O   0  0  0  0  0  0  0  0  0  0  0  0 
   -0.8269   -4.5066    0.6085 H   0  0  0  0  0  0  0  0  0  0  0  0 
    1.5800   -4.9300    1.0715 H   0  0  0  0  0  0  0  0  0  0  0  0 
   -1.5432   -2.2893   -0.2654 H   0  0  0  0  0  0  0  0  0  0  0  0 
    3.2522   -3.1710    0.6704 H   0  0  0  0  0  0  0  0  0  0  0  0 
    0.1372   -0.5187   -0.6710 H   0  0  0  0  0  0  0  0  0  0  0  0 
    2.3298    0.2994   -0.6766 H   0  0  0  0  0  0  0  0  0  0  0  0 
    4.6245   -1.5059    0.2747 H   0  0  0  0  0  0  0  0  0  0  0  0 
    8.4801    0.4143    0.1425 H   0  0  0  0  0  0  0  0  0  0  0  0 
    3.8489    3.6425   -1.6819 H   0  0  0  0  0  0  0  0  0  0  0  0 
  1 17  1  0  0  0  0 
  1  2  2  0  0  0  0 
  2 18  1  0  0  0  0 
  3  1  1  0  0  0  0 
  4 20  1  0  0  0  0 
  4  2  1  0  0  0  0 
  5  3  2  0  0  0  0 
  5  8  1  0  0  0  0 
  6  7  2  0  0  0  0 
  6  8  1  0  0  0  0 
  7 23  1  0  0  0  0 
  8  4  2  0  0  0  0 
  9 12  2  0  0  0  0 
  9  7  1  0  0  0  0 
 10 15  1  0  0  0  0 
 10 12  2  0  0  0  0 
 11 14  2  0  0  0  0 
 11 13  2  0  0  0  0 
 13  9  1  0  0  0  0 
 14 10  2  0  0  0  0 
 15 24  1  0  0  0  0 
 16 11  1  0  0  0  0 
 19  3  1  0  0  0  0 
 21  5  1  0  0  0  0 
 22  6  1  0  0  0  0 
 25 16  1  0  0  0  0 
M  END 
>  <HBA> 
3 
 
>  <HBD> 
2 
 
>  <TPSA> 
78.61 
 
>  <cid> 
15957 
 
>  <dipole> 
4.84 
 
>  <excitation_energy_1> 
3.957 
 
>  <excitation_energy_2> 
4.319 
 
>  <excitation_energy_3> 
4.409 
 
>  <excitation_energy_4> 
4.516 
 
>  <homo_energy> 
-6.357 
 
>  <homo_lumo_gap> 
4.234 
 
>  <logP> 
0.629 
 
>  <lumo_energy> 
-2.123 
 
>  <melting_point> 
248.74 
 
>  <molecular_refractivity> 
60.85 
 
>  <oscillator_strength_1> 
0.9036 
 
>  <oscillator_strength_2> 
0.0154 
 
>  <oscillator_strength_3> 
0.0027 
 
>  <oscillator_strength_4> 
0.0 
 
>  <open_babel_can_smiles> 
O[C]1=NC(=[N]=[C](=[N]=1)O)/C=C/c1ccccc1 
 
>  <mulliken_charges> 
25 
1   -0.12364 
2   -0.131396 
3   -0.131187 
4   -0.171663 
5   -0.187786 
6   -0.16057 
7   -0.177477 
8   0.17388 
9   0.48701 
10   0.647789 
11   0.645905 
12   -0.548691 
13   -0.548926 
14   -0.45741 
15   -0.576616 
16   -0.576404 
17   0.13792 
18   0.137901 
19   0.137822 
20   0.138305 
21   0.136791 
22   0.160766 
23   0.147513 
24   0.421016 
25   0.41915 
 
>  <lowdin_charges> 
25 
1   -0.147251 
2   -0.151042 
3   -0.15211 
4   -0.144492 
5   -0.149082 
6   -0.108315 
7   -0.180747 
8   -0.007456 
9   0.125768 
10   0.175102 
11   0.174858 
12   -0.240854 
13   -0.242531 
14   -0.189653 
15   -0.320701 
16   -0.319556 
17   0.162923 
18   0.161402 
19   0.160467 
20   0.160258 
21   0.160174 
22   0.172257 
23   0.168614 
24   0.367025 
25   0.364941 
 
$$$$ 
 
