PCCDB-ID:  66950 
public computational chemistry database (PCCDB) project, http://pccdb.org 
 
 13 13  0  0  0  0  0  0  0  0999 V2000 
   -0.0241   -1.4235    0.0436 C   0  0  0  0  0  0  0  0  0  0  0  0 
   -1.1784   -0.7194   -0.0792 C   0  0  0  0  0  0  0  0  0  0  0  0 
    1.1791   -0.6287    0.1374 C   0  0  0  0  0  0  0  0  0  0  0  0 
    0.0582    1.4009   -0.0126 C   0  0  0  0  0  0  0  0  0  0  0  0 
    0.0877    2.6818   -0.0396 N   0  0  0  0  0  0  0  0  0  0  0  0 
   -1.1519    0.6383   -0.1071 N   0  0  0  0  0  0  0  0  0  0  0  0 
    1.2216    0.6632    0.1114 N   0  0  0  0  0  0  0  0  0  0  0  0 
    2.3747   -1.2545    0.2624 O   0  0  0  0  0  0  0  0  0  0  0  0 
   -0.0211   -2.5068    0.0692 H   0  0  0  0  0  0  0  0  0  0  0  0 
   -2.1550   -1.1860   -0.1592 H   0  0  0  0  0  0  0  0  0  0  0  0 
   -0.8534    3.0722   -0.1352 H   0  0  0  0  0  0  0  0  0  0  0  0 
   -2.0195    1.1491   -0.1990 H   0  0  0  0  0  0  0  0  0  0  0  0 
    2.2354   -2.2141    0.2681 H   0  0  0  0  0  0  0  0  0  0  0  0 
  1  9  1  0  0  0  0 
  1  3  1  0  0  0  0 
  2  1  2  0  0  0  0 
  3  8  1  0  0  0  0 
  4  7  2  0  0  0  0 
  5  4  1  0  0  0  0 
  6  2  1  0  0  0  0 
  6  4  1  0  0  0  0 
  7  3  2  0  0  0  0 
  8 13  1  0  0  0  0 
 10  2  1  0  0  0  0 
 11  5  1  0  0  0  0 
 12  6  1  0  0  0  0 
M  RAD  1   5   2 
M  END 
>  <HBA> 
3 
 
>  <HBD> 
2 
 
>  <TPSA> 
71.77 
 
>  <cid> 
66950 
 
>  <dipole> 
7.36 
 
>  <excitation_energy_1> 
3.926 
 
>  <excitation_energy_2> 
4.549 
 
>  <excitation_energy_3> 
4.773 
 
>  <excitation_energy_4> 
5.09 
 
>  <homo_energy> 
-5.714 
 
>  <homo_lumo_gap> 
4.705 
 
>  <logP> 
-0.067 
 
>  <lumo_energy> 
-1.01 
 
>  <melting_point> 
150.69 
 
>  <molecular_refractivity> 
29.26 
 
>  <oscillator_strength_1> 
0.0222 
 
>  <oscillator_strength_2> 
0.0041 
 
>  <oscillator_strength_3> 
0.0008 
 
>  <oscillator_strength_4> 
0.0025 
 
>  <open_babel_can_smiles> 
[NH]C1=[N]=C(C=CN1)O 
 
>  <mulliken_charges> 
13 
1   -0.260193 
2   0.126937 
3   0.523418 
4   0.596866 
5   -0.614815 
6   -0.622843 
7   -0.477825 
8   -0.582224 
9   0.139283 
10   0.172245 
11   0.254215 
12   0.334002 
13   0.410934 
 
>  <lowdin_charges> 
13 
1   -0.285391 
2   -0.044634 
3   0.155089 
4   0.119712 
5   -0.428411 
6   -0.22822 
7   -0.178937 
8   -0.336418 
9   0.166695 
10   0.173499 
11   0.237718 
12   0.292176 
13   0.357123 
 
$$$$ 
 
