PCCDB-ID:  11190 
public computational chemistry database (PCCDB) project, http://pccdb.org 
 
 10  9  0  0  0  0  0  0  0  0999 V2000 
    1.2595    0.3220    0.2453 C   0  0  0  0  0  0  0  0  0  0  0  0 
    0.2888   -0.6156    0.1090 C   0  0  0  0  0  0  0  0  0  0  0  0 
    2.6102    0.1353    0.1695 N   0  0  0  0  0  0  0  0  0  0  0  0 
   -1.0178   -0.1179    0.1369 N   0  0  0  0  0  0  0  0  0  0  0  0 
    3.0578   -1.1905    0.3405 O   0  0  0  0  0  0  0  0  0  0  0  0 
   -1.8927   -0.9811    0.0206 O   0  0  0  0  0  0  0  0  0  0  0  0 
    0.9653    1.3629    0.3609 H   0  0  0  0  0  0  0  0  0  0  0  0 
    0.4624   -1.6826   -0.0010 H   0  0  0  0  0  0  0  0  0  0  0  0 
    3.1860    0.7586    0.7280 H   0  0  0  0  0  0  0  0  0  0  0  0 
    3.4094   -1.4306   -0.5345 H   0  0  0  0  0  0  0  0  0  0  0  0 
  1  7  1  0  0  0  0 
  2  4  1  0  0  0  0 
  2  1  2  0  0  0  0 
  3  1  1  0  0  0  0 
  3  5  1  0  0  0  0 
  3  9  1  0  0  0  0 
  6  4  1  0  0  0  0 
  8  2  1  0  0  0  0 
 10  5  1  0  0  0  0 
M  RAD  2   4   2   6   2 
M  END 
>  <HBA> 
4 
 
>  <HBD> 
2 
 
>  <TPSA> 
61.69 
 
>  <cid> 
11190 
 
>  <dipole> 
6.07 
 
>  <excitation_energy_1> 
1.789 
 
>  <excitation_energy_2> 
4.49 
 
>  <excitation_energy_3> 
4.891 
 
>  <excitation_energy_4> 
4.965 
 
>  <homo_energy> 
-5.301 
 
>  <homo_lumo_gap> 
3.469 
 
>  <logP> 
0.594 
 
>  <lumo_energy> 
-1.831 
 
>  <melting_point> 
86.02 
 
>  <molecular_refractivity> 
19.52 
 
>  <oscillator_strength_1> 
0.0003 
 
>  <oscillator_strength_2> 
0.0347 
 
>  <oscillator_strength_3> 
0.0062 
 
>  <oscillator_strength_4> 
0.4233 
 
>  <open_babel_can_smiles> 
ON/C=C/[N][O] 
 
>  <mulliken_charges> 
10 
1   0.079188 
2   -6.1e-05 
3   -0.337709 
4   -0.028964 
5   -0.490632 
6   -0.337388 
7   0.182658 
8   0.150356 
9   0.353389 
10   0.429162 
 
>  <lowdin_charges> 
10 
1   -0.065119 
2   -0.197957 
3   -0.146371 
4   0.02074 
5   -0.378538 
6   -0.230213 
7   0.182393 
8   0.158837 
9   0.292499 
10   0.36373 
 
$$$$ 
 
