PCCDB-ID:  69689 
public computational chemistry database (PCCDB) project, http://pccdb.org 
 
 18 19  0  0  1  0  0  0  0  0999 V2000 
    0.9415   -0.1404   -0.0923 C   0  0  0  0  0  0  0  0  0  0  0  0 
    3.9971   -3.2622   -0.0588 C   0  0  0  0  0  0  0  0  0  0  0  0 
    3.2138    1.0108   -0.0426 C   0  0  0  0  0  0  0  0  0  0  0  0 
    4.5289   -0.6506   -0.0187 C   0  0  0  0  0  0  0  0  0  0  0  0 
    5.5842   -1.5862   -0.0102 C   0  0  1  0  0  0  0  0  0  0  0  0 
    3.2377   -1.1899   -0.0482 C   0  0  0  0  0  0  0  0  0  0  0  0 
    6.8884   -1.2087    0.0525 N   0  0  0  0  0  0  0  0  0  0  0  0 
    5.2904   -2.8984   -0.0357 N   0  0  0  0  0  0  0  0  0  0  0  0 
    2.9074   -2.4882   -0.0669 N   0  0  0  0  0  0  0  0  0  0  0  0 
    4.4956    0.7332   -0.0176 N   0  0  0  0  0  0  0  0  0  0  0  0 
    2.3931   -0.0999   -0.0610 N   0  0  0  0  0  0  0  0  0  0  0  0 
    0.5600    0.8830   -0.0958 H   0  0  0  0  0  0  0  0  0  0  0  0 
    0.5567   -0.6669    0.7857 H   0  0  0  0  0  0  0  0  0  0  0  0 
    0.5947   -0.6590   -0.9907 H   0  0  0  0  0  0  0  0  0  0  0  0 
    3.8180   -4.3354   -0.0757 H   0  0  0  0  0  0  0  0  0  0  0  0 
    2.7933    2.0090   -0.0495 H   0  0  0  0  0  0  0  0  0  0  0  0 
    7.1215   -0.2442   -0.1317 H   0  0  0  0  0  0  0  0  0  0  0  0 
    7.5858   -1.9157   -0.1295 H   0  0  0  0  0  0  0  0  0  0  0  0 
  1 11  1  0  0  0  0 
  1 13  1  0  0  0  0 
  2  8  2  0  0  0  0 
  3 10  2  0  0  0  0 
  4 10  1  0  0  0  0 
  4  5  1  0  0  0  0 
  5  7  1  1  0  0  0 
  6  4  2  0  0  0  0 
  8  5  1  0  0  0  0 
  9  2  1  0  0  0  0 
  9  6  1  0  0  0  0 
 11  6  1  0  0  0  0 
 11  3  1  0  0  0  0 
 12  1  1  0  0  0  0 
 14  1  1  0  0  0  0 
 15  2  1  0  0  0  0 
 16  3  1  0  0  0  0 
 17  7  1  0  0  0  0 
 18  7  1  0  0  0  0 
M  RAD  2   5   2   9   2 
M  END 
>  <HBA> 
5 
 
>  <HBD> 
1 
 
>  <TPSA> 
69.62 
 
>  <cid> 
69689 
 
>  <dipole> 
2.58 
 
>  <excitation_energy_1> 
4.955 
 
>  <excitation_energy_2> 
4.992 
 
>  <excitation_energy_3> 
5.224 
 
>  <excitation_energy_4> 
5.417 
 
>  <homo_energy> 
-5.853 
 
>  <homo_lumo_gap> 
5.448 
 
>  <logP> 
0.527 
 
>  <lumo_energy> 
-0.405 
 
>  <melting_point> 
147.49 
 
>  <molecular_refractivity> 
40.99 
 
>  <oscillator_strength_1> 
0.157 
 
>  <oscillator_strength_2> 
0.0495 
 
>  <oscillator_strength_3> 
0.0373 
 
>  <oscillator_strength_4> 
0.0116 
 
>  <open_babel_can_smiles> 
Cn1cnc2c1[N]C=N[C]2N 
 
>  <mulliken_charges> 
18 
1   -0.318768 
2   0.161386 
3   0.214732 
4   0.193395 
5   0.483293 
6   0.510391 
7   -0.774934 
8   -0.508393 
9   -0.506839 
10   -0.525172 
11   -0.473909 
12   0.167356 
13   0.190145 
14   0.189669 
15   0.142895 
16   0.159669 
17   0.352552 
18   0.342533 
 
>  <lowdin_charges> 
18 
1   -0.340368 
2   -0.034594 
3   -0.068785 
4   -0.061674 
5   0.119252 
6   0.053955 
7   -0.443945 
8   -0.222138 
9   -0.207875 
10   -0.195439 
11   -0.023242 
12   0.164841 
13   0.172758 
14   0.172314 
15   0.154556 
16   0.16814 
17   0.297255 
18   0.294988 
 
$$$$ 
 
