PCCDB-ID:  10132 
public computational chemistry database (PCCDB) project, http://pccdb.org 
 
 10  9  0  0  0  0  0  0  0  0999 V2000 
    0.8878   -0.3656    0.1672 C   0  0  0  0  0  0  0  0  0  0  0  0 
    0.1204   -1.1525   -0.8928 C   0  0  0  0  0  0  0  0  0  0  0  0 
    0.0591    0.6127    1.0187 C   0  0  0  0  0  0  0  0  0  0  0  0 
    2.0913   -0.4342    0.3020 O   0  0  0  0  0  0  0  0  0  0  0  0 
   -0.2367   -2.3671   -0.4594 O   0  0  0  0  0  0  0  0  0  0  0  0 
   -0.0832   -0.6930   -1.9882 O   0  0  0  0  0  0  0  0  0  0  0  0 
   -1.1410    0.6779    0.9334 O   0  0  0  0  0  0  0  0  0  0  0  0 
    0.8149    1.3364    1.8483 O   0  0  0  0  0  0  0  0  0  0  0  0 
   -0.7179   -2.8090   -1.1875 H   0  0  0  0  0  0  0  0  0  0  0  0 
    1.7473    1.0671    1.7039 H   0  0  0  0  0  0  0  0  0  0  0  0 
  1  4  2  0  0  0  0 
  1  3  1  0  0  0  0 
  2  5  1  0  0  0  0 
  2  1  1  0  0  0  0 
  3  8  1  0  0  0  0 
  6  2  2  0  0  0  0 
  7  3  2  0  0  0  0 
  9  5  1  0  0  0  0 
 10  8  1  0  0  0  0 
M  END 
>  <HBA> 
5 
 
>  <HBD> 
2 
 
>  <TPSA> 
91.67 
 
>  <cid> 
10132 
 
>  <dipole> 
2.42 
 
>  <excitation_energy_1> 
3.119 
 
>  <excitation_energy_2> 
4.523 
 
>  <excitation_energy_3> 
5.362 
 
>  <excitation_energy_4> 
5.425 
 
>  <homo_energy> 
-7.761 
 
>  <homo_lumo_gap> 
4.618 
 
>  <logP> 
-1.275 
 
>  <lumo_energy> 
-3.143 
 
>  <melting_point> 
151.14 
 
>  <molecular_refractivity> 
20.28 
 
>  <oscillator_strength_1> 
0.0013 
 
>  <oscillator_strength_2> 
0.0089 
 
>  <oscillator_strength_3> 
0.0051 
 
>  <oscillator_strength_4> 
0.0045 
 
>  <open_babel_can_smiles> 
O=C(C(=O)O)C(=O)O 
 
>  <mulliken_charges> 
10 
1   0.333862 
2   0.538763 
3   0.577419 
4   -0.408137 
5   -0.531924 
6   -0.407655 
7   -0.412551 
8   -0.554546 
9   0.427335 
10   0.437433 
 
>  <lowdin_charges> 
10 
1   0.123261 
2   0.181262 
3   0.156011 
4   -0.170313 
5   -0.321002 
6   -0.209464 
7   -0.196237 
8   -0.31219 
9   0.375667 
10   0.373004 
 
$$$$ 
 
