PCCDB-ID:  62453 
public computational chemistry database (PCCDB) project, http://pccdb.org 
 
 17 17  0  0  0  0  0  0  0  0999 V2000 
    2.5839    1.2327   -0.1501 C   0  0  0  0  0  0  0  0  0  0  0  0 
    2.1735   -0.0425   -0.1507 C   0  0  0  0  0  0  0  0  0  0  0  0 
    2.3181   -2.4949    0.1846 C   0  0  0  0  0  0  0  0  0  0  0  0 
    4.2639   -1.1884    0.7123 C   0  0  0  0  0  0  0  0  0  0  0  0 
    2.9888   -3.6591    0.5538 C   0  0  0  0  0  0  0  0  0  0  0  0 
    4.9452   -2.3383    1.0841 C   0  0  0  0  0  0  0  0  0  0  0  0 
    2.9325   -1.2346    0.2533 C   0  0  0  0  0  0  0  0  0  0  0  0 
    4.3087   -3.5845    1.0060 C   0  0  0  0  0  0  0  0  0  0  0  0 
    5.0286   -4.6833    1.3842 O   0  0  0  0  0  0  0  0  0  0  0  0 
    1.9236    2.0308   -0.4749 H   0  0  0  0  0  0  0  0  0  0  0  0 
    3.5789    1.5329    0.1675 H   0  0  0  0  0  0  0  0  0  0  0  0 
    1.1570   -0.2500   -0.4869 H   0  0  0  0  0  0  0  0  0  0  0  0 
    1.2910   -2.5661   -0.1657 H   0  0  0  0  0  0  0  0  0  0  0  0 
    4.7777   -0.2339    0.7793 H   0  0  0  0  0  0  0  0  0  0  0  0 
    2.4866   -4.6230    0.4908 H   0  0  0  0  0  0  0  0  0  0  0  0 
    5.9709   -2.2955    1.4366 H   0  0  0  0  0  0  0  0  0  0  0  0 
    4.4733   -5.4725    1.2859 H   0  0  0  0  0  0  0  0  0  0  0  0 
  1 11  1  0  0  0  0 
  2  1  2  0  0  0  0 
  2  7  1  0  0  0  0 
  3  7  2  0  0  0  0 
  3  5  1  0  0  0  0 
  4 14  1  0  0  0  0 
  4  6  2  0  0  0  0 
  5  8  2  0  0  0  0 
  6 16  1  0  0  0  0 
  7  4  1  0  0  0  0 
  8  6  1  0  0  0  0 
  8  9  1  0  0  0  0 
 10  1  1  0  0  0  0 
 12  2  1  0  0  0  0 
 13  3  1  0  0  0  0 
 15  5  1  0  0  0  0 
 17  9  1  0  0  0  0 
M  END 
>  <HBA> 
1 
 
>  <HBD> 
1 
 
>  <TPSA> 
20.23 
 
>  <cid> 
62453 
 
>  <dipole> 
1.54 
 
>  <excitation_energy_1> 
4.498 
 
>  <excitation_energy_2> 
4.793 
 
>  <excitation_energy_3> 
4.918 
 
>  <excitation_energy_4> 
5.423 
 
>  <homo_energy> 
-5.573 
 
>  <homo_lumo_gap> 
4.988 
 
>  <logP> 
2.035 
 
>  <lumo_energy> 
-0.585 
 
>  <melting_point> 
37.43 
 
>  <molecular_refractivity> 
38.56 
 
>  <oscillator_strength_1> 
0.1615 
 
>  <oscillator_strength_2> 
0.3059 
 
>  <oscillator_strength_3> 
0.0004 
 
>  <oscillator_strength_4> 
0.0042 
 
>  <open_babel_can_smiles> 
C=Cc1ccc(cc1)O 
 
>  <mulliken_charges> 
17 
1   -0.356263 
2   -0.116664 
3   -0.204423 
4   -0.189385 
5   -0.192863 
6   -0.157779 
7   0.172871 
8   0.350151 
9   -0.640124 
10   0.14121 
11   0.138291 
12   0.123489 
13   0.130767 
14   0.131386 
15   0.119591 
16   0.141586 
17   0.408156 
 
>  <lowdin_charges> 
17 
1   -0.342992 
2   -0.144177 
3   -0.146093 
4   -0.140203 
5   -0.215067 
6   -0.180107 
7   -0.023456 
8   0.10352 
9   -0.375777 
10   0.162743 
11   0.154183 
12   0.151557 
13   0.156514 
14   0.160029 
15   0.153569 
16   0.166864 
17   0.358894 
 
$$$$ 
 
