PCCDB-ID:  43045 
public computational chemistry database (PCCDB) project, http://pccdb.org 
 
 41 41  0  0  1  0  0  0  0  0999 V2000 
    4.0372   -3.0921   -2.8422 C   0  0  0  0  0  0  0  0  0  0  0  0 
    3.8834   -0.5824   -2.7766 C   0  0  0  0  0  0  0  0  0  0  0  0 
    2.8471   -3.9383    2.4469 C   0  0  0  0  0  0  0  0  0  0  0  0 
    3.1624    2.0681    1.7809 C   0  0  0  0  0  0  0  0  0  0  0  0 
    2.1944   -4.2517   -0.0108 C   0  0  0  0  0  0  0  0  0  0  0  0 
    1.7553   -2.8190   -0.3534 C   0  0  0  0  0  0  0  0  0  0  0  0 
    4.5037   -3.4077    0.5432 C   0  0  0  0  0  0  0  0  0  0  0  0 
    4.4157    0.2240    3.1293 C   0  0  0  0  0  0  0  0  0  0  0  0 
    3.2173   -1.8959   -2.3284 C   0  0  0  0  0  0  0  0  0  0  0  0 
    3.3323   -4.2873    1.0296 C   0  0  1  0  0  0  0  0  0  0  0  0 
    4.2716    1.7111    2.7519 C   0  0  0  0  0  0  0  0  0  0  0  0 
    2.8908   -1.8628   -0.8012 C   0  0  2  0  0  0  0  0  0  0  0  0 
    4.1311   -1.9811    0.1122 C   0  0  1  0  0  0  0  0  0  0  0  0 
    4.8796   -0.6197    1.9504 C   0  0  0  0  0  0  0  0  0  0  0  0 
    5.0065    2.5450    3.2357 O   0  0  0  0  0  0  0  0  0  0  0  0 
    6.0388   -0.7508    1.6238 O   0  0  0  0  0  0  0  0  0  0  0  0 
    3.8301   -1.1693    1.3008 O   0  0  0  0  0  0  0  0  0  0  0  0 
    4.1196   -3.0432   -3.9345 H   0  0  0  0  0  0  0  0  0  0  0  0 
    3.5822   -4.0546   -2.5922 H   0  0  0  0  0  0  0  0  0  0  0  0 
    5.0590   -3.0863   -2.4442 H   0  0  0  0  0  0  0  0  0  0  0  0 
    4.0256   -0.5711   -3.8635 H   0  0  0  0  0  0  0  0  0  0  0  0 
    4.8716   -0.4493   -2.3196 H   0  0  0  0  0  0  0  0  0  0  0  0 
    3.2719    0.2883   -2.5115 H   0  0  0  0  0  0  0  0  0  0  0  0 
    3.6757   -3.9846    3.1639 H   0  0  0  0  0  0  0  0  0  0  0  0 
    2.0822   -4.6521    2.7764 H   0  0  0  0  0  0  0  0  0  0  0  0 
    2.4188   -2.9335    2.5057 H   0  0  0  0  0  0  0  0  0  0  0  0 
    3.2533    1.4919    0.8534 H   0  0  0  0  0  0  0  0  0  0  0  0 
    3.1968    3.1370    1.5626 H   0  0  0  0  0  0  0  0  0  0  0  0 
    2.1871    1.8128    2.2143 H   0  0  0  0  0  0  0  0  0  0  0  0 
    2.5250   -4.7722   -0.9180 H   0  0  0  0  0  0  0  0  0  0  0  0 
    1.3293   -4.8147    0.3641 H   0  0  0  0  0  0  0  0  0  0  0  0 
    1.2784   -2.3823    0.5333 H   0  0  0  0  0  0  0  0  0  0  0  0 
    0.9793   -2.8428   -1.1296 H   0  0  0  0  0  0  0  0  0  0  0  0 
    4.9655   -3.8937   -0.3247 H   0  0  0  0  0  0  0  0  0  0  0  0 
    5.2883   -3.3434    1.3053 H   0  0  0  0  0  0  0  0  0  0  0  0 
    3.4515   -0.1524    3.4870 H   0  0  0  0  0  0  0  0  0  0  0  0 
    5.1667    0.1571    3.9177 H   0  0  0  0  0  0  0  0  0  0  0  0 
    2.2378   -1.9422   -2.8272 H   0  0  0  0  0  0  0  0  0  0  0  0 
    3.7113   -5.3183    1.0722 H   0  0  0  0  0  0  0  0  0  0  0  0 
    2.5092   -0.8472   -0.6324 H   0  0  0  0  0  0  0  0  0  0  0  0 
    5.0033   -1.5193   -0.3566 H   0  0  0  0  0  0  0  0  0  0  0  0 
  1 19  1  0  0  0  0 
  1 20  1  0  0  0  0 
  1  9  1  0  0  0  0 
  2 23  1  0  0  0  0 
  2  9  1  0  0  0  0 
  2 22  1  0  0  0  0 
  3 26  1  0  0  0  0 
  3 25  1  0  0  0  0 
  3 24  1  0  0  0  0 
  4 29  1  0  0  0  0 
  4 11  1  0  0  0  0 
  5 31  1  0  0  0  0 
  5 10  1  0  0  0  0 
  6  5  1  0  0  0  0 
  6 32  1  0  0  0  0 
  7 10  1  0  0  0  0 
  7 35  1  0  0  0  0 
  8 36  1  0  0  0  0 
  8 37  1  0  0  0  0 
  9 12  1  0  0  0  0 
 10 39  1  1  0  0  0 
 10  3  1  0  0  0  0 
 11  8  1  0  0  0  0 
 11 15  2  0  0  0  0 
 12 40  1  1  0  0  0 
 12  6  1  0  0  0  0 
 12 13  1  0  0  0  0 
 13 41  1  6  0  0  0 
 13  7  1  0  0  0  0 
 13 17  1  0  0  0  0 
 14  8  1  0  0  0  0 
 16 14  2  0  0  0  0 
 17 14  1  0  0  0  0 
 18  1  1  0  0  0  0 
 21  2  1  0  0  0  0 
 27  4  1  0  0  0  0 
 28  4  1  0  0  0  0 
 30  5  1  0  0  0  0 
 33  6  1  0  0  0  0 
 34  7  1  0  0  0  0 
 38  9  1  0  0  0  0 
M  END 
>  <HBA> 
3 
 
>  <HBD> 
0 
 
>  <TPSA> 
43.37 
 
>  <cid> 
43045 
 
>  <dipole> 
4.56 
 
>  <excitation_energy_1> 
4.324 
 
>  <excitation_energy_2> 
5.458 
 
>  <excitation_energy_3> 
6.064 
 
>  <excitation_energy_4> 
6.262 
 
>  <homo_energy> 
-6.852 
 
>  <homo_lumo_gap> 
6.093 
 
>  <logP> 
2.97 
 
>  <lumo_energy> 
-0.759 
 
>  <melting_point> 
24.53 
 
>  <molecular_refractivity> 
68.78 
 
>  <oscillator_strength_1> 
0.0027 
 
>  <oscillator_strength_2> 
0.0129 
 
>  <oscillator_strength_3> 
0.0157 
 
>  <oscillator_strength_4> 
0.0195 
 
>  <open_babel_can_smiles> 
C[C@H]1CC[C@@H]([C@H](C1)OC(=O)CC(=O)C)C(C)C 
 
>  <mulliken_charges> 
41 
1   -0.459665 
2   -0.455312 
3   -0.45568 
4   -0.529558 
5   -0.269396 
6   -0.282041 
7   -0.294986 
8   -0.41584 
9   -0.081714 
10   -0.073938 
11   0.446496 
12   -0.099915 
13   0.106889 
14   0.602421 
15   -0.412133 
16   -0.462728 
17   -0.479237 
18   0.145051 
19   0.151371 
20   0.149087 
21   0.145958 
22   0.150913 
23   0.140909 
24   0.140001 
25   0.138341 
26   0.155418 
27   0.181414 
28   0.182719 
29   0.172042 
30   0.134611 
31   0.130964 
32   0.141925 
33   0.131751 
34   0.143885 
35   0.1584 
36   0.178092 
37   0.195824 
38   0.126185 
39   0.123864 
40   0.13424 
41   0.163371 
 
>  <lowdin_charges> 
41 
1   -0.448927 
2   -0.446509 
3   -0.453939 
4   -0.475323 
5   -0.283539 
6   -0.283853 
7   -0.292451 
8   -0.329388 
9   -0.121159 
10   -0.123981 
11   0.174168 
12   -0.139692 
13   0.001954 
14   0.192886 
15   -0.215324 
16   -0.256917 
17   -0.197725 
18   0.149831 
19   0.149636 
20   0.147089 
21   0.149692 
22   0.148584 
23   0.147573 
24   0.148903 
25   0.147694 
26   0.149526 
27   0.174023 
28   0.17305 
29   0.172796 
30   0.140533 
31   0.144846 
32   0.146757 
33   0.14535 
34   0.155188 
35   0.15921 
36   0.175578 
37   0.187692 
38   0.139873 
39   0.140239 
40   0.147957 
41   0.158101 
 
$$$$ 
 
