PCCDB-ID:  44608 
public computational chemistry database (PCCDB) project, http://pccdb.org 
 
 30 30  0  0  0  0  0  0  0  0999 V2000 
    1.6294   -0.1189   -1.5079 C   0  0  0  0  0  0  0  0  0  0  0  0 
    4.8049   -1.2743    0.2970 C   0  0  0  0  0  0  0  0  0  0  0  0 
    5.2607   -0.0757    0.8360 C   0  0  0  0  0  0  0  0  0  0  0  0 
    1.9793    4.4891   -0.2931 C   0  0  0  0  0  0  0  0  0  0  0  0 
    3.6290   -1.2807   -0.4604 C   0  0  0  0  0  0  0  0  0  0  0  0 
    4.5513    1.1105    0.6223 C   0  0  0  0  0  0  0  0  0  0  0  0 
    3.0208    3.4576    0.1255 C   0  0  0  0  0  0  0  0  0  0  0  0 
    0.5987    4.2435    0.2979 C   0  0  0  0  0  0  0  0  0  0  0  0 
    2.8973   -0.1163   -0.6919 C   0  0  0  0  0  0  0  0  0  0  0  0 
    3.3777    1.0892   -0.1367 C   0  0  0  0  0  0  0  0  0  0  0  0 
   -0.3951    4.1756    2.4395 C   0  0  0  0  0  0  0  0  0  0  0  0 
   -1.5168    3.8839    1.9121 N   0  0  0  0  0  0  0  0  0  0  0  0 
   -0.0656    4.3361    3.7501 O   0  0  0  0  0  0  0  0  0  0  0  0 
    2.6180    2.1971   -0.4054 O   0  0  0  0  0  0  0  0  0  0  0  0 
    0.7160    4.3898    1.7275 O   0  0  0  0  0  0  0  0  0  0  0  0 
    1.3951   -1.1284   -1.8595 H   0  0  0  0  0  0  0  0  0  0  0  0 
    1.7141    0.5386   -2.3816 H   0  0  0  0  0  0  0  0  0  0  0  0 
    0.7763    0.2479   -0.9244 H   0  0  0  0  0  0  0  0  0  0  0  0 
    5.3527   -2.1977    0.4621 H   0  0  0  0  0  0  0  0  0  0  0  0 
    6.1714   -0.0499    1.4287 H   0  0  0  0  0  0  0  0  0  0  0  0 
    1.8908    4.4853   -1.3863 H   0  0  0  0  0  0  0  0  0  0  0  0 
    2.3331    5.4840    0.0037 H   0  0  0  0  0  0  0  0  0  0  0  0 
    3.2668   -2.2146   -0.8846 H   0  0  0  0  0  0  0  0  0  0  0  0 
    4.9189    2.0370    1.0483 H   0  0  0  0  0  0  0  0  0  0  0  0 
    3.0878    3.4043    1.2196 H   0  0  0  0  0  0  0  0  0  0  0  0 
    4.0093    3.7323   -0.2688 H   0  0  0  0  0  0  0  0  0  0  0  0 
    0.2329    3.2394    0.0690 H   0  0  0  0  0  0  0  0  0  0  0  0 
   -0.1346    4.9653   -0.0753 H   0  0  0  0  0  0  0  0  0  0  0  0 
   -2.2520    3.7532    2.6063 H   0  0  0  0  0  0  0  0  0  0  0  0 
   -0.8617    4.1900    4.2835 H   0  0  0  0  0  0  0  0  0  0  0  0 
  1 18  1  0  0  0  0 
  1  9  1  0  0  0  0 
  2 19  1  0  0  0  0 
  2  3  2  0  0  0  0 
  3 20  1  0  0  0  0 
  4 22  1  0  0  0  0 
  4  7  1  0  0  0  0 
  4  8  1  0  0  0  0 
  5  2  1  0  0  0  0 
  6  3  1  0  0  0  0 
  6 24  1  0  0  0  0 
  7 25  1  0  0  0  0 
  8 15  1  0  0  0  0 
  9  5  2  0  0  0  0 
  9 10  1  0  0  0  0 
 10  6  2  0  0  0  0 
 11 13  1  0  0  0  0 
 12 11  2  0  0  0  0 
 12 29  1  0  0  0  0 
 13 30  1  0  0  0  0 
 14 10  1  0  0  0  0 
 14  7  1  0  0  0  0 
 15 11  1  0  0  0  0 
 16  1  1  0  0  0  0 
 17  1  1  0  0  0  0 
 21  4  1  0  0  0  0 
 23  5  1  0  0  0  0 
 26  7  1  0  0  0  0 
 27  8  1  0  0  0  0 
 28  8  1  0  0  0  0 
M  END 
>  <HBA> 
4 
 
>  <HBD> 
1 
 
>  <TPSA> 
61.55 
 
>  <cid> 
44608 
 
>  <dipole> 
1.69 
 
>  <excitation_energy_1> 
5.022 
 
>  <excitation_energy_2> 
5.048 
 
>  <excitation_energy_3> 
5.46 
 
>  <excitation_energy_4> 
5.639 
 
>  <homo_energy> 
-5.701 
 
>  <homo_lumo_gap> 
5.976 
 
>  <logP> 
2.559 
 
>  <lumo_energy> 
0.275 
 
>  <melting_point> 
88.29 
 
>  <molecular_refractivity> 
56.7 
 
>  <oscillator_strength_1> 
0.008 
 
>  <oscillator_strength_2> 
0.0276 
 
>  <oscillator_strength_3> 
0.0042 
 
>  <oscillator_strength_4> 
0.0114 
 
>  <open_babel_can_smiles> 
OC(=N)OCCCOc1ccccc1C 
 
>  <mulliken_charges> 
30 
1   -0.515055 
2   -0.127982 
3   -0.142166 
4   -0.306333 
5   -0.190442 
6   -0.193176 
7   -0.035389 
8   -0.023324 
9   0.123655 
10   0.328686 
11   0.648109 
12   -0.627443 
13   -0.571097 
14   -0.528369 
15   -0.452336 
16   0.145997 
17   0.161877 
18   0.165897 
19   0.121631 
20   0.125431 
21   0.157202 
22   0.154223 
23   0.119567 
24   0.132429 
25   0.163278 
26   0.140505 
27   0.179997 
28   0.160207 
29   0.276238 
30   0.40818 
 
>  <lowdin_charges> 
30 
1   -0.438008 
2   -0.179 
3   -0.152609 
4   -0.286152 
5   -0.161369 
6   -0.213682 
7   -0.125025 
8   -0.117873 
9   -0.023998 
10   0.09431 
11   0.188273 
12   -0.469691 
13   -0.367224 
14   -0.207177 
15   -0.184745 
16   0.152792 
17   0.161263 
18   0.16277 
19   0.155515 
20   0.155704 
21   0.158337 
22   0.158077 
23   0.154085 
24   0.161904 
25   0.146855 
26   0.140167 
27   0.161142 
28   0.156347 
29   0.257404 
30   0.361608 
 
$$$$ 
 
