PCCDB-ID:  31514 
public computational chemistry database (PCCDB) project, http://pccdb.org 
 
 32 33  0  0  1  0  0  0  0  0999 V2000 
    2.1957   -0.1778    1.2763 C   0  0  0  0  0  0  0  0  0  0  0  0 
    2.8672   -1.5270   -2.3568 C   0  0  0  0  0  0  0  0  0  0  0  0 
   -0.5314   -6.4981    0.8875 C   0  0  0  0  0  0  0  0  0  0  0  0 
    2.1823   -0.2423   -0.2519 C   0  0  0  0  0  0  0  0  0  0  0  0 
    5.6066   -4.6749    0.9748 C   0  0  0  0  0  0  0  0  0  0  0  0 
    4.4081   -5.3867    0.9925 C   0  0  0  0  0  0  0  0  0  0  0  0 
    5.6656   -3.3468    0.5167 C   0  0  0  0  0  0  0  0  0  0  0  0 
    3.2183   -4.7878    0.5553 C   0  0  0  0  0  0  0  0  0  0  0  0 
    4.4764   -2.7820    0.0936 C   0  0  0  0  0  0  0  0  0  0  0  0 
    3.2691   -3.4751    0.1199 C   0  0  0  0  0  0  0  0  0  0  0  0 
    1.2750   -5.7856   -0.4329 C   0  0  0  0  0  0  0  0  0  0  0  0 
    2.8795   -1.4683   -0.8347 C   0  0  2  0  0  0  0  0  0  0  0  0 
    0.1118   -6.2739   -0.3983 N   0  0  0  0  0  0  0  0  0  0  0  0 
    1.9203   -5.5427   -1.5954 O   0  0  0  0  0  0  0  0  0  0  0  0 
    2.0197   -5.4839    0.6674 O   0  0  0  0  0  0  0  0  0  0  0  0 
    4.2574   -1.5113   -0.3728 O   0  0  0  0  0  0  0  0  0  0  0  0 
    2.2498   -2.6760   -0.3159 O   0  0  0  0  0  0  0  0  0  0  0  0 
    1.6796    0.7234    1.6233 H   0  0  0  0  0  0  0  0  0  0  0  0 
    3.2206   -0.1510    1.6585 H   0  0  0  0  0  0  0  0  0  0  0  0 
    1.6907   -1.0467    1.7090 H   0  0  0  0  0  0  0  0  0  0  0  0 
    3.3940   -0.6623   -2.7716 H   0  0  0  0  0  0  0  0  0  0  0  0 
    1.8373   -1.5292   -2.7265 H   0  0  0  0  0  0  0  0  0  0  0  0 
    3.3635   -2.4410   -2.6956 H   0  0  0  0  0  0  0  0  0  0  0  0 
   -1.3054   -7.2619    0.7651 H   0  0  0  0  0  0  0  0  0  0  0  0 
   -1.0235   -5.5818    1.2412 H   0  0  0  0  0  0  0  0  0  0  0  0 
    0.1638   -6.8268    1.6710 H   0  0  0  0  0  0  0  0  0  0  0  0 
    2.6705    0.6431   -0.6776 H   0  0  0  0  0  0  0  0  0  0  0  0 
    1.1512   -0.2453   -0.6266 H   0  0  0  0  0  0  0  0  0  0  0  0 
    6.5168   -5.1595    1.3140 H   0  0  0  0  0  0  0  0  0  0  0  0 
    4.3685   -6.4129    1.3424 H   0  0  0  0  0  0  0  0  0  0  0  0 
    6.5940   -2.7870    0.4952 H   0  0  0  0  0  0  0  0  0  0  0  0 
    1.2840   -5.7980   -2.2865 H   0  0  0  0  0  0  0  0  0  0  0  0 
  1 18  1  0  0  0  0 
  1 19  1  0  0  0  0 
  1 20  1  0  0  0  0 
  3 25  1  0  0  0  0 
  3 26  1  0  0  0  0 
  4  1  1  0  0  0  0 
  5  6  1  0  0  0  0 
  5 29  1  0  0  0  0 
  6 30  1  0  0  0  0 
  7  5  2  0  0  0  0 
  8 15  1  0  0  0  0 
  8  6  2  0  0  0  0 
  9 10  2  0  0  0  0 
  9  7  1  0  0  0  0 
 10  8  1  0  0  0  0 
 11 13  2  0  0  0  0 
 11 15  1  0  0  0  0 
 12  2  1  6  0  0  0 
 12 16  1  0  0  0  0 
 12 17  1  0  0  0  0 
 12  4  1  0  0  0  0 
 13  3  1  0  0  0  0 
 14 11  1  0  0  0  0 
 16  9  1  0  0  0  0 
 17 10  1  0  0  0  0 
 21  2  1  0  0  0  0 
 22  2  1  0  0  0  0 
 23  2  1  0  0  0  0 
 24  3  1  0  0  0  0 
 27  4  1  0  0  0  0 
 28  4  1  0  0  0  0 
 31  7  1  0  0  0  0 
 32 14  1  0  0  0  0 
M  END 
>  <HBA> 
5 
 
>  <HBD> 
1 
 
>  <TPSA> 
56.79 
 
>  <cid> 
31514 
 
>  <dipole> 
1.79 
 
>  <excitation_energy_1> 
4.846 
 
>  <excitation_energy_2> 
5.189 
 
>  <excitation_energy_3> 
5.327 
 
>  <excitation_energy_4> 
5.529 
 
>  <homo_energy> 
-5.63 
 
>  <homo_lumo_gap> 
5.717 
 
>  <logP> 
2.693 
 
>  <lumo_energy> 
0.087 
 
>  <melting_point> 
111.15 
 
>  <molecular_refractivity> 
61.65 
 
>  <oscillator_strength_1> 
0.0602 
 
>  <oscillator_strength_2> 
0.0036 
 
>  <oscillator_strength_3> 
0.0147 
 
>  <oscillator_strength_4> 
0.0033 
 
>  <open_babel_can_smiles> 
C/N=C(\Oc1cccc2c1O[C@@](O2)(C)CC)/O 
 
>  <mulliken_charges> 
32 
1   -0.461346 
2   -0.443318 
3   -0.319195 
4   -0.265684 
5   -0.155516 
6   -0.174485 
7   -0.186535 
8   0.291508 
9   0.343398 
10   0.337622 
11   0.721339 
12   0.486481 
13   -0.487274 
14   -0.593476 
15   -0.540425 
16   -0.55724 
17   -0.559121 
18   0.147087 
19   0.163782 
20   0.165702 
21   0.158866 
22   0.158954 
23   0.170002 
24   0.152222 
25   0.152805 
26   0.15139 
27   0.149933 
28   0.151074 
29   0.134907 
30   0.140396 
31   0.142724 
32   0.423423 
 
>  <lowdin_charges> 
32 
1   -0.44887 
2   -0.454284 
3   -0.354509 
4   -0.282866 
5   -0.158418 
6   -0.180297 
7   -0.191664 
8   0.075634 
9   0.076844 
10   0.05371 
11   0.192684 
12   0.243845 
13   -0.263948 
14   -0.359766 
15   -0.152888 
16   -0.20408 
17   -0.196831 
18   0.154821 
19   0.157387 
20   0.159881 
21   0.164058 
22   0.162572 
23   0.169358 
24   0.151635 
25   0.150171 
26   0.145747 
27   0.157558 
28   0.15651 
29   0.16301 
30   0.168697 
31   0.17033 
32   0.373967 
 
$$$$ 
 
