PCCDB-ID:  25484 
public computational chemistry database (PCCDB) project, http://pccdb.org 
 
 26 25  0  0  1  0  0  0  0  0999 V2000 
    5.7150    1.1220    0.7782 C   0  0  0  0  0  0  0  0  0  0  0  0 
    4.0759   -3.8695    2.4456 C   0  0  0  0  0  0  0  0  0  0  0  0 
    2.5670   -1.9426    6.6611 C   0  0  0  0  0  0  0  0  0  0  0  0 
    4.4592   -0.7155    1.9914 C   0  0  0  0  0  0  0  0  0  0  0  0 
    3.4109   -2.8998    4.6871 C   0  0  0  0  0  0  0  0  0  0  0  0 
    5.6908    0.1870    1.9791 C   0  0  1  0  0  0  0  0  0  0  0  0 
    3.6235   -2.6203    3.2053 C   0  0  1  0  0  0  0  0  0  0  0  0 
    6.8665   -0.6142    1.9334 O   0  0  0  0  0  0  0  0  0  0  0  0 
    2.7330   -1.8059    5.2671 O   0  0  0  0  0  0  0  0  0  0  0  0 
    4.6029   -1.5834    3.1082 O   0  0  0  0  0  0  0  0  0  0  0  0 
    4.8532    1.7988    0.7885 H   0  0  0  0  0  0  0  0  0  0  0  0 
    5.7040    0.5487   -0.1556 H   0  0  0  0  0  0  0  0  0  0  0  0 
    6.6282    1.7244    0.7949 H   0  0  0  0  0  0  0  0  0  0  0  0 
    3.2994   -4.6427    2.4580 H   0  0  0  0  0  0  0  0  0  0  0  0 
    4.9863   -4.2843    2.8935 H   0  0  0  0  0  0  0  0  0  0  0  0 
    4.2950   -3.6289    1.4006 H   0  0  0  0  0  0  0  0  0  0  0  0 
    2.0304   -1.0565    7.0104 H   0  0  0  0  0  0  0  0  0  0  0  0 
    3.5354   -2.0028    7.1837 H   0  0  0  0  0  0  0  0  0  0  0  0 
    1.9795   -2.8396    6.9188 H   0  0  0  0  0  0  0  0  0  0  0  0 
    4.4172   -1.2868    1.0505 H   0  0  0  0  0  0  0  0  0  0  0  0 
    3.5352   -0.1234    2.0819 H   0  0  0  0  0  0  0  0  0  0  0  0 
    4.3916   -3.0559    5.1682 H   0  0  0  0  0  0  0  0  0  0  0  0 
    2.8260   -3.8282    4.8103 H   0  0  0  0  0  0  0  0  0  0  0  0 
    5.6764    0.7822    2.9080 H   0  0  0  0  0  0  0  0  0  0  0  0 
    2.6706   -2.2538    2.7959 H   0  0  0  0  0  0  0  0  0  0  0  0 
    6.7235   -1.3108    2.5969 H   0  0  0  0  0  0  0  0  0  0  0  0 
  1 11  1  0  0  0  0 
  1 13  1  0  0  0  0 
  1  6  1  0  0  0  0 
  2 14  1  0  0  0  0 
  2 15  1  0  0  0  0 
  2  7  1  0  0  0  0 
  3 19  1  0  0  0  0 
  3 17  1  0  0  0  0 
  3 18  1  0  0  0  0 
  4 21  1  0  0  0  0 
  4 10  1  0  0  0  0 
  5 23  1  0  0  0  0 
  5 22  1  0  0  0  0 
  5  9  1  0  0  0  0 
  6  4  1  0  0  0  0 
  6 24  1  1  0  0  0 
  7 25  1  6  0  0  0 
  7  5  1  0  0  0  0 
  8  6  1  0  0  0  0 
  8 26  1  0  0  0  0 
  9  3  1  0  0  0  0 
 10  7  1  0  0  0  0 
 12  1  1  0  0  0  0 
 16  2  1  0  0  0  0 
 20  4  1  0  0  0  0 
M  END 
>  <HBA> 
3 
 
>  <HBD> 
1 
 
>  <TPSA> 
38.69 
 
>  <cid> 
25484 
 
>  <dipole> 
2.55 
 
>  <excitation_energy_1> 
6.543 
 
>  <excitation_energy_2> 
6.711 
 
>  <excitation_energy_3> 
6.809 
 
>  <excitation_energy_4> 
6.891 
 
>  <homo_energy> 
-6.882 
 
>  <homo_lumo_gap> 
9.102 
 
>  <logP> 
0.419 
 
>  <lumo_energy> 
2.22 
 
>  <melting_point> 
-26.51 
 
>  <molecular_refractivity> 
39.09 
 
>  <oscillator_strength_1> 
0.0252 
 
>  <oscillator_strength_2> 
0.0013 
 
>  <oscillator_strength_3> 
0.0108 
 
>  <oscillator_strength_4> 
0.0071 
 
>  <open_babel_can_smiles> 
COC[C@@H](OC[C@@H](O)C)C 
 
>  <mulliken_charges> 
26 
1   -0.452761 
2   -0.464894 
3   -0.191181 
4   -0.024604 
5   -0.005686 
6   0.13275 
7   0.138006 
8   -0.638645 
9   -0.461149 
10   -0.505802 
11   0.139457 
12   0.150412 
13   0.162765 
14   0.14601 
15   0.152001 
16   0.15916 
17   0.159174 
18   0.132565 
19   0.127121 
20   0.122656 
21   0.12824 
22   0.125758 
23   0.115902 
24   0.12238 
25   0.132362 
26   0.398001 
 
>  <lowdin_charges> 
26 
1   -0.448414 
2   -0.458073 
3   -0.278551 
4   -0.149719 
5   -0.137054 
6   -0.003432 
7   0.001055 
8   -0.472981 
9   -0.266424 
10   -0.278203 
11   0.151716 
12   0.153413 
13   0.162893 
14   0.15495 
15   0.154456 
16   0.157836 
17   0.156453 
18   0.133011 
19   0.130186 
20   0.129509 
21   0.135661 
22   0.132571 
23   0.12823 
24   0.129081 
25   0.139218 
26   0.342612 
 
$$$$ 
 
