PCCDB-ID:  12196 
public computational chemistry database (PCCDB) project, http://pccdb.org 
 
 18 17  0  0  0  0  0  0  0  0999 V2000 
    1.6420    0.4044   -0.8194 C   0  0  0  0  0  0  0  0  0  0  0  0 
    8.1692    1.7008    4.1265 C   0  0  0  0  0  0  0  0  0  0  0  0 
    3.1160    0.5408   -0.4445 C   0  0  0  0  0  0  0  0  0  0  0  0 
    7.4317    1.3773    2.8290 C   0  0  0  0  0  0  0  0  0  0  0  0 
    5.0582    1.0118    1.4628 C   0  0  0  0  0  0  0  0  0  0  0  0 
    5.8037    0.8191    0.5292 O   0  0  0  0  0  0  0  0  0  0  0  0 
    3.2656    0.9509    1.3466 S   0  0  0  0  0  0  0  0  0  0  0  0 
    5.6129    1.3921    3.1295 S   0  0  0  0  0  0  0  0  0  0  0  0 
    1.5578    0.1584   -1.8838 H   0  0  0  0  0  0  0  0  0  0  0  0 
    1.0931    1.3357   -0.6449 H   0  0  0  0  0  0  0  0  0  0  0  0 
    1.1530   -0.3927   -0.2498 H   0  0  0  0  0  0  0  0  0  0  0  0 
    9.2496    1.6900    3.9442 H   0  0  0  0  0  0  0  0  0  0  0  0 
    7.9523    0.9652    4.9082 H   0  0  0  0  0  0  0  0  0  0  0  0 
    7.9015    2.6924    4.5060 H   0  0  0  0  0  0  0  0  0  0  0  0 
    3.6047    1.3360   -1.0126 H   0  0  0  0  0  0  0  0  0  0  0  0 
    3.6659   -0.3863   -0.6228 H   0  0  0  0  0  0  0  0  0  0  0  0 
    7.7005    0.3891    2.4481 H   0  0  0  0  0  0  0  0  0  0  0  0 
    7.6486    2.1093    2.0476 H   0  0  0  0  0  0  0  0  0  0  0  0 
  1 10  1  0  0  0  0 
  1  3  1  0  0  0  0 
  1 11  1  0  0  0  0 
  2 14  1  0  0  0  0 
  2 13  1  0  0  0  0 
  3  7  1  0  0  0  0 
  4  8  1  0  0  0  0 
  4  2  1  0  0  0  0 
  5  8  1  0  0  0  0 
  6  5  2  0  0  0  0 
  7  5  1  0  0  0  0 
  9  1  1  0  0  0  0 
 12  2  1  0  0  0  0 
 15  3  1  0  0  0  0 
 16  3  1  0  0  0  0 
 17  4  1  0  0  0  0 
 18  4  1  0  0  0  0 
M  END 
>  <HBA> 
3 
 
>  <HBD> 
0 
 
>  <TPSA> 
67.67 
 
>  <cid> 
12196 
 
>  <dipole> 
0.67 
 
>  <excitation_energy_1> 
4.95 
 
>  <excitation_energy_2> 
5.054 
 
>  <excitation_energy_3> 
5.177 
 
>  <excitation_energy_4> 
5.663 
 
>  <homo_energy> 
-6.558 
 
>  <homo_lumo_gap> 
6.207 
 
>  <logP> 
2.613 
 
>  <lumo_energy> 
-0.351 
 
>  <melting_point> 
23.77 
 
>  <molecular_refractivity> 
41.92 
 
>  <oscillator_strength_1> 
0.0 
 
>  <oscillator_strength_2> 
0.0 
 
>  <oscillator_strength_3> 
0.0879 
 
>  <oscillator_strength_4> 
0.0001 
 
>  <open_babel_can_smiles> 
CCSC(=O)SCC 
 
>  <mulliken_charges> 
18 
1   -0.463128 
2   -0.463183 
3   -0.399185 
4   -0.399079 
5   0.085789 
6   -0.413004 
7   0.141654 
8   0.141645 
9   0.162312 
10   0.167021 
11   0.167316 
12   0.162305 
13   0.16711 
14   0.167278 
15   0.193552 
16   0.194042 
17   0.193627 
18   0.193927 
 
>  <lowdin_charges> 
18 
1   -0.445793 
2   -0.444816 
3   -0.359573 
4   -0.358245 
5   -0.081247 
6   -0.251566 
7   0.148228 
8   0.147638 
9   0.16022 
10   0.160325 
11   0.161403 
12   0.159937 
13   0.160946 
14   0.159861 
15   0.171225 
16   0.170611 
17   0.169689 
18   0.171158 
 
$$$$ 
 
