PCCDB-ID:  6569 
public computational chemistry database (PCCDB) project, http://pccdb.org 
 
 13 12  0  0  0  0  0  0  0  0999 V2000 
    0.9122    0.0562   -0.0330 C   0  0  0  0  0  0  0  0  0  0  0  0 
    3.1147   -2.3736    0.9023 C   0  0  0  0  0  0  0  0  0  0  0  0 
    2.4429   -0.0878   -0.1335 C   0  0  0  0  0  0  0  0  0  0  0  0 
    2.9938   -0.8667    1.0576 C   0  0  0  0  0  0  0  0  0  0  0  0 
    3.2993   -0.3018    2.0910 O   0  0  0  0  0  0  0  0  0  0  0  0 
    0.5250    0.6389   -0.8752 H   0  0  0  0  0  0  0  0  0  0  0  0 
    0.6363    0.5689    0.8940 H   0  0  0  0  0  0  0  0  0  0  0  0 
    0.4122   -0.9193   -0.0439 H   0  0  0  0  0  0  0  0  0  0  0  0 
    3.9224   -2.6060    0.1953 H   0  0  0  0  0  0  0  0  0  0  0  0 
    2.1961   -2.8050    0.4860 H   0  0  0  0  0  0  0  0  0  0  0  0 
    3.3396   -2.8333    1.8667 H   0  0  0  0  0  0  0  0  0  0  0  0 
    2.9063    0.9041   -0.1247 H   0  0  0  0  0  0  0  0  0  0  0  0 
    2.7087   -0.5864   -1.0740 H   0  0  0  0  0  0  0  0  0  0  0  0 
  1  7  1  0  0  0  0 
  2  4  1  0  0  0  0 
  2 11  1  0  0  0  0 
  3 12  1  0  0  0  0 
  3  1  1  0  0  0  0 
  3  4  1  0  0  0  0 
  4  5  2  0  0  0  0 
  6  1  1  0  0  0  0 
  8  1  1  0  0  0  0 
  9  2  1  0  0  0  0 
 10  2  1  0  0  0  0 
 13  3  1  0  0  0  0 
M  END 
>  <HBA> 
1 
 
>  <HBD> 
0 
 
>  <TPSA> 
17.07 
 
>  <cid> 
6569 
 
>  <dipole> 
2.76 
 
>  <excitation_energy_1> 
4.331 
 
>  <excitation_energy_2> 
6.099 
 
>  <excitation_energy_3> 
6.791 
 
>  <excitation_energy_4> 
6.926 
 
>  <homo_energy> 
-6.539 
 
>  <homo_lumo_gap> 
6.226 
 
>  <logP> 
0.985 
 
>  <lumo_energy> 
-0.313 
 
>  <melting_point> 
-3.84 
 
>  <molecular_refractivity> 
21.54 
 
>  <oscillator_strength_1> 
0.0001 
 
>  <oscillator_strength_2> 
0.0277 
 
>  <oscillator_strength_3> 
0.0102 
 
>  <oscillator_strength_4> 
0.0055 
 
>  <open_babel_can_smiles> 
CCC(=O)C 
 
>  <mulliken_charges> 
13 
1   -0.453187 
2   -0.531919 
3   -0.326585 
4   0.451136 
5   -0.436235 
6   0.157018 
7   0.170036 
8   0.148256 
9   0.171769 
10   0.164181 
11   0.179248 
12   0.16651 
13   0.139772 
 
>  <lowdin_charges> 
13 
1   -0.437694 
2   -0.478294 
3   -0.304852 
4   0.167985 
5   -0.238888 
6   0.15805 
7   0.160862 
8   0.148698 
9   0.17273 
10   0.165967 
11   0.172038 
12   0.164218 
13   0.149181 
 
$$$$ 
 
