PCCDB-ID:  70100 
public computational chemistry database (PCCDB) project, http://pccdb.org 
 
 23 22  0  0  0  0  0  0  0  0999 V2000 
    1.9164   -2.1428   -0.5197 C   0  0  0  0  0  0  0  0  0  0  0  0 
    2.9434   -1.5930   -0.8387 C   0  0  0  0  0  0  0  0  0  0  0  0 
    4.1779   -0.9082   -1.2245 C   0  0  0  0  0  0  0  0  0  0  0  0 
    4.2594    0.5406   -0.6983 C   0  0  0  0  0  0  0  0  0  0  0  0 
    5.5720    1.2308   -1.0967 C   0  0  0  0  0  0  0  0  0  0  0  0 
    5.7057    2.6947   -0.6208 C   0  0  0  0  0  0  0  0  0  0  0  0 
    5.2157    3.7708   -1.6051 C   0  0  0  0  0  0  0  0  0  0  0  0 
    3.7231    3.7586   -1.9146 C   0  0  0  0  0  0  0  0  0  0  0  0 
    3.4506    4.8922   -2.7342 O   0  0  0  0  0  0  0  0  0  0  0  0 
    1.0104   -2.6276   -0.2358 H   0  0  0  0  0  0  0  0  0  0  0  0 
    4.2642   -0.9020   -2.3204 H   0  0  0  0  0  0  0  0  0  0  0  0 
    5.0430   -1.4785   -0.8568 H   0  0  0  0  0  0  0  0  0  0  0  0 
    4.1692    0.5277    0.3955 H   0  0  0  0  0  0  0  0  0  0  0  0 
    3.3929    1.0991   -1.0704 H   0  0  0  0  0  0  0  0  0  0  0  0 
    5.6947    1.1908   -2.1892 H   0  0  0  0  0  0  0  0  0  0  0  0 
    6.4018    0.6423   -0.6816 H   0  0  0  0  0  0  0  0  0  0  0  0 
    6.7641    2.9017   -0.4195 H   0  0  0  0  0  0  0  0  0  0  0  0 
    5.1908    2.8127    0.3440 H   0  0  0  0  0  0  0  0  0  0  0  0 
    5.7656    3.6835   -2.5517 H   0  0  0  0  0  0  0  0  0  0  0  0 
    5.4547    4.7621   -1.1993 H   0  0  0  0  0  0  0  0  0  0  0  0 
    3.1458    3.7996   -0.9747 H   0  0  0  0  0  0  0  0  0  0  0  0 
    3.4408    2.8286   -2.4325 H   0  0  0  0  0  0  0  0  0  0  0  0 
    2.5063    4.8829   -2.9512 H   0  0  0  0  0  0  0  0  0  0  0  0 
  1 10  1  0  0  0  0 
  2  1  3  0  0  0  0 
  3 12  1  0  0  0  0 
  3  2  1  0  0  0  0 
  3  4  1  0  0  0  0 
  4 13  1  0  0  0  0 
  5  4  1  0  0  0  0 
  5 16  1  0  0  0  0 
  5  6  1  0  0  0  0 
  6 17  1  0  0  0  0 
  6 18  1  0  0  0  0 
  7 20  1  0  0  0  0 
  7  6  1  0  0  0  0 
  8  7  1  0  0  0  0 
  8 21  1  0  0  0  0 
  9  8  1  0  0  0  0 
 11  3  1  0  0  0  0 
 14  4  1  0  0  0  0 
 15  5  1  0  0  0  0 
 19  7  1  0  0  0  0 
 22  8  1  0  0  0  0 
 23  9  1  0  0  0  0 
M  END 
>  <HBA> 
1 
 
>  <HBD> 
1 
 
>  <TPSA> 
20.23 
 
>  <cid> 
70100 
 
>  <dipole> 
0.69 
 
>  <excitation_energy_1> 
6.352 
 
>  <excitation_energy_2> 
6.486 
 
>  <excitation_energy_3> 
6.614 
 
>  <excitation_energy_4> 
6.653 
 
>  <homo_energy> 
-7.034 
 
>  <homo_lumo_gap> 
8.569 
 
>  <logP> 
1.562 
 
>  <lumo_energy> 
1.535 
 
>  <melting_point> 
8.08 
 
>  <molecular_refractivity> 
39.89 
 
>  <oscillator_strength_1> 
0.0007 
 
>  <oscillator_strength_2> 
0.0008 
 
>  <oscillator_strength_3> 
0.0212 
 
>  <oscillator_strength_4> 
0.0005 
 
>  <open_babel_can_smiles> 
OCCCCCCC#C 
 
>  <mulliken_charges> 
23 
1   -0.526515 
2   0.362827 
3   -0.404033 
4   -0.265983 
5   -0.254771 
6   -0.270503 
7   -0.261752 
8   -0.02838 
9   -0.621631 
10   0.184774 
11   0.16728 
12   0.167309 
13   0.147245 
14   0.150246 
15   0.132948 
16   0.132839 
17   0.13789 
18   0.13284 
19   0.142896 
20   0.147494 
21   0.115995 
22   0.120594 
23   0.39039 
 
>  <lowdin_charges> 
23 
1   -0.26729 
2   -0.038793 
3   -0.260749 
4   -0.270372 
5   -0.27906 
6   -0.275214 
7   -0.279998 
8   -0.138135 
9   -0.471766 
10   0.202583 
11   0.162531 
12   0.165346 
13   0.145778 
14   0.148067 
15   0.138389 
16   0.143983 
17   0.147222 
18   0.140665 
19   0.146325 
20   0.151338 
21   0.122588 
22   0.125004 
23   0.341557 
 
$$$$ 
 
