PCCDB-ID:  41166 
public computational chemistry database (PCCDB) project, http://pccdb.org 
 
 24 25  0  0  1  0  0  0  0  0999 V2000 
    2.2311   -0.6474    0.1914 C   0  0  0  0  0  0  0  0  0  0  0  0 
    2.1718    0.7377    0.3636 C   0  0  0  0  0  0  0  0  0  0  0  0 
    1.0569   -1.3974    0.0276 C   0  0  0  0  0  0  0  0  0  0  0  0 
    0.9457    1.4124    0.3851 C   0  0  0  0  0  0  0  0  0  0  0  0 
   -0.9335   -2.8190   -1.9330 C   0  0  0  0  0  0  0  0  0  0  0  0 
   -0.1596   -0.7286    0.0261 C   0  0  0  0  0  0  0  0  0  0  0  0 
   -1.9746   -1.9170   -1.4296 C   0  0  2  0  0  0  0  0  0  0  0  0 
   -0.2168    0.6674    0.2173 C   0  0  0  0  0  0  0  0  0  0  0  0 
   -1.5953   -1.2029   -0.0855 C   0  0  2  0  0  0  0  0  0  0  0  0 
   -2.3150    0.1600    0.0779 C   0  0  0  0  0  0  0  0  0  0  0  0 
   -3.3216   -2.6846   -1.3191 C   0  0  0  0  0  0  0  0  0  0  0  0 
   -0.2029   -3.6110   -2.3676 N   0  0  0  0  0  0  0  0  0  0  0  0 
   -1.5358    1.1709    0.2394 N   0  0  0  0  0  0  0  0  0  0  0  0 
   -3.6384    0.2821    0.0467 O   0  0  0  0  0  0  0  0  0  0  0  0 
   -4.2420   -2.2561   -0.6549 O   0  0  0  0  0  0  0  0  0  0  0  0 
   -3.4563   -3.8241   -1.9959 O   0  0  0  0  0  0  0  0  0  0  0  0 
    3.1925   -1.1524    0.1870 H   0  0  0  0  0  0  0  0  0  0  0  0 
    3.0924    1.3008    0.4911 H   0  0  0  0  0  0  0  0  0  0  0  0 
    1.1157   -2.4749   -0.0933 H   0  0  0  0  0  0  0  0  0  0  0  0 
    0.8886    2.4859    0.5335 H   0  0  0  0  0  0  0  0  0  0  0  0 
   -2.1266   -1.1449   -2.1984 H   0  0  0  0  0  0  0  0  0  0  0  0 
   -1.8684   -1.8701    0.7420 H   0  0  0  0  0  0  0  0  0  0  0  0 
   -4.0427   -0.6057   -0.0871 H   0  0  0  0  0  0  0  0  0  0  0  0 
   -2.6234   -4.0867   -2.4333 H   0  0  0  0  0  0  0  0  0  0  0  0 
  1  2  2  0  0  0  0 
  2  4  1  0  0  0  0 
  2 18  1  0  0  0  0 
  3  1  1  0  0  0  0 
  4 20  1  0  0  0  0 
  5  7  1  0  0  0  0 
  6  3  2  0  0  0  0 
  6  8  1  0  0  0  0 
  7 21  1  6  0  0  0 
  7 11  1  0  0  0  0 
  7  9  1  0  0  0  0 
  8 13  1  0  0  0  0 
  8  4  2  0  0  0  0 
  9  6  1  0  0  0  0 
  9 10  1  0  0  0  0 
  9 22  1  1  0  0  0 
 10 13  2  0  0  0  0 
 11 15  2  0  0  0  0 
 12  5  3  0  0  0  0 
 14 10  1  0  0  0  0 
 16 11  1  0  0  0  0 
 17  1  1  0  0  0  0 
 19  3  1  0  0  0  0 
 23 14  1  0  0  0  0 
 24 16  1  0  0  0  0 
M  END 
>  <HBA> 
5 
 
>  <HBD> 
2 
 
>  <TPSA> 
90.19 
 
>  <cid> 
41166 
 
>  <dipole> 
2.83 
 
>  <excitation_energy_1> 
3.887 
 
>  <excitation_energy_2> 
4.294 
 
>  <excitation_energy_3> 
4.622 
 
>  <excitation_energy_4> 
4.818 
 
>  <homo_energy> 
-6.044 
 
>  <homo_lumo_gap> 
4.631 
 
>  <logP> 
1.085 
 
>  <lumo_energy> 
-1.412 
 
>  <melting_point> 
195.74 
 
>  <molecular_refractivity> 
57.68 
 
>  <oscillator_strength_1> 
0.002 
 
>  <oscillator_strength_2> 
0.0402 
 
>  <oscillator_strength_3> 
0.0035 
 
>  <oscillator_strength_4> 
0.0071 
 
>  <open_babel_can_smiles> 
N#C[C@H]([C@@H]1C(=Nc2c1cccc2)O)C(=O)O 
 
>  <mulliken_charges> 
24 
1   -0.140654 
2   -0.132073 
3   -0.199284 
4   -0.186808 
5   0.368077 
6   0.114382 
7   -0.289407 
8   0.257523 
9   -0.300134 
10   0.516376 
11   0.659922 
12   -0.472093 
13   -0.499089 
14   -0.605815 
15   -0.460263 
16   -0.54473 
17   0.133542 
18   0.134967 
19   0.145913 
20   0.146176 
21   0.253097 
22   0.203974 
23   0.454572 
24   0.441829 
 
>  <lowdin_charges> 
24 
1   -0.168526 
2   -0.144271 
3   -0.15453 
4   -0.166537 
5   -0.021474 
6   -0.055682 
7   -0.162055 
8   0.041831 
9   -0.146267 
10   0.128662 
11   0.217916 
12   -0.102091 
13   -0.184056 
14   -0.338299 
15   -0.239275 
16   -0.304374 
17   0.16071 
18   0.161454 
19   0.163024 
20   0.168266 
21   0.216033 
22   0.184989 
23   0.365539 
24   0.379014 
 
$$$$ 
 
