PCCDB-ID:  69698 
public computational chemistry database (PCCDB) project, http://pccdb.org 
 
 19 19  0  0  0  0  0  0  0  0999 V2000 
    1.0599    0.0418    0.0068 C   0  0  0  0  0  0  0  0  0  0  0  0 
    5.2845    0.1093   -0.2117 C   0  0  0  0  0  0  0  0  0  0  0  0 
    4.6531   -1.0829   -0.0252 C   0  0  0  0  0  0  0  0  0  0  0  0 
    3.1751    1.2385   -0.2282 C   0  0  0  0  0  0  0  0  0  0  0  0 
    4.5416    1.3294   -0.3127 C   0  0  0  0  0  0  0  0  0  0  0  0 
    3.2087   -1.1934    0.0642 C   0  0  0  0  0  0  0  0  0  0  0  0 
    5.1987    2.6519   -0.5016 C   0  0  0  0  0  0  0  0  0  0  0  0 
    4.8614    3.7715    0.0008 N   0  0  0  0  0  0  0  0  0  0  0  0 
    2.5258    0.0584   -0.0500 N   0  0  0  0  0  0  0  0  0  0  0  0 
    2.5814   -2.2356    0.2196 O   0  0  0  0  0  0  0  0  0  0  0  0 
    6.3070    2.6373   -1.3010 O   0  0  0  0  0  0  0  0  0  0  0  0 
    0.7072    0.7223    0.7870 H   0  0  0  0  0  0  0  0  0  0  0  0 
    0.7573   -0.9784    0.2369 H   0  0  0  0  0  0  0  0  0  0  0  0 
    0.6385    0.3414   -0.9578 H   0  0  0  0  0  0  0  0  0  0  0  0 
    6.3706    0.1466   -0.2559 H   0  0  0  0  0  0  0  0  0  0  0  0 
    5.1998   -2.0140    0.0715 H   0  0  0  0  0  0  0  0  0  0  0  0 
    2.5426    2.1167   -0.3181 H   0  0  0  0  0  0  0  0  0  0  0  0 
    4.0953    3.6409    0.6627 H   0  0  0  0  0  0  0  0  0  0  0  0 
    6.2990    1.8332   -1.8431 H   0  0  0  0  0  0  0  0  0  0  0  0 
  1 13  1  0  0  0  0 
  1 12  1  0  0  0  0 
  2  3  2  0  0  0  0 
  3  6  1  0  0  0  0 
  3 16  1  0  0  0  0 
  4  9  1  0  0  0  0 
  5  4  2  0  0  0  0 
  5  2  1  0  0  0  0 
  6 10  2  0  0  0  0 
  7  5  1  0  0  0  0 
  7  8  2  0  0  0  0 
  8 18  1  0  0  0  0 
  9  1  1  0  0  0  0 
  9  6  1  0  0  0  0 
 11  7  1  0  0  0  0 
 14  1  1  0  0  0  0 
 15  2  1  0  0  0  0 
 17  4  1  0  0  0  0 
 19 11  1  0  0  0  0 
M  END 
>  <HBA> 
4 
 
>  <HBD> 
1 
 
>  <TPSA> 
65.09 
 
>  <cid> 
69698 
 
>  <dipole> 
1.99 
 
>  <excitation_energy_1> 
4.019 
 
>  <excitation_energy_2> 
4.478 
 
>  <excitation_energy_3> 
4.859 
 
>  <excitation_energy_4> 
5.029 
 
>  <homo_energy> 
-6.251 
 
>  <homo_lumo_gap> 
4.547 
 
>  <logP> 
0.184 
 
>  <lumo_energy> 
-1.703 
 
>  <melting_point> 
131.73 
 
>  <molecular_refractivity> 
40.06 
 
>  <oscillator_strength_1> 
0.0625 
 
>  <oscillator_strength_2> 
0.0002 
 
>  <oscillator_strength_3> 
0.0248 
 
>  <oscillator_strength_4> 
0.2003 
 
>  <open_babel_can_smiles> 
OC(=N)c1ccc(=O)n(c1)C 
 
>  <mulliken_charges> 
19 
1   -0.345252 
2   -0.131617 
3   -0.217814 
4   0.060164 
5   -0.007868 
6   0.603561 
7   0.422405 
8   -0.579943 
9   -0.470485 
10   -0.526565 
11   -0.574911 
12   0.175028 
13   0.22564 
14   0.178876 
15   0.159759 
16   0.162463 
17   0.176891 
18   0.281943 
19   0.407725 
 
>  <lowdin_charges> 
19 
1   -0.358097 
2   -0.130205 
3   -0.191895 
4   -0.069457 
5   -0.104858 
6   0.151696 
7   0.126665 
8   -0.391623 
9   -0.027758 
10   -0.308514 
11   -0.36279 
12   0.165286 
13   0.195896 
14   0.165277 
15   0.168829 
16   0.181243 
17   0.177243 
18   0.256254 
19   0.356807 
 
$$$$ 
 
