PCCDB-ID:  11588 
public computational chemistry database (PCCDB) project, http://pccdb.org 
 
 13 12  0  0  0  0  0  0  0  0999 V2000 
    2.6457   -2.5282    0.7585 C   0  0  0  0  0  0  0  0  0  0  0  0 
    5.9344    0.8909    0.7416 C   0  0  0  0  0  0  0  0  0  0  0  0 
    3.2170   -1.4061    0.4048 C   0  0  0  0  0  0  0  0  0  0  0  0 
    4.4353    0.6961    1.0185 C   0  0  0  0  0  0  0  0  0  0  0  0 
    3.7919   -0.2824    0.0584 C   0  0  0  0  0  0  0  0  0  0  0  0 
    1.5830   -2.5821    0.9898 H   0  0  0  0  0  0  0  0  0  0  0  0 
    3.2090   -3.4567    0.8370 H   0  0  0  0  0  0  0  0  0  0  0  0 
    6.3654    1.6312    1.4254 H   0  0  0  0  0  0  0  0  0  0  0  0 
    6.1055    1.2421   -0.2832 H   0  0  0  0  0  0  0  0  0  0  0  0 
    6.4821   -0.0494    0.8676 H   0  0  0  0  0  0  0  0  0  0  0  0 
    3.9262    1.6671    0.9342 H   0  0  0  0  0  0  0  0  0  0  0  0 
    4.2854    0.3492    2.0468 H   0  0  0  0  0  0  0  0  0  0  0  0 
    3.8418   -0.0258   -1.0023 H   0  0  0  0  0  0  0  0  0  0  0  0 
  1  7  1  0  0  0  0 
  1  6  1  0  0  0  0 
  2 10  1  0  0  0  0 
  2  4  1  0  0  0  0 
  2  8  1  0  0  0  0 
  3  1  2  0  0  0  0 
  4 12  1  0  0  0  0 
  5  3  2  0  0  0  0 
  5  4  1  0  0  0  0 
  9  2  1  0  0  0  0 
 11  4  1  0  0  0  0 
 13  5  1  0  0  0  0 
M  END 
>  <HBA> 
0 
 
>  <HBD> 
0 
 
>  <TPSA> 
0.0 
 
>  <cid> 
11588 
 
>  <dipole> 
0.42 
 
>  <excitation_energy_1> 
5.546 
 
>  <excitation_energy_2> 
6.079 
 
>  <excitation_energy_3> 
6.447 
 
>  <excitation_energy_4> 
6.619 
 
>  <homo_energy> 
-6.694 
 
>  <homo_lumo_gap> 
7.363 
 
>  <logP> 
1.738 
 
>  <lumo_energy> 
0.669 
 
>  <melting_point> 
-45.83 
 
>  <molecular_refractivity> 
24.38 
 
>  <oscillator_strength_1> 
0.0006 
 
>  <oscillator_strength_2> 
0.0005 
 
>  <oscillator_strength_3> 
0.0266 
 
>  <oscillator_strength_4> 
0.0509 
 
>  <open_babel_can_smiles> 
CCC=C=C 
 
>  <mulliken_charges> 
13 
1   -0.532624 
2   -0.440138 
3   0.333615 
4   -0.275494 
5   -0.294656 
6   0.162026 
7   0.16193 
8   0.144964 
9   0.14446 
10   0.153007 
11   0.145875 
12   0.148627 
13   0.148408 
 
>  <lowdin_charges> 
13 
1   -0.366199 
2   -0.442886 
3   -0.009059 
4   -0.256906 
5   -0.189597 
6   0.172815 
7   0.174466 
8   0.151923 
9   0.147025 
10   0.152281 
11   0.148991 
12   0.15153 
13   0.165619 
 
$$$$ 
 
