PCCDB-ID:  10444 
public computational chemistry database (PCCDB) project, http://pccdb.org 
 
 12 12  0  0  0  0  0  0  0  0999 V2000 
   -0.7393   -0.9392   -0.2310 C   0  0  0  0  0  0  0  0  0  0  0  0 
    0.7514   -1.1848    0.1137 C   0  0  0  0  0  0  0  0  0  0  0  0 
   -0.1143    1.3153   -0.2078 C   0  0  0  0  0  0  0  0  0  0  0  0 
   -1.1334    0.3929    0.2264 N   0  0  0  0  0  0  0  0  0  0  0  0 
    1.5711    0.4619   -0.0273 S   0  0  0  0  0  0  0  0  0  0  0  0 
   -1.3906   -1.6963    0.2173 H   0  0  0  0  0  0  0  0  0  0  0  0 
   -0.8729   -0.9793   -1.3184 H   0  0  0  0  0  0  0  0  0  0  0  0 
    1.2161   -1.8941   -0.5765 H   0  0  0  0  0  0  0  0  0  0  0  0 
    0.8681   -1.5650    1.1336 H   0  0  0  0  0  0  0  0  0  0  0  0 
   -0.1246    2.2322    0.3840 H   0  0  0  0  0  0  0  0  0  0  0  0 
   -0.2515    1.5610   -1.2639 H   0  0  0  0  0  0  0  0  0  0  0  0 
   -1.1707    0.3933    1.2453 H   0  0  0  0  0  0  0  0  0  0  0  0 
  1  2  1  0  0  0  0 
  1  6  1  0  0  0  0 
  1  4  1  0  0  0  0 
  2  9  1  0  0  0  0 
  3  5  1  0  0  0  0 
  3  4  1  0  0  0  0 
  3 10  1  0  0  0  0 
  4 12  1  0  0  0  0 
  5  2  1  0  0  0  0 
  7  1  1  0  0  0  0 
  8  2  1  0  0  0  0 
 11  3  1  0  0  0  0 
M  END 
>  <HBA> 
2 
 
>  <HBD> 
1 
 
>  <TPSA> 
37.33 
 
>  <cid> 
10444 
 
>  <dipole> 
1.78 
 
>  <excitation_energy_1> 
4.879 
 
>  <excitation_energy_2> 
5.125 
 
>  <excitation_energy_3> 
5.745 
 
>  <excitation_energy_4> 
5.807 
 
>  <homo_energy> 
-5.834 
 
>  <homo_lumo_gap> 
6.645 
 
>  <logP> 
0.609 
 
>  <lumo_energy> 
0.811 
 
>  <melting_point> 
34.16 
 
>  <molecular_refractivity> 
28.73 
 
>  <oscillator_strength_1> 
0.0005 
 
>  <oscillator_strength_2> 
0.007 
 
>  <oscillator_strength_3> 
0.0048 
 
>  <oscillator_strength_4> 
0.009 
 
>  <open_babel_can_smiles> 
C1NCCS1 
 
>  <mulliken_charges> 
12 
1   -0.158504 
2   -0.419748 
3   -0.278621 
4   -0.500451 
5   0.022869 
6   0.155984 
7   0.164315 
8   0.176595 
9   0.169168 
10   0.17605 
11   0.184145 
12   0.308197 
 
>  <lowdin_charges> 
12 
1   -0.210897 
2   -0.392729 
3   -0.293407 
4   -0.328711 
5   0.015384 
6   0.156601 
7   0.150839 
8   0.167558 
9   0.15392 
10   0.165682 
11   0.157404 
12   0.258356 
 
$$$$ 
 
