PCCDB-ID:  11569 
public computational chemistry database (PCCDB) project, http://pccdb.org 
 
 18 18  0  0  0  0  0  0  0  0999 V2000 
    1.4943   -0.7814   -0.4241 C   0  0  0  0  0  0  0  0  0  0  0  0 
    3.7018   -3.2052    2.2654 C   0  0  0  0  0  0  0  0  0  0  0  0 
    4.7045   -2.6226    3.0273 C   0  0  0  0  0  0  0  0  0  0  0  0 
    2.9434   -2.4424    1.3662 C   0  0  0  0  0  0  0  0  0  0  0  0 
    4.2086   -0.4788    1.9950 C   0  0  0  0  0  0  0  0  0  0  0  0 
    6.0219   -0.5958    3.6843 C   0  0  0  0  0  0  0  0  0  0  0  0 
    4.9568   -1.2474    2.8867 C   0  0  0  0  0  0  0  0  0  0  0  0 
    3.1965   -1.0722    1.2284 C   0  0  0  0  0  0  0  0  0  0  0  0 
    6.7343   -1.1677    4.4866 O   0  0  0  0  0  0  0  0  0  0  0  0 
    2.5224   -0.2357    0.3886 O   0  0  0  0  0  0  0  0  0  0  0  0 
    1.1102    0.0502   -1.0173 H   0  0  0  0  0  0  0  0  0  0  0  0 
    0.6805   -1.2004    0.1822 H   0  0  0  0  0  0  0  0  0  0  0  0 
    1.8811   -1.5582   -1.0967 H   0  0  0  0  0  0  0  0  0  0  0  0 
    3.4929   -4.2673    2.3600 H   0  0  0  0  0  0  0  0  0  0  0  0 
    5.2998   -3.1975    3.7286 H   0  0  0  0  0  0  0  0  0  0  0  0 
    2.1653   -2.9238    0.7847 H   0  0  0  0  0  0  0  0  0  0  0  0 
    4.3957    0.5857    1.8799 H   0  0  0  0  0  0  0  0  0  0  0  0 
    6.1371    0.4956    3.4983 H   0  0  0  0  0  0  0  0  0  0  0  0 
  1 12  1  0  0  0  0 
  1 10  1  0  0  0  0 
  2 14  1  0  0  0  0 
  2  3  2  0  0  0  0 
  3 15  1  0  0  0  0 
  4  2  1  0  0  0  0 
  5  7  2  0  0  0  0 
  6  9  2  0  0  0  0 
  7  3  1  0  0  0  0 
  7  6  1  0  0  0  0 
  8  4  2  0  0  0  0 
  8  5  1  0  0  0  0 
 10  8  1  0  0  0  0 
 11  1  1  0  0  0  0 
 13  1  1  0  0  0  0 
 16  4  1  0  0  0  0 
 17  5  1  0  0  0  0 
 18  6  1  0  0  0  0 
M  END 
>  <HBA> 
2 
 
>  <HBD> 
0 
 
>  <TPSA> 
26.3 
 
>  <cid> 
11569 
 
>  <dipole> 
4.53 
 
>  <excitation_energy_1> 
3.711 
 
>  <excitation_energy_2> 
4.058 
 
>  <excitation_energy_3> 
5.087 
 
>  <excitation_energy_4> 
5.739 
 
>  <homo_energy> 
-6.308 
 
>  <homo_lumo_gap> 
4.699 
 
>  <logP> 
1.508 
 
>  <lumo_energy> 
-1.608 
 
>  <melting_point> 
43.19 
 
>  <molecular_refractivity> 
38.32 
 
>  <oscillator_strength_1> 
0.0001 
 
>  <oscillator_strength_2> 
0.0417 
 
>  <oscillator_strength_3> 
0.0916 
 
>  <oscillator_strength_4> 
0.4866 
 
>  <open_babel_can_smiles> 
COc1cccc(c1)C=O 
 
>  <mulliken_charges> 
18 
1   -0.218562 
2   -0.137509 
3   -0.160386 
4   -0.186986 
5   -0.231216 
6   0.197373 
7   0.094709 
8   0.380956 
9   -0.407368 
10   -0.506089 
11   0.174832 
12   0.15505 
13   0.155035 
14   0.140365 
15   0.159059 
16   0.139829 
17   0.147498 
18   0.103411 
 
>  <lowdin_charges> 
18 
1   -0.280838 
2   -0.140829 
3   -0.151321 
4   -0.197403 
5   -0.165716 
6   0.050747 
7   -0.046286 
8   0.100809 
9   -0.22542 
10   -0.195223 
11   0.1669 
12   0.147871 
13   0.147893 
14   0.161074 
15   0.176424 
16   0.167015 
17   0.168788 
18   0.115517 
 
$$$$ 
 
