PCCDB-ID:  11117 
public computational chemistry database (PCCDB) project, http://pccdb.org 
 
 37 37  0  0  0  0  0  0  0  0999 V2000 
    0.5205    1.4258    1.4499 C   0  0  0  0  0  0  0  0  0  0  0  0 
    1.2517    2.0205    3.8055 C   0  0  0  0  0  0  0  0  0  0  0  0 
    5.5803   -1.3309    5.8465 C   0  0  0  0  0  0  0  0  0  0  0  0 
    7.7729   -0.3305    5.9968 C   0  0  0  0  0  0  0  0  0  0  0  0 
    5.6132   -1.6107    7.2049 C   0  0  0  0  0  0  0  0  0  0  0  0 
    7.8137   -0.6070    7.3541 C   0  0  0  0  0  0  0  0  0  0  0  0 
    4.8409    0.9109    1.4782 C   0  0  0  0  0  0  0  0  0  0  0  0 
    5.4449   -0.4628    1.7296 C   0  0  0  0  0  0  0  0  0  0  0  0 
    2.8750    2.3070    1.8563 C   0  0  0  0  0  0  0  0  0  0  0  0 
    1.4028    2.3419    2.3097 C   0  0  0  0  0  0  0  0  0  0  0  0 
    6.6586   -0.6858    5.2203 C   0  0  0  0  0  0  0  0  0  0  0  0 
    6.7313   -1.2532    7.9838 C   0  0  0  0  0  0  0  0  0  0  0  0 
    6.6801   -0.3656    3.7758 C   0  0  0  0  0  0  0  0  0  0  0  0 
    6.7443   -1.4849    9.3516 N   0  0  0  0  0  0  0  0  0  0  0  0 
    3.4793    0.9831    1.9984 N   0  0  0  0  0  0  0  0  0  0  0  0 
    7.6107    0.1672    3.1990 O   0  0  0  0  0  0  0  0  0  0  0  0 
    5.5301   -0.7381    3.1468 O   0  0  0  0  0  0  0  0  0  0  0  0 
   -0.5281    1.4774    1.7665 H   0  0  0  0  0  0  0  0  0  0  0  0 
    0.8553    0.3864    1.5267 H   0  0  0  0  0  0  0  0  0  0  0  0 
    0.5664    1.7126    0.3923 H   0  0  0  0  0  0  0  0  0  0  0  0 
    0.2159    2.1668    4.1331 H   0  0  0  0  0  0  0  0  0  0  0  0 
    1.8912    2.6641    4.4225 H   0  0  0  0  0  0  0  0  0  0  0  0 
    1.5120    0.9764    4.0194 H   0  0  0  0  0  0  0  0  0  0  0  0 
    4.7145   -1.6158    5.2589 H   0  0  0  0  0  0  0  0  0  0  0  0 
    8.6065    0.1649    5.5094 H   0  0  0  0  0  0  0  0  0  0  0  0 
    4.7698   -2.1085    7.6781 H   0  0  0  0  0  0  0  0  0  0  0  0 
    8.6820   -0.3211    7.9434 H   0  0  0  0  0  0  0  0  0  0  0  0 
    4.8100    1.0742    0.3918 H   0  0  0  0  0  0  0  0  0  0  0  0 
    5.5161    1.6796    1.8972 H   0  0  0  0  0  0  0  0  0  0  0  0 
    6.4419   -0.5361    1.2906 H   0  0  0  0  0  0  0  0  0  0  0  0 
    4.7924   -1.2445    1.3337 H   0  0  0  0  0  0  0  0  0  0  0  0 
    3.4401    3.0893    2.4018 H   0  0  0  0  0  0  0  0  0  0  0  0 
    2.9228    2.5777    0.7925 H   0  0  0  0  0  0  0  0  0  0  0  0 
    1.0683    3.3795    2.1609 H   0  0  0  0  0  0  0  0  0  0  0  0 
    6.1268   -2.2119    9.6883 H   0  0  0  0  0  0  0  0  0  0  0  0 
    7.6547   -1.5123    9.7917 H   0  0  0  0  0  0  0  0  0  0  0  0 
    3.5103    0.7325    2.9852 H   0  0  0  0  0  0  0  0  0  0  0  0 
  1 19  1  0  0  0  0 
  1 18  1  0  0  0  0 
  1 10  1  0  0  0  0 
  2 23  1  0  0  0  0 
  2 21  1  0  0  0  0 
  2 22  1  0  0  0  0 
  3  5  1  0  0  0  0 
  4  6  2  0  0  0  0 
  5 26  1  0  0  0  0 
  5 12  2  0  0  0  0 
  6 27  1  0  0  0  0 
  6 12  1  0  0  0  0 
  7  8  1  0  0  0  0 
  7 29  1  0  0  0  0 
  7 15  1  0  0  0  0 
  8 17  1  0  0  0  0 
  9 15  1  0  0  0  0 
  9 10  1  0  0  0  0 
  9 32  1  0  0  0  0 
 10  2  1  0  0  0  0 
 11  3  2  0  0  0  0 
 11  4  1  0  0  0  0 
 12 14  1  0  0  0  0 
 13 11  1  0  0  0  0 
 14 35  1  0  0  0  0 
 14 36  1  0  0  0  0 
 15 37  1  0  0  0  0 
 16 13  2  0  0  0  0 
 17 13  1  0  0  0  0 
 20  1  1  0  0  0  0 
 24  3  1  0  0  0  0 
 25  4  1  0  0  0  0 
 28  7  1  0  0  0  0 
 30  8  1  0  0  0  0 
 31  8  1  0  0  0  0 
 33  9  1  0  0  0  0 
 34 10  1  0  0  0  0 
M  END 
>  <HBA> 
4 
 
>  <HBD> 
2 
 
>  <TPSA> 
64.35 
 
>  <cid> 
11117 
 
>  <dipole> 
3.79 
 
>  <excitation_energy_1> 
4.377 
 
>  <excitation_energy_2> 
4.659 
 
>  <excitation_energy_3> 
4.71 
 
>  <excitation_energy_4> 
4.959 
 
>  <homo_energy> 
-5.791 
 
>  <homo_lumo_gap> 
5.007 
 
>  <logP> 
2.643 
 
>  <lumo_energy> 
-0.784 
 
>  <melting_point> 
103.28 
 
>  <molecular_refractivity> 
68.96 
 
>  <oscillator_strength_1> 
0.003 
 
>  <oscillator_strength_2> 
0.445 
 
>  <oscillator_strength_3> 
0.0078 
 
>  <oscillator_strength_4> 
0.0084 
 
>  <open_babel_can_smiles> 
CC(CNCCOC(=O)c1ccc(cc1)N)C 
 
>  <mulliken_charges> 
37 
1   -0.435588 
2   -0.455411 
3   -0.170354 
4   -0.161333 
5   -0.180749 
6   -0.182428 
7   -0.132535 
8   -0.056519 
9   -0.114264 
10   -0.072978 
11   0.045117 
12   0.335341 
13   0.587372 
14   -0.790403 
15   -0.565637 
16   -0.501279 
17   -0.49381 
18   0.132295 
19   0.159594 
20   0.134098 
21   0.143552 
22   0.139962 
23   0.143341 
24   0.153315 
25   0.16079 
26   0.122703 
27   0.124321 
28   0.14144 
29   0.138549 
30   0.17095 
31   0.15815 
32   0.108553 
33   0.130977 
34   0.120452 
35   0.327716 
36   0.328115 
37   0.306584 
 
>  <lowdin_charges> 
37 
1   -0.441883 
2   -0.449821 
3   -0.129228 
4   -0.11905 
5   -0.204323 
6   -0.203061 
7   -0.21015 
8   -0.13534 
9   -0.202497 
10   -0.122532 
11   -0.076176 
12   0.07823 
13   0.197161 
14   -0.475465 
15   -0.365785 
16   -0.283951 
17   -0.208083 
18   0.14269 
19   0.154621 
20   0.144213 
21   0.149592 
22   0.148466 
23   0.145019 
24   0.171634 
25   0.177333 
26   0.156185 
27   0.156718 
28   0.145888 
29   0.133075 
30   0.162789 
31   0.158105 
32   0.117337 
33   0.137654 
34   0.136731 
35   0.281489 
36   0.280452 
37   0.251967 
 
$$$$ 
 
