PCCDB-ID:  41554 
public computational chemistry database (PCCDB) project, http://pccdb.org 
 
 23 22  0  0  1  0  0  0  0  0999 V2000 
    1.3302   -0.0240   -0.1208 C   0  0  0  0  0  0  0  0  0  0  0  0 
   -3.1333   -0.1300   -1.7259 C   0  0  0  0  0  0  0  0  0  0  0  0 
    0.4404    0.2387   -1.0895 C   0  0  0  0  0  0  0  0  0  0  0  0 
   -1.6725    0.0253   -2.1301 C   0  0  0  0  0  0  0  0  0  0  0  0 
    2.7903    0.3725   -0.1707 C   0  0  1  0  0  0  0  0  0  0  0  0 
    3.3815    0.4175   -1.6005 C   0  0  0  0  0  0  0  0  0  0  0  0 
   -3.9692   -0.0775   -2.9275 N   0  0  0  0  0  0  0  0  0  0  0  0 
    3.0171    1.5995    0.5887 N   0  0  0  0  0  0  0  0  0  0  0  0 
    4.1117    1.2954   -1.9897 O   0  0  0  0  0  0  0  0  0  0  0  0 
    3.0962   -0.6499   -2.3896 O   0  0  0  0  0  0  0  0  0  0  0  0 
   -0.8806   -0.0167   -0.9373 O   0  0  0  0  0  0  0  0  0  0  0  0 
    0.9713   -0.4455    0.8142 H   0  0  0  0  0  0  0  0  0  0  0  0 
   -3.3695    0.6261   -0.9584 H   0  0  0  0  0  0  0  0  0  0  0  0 
   -3.2606   -1.1116   -1.2568 H   0  0  0  0  0  0  0  0  0  0  0  0 
    0.7260    0.6827   -2.0452 H   0  0  0  0  0  0  0  0  0  0  0  0 
   -1.5141    0.9838   -2.6480 H   0  0  0  0  0  0  0  0  0  0  0  0 
   -1.3838   -0.7833   -2.8128 H   0  0  0  0  0  0  0  0  0  0  0  0 
    3.3636   -0.4222    0.3340 H   0  0  0  0  0  0  0  0  0  0  0  0 
   -4.0724    0.8861   -3.2415 H   0  0  0  0  0  0  0  0  0  0  0  0 
   -4.9075   -0.4067   -2.7123 H   0  0  0  0  0  0  0  0  0  0  0  0 
    2.4499    2.3402    0.1769 H   0  0  0  0  0  0  0  0  0  0  0  0 
    3.9855    1.8892    0.4484 H   0  0  0  0  0  0  0  0  0  0  0  0 
    2.4275   -1.1948   -1.9342 H   0  0  0  0  0  0  0  0  0  0  0  0 
  1 12  1  0  0  0  0 
  2 14  1  0  0  0  0 
  2 13  1  0  0  0  0 
  3 11  1  0  0  0  0 
  3  1  2  0  0  0  0 
  4  2  1  0  0  0  0 
  4 11  1  0  0  0  0 
  5  1  1  0  0  0  0 
  5 18  1  1  0  0  0 
  5  8  1  0  0  0  0 
  6  5  1  0  0  0  0 
  7 20  1  0  0  0  0 
  7  2  1  0  0  0  0 
  9  6  2  0  0  0  0 
 10 23  1  0  0  0  0 
 10  6  1  0  0  0  0 
 15  3  1  0  0  0  0 
 16  4  1  0  0  0  0 
 17  4  1  0  0  0  0 
 19  7  1  0  0  0  0 
 21  8  1  0  0  0  0 
 22  8  1  0  0  0  0 
M  END 
>  <HBA> 
5 
 
>  <HBD> 
3 
 
>  <TPSA> 
98.57 
 
>  <cid> 
41554 
 
>  <dipole> 
4.55 
 
>  <excitation_energy_1> 
5.415 
 
>  <excitation_energy_2> 
5.462 
 
>  <excitation_energy_3> 
5.762 
 
>  <excitation_energy_4> 
5.775 
 
>  <homo_energy> 
-6.487 
 
>  <homo_lumo_gap> 
6.612 
 
>  <logP> 
0.288 
 
>  <lumo_energy> 
0.125 
 
>  <melting_point> 
159.93 
 
>  <molecular_refractivity> 
38.75 
 
>  <oscillator_strength_1> 
0.0005 
 
>  <oscillator_strength_2> 
0.0111 
 
>  <oscillator_strength_3> 
0.0114 
 
>  <oscillator_strength_4> 
0.0062 
 
>  <open_babel_can_smiles> 
N[C@H](C(=O)O)/C=C/OCCN 
 
>  <mulliken_charges> 
23 
1   -0.224539 
2   -0.164468 
3   0.153209 
4   -0.018498 
5   -0.108568 
6   0.561659 
7   -0.722621 
8   -0.683038 
9   -0.450103 
10   -0.566857 
11   -0.464008 
12   0.155837 
13   0.13784 
14   0.159401 
15   0.150102 
16   0.135512 
17   0.158201 
18   0.169117 
19   0.300511 
20   0.308426 
21   0.298023 
22   0.311696 
23   0.403164 
 
>  <lowdin_charges> 
23 
1   -0.236273 
2   -0.211003 
3   -0.048518 
4   -0.131802 
5   -0.104673 
6   0.166234 
7   -0.552737 
8   -0.532982 
9   -0.244866 
10   -0.359788 
11   -0.198714 
12   0.17245 
13   0.131804 
14   0.153276 
15   0.15195 
16   0.136437 
17   0.148954 
18   0.165998 
19   0.254854 
20   0.26183 
21   0.258967 
22   0.263031 
23   0.355574 
 
$$$$ 
 
