PCCDB-ID:  7577 
public computational chemistry database (PCCDB) project, http://pccdb.org 
 
 29 30  0  0  0  0  0  0  0  0999 V2000 
   -1.8530    0.4659    1.3410 C   0  0  0  0  0  0  0  0  0  0  0  0 
   -0.0733   -0.3278   -0.0484 C   0  0  0  0  0  0  0  0  0  0  0  0 
   -2.3310    2.5321   -1.6263 C   0  0  0  0  0  0  0  0  0  0  0  0 
   -2.0044    4.2131    0.0455 C   0  0  0  0  0  0  0  0  0  0  0  0 
   -2.1541   -0.8395    1.7135 C   0  0  0  0  0  0  0  0  0  0  0  0 
   -0.3652   -1.6425    0.3136 C   0  0  0  0  0  0  0  0  0  0  0  0 
   -3.3731    3.2706   -2.1759 C   0  0  0  0  0  0  0  0  0  0  0  0 
   -3.0493    4.9637   -0.4927 C   0  0  0  0  0  0  0  0  0  0  0  0 
   -0.4653    2.1850    0.0731 C   0  0  0  0  0  0  0  0  0  0  0  0 
   -0.8047    0.7532    0.4547 C   0  0  0  0  0  0  0  0  0  0  0  0 
   -1.6203    2.9863   -0.5057 C   0  0  0  0  0  0  0  0  0  0  0  0 
   -1.4124   -1.9198    1.2040 C   0  0  0  0  0  0  0  0  0  0  0  0 
   -3.7515    4.5036   -1.6159 C   0  0  0  0  0  0  0  0  0  0  0  0 
   -1.6770   -3.2313    1.6225 N   0  0  0  0  0  0  0  0  0  0  0  0 
   -4.7636    5.2764   -2.2020 N   0  0  0  0  0  0  0  0  0  0  0  0 
   -2.4514    1.2817    1.7400 H   0  0  0  0  0  0  0  0  0  0  0  0 
    0.7452   -0.1422   -0.7412 H   0  0  0  0  0  0  0  0  0  0  0  0 
   -2.0678    1.5755   -2.0717 H   0  0  0  0  0  0  0  0  0  0  0  0 
   -1.4767    4.5953    0.9172 H   0  0  0  0  0  0  0  0  0  0  0  0 
   -2.9695   -1.0310    2.4083 H   0  0  0  0  0  0  0  0  0  0  0  0 
    0.2244   -2.4611   -0.0944 H   0  0  0  0  0  0  0  0  0  0  0  0 
   -3.9022    2.8950   -3.0496 H   0  0  0  0  0  0  0  0  0  0  0  0 
   -3.3223    5.9152   -0.0408 H   0  0  0  0  0  0  0  0  0  0  0  0 
    0.3654    2.1638   -0.6460 H   0  0  0  0  0  0  0  0  0  0  0  0 
   -0.0805    2.7196    0.9528 H   0  0  0  0  0  0  0  0  0  0  0  0 
   -2.6314   -3.3898    1.9228 H   0  0  0  0  0  0  0  0  0  0  0  0 
   -1.3819   -3.9463    0.9682 H   0  0  0  0  0  0  0  0  0  0  0  0 
   -5.4505    4.7416   -2.7202 H   0  0  0  0  0  0  0  0  0  0  0  0 
   -5.2154    5.9238   -1.5672 H   0  0  0  0  0  0  0  0  0  0  0  0 
  1  5  1  0  0  0  0 
  1 16  1  0  0  0  0 
  2  6  2  0  0  0  0 
  2 10  1  0  0  0  0 
  3 11  1  0  0  0  0 
  4 19  1  0  0  0  0 
  5 20  1  0  0  0  0 
  6 12  1  0  0  0  0 
  7  3  2  0  0  0  0 
  7 13  1  0  0  0  0 
  8 23  1  0  0  0  0 
  8  4  1  0  0  0  0 
  9 10  1  0  0  0  0 
  9 25  1  0  0  0  0 
 10  1  2  0  0  0  0 
 11  4  2  0  0  0  0 
 11  9  1  0  0  0  0 
 12 14  1  0  0  0  0 
 12  5  2  0  0  0  0 
 13  8  2  0  0  0  0 
 14 26  1  0  0  0  0 
 15 13  1  0  0  0  0 
 15 29  1  0  0  0  0 
 17  2  1  0  0  0  0 
 18  3  1  0  0  0  0 
 21  6  1  0  0  0  0 
 22  7  1  0  0  0  0 
 24  9  1  0  0  0  0 
 27 14  1  0  0  0  0 
 28 15  1  0  0  0  0 
M  END 
>  <HBA> 
2 
 
>  <HBD> 
2 
 
>  <TPSA> 
52.04 
 
>  <cid> 
7577 
 
>  <dipole> 
2.84 
 
>  <excitation_energy_1> 
4.437 
 
>  <excitation_energy_2> 
4.601 
 
>  <excitation_energy_3> 
4.607 
 
>  <excitation_energy_4> 
4.63 
 
>  <homo_energy> 
-5.094 
 
>  <homo_lumo_gap> 
5.282 
 
>  <logP> 
3.604 
 
>  <lumo_energy> 
0.188 
 
>  <melting_point> 
137.86 
 
>  <molecular_refractivity> 
64.7 
 
>  <oscillator_strength_1> 
0.0455 
 
>  <oscillator_strength_2> 
0.0012 
 
>  <oscillator_strength_3> 
0.0195 
 
>  <oscillator_strength_4> 
0.0067 
 
>  <open_babel_can_smiles> 
Nc1ccc(cc1)Cc1ccc(cc1)N 
 
>  <mulliken_charges> 
29 
1   -0.184227 
2   -0.207366 
3   -0.184176 
4   -0.207396 
5   -0.171402 
6   -0.170505 
7   -0.171606 
8   -0.170671 
9   -0.440426 
10   0.184207 
11   0.184473 
12   0.303265 
13   0.303633 
14   -0.786677 
15   -0.786611 
16   0.126891 
17   0.117771 
18   0.126806 
19   0.117775 
20   0.113581 
21   0.112434 
22   0.113537 
23   0.112371 
24   0.149039 
25   0.149101 
26   0.316635 
27   0.316485 
28   0.316605 
29   0.316452 
 
>  <lowdin_charges> 
29 
1   -0.151105 
2   -0.160784 
3   -0.149336 
4   -0.161583 
5   -0.197345 
6   -0.204457 
7   -0.198397 
8   -0.202852 
9   -0.269656 
10   -0.029686 
11   -0.029154 
12   0.056487 
13   0.056416 
14   -0.492225 
15   -0.494906 
16   0.158832 
17   0.152411 
18   0.157442 
19   0.152611 
20   0.151166 
21   0.151661 
22   0.151297 
23   0.150392 
24   0.153991 
25   0.154298 
26   0.271741 
27   0.273856 
28   0.274497 
29   0.274387 
 
$$$$ 
 
