PCCDB-ID:  29331 
public computational chemistry database (PCCDB) project, http://pccdb.org 
 
 29 28  0  0  0  0  0  0  0  0999 V2000 
    7.8557   -0.1164    1.9625 C   0  0  0  0  0  0  0  0  0  0  0  0 
    9.1414   -1.5414    0.2991 C   0  0  0  0  0  0  0  0  0  0  0  0 
    2.2466    4.3578   -2.7954 C   0  0  0  0  0  0  0  0  0  0  0  0 
    3.2858    4.2514   -1.6902 C   0  0  0  0  0  0  0  0  0  0  0  0 
    4.9964    2.7715   -0.9597 C   0  0  0  0  0  0  0  0  0  0  0  0 
    5.5441    1.3764   -1.2242 C   0  0  0  0  0  0  0  0  0  0  0  0 
    7.2472   -0.0947   -0.4936 C   0  0  0  0  0  0  0  0  0  0  0  0 
    8.3803   -0.2277    0.5249 C   0  0  0  0  0  0  0  0  0  0  0  0 
    2.8440    4.2376   -4.0746 O   0  0  0  0  0  0  0  0  0  0  0  0 
    3.8972    2.9758   -1.8293 O   0  0  0  0  0  0  0  0  0  0  0  0 
    6.6352    1.1771   -0.3506 O   0  0  0  0  0  0  0  0  0  0  0  0 
    8.6805   -0.1397    2.6841 H   0  0  0  0  0  0  0  0  0  0  0  0 
    7.1831   -0.9524    2.1974 H   0  0  0  0  0  0  0  0  0  0  0  0 
    7.2996    0.8146    2.1035 H   0  0  0  0  0  0  0  0  0  0  0  0 
    9.9714   -1.6370    1.0080 H   0  0  0  0  0  0  0  0  0  0  0  0 
    9.5584   -1.5998   -0.7135 H   0  0  0  0  0  0  0  0  0  0  0  0 
    8.4842   -2.4091    0.4421 H   0  0  0  0  0  0  0  0  0  0  0  0 
    1.7604    5.3383   -2.7566 H   0  0  0  0  0  0  0  0  0  0  0  0 
    1.4733    3.5881   -2.6382 H   0  0  0  0  0  0  0  0  0  0  0  0 
    2.8201    4.3553   -0.6962 H   0  0  0  0  0  0  0  0  0  0  0  0 
    4.0392    5.0469   -1.8044 H   0  0  0  0  0  0  0  0  0  0  0  0 
    5.7830    3.5219   -1.1353 H   0  0  0  0  0  0  0  0  0  0  0  0 
    4.6840    2.8535    0.0930 H   0  0  0  0  0  0  0  0  0  0  0  0 
    5.8571    1.2933   -2.2783 H   0  0  0  0  0  0  0  0  0  0  0  0 
    4.7534    0.6279   -1.0530 H   0  0  0  0  0  0  0  0  0  0  0  0 
    6.5001   -0.8937   -0.3371 H   0  0  0  0  0  0  0  0  0  0  0  0 
    7.6388   -0.2097   -1.5190 H   0  0  0  0  0  0  0  0  0  0  0  0 
    9.0693    0.6093    0.3426 H   0  0  0  0  0  0  0  0  0  0  0  0 
    3.4023    3.4439   -4.0224 H   0  0  0  0  0  0  0  0  0  0  0  0 
  1 14  1  0  0  0  0 
  1 13  1  0  0  0  0 
  1 12  1  0  0  0  0 
  2 17  1  0  0  0  0 
  2  8  1  0  0  0  0 
  2 15  1  0  0  0  0 
  3 18  1  0  0  0  0 
  3 19  1  0  0  0  0 
  3  4  1  0  0  0  0 
  4 20  1  0  0  0  0 
  5 23  1  0  0  0  0 
  6 25  1  0  0  0  0 
  6  5  1  0  0  0  0 
  6 11  1  0  0  0  0 
  7 11  1  0  0  0  0 
  7 26  1  0  0  0  0 
  7  8  1  0  0  0  0 
  8  1  1  0  0  0  0 
  9 29  1  0  0  0  0 
  9  3  1  0  0  0  0 
 10  4  1  0  0  0  0 
 10  5  1  0  0  0  0 
 16  2  1  0  0  0  0 
 21  4  1  0  0  0  0 
 22  5  1  0  0  0  0 
 24  6  1  0  0  0  0 
 27  7  1  0  0  0  0 
 28  8  1  0  0  0  0 
M  END 
>  <HBA> 
3 
 
>  <HBD> 
1 
 
>  <TPSA> 
38.69 
 
>  <cid> 
29331 
 
>  <dipole> 
1.97 
 
>  <excitation_energy_1> 
6.608 
 
>  <excitation_energy_2> 
6.828 
 
>  <excitation_energy_3> 
6.855 
 
>  <excitation_energy_4> 
6.952 
 
>  <homo_energy> 
-6.999 
 
>  <homo_lumo_gap> 
9.072 
 
>  <logP> 
0.668 
 
>  <lumo_energy> 
2.074 
 
>  <melting_point> 
-27.17 
 
>  <molecular_refractivity> 
43.9 
 
>  <oscillator_strength_1> 
0.0198 
 
>  <oscillator_strength_2> 
0.0077 
 
>  <oscillator_strength_3> 
0.0025 
 
>  <oscillator_strength_4> 
0.0015 
 
>  <open_babel_can_smiles> 
OCCOCCOCC(C)C 
 
>  <mulliken_charges> 
29 
1   -0.442754 
2   -0.450336 
3   -0.034793 
4   -0.031701 
5   -0.023293 
6   -0.020484 
7   0.005594 
8   -0.09154 
9   -0.621309 
10   -0.499244 
11   -0.488177 
12   0.139066 
13   0.133935 
14   0.162421 
15   0.148002 
16   0.142339 
17   0.141232 
18   0.145329 
19   0.130233 
20   0.123161 
21   0.133898 
22   0.137488 
23   0.135179 
24   0.126961 
25   0.131972 
26   0.113898 
27   0.117453 
28   0.136563 
29   0.398909 
 
>  <lowdin_charges> 
29 
1   -0.44785 
2   -0.444747 
3   -0.139248 
4   -0.147483 
5   -0.131749 
6   -0.131894 
7   -0.128416 
8   -0.127713 
9   -0.468578 
10   -0.282693 
11   -0.272405 
12   0.148566 
13   0.144278 
14   0.158731 
15   0.153577 
16   0.147746 
17   0.146907 
18   0.150126 
19   0.132768 
20   0.132246 
21   0.135875 
22   0.136861 
23   0.133761 
24   0.128816 
25   0.133543 
26   0.124793 
27   0.125977 
28   0.144636 
29   0.34357 
 
$$$$ 
 
