PCCDB-ID:  70517 
public computational chemistry database (PCCDB) project, http://pccdb.org 
 
 25 26  0  0  0  0  0  0  0  0999 V2000 
   -0.2476    0.8568    0.6323 C   0  0  0  0  0  0  0  0  0  0  0  0 
    1.7071    0.0744   -0.4927 C   0  0  0  0  0  0  0  0  0  0  0  0 
   -0.5586   -0.4723    0.8876 C   0  0  0  0  0  0  0  0  0  0  0  0 
    1.2911   -1.2176   -0.1802 C   0  0  0  0  0  0  0  0  0  0  0  0 
    2.3715    4.1398   -1.8585 C   0  0  0  0  0  0  0  0  0  0  0  0 
    0.9480    4.9243   -0.1011 C   0  0  0  0  0  0  0  0  0  0  0  0 
    2.4418    2.7494   -1.2243 C   0  0  0  0  0  0  0  0  0  0  0  0 
    0.9956    3.5542    0.5726 C   0  0  0  0  0  0  0  0  0  0  0  0 
    0.9235    1.1759   -0.0902 C   0  0  0  0  0  0  0  0  0  0  0  0 
    0.1800   -1.5228    0.4990 N   0  0  0  0  0  0  0  0  0  0  0  0 
    2.2030    5.1477   -0.8151 N   0  0  0  0  0  0  0  0  0  0  0  0 
    1.2514    2.4938   -0.4121 N   0  0  0  0  0  0  0  0  0  0  0  0 
   -0.9310    1.6269    0.9713 H   0  0  0  0  0  0  0  0  0  0  0  0 
    2.6430    0.2052   -1.0219 H   0  0  0  0  0  0  0  0  0  0  0  0 
   -1.4690   -0.7079    1.4378 H   0  0  0  0  0  0  0  0  0  0  0  0 
    1.9057   -2.0611   -0.4936 H   0  0  0  0  0  0  0  0  0  0  0  0 
    1.5469    4.1446   -2.5966 H   0  0  0  0  0  0  0  0  0  0  0  0 
    3.3071    4.3313   -2.3958 H   0  0  0  0  0  0  0  0  0  0  0  0 
    0.8299    5.6955    0.6685 H   0  0  0  0  0  0  0  0  0  0  0  0 
    0.0625    4.9627   -0.7639 H   0  0  0  0  0  0  0  0  0  0  0  0 
    3.3636    2.6677   -0.6232 H   0  0  0  0  0  0  0  0  0  0  0  0 
    2.4886    2.0080   -2.0256 H   0  0  0  0  0  0  0  0  0  0  0  0 
    0.0455    3.3701    1.0742 H   0  0  0  0  0  0  0  0  0  0  0  0 
    1.7886    3.5595    1.3391 H   0  0  0  0  0  0  0  0  0  0  0  0 
    2.2108    6.0788   -1.2257 H   0  0  0  0  0  0  0  0  0  0  0  0 
  1  3  1  0  0  0  0 
  1 13  1  0  0  0  0 
  2  4  2  0  0  0  0 
  2  9  1  0  0  0  0 
  3 15  1  0  0  0  0 
  4 10  1  0  0  0  0 
  5  7  1  0  0  0  0 
  5 11  1  0  0  0  0 
  6  8  1  0  0  0  0 
  6 19  1  0  0  0  0 
  7 21  1  0  0  0  0 
  7 12  1  0  0  0  0 
  8 23  1  0  0  0  0 
  8 24  1  0  0  0  0 
  9  1  2  0  0  0  0 
 10  3  2  0  0  0  0 
 11  6  1  0  0  0  0 
 12  9  1  0  0  0  0 
 12  8  1  0  0  0  0 
 14  2  1  0  0  0  0 
 16  4  1  0  0  0  0 
 17  5  1  0  0  0  0 
 18  5  1  0  0  0  0 
 20  6  1  0  0  0  0 
 22  7  1  0  0  0  0 
 25 11  1  0  0  0  0 
M  END 
>  <HBA> 
3 
 
>  <HBD> 
1 
 
>  <TPSA> 
28.16 
 
>  <cid> 
70517 
 
>  <dipole> 
4.47 
 
>  <excitation_energy_1> 
4.778 
 
>  <excitation_energy_2> 
5.01 
 
>  <excitation_energy_3> 
5.152 
 
>  <excitation_energy_4> 
5.243 
 
>  <homo_energy> 
-5.706 
 
>  <homo_lumo_gap> 
5.704 
 
>  <logP> 
0.885 
 
>  <lumo_energy> 
-0.003 
 
>  <melting_point> 
76.6 
 
>  <molecular_refractivity> 
55.6 
 
>  <oscillator_strength_1> 
0.0186 
 
>  <oscillator_strength_2> 
0.1719 
 
>  <oscillator_strength_3> 
0.0013 
 
>  <oscillator_strength_4> 
0.0537 
 
>  <open_babel_can_smiles> 
N1CCN(CC1)c1ccncc1 
 
>  <mulliken_charges> 
25 
1   -0.191939 
2   -0.204692 
3   0.030451 
4   0.029218 
5   -0.13958 
6   -0.137126 
7   -0.120939 
8   -0.128547 
9   0.379667 
10   -0.423873 
11   -0.550716 
12   -0.507779 
13   0.128769 
14   0.130438 
15   0.132655 
16   0.13279 
17   0.124881 
18   0.14385 
19   0.143922 
20   0.123753 
21   0.143084 
22   0.155949 
23   0.15484 
24   0.14855 
25   0.302374 
 
>  <lowdin_charges> 
25 
1   -0.21978 
2   -0.228414 
3   -0.086895 
4   -0.086882 
5   -0.209174 
6   -0.21056 
7   -0.201778 
8   -0.196425 
9   0.076444 
10   -0.176897 
11   -0.365179 
12   -0.128574 
13   0.161098 
14   0.162598 
15   0.152809 
16   0.154017 
17   0.124292 
18   0.151415 
19   0.151801 
20   0.123675 
21   0.137572 
22   0.158697 
23   0.157403 
24   0.140991 
25   0.257747 
 
$$$$ 
 
