PCCDB-ID:  46117 
public computational chemistry database (PCCDB) project, http://pccdb.org 
 
 31 31  0  0  0  0  0  0  0  0999 V2000 
    1.0779    1.9367    0.4305 C   0  0  0  0  0  0  0  0  0  0  0  0 
    9.6022    3.7744    3.6165 C   0  0  0  0  0  0  0  0  0  0  0  0 
    9.3400    3.8636    6.0048 C   0  0  0  0  0  0  0  0  0  0  0  0 
    5.8138    3.8213    2.5971 C   0  0  0  0  0  0  0  0  0  0  0  0 
    6.7407    1.7307    3.3422 C   0  0  0  0  0  0  0  0  0  0  0  0 
    5.0857    3.1653    1.6040 C   0  0  0  0  0  0  0  0  0  0  0  0 
    6.0225    1.0597    2.3550 C   0  0  0  0  0  0  0  0  0  0  0  0 
    7.3841    3.8421    4.5907 C   0  0  0  0  0  0  0  0  0  0  0  0 
    6.6433    3.1213    3.4800 C   0  0  0  0  0  0  0  0  0  0  0  0 
    5.1948    1.7811    1.4966 C   0  0  0  0  0  0  0  0  0  0  0  0 
    3.2765    1.1792    0.1963 C   0  0  0  0  0  0  0  0  0  0  0  0 
    2.4735    1.9211    0.8357 N   0  0  0  0  0  0  0  0  0  0  0  0 
    8.7678    3.3950    4.7505 N   0  0  0  0  0  0  0  0  0  0  0  0 
    3.0299    0.3642   -0.8610 O   0  0  0  0  0  0  0  0  0  0  0  0 
    4.5921    1.0503    0.4728 O   0  0  0  0  0  0  0  0  0  0  0  0 
    0.5262    2.6241    1.0772 H   0  0  0  0  0  0  0  0  0  0  0  0 
    0.5947    0.9495    0.5241 H   0  0  0  0  0  0  0  0  0  0  0  0 
    0.9359    2.2871   -0.6063 H   0  0  0  0  0  0  0  0  0  0  0  0 
   10.6058    3.3543    3.7434 H   0  0  0  0  0  0  0  0  0  0  0  0 
    9.7009    4.8727    3.5035 H   0  0  0  0  0  0  0  0  0  0  0  0 
    9.1776    3.3738    2.6920 H   0  0  0  0  0  0  0  0  0  0  0  0 
   10.3506    3.4572    6.1210 H   0  0  0  0  0  0  0  0  0  0  0  0 
    8.7324    3.5112    6.8457 H   0  0  0  0  0  0  0  0  0  0  0  0 
    9.4086    4.9680    6.0707 H   0  0  0  0  0  0  0  0  0  0  0  0 
    5.7338    4.9027    2.6828 H   0  0  0  0  0  0  0  0  0  0  0  0 
    7.3974    1.1800    4.0090 H   0  0  0  0  0  0  0  0  0  0  0  0 
    4.4407    3.7155    0.9309 H   0  0  0  0  0  0  0  0  0  0  0  0 
    6.0966   -0.0167    2.2357 H   0  0  0  0  0  0  0  0  0  0  0  0 
    6.8729    3.6494    5.5441 H   0  0  0  0  0  0  0  0  0  0  0  0 
    7.3198    4.9367    4.4229 H   0  0  0  0  0  0  0  0  0  0  0  0 
    2.0890    0.4366   -1.0863 H   0  0  0  0  0  0  0  0  0  0  0  0 
  1 17  1  0  0  0  0 
  1 12  1  0  0  0  0 
  1 16  1  0  0  0  0 
  2 19  1  0  0  0  0 
  2 13  1  0  0  0  0 
  3 24  1  0  0  0  0 
  3 22  1  0  0  0  0 
  3 23  1  0  0  0  0 
  4 25  1  0  0  0  0 
  4  9  2  0  0  0  0 
  5  9  1  0  0  0  0 
  5 26  1  0  0  0  0 
  6  4  1  0  0  0  0 
  7  5  2  0  0  0  0 
  8 13  1  0  0  0  0 
  8 29  1  0  0  0  0 
  9  8  1  0  0  0  0 
 10  6  2  0  0  0  0 
 10  7  1  0  0  0  0 
 11 15  1  0  0  0  0 
 11 12  2  0  0  0  0 
 13  3  1  0  0  0  0 
 14 11  1  0  0  0  0 
 15 10  1  0  0  0  0 
 18  1  1  0  0  0  0 
 20  2  1  0  0  0  0 
 21  2  1  0  0  0  0 
 27  6  1  0  0  0  0 
 28  7  1  0  0  0  0 
 30  8  1  0  0  0  0 
 31 14  1  0  0  0  0 
M  END 
>  <HBA> 
4 
 
>  <HBD> 
1 
 
>  <TPSA> 
41.57 
 
>  <cid> 
46117 
 
>  <dipole> 
1.63 
 
>  <excitation_energy_1> 
4.843 
 
>  <excitation_energy_2> 
4.958 
 
>  <excitation_energy_3> 
5.149 
 
>  <excitation_energy_4> 
5.361 
 
>  <homo_energy> 
-5.755 
 
>  <homo_lumo_gap> 
5.807 
 
>  <logP> 
1.857 
 
>  <lumo_energy> 
0.052 
 
>  <melting_point> 
72.81 
 
>  <molecular_refractivity> 
58.61 
 
>  <oscillator_strength_1> 
0.0002 
 
>  <oscillator_strength_2> 
0.0054 
 
>  <oscillator_strength_3> 
0.0045 
 
>  <oscillator_strength_4> 
0.0062 
 
>  <open_babel_can_smiles> 
C/N=C(/Oc1ccc(cc1)CN(C)C)\O 
 
>  <mulliken_charges> 
31 
1   -0.360156 
2   -0.302483 
3   -0.292815 
4   -0.205299 
5   -0.176413 
6   -0.123857 
7   -0.164547 
8   -0.193353 
9   0.151219 
10   0.348725 
11   0.66617 
12   -0.42928 
13   -0.365331 
14   -0.588138 
15   -0.516082 
16   0.175561 
17   0.14382 
18   0.140345 
19   0.147305 
20   0.115289 
21   0.164558 
22   0.149185 
23   0.148403 
24   0.117346 
25   0.126262 
26   0.14416 
27   0.147226 
28   0.141105 
29   0.151367 
30   0.114519 
31   0.425189 
 
>  <lowdin_charges> 
31 
1   -0.365725 
2   -0.357782 
3   -0.353613 
4   -0.160285 
5   -0.154176 
6   -0.164874 
7   -0.168944 
8   -0.193082 
9   -0.019273 
10   0.106039 
11   0.195151 
12   -0.265547 
13   -0.181355 
14   -0.356505 
15   -0.141227 
16   0.165965 
17   0.137935 
18   0.135071 
19   0.148847 
20   0.11751 
21   0.158727 
22   0.149497 
23   0.149966 
24   0.117885 
25   0.154189 
26   0.168129 
27   0.173682 
28   0.16596 
29   0.153212 
30   0.118986 
31   0.365636 
 
$$$$ 
 
