PCCDB-ID:  11233 
public computational chemistry database (PCCDB) project, http://pccdb.org 
 
 26 25  0  0  0  0  0  0  0  0999 V2000 
    1.0502   -2.3665   -0.7874 C   0  0  0  0  0  0  0  0  0  0  0  0 
    4.9312   -1.7397   -3.5947 C   0  0  0  0  0  0  0  0  0  0  0  0 
    5.1312    0.5279   -1.4263 C   0  0  0  0  0  0  0  0  0  0  0  0 
    5.3240   -1.2765    0.2894 C   0  0  0  0  0  0  0  0  0  0  0  0 
    2.5830   -2.4049   -0.7989 C   0  0  0  0  0  0  0  0  0  0  0  0 
    5.3848   -1.8959   -2.1375 C   0  0  0  0  0  0  0  0  0  0  0  0 
    3.1998   -1.0267   -1.0800 C   0  0  0  0  0  0  0  0  0  0  0  0 
    4.7493   -0.9308   -1.1000 C   0  0  0  0  0  0  0  0  0  0  0  0 
    0.6269   -3.3571   -0.5850 H   0  0  0  0  0  0  0  0  0  0  0  0 
    0.6538   -2.0259   -1.7520 H   0  0  0  0  0  0  0  0  0  0  0  0 
    0.6762   -1.6806   -0.0173 H   0  0  0  0  0  0  0  0  0  0  0  0 
    5.4613   -2.4528   -4.2366 H   0  0  0  0  0  0  0  0  0  0  0  0 
    5.1365   -0.7363   -3.9834 H   0  0  0  0  0  0  0  0  0  0  0  0 
    3.8584   -1.9294   -3.7135 H   0  0  0  0  0  0  0  0  0  0  0  0 
    6.2207    0.6499   -1.4737 H   0  0  0  0  0  0  0  0  0  0  0  0 
    4.7541    1.2103   -0.6545 H   0  0  0  0  0  0  0  0  0  0  0  0 
    4.7138    0.8564   -2.3848 H   0  0  0  0  0  0  0  0  0  0  0  0 
    6.4109   -1.1282    0.3087 H   0  0  0  0  0  0  0  0  0  0  0  0 
    5.1314   -2.3193    0.5656 H   0  0  0  0  0  0  0  0  0  0  0  0 
    4.8876   -0.6371    1.0670 H   0  0  0  0  0  0  0  0  0  0  0  0 
    2.9172   -3.1278   -1.5547 H   0  0  0  0  0  0  0  0  0  0  0  0 
    2.9380   -2.7874    0.1668 H   0  0  0  0  0  0  0  0  0  0  0  0 
    6.4755   -1.7654   -2.0916 H   0  0  0  0  0  0  0  0  0  0  0  0 
    5.1980   -2.9303   -1.8190 H   0  0  0  0  0  0  0  0  0  0  0  0 
    2.8296   -0.3187   -0.3232 H   0  0  0  0  0  0  0  0  0  0  0  0 
    2.8096   -0.6596   -2.0401 H   0  0  0  0  0  0  0  0  0  0  0  0 
  1  9  1  0  0  0  0 
  1 11  1  0  0  0  0 
  2  6  1  0  0  0  0 
  3  8  1  0  0  0  0 
  3 16  1  0  0  0  0 
  4 18  1  0  0  0  0 
  4 19  1  0  0  0  0 
  4 20  1  0  0  0  0 
  5  1  1  0  0  0  0 
  5 22  1  0  0  0  0 
  6 23  1  0  0  0  0 
  6 24  1  0  0  0  0 
  6  8  1  0  0  0  0 
  7  5  1  0  0  0  0 
  7 25  1  0  0  0  0 
  8  7  1  0  0  0  0 
  8  4  1  0  0  0  0 
 10  1  1  0  0  0  0 
 12  2  1  0  0  0  0 
 13  2  1  0  0  0  0 
 14  2  1  0  0  0  0 
 15  3  1  0  0  0  0 
 17  3  1  0  0  0  0 
 21  5  1  0  0  0  0 
 26  7  1  0  0  0  0 
M  END 
>  <HBA> 
0 
 
>  <HBD> 
0 
 
>  <TPSA> 
0.0 
 
>  <cid> 
11233 
 
>  <dipole> 
0.08 
 
>  <excitation_energy_1> 
7.614 
 
>  <excitation_energy_2> 
7.654 
 
>  <excitation_energy_3> 
7.795 
 
>  <excitation_energy_4> 
8.007 
 
>  <homo_energy> 
-8.087 
 
>  <homo_lumo_gap> 
10.164 
 
>  <logP> 
3.223 
 
>  <lumo_energy> 
2.076 
 
>  <melting_point> 
-9.2 
 
>  <molecular_refractivity> 
40.31 
 
>  <oscillator_strength_1> 
0.0382 
 
>  <oscillator_strength_2> 
0.0343 
 
>  <oscillator_strength_3> 
0.0168 
 
>  <oscillator_strength_4> 
0.0009 
 
>  <open_babel_can_smiles> 
CCCC(CC)(C)C 
 
>  <mulliken_charges> 
26 
1   -0.442013 
2   -0.455678 
3   -0.449534 
4   -0.449527 
5   -0.260482 
6   -0.249515 
7   -0.249359 
8   0.104207 
9   0.140572 
10   0.140496 
11   0.141153 
12   0.141422 
13   0.14551 
14   0.145856 
15   0.135214 
16   0.136783 
17   0.140626 
18   0.136449 
19   0.140981 
20   0.135324 
21   0.135325 
22   0.134457 
23   0.12468 
24   0.129943 
25   0.121184 
26   0.125925 
 
>  <lowdin_charges> 
26 
1   -0.444058 
2   -0.448945 
3   -0.443013 
4   -0.442039 
5   -0.278218 
6   -0.271933 
7   -0.278255 
8   0.010871 
9   0.148164 
10   0.145469 
11   0.14689 
12   0.151771 
13   0.147305 
14   0.145565 
15   0.143491 
16   0.147624 
17   0.146568 
18   0.144476 
19   0.145368 
20   0.146563 
21   0.141572 
22   0.140805 
23   0.137371 
24   0.13891 
25   0.139075 
26   0.138604 
 
$$$$ 
 
