PCCDB-ID:  30804 
public computational chemistry database (PCCDB) project, http://pccdb.org 
 
 24 25  0  0  0  0  0  0  0  0999 V2000 
    1.4859    0.6620    0.1261 C   0  0  0  0  0  0  0  0  0  0  0  0 
    6.7278   -2.6590   -0.2978 C   0  0  0  0  0  0  0  0  0  0  0  0 
    7.1651   -4.0080   -0.2553 C   0  0  0  0  0  0  0  0  0  0  0  0 
    2.7161   -0.1795    0.1191 C   0  0  0  0  0  0  0  0  0  0  0  0 
    5.3747   -2.6736   -0.0442 C   0  0  0  0  0  0  0  0  0  0  0  0 
    6.0455   -4.7431    0.0192 C   0  0  0  0  0  0  0  0  0  0  0  0 
    2.9773   -1.5262   -0.0197 C   0  0  0  0  0  0  0  0  0  0  0  0 
    4.4151   -1.5857    0.0706 C   0  0  0  0  0  0  0  0  0  0  0  0 
    1.9543   -2.5714   -0.2427 C   0  0  0  0  0  0  0  0  0  0  0  0 
    2.0038   -3.8373   -0.1607 N   0  0  0  0  0  0  0  0  0  0  0  0 
    4.9422   -0.3875    0.2516 N   0  0  0  0  0  0  0  0  0  0  0  0 
    5.8537   -6.1483    0.1741 N   0  0  0  0  0  0  0  0  0  0  0  0 
    0.7651   -1.9950   -0.5923 O   0  0  0  0  0  0  0  0  0  0  0  0 
    6.8650   -6.8453    0.0541 O   0  0  0  0  0  0  0  0  0  0  0  0 
    4.7150   -6.5507    0.4129 O   0  0  0  0  0  0  0  0  0  0  0  0 
    4.9528   -3.9537    0.1532 O   0  0  0  0  0  0  0  0  0  0  0  0 
    3.8729    0.4894    0.2803 O   0  0  0  0  0  0  0  0  0  0  0  0 
    0.7325    0.2414    0.7957 H   0  0  0  0  0  0  0  0  0  0  0  0 
    1.0409    0.7022   -0.8729 H   0  0  0  0  0  0  0  0  0  0  0  0 
    1.7409    1.6748    0.4475 H   0  0  0  0  0  0  0  0  0  0  0  0 
    7.3192   -1.7767   -0.4924 H   0  0  0  0  0  0  0  0  0  0  0  0 
    8.1582   -4.4009   -0.4105 H   0  0  0  0  0  0  0  0  0  0  0  0 
    2.9083   -4.2065    0.1180 H   0  0  0  0  0  0  0  0  0  0  0  0 
    0.1509   -2.7465   -0.6934 H   0  0  0  0  0  0  0  0  0  0  0  0 
  1 20  1  0  0  0  0 
  1 18  1  0  0  0  0 
  2  3  1  0  0  0  0 
  2  5  2  0  0  0  0 
  3  6  2  0  0  0  0 
  4  1  1  0  0  0  0 
  4 17  1  0  0  0  0 
  5  8  1  0  0  0  0 
  5 16  1  0  0  0  0 
  6 16  1  0  0  0  0 
  6 12  1  0  0  0  0 
  7  8  1  0  0  0  0 
  7  4  2  0  0  0  0 
  8 11  2  0  0  0  0 
  9 10  2  0  0  0  0 
  9  7  1  0  0  0  0 
 10 23  1  0  0  0  0 
 11 17  1  0  0  0  0 
 12 15  2  0  0  0  0 
 13  9  1  0  0  0  0 
 14 12  2  0  0  0  0 
 19  1  1  0  0  0  0 
 21  2  1  0  0  0  0 
 22  3  1  0  0  0  0 
 24 13  1  0  0  0  0 
M  END 
>  <HBA> 
5 
 
>  <HBD> 
1 
 
>  <TPSA> 
128.08 
 
>  <cid> 
30804 
 
>  <dipole> 
4.5 
 
>  <excitation_energy_1> 
3.664 
 
>  <excitation_energy_2> 
3.737 
 
>  <excitation_energy_3> 
3.888 
 
>  <excitation_energy_4> 
4.078 
 
>  <homo_energy> 
-7.143 
 
>  <homo_lumo_gap> 
4.253 
 
>  <logP> 
2.474 
 
>  <lumo_energy> 
-2.89 
 
>  <melting_point> 
190.0 
 
>  <molecular_refractivity> 
56.09 
 
>  <oscillator_strength_1> 
0.0212 
 
>  <oscillator_strength_2> 
0.0 
 
>  <oscillator_strength_3> 
0.3665 
 
>  <oscillator_strength_4> 
0.001 
 
>  <open_babel_can_smiles> 
OC(=N)c1c(C)onc1c1ccc(o1)N(=O)=O 
 
>  <mulliken_charges> 
24 
1   -0.513228 
2   -0.181229 
3   -0.149443 
4   0.398782 
5   0.359457 
6   0.549938 
7   -0.038393 
8   0.205682 
9   0.434187 
10   -0.651321 
11   -0.235666 
12   0.327547 
13   -0.612893 
14   -0.39726 
15   -0.385553 
16   -0.47649 
17   -0.352855 
18   0.196224 
19   0.199952 
20   0.181967 
21   0.189351 
22   0.196895 
23   0.336868 
24   0.417482 
 
>  <lowdin_charges> 
24 
1   -0.44192 
2   -0.17161 
3   -0.145548 
4   0.123188 
5   0.098093 
6   0.071578 
7   -0.105728 
8   0.013033 
9   0.13262 
10   -0.415751 
11   -0.074116 
12   0.305184 
13   -0.378077 
14   -0.247835 
15   -0.235004 
16   -0.063861 
17   -0.043851 
18   0.186651 
19   0.186269 
20   0.175751 
21   0.194945 
22   0.199067 
23   0.272606 
24   0.364315 
 
$$$$ 
 
