PCCDB-ID:  41171 
public computational chemistry database (PCCDB) project, http://pccdb.org 
 
 20 20  0  0  1  0  0  0  0  0999 V2000 
    0.9778   -0.1039   -0.2485 C   0  0  0  0  0  0  0  0  0  0  0  0 
    3.0543   -1.1513    0.8550 C   0  0  0  0  0  0  0  0  0  0  0  0 
    2.7642   -0.9287    2.3500 C   0  0  0  0  0  0  0  0  0  0  0  0 
    4.2182    1.1329    2.8610 C   0  0  0  0  0  0  0  0  0  0  0  0 
    2.4276    0.0893    0.1922 C   0  0  2  0  0  0  0  0  0  0  0  0 
    2.8338    0.5987    2.4862 C   0  0  1  0  0  0  0  0  0  0  0  0 
    4.2718    2.5384    2.7136 O   0  0  0  0  0  0  0  0  0  0  0  0 
    2.4960    1.1321    1.1881 O   0  0  0  0  0  0  0  0  0  0  0  0 
    0.9205   -0.7947   -1.0983 H   0  0  0  0  0  0  0  0  0  0  0  0 
    0.5456    0.8546   -0.5525 H   0  0  0  0  0  0  0  0  0  0  0  0 
    0.3664   -0.5082    0.5668 H   0  0  0  0  0  0  0  0  0  0  0  0 
    2.6325   -2.0861    0.4729 H   0  0  0  0  0  0  0  0  0  0  0  0 
    4.1346   -1.1751    0.6742 H   0  0  0  0  0  0  0  0  0  0  0  0 
    3.4810   -1.4388    3.0025 H   0  0  0  0  0  0  0  0  0  0  0  0 
    1.7643   -1.2913    2.6111 H   0  0  0  0  0  0  0  0  0  0  0  0 
    4.9852    0.6336    2.2421 H   0  0  0  0  0  0  0  0  0  0  0  0 
    4.4396    0.9072    3.9107 H   0  0  0  0  0  0  0  0  0  0  0  0 
    3.0221    0.4253   -0.6665 H   0  0  0  0  0  0  0  0  0  0  0  0 
    2.1007    0.9938    3.1998 H   0  0  0  0  0  0  0  0  0  0  0  0 
    3.8545    2.7119    1.8514 H   0  0  0  0  0  0  0  0  0  0  0  0 
  1  5  1  0  0  0  0 
  1 11  1  0  0  0  0 
  2  3  1  0  0  0  0 
  3  6  1  0  0  0  0 
  3 15  1  0  0  0  0 
  3 14  1  0  0  0  0 
  4 17  1  0  0  0  0 
  5 18  1  6  0  0  0 
  5  2  1  0  0  0  0 
  5  8  1  0  0  0  0 
  6  4  1  0  0  0  0 
  6 19  1  1  0  0  0 
  7  4  1  0  0  0  0 
  8  6  1  0  0  0  0 
  9  1  1  0  0  0  0 
 10  1  1  0  0  0  0 
 12  2  1  0  0  0  0 
 13  2  1  0  0  0  0 
 16  4  1  0  0  0  0 
 20  7  1  0  0  0  0 
M  END 
>  <HBA> 
2 
 
>  <HBD> 
1 
 
>  <TPSA> 
29.46 
 
>  <cid> 
41171 
 
>  <dipole> 
3.09 
 
>  <excitation_energy_1> 
6.133 
 
>  <excitation_energy_2> 
6.487 
 
>  <excitation_energy_3> 
6.704 
 
>  <excitation_energy_4> 
6.775 
 
>  <homo_energy> 
-6.61 
 
>  <homo_lumo_gap> 
8.64 
 
>  <logP> 
0.546 
 
>  <lumo_energy> 
2.03 
 
>  <melting_point> 
5.68 
 
>  <molecular_refractivity> 
31.09 
 
>  <oscillator_strength_1> 
0.0144 
 
>  <oscillator_strength_2> 
0.0011 
 
>  <oscillator_strength_3> 
0.0188 
 
>  <oscillator_strength_4> 
0.0086 
 
>  <open_babel_can_smiles> 
C[C@@H]1CC[C@H](O1)CO 
 
>  <mulliken_charges> 
20 
1   -0.450272 
2   -0.307091 
3   -0.316381 
4   -0.023569 
5   0.161506 
6   0.131194 
7   -0.626648 
8   -0.528752 
9   0.139359 
10   0.16006 
11   0.14503 
12   0.148244 
13   0.149204 
14   0.149962 
15   0.150528 
16   0.110131 
17   0.135787 
18   0.131279 
19   0.139235 
20   0.401195 
 
>  <lowdin_charges> 
20 
1   -0.456992 
2   -0.292479 
3   -0.294254 
4   -0.148675 
5   0.005172 
6   -0.017852 
7   -0.468528 
8   -0.294682 
9   0.150992 
10   0.160149 
11   0.151023 
12   0.155024 
13   0.148069 
14   0.157037 
15   0.151012 
16   0.122883 
17   0.143306 
18   0.140094 
19   0.145656 
20   0.343043 
 
$$$$ 
 
