PCCDB-ID:  13710 
public computational chemistry database (PCCDB) project, http://pccdb.org 
 
 27 29  0  0  0  0  0  0  0  0999 V2000 
    1.2372   -0.0427   -0.0507 C   0  0  0  0  0  0  0  0  0  0  0  0 
    6.1075   -6.0620    3.8843 C   0  0  0  0  0  0  0  0  0  0  0  0 
    6.8475   -5.0746    4.5560 C   0  0  0  0  0  0  0  0  0  0  0  0 
    5.1927   -5.7217    2.8890 C   0  0  0  0  0  0  0  0  0  0  0  0 
    6.6936   -3.7206    4.2517 C   0  0  0  0  0  0  0  0  0  0  0  0 
    3.2543   -3.9546    0.6542 C   0  0  0  0  0  0  0  0  0  0  0  0 
    3.9609   -1.2377    1.1200 C   0  0  0  0  0  0  0  0  0  0  0  0 
    5.0220   -4.3704    2.5661 C   0  0  0  0  0  0  0  0  0  0  0  0 
    4.2030   -3.6231    1.6288 C   0  0  0  0  0  0  0  0  0  0  0  0 
    2.6494   -2.9351   -0.0873 C   0  0  0  0  0  0  0  0  0  0  0  0 
    5.7783   -3.4029    3.2578 C   0  0  0  0  0  0  0  0  0  0  0  0 
    4.5372   -2.2752    1.8390 C   0  0  0  0  0  0  0  0  0  0  0  0 
    3.0127   -1.5851    0.1616 C   0  0  0  0  0  0  0  0  0  0  0  0 
    1.6549   -3.1873   -1.0428 N   0  0  0  0  0  0  0  0  0  0  0  0 
    2.4246   -0.6053   -0.6204 O   0  0  0  0  0  0  0  0  0  0  0  0 
    5.4929   -2.1293    2.8250 O   0  0  0  0  0  0  0  0  0  0  0  0 
    0.8799    0.7068   -0.7610 H   0  0  0  0  0  0  0  0  0  0  0  0 
    1.4543    0.4405    0.9103 H   0  0  0  0  0  0  0  0  0  0  0  0 
    0.4667   -0.8096    0.0959 H   0  0  0  0  0  0  0  0  0  0  0  0 
    6.2522   -7.1065    4.1452 H   0  0  0  0  0  0  0  0  0  0  0  0 
    7.5541   -5.3677    5.3274 H   0  0  0  0  0  0  0  0  0  0  0  0 
    4.6239   -6.4917    2.3748 H   0  0  0  0  0  0  0  0  0  0  0  0 
    7.2574   -2.9469    4.7622 H   0  0  0  0  0  0  0  0  0  0  0  0 
    2.9840   -4.9913    0.4694 H   0  0  0  0  0  0  0  0  0  0  0  0 
    4.2336   -0.1997    1.2754 H   0  0  0  0  0  0  0  0  0  0  0  0 
    1.7041   -4.1123   -1.4533 H   0  0  0  0  0  0  0  0  0  0  0  0 
    1.6198   -2.4667   -1.7559 H   0  0  0  0  0  0  0  0  0  0  0  0 
  1 19  1  0  0  0  0 
  1 18  1  0  0  0  0 
  2 20  1  0  0  0  0 
  2  3  2  0  0  0  0 
  3 21  1  0  0  0  0 
  4  2  1  0  0  0  0 
  5  3  1  0  0  0  0 
  5 23  1  0  0  0  0 
  6  9  2  0  0  0  0 
  7 25  1  0  0  0  0 
  7 12  2  0  0  0  0 
  8  4  2  0  0  0  0 
  8 11  1  0  0  0  0 
  9 12  1  0  0  0  0 
  9  8  1  0  0  0  0 
 10 13  2  0  0  0  0 
 10  6  1  0  0  0  0 
 11  5  2  0  0  0  0 
 12 16  1  0  0  0  0 
 13  7  1  0  0  0  0 
 14 10  1  0  0  0  0 
 15  1  1  0  0  0  0 
 15 13  1  0  0  0  0 
 16 11  1  0  0  0  0 
 17  1  1  0  0  0  0 
 22  4  1  0  0  0  0 
 24  6  1  0  0  0  0 
 26 14  1  0  0  0  0 
 27 14  1  0  0  0  0 
M  END 
>  <HBA> 
3 
 
>  <HBD> 
1 
 
>  <TPSA> 
48.39 
 
>  <cid> 
13710 
 
>  <dipole> 
1.73 
 
>  <excitation_energy_1> 
3.864 
 
>  <excitation_energy_2> 
4.445 
 
>  <excitation_energy_3> 
4.709 
 
>  <excitation_energy_4> 
4.877 
 
>  <homo_energy> 
-5.241 
 
>  <homo_lumo_gap> 
4.46 
 
>  <logP> 
3.758 
 
>  <lumo_energy> 
-0.781 
 
>  <melting_point> 
148.49 
 
>  <molecular_refractivity> 
64.62 
 
>  <oscillator_strength_1> 
0.1308 
 
>  <oscillator_strength_2> 
0.1607 
 
>  <oscillator_strength_3> 
0.0064 
 
>  <oscillator_strength_4> 
0.2739 
 
>  <open_babel_can_smiles> 
COc1cc2oc3c(c2cc1N)cccc3 
 
>  <mulliken_charges> 
27 
1   -0.213305 
2   -0.145764 
3   -0.137529 
4   -0.191631 
5   -0.202815 
6   -0.265889 
7   -0.261377 
8   0.071786 
9   0.101556 
10   0.27629 
11   0.321657 
12   0.310478 
13   0.309996 
14   -0.798971 
15   -0.542783 
16   -0.558358 
17   0.159511 
18   0.147791 
19   0.161187 
20   0.127578 
21   0.130922 
22   0.131195 
23   0.144177 
24   0.126017 
25   0.149233 
26   0.317666 
27   0.33138 
 
>  <lowdin_charges> 
27 
1   -0.275914 
2   -0.168592 
3   -0.153422 
4   -0.156745 
5   -0.181147 
6   -0.197234 
7   -0.190149 
8   -0.035171 
9   -0.032104 
10   0.033651 
11   0.095984 
12   0.080358 
13   0.064973 
14   -0.496349 
15   -0.240728 
16   -0.131784 
17   0.157066 
18   0.143006 
19   0.150012 
20   0.15663 
21   0.160376 
22   0.160458 
23   0.170618 
24   0.156391 
25   0.175421 
26   0.273483 
27   0.280914 
 
$$$$ 
 
