PCCDB-ID:  11389 
public computational chemistry database (PCCDB) project, http://pccdb.org 
 
 20 21  0  0  0  0  0  0  0  0999 V2000 
    0.4892   -1.1768    0.1831 C   0  0  0  0  0  0  0  0  0  0  0  0 
   -0.9026   -1.1054    0.2042 C   0  0  0  0  0  0  0  0  0  0  0  0 
    1.3109    4.9171   -0.1506 C   0  0  0  0  0  0  0  0  0  0  0  0 
    0.6142    3.7247    0.0095 C   0  0  0  0  0  0  0  0  0  0  0  0 
    1.2244   -0.0035    0.0406 C   0  0  0  0  0  0  0  0  0  0  0  0 
    2.6386    4.8645   -0.5793 C   0  0  0  0  0  0  0  0  0  0  0  0 
   -1.4914    0.1548    0.0896 C   0  0  0  0  0  0  0  0  0  0  0  0 
    2.5925    2.5835   -0.7024 C   0  0  0  0  0  0  0  0  0  0  0  0 
    1.2620    2.5098   -0.2590 C   0  0  0  0  0  0  0  0  0  0  0  0 
    0.5451    1.2195   -0.0905 C   0  0  0  0  0  0  0  0  0  0  0  0 
    3.2757    3.7213   -0.8604 N   0  0  0  0  0  0  0  0  0  0  0  0 
   -0.8000    1.2870   -0.0555 N   0  0  0  0  0  0  0  0  0  0  0  0 
    0.9982   -2.1316    0.2846 H   0  0  0  0  0  0  0  0  0  0  0  0 
   -1.5162   -1.9944    0.3128 H   0  0  0  0  0  0  0  0  0  0  0  0 
    0.8373    5.8731    0.0532 H   0  0  0  0  0  0  0  0  0  0  0  0 
   -0.4203    3.7084    0.3350 H   0  0  0  0  0  0  0  0  0  0  0  0 
    2.3084   -0.0361    0.0515 H   0  0  0  0  0  0  0  0  0  0  0  0 
    3.2165    5.7784   -0.7073 H   0  0  0  0  0  0  0  0  0  0  0  0 
   -2.5752    0.2602    0.1134 H   0  0  0  0  0  0  0  0  0  0  0  0 
    3.1348    1.6780   -0.9684 H   0  0  0  0  0  0  0  0  0  0  0  0 
  1  2  1  0  0  0  0 
  1 13  1  0  0  0  0 
  2 14  1  0  0  0  0 
  3  4  1  0  0  0  0 
  3 15  1  0  0  0  0 
  4 16  1  0  0  0  0 
  5 17  1  0  0  0  0 
  5  1  2  0  0  0  0 
  6  3  2  0  0  0  0 
  7 19  1  0  0  0  0 
  7  2  2  0  0  0  0 
  8  9  1  0  0  0  0 
  9 10  1  0  0  0  0 
  9  4  2  0  0  0  0 
 10 12  2  0  0  0  0 
 10  5  1  0  0  0  0 
 11  8  2  0  0  0  0 
 11  6  1  0  0  0  0 
 12  7  1  0  0  0  0 
 18  6  1  0  0  0  0 
 20  8  1  0  0  0  0 
M  END 
>  <HBA> 
2 
 
>  <HBD> 
0 
 
>  <TPSA> 
25.78 
 
>  <cid> 
11389 
 
>  <dipole> 
2.38 
 
>  <excitation_energy_1> 
4.459 
 
>  <excitation_energy_2> 
4.537 
 
>  <excitation_energy_3> 
4.616 
 
>  <excitation_energy_4> 
4.898 
 
>  <homo_energy> 
-6.474 
 
>  <homo_lumo_gap> 
5.127 
 
>  <logP> 
2.144 
 
>  <lumo_energy> 
-1.347 
 
>  <melting_point> 
71.6 
 
>  <molecular_refractivity> 
47.47 
 
>  <oscillator_strength_1> 
0.0193 
 
>  <oscillator_strength_2> 
0.0162 
 
>  <oscillator_strength_3> 
0.3066 
 
>  <oscillator_strength_4> 
0.0848 
 
>  <open_babel_can_smiles> 
c1ccc(nc1)c1cccnc1 
 
>  <mulliken_charges> 
20 
1   -0.10388 
2   -0.143613 
3   -0.143764 
4   -0.12654 
5   -0.162487 
6   0.041647 
7   0.046399 
8   -0.009472 
9   0.089993 
10   0.242492 
11   -0.416791 
12   -0.481824 
13   0.146715 
14   0.141477 
15   0.138956 
16   0.168584 
17   0.147043 
18   0.142576 
19   0.143147 
20   0.139341 
 
>  <lowdin_charges> 
20 
1   -0.124668 
2   -0.177574 
3   -0.174565 
4   -0.115064 
5   -0.172119 
6   -0.08702 
7   -0.080529 
8   -0.094321 
9   -0.030456 
10   0.053041 
11   -0.14893 
12   -0.155003 
13   0.165384 
14   0.166739 
15   0.16484 
16   0.176781 
17   0.165057 
18   0.157506 
19   0.155363 
20   0.155539 
 
$$$$ 
 
