PCCDB-ID:  34554 
public computational chemistry database (PCCDB) project, http://pccdb.org 
 
 36 37  0  0  0  0  0  0  0  0999 V2000 
    1.4831    0.5092   -0.7027 C   0  0  0  0  0  0  0  0  0  0  0  0 
   -0.0974   -3.9630    1.2649 C   0  0  0  0  0  0  0  0  0  0  0  0 
    5.2352   -1.8301   -1.0796 C   0  0  0  0  0  0  0  0  0  0  0  0 
    0.9796   -3.9316   -3.0396 C   0  0  0  0  0  0  0  0  0  0  0  0 
   -0.8233   -0.3447    2.1942 C   0  0  0  0  0  0  0  0  0  0  0  0 
    4.6588   -4.3034   -3.9142 C   0  0  0  0  0  0  0  0  0  0  0  0 
   -0.0689    0.3468    1.2495 C   0  0  0  0  0  0  0  0  0  0  0  0 
   -0.8261   -1.7383    2.1940 C   0  0  0  0  0  0  0  0  0  0  0  0 
    5.2867   -3.4617   -2.9979 C   0  0  0  0  0  0  0  0  0  0  0  0 
    3.2721   -4.4322   -3.8995 C   0  0  0  0  0  0  0  0  0  0  0  0 
    0.7176   -0.3196    0.3028 C   0  0  0  0  0  0  0  0  0  0  0  0 
   -0.0804   -2.4522    1.2555 C   0  0  0  0  0  0  0  0  0  0  0  0 
    4.5409   -2.7439   -2.0624 C   0  0  0  0  0  0  0  0  0  0  0  0 
    2.4789   -3.7557   -2.9657 C   0  0  0  0  0  0  0  0  0  0  0  0 
    0.7121   -1.7386    0.3216 C   0  0  0  0  0  0  0  0  0  0  0  0 
    3.1336   -2.9112   -2.0319 C   0  0  0  0  0  0  0  0  0  0  0  0 
    1.3987   -2.5675   -0.6004 N   0  0  0  0  0  0  0  0  0  0  0  0 
    2.4813   -2.1110   -1.0610 N   0  0  0  0  0  0  0  0  0  0  0  0 
    1.0821    1.5285   -0.7263 H   0  0  0  0  0  0  0  0  0  0  0  0 
    1.4259    0.0900   -1.7119 H   0  0  0  0  0  0  0  0  0  0  0  0 
    2.5476    0.5659   -0.4560 H   0  0  0  0  0  0  0  0  0  0  0  0 
   -0.8586   -4.3335    1.9586 H   0  0  0  0  0  0  0  0  0  0  0  0 
    0.8699   -4.3761    1.5750 H   0  0  0  0  0  0  0  0  0  0  0  0 
   -0.3026   -4.3669    0.2691 H   0  0  0  0  0  0  0  0  0  0  0  0 
    6.2967   -1.7348   -1.3291 H   0  0  0  0  0  0  0  0  0  0  0  0 
    5.1631   -2.2097   -0.0535 H   0  0  0  0  0  0  0  0  0  0  0  0 
    4.7848   -0.8330   -1.0743 H   0  0  0  0  0  0  0  0  0  0  0  0 
    0.7020   -4.3486   -4.0139 H   0  0  0  0  0  0  0  0  0  0  0  0 
    0.4461   -2.9861   -2.9017 H   0  0  0  0  0  0  0  0  0  0  0  0 
    0.6106   -4.6063   -2.2611 H   0  0  0  0  0  0  0  0  0  0  0  0 
   -1.4195    0.2026    2.9196 H   0  0  0  0  0  0  0  0  0  0  0  0 
    5.2471   -4.8467   -4.6490 H   0  0  0  0  0  0  0  0  0  0  0  0 
   -0.0876    1.4341    1.2386 H   0  0  0  0  0  0  0  0  0  0  0  0 
   -1.4214   -2.2822    2.9231 H   0  0  0  0  0  0  0  0  0  0  0  0 
    6.3679   -3.3500   -3.0128 H   0  0  0  0  0  0  0  0  0  0  0  0 
    2.7841   -5.0719   -4.6310 H   0  0  0  0  0  0  0  0  0  0  0  0 
  1 21  1  0  0  0  0 
  1 11  1  0  0  0  0 
  2 23  1  0  0  0  0 
  2 22  1  0  0  0  0 
  3 27  1  0  0  0  0 
  3 26  1  0  0  0  0 
  4 14  1  0  0  0  0 
  4 29  1  0  0  0  0 
  4 30  1  0  0  0  0 
  5 31  1  0  0  0  0 
  6 10  2  0  0  0  0 
  6  9  1  0  0  0  0 
  7  5  2  0  0  0  0 
  8  5  1  0  0  0  0 
  8 34  1  0  0  0  0 
  9 13  2  0  0  0  0 
 10 14  1  0  0  0  0 
 11 15  2  0  0  0  0 
 11  7  1  0  0  0  0 
 12  2  1  0  0  0  0 
 12  8  2  0  0  0  0 
 13 16  1  0  0  0  0 
 13  3  1  0  0  0  0 
 14 16  2  0  0  0  0 
 15 12  1  0  0  0  0 
 16 18  1  0  0  0  0 
 17 15  1  0  0  0  0 
 18 17  2  0  0  0  0 
 19  1  1  0  0  0  0 
 20  1  1  0  0  0  0 
 24  2  1  0  0  0  0 
 25  3  1  0  0  0  0 
 28  4  1  0  0  0  0 
 32  6  1  0  0  0  0 
 33  7  1  0  0  0  0 
 35  9  1  0  0  0  0 
 36 10  1  0  0  0  0 
M  END 
>  <HBA> 
2 
 
>  <HBD> 
0 
 
>  <TPSA> 
24.72 
 
>  <cid> 
34554 
 
>  <dipole> 
0.06 
 
>  <excitation_energy_1> 
2.454 
 
>  <excitation_energy_2> 
3.773 
 
>  <excitation_energy_3> 
3.773 
 
>  <excitation_energy_4> 
3.808 
 
>  <homo_energy> 
-5.578 
 
>  <homo_lumo_gap> 
3.655 
 
>  <logP> 
5.336 
 
>  <lumo_energy> 
-1.924 
 
>  <melting_point> 
80.17 
 
>  <molecular_refractivity> 
76.92 
 
>  <oscillator_strength_1> 
0.0407 
 
>  <oscillator_strength_2> 
0.1805 
 
>  <oscillator_strength_3> 
0.3678 
 
>  <oscillator_strength_4> 
0.043 
 
>  <open_babel_can_smiles> 
Cc1cccc(c1/N=N/c1c(C)cccc1C)C 
 
>  <mulliken_charges> 
36 
1   -0.509113 
2   -0.517749 
3   -0.517372 
4   -0.509216 
5   -0.106491 
6   -0.106518 
7   -0.206858 
8   -0.203022 
9   -0.203165 
10   -0.206808 
11   0.190181 
12   0.157722 
13   0.157815 
14   0.190426 
15   0.164963 
16   0.164682 
17   -0.317563 
18   -0.317274 
19   0.142351 
20   0.161791 
21   0.177166 
22   0.145412 
23   0.166334 
24   0.175831 
25   0.14535 
26   0.166414 
27   0.175389 
28   0.142347 
29   0.161792 
30   0.177147 
31   0.13028 
32   0.130272 
33   0.124564 
34   0.124178 
35   0.124198 
36   0.124544 
 
>  <lowdin_charges> 
36 
1   -0.437821 
2   -0.442046 
3   -0.438718 
4   -0.44129 
5   -0.147603 
6   -0.147726 
7   -0.170245 
8   -0.1754 
9   -0.172492 
10   -0.172975 
11   0.010049 
12   0.009436 
13   0.010202 
14   0.00934 
15   -0.005327 
16   -0.005335 
17   -0.072876 
18   -0.072844 
19   0.148294 
20   0.162385 
21   0.166103 
22   0.153076 
23   0.16403 
24   0.167379 
25   0.150529 
26   0.163217 
27   0.167031 
28   0.148946 
29   0.163125 
30   0.168521 
31   0.160159 
32   0.160168 
33   0.153203 
34   0.157156 
35   0.15385 
36   0.156497 
 
$$$$ 
 
