PCCDB-ID:  47793 
public computational chemistry database (PCCDB) project, http://pccdb.org 
 
 20 19  0  0  0  0  0  0  0  0999 V2000 
    3.2511    1.0832   -0.6470 C   0  0  0  0  0  0  0  0  0  0  0  0 
   -0.4968   -2.2090    0.4243 C   0  0  0  0  0  0  0  0  0  0  0  0 
    3.8090    1.1591    0.7765 C   0  0  0  0  0  0  0  0  0  0  0  0 
    2.1563   -0.2497    2.0961 C   0  0  0  0  0  0  0  0  0  0  0  0 
    0.1708   -1.3778    1.4928 C   0  0  0  0  0  0  0  0  0  0  0  0 
    4.4877   -0.8859    1.8097 N   0  0  0  0  0  0  0  0  0  0  0  0 
    3.4772   -0.0026    1.5985 N   0  0  0  0  0  0  0  0  0  0  0  0 
   -0.3037   -1.0857    2.5678 O   0  0  0  0  0  0  0  0  0  0  0  0 
    4.1794   -1.8907    2.4295 O   0  0  0  0  0  0  0  0  0  0  0  0 
    1.4123   -0.9904    1.1011 O   0  0  0  0  0  0  0  0  0  0  0  0 
    3.5455    1.9770   -1.2083 H   0  0  0  0  0  0  0  0  0  0  0  0 
    2.1588    1.0212   -0.6482 H   0  0  0  0  0  0  0  0  0  0  0  0 
    3.6423    0.2026   -1.1661 H   0  0  0  0  0  0  0  0  0  0  0  0 
   -1.5308   -2.4036    0.7111 H   0  0  0  0  0  0  0  0  0  0  0  0 
    0.0373   -3.1586    0.3104 H   0  0  0  0  0  0  0  0  0  0  0  0 
   -0.4623   -1.6951   -0.5411 H   0  0  0  0  0  0  0  0  0  0  0  0 
    3.4419    2.0573    1.2884 H   0  0  0  0  0  0  0  0  0  0  0  0 
    4.9014    1.2055    0.7624 H   0  0  0  0  0  0  0  0  0  0  0  0 
    1.6535    0.6996    2.2934 H   0  0  0  0  0  0  0  0  0  0  0  0 
    2.2251   -0.8410    3.0090 H   0  0  0  0  0  0  0  0  0  0  0  0 
  1  3  1  0  0  0  0 
  2 14  1  0  0  0  0 
  2  5  1  0  0  0  0 
  3 17  1  0  0  0  0 
  3  7  1  0  0  0  0 
  4 19  1  0  0  0  0 
  4 20  1  0  0  0  0 
  5  8  2  0  0  0  0 
  6  9  2  0  0  0  0 
  7  6  1  0  0  0  0 
  7  4  1  0  0  0  0 
 10  5  1  0  0  0  0 
 10  4  1  0  0  0  0 
 11  1  1  0  0  0  0 
 12  1  1  0  0  0  0 
 13  1  1  0  0  0  0 
 15  2  1  0  0  0  0 
 16  2  1  0  0  0  0 
 18  3  1  0  0  0  0 
M  END 
>  <HBA> 
5 
 
>  <HBD> 
0 
 
>  <TPSA> 
58.97 
 
>  <cid> 
47793 
 
>  <dipole> 
3.81 
 
>  <excitation_energy_1> 
3.253 
 
>  <excitation_energy_2> 
5.466 
 
>  <excitation_energy_3> 
5.75 
 
>  <excitation_energy_4> 
5.811 
 
>  <homo_energy> 
-6.441 
 
>  <homo_lumo_gap> 
5.127 
 
>  <logP> 
0.51 
 
>  <lumo_energy> 
-1.314 
 
>  <melting_point> 
8.23 
 
>  <molecular_refractivity> 
35.07 
 
>  <oscillator_strength_1> 
0.0013 
 
>  <oscillator_strength_2> 
0.0818 
 
>  <oscillator_strength_3> 
0.0054 
 
>  <oscillator_strength_4> 
0.0001 
 
>  <open_babel_can_smiles> 
CCN(COC(=O)C)N=O 
 
>  <mulliken_charges> 
20 
1   -0.441114 
2   -0.524749 
3   -0.142928 
4   0.087317 
5   0.609625 
6   0.168947 
7   -0.24248 
8   -0.464244 
9   -0.355211 
10   -0.452143 
11   0.153423 
12   0.161622 
13   0.168081 
14   0.186289 
15   0.192707 
16   0.18053 
17   0.156264 
18   0.181819 
19   0.171679 
20   0.204565 
 
>  <lowdin_charges> 
20 
1   -0.451102 
2   -0.462626 
3   -0.195378 
4   -0.080522 
5   0.204695 
6   0.064761 
7   -0.048937 
8   -0.258052 
9   -0.242158 
10   -0.20534 
11   0.158651 
12   0.1556 
13   0.162688 
14   0.177147 
15   0.183922 
16   0.176721 
17   0.15139 
18   0.166488 
19   0.162358 
20   0.179694 
 
$$$$ 
 
