PCCDB-ID:  16620 
public computational chemistry database (PCCDB) project, http://pccdb.org 
 
 19 19  0  0  0  0  0  0  0  0999 V2000 
    0.9670    0.1108   -0.0464 C   0  0  0  0  0  0  0  0  0  0  0  0 
    5.9490    1.4897   -0.0154 C   0  0  0  0  0  0  0  0  0  0  0  0 
    2.9225   -2.5120   -0.0376 C   0  0  0  0  0  0  0  0  0  0  0  0 
    3.3455    1.2014   -0.0316 C   0  0  0  0  0  0  0  0  0  0  0  0 
    2.4714    0.0704   -0.0391 C   0  0  0  0  0  0  0  0  0  0  0  0 
    4.6488    0.7513   -0.0242 C   0  0  0  0  0  0  0  0  0  0  0  0 
    3.2727   -1.0580   -0.0360 C   0  0  0  0  0  0  0  0  0  0  0  0 
    4.5865   -0.6266   -0.0256 N   0  0  0  0  0  0  0  0  0  0  0  0 
    0.6119    1.1466   -0.0386 H   0  0  0  0  0  0  0  0  0  0  0  0 
    0.5297   -0.3866    0.8294 H   0  0  0  0  0  0  0  0  0  0  0  0 
    0.5386   -0.3699   -0.9360 H   0  0  0  0  0  0  0  0  0  0  0  0 
    5.7629    2.5675    0.0034 H   0  0  0  0  0  0  0  0  0  0  0  0 
    6.5583    1.2776   -0.9054 H   0  0  0  0  0  0  0  0  0  0  0  0 
    6.5625    1.2471    0.8638 H   0  0  0  0  0  0  0  0  0  0  0  0 
    1.8357   -2.6349   -0.0393 H   0  0  0  0  0  0  0  0  0  0  0  0 
    3.3085   -3.0378    0.8475 H   0  0  0  0  0  0  0  0  0  0  0  0 
    3.3109   -3.0371   -0.9221 H   0  0  0  0  0  0  0  0  0  0  0  0 
    3.0411    2.2409   -0.0279 H   0  0  0  0  0  0  0  0  0  0  0  0 
    5.3895   -1.2379   -0.0300 H   0  0  0  0  0  0  0  0  0  0  0  0 
  1  5  1  0  0  0  0 
  1  9  1  0  0  0  0 
  1 10  1  0  0  0  0 
  2 12  1  0  0  0  0 
  2 14  1  0  0  0  0 
  3  7  1  0  0  0  0 
  3 16  1  0  0  0  0 
  4 18  1  0  0  0  0 
  4  6  2  0  0  0  0 
  5  7  2  0  0  0  0 
  5  4  1  0  0  0  0 
  6  2  1  0  0  0  0 
  7  8  1  0  0  0  0 
  8  6  1  0  0  0  0 
 11  1  1  0  0  0  0 
 13  2  1  0  0  0  0 
 15  3  1  0  0  0  0 
 17  3  1  0  0  0  0 
 19  8  1  0  0  0  0 
M  END 
>  <HBA> 
0 
 
>  <HBD> 
1 
 
>  <TPSA> 
15.79 
 
>  <cid> 
16620 
 
>  <dipole> 
1.78 
 
>  <excitation_energy_1> 
4.319 
 
>  <excitation_energy_2> 
4.848 
 
>  <excitation_energy_3> 
5.065 
 
>  <excitation_energy_4> 
5.414 
 
>  <homo_energy> 
-4.871 
 
>  <homo_lumo_gap> 
6.177 
 
>  <logP> 
1.94 
 
>  <lumo_energy> 
1.306 
 
>  <melting_point> 
64.1 
 
>  <molecular_refractivity> 
35.69 
 
>  <oscillator_strength_1> 
0.0005 
 
>  <oscillator_strength_2> 
0.0021 
 
>  <oscillator_strength_3> 
0.0004 
 
>  <oscillator_strength_4> 
0.0 
 
>  <open_babel_can_smiles> 
Cc1[nH]c(c(c1)C)C 
 
>  <mulliken_charges> 
19 
1   -0.53234 
2   -0.531912 
3   -0.534279 
4   -0.257617 
5   0.081774 
6   0.338011 
7   0.288457 
8   -0.660924 
9   0.150138 
10   0.148783 
11   0.148884 
12   0.166886 
13   0.152585 
14   0.152226 
15   0.166004 
16   0.152308 
17   0.152127 
18   0.105529 
19   0.313359 
 
>  <lowdin_charges> 
19 
1   -0.440665 
2   -0.443046 
3   -0.4453 
4   -0.238635 
5   -0.063501 
6   0.00182 
7   -0.012469 
8   -0.196628 
9   0.155325 
10   0.152262 
11   0.152182 
12   0.165574 
13   0.153703 
14   0.153774 
15   0.165411 
16   0.153839 
17   0.153703 
18   0.15029 
19   0.282364 
 
$$$$ 
 
