PCCDB-ID:  11565 
public computational chemistry database (PCCDB) project, http://pccdb.org 
 
 17 17  0  0  0  0  0  0  0  0999 V2000 
    0.8928    0.0467   -0.0184 C   0  0  0  0  0  0  0  0  0  0  0  0 
    5.3223    2.5543   -0.0283 C   0  0  0  0  0  0  0  0  0  0  0  0 
    3.1182    1.2816   -0.0225 C   0  0  0  0  0  0  0  0  0  0  0  0 
    3.1538   -1.1006   -0.0316 C   0  0  0  0  0  0  0  0  0  0  0  0 
    5.1424    0.0253   -0.0365 C   0  0  0  0  0  0  0  0  0  0  0  0 
    2.4022    0.0813   -0.0240 C   0  0  0  0  0  0  0  0  0  0  0  0 
    4.5158    1.2780   -0.0295 C   0  0  0  0  0  0  0  0  0  0  0  0 
    4.4901   -1.1416   -0.0371 N   0  0  0  0  0  0  0  0  0  0  0  0 
    0.4719    1.0570   -0.0261 H   0  0  0  0  0  0  0  0  0  0  0  0 
    0.5068   -0.4688    0.8695 H   0  0  0  0  0  0  0  0  0  0  0  0 
    0.5009   -0.4849   -0.8941 H   0  0  0  0  0  0  0  0  0  0  0  0 
    4.6729    3.4351   -0.0483 H   0  0  0  0  0  0  0  0  0  0  0  0 
    5.9868    2.6093   -0.8991 H   0  0  0  0  0  0  0  0  0  0  0  0 
    5.9559    2.6274    0.8642 H   0  0  0  0  0  0  0  0  0  0  0  0 
    2.5815    2.2291   -0.0161 H   0  0  0  0  0  0  0  0  0  0  0  0 
    2.6474   -2.0663   -0.0328 H   0  0  0  0  0  0  0  0  0  0  0  0 
    6.2310   -0.0375   -0.0424 H   0  0  0  0  0  0  0  0  0  0  0  0 
  1 10  1  0  0  0  0 
  2 14  1  0  0  0  0 
  3 15  1  0  0  0  0 
  4  6  2  0  0  0  0 
  5  7  1  0  0  0  0 
  6  3  1  0  0  0  0 
  6  1  1  0  0  0  0 
  7  2  1  0  0  0  0 
  7  3  2  0  0  0  0 
  8  5  2  0  0  0  0 
  8  4  1  0  0  0  0 
  9  1  1  0  0  0  0 
 11  1  1  0  0  0  0 
 12  2  1  0  0  0  0 
 13  2  1  0  0  0  0 
 16  4  1  0  0  0  0 
 17  5  1  0  0  0  0 
M  END 
>  <HBA> 
1 
 
>  <HBD> 
0 
 
>  <TPSA> 
12.89 
 
>  <cid> 
11565 
 
>  <dipole> 
2.44 
 
>  <excitation_energy_1> 
4.904 
 
>  <excitation_energy_2> 
5.107 
 
>  <excitation_energy_3> 
5.277 
 
>  <excitation_energy_4> 
5.891 
 
>  <homo_energy> 
-6.569 
 
>  <homo_lumo_gap> 
6.226 
 
>  <logP> 
1.698 
 
>  <lumo_energy> 
-0.343 
 
>  <melting_point> 
27.5 
 
>  <molecular_refractivity> 
34.17 
 
>  <oscillator_strength_1> 
0.0045 
 
>  <oscillator_strength_2> 
0.0 
 
>  <oscillator_strength_3> 
0.0395 
 
>  <oscillator_strength_4> 
0.0638 
 
>  <open_babel_can_smiles> 
Cc1cncc(c1)C 
 
>  <mulliken_charges> 
17 
1   -0.534941 
2   -0.534984 
3   -0.204491 
4   -0.010284 
5   -0.010352 
6   0.165402 
7   0.165583 
8   -0.410182 
9   0.156667 
10   0.16784 
11   0.167676 
12   0.156635 
13   0.167553 
14   0.167982 
15   0.126076 
16   0.131911 
17   0.131909 
 
>  <lowdin_charges> 
17 
1   -0.442292 
2   -0.442238 
3   -0.155901 
4   -0.107876 
5   -0.104394 
6   -0.015429 
7   -0.016747 
8   -0.144287 
9   0.157298 
10   0.164503 
11   0.164546 
12   0.158236 
13   0.164212 
14   0.164259 
15   0.154955 
16   0.151895 
17   0.149261 
 
$$$$ 
 
