PCCDB-ID:  8650 
public computational chemistry database (PCCDB) project, http://pccdb.org 
 
 27 27  0  0  1  0  0  0  0  0999 V2000 
    0.9704   -0.0060    0.0314 C   0  0  0  0  0  0  0  0  0  0  0  0 
    4.2649   -0.1220    1.7631 C   0  0  0  0  0  0  0  0  0  0  0  0 
    7.3057    1.0866   -1.5922 C   0  0  0  0  0  0  0  0  0  0  0  0 
    6.6232   -0.0550   -2.0211 C   0  0  0  0  0  0  0  0  0  0  0  0 
    6.5897    2.1592   -1.0589 C   0  0  0  0  0  0  0  0  0  0  0  0 
    5.2354   -0.1271   -1.9072 C   0  0  0  0  0  0  0  0  0  0  0  0 
    5.1994    2.0863   -0.9517 C   0  0  0  0  0  0  0  0  0  0  0  0 
    2.5049    0.0109   -0.0093 C   0  0  1  0  0  0  0  0  0  0  0  0 
    4.5077    0.9399   -1.3605 C   0  0  0  0  0  0  0  0  0  0  0  0 
    2.9982    0.8485   -1.2232 C   0  0  1  0  0  0  0  0  0  0  0  0 
    3.0192    0.4684    1.2845 N   0  0  0  0  0  0  0  0  0  0  0  0 
    2.4119    0.2516   -2.3839 O   0  0  0  0  0  0  0  0  0  0  0  0 
    0.5493   -0.3757   -0.9069 H   0  0  0  0  0  0  0  0  0  0  0  0 
    0.5825    1.0062    0.2070 H   0  0  0  0  0  0  0  0  0  0  0  0 
    0.6340   -0.6373    0.8591 H   0  0  0  0  0  0  0  0  0  0  0  0 
    4.4891    0.2900    2.7537 H   0  0  0  0  0  0  0  0  0  0  0  0 
    5.1465    0.0316    1.1217 H   0  0  0  0  0  0  0  0  0  0  0  0 
    4.1225   -1.2024    1.8854 H   0  0  0  0  0  0  0  0  0  0  0  0 
    8.3874    1.1418   -1.6806 H   0  0  0  0  0  0  0  0  0  0  0  0 
    7.1745   -0.8905   -2.4451 H   0  0  0  0  0  0  0  0  0  0  0  0 
    7.1111    3.0561   -0.7347 H   0  0  0  0  0  0  0  0  0  0  0  0 
    4.7009   -1.0090   -2.2489 H   0  0  0  0  0  0  0  0  0  0  0  0 
    4.6447    2.9310   -0.5477 H   0  0  0  0  0  0  0  0  0  0  0  0 
    2.8643   -1.0152   -0.1597 H   0  0  0  0  0  0  0  0  0  0  0  0 
    2.6021    1.8716   -1.0868 H   0  0  0  0  0  0  0  0  0  0  0  0 
    3.0639    1.4841    1.3174 H   0  0  0  0  0  0  0  0  0  0  0  0 
    2.7579    0.7227   -3.1585 H   0  0  0  0  0  0  0  0  0  0  0  0 
  1 14  1  0  0  0  0 
  1 15  1  0  0  0  0 
  2 18  1  0  0  0  0 
  2 16  1  0  0  0  0 
  3  5  2  0  0  0  0 
  4  6  2  0  0  0  0 
  4  3  1  0  0  0  0 
  5  7  1  0  0  0  0 
  5 21  1  0  0  0  0 
  6  9  1  0  0  0  0 
  7 23  1  0  0  0  0 
  8 24  1  6  0  0  0 
  8  1  1  0  0  0  0 
  8 11  1  0  0  0  0 
  9 10  1  0  0  0  0 
  9  7  2  0  0  0  0 
 10 25  1  1  0  0  0 
 10  8  1  0  0  0  0 
 11 26  1  0  0  0  0 
 11  2  1  0  0  0  0 
 12 10  1  0  0  0  0 
 13  1  1  0  0  0  0 
 17  2  1  0  0  0  0 
 19  3  1  0  0  0  0 
 20  4  1  0  0  0  0 
 22  6  1  0  0  0  0 
 27 12  1  0  0  0  0 
M  END 
>  <HBA> 
2 
 
>  <HBD> 
2 
 
>  <TPSA> 
32.26 
 
>  <cid> 
8650 
 
>  <dipole> 
2.36 
 
>  <excitation_energy_1> 
4.518 
 
>  <excitation_energy_2> 
4.632 
 
>  <excitation_energy_3> 
5.107 
 
>  <excitation_energy_4> 
5.289 
 
>  <homo_energy> 
-5.578 
 
>  <homo_lumo_gap> 
5.366 
 
>  <logP> 
1.719 
 
>  <lumo_energy> 
-0.212 
 
>  <melting_point> 
50.96 
 
>  <molecular_refractivity> 
49.79 
 
>  <oscillator_strength_1> 
0.0072 
 
>  <oscillator_strength_2> 
0.0103 
 
>  <oscillator_strength_3> 
0.0016 
 
>  <oscillator_strength_4> 
0.0008 
 
>  <open_babel_can_smiles> 
CN[C@H]([C@@H](c1ccccc1)O)C 
 
>  <mulliken_charges> 
27 
1   -0.42656 
2   -0.30492 
3   -0.128934 
4   -0.129297 
5   -0.129161 
6   -0.179249 
7   -0.190586 
8   0.036187 
9   0.127209 
10   0.061052 
11   -0.551165 
12   -0.629373 
13   0.16171 
14   0.126289 
15   0.147801 
16   0.141314 
17   0.143706 
18   0.147584 
19   0.131193 
20   0.132199 
21   0.131055 
22   0.143648 
23   0.121519 
24   0.134712 
25   0.104934 
26   0.286559 
27   0.390573 
 
>  <lowdin_charges> 
27 
1   -0.449102 
2   -0.359932 
3   -0.155458 
4   -0.155362 
5   -0.156379 
6   -0.164187 
7   -0.17178 
8   -0.062646 
9   -0.027235 
10   -0.012609 
11   -0.358199 
12   -0.459944 
13   0.159237 
14   0.141331 
15   0.155475 
16   0.146798 
17   0.133936 
18   0.143927 
19   0.156435 
20   0.159526 
21   0.158778 
22   0.164998 
23   0.153398 
24   0.144425 
25   0.122621 
26   0.246755 
27   0.345195 
 
$$$$ 
 
