PCCDB-ID:  23326 
public computational chemistry database (PCCDB) project, http://pccdb.org 
 
 29 31  0  0  0  0  0  0  0  0999 V2000 
    1.3316   -0.1536    0.0664 C   0  0  0  0  0  0  0  0  0  0  0  0 
    6.9206   -0.6399   -4.8265 C   0  0  0  0  0  0  0  0  0  0  0  0 
    6.8993    0.7167   -5.1662 C   0  0  0  0  0  0  0  0  0  0  0  0 
    6.1656   -1.1117   -3.7455 C   0  0  0  0  0  0  0  0  0  0  0  0 
    6.1270    1.6233   -4.4361 C   0  0  0  0  0  0  0  0  0  0  0  0 
    4.1298    3.2028   -2.3126 C   0  0  0  0  0  0  0  0  0  0  0  0 
    3.2665    3.6017   -1.2928 C   0  0  0  0  0  0  0  0  0  0  0  0 
    4.4996   -0.4670   -1.8173 C   0  0  0  0  0  0  0  0  0  0  0  0 
    5.3958   -0.2148   -3.0153 C   0  0  0  0  0  0  0  0  0  0  0  0 
    5.3727    1.1550   -3.3577 C   0  0  0  0  0  0  0  0  0  0  0  0 
    4.4838    1.8575   -2.4244 C   0  0  0  0  0  0  0  0  0  0  0  0 
    3.9565    0.9138   -1.5171 C   0  0  0  0  0  0  0  0  0  0  0  0 
    2.7399    2.6729   -0.3790 C   0  0  0  0  0  0  0  0  0  0  0  0 
    3.0926    1.3109   -0.5102 C   0  0  0  0  0  0  0  0  0  0  0  0 
    1.8449    3.0426    0.6297 N   0  0  0  0  0  0  0  0  0  0  0  0 
    2.6019    0.4048    0.4203 O   0  0  0  0  0  0  0  0  0  0  0  0 
    1.0594   -0.8382    0.8738 H   0  0  0  0  0  0  0  0  0  0  0  0 
    1.3939   -0.7117   -0.8763 H   0  0  0  0  0  0  0  0  0  0  0  0 
    0.5669    0.6270   -0.0277 H   0  0  0  0  0  0  0  0  0  0  0  0 
    7.5266   -1.3324   -5.4045 H   0  0  0  0  0  0  0  0  0  0  0  0 
    7.4897    1.0700   -6.0078 H   0  0  0  0  0  0  0  0  0  0  0  0 
    6.1854   -2.1676   -3.4847 H   0  0  0  0  0  0  0  0  0  0  0  0 
    6.1161    2.6760   -4.7078 H   0  0  0  0  0  0  0  0  0  0  0  0 
    4.5263    3.9438   -3.0017 H   0  0  0  0  0  0  0  0  0  0  0  0 
    2.9898    4.6492   -1.1948 H   0  0  0  0  0  0  0  0  0  0  0  0 
    5.0504   -0.8799   -0.9612 H   0  0  0  0  0  0  0  0  0  0  0  0 
    3.7034   -1.1898   -2.0429 H   0  0  0  0  0  0  0  0  0  0  0  0 
    1.9193    4.0105    0.9193 H   0  0  0  0  0  0  0  0  0  0  0  0 
    1.8727    2.4108    1.4228 H   0  0  0  0  0  0  0  0  0  0  0  0 
  1 16  1  0  0  0  0 
  1 17  1  0  0  0  0 
  2  4  1  0  0  0  0 
  3  2  2  0  0  0  0 
  3  5  1  0  0  0  0 
  4 22  1  0  0  0  0 
  4  9  2  0  0  0  0 
  5 10  2  0  0  0  0 
  6  7  1  0  0  0  0 
  7 25  1  0  0  0  0 
  7 13  2  0  0  0  0 
  8 12  1  0  0  0  0 
  8 26  1  0  0  0  0 
  9  8  1  0  0  0  0 
 10  9  1  0  0  0  0 
 10 11  1  0  0  0  0 
 11  6  2  0  0  0  0 
 11 12  1  0  0  0  0 
 12 14  2  0  0  0  0 
 13 15  1  0  0  0  0 
 14 13  1  0  0  0  0 
 14 16  1  0  0  0  0 
 15 28  1  0  0  0  0 
 15 29  1  0  0  0  0 
 18  1  1  0  0  0  0 
 19  1  1  0  0  0  0 
 20  2  1  0  0  0  0 
 21  3  1  0  0  0  0 
 23  5  1  0  0  0  0 
 24  6  1  0  0  0  0 
 27  8  1  0  0  0  0 
M  END 
>  <HBA> 
2 
 
>  <HBD> 
1 
 
>  <TPSA> 
35.25 
 
>  <cid> 
23326 
 
>  <dipole> 
1.71 
 
>  <excitation_energy_1> 
4.118 
 
>  <excitation_energy_2> 
4.28 
 
>  <excitation_energy_3> 
4.555 
 
>  <excitation_energy_4> 
4.677 
 
>  <homo_energy> 
-5.031 
 
>  <homo_lumo_gap> 
4.634 
 
>  <logP> 
3.43 
 
>  <lumo_energy> 
-0.397 
 
>  <melting_point> 
129.78 
 
>  <molecular_refractivity> 
65.79 
 
>  <oscillator_strength_1> 
0.0533 
 
>  <oscillator_strength_2> 
0.4788 
 
>  <oscillator_strength_3> 
0.0041 
 
>  <oscillator_strength_4> 
0.0059 
 
>  <open_babel_can_smiles> 
COc1c(N)ccc2c1Cc1c2cccc1 
 
>  <mulliken_charges> 
29 
1   -0.216444 
2   -0.131485 
3   -0.13757 
4   -0.2091 
5   -0.197025 
6   -0.199985 
7   -0.197946 
8   -0.412536 
9   0.113221 
10   0.082062 
11   0.079093 
12   0.068548 
13   0.295181 
14   0.211886 
15   -0.798308 
16   -0.546645 
17   0.157719 
18   0.146608 
19   0.160869 
20   0.122799 
21   0.123811 
22   0.121289 
23   0.124368 
24   0.126168 
25   0.11723 
26   0.178558 
27   0.166514 
28   0.319139 
29   0.331981 
 
>  <lowdin_charges> 
29 
1   -0.276475 
2   -0.166334 
3   -0.157606 
4   -0.163707 
5   -0.16657 
6   -0.159662 
7   -0.196716 
8   -0.272012 
9   -0.008099 
10   -0.00817 
11   -0.031507 
12   -0.015753 
13   0.040105 
14   0.045559 
15   -0.489545 
16   -0.24496 
17   0.155743 
18   0.141564 
19   0.149381 
20   0.156826 
21   0.155943 
22   0.153074 
23   0.153676 
24   0.158605 
25   0.152101 
26   0.173224 
27   0.166138 
28   0.274 
29   0.281176 
 
$$$$ 
 
