PCCDB-ID:  20975 
public computational chemistry database (PCCDB) project, http://pccdb.org 
 
 23 24  0  0  0  0  0  0  0  0999 V2000 
    2.4576    0.6886    0.0070 C   0  0  0  0  0  0  0  0  0  0  0  0 
    2.4451   -0.7080   -0.0264 C   0  0  0  0  0  0  0  0  0  0  0  0 
    1.2533    1.3880    0.0313 C   0  0  0  0  0  0  0  0  0  0  0  0 
    1.2284   -1.3858   -0.0359 C   0  0  0  0  0  0  0  0  0  0  0  0 
   -1.2829    1.4766    0.0801 C   0  0  0  0  0  0  0  0  0  0  0  0 
   -2.4656    0.6134   -0.3599 C   0  0  0  0  0  0  0  0  0  0  0  0 
   -1.2924   -1.4511   -0.0788 C   0  0  0  0  0  0  0  0  0  0  0  0 
    0.0248    0.7148    0.0214 C   0  0  0  0  0  0  0  0  0  0  0  0 
    0.0146   -0.6876   -0.0146 C   0  0  0  0  0  0  0  0  0  0  0  0 
   -3.6396   -1.4041    0.0222 N   0  0  0  0  0  0  0  0  0  0  0  0 
   -2.4269   -0.6488    0.3829 N   0  0  0  0  0  0  0  0  0  0  0  0 
    3.4009    1.2283    0.0130 H   0  0  0  0  0  0  0  0  0  0  0  0 
    3.3782   -1.2648   -0.0426 H   0  0  0  0  0  0  0  0  0  0  0  0 
    1.2598    2.4760    0.0585 H   0  0  0  0  0  0  0  0  0  0  0  0 
    1.2155   -2.4738   -0.0611 H   0  0  0  0  0  0  0  0  0  0  0  0 
   -1.4591    1.8174    1.1095 H   0  0  0  0  0  0  0  0  0  0  0  0 
   -1.2288    2.3763   -0.5457 H   0  0  0  0  0  0  0  0  0  0  0  0 
   -2.4519    0.4405   -1.4519 H   0  0  0  0  0  0  0  0  0  0  0  0 
   -3.4071    1.1240   -0.1233 H   0  0  0  0  0  0  0  0  0  0  0  0 
   -1.2264   -2.3482    0.5526 H   0  0  0  0  0  0  0  0  0  0  0  0 
   -1.4729   -1.8050   -1.1131 H   0  0  0  0  0  0  0  0  0  0  0  0 
   -4.3968   -0.8782    0.4684 H   0  0  0  0  0  0  0  0  0  0  0  0 
   -3.5807   -2.2539    0.5913 H   0  0  0  0  0  0  0  0  0  0  0  0 
  1 12  1  0  0  0  0 
  1  3  2  0  0  0  0 
  2  1  1  0  0  0  0 
  3 14  1  0  0  0  0 
  4  2  2  0  0  0  0 
  4  9  1  0  0  0  0 
  5 16  1  0  0  0  0 
  6 19  1  0  0  0  0 
  6  5  1  0  0  0  0 
  6 11  1  0  0  0  0 
  7  9  1  0  0  0  0 
  7 11  1  0  0  0  0 
  7 20  1  0  0  0  0 
  8  3  1  0  0  0  0 
  8  5  1  0  0  0  0 
  9  8  2  0  0  0  0 
 10 11  1  0  0  0  0 
 10 22  1  0  0  0  0 
 10 23  1  0  0  0  0 
 13  2  1  0  0  0  0 
 15  4  1  0  0  0  0 
 17  5  1  0  0  0  0 
 18  6  1  0  0  0  0 
 21  7  1  0  0  0  0 
M  END 
>  <HBA> 
2 
 
>  <HBD> 
1 
 
>  <TPSA> 
29.26 
 
>  <cid> 
20975 
 
>  <dipole> 
0.76 
 
>  <excitation_energy_1> 
4.511 
 
>  <excitation_energy_2> 
4.675 
 
>  <excitation_energy_3> 
4.843 
 
>  <excitation_energy_4> 
5.187 
 
>  <homo_energy> 
-5.265 
 
>  <homo_lumo_gap> 
5.317 
 
>  <logP> 
1.557 
 
>  <lumo_energy> 
0.052 
 
>  <melting_point> 
90.79 
 
>  <molecular_refractivity> 
48.59 
 
>  <oscillator_strength_1> 
0.0048 
 
>  <oscillator_strength_2> 
0.0033 
 
>  <oscillator_strength_3> 
0.0086 
 
>  <oscillator_strength_4> 
0.0104 
 
>  <open_babel_can_smiles> 
NN1CCc2c(C1)cccc2 
 
>  <mulliken_charges> 
23 
1   -0.127907 
2   -0.132425 
3   -0.190709 
4   -0.182934 
5   -0.341328 
6   -0.115175 
7   -0.169372 
8   0.128286 
9   0.102205 
10   -0.569318 
11   -0.351977 
12   0.125701 
13   0.126107 
14   0.120365 
15   0.12059 
16   0.16197 
17   0.144611 
18   0.130441 
19   0.130503 
20   0.140658 
21   0.144757 
22   0.302452 
23   0.302499 
 
>  <lowdin_charges> 
23 
1   -0.159687 
2   -0.160207 
3   -0.160704 
4   -0.160415 
5   -0.277164 
6   -0.200008 
7   -0.204519 
8   -0.011064 
9   -0.015836 
10   -0.482409 
11   -0.153949 
12   0.156411 
13   0.156698 
14   0.151472 
15   0.15169 
16   0.157943 
17   0.153553 
18   0.125086 
19   0.143042 
20   0.146751 
21   0.135368 
22   0.254315 
23   0.253631 
 
$$$$ 
 
