PCCDB-ID:  7936 
public computational chemistry database (PCCDB) project, http://pccdb.org 
 
 17 17  0  0  0  0  0  0  0  0999 V2000 
    0.8965   -0.0024   -0.0252 C   0  0  0  0  0  0  0  0  0  0  0  0 
    5.2729   -2.5302   -0.4556 C   0  0  0  0  0  0  0  0  0  0  0  0 
    3.1634    1.1412   -0.1205 C   0  0  0  0  0  0  0  0  0  0  0  0 
    4.5525    1.0443   -0.2112 C   0  0  0  0  0  0  0  0  0  0  0  0 
    3.0987   -1.2392   -0.2384 C   0  0  0  0  0  0  0  0  0  0  0  0 
    2.4016   -0.0295   -0.1318 C   0  0  0  0  0  0  0  0  0  0  0  0 
    4.4939   -1.2441   -0.3260 C   0  0  0  0  0  0  0  0  0  0  0  0 
    5.2180   -0.1092   -0.3111 N   0  0  0  0  0  0  0  0  0  0  0  0 
    0.5102    1.0205   -0.0659 H   0  0  0  0  0  0  0  0  0  0  0  0 
    0.5604   -0.4503    0.9185 H   0  0  0  0  0  0  0  0  0  0  0  0 
    0.4302   -0.5745   -0.8359 H   0  0  0  0  0  0  0  0  0  0  0  0 
    4.6417   -3.4078   -0.2855 H   0  0  0  0  0  0  0  0  0  0  0  0 
    6.1024   -2.5452    0.2588 H   0  0  0  0  0  0  0  0  0  0  0  0 
    5.7127   -2.6131   -1.4572 H   0  0  0  0  0  0  0  0  0  0  0  0 
    2.6869    2.1148   -0.0414 H   0  0  0  0  0  0  0  0  0  0  0  0 
    5.1631    1.9468   -0.2019 H   0  0  0  0  0  0  0  0  0  0  0  0 
    2.5549   -2.1811   -0.2535 H   0  0  0  0  0  0  0  0  0  0  0  0 
  1 10  1  0  0  0  0 
  2  7  1  0  0  0  0 
  2 12  1  0  0  0  0 
  2 13  1  0  0  0  0 
  3 15  1  0  0  0  0 
  4 16  1  0  0  0  0 
  4  3  2  0  0  0  0 
  5  6  2  0  0  0  0 
  6  3  1  0  0  0  0 
  6  1  1  0  0  0  0 
  7  8  2  0  0  0  0 
  7  5  1  0  0  0  0 
  8  4  1  0  0  0  0 
  9  1  1  0  0  0  0 
 11  1  1  0  0  0  0 
 14  2  1  0  0  0  0 
 17  5  1  0  0  0  0 
M  END 
>  <HBA> 
1 
 
>  <HBD> 
0 
 
>  <TPSA> 
12.89 
 
>  <cid> 
7936 
 
>  <dipole> 
2.25 
 
>  <excitation_energy_1> 
4.899 
 
>  <excitation_energy_2> 
5.218 
 
>  <excitation_energy_3> 
5.316 
 
>  <excitation_energy_4> 
6.031 
 
>  <homo_energy> 
-6.675 
 
>  <homo_lumo_gap> 
6.248 
 
>  <logP> 
1.698 
 
>  <lumo_energy> 
-0.427 
 
>  <melting_point> 
27.5 
 
>  <molecular_refractivity> 
34.17 
 
>  <oscillator_strength_1> 
0.0041 
 
>  <oscillator_strength_2> 
0.0006 
 
>  <oscillator_strength_3> 
0.0435 
 
>  <oscillator_strength_4> 
0.0049 
 
>  <open_babel_can_smiles> 
Cc1ccnc(c1)C 
 
>  <mulliken_charges> 
17 
1   -0.529916 
2   -0.504356 
3   -0.1942 
4   0.039482 
5   -0.216536 
6   0.198633 
7   0.303485 
8   -0.46375 
9   0.159594 
10   0.170288 
11   0.167085 
12   0.146127 
13   0.171809 
14   0.169565 
15   0.126001 
16   0.135328 
17   0.121362 
 
>  <lowdin_charges> 
17 
1   -0.44327 
2   -0.444935 
3   -0.196533 
4   -0.08605 
5   -0.197645 
6   0.027874 
7   0.058395 
8   -0.166977 
9   0.158663 
10   0.166228 
11   0.165427 
12   0.152828 
13   0.169395 
14   0.16666 
15   0.158796 
16   0.154455 
17   0.156689 
 
$$$$ 
 
