PCCDB-ID:  36676 
public computational chemistry database (PCCDB) project, http://pccdb.org 
 
 40 41  0  0  0  0  0  0  0  0999 V2000 
   -0.0711   -2.0326   -0.9054 C   0  0  0  0  0  0  0  0  0  0  0  0 
    6.5329   -5.4354    3.6734 C   0  0  0  0  0  0  0  0  0  0  0  0 
    1.5605   -0.8637   -3.0871 C   0  0  0  0  0  0  0  0  0  0  0  0 
    7.7703   -2.8398    4.3942 C   0  0  0  0  0  0  0  0  0  0  0  0 
    1.8393   -1.5055    0.6592 C   0  0  0  0  0  0  0  0  0  0  0  0 
    5.9069   -4.3985    1.4578 C   0  0  0  0  0  0  0  0  0  0  0  0 
    3.1094   -1.0006    0.9391 C   0  0  0  0  0  0  0  0  0  0  0  0 
    5.8756   -3.3404    0.5490 C   0  0  0  0  0  0  0  0  0  0  0  0 
    5.2840    0.0823    0.1887 C   0  0  0  0  0  0  0  0  0  0  0  0 
    6.4232   -0.9394   -0.0846 C   0  0  0  0  0  0  0  0  0  0  0  0 
    3.3569   -0.4228   -1.3736 C   0  0  0  0  0  0  0  0  0  0  0  0 
    7.0575   -1.9842    2.1322 C   0  0  0  0  0  0  0  0  0  0  0  0 
    1.3088   -1.4808   -0.6339 C   0  0  0  0  0  0  0  0  0  0  0  0 
    6.5090   -4.2698    2.7128 C   0  0  0  0  0  0  0  0  0  0  0  0 
    2.0871   -0.9245   -1.6720 C   0  0  0  0  0  0  0  0  0  0  0  0 
    7.0962   -3.0326    3.0556 C   0  0  0  0  0  0  0  0  0  0  0  0 
    3.8929   -0.4503   -0.0789 C   0  0  0  0  0  0  0  0  0  0  0  0 
    6.4544   -2.1106    0.8732 C   0  0  0  0  0  0  0  0  0  0  0  0 
   -0.5249   -2.4249    0.0099 H   0  0  0  0  0  0  0  0  0  0  0  0 
   -0.0479   -2.8475   -1.6411 H   0  0  0  0  0  0  0  0  0  0  0  0 
   -0.7459   -1.2659   -1.3087 H   0  0  0  0  0  0  0  0  0  0  0  0 
    6.0271   -6.3072    3.2470 H   0  0  0  0  0  0  0  0  0  0  0  0 
    6.0358   -5.1934    4.6221 H   0  0  0  0  0  0  0  0  0  0  0  0 
    7.5586   -5.7362    3.9252 H   0  0  0  0  0  0  0  0  0  0  0  0 
    2.2880   -0.3984   -3.7594 H   0  0  0  0  0  0  0  0  0  0  0  0 
    0.6298   -0.2847   -3.1515 H   0  0  0  0  0  0  0  0  0  0  0  0 
    1.3352   -1.8635   -3.4811 H   0  0  0  0  0  0  0  0  0  0  0  0 
    8.1690   -1.8254    4.4929 H   0  0  0  0  0  0  0  0  0  0  0  0 
    8.6039   -3.5404    4.5353 H   0  0  0  0  0  0  0  0  0  0  0  0 
    7.0760   -3.0072    5.2282 H   0  0  0  0  0  0  0  0  0  0  0  0 
    1.2451   -1.9301    1.4657 H   0  0  0  0  0  0  0  0  0  0  0  0 
    5.4536   -5.3492    1.1849 H   0  0  0  0  0  0  0  0  0  0  0  0 
    3.4933   -1.0372    1.9554 H   0  0  0  0  0  0  0  0  0  0  0  0 
    5.3973   -3.4730   -0.4181 H   0  0  0  0  0  0  0  0  0  0  0  0 
    5.4640    0.9618   -0.4433 H   0  0  0  0  0  0  0  0  0  0  0  0 
    5.3585    0.4221    1.2291 H   0  0  0  0  0  0  0  0  0  0  0  0 
    7.3774   -0.3991   -0.0285 H   0  0  0  0  0  0  0  0  0  0  0  0 
    6.3280   -1.3039   -1.1147 H   0  0  0  0  0  0  0  0  0  0  0  0 
    3.9488    0.0108   -2.1790 H   0  0  0  0  0  0  0  0  0  0  0  0 
    7.5209   -1.0356    2.4010 H   0  0  0  0  0  0  0  0  0  0  0  0 
  1 13  1  0  0  0  0 
  1 19  1  0  0  0  0 
  2 24  1  0  0  0  0 
  2 23  1  0  0  0  0 
  3 15  1  0  0  0  0 
  4 28  1  0  0  0  0 
  4 29  1  0  0  0  0 
  4 30  1  0  0  0  0 
  5  7  1  0  0  0  0 
  5 31  1  0  0  0  0 
  6 14  2  0  0  0  0 
  7 33  1  0  0  0  0 
  8 18  2  0  0  0  0 
  8  6  1  0  0  0  0 
  9 36  1  0  0  0  0 
 10 37  1  0  0  0  0 
 10  9  1  0  0  0  0 
 10 18  1  0  0  0  0 
 11 17  1  0  0  0  0 
 12 40  1  0  0  0  0 
 12 16  2  0  0  0  0 
 13  5  2  0  0  0  0 
 14 16  1  0  0  0  0 
 14  2  1  0  0  0  0 
 15 11  2  0  0  0  0 
 15 13  1  0  0  0  0 
 16  4  1  0  0  0  0 
 17  9  1  0  0  0  0 
 17  7  2  0  0  0  0 
 18 12  1  0  0  0  0 
 20  1  1  0  0  0  0 
 21  1  1  0  0  0  0 
 22  2  1  0  0  0  0 
 25  3  1  0  0  0  0 
 26  3  1  0  0  0  0 
 27  3  1  0  0  0  0 
 32  6  1  0  0  0  0 
 34  8  1  0  0  0  0 
 35  9  1  0  0  0  0 
 38 10  1  0  0  0  0 
 39 11  1  0  0  0  0 
M  END 
>  <HBA> 
0 
 
>  <HBD> 
0 
 
>  <TPSA> 
0.0 
 
>  <cid> 
36676 
 
>  <dipole> 
0.2 
 
>  <excitation_energy_1> 
5.111 
 
>  <excitation_energy_2> 
5.115 
 
>  <excitation_energy_3> 
5.418 
 
>  <excitation_energy_4> 
5.449 
 
>  <homo_energy> 
-5.951 
 
>  <homo_lumo_gap> 
6.147 
 
>  <logP> 
4.705 
 
>  <lumo_energy> 
0.196 
 
>  <melting_point> 
56.24 
 
>  <molecular_refractivity> 
80.57 
 
>  <oscillator_strength_1> 
0.0006 
 
>  <oscillator_strength_2> 
0.0061 
 
>  <oscillator_strength_3> 
0.0132 
 
>  <oscillator_strength_4> 
0.0419 
 
>  <open_babel_can_smiles> 
Cc1ccc(cc1C)CCc1ccc(c(c1)C)C 
 
>  <mulliken_charges> 
40 
1   -0.531964 
2   -0.532012 
3   -0.532623 
4   -0.532793 
5   -0.186106 
6   -0.185822 
7   -0.178822 
8   -0.1794 
9   -0.34687 
10   -0.345803 
11   -0.24997 
12   -0.250148 
13   0.129405 
14   0.129382 
15   0.137859 
16   0.137877 
17   0.186979 
18   0.187975 
19   0.15317 
20   0.156353 
21   0.156909 
22   0.153225 
23   0.156415 
24   0.156995 
25   0.152863 
26   0.157582 
27   0.157083 
28   0.152947 
29   0.15782 
30   0.157045 
31   0.117407 
32   0.117463 
33   0.125769 
34   0.125124 
35   0.13952 
36   0.144382 
37   0.139987 
38   0.144162 
39   0.11021 
40   0.110425 
 
>  <lowdin_charges> 
40 
1   -0.443441 
2   -0.440932 
3   -0.442174 
4   -0.441983 
5   -0.168043 
6   -0.166395 
7   -0.166086 
8   -0.16603 
9   -0.269841 
10   -0.269034 
11   -0.181313 
12   -0.179663 
13   -0.012513 
14   -0.013709 
15   -0.008982 
16   -0.008093 
17   -0.006268 
18   -0.007122 
19   0.156655 
20   0.156947 
21   0.157776 
22   0.156849 
23   0.156459 
24   0.156 
25   0.156978 
26   0.157208 
27   0.156556 
28   0.155071 
29   0.157829 
30   0.157523 
31   0.153221 
32   0.151952 
33   0.156165 
34   0.156197 
35   0.149274 
36   0.148294 
37   0.149025 
38   0.14838 
39   0.149261 
40   0.148002 
 
$$$$ 
 
