PCCDB-ID:  58656 
public computational chemistry database (PCCDB) project, http://pccdb.org 
 
 30 31  0  0  1  0  0  0  0  0999 V2000 
    2.2661    1.2551   -0.2532 C   0  0  0  0  0  0  0  0  0  0  0  0 
    1.0129    1.8393   -0.1041 C   0  0  0  0  0  0  0  0  0  0  0  0 
   -1.7207   -2.4076   -0.3036 C   0  0  0  0  0  0  0  0  0  0  0  0 
    1.2919   -0.9777   -0.3988 C   0  0  0  0  0  0  0  0  0  0  0  0 
   -1.0150   -2.8094   -2.7412 C   0  0  0  0  0  0  0  0  0  0  0  0 
   -2.1650    0.1060   -0.0158 C   0  0  0  0  0  0  0  0  0  0  0  0 
   -1.3176   -0.9621   -0.1927 C   0  0  0  0  0  0  0  0  0  0  0  0 
   -2.1560   -2.8733   -1.7092 C   0  0  1  0  0  0  0  0  0  0  0  0 
    2.4026   -0.1425   -0.3982 C   0  0  0  0  0  0  0  0  0  0  0  0 
    0.0152   -0.4097   -0.2479 C   0  0  0  0  0  0  0  0  0  0  0  0 
   -0.1030    1.0009   -0.1019 C   0  0  0  0  0  0  0  0  0  0  0  0 
   -1.5091   -3.2586   -4.0543 N   0  0  0  0  0  0  0  0  0  0  0  0 
   -2.7677   -4.2048   -1.6044 N   0  0  0  0  0  0  0  0  0  0  0  0 
   -1.4496    1.2866    0.0277 N   0  0  0  0  0  0  0  0  0  0  0  0 
    3.6381   -0.7308   -0.5458 O   0  0  0  0  0  0  0  0  0  0  0  0 
    3.1556    1.8825   -0.2576 H   0  0  0  0  0  0  0  0  0  0  0  0 
    0.9157    2.9161    0.0073 H   0  0  0  0  0  0  0  0  0  0  0  0 
   -2.5612   -2.6161    0.3689 H   0  0  0  0  0  0  0  0  0  0  0  0 
   -0.8917   -3.0456    0.0377 H   0  0  0  0  0  0  0  0  0  0  0  0 
    1.4344   -2.0480   -0.5108 H   0  0  0  0  0  0  0  0  0  0  0  0 
   -0.2216   -3.5037   -2.4308 H   0  0  0  0  0  0  0  0  0  0  0  0 
   -0.5747   -1.7997   -2.7548 H   0  0  0  0  0  0  0  0  0  0  0  0 
   -3.2423    0.1158    0.0858 H   0  0  0  0  0  0  0  0  0  0  0  0 
   -2.9483   -2.1885   -2.0514 H   0  0  0  0  0  0  0  0  0  0  0  0 
   -2.0885   -2.5265   -4.4647 H   0  0  0  0  0  0  0  0  0  0  0  0 
   -0.7269   -3.3861   -4.6938 H   0  0  0  0  0  0  0  0  0  0  0  0 
   -2.0938   -4.8360   -1.1654 H   0  0  0  0  0  0  0  0  0  0  0  0 
   -2.8778   -4.5545   -2.5582 H   0  0  0  0  0  0  0  0  0  0  0  0 
   -1.8419    2.1991    0.1959 H   0  0  0  0  0  0  0  0  0  0  0  0 
    4.3158   -0.0388   -0.5200 H   0  0  0  0  0  0  0  0  0  0  0  0 
  1  2  2  0  0  0  0 
  2 11  1  0  0  0  0 
  2 17  1  0  0  0  0 
  3  7  1  0  0  0  0 
  3 19  1  0  0  0  0 
  3 18  1  0  0  0  0 
  4  9  2  0  0  0  0 
  4 10  1  0  0  0  0 
  5 21  1  0  0  0  0 
  5  8  1  0  0  0  0 
  6 14  1  0  0  0  0 
  6 23  1  0  0  0  0 
  7  6  2  0  0  0  0 
  8 24  1  6  0  0  0 
  8 13  1  0  0  0  0 
  8  3  1  0  0  0  0 
  9  1  1  0  0  0  0 
 10  7  1  0  0  0  0 
 10 11  2  0  0  0  0 
 11 14  1  0  0  0  0 
 12  5  1  0  0  0  0 
 13 27  1  0  0  0  0 
 14 29  1  0  0  0  0 
 15 30  1  0  0  0  0 
 15  9  1  0  0  0  0 
 16  1  1  0  0  0  0 
 20  4  1  0  0  0  0 
 22  5  1  0  0  0  0 
 25 12  1  0  0  0  0 
 26 12  1  0  0  0  0 
 28 13  1  0  0  0  0 
M  END 
>  <HBA> 
3 
 
>  <HBD> 
4 
 
>  <TPSA> 
88.06 
 
>  <cid> 
58656 
 
>  <dipole> 
3.96 
 
>  <excitation_energy_1> 
4.298 
 
>  <excitation_energy_2> 
4.598 
 
>  <excitation_energy_3> 
4.65 
 
>  <excitation_energy_4> 
4.721 
 
>  <homo_energy> 
-5.154 
 
>  <homo_lumo_gap> 
4.974 
 
>  <logP> 
2.103 
 
>  <lumo_energy> 
-0.18 
 
>  <melting_point> 
247.91 
 
>  <molecular_refractivity> 
60.32 
 
>  <oscillator_strength_1> 
0.0587 
 
>  <oscillator_strength_2> 
0.0003 
 
>  <oscillator_strength_3> 
0.088 
 
>  <oscillator_strength_4> 
0.0003 
 
>  <open_babel_can_smiles> 
N[C@H](CN)Cc1c[nH]c2c1cc(O)cc2 
 
>  <mulliken_charges> 
30 
1   -0.219212 
2   -0.167072 
3   -0.354604 
4   -0.258198 
5   -0.151101 
6   -0.001672 
7   0.065234 
8   0.0421 
9   0.353483 
10   0.077682 
11   0.313418 
12   -0.729782 
13   -0.718232 
14   -0.69514 
15   -0.656268 
16   0.111209 
17   0.123285 
18   0.157795 
19   0.131983 
20   0.131428 
21   0.125121 
22   0.136615 
23   0.148763 
24   0.117272 
25   0.295264 
26   0.300723 
27   0.279452 
28   0.313563 
29   0.324563 
30   0.402329 
 
>  <lowdin_charges> 
30 
1   -0.219112 
2   -0.174247 
3   -0.275458 
4   -0.19902 
5   -0.228776 
6   -0.130552 
7   -0.065896 
8   -0.071448 
9   0.090673 
10   -0.025724 
11   0.015885 
12   -0.563793 
13   -0.557354 
14   -0.203244 
15   -0.394645 
16   0.151338 
17   0.154604 
18   0.161927 
19   0.145672 
20   0.162109 
21   0.136597 
22   0.133728 
23   0.162316 
24   0.132756 
25   0.253662 
26   0.258142 
27   0.246155 
28   0.259302 
29   0.289855 
30   0.354549 
 
$$$$ 
 
