PCCDB-ID:  67035 
public computational chemistry database (PCCDB) project, http://pccdb.org 
 
 26 27  0  0  0  0  0  0  0  0999 V2000 
    4.1493   -1.6123   -2.1486 C   0  0  0  0  0  0  0  0  0  0  0  0 
    2.5309    4.6102   -3.7354 C   0  0  0  0  0  0  0  0  0  0  0  0 
    3.2782    4.1975   -2.6057 C   0  0  0  0  0  0  0  0  0  0  0  0 
    1.6751    3.7265   -4.3524 C   0  0  0  0  0  0  0  0  0  0  0  0 
    3.1673    2.9122   -2.1233 C   0  0  0  0  0  0  0  0  0  0  0  0 
    0.6420    1.4725   -4.4876 C   0  0  0  0  0  0  0  0  0  0  0  0 
    0.5237    0.1937   -3.9970 C   0  0  0  0  0  0  0  0  0  0  0  0 
    3.6785   -0.7073   -1.0344 C   0  0  0  0  0  0  0  0  0  0  0  0 
    1.5303    2.3952   -3.8779 C   0  0  0  0  0  0  0  0  0  0  0  0 
    2.2996    1.9743   -2.7448 C   0  0  0  0  0  0  0  0  0  0  0  0 
    1.2907   -0.2330   -2.8878 C   0  0  0  0  0  0  0  0  0  0  0  0 
    2.1886    0.6289   -2.2618 C   0  0  0  0  0  0  0  0  0  0  0  0 
    2.8775    0.2759   -1.0970 N   0  0  0  0  0  0  0  0  0  0  0  0 
    4.1991   -0.9768    0.1966 O   0  0  0  0  0  0  0  0  0  0  0  0 
    1.1658   -1.5115   -2.3933 O   0  0  0  0  0  0  0  0  0  0  0  0 
    3.9174   -1.1772   -3.1221 H   0  0  0  0  0  0  0  0  0  0  0  0 
    3.6462   -2.5835   -2.0841 H   0  0  0  0  0  0  0  0  0  0  0  0 
    5.2328   -1.7727   -2.0832 H   0  0  0  0  0  0  0  0  0  0  0  0 
    2.6302    5.6261   -4.1083 H   0  0  0  0  0  0  0  0  0  0  0  0 
    3.9431    4.9033   -2.1146 H   0  0  0  0  0  0  0  0  0  0  0  0 
    1.0900    4.0366   -5.2156 H   0  0  0  0  0  0  0  0  0  0  0  0 
    3.7291    2.5942   -1.2516 H   0  0  0  0  0  0  0  0  0  0  0  0 
    0.0509    1.7877   -5.3434 H   0  0  0  0  0  0  0  0  0  0  0  0 
   -0.1621   -0.5122   -4.4642 H   0  0  0  0  0  0  0  0  0  0  0  0 
    4.8114   -1.7249    0.1251 H   0  0  0  0  0  0  0  0  0  0  0  0 
    0.4273   -1.9440   -2.8483 H   0  0  0  0  0  0  0  0  0  0  0  0 
  1 17  1  0  0  0  0 
  1 18  1  0  0  0  0 
  1  8  1  0  0  0  0 
  2  3  2  0  0  0  0 
  3  5  1  0  0  0  0 
  3 20  1  0  0  0  0 
  4  9  2  0  0  0  0 
  4  2  1  0  0  0  0 
  5 22  1  0  0  0  0 
  6  7  2  0  0  0  0 
  6  9  1  0  0  0  0 
  7 11  1  0  0  0  0 
  8 14  1  0  0  0  0 
  9 10  1  0  0  0  0 
 10 12  1  0  0  0  0 
 10  5  2  0  0  0  0 
 11 15  1  0  0  0  0 
 11 12  2  0  0  0  0 
 12 13  1  0  0  0  0 
 13  8  2  0  0  0  0 
 16  1  1  0  0  0  0 
 19  2  1  0  0  0  0 
 21  4  1  0  0  0  0 
 23  6  1  0  0  0  0 
 24  7  1  0  0  0  0 
 25 14  1  0  0  0  0 
 26 15  1  0  0  0  0 
M  END 
>  <HBA> 
3 
 
>  <HBD> 
2 
 
>  <TPSA> 
49.33 
 
>  <cid> 
67035 
 
>  <dipole> 
4.07 
 
>  <excitation_energy_1> 
3.757 
 
>  <excitation_energy_2> 
4.266 
 
>  <excitation_energy_3> 
4.329 
 
>  <excitation_energy_4> 
4.565 
 
>  <homo_energy> 
-5.037 
 
>  <homo_lumo_gap> 
4.25 
 
>  <logP> 
2.577 
 
>  <lumo_energy> 
-0.786 
 
>  <melting_point> 
144.91 
 
>  <molecular_refractivity> 
60.28 
 
>  <oscillator_strength_1> 
0.1324 
 
>  <oscillator_strength_2> 
0.009 
 
>  <oscillator_strength_3> 
0.002 
 
>  <oscillator_strength_4> 
0.037 
 
>  <open_babel_can_smiles> 
C/C(=N\c1c(O)ccc2c1cccc2)/O 
 
>  <mulliken_charges> 
26 
1   -0.537408 
2   -0.135175 
3   -0.136556 
4   -0.199256 
5   -0.186807 
6   -0.202944 
7   -0.195291 
8   0.495335 
9   0.135534 
10   0.081504 
11   0.323844 
12   0.138506 
13   -0.468118 
14   -0.571953 
15   -0.659287 
16   0.190512 
17   0.190906 
18   0.15312 
19   0.124043 
20   0.12553 
21   0.123673 
22   0.15138 
23   0.127404 
24   0.116521 
25   0.407236 
26   0.407749 
 
>  <lowdin_charges> 
26 
1   -0.475136 
2   -0.164797 
3   -0.160211 
4   -0.158167 
5   -0.156642 
6   -0.161861 
7   -0.20382 
8   0.154086 
9   -0.009205 
10   -0.007638 
11   0.068876 
12   0.010348 
13   -0.16953 
14   -0.357801 
15   -0.39009 
16   0.180865 
17   0.178415 
18   0.156857 
19   0.154957 
20   0.157728 
21   0.155024 
22   0.170628 
23   0.158454 
24   0.153649 
25   0.356605 
26   0.358404 
 
$$$$ 
 
