PCCDB-ID:  71695 
public computational chemistry database (PCCDB) project, http://pccdb.org 
 
 37 38  0  0  1  0  0  0  0  0999 V2000 
    1.3178    5.8905    1.4791 C   0  0  0  0  0  0  0  0  0  0  0  0 
    4.6116    3.2945    1.3834 C   0  0  0  0  0  0  0  0  0  0  0  0 
    3.0793    7.8990   -1.2617 C   0  0  0  0  0  0  0  0  0  0  0  0 
    3.3899    6.8983   -2.1817 C   0  0  0  0  0  0  0  0  0  0  0  0 
    6.5250    0.0940   -0.9486 C   0  0  0  0  0  0  0  0  0  0  0  0 
    5.6464    0.2308   -2.2241 C   0  0  0  0  0  0  0  0  0  0  0  0 
    2.4158    7.5601   -0.0807 C   0  0  0  0  0  0  0  0  0  0  0  0 
    3.0495    5.5738   -1.9099 C   0  0  0  0  0  0  0  0  0  0  0  0 
    6.2098    1.3537   -0.1237 C   0  0  0  0  0  0  0  0  0  0  0  0 
    4.8297    1.5159   -1.9922 C   0  0  0  0  0  0  0  0  0  0  0  0 
    2.0615    6.2402    0.2138 C   0  0  0  0  0  0  0  0  0  0  0  0 
    4.3030    2.9925   -0.0923 C   0  0  2  0  0  0  0  0  0  0  0  0 
    2.4027    5.2265   -0.7119 C   0  0  0  0  0  0  0  0  0  0  0  0 
    2.7706    2.9447   -0.2653 C   0  0  0  0  0  0  0  0  0  0  0  0 
    1.9716    3.9110   -0.4695 N   0  0  0  0  0  0  0  0  0  0  0  0 
    4.8346    1.6902   -0.5259 N   0  0  0  0  0  0  0  0  0  0  0  0 
    2.2647    1.7067   -0.0862 O   0  0  0  0  0  0  0  0  0  0  0  0 
    0.9844    6.7933    2.0009 H   0  0  0  0  0  0  0  0  0  0  0  0 
    1.9382    5.3129    2.1774 H   0  0  0  0  0  0  0  0  0  0  0  0 
    0.4445    5.2670    1.2566 H   0  0  0  0  0  0  0  0  0  0  0  0 
    4.1411    4.2403    1.6651 H   0  0  0  0  0  0  0  0  0  0  0  0 
    5.6877    3.3923    1.5541 H   0  0  0  0  0  0  0  0  0  0  0  0 
    4.2202    2.5062    2.0356 H   0  0  0  0  0  0  0  0  0  0  0  0 
    3.3356    8.9350   -1.4657 H   0  0  0  0  0  0  0  0  0  0  0  0 
    3.8891    7.1453   -3.1154 H   0  0  0  0  0  0  0  0  0  0  0  0 
    7.5929    0.0205   -1.1735 H   0  0  0  0  0  0  0  0  0  0  0  0 
    6.2463   -0.8031   -0.3872 H   0  0  0  0  0  0  0  0  0  0  0  0 
    4.9878   -0.6356   -2.3356 H   0  0  0  0  0  0  0  0  0  0  0  0 
    6.2428    0.3042   -3.1381 H   0  0  0  0  0  0  0  0  0  0  0  0 
    2.1572    8.3402    0.6325 H   0  0  0  0  0  0  0  0  0  0  0  0 
    3.2585    4.7920   -2.6357 H   0  0  0  0  0  0  0  0  0  0  0  0 
    6.9098    2.1696   -0.3826 H   0  0  0  0  0  0  0  0  0  0  0  0 
    6.2751    1.1843    0.9537 H   0  0  0  0  0  0  0  0  0  0  0  0 
    3.8029    1.4537   -2.3655 H   0  0  0  0  0  0  0  0  0  0  0  0 
    5.3143    2.3788   -2.4836 H   0  0  0  0  0  0  0  0  0  0  0  0 
    4.7065    3.8097   -0.7074 H   0  0  0  0  0  0  0  0  0  0  0  0 
    3.0605    1.1240   -0.0331 H   0  0  0  0  0  0  0  0  0  0  0  0 
  1 18  1  0  0  0  0 
  1 19  1  0  0  0  0 
  2 22  1  0  0  0  0 
  2 21  1  0  0  0  0 
  2 23  1  0  0  0  0 
  3  7  2  0  0  0  0 
  4  8  2  0  0  0  0 
  4  3  1  0  0  0  0 
  5 27  1  0  0  0  0 
  5  9  1  0  0  0  0 
  6 10  1  0  0  0  0 
  6  5  1  0  0  0  0 
  7 11  1  0  0  0  0 
  7 30  1  0  0  0  0 
  8 13  1  0  0  0  0 
  9 33  1  0  0  0  0 
 10 16  1  0  0  0  0 
 11  1  1  0  0  0  0 
 12 36  1  6  0  0  0 
 12  2  1  0  0  0  0 
 13 15  1  0  0  0  0 
 13 11  2  0  0  0  0 
 14 12  1  0  0  0  0 
 14 17  1  0  0  0  0 
 15 14  2  0  0  0  0 
 16  9  1  0  0  0  0 
 16 12  1  0  0  0  0 
 17 37  1  0  0  0  0 
 20  1  1  0  0  0  0 
 24  3  1  0  0  0  0 
 25  4  1  0  0  0  0 
 26  5  1  0  0  0  0 
 28  6  1  0  0  0  0 
 29  6  1  0  0  0  0 
 31  8  1  0  0  0  0 
 32  9  1  0  0  0  0 
 34 10  1  0  0  0  0 
 35 10  1  0  0  0  0 
M  END 
>  <HBA> 
3 
 
>  <HBD> 
1 
 
>  <TPSA> 
32.34 
 
>  <cid> 
71695 
 
>  <dipole> 
4.91 
 
>  <excitation_energy_1> 
4.668 
 
>  <excitation_energy_2> 
4.846 
 
>  <excitation_energy_3> 
5.081 
 
>  <excitation_energy_4> 
5.292 
 
>  <homo_energy> 
-5.45 
 
>  <homo_lumo_gap> 
5.663 
 
>  <logP> 
2.429 
 
>  <lumo_energy> 
0.212 
 
>  <melting_point> 
85.33 
 
>  <molecular_refractivity> 
74.45 
 
>  <oscillator_strength_1> 
0.0621 
 
>  <oscillator_strength_2> 
0.0197 
 
>  <oscillator_strength_3> 
0.0197 
 
>  <oscillator_strength_4> 
0.028 
 
>  <open_babel_can_smiles> 
O/C(=N/c1ccccc1C)/[C@H](N1CCCC1)C 
 
>  <mulliken_charges> 
37 
1   -0.52647 
2   -0.471092 
3   -0.127183 
4   -0.144514 
5   -0.282402 
6   -0.288761 
7   -0.200362 
8   -0.154243 
9   -0.122415 
10   -0.132961 
11   0.156233 
12   -0.01221 
13   0.180504 
14   0.493535 
15   -0.497862 
16   -0.475078 
17   -0.596596 
18   0.144284 
19   0.15081 
20   0.180048 
21   0.181229 
22   0.159431 
23   0.15876 
24   0.11943 
25   0.121194 
26   0.147188 
27   0.152169 
28   0.154116 
29   0.148723 
30   0.11746 
31   0.119655 
32   0.125422 
33   0.15439 
34   0.166225 
35   0.131769 
36   0.150889 
37   0.418683 
 
>  <lowdin_charges> 
37 
1   -0.443603 
2   -0.444579 
3   -0.175009 
4   -0.160474 
5   -0.283225 
6   -0.286475 
7   -0.166513 
8   -0.193085 
9   -0.201221 
10   -0.208034 
11   -0.02061 
12   -0.094004 
13   0.0394 
14   0.132838 
15   -0.180788 
16   -0.199186 
17   -0.363829 
18   0.152345 
19   0.15375 
20   0.170626 
21   0.171002 
22   0.155844 
23   0.158215 
24   0.152752 
25   0.153785 
26   0.150648 
27   0.152668 
28   0.153781 
29   0.152784 
30   0.153191 
31   0.154171 
32   0.126067 
33   0.150779 
34   0.154948 
35   0.128392 
36   0.151595 
37   0.351054 
 
$$$$ 
 
