PCCDB-ID:  67490 
public computational chemistry database (PCCDB) project, http://pccdb.org 
 
 18 19  0  0  0  0  0  0  0  0999 V2000 
    2.4341   -0.6695   -0.0450 C   0  0  0  0  0  0  0  0  0  0  0  0 
    2.3980    0.7252    0.0570 C   0  0  0  0  0  0  0  0  0  0  0  0 
    1.2402   -1.3858   -0.1049 C   0  0  0  0  0  0  0  0  0  0  0  0 
    1.1793    1.3968    0.0845 C   0  0  0  0  0  0  0  0  0  0  0  0 
   -1.3103   -1.4799   -0.0980 C   0  0  0  0  0  0  0  0  0  0  0  0 
   -2.3148    0.5990   -0.3825 C   0  0  0  0  0  0  0  0  0  0  0  0 
    0.0051   -0.7316   -0.0735 C   0  0  0  0  0  0  0  0  0  0  0  0 
   -0.0113    0.6683    0.0096 C   0  0  0  0  0  0  0  0  0  0  0  0 
   -2.3958   -0.6288    0.2748 O   0  0  0  0  0  0  0  0  0  0  0  0 
   -1.1923    1.3675    0.0338 O   0  0  0  0  0  0  0  0  0  0  0  0 
    3.3853   -1.1931   -0.0685 H   0  0  0  0  0  0  0  0  0  0  0  0 
    3.3232    1.2923    0.1127 H   0  0  0  0  0  0  0  0  0  0  0  0 
    1.2625   -2.4724   -0.1671 H   0  0  0  0  0  0  0  0  0  0  0  0 
    1.1249    2.4785    0.1588 H   0  0  0  0  0  0  0  0  0  0  0  0 
   -1.3118   -2.2978    0.6290 H   0  0  0  0  0  0  0  0  0  0  0  0 
   -1.5030   -1.9159   -1.0930 H   0  0  0  0  0  0  0  0  0  0  0  0 
   -3.1978    1.1792   -0.1146 H   0  0  0  0  0  0  0  0  0  0  0  0 
   -2.2572    0.4561   -1.4751 H   0  0  0  0  0  0  0  0  0  0  0  0 
  1  2  2  0  0  0  0 
  2  4  1  0  0  0  0 
  2 12  1  0  0  0  0 
  3  7  2  0  0  0  0 
  3  1  1  0  0  0  0 
  4 14  1  0  0  0  0 
  5  7  1  0  0  0  0 
  5  9  1  0  0  0  0 
  5 15  1  0  0  0  0 
  6 17  1  0  0  0  0 
  6 10  1  0  0  0  0 
  6  9  1  0  0  0  0 
  7  8  1  0  0  0  0 
  8 10  1  0  0  0  0 
  8  4  2  0  0  0  0 
 11  1  1  0  0  0  0 
 13  3  1  0  0  0  0 
 16  5  1  0  0  0  0 
 18  6  1  0  0  0  0 
M  END 
>  <HBA> 
2 
 
>  <HBD> 
0 
 
>  <TPSA> 
18.46 
 
>  <cid> 
67490 
 
>  <dipole> 
1.46 
 
>  <excitation_energy_1> 
4.944 
 
>  <excitation_energy_2> 
5.593 
 
>  <excitation_energy_3> 
5.754 
 
>  <excitation_energy_4> 
6.02 
 
>  <homo_energy> 
-6.027 
 
>  <homo_lumo_gap> 
5.883 
 
>  <logP> 
1.553 
 
>  <lumo_energy> 
-0.144 
 
>  <melting_point> 
26.89 
 
>  <molecular_refractivity> 
36.87 
 
>  <oscillator_strength_1> 
0.0364 
 
>  <oscillator_strength_2> 
0.0349 
 
>  <oscillator_strength_3> 
0.0043 
 
>  <oscillator_strength_4> 
0.0228 
 
>  <open_babel_can_smiles> 
C1OCc2c(O1)cccc2 
 
>  <mulliken_charges> 
18 
1   -0.132593 
2   -0.134834 
3   -0.189755 
4   -0.178597 
5   -0.088808 
6   0.16153 
7   0.069414 
8   0.33196 
9   -0.457693 
10   -0.518668 
11   0.128054 
12   0.13172 
13   0.12591 
14   0.140144 
15   0.170062 
16   0.146898 
17   0.164085 
18   0.131172 
 
>  <lowdin_charges> 
18 
1   -0.172939 
2   -0.149192 
3   -0.15302 
4   -0.176193 
5   -0.128056 
6   -0.013375 
7   -0.06729 
8   0.093363 
9   -0.25224 
10   -0.208031 
11   0.158163 
12   0.159983 
13   0.153879 
14   0.165856 
15   0.164227 
16   0.140329 
17   0.161725 
18   0.122811 
 
$$$$ 
 
