PCCDB-ID:  13178 
public computational chemistry database (PCCDB) project, http://pccdb.org 
 
 18 17  0  0  0  0  0  0  0  0999 V2000 
    1.1539   -0.0915    0.5502 C   0  0  0  0  0  0  0  0  0  0  0  0 
    4.1202   -1.9447   -0.7520 C   0  0  0  0  0  0  0  0  0  0  0  0 
    2.8305   -1.6830   -0.3597 C   0  0  0  0  0  0  0  0  0  0  0  0 
    0.7987    1.0127   -0.4507 C   0  0  0  0  0  0  0  0  0  0  0  0 
    6.2708   -1.3250   -0.7483 N   0  0  0  0  0  0  0  0  0  0  0  0 
    2.3676    1.8409   -1.8790 N   0  0  0  0  0  0  0  0  0  0  0  0 
    2.4902   -0.6344    0.4394 N   0  0  0  0  0  0  0  0  0  0  0  0 
    5.0885   -1.0413   -0.3863 N   0  0  0  0  0  0  0  0  0  0  0  0 
    1.5232    0.9459   -1.6959 N   0  0  0  0  0  0  0  0  0  0  0  0 
    1.7821   -2.4629   -0.7018 O   0  0  0  0  0  0  0  0  0  0  0  0 
   -0.1096    1.7916   -0.2917 O   0  0  0  0  0  0  0  0  0  0  0  0 
    0.4275   -0.9002    0.4289 H   0  0  0  0  0  0  0  0  0  0  0  0 
    1.0023    0.3306    1.5484 H   0  0  0  0  0  0  0  0  0  0  0  0 
    4.3742   -2.8414   -1.3176 H   0  0  0  0  0  0  0  0  0  0  0  0 
    6.8609   -0.5504   -0.4028 H   0  0  0  0  0  0  0  0  0  0  0  0 
    2.7606    1.6839   -2.8271 H   0  0  0  0  0  0  0  0  0  0  0  0 
    3.2844   -0.0359    0.6426 H   0  0  0  0  0  0  0  0  0  0  0  0 
    2.0969   -3.1612   -1.2980 H   0  0  0  0  0  0  0  0  0  0  0  0 
  1 13  1  0  0  0  0 
  2  8  1  0  0  0  0 
  2  3  2  0  0  0  0 
  3  7  1  0  0  0  0 
  4 11  2  0  0  0  0 
  4  1  1  0  0  0  0 
  5 15  1  0  0  0  0 
  5  8  1  0  0  0  0 
  6  9  1  0  0  0  0 
  7  1  1  0  0  0  0 
  7 17  1  0  0  0  0 
  9  4  1  0  0  0  0 
 10  3  1  0  0  0  0 
 12  1  1  0  0  0  0 
 14  2  1  0  0  0  0 
 16  6  1  0  0  0  0 
 18 10  1  0  0  0  0 
M  RAD  4   5   2   6   2   8   2   9   2 
M  END 
>  <HBA> 
6 
 
>  <HBD> 
3 
 
>  <TPSA> 
118.36 
 
>  <cid> 
13178 
 
>  <dipole> 
1.78 
 
>  <excitation_energy_1> 
2.619 
 
>  <excitation_energy_2> 
2.997 
 
>  <excitation_energy_3> 
3.12 
 
>  <excitation_energy_4> 
3.407 
 
>  <homo_energy> 
-5.698 
 
>  <homo_lumo_gap> 
3.491 
 
>  <logP> 
0.13 
 
>  <lumo_energy> 
-2.207 
 
>  <melting_point> 
154.49 
 
>  <molecular_refractivity> 
33.04 
 
>  <oscillator_strength_1> 
0.0001 
 
>  <oscillator_strength_2> 
0.0004 
 
>  <oscillator_strength_3> 
0.0001 
 
>  <oscillator_strength_4> 
0.0003 
 
>  <open_babel_can_smiles> 
[NH][N]/C=C(\NCC(=O)[N][NH])/O 
 
>  <mulliken_charges> 
18 
1   -0.237613 
2   -0.056361 
3   0.579105 
4   0.558234 
5   -0.388497 
6   -0.294493 
7   -0.609443 
8   -0.275419 
9   -0.20259 
10   -0.619706 
11   -0.404872 
12   0.226109 
13   0.201178 
14   0.117205 
15   0.290941 
16   0.327217 
17   0.358463 
18   0.430543 
 
>  <lowdin_charges> 
18 
1   -0.227224 
2   -0.271551 
3   0.164583 
4   0.155454 
5   -0.33288 
6   -0.206251 
7   -0.265945 
8   -0.098124 
9   -0.069776 
10   -0.351216 
11   -0.199686 
12   0.198539 
13   0.183452 
14   0.147129 
15   0.240469 
16   0.259241 
17   0.29756 
18   0.376226 
 
$$$$ 
 
