PCCDB-ID:  41040 
public computational chemistry database (PCCDB) project, http://pccdb.org 
 
 27 27  0  0  0  0  0  0  0  0999 V2000 
    1.5347    0.1403    1.0097 C   0  0  0  0  0  0  0  0  0  0  0  0 
    6.7388   -1.5102    0.3958 C   0  0  0  0  0  0  0  0  0  0  0  0 
    1.0293   -3.1296   -0.7305 C   0  0  0  0  0  0  0  0  0  0  0  0 
    3.1922   -5.4455    0.2565 C   0  0  0  0  0  0  0  0  0  0  0  0 
    2.5071   -0.3366   -0.0850 C   0  0  0  0  0  0  0  0  0  0  0  0 
    5.4422   -1.2456    1.1820 C   0  0  0  0  0  0  0  0  0  0  0  0 
    2.3906   -2.9697   -0.1204 C   0  0  0  0  0  0  0  0  0  0  0  0 
    3.2485   -3.9569    0.2701 C   0  0  0  0  0  0  0  0  0  0  0  0 
    3.0620   -1.7145    0.1554 C   0  0  0  0  0  0  0  0  0  0  0  0 
    4.2743   -2.0393    0.6943 C   0  0  0  0  0  0  0  0  0  0  0  0 
    4.4009   -3.4047    0.7697 O   0  0  0  0  0  0  0  0  0  0  0  0 
    1.1502    1.1420    0.7837 H   0  0  0  0  0  0  0  0  0  0  0  0 
    2.0341    0.1778    1.9842 H   0  0  0  0  0  0  0  0  0  0  0  0 
    0.6776   -0.5356    1.1042 H   0  0  0  0  0  0  0  0  0  0  0  0 
    7.5689   -0.9244    0.8068 H   0  0  0  0  0  0  0  0  0  0  0  0 
    6.6186   -1.2410   -0.6593 H   0  0  0  0  0  0  0  0  0  0  0  0 
    7.0115   -2.5691    0.4437 H   0  0  0  0  0  0  0  0  0  0  0  0 
    0.7864   -4.1830   -0.9024 H   0  0  0  0  0  0  0  0  0  0  0  0 
    0.9586   -2.6160   -1.6983 H   0  0  0  0  0  0  0  0  0  0  0  0 
    0.2410   -2.7128   -0.0903 H   0  0  0  0  0  0  0  0  0  0  0  0 
    2.2371   -5.7876   -0.1512 H   0  0  0  0  0  0  0  0  0  0  0  0 
    3.2969   -5.8616    1.2667 H   0  0  0  0  0  0  0  0  0  0  0  0 
    3.9954   -5.8741   -0.3567 H   0  0  0  0  0  0  0  0  0  0  0  0 
    3.3305    0.3836   -0.1681 H   0  0  0  0  0  0  0  0  0  0  0  0 
    1.9917   -0.3142   -1.0550 H   0  0  0  0  0  0  0  0  0  0  0  0 
    5.1822   -0.1825    1.1264 H   0  0  0  0  0  0  0  0  0  0  0  0 
    5.6161   -1.4652    2.2453 H   0  0  0  0  0  0  0  0  0  0  0  0 
  1 14  1  0  0  0  0 
  1 13  1  0  0  0  0 
  2 17  1  0  0  0  0 
  2 15  1  0  0  0  0 
  2  6  1  0  0  0  0 
  3  7  1  0  0  0  0 
  3 20  1  0  0  0  0 
  4  8  1  0  0  0  0 
  4 22  1  0  0  0  0 
  5  9  1  0  0  0  0 
  5  1  1  0  0  0  0 
  6 27  1  0  0  0  0 
  7  9  1  0  0  0  0 
  7  8  2  0  0  0  0 
  8 11  1  0  0  0  0 
  9 10  2  0  0  0  0 
 10 11  1  0  0  0  0 
 10  6  1  0  0  0  0 
 12  1  1  0  0  0  0 
 16  2  1  0  0  0  0 
 18  3  1  0  0  0  0 
 19  3  1  0  0  0  0 
 21  4  1  0  0  0  0 
 23  4  1  0  0  0  0 
 24  5  1  0  0  0  0 
 25  5  1  0  0  0  0 
 26  6  1  0  0  0  0 
M  END 
>  <HBA> 
1 
 
>  <HBD> 
0 
 
>  <TPSA> 
13.14 
 
>  <cid> 
41040 
 
>  <dipole> 
0.56 
 
>  <excitation_energy_1> 
4.796 
 
>  <excitation_energy_2> 
5.173 
 
>  <excitation_energy_3> 
5.332 
 
>  <excitation_energy_4> 
5.536 
 
>  <homo_energy> 
-5.268 
 
>  <homo_lumo_gap> 
6.104 
 
>  <logP> 
3.021 
 
>  <lumo_energy> 
0.835 
 
>  <melting_point> 
19.57 
 
>  <molecular_refractivity> 
48.19 
 
>  <oscillator_strength_1> 
0.022 
 
>  <oscillator_strength_2> 
0.0291 
 
>  <oscillator_strength_3> 
0.0342 
 
>  <oscillator_strength_4> 
0.025 
 
>  <open_babel_can_smiles> 
CCc1c(CC)oc(c1C)C 
 
>  <mulliken_charges> 
27 
1   -0.434903 
2   -0.440294 
3   -0.539208 
4   -0.533816 
5   -0.340964 
6   -0.342578 
7   0.064258 
8   0.288622 
9   0.056222 
10   0.287197 
11   -0.489215 
12   0.139499 
13   0.147212 
14   0.148307 
15   0.140794 
16   0.147798 
17   0.161256 
18   0.152111 
19   0.156769 
20   0.158201 
21   0.160739 
22   0.165738 
23   0.165386 
24   0.140031 
25   0.140317 
26   0.147668 
27   0.152855 
 
>  <lowdin_charges> 
27 
1   -0.441242 
2   -0.440736 
3   -0.43797 
4   -0.442566 
5   -0.267826 
6   -0.270931 
7   -0.066753 
8   0.051089 
9   -0.068744 
10   0.051652 
11   -0.124051 
12   0.146456 
13   0.149124 
14   0.14914 
15   0.149367 
16   0.149049 
17   0.154922 
18   0.155014 
19   0.155861 
20   0.156559 
21   0.163797 
22   0.162579 
23   0.163799 
24   0.148552 
25   0.147315 
26   0.15358 
27   0.152963 
 
$$$$ 
 
