PCCDB-ID:  15435 
public computational chemistry database (PCCDB) project, http://pccdb.org 
 
 20 21  0  0  0  0  0  0  0  0999 V2000 
    1.5749    0.2968   -0.7125 C   0  0  0  0  0  0  0  0  0  0  0  0 
    4.9164    3.6226    4.2856 C   0  0  0  0  0  0  0  0  0  0  0  0 
    5.5237    2.4177    4.6987 C   0  0  0  0  0  0  0  0  0  0  0  0 
    4.0339    3.6556    3.2137 C   0  0  0  0  0  0  0  0  0  0  0  0 
    5.2660    1.2126    4.0516 C   0  0  0  0  0  0  0  0  0  0  0  0 
    2.9394    2.0562    1.4319 C   0  0  0  0  0  0  0  0  0  0  0  0 
    2.5488   -0.2582    0.3147 C   0  0  0  0  0  0  0  0  0  0  0  0 
    3.7566    2.4516    2.5426 C   0  0  0  0  0  0  0  0  0  0  0  0 
    4.3802    1.2641    2.9793 C   0  0  0  0  0  0  0  0  0  0  0  0 
    3.1145    0.7076    1.2762 C   0  0  0  0  0  0  0  0  0  0  0  0 
    2.8499   -1.4397    0.3537 O   0  0  0  0  0  0  0  0  0  0  0  0 
    3.9919    0.2078    2.2134 O   0  0  0  0  0  0  0  0  0  0  0  0 
    0.6768    0.6920   -0.2227 H   0  0  0  0  0  0  0  0  0  0  0  0 
    1.2895   -0.5084   -1.3917 H   0  0  0  0  0  0  0  0  0  0  0  0 
    2.0256    1.1154   -1.2854 H   0  0  0  0  0  0  0  0  0  0  0  0 
    5.1469    4.5403    4.8192 H   0  0  0  0  0  0  0  0  0  0  0  0 
    6.2080    2.4310    5.5422 H   0  0  0  0  0  0  0  0  0  0  0  0 
    3.5700    4.5869    2.9015 H   0  0  0  0  0  0  0  0  0  0  0  0 
    5.7250    0.2790    4.3585 H   0  0  0  0  0  0  0  0  0  0  0  0 
    2.3034    2.6898    0.8294 H   0  0  0  0  0  0  0  0  0  0  0  0 
  1 13  1  0  0  0  0 
  1  7  1  0  0  0  0 
  2  3  1  0  0  0  0 
  2 16  1  0  0  0  0 
  3 17  1  0  0  0  0 
  4  2  2  0  0  0  0 
  5 19  1  0  0  0  0 
  5  3  2  0  0  0  0 
  6  8  1  0  0  0  0 
  7 11  2  0  0  0  0 
  7 10  1  0  0  0  0 
  8  9  2  0  0  0  0 
  8  4  1  0  0  0  0 
  9  5  1  0  0  0  0 
 10  6  2  0  0  0  0 
 10 12  1  0  0  0  0 
 12  9  1  0  0  0  0 
 14  1  1  0  0  0  0 
 15  1  1  0  0  0  0 
 18  4  1  0  0  0  0 
 20  6  1  0  0  0  0 
M  END 
>  <HBA> 
2 
 
>  <HBD> 
0 
 
>  <TPSA> 
30.21 
 
>  <cid> 
15435 
 
>  <dipole> 
3.81 
 
>  <excitation_energy_1> 
3.652 
 
>  <excitation_energy_2> 
4.206 
 
>  <excitation_energy_3> 
4.363 
 
>  <excitation_energy_4> 
5.448 
 
>  <homo_energy> 
-6.359 
 
>  <homo_lumo_gap> 
4.569 
 
>  <logP> 
2.635 
 
>  <lumo_energy> 
-1.791 
 
>  <melting_point> 
82.78 
 
>  <molecular_refractivity> 
46.41 
 
>  <oscillator_strength_1> 
0.0001 
 
>  <oscillator_strength_2> 
0.0704 
 
>  <oscillator_strength_3> 
0.429 
 
>  <oscillator_strength_4> 
0.0358 
 
>  <open_babel_can_smiles> 
CC(=O)c1cc2c(o1)cccc2 
 
>  <mulliken_charges> 
20 
1   -0.541757 
2   -0.136913 
3   -0.141811 
4   -0.196963 
5   -0.184258 
6   -0.241539 
7   0.389649 
8   0.115795 
9   0.334797 
10   0.288542 
11   -0.442048 
12   -0.496272 
13   0.174114 
14   0.185986 
15   0.170187 
16   0.134488 
17   0.138875 
18   0.138159 
19   0.155135 
20   0.155834 
 
>  <lowdin_charges> 
20 
1   -0.474988 
2   -0.165125 
3   -0.146925 
4   -0.154152 
5   -0.172855 
6   -0.188593 
7   0.145441 
8   -0.032069 
9   0.094444 
10   0.045492 
11   -0.22468 
12   -0.087893 
13   0.172569 
14   0.178537 
15   0.170369 
16   0.161582 
17   0.163448 
18   0.162933 
19   0.174909 
20   0.177556 
 
$$$$ 
 
