PCCDB-ID:  56269 
public computational chemistry database (PCCDB) project, http://pccdb.org 
 
 32 32  0  0  0  0  0  0  0  0999 V2000 
    2.5398   -0.3623    0.5424 C   0  0  0  0  0  0  0  0  0  0  0  0 
    2.7262    1.9584   -0.2939 C   0  0  0  0  0  0  0  0  0  0  0  0 
   12.0586   -0.6828    0.9553 C   0  0  0  0  0  0  0  0  0  0  0  0 
   11.3895   -1.7219    1.6041 C   0  0  0  0  0  0  0  0  0  0  0  0 
   11.5422    0.6128    1.0179 C   0  0  0  0  0  0  0  0  0  0  0  0 
    7.1492   -0.0013    2.1790 C   0  0  0  0  0  0  0  0  0  0  0  0 
   10.2113   -1.4648    2.3066 C   0  0  0  0  0  0  0  0  0  0  0  0 
   10.3641    0.8644    1.7220 C   0  0  0  0  0  0  0  0  0  0  0  0 
    8.3798    0.0995    3.1027 C   0  0  0  0  0  0  0  0  0  0  0  0 
    5.8512    0.2691    2.9332 C   0  0  0  0  0  0  0  0  0  0  0  0 
    9.6805   -0.1700    2.3754 C   0  0  0  0  0  0  0  0  0  0  0  0 
    4.3477    1.1659    1.3301 C   0  0  0  0  0  0  0  0  0  0  0  0 
    3.2706    0.8942    0.5319 N   0  0  0  0  0  0  0  0  0  0  0  0 
    4.9372    2.2358    1.3655 O   0  0  0  0  0  0  0  0  0  0  0  0 
    4.6963    0.0881    2.0900 O   0  0  0  0  0  0  0  0  0  0  0  0 
    2.4108   -0.7245   -0.4858 H   0  0  0  0  0  0  0  0  0  0  0  0 
    1.5413   -0.2340    0.9849 H   0  0  0  0  0  0  0  0  0  0  0  0 
    3.0870   -1.1082    1.1139 H   0  0  0  0  0  0  0  0  0  0  0  0 
    2.6583    1.6302   -1.3392 H   0  0  0  0  0  0  0  0  0  0  0  0 
    3.3822    2.8250   -0.2264 H   0  0  0  0  0  0  0  0  0  0  0  0 
    1.7191    2.2406    0.0442 H   0  0  0  0  0  0  0  0  0  0  0  0 
   12.9778   -0.8798    0.4099 H   0  0  0  0  0  0  0  0  0  0  0  0 
   11.7857   -2.7335    1.5662 H   0  0  0  0  0  0  0  0  0  0  0  0 
   12.0582    1.4300    0.5203 H   0  0  0  0  0  0  0  0  0  0  0  0 
    7.1050   -1.0004    1.7274 H   0  0  0  0  0  0  0  0  0  0  0  0 
    7.2409    0.7220    1.3615 H   0  0  0  0  0  0  0  0  0  0  0  0 
    9.6970   -2.2796    2.8125 H   0  0  0  0  0  0  0  0  0  0  0  0 
    9.9692    1.8772    1.7678 H   0  0  0  0  0  0  0  0  0  0  0  0 
    8.2686   -0.6108    3.9332 H   0  0  0  0  0  0  0  0  0  0  0  0 
    8.4092    1.1017    3.5505 H   0  0  0  0  0  0  0  0  0  0  0  0 
    5.8393    1.2834    3.3407 H   0  0  0  0  0  0  0  0  0  0  0  0 
    5.7098   -0.4492    3.7467 H   0  0  0  0  0  0  0  0  0  0  0  0 
  1 17  1  0  0  0  0 
  1 18  1  0  0  0  0 
  2 20  1  0  0  0  0 
  2 21  1  0  0  0  0 
  2 13  1  0  0  0  0 
  3  5  2  0  0  0  0 
  3  4  1  0  0  0  0 
  4  7  2  0  0  0  0 
  5  8  1  0  0  0  0 
  6 10  1  0  0  0  0 
  6  9  1  0  0  0  0 
  7 11  1  0  0  0  0 
  7 27  1  0  0  0  0 
  8 28  1  0  0  0  0 
  8 11  2  0  0  0  0 
  9 30  1  0  0  0  0 
  9 29  1  0  0  0  0 
 10 31  1  0  0  0  0 
 10 32  1  0  0  0  0 
 11  9  1  0  0  0  0 
 12 14  2  0  0  0  0 
 12 15  1  0  0  0  0 
 13  1  1  0  0  0  0 
 13 12  1  0  0  0  0 
 15 10  1  0  0  0  0 
 16  1  1  0  0  0  0 
 19  2  1  0  0  0  0 
 22  3  1  0  0  0  0 
 23  4  1  0  0  0  0 
 24  5  1  0  0  0  0 
 25  6  1  0  0  0  0 
 26  6  1  0  0  0  0 
M  END 
>  <HBA> 
3 
 
>  <HBD> 
0 
 
>  <TPSA> 
29.54 
 
>  <cid> 
56269 
 
>  <dipole> 
2.24 
 
>  <excitation_energy_1> 
5.3 
 
>  <excitation_energy_2> 
5.861 
 
>  <excitation_energy_3> 
5.919 
 
>  <excitation_energy_4> 
6.023 
 
>  <homo_energy> 
-6.373 
 
>  <homo_lumo_gap> 
6.501 
 
>  <logP> 
2.317 
 
>  <lumo_energy> 
0.128 
 
>  <melting_point> 
29.24 
 
>  <molecular_refractivity> 
60.01 
 
>  <oscillator_strength_1> 
0.0007 
 
>  <oscillator_strength_2> 
0.0732 
 
>  <oscillator_strength_3> 
0.0132 
 
>  <oscillator_strength_4> 
0.0042 
 
>  <open_babel_can_smiles> 
O=C(N(C)C)OCCCc1ccccc1 
 
>  <mulliken_charges> 
32 
1   -0.313558 
2   -0.316377 
3   -0.131294 
4   -0.128235 
5   -0.128299 
6   -0.273279 
7   -0.180238 
8   -0.179448 
9   -0.360287 
10   -0.030832 
11   0.173032 
12   0.796531 
13   -0.436391 
14   -0.534351 
15   -0.501985 
16   0.15255 
17   0.152083 
18   0.195353 
19   0.150649 
20   0.203224 
21   0.150331 
22   0.126842 
23   0.12691 
24   0.128519 
25   0.144063 
26   0.16899 
27   0.119862 
28   0.128023 
29   0.138757 
30   0.148733 
31   0.167703 
32   0.142421 
 
>  <lowdin_charges> 
32 
1   -0.351681 
2   -0.349446 
3   -0.161048 
4   -0.155138 
5   -0.156068 
6   -0.285717 
7   -0.170271 
8   -0.165776 
9   -0.272347 
10   -0.129016 
11   0.001739 
12   0.207762 
13   -0.110079 
14   -0.32937 
15   -0.213283 
16   0.148501 
17   0.145476 
18   0.179191 
19   0.146696 
20   0.184661 
21   0.145246 
22   0.156374 
23   0.155491 
24   0.15821 
25   0.146958 
26   0.160897 
27   0.153945 
28   0.155739 
29   0.146805 
30   0.150841 
31   0.157083 
32   0.147624 
 
$$$$ 
 
