PCCDB-ID:  15246 
public computational chemistry database (PCCDB) project, http://pccdb.org 
 
 15 14  0  0  0  0  0  0  0  0999 V2000 
    0.9624    0.0856   -0.0018 C   0  0  0  0  0  0  0  0  0  0  0  0 
    2.9260    0.5500    1.5332 C   0  0  0  0  0  0  0  0  0  0  0  0 
    4.7969   -1.6122   -0.1703 C   0  0  0  0  0  0  0  0  0  0  0  0 
    2.4826    0.0077    0.1722 C   0  0  0  0  0  0  0  0  0  0  0  0 
    2.9776   -1.7576   -0.0915 S   0  0  0  0  0  0  0  0  0  0  0  0 
    0.6250    1.1226    0.1129 H   0  0  0  0  0  0  0  0  0  0  0  0 
    0.4499   -0.5193    0.7554 H   0  0  0  0  0  0  0  0  0  0  0  0 
    0.6529   -0.2689   -0.9900 H   0  0  0  0  0  0  0  0  0  0  0  0 
    2.6303    1.6027    1.6342 H   0  0  0  0  0  0  0  0  0  0  0  0 
    4.0120    0.4996    1.6624 H   0  0  0  0  0  0  0  0  0  0  0  0 
    2.4600   -0.0168    2.3467 H   0  0  0  0  0  0  0  0  0  0  0  0 
    5.1804   -2.6087   -0.4053 H   0  0  0  0  0  0  0  0  0  0  0  0 
    5.2264   -1.2909    0.7828 H   0  0  0  0  0  0  0  0  0  0  0  0 
    5.1050   -0.9241   -0.9642 H   0  0  0  0  0  0  0  0  0  0  0  0 
    2.9621    0.5891   -0.6260 H   0  0  0  0  0  0  0  0  0  0  0  0 
  1  6  1  0  0  0  0 
  1  4  1  0  0  0  0 
  1  7  1  0  0  0  0 
  2  9  1  0  0  0  0 
  2 10  1  0  0  0  0 
  2 11  1  0  0  0  0 
  3  5  1  0  0  0  0 
  3 13  1  0  0  0  0 
  4  2  1  0  0  0  0 
  5  4  1  0  0  0  0 
  8  1  1  0  0  0  0 
 12  3  1  0  0  0  0 
 14  3  1  0  0  0  0 
 15  4  1  0  0  0  0 
M  END 
>  <HBA> 
1 
 
>  <HBD> 
0 
 
>  <TPSA> 
25.3 
 
>  <cid> 
15246 
 
>  <dipole> 
1.72 
 
>  <excitation_energy_1> 
5.112 
 
>  <excitation_energy_2> 
5.382 
 
>  <excitation_energy_3> 
5.952 
 
>  <excitation_energy_4> 
6.085 
 
>  <homo_energy> 
-5.842 
 
>  <homo_lumo_gap> 
7.053 
 
>  <logP> 
1.758 
 
>  <lumo_energy> 
1.211 
 
>  <melting_point> 
-16.26 
 
>  <molecular_refractivity> 
28.93 
 
>  <oscillator_strength_1> 
0.0004 
 
>  <oscillator_strength_2> 
0.0151 
 
>  <oscillator_strength_3> 
0.0179 
 
>  <oscillator_strength_4> 
0.0056 
 
>  <open_babel_can_smiles> 
CSC(C)C 
 
>  <mulliken_charges> 
15 
1   -0.45077 
2   -0.434194 
3   -0.587739 
4   -0.218144 
5   0.078681 
6   0.148788 
7   0.159424 
8   0.163453 
9   0.144437 
10   0.147553 
11   0.159091 
12   0.182978 
13   0.177074 
14   0.173068 
15   0.156299 
 
>  <lowdin_charges> 
15 
1   -0.445312 
2   -0.445378 
3   -0.549274 
4   -0.213797 
5   0.081352 
6   0.1526 
7   0.157856 
8   0.16021 
9   0.148965 
10   0.149101 
11   0.158034 
12   0.175833 
13   0.15973 
14   0.160714 
15   0.149365 
 
$$$$ 
 
