PCCDB-ID:  11954 
public computational chemistry database (PCCDB) project, http://pccdb.org 
 
 19 19  0  0  0  0  0  0  0  0999 V2000 
    3.3575   -0.4579   -2.3696 C   0  0  0  0  0  0  0  0  0  0  0  0 
    1.4294    4.4223   -2.6128 C   0  0  0  0  0  0  0  0  0  0  0  0 
    2.4142    4.5164   -1.6271 C   0  0  0  0  0  0  0  0  0  0  0  0 
    0.8730    3.1797   -2.9224 C   0  0  0  0  0  0  0  0  0  0  0  0 
    2.8367    3.3725   -0.9510 C   0  0  0  0  0  0  0  0  0  0  0  0 
    1.3032    2.0323   -2.2558 C   0  0  0  0  0  0  0  0  0  0  0  0 
    2.2913    2.1164   -1.2641 C   0  0  0  0  0  0  0  0  0  0  0  0 
    2.7492    0.9004   -0.5156 C   0  0  0  0  0  0  0  0  0  0  0  0 
    3.1657   -0.2108   -0.9561 N   0  0  0  0  0  0  0  0  0  0  0  0 
    2.7334    1.0503    0.8505 O   0  0  0  0  0  0  0  0  0  0  0  0 
    4.3582   -0.8825   -2.5155 H   0  0  0  0  0  0  0  0  0  0  0  0 
    3.2587    0.4216   -3.0222 H   0  0  0  0  0  0  0  0  0  0  0  0 
    2.6430   -1.2196   -2.7090 H   0  0  0  0  0  0  0  0  0  0  0  0 
    1.0963    5.3139   -3.1369 H   0  0  0  0  0  0  0  0  0  0  0  0 
    2.8545    5.4800   -1.3857 H   0  0  0  0  0  0  0  0  0  0  0  0 
    0.0998    3.1031   -3.6820 H   0  0  0  0  0  0  0  0  0  0  0  0 
    3.6078    3.4448   -0.1881 H   0  0  0  0  0  0  0  0  0  0  0  0 
    0.8603    1.0688   -2.4896 H   0  0  0  0  0  0  0  0  0  0  0  0 
    2.2149    1.8423    1.0629 H   0  0  0  0  0  0  0  0  0  0  0  0 
  1  9  1  0  0  0  0 
  2  3  1  0  0  0  0 
  3 15  1  0  0  0  0 
  3  5  2  0  0  0  0 
  4  2  2  0  0  0  0 
  4  6  1  0  0  0  0 
  5 17  1  0  0  0  0 
  6  7  2  0  0  0  0 
  7  5  1  0  0  0  0 
  7  8  1  0  0  0  0 
  8 10  1  0  0  0  0 
  9  8  2  0  0  0  0 
 10 19  1  0  0  0  0 
 11  1  1  0  0  0  0 
 12  1  1  0  0  0  0 
 13  1  1  0  0  0  0 
 14  2  1  0  0  0  0 
 16  4  1  0  0  0  0 
 18  6  1  0  0  0  0 
M  END 
>  <HBA> 
2 
 
>  <HBD> 
1 
 
>  <TPSA> 
29.1 
 
>  <cid> 
11954 
 
>  <dipole> 
4.05 
 
>  <excitation_energy_1> 
4.632 
 
>  <excitation_energy_2> 
5.099 
 
>  <excitation_energy_3> 
5.111 
 
>  <excitation_energy_4> 
5.233 
 
>  <homo_energy> 
-6.531 
 
>  <homo_lumo_gap> 
5.682 
 
>  <logP> 
1.437 
 
>  <lumo_energy> 
-0.849 
 
>  <melting_point> 
65.39 
 
>  <molecular_refractivity> 
39.44 
 
>  <oscillator_strength_1> 
0.0021 
 
>  <oscillator_strength_2> 
0.0499 
 
>  <oscillator_strength_3> 
0.0541 
 
>  <oscillator_strength_4> 
0.0154 
 
>  <open_babel_can_smiles> 
C/N=C(\c1ccccc1)/O 
 
>  <mulliken_charges> 
19 
1   -0.326892 
2   -0.122771 
3   -0.129454 
4   -0.133525 
5   -0.178847 
6   -0.157395 
7   0.041136 
8   0.416065 
9   -0.3974 
10   -0.580681 
11   0.159993 
12   0.135844 
13   0.152808 
14   0.139123 
15   0.14006 
16   0.14016 
17   0.149616 
18   0.150551 
19   0.401609 
 
>  <lowdin_charges> 
19 
1   -0.359832 
2   -0.14901 
3   -0.152312 
4   -0.150971 
5   -0.162095 
6   -0.150715 
7   -0.045682 
8   0.121366 
9   -0.193951 
10   -0.373487 
11   0.154212 
12   0.135366 
13   0.152095 
14   0.163014 
15   0.16257 
16   0.163058 
17   0.165929 
18   0.16774 
19   0.352704 
 
$$$$ 
 
