PCCDB-ID:  24255 
public computational chemistry database (PCCDB) project, http://pccdb.org 
 
 12 12  0  0  0  0  0  0  0  0999 V2000 
    0.9368    0.0764    0.0844 C   0  0  0  0  0  0  0  0  0  0  0  0 
   -3.2204    2.3677    0.0935 C   0  0  0  0  0  0  0  0  0  0  0  0 
   -3.1261   -2.3784    0.0809 C   0  0  0  0  0  0  0  0  0  0  0  0 
   -0.5085    0.0475    0.0854 C   0  0  0  0  0  0  0  0  0  0  0  0 
   -2.4730    1.1303    0.0898 C   0  0  0  0  0  0  0  0  0  0  0  0 
   -2.4284   -1.1123    0.0838 C   0  0  0  0  0  0  0  0  0  0  0  0 
    2.0971    0.0997    0.0834 N   0  0  0  0  0  0  0  0  0  0  0  0 
   -3.8202    3.3612    0.0963 N   0  0  0  0  0  0  0  0  0  0  0  0 
   -3.6860   -3.3949    0.0787 N   0  0  0  0  0  0  0  0  0  0  0  0 
   -1.1380    1.2289    0.0890 N   0  0  0  0  0  0  0  0  0  0  0  0 
   -1.0906   -1.1579    0.0828 N   0  0  0  0  0  0  0  0  0  0  0  0 
   -3.1814   -0.0055    0.0873 N   0  0  0  0  0  0  0  0  0  0  0  0 
  1  4  1  0  0  0  0 
  2  8  3  0  0  0  0 
  3  6  1  0  0  0  0 
  4 10  2  0  0  0  0 
  5  2  1  0  0  0  0 
  6 12  1  0  0  0  0 
  7  1  3  0  0  0  0 
  9  3  3  0  0  0  0 
 10  5  2  0  0  0  0 
 11  6  2  0  0  0  0 
 11  4  1  0  0  0  0 
 12  5  1  0  0  0  0 
M  RAD  1  12   2 
M  END 
>  <HBA> 
6 
 
>  <HBD> 
0 
 
>  <TPSA> 
110.04 
 
>  <cid> 
24255 
 
>  <dipole> 
0.0 
 
>  <excitation_energy_1> 
4.095 
 
>  <excitation_energy_2> 
4.146 
 
>  <excitation_energy_3> 
4.158 
 
>  <excitation_energy_4> 
4.158 
 
>  <homo_energy> 
-9.617 
 
>  <homo_lumo_gap> 
5.437 
 
>  <logP> 
-0.513 
 
>  <lumo_energy> 
-4.18 
 
>  <melting_point> 
165.05 
 
>  <molecular_refractivity> 
33.97 
 
>  <oscillator_strength_1> 
0.0 
 
>  <oscillator_strength_2> 
0.0063 
 
>  <oscillator_strength_3> 
0.0 
 
>  <oscillator_strength_4> 
0.0 
 
>  <open_babel_can_smiles> 
N#CC1=NC(=[N]=C([N]1)C#N)C#N 
 
>  <mulliken_charges> 
12 
1   0.358807 
2   0.358798 
3   0.358766 
4   0.482943 
5   0.483121 
6   0.483224 
7   -0.434536 
8   -0.434547 
9   -0.434556 
10   -0.407322 
11   -0.407322 
12   -0.407377 
 
>  <lowdin_charges> 
12 
1   0.001917 
2   0.003456 
3   0.003333 
4   0.122789 
5   0.121777 
6   0.121853 
7   -0.027394 
8   -0.027213 
9   -0.027251 
10   -0.097633 
11   -0.097586 
12   -0.098049 
 
$$$$ 
 
