PCCDB-ID:  16967 
public computational chemistry database (PCCDB) project, http://pccdb.org 
 
 31 30  0  0  1  0  0  0  0  0999 V2000 
    0.8105   -0.0036   -0.0695 C   0  0  0  0  0  0  0  0  0  0  0  0 
    2.7463   -1.5967   -0.3726 C   0  0  0  0  0  0  0  0  0  0  0  0 
    8.5954    4.8043   -3.5183 C   0  0  0  0  0  0  0  0  0  0  0  0 
    3.0018    0.8853   -0.9523 C   0  0  0  0  0  0  0  0  0  0  0  0 
    6.7440    3.3625   -2.5323 C   0  0  0  0  0  0  0  0  0  0  0  0 
    4.5234    0.9427   -0.8608 C   0  0  0  0  0  0  0  0  0  0  0  0 
    6.3847    2.1626   -1.6639 C   0  0  0  0  0  0  0  0  0  0  0  0 
    2.3386   -0.1548   -0.0293 C   0  0  0  0  0  0  0  0  0  0  0  0 
    8.2533    3.6284   -2.6016 C   0  0  2  0  0  0  0  0  0  0  0  0 
    8.8151    3.8145   -1.2968 O   0  0  0  0  0  0  0  0  0  0  0  0 
    4.9747    2.0239   -1.6584 O   0  0  0  0  0  0  0  0  0  0  0  0 
    0.3241   -0.7089    0.6147 H   0  0  0  0  0  0  0  0  0  0  0  0 
    0.4247   -0.1998   -1.0784 H   0  0  0  0  0  0  0  0  0  0  0  0 
    0.5009    1.0094    0.2136 H   0  0  0  0  0  0  0  0  0  0  0  0 
    2.2384   -2.3131    0.2839 H   0  0  0  0  0  0  0  0  0  0  0  0 
    3.8243   -1.7596   -0.2659 H   0  0  0  0  0  0  0  0  0  0  0  0 
    2.4725   -1.8433   -1.4070 H   0  0  0  0  0  0  0  0  0  0  0  0 
    8.2536    4.6243   -4.5440 H   0  0  0  0  0  0  0  0  0  0  0  0 
    9.6772    4.9697   -3.5341 H   0  0  0  0  0  0  0  0  0  0  0  0 
    8.1124    5.7256   -3.1647 H   0  0  0  0  0  0  0  0  0  0  0  0 
    2.7173    0.6915   -1.9960 H   0  0  0  0  0  0  0  0  0  0  0  0 
    2.6198    1.8847   -0.7064 H   0  0  0  0  0  0  0  0  0  0  0  0 
    6.2316    4.2519   -2.1364 H   0  0  0  0  0  0  0  0  0  0  0  0 
    6.3506    3.2021   -3.5443 H   0  0  0  0  0  0  0  0  0  0  0  0 
    4.9812    0.0023   -1.2101 H   0  0  0  0  0  0  0  0  0  0  0  0 
    4.8394    1.0846    0.1885 H   0  0  0  0  0  0  0  0  0  0  0  0 
    6.7676    2.3064   -0.6419 H   0  0  0  0  0  0  0  0  0  0  0  0 
    6.8592    1.2474   -2.0610 H   0  0  0  0  0  0  0  0  0  0  0  0 
    2.6680    0.0531    1.0009 H   0  0  0  0  0  0  0  0  0  0  0  0 
    8.7564    2.7281   -2.9770 H   0  0  0  0  0  0  0  0  0  0  0  0 
    8.4205    4.6222   -0.9285 H   0  0  0  0  0  0  0  0  0  0  0  0 
  1  8  1  0  0  0  0 
  1 14  1  0  0  0  0 
  1 12  1  0  0  0  0 
  2 16  1  0  0  0  0 
  2  8  1  0  0  0  0 
  2 15  1  0  0  0  0 
  3 20  1  0  0  0  0 
  3  9  1  0  0  0  0 
  4  6  1  0  0  0  0 
  4 22  1  0  0  0  0 
  4  8  1  0  0  0  0 
  5 23  1  0  0  0  0 
  5  7  1  0  0  0  0 
  6 26  1  0  0  0  0 
  7 11  1  0  0  0  0 
  7 27  1  0  0  0  0 
  8 29  1  0  0  0  0 
  9 30  1  6  0  0  0 
  9  5  1  0  0  0  0 
  9 10  1  0  0  0  0 
 10 31  1  0  0  0  0 
 11  6  1  0  0  0  0 
 13  1  1  0  0  0  0 
 17  2  1  0  0  0  0 
 18  3  1  0  0  0  0 
 19  3  1  0  0  0  0 
 21  4  1  0  0  0  0 
 24  5  1  0  0  0  0 
 25  6  1  0  0  0  0 
 28  7  1  0  0  0  0 
M  END 
>  <HBA> 
2 
 
>  <HBD> 
1 
 
>  <TPSA> 
29.46 
 
>  <cid> 
16967 
 
>  <dipole> 
0.6 
 
>  <excitation_energy_1> 
6.436 
 
>  <excitation_energy_2> 
6.614 
 
>  <excitation_energy_3> 
6.786 
 
>  <excitation_energy_4> 
6.807 
 
>  <homo_energy> 
-6.689 
 
>  <homo_lumo_gap> 
8.61 
 
>  <logP> 
1.82 
 
>  <lumo_energy> 
1.921 
 
>  <melting_point> 
-18.89 
 
>  <molecular_refractivity> 
47.62 
 
>  <oscillator_strength_1> 
0.0137 
 
>  <oscillator_strength_2> 
0.0159 
 
>  <oscillator_strength_3> 
0.0169 
 
>  <oscillator_strength_4> 
0.0089 
 
>  <open_babel_can_smiles> 
CC(CCOCC[C@H](O)C)C 
 
>  <mulliken_charges> 
31 
1   -0.440367 
2   -0.446067 
3   -0.455758 
4   -0.264902 
5   -0.288126 
6   -0.00531 
7   0.001872 
8   -0.074694 
9   0.130069 
10   -0.61935 
11   -0.489584 
12   0.139385 
13   0.139956 
14   0.141116 
15   0.141006 
16   0.144199 
17   0.140301 
18   0.145709 
19   0.158952 
20   0.133059 
21   0.13694 
22   0.141026 
23   0.131112 
24   0.144214 
25   0.118058 
26   0.113078 
27   0.130986 
28   0.112976 
29   0.121398 
30   0.136977 
31   0.381768 
 
>  <lowdin_charges> 
31 
1   -0.4434 
2   -0.446431 
3   -0.456623 
4   -0.279576 
5   -0.297346 
6   -0.128438 
7   -0.128506 
8   -0.118643 
9   0.002254 
10   -0.467449 
11   -0.277111 
12   0.148817 
13   0.145566 
14   0.147516 
15   0.150127 
16   0.14602 
17   0.145349 
18   0.15366 
19   0.156901 
20   0.14447 
21   0.143648 
22   0.148113 
23   0.143448 
24   0.15221 
25   0.125051 
26   0.120784 
27   0.131463 
28   0.123829 
29   0.133528 
30   0.142747 
31   0.338021 
 
$$$$ 
 
