PCCDB-ID:  69873 
public computational chemistry database (PCCDB) project, http://pccdb.org 
 
 27 28  0  0  0  0  0  0  0  0999 V2000 
   -1.5482    0.0330   -0.1169 C   0  0  0  0  0  0  0  0  0  0  0  0 
   -0.9078   -0.1017   -1.3509 C   0  0  0  0  0  0  0  0  0  0  0  0 
   -0.7846    0.2405    1.0319 C   0  0  0  0  0  0  0  0  0  0  0  0 
    0.4826   -0.0294   -1.4325 C   0  0  0  0  0  0  0  0  0  0  0  0 
    0.6069    0.3117    0.9439 C   0  0  0  0  0  0  0  0  0  0  0  0 
    3.2733    1.4552   -1.2084 C   0  0  0  0  0  0  0  0  0  0  0  0 
    3.4240   -1.0454   -0.8842 C   0  0  0  0  0  0  0  0  0  0  0  0 
    4.8040    1.4872   -1.2733 C   0  0  0  0  0  0  0  0  0  0  0  0 
    4.9484   -0.9122   -0.9618 C   0  0  0  0  0  0  0  0  0  0  0  0 
    1.2648    0.1784   -0.2856 C   0  0  0  0  0  0  0  0  0  0  0  0 
    2.7800    0.2592   -0.3620 C   0  0  0  0  0  0  0  0  0  0  0  0 
    5.3004    0.2222   -1.8167 N   0  0  0  0  0  0  0  0  0  0  0  0 
   -2.6316   -0.0233   -0.0530 H   0  0  0  0  0  0  0  0  0  0  0  0 
   -1.4929   -0.2636   -2.2528 H   0  0  0  0  0  0  0  0  0  0  0  0 
   -1.2703    0.3470    1.9987 H   0  0  0  0  0  0  0  0  0  0  0  0 
    0.9647   -0.1364   -2.4011 H   0  0  0  0  0  0  0  0  0  0  0  0 
    1.1944    0.4730    1.8455 H   0  0  0  0  0  0  0  0  0  0  0  0 
    2.8800    1.3733   -2.2292 H   0  0  0  0  0  0  0  0  0  0  0  0 
    2.8948    2.3938   -0.7852 H   0  0  0  0  0  0  0  0  0  0  0  0 
    3.1526   -1.8839   -0.2309 H   0  0  0  0  0  0  0  0  0  0  0  0 
    3.0404   -1.2728   -1.8864 H   0  0  0  0  0  0  0  0  0  0  0  0 
    5.2017    1.6990   -0.2594 H   0  0  0  0  0  0  0  0  0  0  0  0 
    5.1362    2.3021   -1.9273 H   0  0  0  0  0  0  0  0  0  0  0  0 
    5.3847   -1.8216   -1.3919 H   0  0  0  0  0  0  0  0  0  0  0  0 
    5.3521   -0.8112    0.0669 H   0  0  0  0  0  0  0  0  0  0  0  0 
    3.1531    0.4144    0.6618 H   0  0  0  0  0  0  0  0  0  0  0  0 
    6.3109    0.2685   -1.9289 H   0  0  0  0  0  0  0  0  0  0  0  0 
  1 13  1  0  0  0  0 
  1  3  2  0  0  0  0 
  2  1  1  0  0  0  0 
  3 15  1  0  0  0  0 
  4  2  2  0  0  0  0 
  4 10  1  0  0  0  0 
  5  3  1  0  0  0  0 
  5 17  1  0  0  0  0 
  6 19  1  0  0  0  0 
  6 11  1  0  0  0  0 
  7 11  1  0  0  0  0 
  7 20  1  0  0  0  0 
  8  6  1  0  0  0  0 
  8 22  1  0  0  0  0 
  9  7  1  0  0  0  0 
  9 25  1  0  0  0  0 
 10  5  2  0  0  0  0 
 11 10  1  0  0  0  0 
 11 26  1  0  0  0  0 
 12  8  1  0  0  0  0 
 12  9  1  0  0  0  0 
 14  2  1  0  0  0  0 
 16  4  1  0  0  0  0 
 18  6  1  0  0  0  0 
 21  7  1  0  0  0  0 
 23  8  1  0  0  0  0 
 24  9  1  0  0  0  0 
 27 12  1  0  0  0  0 
M  END 
>  <HBA> 
1 
 
>  <HBD> 
1 
 
>  <TPSA> 
12.03 
 
>  <cid> 
69873 
 
>  <dipole> 
1.04 
 
>  <excitation_energy_1> 
5.297 
 
>  <excitation_energy_2> 
5.302 
 
>  <excitation_energy_3> 
5.414 
 
>  <excitation_energy_4> 
5.472 
 
>  <homo_energy> 
-5.929 
 
>  <homo_lumo_gap> 
6.065 
 
>  <logP> 
2.482 
 
>  <lumo_energy> 
0.136 
 
>  <melting_point> 
54.25 
 
>  <molecular_refractivity> 
55.24 
 
>  <oscillator_strength_1> 
0.0017 
 
>  <oscillator_strength_2> 
0.0025 
 
>  <oscillator_strength_3> 
0.0001 
 
>  <oscillator_strength_4> 
0.0004 
 
>  <open_babel_can_smiles> 
N1CCC(CC1)c1ccccc1 
 
>  <mulliken_charges> 
27 
1   -0.131086 
2   -0.13125 
3   -0.12686 
4   -0.185828 
5   -0.197156 
6   -0.249195 
7   -0.249327 
8   -0.133171 
9   -0.133546 
10   0.188552 
11   -0.187757 
12   -0.545987 
13   0.125871 
14   0.126821 
15   0.126017 
16   0.128658 
17   0.121306 
18   0.142989 
19   0.134416 
20   0.134483 
21   0.142975 
22   0.106613 
23   0.13609 
24   0.136062 
25   0.106615 
26   0.11875 
27   0.294946 
 
>  <lowdin_charges> 
27 
1   -0.159678 
2   -0.156491 
3   -0.156747 
4   -0.166266 
5   -0.171036 
6   -0.278447 
7   -0.279294 
8   -0.205023 
9   -0.204116 
10   0.001862 
11   -0.126215 
12   -0.365182 
13   0.153933 
14   0.156579 
15   0.155821 
16   0.155384 
17   0.153341 
18   0.146208 
19   0.147332 
20   0.147891 
21   0.146422 
22   0.111948 
23   0.146246 
24   0.145667 
25   0.11155 
26   0.136645 
27   0.251668 
 
$$$$ 
 
