PCCDB-ID:  13130 
public computational chemistry database (PCCDB) project, http://pccdb.org 
 
 11 10  0  0  0  0  0  0  0  0999 V2000 
    1.6859    0.2802    1.2570 C   0  0  0  0  0  0  0  0  0  0  0  0 
    4.6829    1.2163    0.4580 O   0  0  0  0  0  0  0  0  0  0  0  0 
    3.7989    0.8603   -1.8940 O   0  0  0  0  0  0  0  0  0  0  0  0 
    2.7746    2.7444   -0.3694 O   0  0  0  0  0  0  0  0  0  0  0  0 
    2.3940    0.1654    0.0068 O   0  0  0  0  0  0  0  0  0  0  0  0 
    3.3465    1.3873   -0.4346 P   0  0  0  0  0  0  0  0  0  0  0  0 
    1.0361   -0.5936    1.3206 H   0  0  0  0  0  0  0  0  0  0  0  0 
    1.0892    1.1960    1.2739 H   0  0  0  0  0  0  0  0  0  0  0  0 
    2.3897    0.2801    2.0962 H   0  0  0  0  0  0  0  0  0  0  0  0 
    5.1316    0.3692    0.2954 H   0  0  0  0  0  0  0  0  0  0  0  0 
    3.5350    1.5068   -2.5690 H   0  0  0  0  0  0  0  0  0  0  0  0 
  1  8  1  0  0  0  0 
  1  7  1  0  0  0  0 
  1  9  1  0  0  0  0 
  3  6  1  0  0  0  0 
  5  1  1  0  0  0  0 
  6  4  2  0  0  0  0 
  6  5  1  0  0  0  0 
  6  2  1  0  0  0  0 
 10  2  1  0  0  0  0 
 11  3  1  0  0  0  0 
M  END 
>  <HBA> 
4 
 
>  <HBD> 
2 
 
>  <TPSA> 
76.57 
 
>  <cid> 
13130 
 
>  <dipole> 
2.68 
 
>  <excitation_energy_1> 
6.787 
 
>  <excitation_energy_2> 
7.089 
 
>  <excitation_energy_3> 
7.441 
 
>  <excitation_energy_4> 
7.678 
 
>  <homo_energy> 
-7.976 
 
>  <homo_lumo_gap> 
8.729 
 
>  <logP> 
-0.275 
 
>  <lumo_energy> 
0.754 
 
>  <melting_point> 
56.49 
 
>  <molecular_refractivity> 
18.99 
 
>  <oscillator_strength_1> 
0.0056 
 
>  <oscillator_strength_2> 
0.0296 
 
>  <oscillator_strength_3> 
0.0112 
 
>  <oscillator_strength_4> 
0.0046 
 
>  <open_babel_can_smiles> 
COP(=O)(O)O 
 
>  <mulliken_charges> 
11 
1   -0.225052 
2   -0.634232 
3   -0.645873 
4   -0.547364 
5   -0.50434 
6   1.145283 
7   0.174985 
8   0.187181 
9   0.166157 
10   0.436043 
11   0.44721 
 
>  <lowdin_charges> 
11 
1   -0.271562 
2   -0.562373 
3   -0.571469 
4   -0.578976 
5   -0.395246 
6   1.11381 
7   0.165548 
8   0.168555 
9   0.156281 
10   0.383647 
11   0.391784 
 
$$$$ 
 
