PCCDB-ID:  7584 
public computational chemistry database (PCCDB) project, http://pccdb.org 
 
 35 35  0  0  0  0  0  0  0  0999 V2000 
    5.0187    2.5063    5.7075 C   0  0  0  0  0  0  0  0  0  0  0  0 
    4.6755    1.0382    5.4345 C   0  0  0  0  0  0  0  0  0  0  0  0 
    5.0660    0.5744    4.0254 C   0  0  0  0  0  0  0  0  0  0  0  0 
    5.8820    1.5301   -2.1996 C   0  0  0  0  0  0  0  0  0  0  0  0 
    4.7128   -0.8941    3.7584 C   0  0  0  0  0  0  0  0  0  0  0  0 
    6.8407    0.5318   -2.3877 C   0  0  0  0  0  0  0  0  0  0  0  0 
    5.3747    1.7588   -0.9199 C   0  0  0  0  0  0  0  0  0  0  0  0 
    7.2745   -0.2327   -1.3073 C   0  0  0  0  0  0  0  0  0  0  0  0 
    5.8071    0.9885    0.1601 C   0  0  0  0  0  0  0  0  0  0  0  0 
    5.1266   -1.4278    2.3668 C   0  0  0  0  0  0  0  0  0  0  0  0 
    7.2679   -0.8834    1.0822 C   0  0  0  0  0  0  0  0  0  0  0  0 
    7.3949   -2.3425    3.0806 C   0  0  0  0  0  0  0  0  0  0  0  0 
    6.7537   -0.0365   -0.0143 C   0  0  0  0  0  0  0  0  0  0  0  0 
    6.6175   -1.4683    2.1056 C   0  0  0  0  0  0  0  0  0  0  0  0 
    8.7106   -2.6886    2.6790 O   0  0  0  0  0  0  0  0  0  0  0  0 
    4.7283    2.8022    6.7219 H   0  0  0  0  0  0  0  0  0  0  0  0 
    4.5017    3.1721    5.0055 H   0  0  0  0  0  0  0  0  0  0  0  0 
    6.0954    2.6883    5.6024 H   0  0  0  0  0  0  0  0  0  0  0  0 
    3.5974    0.8805    5.5821 H   0  0  0  0  0  0  0  0  0  0  0  0 
    5.1793    0.4013    6.1757 H   0  0  0  0  0  0  0  0  0  0  0  0 
    6.1435    0.7319    3.8744 H   0  0  0  0  0  0  0  0  0  0  0  0 
    4.5595    1.2112    3.2848 H   0  0  0  0  0  0  0  0  0  0  0  0 
    5.5450    2.1319   -3.0392 H   0  0  0  0  0  0  0  0  0  0  0  0 
    3.6273   -1.0279    3.8632 H   0  0  0  0  0  0  0  0  0  0  0  0 
    5.1666   -1.5203    4.5395 H   0  0  0  0  0  0  0  0  0  0  0  0 
    7.2552    0.3526   -3.3764 H   0  0  0  0  0  0  0  0  0  0  0  0 
    4.6459    2.5487   -0.7566 H   0  0  0  0  0  0  0  0  0  0  0  0 
    8.0251   -1.0047   -1.4615 H   0  0  0  0  0  0  0  0  0  0  0  0 
    5.4354    1.2085    1.1548 H   0  0  0  0  0  0  0  0  0  0  0  0 
    4.6185   -0.8567    1.5847 H   0  0  0  0  0  0  0  0  0  0  0  0 
    4.7495   -2.4598    2.2884 H   0  0  0  0  0  0  0  0  0  0  0  0 
    8.3345   -1.0959    1.0160 H   0  0  0  0  0  0  0  0  0  0  0  0 
    6.7991   -3.2470    3.2980 H   0  0  0  0  0  0  0  0  0  0  0  0 
    7.5187   -1.8222    4.0387 H   0  0  0  0  0  0  0  0  0  0  0  0 
    8.6349   -3.1699    1.8394 H   0  0  0  0  0  0  0  0  0  0  0  0 
  1 16  1  0  0  0  0 
  2 19  1  0  0  0  0 
  2  1  1  0  0  0  0 
  2 20  1  0  0  0  0 
  3  2  1  0  0  0  0 
  4  7  1  0  0  0  0 
  5 24  1  0  0  0  0 
  5  3  1  0  0  0  0 
  5 25  1  0  0  0  0 
  6  4  2  0  0  0  0 
  6  8  1  0  0  0  0 
  7 27  1  0  0  0  0 
  7  9  2  0  0  0  0 
  8 13  2  0  0  0  0 
  9 29  1  0  0  0  0 
 10  5  1  0  0  0  0 
 11 14  2  0  0  0  0 
 12 33  1  0  0  0  0 
 12 34  1  0  0  0  0 
 13  9  1  0  0  0  0 
 13 11  1  0  0  0  0 
 14 10  1  0  0  0  0 
 14 12  1  0  0  0  0 
 15 12  1  0  0  0  0 
 17  1  1  0  0  0  0 
 18  1  1  0  0  0  0 
 21  3  1  0  0  0  0 
 22  3  1  0  0  0  0 
 23  4  1  0  0  0  0 
 26  6  1  0  0  0  0 
 28  8  1  0  0  0  0 
 30 10  1  0  0  0  0 
 31 10  1  0  0  0  0 
 32 11  1  0  0  0  0 
 35 15  1  0  0  0  0 
M  END 
>  <HBA> 
1 
 
>  <HBD> 
1 
 
>  <TPSA> 
20.23 
 
>  <cid> 
7584 
 
>  <dipole> 
1.63 
 
>  <excitation_energy_1> 
4.895 
 
>  <excitation_energy_2> 
4.959 
 
>  <excitation_energy_3> 
5.364 
 
>  <excitation_energy_4> 
5.695 
 
>  <homo_energy> 
-5.932 
 
>  <homo_lumo_gap> 
5.415 
 
>  <logP> 
3.643 
 
>  <lumo_energy> 
-0.517 
 
>  <melting_point> 
44.89 
 
>  <molecular_refractivity> 
66.54 
 
>  <oscillator_strength_1> 
0.0121 
 
>  <oscillator_strength_2> 
0.4379 
 
>  <oscillator_strength_3> 
0.0036 
 
>  <oscillator_strength_4> 
0.0406 
 
>  <open_babel_can_smiles> 
CCCCC/C(=C\c1ccccc1)/CO 
 
>  <mulliken_charges> 
35 
1   -0.442277 
2   -0.248421 
3   -0.251493 
4   -0.129894 
5   -0.266142 
6   -0.129599 
7   -0.136714 
8   -0.180141 
9   -0.185724 
10   -0.346596 
11   -0.281696 
12   -0.080592 
13   0.163234 
14   0.133373 
15   -0.607372 
16   0.142675 
17   0.141258 
18   0.144423 
19   0.130575 
20   0.131003 
21   0.141391 
22   0.132772 
23   0.128027 
24   0.133981 
25   0.134213 
26   0.128517 
27   0.127975 
28   0.122465 
29   0.141805 
30   0.15193 
31   0.139436 
32   0.14023 
33   0.126177 
34   0.163195 
35   0.388006 
 
>  <lowdin_charges> 
35 
1   -0.443492 
2   -0.27111 
3   -0.279233 
4   -0.161459 
5   -0.274117 
6   -0.155739 
7   -0.15618 
8   -0.160634 
9   -0.167169 
10   -0.280788 
11   -0.192594 
12   -0.137089 
13   0.000572 
14   -0.031132 
15   -0.454292 
16   0.149184 
17   0.14753 
18   0.146141 
19   0.136951 
20   0.140387 
21   0.142369 
22   0.138518 
23   0.158067 
24   0.141765 
25   0.140278 
26   0.156717 
27   0.157183 
28   0.154694 
29   0.160152 
30   0.15802 
31   0.148667 
32   0.15933 
33   0.130801 
34   0.15606 
35   0.341643 
 
$$$$ 
 
