PCCDB-ID:  27814 
public computational chemistry database (PCCDB) project, http://pccdb.org 
 
 15 16  0  0  0  0  0  0  0  0999 V2000 
   -2.0496   -0.7316   -0.2492 C   0  0  0  0  0  0  0  0  0  0  0  0 
   -0.8870   -1.4481   -0.1521 C   0  0  0  0  0  0  0  0  0  0  0  0 
   -2.0577    0.6995   -0.1955 C   0  0  0  0  0  0  0  0  0  0  0  0 
    0.3211   -0.7095    0.0037 C   0  0  0  0  0  0  0  0  0  0  0  0 
   -0.9063    1.4248   -0.0457 C   0  0  0  0  0  0  0  0  0  0  0  0 
    0.3390    0.7285    0.0602 C   0  0  0  0  0  0  0  0  0  0  0  0 
    1.5619   -1.1537    0.1172 N   0  0  0  0  0  0  0  0  0  0  0  0 
    1.5908    1.1323    0.2080 N   0  0  0  0  0  0  0  0  0  0  0  0 
   -0.9764    2.8881    0.0030 N   0  0  0  0  0  0  0  0  0  0  0  0 
   -2.0877    3.4087   -0.1006 O   0  0  0  0  0  0  0  0  0  0  0  0 
    0.0828    3.4914    0.1442 O   0  0  0  0  0  0  0  0  0  0  0  0 
    2.3171   -0.0297    0.2402 O   0  0  0  0  0  0  0  0  0  0  0  0 
   -2.9980   -1.2451   -0.3683 H   0  0  0  0  0  0  0  0  0  0  0  0 
   -0.8654   -2.5314   -0.1910 H   0  0  0  0  0  0  0  0  0  0  0  0 
   -2.9931    1.2409   -0.2748 H   0  0  0  0  0  0  0  0  0  0  0  0 
  1  3  1  0  0  0  0 
  1  2  2  0  0  0  0 
  2  4  1  0  0  0  0 
  3  5  2  0  0  0  0 
  4  6  1  0  0  0  0 
  4  7  2  0  0  0  0 
  5  9  1  0  0  0  0 
  5  6  1  0  0  0  0 
  6  8  2  0  0  0  0 
  7 12  1  0  0  0  0 
  8 12  1  0  0  0  0 
  9 11  2  0  0  0  0 
 10  9  2  0  0  0  0 
 13  1  1  0  0  0  0 
 14  2  1  0  0  0  0 
 15  3  1  0  0  0  0 
M  END 
>  <HBA> 
3 
 
>  <HBD> 
0 
 
>  <TPSA> 
84.74 
 
>  <cid> 
27814 
 
>  <dipole> 
5.66 
 
>  <excitation_energy_1> 
3.428 
 
>  <excitation_energy_2> 
3.756 
 
>  <excitation_energy_3> 
3.925 
 
>  <excitation_energy_4> 
4.556 
 
>  <homo_energy> 
-7.676 
 
>  <homo_lumo_gap> 
4.133 
 
>  <logP> 
1.654 
 
>  <lumo_energy> 
-3.543 
 
>  <melting_point> 
117.69 
 
>  <molecular_refractivity> 
40.63 
 
>  <oscillator_strength_1> 
0.0 
 
>  <oscillator_strength_2> 
0.1731 
 
>  <oscillator_strength_3> 
0.0003 
 
>  <oscillator_strength_4> 
0.0362 
 
>  <open_babel_can_smiles> 
O=N(=O)c1cccc2c1non2 
 
>  <mulliken_charges> 
15 
1   -0.146719 
2   -0.110852 
3   -0.170223 
4   0.26633 
5   0.307311 
6   0.285313 
7   -0.207562 
8   -0.217612 
9   0.375958 
10   -0.396543 
11   -0.371541 
12   -0.168738 
13   0.169682 
14   0.18242 
15   0.202775 
 
>  <lowdin_charges> 
15 
1   -0.141138 
2   -0.114816 
3   -0.111195 
4   -0.005141 
5   0.005273 
6   -0.00554 
7   -0.033754 
8   -0.020555 
9   0.308411 
10   -0.246342 
11   -0.212538 
12   0.013478 
13   0.178965 
14   0.185956 
15   0.198936 
 
$$$$ 
 
