PCCDB-ID:  70480 
public computational chemistry database (PCCDB) project, http://pccdb.org 
 
 12 12  0  0  0  0  0  0  0  0999 V2000 
    0.8772    0.0130   -0.0441 C   0  0  0  0  0  0  0  0  0  0  0  0 
    2.8763   -2.5881   -0.0405 C   0  0  0  0  0  0  0  0  0  0  0  0 
    4.3930    0.5511   -0.0553 C   0  0  0  0  0  0  0  0  0  0  0  0 
    2.3642   -0.0888   -0.0478 C   0  0  0  0  0  0  0  0  0  0  0  0 
    3.1598   -1.2055   -0.0461 C   0  0  0  0  0  0  0  0  0  0  0  0 
    2.6006   -3.7194   -0.0358 N   0  0  0  0  0  0  0  0  0  0  0  0 
    3.1875    1.0283   -0.0538 N   0  0  0  0  0  0  0  0  0  0  0  0 
    4.4784   -0.7953   -0.0509 O   0  0  0  0  0  0  0  0  0  0  0  0 
    0.4134   -0.9769   -0.0455 H   0  0  0  0  0  0  0  0  0  0  0  0 
    0.5305    0.5655   -0.9245 H   0  0  0  0  0  0  0  0  0  0  0  0 
    0.5343    0.5608    0.8407 H   0  0  0  0  0  0  0  0  0  0  0  0 
    5.3272    1.0943   -0.0596 H   0  0  0  0  0  0  0  0  0  0  0  0 
  1 11  1  0  0  0  0 
  2  6  3  0  0  0  0 
  3  7  2  0  0  0  0 
  3  8  1  0  0  0  0 
  4  5  2  0  0  0  0 
  4  1  1  0  0  0  0 
  5  2  1  0  0  0  0 
  7  4  1  0  0  0  0 
  8  5  1  0  0  0  0 
  9  1  1  0  0  0  0 
 10  1  1  0  0  0  0 
 12  3  1  0  0  0  0 
M  END 
>  <HBA> 
3 
 
>  <HBD> 
0 
 
>  <TPSA> 
49.82 
 
>  <cid> 
70480 
 
>  <dipole> 
2.91 
 
>  <excitation_energy_1> 
5.454 
 
>  <excitation_energy_2> 
5.633 
 
>  <excitation_energy_3> 
5.738 
 
>  <excitation_energy_4> 
6.438 
 
>  <homo_energy> 
-7.23 
 
>  <homo_lumo_gap> 
5.728 
 
>  <logP> 
0.855 
 
>  <lumo_energy> 
-1.502 
 
>  <melting_point> 
60.63 
 
>  <molecular_refractivity> 
26.18 
 
>  <oscillator_strength_1> 
0.2839 
 
>  <oscillator_strength_2> 
0.0 
 
>  <oscillator_strength_3> 
0.0001 
 
>  <oscillator_strength_4> 
0.0279 
 
>  <open_babel_can_smiles> 
Cc1ncoc1C#N 
 
>  <mulliken_charges> 
12 
1   -0.52143 
2   0.245906 
3   0.271966 
4   0.260843 
5   0.312428 
6   -0.47409 
7   -0.433336 
8   -0.407604 
9   0.178516 
10   0.187007 
11   0.187004 
12   0.19279 
 
>  <lowdin_charges> 
12 
1   -0.437191 
2   -0.018185 
3   0.00102 
4   0.04414 
5   0.021783 
6   -0.091799 
7   -0.160789 
8   -0.079124 
9   0.173429 
10   0.178967 
11   0.178907 
12   0.188843 
 
$$$$ 
 
