PCCDB-ID:  25371 
public computational chemistry database (PCCDB) project, http://pccdb.org 
 
 13 13  0  0  0  0  0  0  0  0999 V2000 
    1.0254    0.6548   -0.0987 C   0  0  0  0  0  0  0  0  0  0  0  0 
    1.0162   -0.6775   -0.0241 C   0  0  0  0  0  0  0  0  0  0  0  0 
   -0.3661    1.2300   -0.0248 C   0  0  0  0  0  0  0  0  0  0  0  0 
   -0.3791   -1.2274    0.1088 C   0  0  0  0  0  0  0  0  0  0  0  0 
   -2.4886    0.0557    0.2049 N   0  0  0  0  0  0  0  0  0  0  0  0 
   -1.1702    0.0104    0.1026 N   0  0  0  0  0  0  0  0  0  0  0  0 
   -3.0191   -1.0539    0.3070 O   0  0  0  0  0  0  0  0  0  0  0  0 
    1.9030    1.2842   -0.1982 H   0  0  0  0  0  0  0  0  0  0  0  0 
    1.8891   -1.3206   -0.0548 H   0  0  0  0  0  0  0  0  0  0  0  0 
   -0.6446    1.7965   -0.9240 H   0  0  0  0  0  0  0  0  0  0  0  0 
   -0.5111    1.8911    0.8406 H   0  0  0  0  0  0  0  0  0  0  0  0 
   -0.5547   -1.7904    1.0357 H   0  0  0  0  0  0  0  0  0  0  0  0 
   -0.6834   -1.8817   -0.7197 H   0  0  0  0  0  0  0  0  0  0  0  0 
  1  3  1  0  0  0  0 
  1  2  2  0  0  0  0 
  2  4  1  0  0  0  0 
  3  6  1  0  0  0  0 
  3 11  1  0  0  0  0 
  4 12  1  0  0  0  0 
  5  7  1  0  0  0  0 
  6  4  1  0  0  0  0 
  6  5  1  0  0  0  0 
  8  1  1  0  0  0  0 
  9  2  1  0  0  0  0 
 10  3  1  0  0  0  0 
 13  4  1  0  0  0  0 
M  RAD  2   5   2   7   2 
M  END 
>  <HBA> 
3 
 
>  <HBD> 
0 
 
>  <TPSA> 
32.67 
 
>  <cid> 
25371 
 
>  <dipole> 
4.5 
 
>  <excitation_energy_1> 
3.343 
 
>  <excitation_energy_2> 
5.158 
 
>  <excitation_energy_3> 
5.362 
 
>  <excitation_energy_4> 
5.672 
 
>  <homo_energy> 
-5.943 
 
>  <homo_lumo_gap> 
5.189 
 
>  <logP> 
0.477 
 
>  <lumo_energy> 
-0.754 
 
>  <melting_point> 
28.82 
 
>  <molecular_refractivity> 
30.3 
 
>  <oscillator_strength_1> 
0.0018 
 
>  <oscillator_strength_2> 
0.0 
 
>  <oscillator_strength_3> 
0.04 
 
>  <oscillator_strength_4> 
0.0017 
 
>  <open_babel_can_smiles> 
[O][N]N1CC=CC1 
 
>  <mulliken_charges> 
13 
1   -0.126611 
2   -0.125069 
3   -0.12876 
4   -0.138024 
5   0.134788 
6   -0.251155 
7   -0.383896 
8   0.149606 
9   0.149684 
10   0.17759 
11   0.177689 
12   0.182168 
13   0.18199 
 
>  <lowdin_charges> 
13 
1   -0.170205 
2   -0.164466 
3   -0.18763 
4   -0.20193 
5   0.055594 
6   -0.04749 
7   -0.281928 
8   0.168813 
9   0.16887 
10   0.163131 
11   0.163297 
12   0.166726 
13   0.167219 
 
$$$$ 
 
