PCCDB-ID:  38689 
public computational chemistry database (PCCDB) project, http://pccdb.org 
 
 36 35  0  0  0  0  0  0  0  0999 V2000 
    0.8881   -0.0440   -1.7949 C   0  0  0  0  0  0  0  0  0  0  0  0 
    2.6663   -0.6527   -3.4903 C   0  0  0  0  0  0  0  0  0  0  0  0 
    7.7295    0.5971   -3.3662 C   0  0  0  0  0  0  0  0  0  0  0  0 
    7.9138    2.3631   -1.5535 C   0  0  0  0  0  0  0  0  0  0  0  0 
    4.7596    6.1751   -2.1267 C   0  0  0  0  0  0  0  0  0  0  0  0 
    3.1851    1.0134   -1.6289 C   0  0  0  0  0  0  0  0  0  0  0  0 
    4.6762    0.8123   -1.6101 C   0  0  0  0  0  0  0  0  0  0  0  0 
    5.2868    2.6543   -3.1772 C   0  0  0  0  0  0  0  0  0  0  0  0 
    2.3900   -0.2508   -2.0351 C   0  0  0  0  0  0  0  0  0  0  0  0 
    7.1002    1.1635   -2.0776 C   0  0  0  0  0  0  0  0  0  0  0  0 
    4.9049    4.9971   -3.0636 C   0  0  0  0  0  0  0  0  0  0  0  0 
    5.6260    1.5047   -2.2597 C   0  0  0  0  0  0  0  0  0  0  0  0 
    4.8054    5.0439   -4.2708 O   0  0  0  0  0  0  0  0  0  0  0  0 
    5.1497    3.8606   -2.3721 O   0  0  0  0  0  0  0  0  0  0  0  0 
    0.3182   -0.9454   -2.0490 H   0  0  0  0  0  0  0  0  0  0  0  0 
    0.5022    0.7770   -2.4133 H   0  0  0  0  0  0  0  0  0  0  0  0 
    0.6790    0.2018   -0.7467 H   0  0  0  0  0  0  0  0  0  0  0  0 
    2.1385   -1.5775   -3.7511 H   0  0  0  0  0  0  0  0  0  0  0  0 
    3.7358   -0.8109   -3.6672 H   0  0  0  0  0  0  0  0  0  0  0  0 
    2.3254    0.1294   -4.1818 H   0  0  0  0  0  0  0  0  0  0  0  0 
    8.7715    0.3057   -3.1879 H   0  0  0  0  0  0  0  0  0  0  0  0 
    7.7338    1.3363   -4.1767 H   0  0  0  0  0  0  0  0  0  0  0  0 
    7.1845   -0.2854   -3.7196 H   0  0  0  0  0  0  0  0  0  0  0  0 
    8.9553    2.0695   -1.3758 H   0  0  0  0  0  0  0  0  0  0  0  0 
    7.4969    2.7426   -0.6150 H   0  0  0  0  0  0  0  0  0  0  0  0 
    7.9231    3.1911   -2.2720 H   0  0  0  0  0  0  0  0  0  0  0  0 
    4.7010    7.0961   -2.7078 H   0  0  0  0  0  0  0  0  0  0  0  0 
    5.6021    6.2187   -1.4301 H   0  0  0  0  0  0  0  0  0  0  0  0 
    3.8477    6.0623   -1.5297 H   0  0  0  0  0  0  0  0  0  0  0  0 
    2.9008    1.8470   -2.2824 H   0  0  0  0  0  0  0  0  0  0  0  0 
    2.8683    1.3045   -0.6153 H   0  0  0  0  0  0  0  0  0  0  0  0 
    5.0078   -0.0029   -0.9623 H   0  0  0  0  0  0  0  0  0  0  0  0 
    4.3522    2.4974   -3.7204 H   0  0  0  0  0  0  0  0  0  0  0  0 
    6.0662    2.8301   -3.9232 H   0  0  0  0  0  0  0  0  0  0  0  0 
    2.7255   -1.0746   -1.3859 H   0  0  0  0  0  0  0  0  0  0  0  0 
    7.1519    0.3730   -1.3167 H   0  0  0  0  0  0  0  0  0  0  0  0 
  1 17  1  0  0  0  0 
  2  9  1  0  0  0  0 
  3 21  1  0  0  0  0 
  3 10  1  0  0  0  0 
  4 24  1  0  0  0  0 
  4 25  1  0  0  0  0 
  5 29  1  0  0  0  0 
  5 28  1  0  0  0  0 
  6  7  1  0  0  0  0 
  6 31  1  0  0  0  0 
  7 32  1  0  0  0  0 
  8 14  1  0  0  0  0 
  8 12  1  0  0  0  0 
  9  1  1  0  0  0  0 
  9  6  1  0  0  0  0 
  9 35  1  0  0  0  0 
 10  4  1  0  0  0  0 
 10 36  1  0  0  0  0 
 11 14  1  0  0  0  0 
 11  5  1  0  0  0  0 
 12 10  1  0  0  0  0 
 12  7  2  0  0  0  0 
 13 11  2  0  0  0  0 
 15  1  1  0  0  0  0 
 16  1  1  0  0  0  0 
 18  2  1  0  0  0  0 
 19  2  1  0  0  0  0 
 20  2  1  0  0  0  0 
 22  3  1  0  0  0  0 
 23  3  1  0  0  0  0 
 26  4  1  0  0  0  0 
 27  5  1  0  0  0  0 
 30  6  1  0  0  0  0 
 33  8  1  0  0  0  0 
 34  8  1  0  0  0  0 
M  END 
>  <HBA> 
2 
 
>  <HBD> 
0 
 
>  <TPSA> 
26.3 
 
>  <cid> 
38689 
 
>  <dipole> 
2.21 
 
>  <excitation_energy_1> 
5.68 
 
>  <excitation_energy_2> 
5.987 
 
>  <excitation_energy_3> 
6.175 
 
>  <excitation_energy_4> 
6.276 
 
>  <homo_energy> 
-6.534 
 
>  <homo_lumo_gap> 
6.738 
 
>  <logP> 
3.178 
 
>  <lumo_energy> 
0.204 
 
>  <melting_point> 
-4.9 
 
>  <molecular_refractivity> 
60.61 
 
>  <oscillator_strength_1> 
0.0039 
 
>  <oscillator_strength_2> 
0.0454 
 
>  <oscillator_strength_3> 
0.1423 
 
>  <oscillator_strength_4> 
0.0015 
 
>  <open_babel_can_smiles> 
CC(C/C=C(/C(C)C)\COC(=O)C)C 
 
>  <mulliken_charges> 
36 
1   -0.442213 
2   -0.442605 
3   -0.447398 
4   -0.440303 
5   -0.522917 
6   -0.292812 
7   -0.163909 
8   -0.128434 
9   -0.070632 
10   -0.151592 
11   0.605372 
12   0.175241 
13   -0.471367 
14   -0.454088 
15   0.14238 
16   0.14079 
17   0.139525 
18   0.141014 
19   0.147737 
20   0.138846 
21   0.144229 
22   0.144991 
23   0.146918 
24   0.139936 
25   0.151644 
26   0.144992 
27   0.181209 
28   0.179423 
29   0.181771 
30   0.138389 
31   0.144015 
32   0.119912 
33   0.165606 
34   0.163753 
35   0.122301 
36   0.128277 
 
>  <lowdin_charges> 
36 
1   -0.444883 
2   -0.447459 
3   -0.446365 
4   -0.444348 
5   -0.464689 
6   -0.276262 
7   -0.162041 
8   -0.129394 
9   -0.118811 
10   -0.117666 
11   0.193782 
12   -0.031862 
13   -0.265941 
14   -0.201216 
15   0.149801 
16   0.14738 
17   0.146003 
18   0.149083 
19   0.150005 
20   0.146298 
21   0.149332 
22   0.147463 
23   0.151346 
24   0.147001 
25   0.154114 
26   0.149051 
27   0.175163 
28   0.176138 
29   0.178193 
30   0.14791 
31   0.152378 
32   0.148275 
33   0.157472 
34   0.156148 
35   0.135775 
36   0.142823 
 
$$$$ 
 
