PCCDB-ID:  35694 
public computational chemistry database (PCCDB) project, http://pccdb.org 
 
 28 28  0  0  0  0  0  0  0  0999 V2000 
    0.9636    0.3975   -0.0320 C   0  0  0  0  0  0  0  0  0  0  0  0 
    5.2167   -2.4344    0.0902 C   0  0  0  0  0  0  0  0  0  0  0  0 
    4.6372    1.3176    0.3198 C   0  0  0  0  0  0  0  0  0  0  0  0 
    3.2517    1.4022    0.2162 C   0  0  0  0  0  0  0  0  0  0  0  0 
    5.2529    0.0700    0.2707 C   0  0  0  0  0  0  0  0  0  0  0  0 
    2.2686   -2.2695   -0.1924 C   0  0  0  0  0  0  0  0  0  0  0  0 
    2.0671   -2.6232   -1.6761 C   0  0  0  0  0  0  0  0  0  0  0  0 
    2.4682    0.2525    0.0598 C   0  0  0  0  0  0  0  0  0  0  0  0 
    4.5003   -1.1003    0.1159 C   0  0  0  0  0  0  0  0  0  0  0  0 
    3.0950   -1.0118    0.0069 C   0  0  0  0  0  0  0  0  0  0  0  0 
    0.9877   -4.0848   -3.2200 N   0  0  0  0  0  0  0  0  0  0  0  0 
    1.3582   -3.9007   -1.7975 N   0  0  0  0  0  0  0  0  0  0  0  0 
    0.6763    1.4534   -0.0239 H   0  0  0  0  0  0  0  0  0  0  0  0 
    0.4539   -0.0855    0.8121 H   0  0  0  0  0  0  0  0  0  0  0  0 
    0.5572   -0.0470   -0.9482 H   0  0  0  0  0  0  0  0  0  0  0  0 
    6.3010   -2.2904    0.1211 H   0  0  0  0  0  0  0  0  0  0  0  0 
    4.9867   -3.0173   -0.8095 H   0  0  0  0  0  0  0  0  0  0  0  0 
    4.9448   -3.0599    0.9505 H   0  0  0  0  0  0  0  0  0  0  0  0 
    5.2334    2.2183    0.4406 H   0  0  0  0  0  0  0  0  0  0  0  0 
    2.7639    2.3734    0.2573 H   0  0  0  0  0  0  0  0  0  0  0  0 
    6.3347   -0.0039    0.3550 H   0  0  0  0  0  0  0  0  0  0  0  0 
    2.7400   -3.1268    0.2980 H   0  0  0  0  0  0  0  0  0  0  0  0 
    1.2840   -2.1521    0.2770 H   0  0  0  0  0  0  0  0  0  0  0  0 
    3.0477   -2.7358   -2.1589 H   0  0  0  0  0  0  0  0  0  0  0  0 
    1.5473   -1.8068   -2.2055 H   0  0  0  0  0  0  0  0  0  0  0  0 
    0.6801   -5.0604   -3.2622 H   0  0  0  0  0  0  0  0  0  0  0  0 
    1.8902   -4.1124   -3.7033 H   0  0  0  0  0  0  0  0  0  0  0  0 
    0.4504   -3.7614   -1.3472 H   0  0  0  0  0  0  0  0  0  0  0  0 
  1 13  1  0  0  0  0 
  1  8  1  0  0  0  0 
  1 14  1  0  0  0  0 
  2  9  1  0  0  0  0 
  2 16  1  0  0  0  0 
  2 18  1  0  0  0  0 
  3 19  1  0  0  0  0 
  4 20  1  0  0  0  0 
  4  3  2  0  0  0  0 
  5  3  1  0  0  0  0 
  5 21  1  0  0  0  0 
  6 10  1  0  0  0  0 
  6 23  1  0  0  0  0 
  6 22  1  0  0  0  0 
  7  6  1  0  0  0  0 
  8  4  1  0  0  0  0 
  9  5  2  0  0  0  0 
 10  8  2  0  0  0  0 
 10  9  1  0  0  0  0 
 11 12  1  0  0  0  0 
 12  7  1  0  0  0  0 
 12 28  1  0  0  0  0 
 15  1  1  0  0  0  0 
 17  2  1  0  0  0  0 
 24  7  1  0  0  0  0 
 25  7  1  0  0  0  0 
 26 11  1  0  0  0  0 
 27 11  1  0  0  0  0 
M  END 
>  <HBA> 
2 
 
>  <HBD> 
2 
 
>  <TPSA> 
38.05 
 
>  <cid> 
35694 
 
>  <dipole> 
0.55 
 
>  <excitation_energy_1> 
4.705 
 
>  <excitation_energy_2> 
4.985 
 
>  <excitation_energy_3> 
5.1 
 
>  <excitation_energy_4> 
5.16 
 
>  <homo_energy> 
-5.336 
 
>  <homo_lumo_gap> 
5.434 
 
>  <logP> 
2.4 
 
>  <lumo_energy> 
0.098 
 
>  <melting_point> 
97.59 
 
>  <molecular_refractivity> 
51.66 
 
>  <oscillator_strength_1> 
0.0019 
 
>  <oscillator_strength_2> 
0.0019 
 
>  <oscillator_strength_3> 
0.0001 
 
>  <oscillator_strength_4> 
0.001 
 
>  <open_babel_can_smiles> 
NNCCc1c(C)cccc1C 
 
>  <mulliken_charges> 
28 
1   -0.542725 
2   -0.540764 
3   -0.120628 
4   -0.188517 
5   -0.18865 
6   -0.362626 
7   -0.119883 
8   0.137068 
9   0.134158 
10   0.053144 
11   -0.595806 
12   -0.46811 
13   0.154929 
14   0.160641 
15   0.163367 
16   0.15359 
17   0.162577 
18   0.163734 
19   0.124001 
20   0.117712 
21   0.117508 
22   0.15681 
23   0.137271 
24   0.14 
25   0.138519 
26   0.30463 
27   0.302127 
28   0.305922 
 
>  <lowdin_charges> 
28 
1   -0.445505 
2   -0.443582 
3   -0.159794 
4   -0.172673 
5   -0.17027 
6   -0.281438 
7   -0.209185 
8   -0.005661 
9   -0.006511 
10   -0.021778 
11   -0.495365 
12   -0.322171 
13   0.155784 
14   0.158458 
15   0.158811 
16   0.154507 
17   0.158475 
18   0.160145 
19   0.156231 
20   0.152133 
21   0.15015 
22   0.158994 
23   0.147357 
24   0.137602 
25   0.130646 
26   0.252013 
27   0.251747 
28   0.250881 
 
$$$$ 
 
