PCCDB-ID:  68154 
public computational chemistry database (PCCDB) project, http://pccdb.org 
 
 11 11  0  0  0  0  0  0  0  0999 V2000 
   -1.3990   -0.0526   -0.0176 C   0  0  0  0  0  0  0  0  0  0  0  0 
   -0.6375   -1.2658    0.0055 C   0  0  0  0  0  0  0  0  0  0  0  0 
   -0.7737    1.1546   -0.0043 C   0  0  0  0  0  0  0  0  0  0  0  0 
    0.7107   -1.1618    0.0402 C   0  0  0  0  0  0  0  0  0  0  0  0 
    0.6733    1.2599    0.0301 C   0  0  0  0  0  0  0  0  0  0  0  0 
    1.3440    2.2625    0.0398 O   0  0  0  0  0  0  0  0  0  0  0  0 
    1.3578    0.0171    0.0553 O   0  0  0  0  0  0  0  0  0  0  0  0 
   -2.4845   -0.1027   -0.0453 H   0  0  0  0  0  0  0  0  0  0  0  0 
   -1.1107   -2.2400   -0.0055 H   0  0  0  0  0  0  0  0  0  0  0  0 
   -1.3148    2.0935   -0.0199 H   0  0  0  0  0  0  0  0  0  0  0  0 
    1.3998   -1.9997    0.0601 H   0  0  0  0  0  0  0  0  0  0  0  0 
  1  3  2  0  0  0  0 
  1  2  1  0  0  0  0 
  2  4  2  0  0  0  0 
  3  5  1  0  0  0  0 
  4  7  1  0  0  0  0 
  4 11  1  0  0  0  0 
  5  6  2  0  0  0  0 
  5  7  1  0  0  0  0 
  8  1  1  0  0  0  0 
  9  2  1  0  0  0  0 
 10  3  1  0  0  0  0 
M  END 
>  <HBA> 
2 
 
>  <HBD> 
0 
 
>  <TPSA> 
30.21 
 
>  <cid> 
68154 
 
>  <dipole> 
4.58 
 
>  <excitation_energy_1> 
4.44 
 
>  <excitation_energy_2> 
4.583 
 
>  <excitation_energy_3> 
5.852 
 
>  <excitation_energy_4> 
6.022 
 
>  <homo_energy> 
-6.517 
 
>  <homo_lumo_gap> 
4.844 
 
>  <logP> 
0.64 
 
>  <lumo_energy> 
-1.674 
 
>  <melting_point> 
36.98 
 
>  <molecular_refractivity> 
24.98 
 
>  <oscillator_strength_1> 
0.128 
 
>  <oscillator_strength_2> 
0.0001 
 
>  <oscillator_strength_3> 
0.0017 
 
>  <oscillator_strength_4> 
0.086 
 
>  <open_babel_can_smiles> 
O=c1cccco1 
 
>  <mulliken_charges> 
11 
1   -0.086771 
2   -0.184984 
3   -0.208227 
4   0.138222 
5   0.590844 
6   -0.463157 
7   -0.440452 
8   0.159187 
9   0.155724 
10   0.165482 
11   0.174132 
 
>  <lowdin_charges> 
11 
1   -0.101337 
2   -0.220187 
3   -0.203663 
4   -0.006938 
5   0.196173 
6   -0.24329 
7   -0.124706 
8   0.16922 
9   0.176347 
10   0.182091 
11   0.17629 
 
$$$$ 
 
