PCCDB-ID:  11848 
public computational chemistry database (PCCDB) project, http://pccdb.org 
 
 20 19  0  0  1  0  0  0  0  0999 V2000 
    1.4195   -0.4993   -0.3367 C   0  0  0  0  0  0  0  0  0  0  0  0 
    2.4637    2.3633    1.0737 C   0  0  0  0  0  0  0  0  0  0  0  0 
    2.7622   -0.1110    0.3032 C   0  0  1  0  0  0  0  0  0  0  0  0 
    3.0895    1.4008    0.0443 C   0  0  2  0  0  0  0  0  0  0  0  0 
    2.8796   -0.4610    1.7903 C   0  0  0  0  0  0  0  0  0  0  0  0 
    4.5878    1.7198   -0.1345 C   0  0  0  0  0  0  0  0  0  0  0  0 
    3.8961   -0.2568    2.4293 O   0  0  0  0  0  0  0  0  0  0  0  0 
    1.8262   -1.0099    2.4176 O   0  0  0  0  0  0  0  0  0  0  0  0 
    4.9615    2.4398   -1.0329 O   0  0  0  0  0  0  0  0  0  0  0  0 
    5.4514    1.2018    0.7506 O   0  0  0  0  0  0  0  0  0  0  0  0 
    1.4523   -0.3074   -1.4130 H   0  0  0  0  0  0  0  0  0  0  0  0 
    0.5837    0.0878    0.0658 H   0  0  0  0  0  0  0  0  0  0  0  0 
    1.1970   -1.5672   -0.2152 H   0  0  0  0  0  0  0  0  0  0  0  0 
    1.3816    2.2071    1.1562 H   0  0  0  0  0  0  0  0  0  0  0  0 
    2.6280    3.3972    0.7561 H   0  0  0  0  0  0  0  0  0  0  0  0 
    2.9061    2.2404    2.0671 H   0  0  0  0  0  0  0  0  0  0  0  0 
    3.5470   -0.7084   -0.1802 H   0  0  0  0  0  0  0  0  0  0  0  0 
    2.6644    1.6380   -0.9350 H   0  0  0  0  0  0  0  0  0  0  0  0 
    1.0800   -1.1184    1.8055 H   0  0  0  0  0  0  0  0  0  0  0  0 
    4.9884    0.6623    1.4384 H   0  0  0  0  0  0  0  0  0  0  0  0 
  1 13  1  0  0  0  0 
  1 12  1  0  0  0  0 
  1  3  1  0  0  0  0 
  2 14  1  0  0  0  0 
  2 16  1  0  0  0  0 
  3 17  1  6  0  0  0 
  3  5  1  0  0  0  0 
  4 18  1  6  0  0  0 
  4  3  1  0  0  0  0 
  4  2  1  0  0  0  0 
  5  8  1  0  0  0  0 
  5  7  2  0  0  0  0 
  6  4  1  0  0  0  0 
  6 10  1  0  0  0  0 
  9  6  2  0  0  0  0 
 10 20  1  0  0  0  0 
 11  1  1  0  0  0  0 
 15  2  1  0  0  0  0 
 19  8  1  0  0  0  0 
M  END 
>  <HBA> 
4 
 
>  <HBD> 
2 
 
>  <TPSA> 
74.6 
 
>  <cid> 
11848 
 
>  <dipole> 
6.72 
 
>  <excitation_energy_1> 
5.386 
 
>  <excitation_energy_2> 
5.584 
 
>  <excitation_energy_3> 
5.8 
 
>  <excitation_energy_4> 
6.075 
 
>  <homo_energy> 
-6.936 
 
>  <homo_lumo_gap> 
6.177 
 
>  <logP> 
0.428 
 
>  <lumo_energy> 
-0.759 
 
>  <melting_point> 
127.75 
 
>  <molecular_refractivity> 
34.5 
 
>  <oscillator_strength_1> 
0.0066 
 
>  <oscillator_strength_2> 
0.002 
 
>  <oscillator_strength_3> 
0.0009 
 
>  <oscillator_strength_4> 
0.0021 
 
>  <open_babel_can_smiles> 
C[C@H]([C@@H](C(=O)O)C)C(=O)O 
 
>  <mulliken_charges> 
20 
1   -0.526264 
2   -0.47725 
3   -0.211916 
4   -0.182151 
5   0.61805 
6   0.57857 
7   -0.471746 
8   -0.549728 
9   -0.45693 
10   -0.595079 
11   0.189163 
12   0.165525 
13   0.163521 
14   0.147633 
15   0.183938 
16   0.17578 
17   0.19658 
18   0.173313 
19   0.430075 
20   0.448916 
 
>  <lowdin_charges> 
20 
1   -0.461798 
2   -0.445736 
3   -0.173921 
4   -0.15644 
5   0.209402 
6   0.181365 
7   -0.259256 
8   -0.323551 
9   -0.259631 
10   -0.363999 
11   0.17532 
12   0.15683 
13   0.155316 
14   0.148335 
15   0.171602 
16   0.162445 
17   0.181743 
18   0.170483 
19   0.368956 
20   0.362535 
 
$$$$ 
 
