PCCDB-ID:  22225 
public computational chemistry database (PCCDB) project, http://pccdb.org 
 
 30 30  0  0  1  0  0  0  0  0999 V2000 
    0.7274    1.5562   -0.1628 C   0  0  0  0  0  0  0  0  0  0  0  0 
    2.1876   -3.2235    0.9034 C   0  0  0  0  0  0  0  0  0  0  0  0 
    6.7900    1.1899    0.2089 C   0  0  0  0  0  0  0  0  0  0  0  0 
    2.5555   -4.5864    0.3092 C   0  0  0  0  0  0  0  0  0  0  0  0 
    7.8111    2.2914   -0.0857 C   0  0  0  0  0  0  0  0  0  0  0  0 
    2.0125    0.8091    0.0583 C   0  0  2  0  0  0  0  0  0  0  0  0 
    3.2076   -1.1194    0.5097 C   0  0  0  0  0  0  0  0  0  0  0  0 
    4.4379    1.0001    0.1430 C   0  0  0  0  0  0  0  0  0  0  0  0 
    3.3521   -2.3561    0.7859 N   0  0  0  0  0  0  0  0  0  0  0  0 
    5.4590    1.7600    0.0417 N   0  0  0  0  0  0  0  0  0  0  0  0 
    1.9947   -0.4603    0.3100 N   0  0  0  0  0  0  0  0  0  0  0  0 
    3.1623    1.5520   -0.0234 N   0  0  0  0  0  0  0  0  0  0  0  0 
    4.3887   -0.3499    0.3988 N   0  0  0  0  0  0  0  0  0  0  0  0 
    3.7287   -5.1050    0.9097 O   0  0  0  0  0  0  0  0  0  0  0  0 
    7.5704    3.4286    0.7201 O   0  0  0  0  0  0  0  0  0  0  0  0 
   -0.1079    0.8616   -0.0748 H   0  0  0  0  0  0  0  0  0  0  0  0 
    0.7103    2.0166   -1.1581 H   0  0  0  0  0  0  0  0  0  0  0  0 
    0.6100    2.3565    0.5777 H   0  0  0  0  0  0  0  0  0  0  0  0 
    1.9667   -3.3606    1.9715 H   0  0  0  0  0  0  0  0  0  0  0  0 
    1.2921   -2.8102    0.4228 H   0  0  0  0  0  0  0  0  0  0  0  0 
    6.9369    0.8379    1.2431 H   0  0  0  0  0  0  0  0  0  0  0  0 
    6.9664    0.3337   -0.4651 H   0  0  0  0  0  0  0  0  0  0  0  0 
    2.6763   -4.4850   -0.7833 H   0  0  0  0  0  0  0  0  0  0  0  0 
    1.7509   -5.3078    0.4904 H   0  0  0  0  0  0  0  0  0  0  0  0 
    7.7662    2.5423   -1.1586 H   0  0  0  0  0  0  0  0  0  0  0  0 
    8.8247    1.9427    0.1381 H   0  0  0  0  0  0  0  0  0  0  0  0 
    3.1437    2.5419   -0.2294 H   0  0  0  0  0  0  0  0  0  0  0  0 
    5.2515   -0.8511    0.5611 H   0  0  0  0  0  0  0  0  0  0  0  0 
    4.3366   -4.3450    0.9467 H   0  0  0  0  0  0  0  0  0  0  0  0 
    6.6139    3.5903    0.6332 H   0  0  0  0  0  0  0  0  0  0  0  0 
  1 16  1  0  0  0  0 
  1 18  1  0  0  0  0 
  2 19  1  0  0  0  0 
  3 21  1  0  0  0  0 
  4 24  1  0  0  0  0 
  4  2  1  0  0  0  0 
  4 14  1  0  0  0  0 
  5 26  1  0  0  0  0 
  5  3  1  0  0  0  0 
  5 15  1  0  0  0  0 
  6  1  1  1  0  0  0 
  6 11  1  0  0  0  0 
  7  9  1  0  0  0  0 
  8 13  1  0  0  0  0 
  9  2  1  0  0  0  0 
 10  8  2  0  0  0  0 
 10  3  1  0  0  0  0 
 11  7  2  0  0  0  0 
 12  6  1  0  0  0  0 
 12  8  1  0  0  0  0 
 13  7  1  0  0  0  0 
 13 28  1  0  0  0  0 
 14 29  1  0  0  0  0 
 17  1  1  0  0  0  0 
 20  2  1  0  0  0  0 
 22  3  1  0  0  0  0 
 23  4  1  0  0  0  0 
 25  5  1  0  0  0  0 
 27 12  1  0  0  0  0 
 30 15  1  0  0  0  0 
M  RAD  2   6   2   9   2 
M  END 
>  <HBA> 
7 
 
>  <HBD> 
4 
 
>  <TPSA> 
103.19 
 
>  <cid> 
22225 
 
>  <dipole> 
5.0 
 
>  <excitation_energy_1> 
4.688 
 
>  <excitation_energy_2> 
4.813 
 
>  <excitation_energy_3> 
4.901 
 
>  <excitation_energy_4> 
5.275 
 
>  <homo_energy> 
-6.403 
 
>  <homo_lumo_gap> 
5.26 
 
>  <logP> 
-0.866 
 
>  <lumo_energy> 
-1.143 
 
>  <melting_point> 
160.69 
 
>  <molecular_refractivity> 
55.34 
 
>  <oscillator_strength_1> 
0.0779 
 
>  <oscillator_strength_2> 
0.038 
 
>  <oscillator_strength_3> 
0.0652 
 
>  <oscillator_strength_4> 
0.006 
 
>  <open_babel_can_smiles> 
OCC[N]C1=N[C](N/C(=N/CCO)/N1)C 
 
>  <mulliken_charges> 
30 
1   -0.537149 
2   -0.154432 
3   -0.174311 
4   -0.015432 
5   -0.015987 
6   0.527841 
7   0.672709 
8   0.778868 
9   -0.534544 
10   -0.542928 
11   -0.51285 
12   -0.673713 
13   -0.714561 
14   -0.630946 
15   -0.625873 
16   0.205507 
17   0.180461 
18   0.181344 
19   0.150062 
20   0.149769 
21   0.148154 
22   0.129099 
23   0.113222 
24   0.134099 
25   0.121804 
26   0.139843 
27   0.350378 
28   0.353026 
29   0.398031 
30   0.39851 
 
>  <lowdin_charges> 
30 
1   -0.449835 
2   -0.216993 
3   -0.224091 
4   -0.135451 
5   -0.130732 
6   0.128754 
7   0.121984 
8   0.141411 
9   -0.244059 
10   -0.282597 
11   -0.219728 
12   -0.222387 
13   -0.247356 
14   -0.477345 
15   -0.468878 
16   0.18918 
17   0.17314 
18   0.174659 
19   0.148278 
20   0.148033 
21   0.140873 
22   0.135514 
23   0.119199 
24   0.143514 
25   0.124685 
26   0.144947 
27   0.30415 
28   0.304945 
29   0.338704 
30   0.337482 
 
$$$$ 
 
