PCCDB-ID:  29743 
public computational chemistry database (PCCDB) project, http://pccdb.org 
 
 16 15  0  0  0  0  0  0  0  0999 V2000 
    3.2324   -3.6692   -4.1854 C   0  0  0  0  0  0  0  0  0  0  0  0 
    6.1982   -0.3337   -2.1781 C   0  0  0  0  0  0  0  0  0  0  0  0 
    4.8369   -0.9142   -1.8386 C   0  0  0  0  0  0  0  0  0  0  0  0 
    6.1704    0.4621   -3.3468 O   0  0  0  0  0  0  0  0  0  0  0  0 
    2.0237   -1.4588   -3.3058 O   0  0  0  0  0  0  0  0  0  0  0  0 
    2.8202   -3.1468   -1.5947 O   0  0  0  0  0  0  0  0  0  0  0  0 
    4.5069   -1.8233   -2.9320 O   0  0  0  0  0  0  0  0  0  0  0  0 
    2.9906   -2.4657   -2.8764 S   0  0  0  0  0  0  0  0  0  0  0  0 
    2.2847   -4.2001   -4.2971 H   0  0  0  0  0  0  0  0  0  0  0  0 
    4.0252   -4.3572   -3.8901 H   0  0  0  0  0  0  0  0  0  0  0  0 
    3.4840   -3.1431   -5.1072 H   0  0  0  0  0  0  0  0  0  0  0  0 
    6.9321   -1.1519   -2.2555 H   0  0  0  0  0  0  0  0  0  0  0  0 
    6.5131    0.3206   -1.3583 H   0  0  0  0  0  0  0  0  0  0  0  0 
    4.0813   -0.1240   -1.7918 H   0  0  0  0  0  0  0  0  0  0  0  0 
    4.8534   -1.4765   -0.8998 H   0  0  0  0  0  0  0  0  0  0  0  0 
    5.8145   -0.0954   -4.0572 H   0  0  0  0  0  0  0  0  0  0  0  0 
  1 10  1  0  0  0  0 
  1  8  1  0  0  0  0 
  2  3  1  0  0  0  0 
  2 13  1  0  0  0  0 
  3 14  1  0  0  0  0 
  3 15  1  0  0  0  0 
  4  2  1  0  0  0  0 
  5  8  1  0  0  0  0 
  7  8  1  0  0  0  0 
  7  3  1  0  0  0  0 
  8  6  1  0  0  0  0 
  9  1  1  0  0  0  0 
 11  1  1  0  0  0  0 
 12  2  1  0  0  0  0 
 16  4  1  0  0  0  0 
M  RAD  2   5   2   6   2 
M  END 
>  <HBA> 
4 
 
>  <HBD> 
1 
 
>  <TPSA> 
71.98 
 
>  <cid> 
29743 
 
>  <dipole> 
3.31 
 
>  <excitation_energy_1> 
6.748 
 
>  <excitation_energy_2> 
7.045 
 
>  <excitation_energy_3> 
7.504 
 
>  <excitation_energy_4> 
7.549 
 
>  <homo_energy> 
-7.622 
 
>  <homo_lumo_gap> 
8.463 
 
>  <logP> 
0.036 
 
>  <lumo_energy> 
0.841 
 
>  <melting_point> 
17.08 
 
>  <molecular_refractivity> 
27.75 
 
>  <oscillator_strength_1> 
0.0033 
 
>  <oscillator_strength_2> 
0.0008 
 
>  <oscillator_strength_3> 
0.0157 
 
>  <oscillator_strength_4> 
0.0013 
 
>  <open_babel_can_smiles> 
OCCOS([O])([O])C 
 
>  <mulliken_charges> 
16 
1   -0.635779 
2   -0.042964 
3   -0.07542 
4   -0.609073 
5   -0.495252 
6   -0.511316 
7   -0.55999 
8   1.20907 
9   0.222352 
10   0.218551 
11   0.216634 
12   0.139181 
13   0.161526 
14   0.18565 
15   0.175683 
16   0.401147 
 
>  <lowdin_charges> 
16 
1   -0.584145 
2   -0.139548 
3   -0.1481 
4   -0.460051 
5   -0.570529 
6   -0.575233 
7   -0.438839 
8   1.338907 
9   0.201729 
10   0.200314 
11   0.198928 
12   0.137639 
13   0.160733 
14   0.166418 
15   0.163719 
16   0.348057 
 
$$$$ 
 
