PCCDB-ID:  7456 
public computational chemistry database (PCCDB) project, http://pccdb.org 
 
 19 19  0  0  0  0  0  0  0  0999 V2000 
    3.4745    1.3292   -0.5980 C   0  0  0  0  0  0  0  0  0  0  0  0 
    1.9489    2.2263    3.2113 C   0  0  0  0  0  0  0  0  0  0  0  0 
    1.2868   -0.0862    3.4673 C   0  0  0  0  0  0  0  0  0  0  0  0 
    1.4409    2.5099    4.4749 C   0  0  0  0  0  0  0  0  0  0  0  0 
    0.7771    0.1871    4.7277 C   0  0  0  0  0  0  0  0  0  0  0  0 
    1.8780    0.9257    2.6939 C   0  0  0  0  0  0  0  0  0  0  0  0 
    0.8539    1.4910    5.2365 C   0  0  0  0  0  0  0  0  0  0  0  0 
    2.4025    0.5630    1.3543 C   0  0  0  0  0  0  0  0  0  0  0  0 
    0.3401    1.7078    6.4797 O   0  0  0  0  0  0  0  0  0  0  0  0 
    2.3582   -0.5527    0.8709 O   0  0  0  0  0  0  0  0  0  0  0  0 
    2.9499    1.6211    0.7048 O   0  0  0  0  0  0  0  0  0  0  0  0 
    3.8675    2.2748   -0.9736 H   0  0  0  0  0  0  0  0  0  0  0  0 
    2.6865    0.9522   -1.2557 H   0  0  0  0  0  0  0  0  0  0  0  0 
    4.2692    0.5810   -0.5348 H   0  0  0  0  0  0  0  0  0  0  0  0 
    2.4034    3.0141    2.6213 H   0  0  0  0  0  0  0  0  0  0  0  0 
    1.2371   -1.0888    3.0555 H   0  0  0  0  0  0  0  0  0  0  0  0 
    1.4975    3.5216    4.8728 H   0  0  0  0  0  0  0  0  0  0  0  0 
    0.3181   -0.5871    5.3340 H   0  0  0  0  0  0  0  0  0  0  0  0 
    0.4545    2.6424    6.7135 H   0  0  0  0  0  0  0  0  0  0  0  0 
  1 14  1  0  0  0  0 
  1 11  1  0  0  0  0 
  2  4  1  0  0  0  0 
  3  5  2  0  0  0  0 
  4 17  1  0  0  0  0 
  4  7  2  0  0  0  0 
  5  7  1  0  0  0  0 
  5 18  1  0  0  0  0 
  6  2  2  0  0  0  0 
  6  3  1  0  0  0  0 
  7  9  1  0  0  0  0 
  8  6  1  0  0  0  0 
  9 19  1  0  0  0  0 
 10  8  2  0  0  0  0 
 11  8  1  0  0  0  0 
 12  1  1  0  0  0  0 
 13  1  1  0  0  0  0 
 15  2  1  0  0  0  0 
 16  3  1  0  0  0  0 
M  END 
>  <HBA> 
3 
 
>  <HBD> 
1 
 
>  <TPSA> 
46.53 
 
>  <cid> 
7456 
 
>  <dipole> 
3.28 
 
>  <excitation_energy_1> 
4.936 
 
>  <excitation_energy_2> 
4.997 
 
>  <excitation_energy_3> 
5.031 
 
>  <excitation_energy_4> 
5.43 
 
>  <homo_energy> 
-6.321 
 
>  <homo_lumo_gap> 
5.393 
 
>  <logP> 
1.179 
 
>  <lumo_energy> 
-0.928 
 
>  <melting_point> 
70.24 
 
>  <molecular_refractivity> 
39.74 
 
>  <oscillator_strength_1> 
0.0044 
 
>  <oscillator_strength_2> 
0.0002 
 
>  <oscillator_strength_3> 
0.3434 
 
>  <oscillator_strength_4> 
0.0002 
 
>  <open_babel_can_smiles> 
COC(=O)c1ccc(cc1)O 
 
>  <mulliken_charges> 
19 
1   -0.214076 
2   -0.164664 
3   -0.159484 
4   -0.201619 
5   -0.16679 
6   0.049134 
7   0.363146 
8   0.586947 
9   -0.633371 
10   -0.496916 
11   -0.471839 
12   0.160699 
13   0.170108 
14   0.170049 
15   0.158431 
16   0.16567 
17   0.125098 
18   0.148023 
19   0.411456 
 
>  <lowdin_charges> 
19 
1   -0.278246 
2   -0.127908 
3   -0.116953 
4   -0.215787 
5   -0.186767 
6   -0.066486 
7   0.117728 
8   0.193553 
9   -0.365231 
10   -0.275784 
11   -0.196949 
12   0.158565 
13   0.160416 
14   0.159614 
15   0.174903 
16   0.178351 
17   0.155499 
18   0.172759 
19   0.358723 
 
$$$$ 
 
