PCCDB-ID:  61207 
public computational chemistry database (PCCDB) project, http://pccdb.org 
 
 17 16  0  0  0  0  0  0  0  0999 V2000 
    1.4215    0.4067    0.0307 C   0  0  0  0  0  0  0  0  0  0  0  0 
    2.9135    1.7354    1.6082 C   0  0  0  0  0  0  0  0  0  0  0  0 
    2.9537   -0.7873    1.6409 C   0  0  0  0  0  0  0  0  0  0  0  0 
    4.0652    1.2763   -1.1457 C   0  0  0  0  0  0  0  0  0  0  0  0 
    2.7591    0.4590    0.7752 C   0  0  0  0  0  0  0  0  0  0  0  0 
    3.4150    2.2713   -1.3667 O   0  0  0  0  0  0  0  0  0  0  0  0 
    3.8743    0.3564   -0.1934 O   0  0  0  0  0  0  0  0  0  0  0  0 
    0.6010    0.3739    0.7563 H   0  0  0  0  0  0  0  0  0  0  0  0 
    1.3636   -0.4955   -0.5880 H   0  0  0  0  0  0  0  0  0  0  0  0 
    1.2890    1.2824   -0.6069 H   0  0  0  0  0  0  0  0  0  0  0  0 
    2.1606    1.7451    2.4044 H   0  0  0  0  0  0  0  0  0  0  0  0 
    2.7835    2.6277    0.9936 H   0  0  0  0  0  0  0  0  0  0  0  0 
    3.9032    1.7678    2.0767 H   0  0  0  0  0  0  0  0  0  0  0  0 
    2.1715   -0.8393    2.4056 H   0  0  0  0  0  0  0  0  0  0  0  0 
    3.9271   -0.7635    2.1412 H   0  0  0  0  0  0  0  0  0  0  0  0 
    2.9022   -1.6942    1.0299 H   0  0  0  0  0  0  0  0  0  0  0  0 
    4.9502    0.9808   -1.7337 H   0  0  0  0  0  0  0  0  0  0  0  0 
  1  8  1  0  0  0  0 
  1  5  1  0  0  0  0 
  2 13  1  0  0  0  0 
  2 11  1  0  0  0  0 
  3 15  1  0  0  0  0 
  3 14  1  0  0  0  0 
  4  7  1  0  0  0  0 
  5  2  1  0  0  0  0 
  5  3  1  0  0  0  0 
  6  4  2  0  0  0  0 
  7  5  1  0  0  0  0 
  9  1  1  0  0  0  0 
 10  1  1  0  0  0  0 
 12  2  1  0  0  0  0 
 16  3  1  0  0  0  0 
 17  4  1  0  0  0  0 
M  END 
>  <HBA> 
2 
 
>  <HBD> 
0 
 
>  <TPSA> 
26.3 
 
>  <cid> 
61207 
 
>  <dipole> 
2.12 
 
>  <excitation_energy_1> 
5.672 
 
>  <excitation_energy_2> 
7.158 
 
>  <excitation_energy_3> 
7.477 
 
>  <excitation_energy_4> 
7.685 
 
>  <homo_energy> 
-7.388 
 
>  <homo_lumo_gap> 
7.676 
 
>  <logP> 
1.594 
 
>  <lumo_energy> 
0.288 
 
>  <melting_point> 
-30.1 
 
>  <molecular_refractivity> 
27.86 
 
>  <oscillator_strength_1> 
0.0014 
 
>  <oscillator_strength_2> 
0.0108 
 
>  <oscillator_strength_3> 
0.0497 
 
>  <oscillator_strength_4> 
0.1286 
 
>  <open_babel_can_smiles> 
O=COC(C)(C)C 
 
>  <mulliken_charges> 
17 
1   -0.465158 
2   -0.465334 
3   -0.448303 
4   0.396862 
5   0.299822 
6   -0.427603 
7   -0.444897 
8   0.145779 
9   0.149997 
10   0.186185 
11   0.145795 
12   0.186088 
13   0.150212 
14   0.147424 
15   0.155694 
16   0.155985 
17   0.131451 
 
>  <lowdin_charges> 
17 
1   -0.457278 
2   -0.456284 
3   -0.444361 
4   0.088579 
5   0.143544 
6   -0.261264 
7   -0.19001 
8   0.156893 
9   0.155508 
10   0.17244 
11   0.156855 
12   0.172163 
13   0.154952 
14   0.156084 
15   0.157401 
16   0.158076 
17   0.1367 
 
$$$$ 
 
