PCCDB-ID:  6858 
public computational chemistry database (PCCDB) project, http://pccdb.org 
 
 26 26  0  0  0  0  0  0  0  0999 V2000 
    0.5551    1.6940    0.1760 C   0  0  0  0  0  0  0  0  0  0  0  0 
    3.8883    4.7909    4.9605 C   0  0  0  0  0  0  0  0  0  0  0  0 
    0.8873    4.6389    1.9831 C   0  0  0  0  0  0  0  0  0  0  0  0 
    3.6085    0.8285    1.8615 C   0  0  0  0  0  0  0  0  0  0  0  0 
    4.4360    2.5000    3.4175 C   0  0  0  0  0  0  0  0  0  0  0  0 
    5.9051    0.5944    2.7694 C   0  0  0  0  0  0  0  0  0  0  0  0 
    4.6211    1.3190    2.6809 C   0  0  0  0  0  0  0  0  0  0  0  0 
    2.3886    1.5088    1.7543 C   0  0  0  0  0  0  0  0  0  0  0  0 
    3.2246    3.1741    3.3334 C   0  0  0  0  0  0  0  0  0  0  0  0 
    2.1861    2.6907    2.4911 C   0  0  0  0  0  0  0  0  0  0  0  0 
    6.8565    0.9471    3.4424 O   0  0  0  0  0  0  0  0  0  0  0  0 
    1.4503    0.9106    0.9653 O   0  0  0  0  0  0  0  0  0  0  0  0 
    2.9184    4.2976    4.0451 O   0  0  0  0  0  0  0  0  0  0  0  0 
    0.9553    3.2919    2.4691 O   0  0  0  0  0  0  0  0  0  0  0  0 
    0.1793    1.0156   -0.5942 H   0  0  0  0  0  0  0  0  0  0  0  0 
    1.0789    2.5283   -0.3075 H   0  0  0  0  0  0  0  0  0  0  0  0 
   -0.2771    2.0787    0.7689 H   0  0  0  0  0  0  0  0  0  0  0  0 
    4.1320    4.0421    5.7241 H   0  0  0  0  0  0  0  0  0  0  0  0 
    3.4316    5.6608    5.4353 H   0  0  0  0  0  0  0  0  0  0  0  0 
    4.8086    5.0954    4.4462 H   0  0  0  0  0  0  0  0  0  0  0  0 
   -0.1723    4.9031    1.9935 H   0  0  0  0  0  0  0  0  0  0  0  0 
    1.2674    4.7004    0.9549 H   0  0  0  0  0  0  0  0  0  0  0  0 
    1.4466    5.3229    2.6242 H   0  0  0  0  0  0  0  0  0  0  0  0 
    3.7408   -0.0829    1.2857 H   0  0  0  0  0  0  0  0  0  0  0  0 
    5.2474    2.8405    4.0486 H   0  0  0  0  0  0  0  0  0  0  0  0 
    5.9544   -0.3346    2.1591 H   0  0  0  0  0  0  0  0  0  0  0  0 
  1 17  1  0  0  0  0 
  1 12  1  0  0  0  0 
  2 19  1  0  0  0  0 
  2 18  1  0  0  0  0 
  3 21  1  0  0  0  0 
  3 14  1  0  0  0  0 
  3 23  1  0  0  0  0 
  4  7  1  0  0  0  0 
  5 25  1  0  0  0  0 
  6 11  2  0  0  0  0 
  7  6  1  0  0  0  0 
  7  5  2  0  0  0  0 
  8  4  2  0  0  0  0 
  8 10  1  0  0  0  0 
  9  5  1  0  0  0  0 
  9 13  1  0  0  0  0 
 10  9  2  0  0  0  0 
 12  8  1  0  0  0  0 
 13  2  1  0  0  0  0 
 14 10  1  0  0  0  0 
 15  1  1  0  0  0  0 
 16  1  1  0  0  0  0 
 20  2  1  0  0  0  0 
 22  3  1  0  0  0  0 
 24  4  1  0  0  0  0 
 26  6  1  0  0  0  0 
M  END 
>  <HBA> 
4 
 
>  <HBD> 
0 
 
>  <TPSA> 
44.76 
 
>  <cid> 
6858 
 
>  <dipole> 
3.96 
 
>  <excitation_energy_1> 
3.767 
 
>  <excitation_energy_2> 
3.963 
 
>  <excitation_energy_3> 
4.346 
 
>  <excitation_energy_4> 
5.285 
 
>  <homo_energy> 
-6.142 
 
>  <homo_lumo_gap> 
4.659 
 
>  <logP> 
1.525 
 
>  <lumo_energy> 
-1.483 
 
>  <melting_point> 
55.41 
 
>  <molecular_refractivity> 
51.31 
 
>  <oscillator_strength_1> 
0.0006 
 
>  <oscillator_strength_2> 
0.0328 
 
>  <oscillator_strength_3> 
0.2238 
 
>  <oscillator_strength_4> 
0.0073 
 
>  <open_babel_can_smiles> 
COc1cc(C=O)cc(c1OC)OC 
 
>  <mulliken_charges> 
26 
1   -0.206753 
2   -0.218655 
3   -0.218573 
4   -0.250335 
5   -0.256169 
6   0.191557 
7   0.102776 
8   0.340281 
9   0.357098 
10   0.271591 
11   -0.417204 
12   -0.521534 
13   -0.515439 
14   -0.517186 
15   0.160319 
16   0.140692 
17   0.172211 
18   0.16407 
19   0.171492 
20   0.160053 
21   0.16261 
22   0.139025 
23   0.178133 
24   0.144415 
25   0.161915 
26   0.103608 
 
>  <lowdin_charges> 
26 
1   -0.277408 
2   -0.278776 
3   -0.276275 
4   -0.176719 
5   -0.20336 
6   0.046929 
7   -0.049829 
8   0.083929 
9   0.08509 
10   0.047644 
11   -0.23624 
12   -0.204606 
13   -0.194459 
14   -0.212771 
15   0.157202 
16   0.142403 
17   0.157065 
18   0.15352 
19   0.164597 
20   0.149939 
21   0.156746 
22   0.13652 
23   0.160207 
24   0.170587 
25   0.180141 
26   0.117924 
 
$$$$ 
 
