PCCDB-ID:  18814 
public computational chemistry database (PCCDB) project, http://pccdb.org 
 
 22 22  0  0  1  0  0  0  0  0999 V2000 
    0.7231    1.2744   -0.2258 C   0  0  0  0  0  0  0  0  0  0  0  0 
    1.4729    0.0173    0.2431 C   0  0  0  0  0  0  0  0  0  0  0  0 
   -0.7450    1.2604    0.2254 C   0  0  0  0  0  0  0  0  0  0  0  0 
   -0.6998   -1.2689    0.2484 C   0  0  0  0  0  0  0  0  0  0  0  0 
    0.7672   -1.2770   -0.2071 C   0  0  2  0  0  0  0  0  0  0  0  0 
   -1.4696   -0.0172   -0.2199 C   0  0  1  0  0  0  0  0  0  0  0  0 
    1.4103   -2.5221    0.2368 N   0  0  0  0  0  0  0  0  0  0  0  0 
   -2.8716    0.0377    0.2186 N   0  0  0  0  0  0  0  0  0  0  0  0 
    0.7633    1.3298   -1.3236 H   0  0  0  0  0  0  0  0  0  0  0  0 
    1.2241    2.1765    0.1467 H   0  0  0  0  0  0  0  0  0  0  0  0 
    1.5391    0.0159    1.3427 H   0  0  0  0  0  0  0  0  0  0  0  0 
    2.5053    0.0264   -0.1334 H   0  0  0  0  0  0  0  0  0  0  0  0 
   -1.2841    2.1325   -0.1612 H   0  0  0  0  0  0  0  0  0  0  0  0 
   -0.7880    1.3247    1.3248 H   0  0  0  0  0  0  0  0  0  0  0  0 
   -0.7317   -1.3067    1.3507 H   0  0  0  0  0  0  0  0  0  0  0  0 
   -1.1928   -2.1806   -0.1122 H   0  0  0  0  0  0  0  0  0  0  0  0 
    0.7768   -1.3016   -1.3076 H   0  0  0  0  0  0  0  0  0  0  0  0 
   -1.4925   -0.0241   -1.3203 H   0  0  0  0  0  0  0  0  0  0  0  0 
    1.4509   -2.5302    1.2572 H   0  0  0  0  0  0  0  0  0  0  0  0 
    2.3815   -2.5328   -0.0760 H   0  0  0  0  0  0  0  0  0  0  0  0 
   -2.9016    0.0187    1.2393 H   0  0  0  0  0  0  0  0  0  0  0  0 
   -3.3553   -0.8080   -0.0847 H   0  0  0  0  0  0  0  0  0  0  0  0 
  1 10  1  0  0  0  0 
  1  3  1  0  0  0  0 
  1  2  1  0  0  0  0 
  2 11  1  0  0  0  0 
  3 14  1  0  0  0  0 
  4 15  1  0  0  0  0 
  5 17  1  6  0  0  0 
  5  7  1  0  0  0  0 
  5  2  1  0  0  0  0 
  5  4  1  0  0  0  0 
  6 18  1  6  0  0  0 
  6  8  1  0  0  0  0 
  6  3  1  0  0  0  0 
  6  4  1  0  0  0  0 
  7 19  1  0  0  0  0 
  8 21  1  0  0  0  0 
  9  1  1  0  0  0  0 
 12  2  1  0  0  0  0 
 13  3  1  0  0  0  0 
 16  4  1  0  0  0  0 
 20  7  1  0  0  0  0 
 22  8  1  0  0  0  0 
M  END 
>  <HBA> 
2 
 
>  <HBD> 
2 
 
>  <TPSA> 
52.04 
 
>  <cid> 
18814 
 
>  <dipole> 
1.59 
 
>  <excitation_energy_1> 
5.629 
 
>  <excitation_energy_2> 
5.702 
 
>  <excitation_energy_3> 
6.079 
 
>  <excitation_energy_4> 
6.127 
 
>  <homo_energy> 
-6.139 
 
>  <homo_lumo_gap> 
8.365 
 
>  <logP> 
1.616 
 
>  <lumo_energy> 
2.226 
 
>  <melting_point> 
104.51 
 
>  <molecular_refractivity> 
34.26 
 
>  <oscillator_strength_1> 
0.0261 
 
>  <oscillator_strength_2> 
0.0373 
 
>  <oscillator_strength_3> 
0.0064 
 
>  <oscillator_strength_4> 
0.0023 
 
>  <open_babel_can_smiles> 
N[C@@H]1CCC[C@@H](C1)N 
 
>  <mulliken_charges> 
22 
1   -0.267971 
2   -0.263213 
3   -0.249334 
4   -0.258102 
5   0.020939 
6   0.020109 
7   -0.711166 
8   -0.711166 
9   0.131039 
10   0.133449 
11   0.117477 
12   0.122045 
13   0.147404 
14   0.116879 
15   0.107219 
16   0.138464 
17   0.125507 
18   0.126176 
19   0.286067 
20   0.290797 
21   0.285618 
22   0.291763 
 
>  <lowdin_charges> 
22 
1   -0.277006 
2   -0.29286 
3   -0.278829 
4   -0.295945 
5   -0.069623 
6   -0.068361 
7   -0.544063 
8   -0.545901 
9   0.137187 
10   0.146412 
11   0.130869 
12   0.137934 
13   0.153867 
14   0.131181 
15   0.12722 
16   0.148405 
17   0.133145 
18   0.133402 
19   0.245816 
20   0.249668 
21   0.245554 
22   0.251927 
 
$$$$ 
 
