PCCDB-ID:  22570 
public computational chemistry database (PCCDB) project, http://pccdb.org 
 
 34 35  0  0  1  0  0  0  0  0999 V2000 
    1.2481   -0.3308    2.3038 C   0  0  0  0  0  0  0  0  0  0  0  0 
    1.4935    0.0728   -0.6242 C   0  0  0  0  0  0  0  0  0  0  0  0 
    7.1961    0.7681   -0.1738 C   0  0  0  0  0  0  0  0  0  0  0  0 
    8.8436   -4.0514    0.8985 C   0  0  0  0  0  0  0  0  0  0  0  0 
    9.2147   -2.7800    1.3310 C   0  0  0  0  0  0  0  0  0  0  0  0 
    7.7236   -4.1947    0.0747 C   0  0  0  0  0  0  0  0  0  0  0  0 
    8.4743   -1.6583    0.9443 C   0  0  0  0  0  0  0  0  0  0  0  0 
    6.9885   -3.0746   -0.3057 C   0  0  0  0  0  0  0  0  0  0  0  0 
    3.7490   -0.6793    2.3541 C   0  0  0  0  0  0  0  0  0  0  0  0 
    5.0017   -0.7622    1.7484 C   0  0  0  0  0  0  0  0  0  0  0  0 
    3.9738   -0.3024   -0.3674 C   0  0  0  0  0  0  0  0  0  0  0  0 
    2.5911   -0.4085    1.6170 C   0  0  0  0  0  0  0  0  0  0  0  0 
    2.7093   -0.2165    0.2249 C   0  0  0  0  0  0  0  0  0  0  0  0 
    6.4972   -0.5974   -0.3222 C   0  0  1  0  0  0  0  0  0  0  0  0 
    7.3493   -1.7866    0.1212 C   0  0  0  0  0  0  0  0  0  0  0  0 
    5.1330   -0.5715    0.3696 C   0  0  0  0  0  0  0  0  0  0  0  0 
    1.3448   -0.5116    3.3788 H   0  0  0  0  0  0  0  0  0  0  0  0 
    0.5417   -1.0704    1.9043 H   0  0  0  0  0  0  0  0  0  0  0  0 
    0.7784    0.6532    2.1730 H   0  0  0  0  0  0  0  0  0  0  0  0 
    1.7675    0.2030   -1.6757 H   0  0  0  0  0  0  0  0  0  0  0  0 
    0.9778    0.9857   -0.2985 H   0  0  0  0  0  0  0  0  0  0  0  0 
    0.7562   -0.7393   -0.5703 H   0  0  0  0  0  0  0  0  0  0  0  0 
    8.1641    0.7776   -0.6878 H   0  0  0  0  0  0  0  0  0  0  0  0 
    7.3613    1.0246    0.8783 H   0  0  0  0  0  0  0  0  0  0  0  0 
    6.5692    1.5552   -0.6050 H   0  0  0  0  0  0  0  0  0  0  0  0 
    9.4201   -4.9231    1.1968 H   0  0  0  0  0  0  0  0  0  0  0  0 
   10.0851   -2.6535    1.9699 H   0  0  0  0  0  0  0  0  0  0  0  0 
    7.4246   -5.1804   -0.2726 H   0  0  0  0  0  0  0  0  0  0  0  0 
    8.7887   -0.6774    1.2873 H   0  0  0  0  0  0  0  0  0  0  0  0 
    6.1140   -3.1952   -0.9415 H   0  0  0  0  0  0  0  0  0  0  0  0 
    3.6661   -0.8337    3.4280 H   0  0  0  0  0  0  0  0  0  0  0  0 
    5.8773   -0.9904    2.3505 H   0  0  0  0  0  0  0  0  0  0  0  0 
    4.0565   -0.1530   -1.4433 H   0  0  0  0  0  0  0  0  0  0  0  0 
    6.3021   -0.7382   -1.3943 H   0  0  0  0  0  0  0  0  0  0  0  0 
  1 17  1  0  0  0  0 
  2 22  1  0  0  0  0 
  2 21  1  0  0  0  0 
  2 13  1  0  0  0  0 
  3 24  1  0  0  0  0 
  4 26  1  0  0  0  0 
  4  5  2  0  0  0  0 
  5 27  1  0  0  0  0 
  6  4  1  0  0  0  0 
  7 29  1  0  0  0  0 
  7  5  1  0  0  0  0 
  8  6  2  0  0  0  0 
  8 15  1  0  0  0  0 
  9 31  1  0  0  0  0 
 10 32  1  0  0  0  0 
 10  9  1  0  0  0  0 
 11 13  2  0  0  0  0 
 11 16  1  0  0  0  0 
 12  1  1  0  0  0  0 
 12  9  2  0  0  0  0 
 13 12  1  0  0  0  0 
 14 34  1  6  0  0  0 
 14  3  1  0  0  0  0 
 14 15  1  0  0  0  0 
 14 16  1  0  0  0  0 
 15  7  2  0  0  0  0 
 16 10  2  0  0  0  0 
 18  1  1  0  0  0  0 
 19  1  1  0  0  0  0 
 20  2  1  0  0  0  0 
 23  3  1  0  0  0  0 
 25  3  1  0  0  0  0 
 28  6  1  0  0  0  0 
 30  8  1  0  0  0  0 
 33 11  1  0  0  0  0 
M  END 
>  <HBA> 
0 
 
>  <HBD> 
0 
 
>  <TPSA> 
0.0 
 
>  <cid> 
22570 
 
>  <dipole> 
0.62 
 
>  <excitation_energy_1> 
5.066 
 
>  <excitation_energy_2> 
5.213 
 
>  <excitation_energy_3> 
5.286 
 
>  <excitation_energy_4> 
5.536 
 
>  <homo_energy> 
-5.981 
 
>  <homo_lumo_gap> 
6.016 
 
>  <logP> 
4.455 
 
>  <lumo_energy> 
0.035 
 
>  <melting_point> 
46.56 
 
>  <molecular_refractivity> 
70.63 
 
>  <oscillator_strength_1> 
0.0313 
 
>  <oscillator_strength_2> 
0.002 
 
>  <oscillator_strength_3> 
0.0326 
 
>  <oscillator_strength_4> 
0.0795 
 
>  <open_babel_can_smiles> 
C[C@H](c1ccc(c(c1)C)C)c1ccccc1 
 
>  <mulliken_charges> 
34 
1   -0.532329 
2   -0.533283 
3   -0.448211 
4   -0.130218 
5   -0.131419 
6   -0.128757 
7   -0.192257 
8   -0.172819 
9   -0.186997 
10   -0.182834 
11   -0.259883 
12   0.130286 
13   0.140068 
14   -0.248734 
15   0.168989 
16   0.191478 
17   0.153858 
18   0.157594 
19   0.157293 
20   0.153381 
21   0.158049 
22   0.15834 
23   0.148511 
24   0.150698 
25   0.150195 
26   0.126116 
27   0.126237 
28   0.127168 
29   0.125111 
30   0.126476 
31   0.118712 
32   0.129749 
33   0.111446 
34   0.137987 
 
>  <lowdin_charges> 
34 
1   -0.440427 
2   -0.440688 
3   -0.441211 
4   -0.16306 
5   -0.155678 
6   -0.15503 
7   -0.175582 
8   -0.159296 
9   -0.162476 
10   -0.169511 
11   -0.179381 
12   -0.012484 
13   -0.008102 
14   -0.117868 
15   -0.001067 
16   -0.004301 
17   0.154863 
18   0.158216 
19   0.156685 
20   0.154707 
21   0.15794 
22   0.158184 
23   0.150941 
24   0.149486 
25   0.156478 
26   0.156885 
27   0.155867 
28   0.156075 
29   0.157072 
30   0.15638 
31   0.150527 
32   0.160122 
33   0.146508 
34   0.149228 
 
$$$$ 
 
