PCCDB-ID:  33942 
public computational chemistry database (PCCDB) project, http://pccdb.org 
 
 25 25  0  0  0  0  0  0  0  0999 V2000 
    1.1839    0.4318   -0.0953 C   0  0  0  0  0  0  0  0  0  0  0  0 
    5.3261   -2.5214    0.4828 C   0  0  0  0  0  0  0  0  0  0  0  0 
    4.8599    1.2547    0.4204 C   0  0  0  0  0  0  0  0  0  0  0  0 
    3.4867    1.3755    0.2241 C   0  0  0  0  0  0  0  0  0  0  0  0 
    5.4332   -0.0112    0.4901 C   0  0  0  0  0  0  0  0  0  0  0  0 
    2.4029   -2.2822   -0.0523 C   0  0  0  0  0  0  0  0  0  0  0  0 
    2.2176   -2.6624   -1.5368 C   0  0  0  0  0  0  0  0  0  0  0  0 
    2.6758    0.2433    0.0852 C   0  0  0  0  0  0  0  0  0  0  0  0 
    4.6536   -1.1682    0.3569 C   0  0  0  0  0  0  0  0  0  0  0  0 
    3.2606   -1.0432    0.1435 C   0  0  0  0  0  0  0  0  0  0  0  0 
    3.4427   -2.8846   -2.2227 O   0  0  0  0  0  0  0  0  0  0  0  0 
    0.9291    1.4957   -0.1139 H   0  0  0  0  0  0  0  0  0  0  0  0 
    0.6141   -0.0271    0.7232 H   0  0  0  0  0  0  0  0  0  0  0  0 
    0.8135   -0.0112   -1.0270 H   0  0  0  0  0  0  0  0  0  0  0  0 
    6.4116   -2.4053    0.5589 H   0  0  0  0  0  0  0  0  0  0  0  0 
    5.1092   -3.1673   -0.3733 H   0  0  0  0  0  0  0  0  0  0  0  0 
    4.9906   -3.0542    1.3826 H   0  0  0  0  0  0  0  0  0  0  0  0 
    5.4781    2.1426    0.5250 H   0  0  0  0  0  0  0  0  0  0  0  0 
    3.0304    2.3617    0.1813 H   0  0  0  0  0  0  0  0  0  0  0  0 
    6.5033   -0.1123    0.6548 H   0  0  0  0  0  0  0  0  0  0  0  0 
    2.8436   -3.1374    0.4686 H   0  0  0  0  0  0  0  0  0  0  0  0 
    1.4072   -2.1332    0.3827 H   0  0  0  0  0  0  0  0  0  0  0  0 
    1.6220   -1.8919   -2.0514 H   0  0  0  0  0  0  0  0  0  0  0  0 
    1.6637   -3.6042   -1.6063 H   0  0  0  0  0  0  0  0  0  0  0  0 
    3.9463   -2.0554   -2.1729 H   0  0  0  0  0  0  0  0  0  0  0  0 
  1  8  1  0  0  0  0 
  1 13  1  0  0  0  0 
  2 15  1  0  0  0  0 
  2 17  1  0  0  0  0 
  3  5  1  0  0  0  0 
  3 18  1  0  0  0  0 
  4  3  2  0  0  0  0 
  5 20  1  0  0  0  0 
  6 10  1  0  0  0  0 
  6 22  1  0  0  0  0 
  6 21  1  0  0  0  0 
  7  6  1  0  0  0  0 
  8 10  2  0  0  0  0 
  8  4  1  0  0  0  0 
  9  2  1  0  0  0  0 
  9  5  2  0  0  0  0 
 10  9  1  0  0  0  0 
 11 25  1  0  0  0  0 
 11  7  1  0  0  0  0 
 12  1  1  0  0  0  0 
 14  1  1  0  0  0  0 
 16  2  1  0  0  0  0 
 19  4  1  0  0  0  0 
 23  7  1  0  0  0  0 
 24  7  1  0  0  0  0 
M  END 
>  <HBA> 
1 
 
>  <HBD> 
1 
 
>  <TPSA> 
20.23 
 
>  <cid> 
33942 
 
>  <dipole> 
1.49 
 
>  <excitation_energy_1> 
5.125 
 
>  <excitation_energy_2> 
5.609 
 
>  <excitation_energy_3> 
5.858 
 
>  <excitation_energy_4> 
5.893 
 
>  <homo_energy> 
-6.346 
 
>  <homo_lumo_gap> 
6.261 
 
>  <logP> 
1.838 
 
>  <lumo_energy> 
-0.084 
 
>  <melting_point> 
34.78 
 
>  <molecular_refractivity> 
47.31 
 
>  <oscillator_strength_1> 
0.0018 
 
>  <oscillator_strength_2> 
0.0397 
 
>  <oscillator_strength_3> 
0.0124 
 
>  <oscillator_strength_4> 
0.0017 
 
>  <open_babel_can_smiles> 
OCCc1c(C)cccc1C 
 
>  <mulliken_charges> 
25 
1   -0.541177 
2   -0.546285 
3   -0.120923 
4   -0.18765 
5   -0.186436 
6   -0.354995 
7   -0.029851 
8   0.134622 
9   0.117098 
10   0.025537 
11   -0.613182 
12   0.156299 
13   0.163491 
14   0.161223 
15   0.150734 
16   0.180388 
17   0.160034 
18   0.126796 
19   0.120001 
20   0.121113 
21   0.15291 
22   0.13953 
23   0.126591 
24   0.147294 
25   0.396838 
 
>  <lowdin_charges> 
25 
1   -0.445348 
2   -0.453815 
3   -0.15849 
4   -0.172687 
5   -0.170772 
6   -0.297656 
7   -0.132304 
8   -0.006464 
9   -0.011872 
10   -0.034043 
11   -0.466165 
12   0.15637 
13   0.160154 
14   0.157062 
15   0.15329 
16   0.168244 
17   0.158898 
18   0.157571 
19   0.152946 
20   0.152052 
21   0.158613 
22   0.153987 
23   0.127783 
24   0.148315 
25   0.34433 
 
$$$$ 
 
