PCCDB-ID:  69190 
public computational chemistry database (PCCDB) project, http://pccdb.org 
 
 20 20  0  0  1  0  0  0  0  0999 V2000 
   -1.7369   -0.3057    0.5001 C   0  0  0  0  0  0  0  0  0  0  0  0 
   -0.9899    0.7260    1.0707 C   0  0  0  0  0  0  0  0  0  0  0  0 
   -1.1178   -1.2273   -0.3476 C   0  0  0  0  0  0  0  0  0  0  0  0 
    0.3745    0.8282    0.8039 C   0  0  0  0  0  0  0  0  0  0  0  0 
    0.2430   -1.1222   -0.6274 C   0  0  0  0  0  0  0  0  0  0  0  0 
    1.0021   -0.0934   -0.0504 C   0  0  0  0  0  0  0  0  0  0  0  0 
    2.4685    0.0176   -0.3097 C   0  0  2  0  0  0  0  0  0  0  0  0 
    2.4841   -0.4219   -2.6144 C   0  0  0  0  0  0  0  0  0  0  0  0 
    2.6392   -1.4461   -3.3612 N   0  0  0  0  0  0  0  0  0  0  0  0 
    3.1061   -0.1805   -1.3949 N   0  0  0  0  0  0  0  0  0  0  0  0 
    3.2221    0.3680    0.7652 O   0  0  0  0  0  0  0  0  0  0  0  0 
    1.7125    0.6128   -3.0370 O   0  0  0  0  0  0  0  0  0  0  0  0 
   -2.7992   -0.3894    0.7119 H   0  0  0  0  0  0  0  0  0  0  0  0 
   -1.4687    1.4543    1.7191 H   0  0  0  0  0  0  0  0  0  0  0  0 
   -1.6957   -2.0326   -0.7920 H   0  0  0  0  0  0  0  0  0  0  0  0 
    0.9467    1.6491    1.2289 H   0  0  0  0  0  0  0  0  0  0  0  0 
    0.7199   -1.8360   -1.2910 H   0  0  0  0  0  0  0  0  0  0  0  0 
    3.2806   -2.1051   -2.9190 H   0  0  0  0  0  0  0  0  0  0  0  0 
    2.6796    0.2873    1.5661 H   0  0  0  0  0  0  0  0  0  0  0  0 
    1.4104    0.3545   -3.9270 H   0  0  0  0  0  0  0  0  0  0  0  0 
  1 13  1  0  0  0  0 
  1  2  2  0  0  0  0 
  2 14  1  0  0  0  0 
  3  1  1  0  0  0  0 
  4  2  1  0  0  0  0 
  4 16  1  0  0  0  0 
  5  3  2  0  0  0  0 
  5  6  1  0  0  0  0 
  6  4  2  0  0  0  0 
  7 10  1  1  0  0  0 
  7  6  1  0  0  0  0 
  7 11  1  0  0  0  0 
  8 10  2  0  0  0  0 
  9 18  1  0  0  0  0 
  9  8  1  0  0  0  0 
 11 19  1  0  0  0  0 
 12  8  1  0  0  0  0 
 15  3  1  0  0  0  0 
 17  5  1  0  0  0  0 
 20 12  1  0  0  0  0 
M  RAD  2   7   2   9   2 
M  END 
>  <HBA> 
4 
 
>  <HBD> 
2 
 
>  <TPSA> 
72.19 
 
>  <cid> 
69190 
 
>  <dipole> 
5.05 
 
>  <excitation_energy_1> 
4.316 
 
>  <excitation_energy_2> 
4.992 
 
>  <excitation_energy_3> 
5.039 
 
>  <excitation_energy_4> 
5.212 
 
>  <homo_energy> 
-6.561 
 
>  <homo_lumo_gap> 
5.162 
 
>  <logP> 
1.586 
 
>  <lumo_energy> 
-1.399 
 
>  <melting_point> 
151.36 
 
>  <molecular_refractivity> 
42.73 
 
>  <oscillator_strength_1> 
0.0099 
 
>  <oscillator_strength_2> 
0.0476 
 
>  <oscillator_strength_3> 
0.1072 
 
>  <oscillator_strength_4> 
0.0041 
 
>  <open_babel_can_smiles> 
O[C](c1ccccc1)/N=C(/O)\[NH] 
 
>  <mulliken_charges> 
20 
1   -0.118462 
2   -0.130164 
3   -0.137858 
4   -0.191239 
5   -0.154029 
6   0.075501 
7   0.435299 
8   0.559408 
9   -0.632205 
10   -0.440428 
11   -0.565508 
12   -0.573402 
13   0.143568 
14   0.144013 
15   0.146824 
16   0.1504 
17   0.169086 
18   0.291901 
19   0.412374 
20   0.414922 
 
>  <lowdin_charges> 
20 
1   -0.139064 
2   -0.150437 
3   -0.147953 
4   -0.164589 
5   -0.140896 
6   -0.044156 
7   0.16355 
8   0.153739 
9   -0.464793 
10   -0.183123 
11   -0.343237 
12   -0.369715 
13   0.163043 
14   0.166039 
15   0.167297 
16   0.166003 
17   0.17922 
18   0.264791 
19   0.360296 
20   0.363985 
 
$$$$ 
 
