PCCDB-ID:  28558 
public computational chemistry database (PCCDB) project, http://pccdb.org 
 
 18 17  0  0  1  0  0  0  0  0999 V2000 
    1.2861   -0.2360    0.4117 C   0  0  0  0  0  0  0  0  0  0  0  0 
    3.2697    0.4753   -0.8611 C   0  0  0  0  0  0  0  0  0  0  0  0 
    4.8050    0.4892   -0.8193 C   0  0  1  0  0  0  0  0  0  0  0  0 
    5.3753    1.1826    0.4353 C   0  0  0  0  0  0  0  0  0  0  0  0 
    5.3161   -0.8942   -0.9445 N   0  0  0  0  0  0  0  0  0  0  0  0 
    2.7367   -0.3521    0.2350 N   0  0  0  0  0  0  0  0  0  0  0  0 
    6.3626    1.8819    0.4000 O   0  0  0  0  0  0  0  0  0  0  0  0 
    4.7502    0.8827    1.5908 O   0  0  0  0  0  0  0  0  0  0  0  0 
    0.9590   -0.9312    1.1904 H   0  0  0  0  0  0  0  0  0  0  0  0 
    0.7192   -0.4464   -0.5093 H   0  0  0  0  0  0  0  0  0  0  0  0 
    1.0420    0.7798    0.7386 H   0  0  0  0  0  0  0  0  0  0  0  0 
    2.9389    0.1170   -1.8478 H   0  0  0  0  0  0  0  0  0  0  0  0 
    2.8897    1.4957   -0.7283 H   0  0  0  0  0  0  0  0  0  0  0  0 
    5.1688    1.0563   -1.6795 H   0  0  0  0  0  0  0  0  0  0  0  0 
    5.3414   -1.3305   -0.0225 H   0  0  0  0  0  0  0  0  0  0  0  0 
    6.2878   -0.8608   -1.2486 H   0  0  0  0  0  0  0  0  0  0  0  0 
    2.9701   -1.3226    0.0264 H   0  0  0  0  0  0  0  0  0  0  0  0 
    3.9232    0.3591    1.3778 H   0  0  0  0  0  0  0  0  0  0  0  0 
  1 11  1  0  0  0  0 
  1  9  1  0  0  0  0 
  2  3  1  0  0  0  0 
  2 13  1  0  0  0  0 
  2  6  1  0  0  0  0 
  3 14  1  6  0  0  0 
  3  4  1  0  0  0  0 
  4  8  1  0  0  0  0 
  5  3  1  0  0  0  0 
  5 15  1  0  0  0  0 
  6  1  1  0  0  0  0 
  7  4  2  0  0  0  0 
 10  1  1  0  0  0  0 
 12  2  1  0  0  0  0 
 16  5  1  0  0  0  0 
 17  6  1  0  0  0  0 
 18  8  1  0  0  0  0 
M  END 
>  <HBA> 
4 
 
>  <HBD> 
3 
 
>  <TPSA> 
75.35 
 
>  <cid> 
28558 
 
>  <dipole> 
5.08 
 
>  <excitation_energy_1> 
5.308 
 
>  <excitation_energy_2> 
5.728 
 
>  <excitation_energy_3> 
6.226 
 
>  <excitation_energy_4> 
6.288 
 
>  <homo_energy> 
-6.4 
 
>  <homo_lumo_gap> 
6.98 
 
>  <logP> 
-0.291 
 
>  <lumo_energy> 
0.58 
 
>  <melting_point> 
133.35 
 
>  <molecular_refractivity> 
28.62 
 
>  <oscillator_strength_1> 
0.0101 
 
>  <oscillator_strength_2> 
0.0149 
 
>  <oscillator_strength_3> 
0.0039 
 
>  <oscillator_strength_4> 
0.0064 
 
>  <open_babel_can_smiles> 
CNC[C@@H](C(=O)O)N 
 
>  <mulliken_charges> 
18 
1   -0.301644 
2   -0.130031 
3   -0.088908 
4   0.574484 
5   -0.723719 
6   -0.606946 
7   -0.464374 
8   -0.599241 
9   0.163695 
10   0.144099 
11   0.168591 
12   0.150153 
13   0.159351 
14   0.168192 
15   0.303712 
16   0.322666 
17   0.327111 
18   0.432809 
 
>  <lowdin_charges> 
18 
1   -0.359088 
2   -0.212511 
3   -0.109139 
4   0.161582 
5   -0.542672 
6   -0.354151 
7   -0.261781 
8   -0.382231 
9   0.159999 
10   0.138233 
11   0.156929 
12   0.144209 
13   0.152391 
14   0.168151 
15   0.25589 
16   0.269543 
17   0.266158 
18   0.348486 
 
$$$$ 
 
