PCCDB-ID:  33293 
public computational chemistry database (PCCDB) project, http://pccdb.org 
 
 28 29  0  0  0  0  0  0  0  0999 V2000 
    0.9450    0.2558    0.0538 C   0  0  0  0  0  0  0  0  0  0  0  0 
    2.1317   -4.8814    0.6489 C   0  0  0  0  0  0  0  0  0  0  0  0 
    4.9206   -5.9658   -0.5416 C   0  0  0  0  0  0  0  0  0  0  0  0 
    2.3446   -2.4088    0.2746 C   0  0  0  0  0  0  0  0  0  0  0  0 
    3.2516    1.1955   -0.1060 C   0  0  0  0  0  0  0  0  0  0  0  0 
    5.1094   -2.5084    0.1889 C   0  0  0  0  0  0  0  0  0  0  0  0 
    2.4432    0.1104    0.0212 C   0  0  0  0  0  0  0  0  0  0  0  0 
    2.9633   -3.6489    0.3834 C   0  0  0  0  0  0  0  0  0  0  0  0 
    3.0538   -1.2016    0.1270 C   0  0  0  0  0  0  0  0  0  0  0  0 
    4.3843   -3.6990    0.3190 C   0  0  0  0  0  0  0  0  0  0  0  0 
    4.4580   -1.2821    0.1032 C   0  0  0  0  0  0  0  0  0  0  0  0 
    4.7025    1.1098   -0.1400 C   0  0  0  0  0  0  0  0  0  0  0  0 
    5.0823   -4.9139    0.4681 N   0  0  0  0  0  0  0  0  0  0  0  0 
    5.4732    2.0345   -0.2566 O   0  0  0  0  0  0  0  0  0  0  0  0 
    5.2432   -0.1741   -0.0246 O   0  0  0  0  0  0  0  0  0  0  0  0 
    0.6515    1.3042   -0.0416 H   0  0  0  0  0  0  0  0  0  0  0  0 
    0.5327   -0.1335    0.9928 H   0  0  0  0  0  0  0  0  0  0  0  0 
    0.4753   -0.3076   -0.7619 H   0  0  0  0  0  0  0  0  0  0  0  0 
    1.1724   -4.6048    1.0977 H   0  0  0  0  0  0  0  0  0  0  0  0 
    2.6495   -5.5581    1.3371 H   0  0  0  0  0  0  0  0  0  0  0  0 
    1.9068   -5.4488   -0.2642 H   0  0  0  0  0  0  0  0  0  0  0  0 
    5.5193   -6.8300   -0.2386 H   0  0  0  0  0  0  0  0  0  0  0  0 
    5.2373   -5.6523   -1.5490 H   0  0  0  0  0  0  0  0  0  0  0  0 
    3.8806   -6.2891   -0.5988 H   0  0  0  0  0  0  0  0  0  0  0  0 
    1.2602   -2.3731    0.3312 H   0  0  0  0  0  0  0  0  0  0  0  0 
    2.8498    2.1994   -0.1888 H   0  0  0  0  0  0  0  0  0  0  0  0 
    6.1945   -2.5212    0.1376 H   0  0  0  0  0  0  0  0  0  0  0  0 
    6.0706   -4.7279    0.6089 H   0  0  0  0  0  0  0  0  0  0  0  0 
  1 17  1  0  0  0  0 
  2 19  1  0  0  0  0 
  2 20  1  0  0  0  0 
  3 22  1  0  0  0  0 
  3 13  1  0  0  0  0 
  4 25  1  0  0  0  0 
  4  8  2  0  0  0  0 
  5  7  2  0  0  0  0 
  6 10  2  0  0  0  0 
  7  1  1  0  0  0  0 
  7  9  1  0  0  0  0 
  8  2  1  0  0  0  0 
  9  4  1  0  0  0  0 
 10  8  1  0  0  0  0 
 10 13  1  0  0  0  0 
 11  9  2  0  0  0  0 
 11  6  1  0  0  0  0 
 12  5  1  0  0  0  0 
 12 15  1  0  0  0  0 
 13 28  1  0  0  0  0 
 14 12  2  0  0  0  0 
 15 11  1  0  0  0  0 
 16  1  1  0  0  0  0 
 18  1  1  0  0  0  0 
 21  2  1  0  0  0  0 
 23  3  1  0  0  0  0 
 24  3  1  0  0  0  0 
 26  5  1  0  0  0  0 
 27  6  1  0  0  0  0 
M  END 
>  <HBA> 
3 
 
>  <HBD> 
1 
 
>  <TPSA> 
42.24 
 
>  <cid> 
33293 
 
>  <dipole> 
5.76 
 
>  <excitation_energy_1> 
3.837 
 
>  <excitation_energy_2> 
4.268 
 
>  <excitation_energy_3> 
4.565 
 
>  <excitation_energy_4> 
4.837 
 
>  <homo_energy> 
-5.706 
 
>  <homo_lumo_gap> 
4.242 
 
>  <logP> 
2.525 
 
>  <lumo_energy> 
-1.464 
 
>  <melting_point> 
127.56 
 
>  <molecular_refractivity> 
61.72 
 
>  <oscillator_strength_1> 
0.3452 
 
>  <oscillator_strength_2> 
0.0087 
 
>  <oscillator_strength_3> 
0.0031 
 
>  <oscillator_strength_4> 
0.0319 
 
>  <open_babel_can_smiles> 
CNc1cc2oc(=O)cc(c2cc1C)C 
 
>  <mulliken_charges> 
28 
1   -0.534847 
2   -0.54532 
3   -0.320278 
4   -0.296454 
5   -0.307982 
6   -0.255808 
7   0.200875 
8   0.181894 
9   0.099809 
10   0.261298 
11   0.31292 
12   0.603783 
13   -0.625831 
14   -0.47735 
15   -0.523962 
16   0.170189 
17   0.173308 
18   0.172759 
19   0.15678 
20   0.177629 
21   0.160803 
22   0.160116 
23   0.1477 
24   0.17017 
25   0.128241 
26   0.150149 
27   0.14171 
28   0.317696 
 
>  <lowdin_charges> 
28 
1   -0.441192 
2   -0.445064 
3   -0.353676 
4   -0.153952 
5   -0.226596 
6   -0.213817 
7   0.043849 
8   -0.028462 
9   -0.060547 
10   0.056852 
11   0.115076 
12   0.197364 
13   -0.305529 
14   -0.251347 
15   -0.138513 
16   0.165111 
17   0.167986 
18   0.168486 
19   0.158596 
20   0.168929 
21   0.156369 
22   0.157655 
23   0.136787 
24   0.158888 
25   0.157645 
26   0.175086 
27   0.16651 
28   0.267506 
 
$$$$ 
 
