PCCDB-ID:  41701 
public computational chemistry database (PCCDB) project, http://pccdb.org 
 
 34 33  0  0  0  0  0  0  0  0999 V2000 
    0.8880   -0.9213   -2.2187 C   0  0  0  0  0  0  0  0  0  0  0  0 
    6.7306    2.9497    0.6258 C   0  0  0  0  0  0  0  0  0  0  0  0 
    5.6482   -2.9518    0.8762 C   0  0  0  0  0  0  0  0  0  0  0  0 
    2.4191   -0.9871   -2.1786 C   0  0  0  0  0  0  0  0  0  0  0  0 
    6.4617    1.6496   -0.1403 C   0  0  0  0  0  0  0  0  0  0  0  0 
    4.9217   -1.6397    0.5577 C   0  0  0  0  0  0  0  0  0  0  0  0 
    3.0325    0.1016   -1.2874 C   0  0  0  0  0  0  0  0  0  0  0  0 
    4.9632    1.3895   -0.3430 C   0  0  0  0  0  0  0  0  0  0  0  0 
    5.2573   -1.1164   -0.8453 C   0  0  0  0  0  0  0  0  0  0  0  0 
    4.5864    0.2104   -1.2779 C   0  0  0  0  0  0  0  0  0  0  0  0 
    5.1369    0.5299   -2.6145 N   0  0  0  0  0  0  0  0  0  0  0  0 
    0.4711   -1.7034   -2.8636 H   0  0  0  0  0  0  0  0  0  0  0  0 
    0.5419    0.0467   -2.6017 H   0  0  0  0  0  0  0  0  0  0  0  0 
    0.4590   -1.0516   -1.2176 H   0  0  0  0  0  0  0  0  0  0  0  0 
    7.8054    3.1164    0.7634 H   0  0  0  0  0  0  0  0  0  0  0  0 
    6.2677    2.9324    1.6207 H   0  0  0  0  0  0  0  0  0  0  0  0 
    6.3263    3.8178    0.0901 H   0  0  0  0  0  0  0  0  0  0  0  0 
    5.4009   -3.3122    1.8813 H   0  0  0  0  0  0  0  0  0  0  0  0 
    6.7364   -2.8241    0.8255 H   0  0  0  0  0  0  0  0  0  0  0  0 
    5.3753   -3.7398    0.1632 H   0  0  0  0  0  0  0  0  0  0  0  0 
    2.8085   -0.8923   -3.2018 H   0  0  0  0  0  0  0  0  0  0  0  0 
    2.7250   -1.9803   -1.8250 H   0  0  0  0  0  0  0  0  0  0  0  0 
    6.9159    0.8135    0.4079 H   0  0  0  0  0  0  0  0  0  0  0  0 
    6.9503    1.6797   -1.1204 H   0  0  0  0  0  0  0  0  0  0  0  0 
    5.1905   -0.8883    1.3118 H   0  0  0  0  0  0  0  0  0  0  0  0 
    3.8391   -1.7957    0.6558 H   0  0  0  0  0  0  0  0  0  0  0  0 
    2.6694   -0.0393   -0.2596 H   0  0  0  0  0  0  0  0  0  0  0  0 
    2.6368    1.0782   -1.6075 H   0  0  0  0  0  0  0  0  0  0  0  0 
    4.5054    2.2991   -0.7632 H   0  0  0  0  0  0  0  0  0  0  0  0 
    4.4798    1.2437    0.6326 H   0  0  0  0  0  0  0  0  0  0  0  0 
    4.9938   -1.8929   -1.5787 H   0  0  0  0  0  0  0  0  0  0  0  0 
    6.3425   -0.9865   -0.9352 H   0  0  0  0  0  0  0  0  0  0  0  0 
    4.6484    1.3405   -2.9975 H   0  0  0  0  0  0  0  0  0  0  0  0 
    4.9558   -0.2387   -3.2591 H   0  0  0  0  0  0  0  0  0  0  0  0 
  1  4  1  0  0  0  0 
  1 14  1  0  0  0  0 
  2 15  1  0  0  0  0 
  2 16  1  0  0  0  0 
  3 18  1  0  0  0  0 
  4 22  1  0  0  0  0 
  4  7  1  0  0  0  0 
  5 23  1  0  0  0  0 
  5  2  1  0  0  0  0 
  6 26  1  0  0  0  0 
  6  3  1  0  0  0  0 
  6 25  1  0  0  0  0 
  7 10  1  0  0  0  0 
  7 27  1  0  0  0  0 
  8  5  1  0  0  0  0 
  8 30  1  0  0  0  0 
  9  6  1  0  0  0  0 
 10  9  1  0  0  0  0 
 10  8  1  0  0  0  0 
 11 10  1  0  0  0  0 
 12  1  1  0  0  0  0 
 13  1  1  0  0  0  0 
 17  2  1  0  0  0  0 
 19  3  1  0  0  0  0 
 20  3  1  0  0  0  0 
 21  4  1  0  0  0  0 
 24  5  1  0  0  0  0 
 28  7  1  0  0  0  0 
 29  8  1  0  0  0  0 
 31  9  1  0  0  0  0 
 32  9  1  0  0  0  0 
 33 11  1  0  0  0  0 
 34 11  1  0  0  0  0 
M  END 
>  <HBA> 
1 
 
>  <HBD> 
1 
 
>  <TPSA> 
26.02 
 
>  <cid> 
41701 
 
>  <dipole> 
1.25 
 
>  <excitation_energy_1> 
5.621 
 
>  <excitation_energy_2> 
6.121 
 
>  <excitation_energy_3> 
6.193 
 
>  <excitation_energy_4> 
6.407 
 
>  <homo_energy> 
-6.185 
 
>  <homo_lumo_gap> 
8.074 
 
>  <logP> 
3.784 
 
>  <lumo_energy> 
1.888 
 
>  <melting_point> 
36.05 
 
>  <molecular_refractivity> 
52.93 
 
>  <oscillator_strength_1> 
0.0332 
 
>  <oscillator_strength_2> 
0.0039 
 
>  <oscillator_strength_3> 
0.0014 
 
>  <oscillator_strength_4> 
0.0004 
 
>  <open_babel_can_smiles> 
CCCC(CCC)(CCC)N 
 
>  <mulliken_charges> 
34 
1   -0.441183 
2   -0.443743 
3   -0.442329 
4   -0.258017 
5   -0.253341 
6   -0.261414 
7   -0.25719 
8   -0.251795 
9   -0.264364 
10   0.18283 
11   -0.723761 
12   0.14177 
13   0.141174 
14   0.142983 
15   0.139796 
16   0.136288 
17   0.138076 
18   0.140928 
19   0.143681 
20   0.140456 
21   0.116498 
22   0.138032 
23   0.128363 
24   0.160157 
25   0.13838 
26   0.133589 
27   0.127906 
28   0.115057 
29   0.114752 
30   0.126776 
31   0.11982 
32   0.149142 
33   0.286801 
34   0.293882 
 
>  <lowdin_charges> 
34 
1   -0.443263 
2   -0.442132 
3   -0.441088 
4   -0.277222 
5   -0.278399 
6   -0.27533 
7   -0.291328 
8   -0.278544 
9   -0.281336 
10   0.058946 
11   -0.549124 
12   0.15015 
13   0.145873 
14   0.146491 
15   0.146445 
16   0.142461 
17   0.144668 
18   0.148175 
19   0.145314 
20   0.146341 
21   0.131427 
22   0.140937 
23   0.138728 
24   0.153821 
25   0.143139 
26   0.137727 
27   0.139595 
28   0.134647 
29   0.135665 
30   0.139217 
31   0.137447 
32   0.149266 
33   0.249738 
34   0.251547 
 
$$$$ 
 
