PCCDB-ID:  7059 
public computational chemistry database (PCCDB) project, http://pccdb.org 
 
 20 21  0  0  0  0  0  0  0  0999 V2000 
    0.9803    0.0864   -0.0837 C   0  0  0  0  0  0  0  0  0  0  0  0 
    6.7231   -2.3111    0.2012 C   0  0  0  0  0  0  0  0  0  0  0  0 
    5.3513   -2.3770    0.1323 C   0  0  0  0  0  0  0  0  0  0  0  0 
    3.2251    1.2663    0.0320 C   0  0  0  0  0  0  0  0  0  0  0  0 
    4.5975    1.2748    0.1019 C   0  0  0  0  0  0  0  0  0  0  0  0 
    7.3429   -1.0366    0.2350 C   0  0  0  0  0  0  0  0  0  0  0  0 
    3.1812   -1.1441    0.0252 C   0  0  0  0  0  0  0  0  0  0  0  0 
    2.4874    0.0477   -0.0079 C   0  0  0  0  0  0  0  0  0  0  0  0 
    4.5991   -1.1755    0.0976 C   0  0  0  0  0  0  0  0  0  0  0  0 
    5.3263    0.0558    0.1364 C   0  0  0  0  0  0  0  0  0  0  0  0 
    6.6887    0.1077    0.2051 N   0  0  0  0  0  0  0  0  0  0  0  0 
    0.6405    0.6188   -0.9813 H   0  0  0  0  0  0  0  0  0  0  0  0 
    0.5515    0.6117    0.7791 H   0  0  0  0  0  0  0  0  0  0  0  0 
    0.5535   -0.9208   -0.1098 H   0  0  0  0  0  0  0  0  0  0  0  0 
    7.3325   -3.2096    0.2276 H   0  0  0  0  0  0  0  0  0  0  0  0 
    4.8341   -3.3336    0.1042 H   0  0  0  0  0  0  0  0  0  0  0  0 
    2.6812    2.2081    0.0054 H   0  0  0  0  0  0  0  0  0  0  0  0 
    5.1626    2.2013    0.1329 H   0  0  0  0  0  0  0  0  0  0  0  0 
    8.4294   -0.9695    0.2890 H   0  0  0  0  0  0  0  0  0  0  0  0 
    2.6404   -2.0884   -0.0043 H   0  0  0  0  0  0  0  0  0  0  0  0 
  1  8  1  0  0  0  0 
  1 13  1  0  0  0  0 
  2 15  1  0  0  0  0 
  2  6  2  0  0  0  0 
  3  2  1  0  0  0  0 
  4  5  2  0  0  0  0 
  5 18  1  0  0  0  0 
  5 10  1  0  0  0  0 
  6 19  1  0  0  0  0 
  7  9  1  0  0  0  0 
  8  7  2  0  0  0  0 
  8  4  1  0  0  0  0 
  9  3  2  0  0  0  0 
  9 10  1  0  0  0  0 
 10 11  2  0  0  0  0 
 11  6  1  0  0  0  0 
 12  1  1  0  0  0  0 
 14  1  1  0  0  0  0 
 16  3  1  0  0  0  0 
 17  4  1  0  0  0  0 
 20  7  1  0  0  0  0 
M  END 
>  <HBA> 
1 
 
>  <HBD> 
0 
 
>  <TPSA> 
12.89 
 
>  <cid> 
7059 
 
>  <dipole> 
2.21 
 
>  <excitation_energy_1> 
4.322 
 
>  <excitation_energy_2> 
4.327 
 
>  <excitation_energy_3> 
4.474 
 
>  <excitation_energy_4> 
5.223 
 
>  <homo_energy> 
-6.174 
 
>  <homo_lumo_gap> 
4.887 
 
>  <logP> 
2.543 
 
>  <lumo_energy> 
-1.287 
 
>  <melting_point> 
67.99 
 
>  <molecular_refractivity> 
46.71 
 
>  <oscillator_strength_1> 
0.0016 
 
>  <oscillator_strength_2> 
0.0391 
 
>  <oscillator_strength_3> 
0.0204 
 
>  <oscillator_strength_4> 
0.0 
 
>  <open_babel_can_smiles> 
Cc1ccc2c(c1)cccn2 
 
>  <mulliken_charges> 
20 
1   -0.532184 
2   -0.154647 
3   -0.149529 
4   -0.182046 
5   -0.137273 
6   0.041987 
7   -0.267736 
8   0.183111 
9   0.169463 
10   0.229467 
11   -0.496193 
12   0.16435 
13   0.16448 
14   0.157216 
15   0.136157 
16   0.139418 
17   0.127798 
18   0.143554 
19   0.138697 
20   0.123909 
 
>  <lowdin_charges> 
20 
1   -0.442059 
2   -0.182675 
3   -0.12957 
4   -0.15974 
5   -0.149091 
6   -0.085837 
7   -0.172992 
8   0.003775 
9   -0.013429 
10   0.037634 
11   -0.149746 
12   0.162268 
13   0.162626 
14   0.157276 
15   0.16439 
16   0.161515 
17   0.158261 
18   0.169781 
19   0.152799 
20   0.154814 
 
$$$$ 
 
