PCCDB-ID:  11747 
public computational chemistry database (PCCDB) project, http://pccdb.org 
 
 15 14  0  0  0  0  0  0  0  0999 V2000 
    2.8873   -0.8461    0.6389 C   0  0  0  0  0  0  0  0  0  0  0  0 
    2.3443    2.9110   -2.8230 C   0  0  0  0  0  0  0  0  0  0  0  0 
    1.9050   -0.0079   -0.1755 C   0  0  0  0  0  0  0  0  0  0  0  0 
    1.6601    1.8970   -1.9389 C   0  0  0  0  0  0  0  0  0  0  0  0 
    2.5845    1.0064   -1.0695 C   0  0  0  0  0  0  0  0  0  0  0  0 
    0.4545    1.7498   -1.8776 O   0  0  0  0  0  0  0  0  0  0  0  0 
    3.7902    1.1553   -1.1394 O   0  0  0  0  0  0  0  0  0  0  0  0 
    2.3494   -1.5570    1.2739 H   0  0  0  0  0  0  0  0  0  0  0  0 
    3.5089   -0.2128    1.2792 H   0  0  0  0  0  0  0  0  0  0  0  0 
    3.5612   -1.4087   -0.0146 H   0  0  0  0  0  0  0  0  0  0  0  0 
    3.0377    2.4097   -3.5076 H   0  0  0  0  0  0  0  0  0  0  0  0 
    2.9523    3.5921   -2.2169 H   0  0  0  0  0  0  0  0  0  0  0  0 
    1.5956    3.4715   -3.3854 H   0  0  0  0  0  0  0  0  0  0  0  0 
    1.2003    0.5361    0.4689 H   0  0  0  0  0  0  0  0  0  0  0  0 
    1.2612   -0.6332   -0.8094 H   0  0  0  0  0  0  0  0  0  0  0  0 
  1  8  1  0  0  0  0 
  1  9  1  0  0  0  0 
  2 12  1  0  0  0  0 
  2  4  1  0  0  0  0 
  3 14  1  0  0  0  0 
  3  1  1  0  0  0  0 
  4  6  2  0  0  0  0 
  4  5  1  0  0  0  0 
  5  3  1  0  0  0  0 
  7  5  2  0  0  0  0 
 10  1  1  0  0  0  0 
 11  2  1  0  0  0  0 
 13  2  1  0  0  0  0 
 15  3  1  0  0  0  0 
M  END 
>  <HBA> 
2 
 
>  <HBD> 
0 
 
>  <TPSA> 
34.14 
 
>  <cid> 
11747 
 
>  <dipole> 
0.14 
 
>  <excitation_energy_1> 
2.676 
 
>  <excitation_energy_2> 
4.47 
 
>  <excitation_energy_3> 
6.085 
 
>  <excitation_energy_4> 
6.095 
 
>  <homo_energy> 
-6.58 
 
>  <homo_lumo_gap> 
4.283 
 
>  <logP> 
0.554 
 
>  <lumo_energy> 
-2.297 
 
>  <melting_point> 
16.88 
 
>  <molecular_refractivity> 
26.55 
 
>  <oscillator_strength_1> 
0.0 
 
>  <oscillator_strength_2> 
0.0 
 
>  <oscillator_strength_3> 
0.0 
 
>  <oscillator_strength_4> 
0.0028 
 
>  <open_babel_can_smiles> 
CCC(=O)C(=O)C 
 
>  <mulliken_charges> 
15 
1   -0.438569 
2   -0.522952 
3   -0.347017 
4   0.391114 
5   0.384667 
6   -0.417418 
7   -0.428777 
8   0.147324 
9   0.160804 
10   0.160334 
11   0.187214 
12   0.186949 
13   0.177766 
14   0.179088 
15   0.179472 
 
>  <lowdin_charges> 
15 
1   -0.444485 
2   -0.472037 
3   -0.305965 
4   0.13463 
5   0.129644 
6   -0.205202 
7   -0.206945 
8   0.15554 
9   0.160139 
10   0.159878 
11   0.184034 
12   0.184019 
13   0.174413 
14   0.176063 
15   0.176274 
 
$$$$ 
 
