PCCDB-ID:  44161 
public computational chemistry database (PCCDB) project, http://pccdb.org 
 
 24 24  0  0  0  0  0  0  0  0999 V2000 
   -0.4086    0.2179    0.3704 C   0  0  0  0  0  0  0  0  0  0  0  0 
    6.2959   -0.0363    2.0161 C   0  0  0  0  0  0  0  0  0  0  0  0 
    1.7450   -1.0866    0.0697 C   0  0  0  0  0  0  0  0  0  0  0  0 
    1.8697    1.3096    0.1578 C   0  0  0  0  0  0  0  0  0  0  0  0 
    3.1232   -1.1586   -0.1131 C   0  0  0  0  0  0  0  0  0  0  0  0 
    3.2527    1.2427   -0.0219 C   0  0  0  0  0  0  0  0  0  0  0  0 
    5.3969   -0.0738   -0.3581 C   0  0  0  0  0  0  0  0  0  0  0  0 
    1.0917    0.1478    0.2051 C   0  0  0  0  0  0  0  0  0  0  0  0 
    3.8966    0.0103   -0.1625 C   0  0  0  0  0  0  0  0  0  0  0  0 
    6.5274   -1.9926    0.6990 N   0  0  0  0  0  0  0  0  0  0  0  0 
    6.0908   -0.7272    0.7579 N   0  0  0  0  0  0  0  0  0  0  0  0 
    6.2974   -2.5904   -0.3500 O   0  0  0  0  0  0  0  0  0  0  0  0 
   -0.7880   -0.6290    0.9525 H   0  0  0  0  0  0  0  0  0  0  0  0 
   -0.9174    0.1952   -0.6027 H   0  0  0  0  0  0  0  0  0  0  0  0 
   -0.7141    1.1401    0.8757 H   0  0  0  0  0  0  0  0  0  0  0  0 
    5.3364    0.2645    2.4518 H   0  0  0  0  0  0  0  0  0  0  0  0 
    6.9140    0.8585    1.8708 H   0  0  0  0  0  0  0  0  0  0  0  0 
    6.8060   -0.7252    2.6919 H   0  0  0  0  0  0  0  0  0  0  0  0 
    1.1634   -2.0052    0.1075 H   0  0  0  0  0  0  0  0  0  0  0  0 
    1.3906    2.2803    0.2656 H   0  0  0  0  0  0  0  0  0  0  0  0 
    3.6103   -2.1240   -0.2207 H   0  0  0  0  0  0  0  0  0  0  0  0 
    3.8345    2.1618   -0.0560 H   0  0  0  0  0  0  0  0  0  0  0  0 
    5.8263    0.9279   -0.4737 H   0  0  0  0  0  0  0  0  0  0  0  0 
    5.6457   -0.6690   -1.2408 H   0  0  0  0  0  0  0  0  0  0  0  0 
  1 15  1  0  0  0  0 
  1 13  1  0  0  0  0 
  2 16  1  0  0  0  0 
  2 18  1  0  0  0  0 
  3 19  1  0  0  0  0 
  3  8  2  0  0  0  0 
  4  8  1  0  0  0  0 
  4 20  1  0  0  0  0 
  5  3  1  0  0  0  0 
  6  4  2  0  0  0  0 
  7  9  1  0  0  0  0 
  7 11  1  0  0  0  0 
  8  1  1  0  0  0  0 
  9  5  2  0  0  0  0 
  9  6  1  0  0  0  0 
 10 11  1  0  0  0  0 
 11  2  1  0  0  0  0 
 12 10  2  0  0  0  0 
 14  1  1  0  0  0  0 
 17  2  1  0  0  0  0 
 21  5  1  0  0  0  0 
 22  6  1  0  0  0  0 
 23  7  1  0  0  0  0 
 24  7  1  0  0  0  0 
M  END 
>  <HBA> 
3 
 
>  <HBD> 
0 
 
>  <TPSA> 
32.67 
 
>  <cid> 
44161 
 
>  <dipole> 
3.98 
 
>  <excitation_energy_1> 
3.382 
 
>  <excitation_energy_2> 
4.868 
 
>  <excitation_energy_3> 
5.021 
 
>  <excitation_energy_4> 
5.192 
 
>  <homo_energy> 
-6.003 
 
>  <homo_lumo_gap> 
5.143 
 
>  <logP> 
2.108 
 
>  <lumo_energy> 
-0.86 
 
>  <melting_point> 
33.01 
 
>  <molecular_refractivity> 
48.81 
 
>  <oscillator_strength_1> 
0.0005 
 
>  <oscillator_strength_2> 
0.0169 
 
>  <oscillator_strength_3> 
0.0118 
 
>  <oscillator_strength_4> 
0.0524 
 
>  <open_babel_can_smiles> 
O=NN(Cc1ccc(cc1)C)C 
 
>  <mulliken_charges> 
24 
1   -0.529758 
2   -0.309492 
3   -0.179158 
4   -0.179332 
5   -0.17652 
6   -0.188046 
7   -0.255753 
8   0.177998 
9   0.163615 
10   0.15186 
11   -0.195685 
12   -0.382194 
13   0.159556 
14   0.168108 
15   0.156503 
16   0.176138 
17   0.161251 
18   0.190533 
19   0.127441 
20   0.123248 
21   0.156485 
22   0.122493 
23   0.15759 
24   0.203119 
 
>  <lowdin_charges> 
24 
1   -0.44333 
2   -0.357082 
3   -0.163102 
4   -0.167444 
5   -0.155738 
6   -0.168553 
7   -0.216747 
8   0.003966 
9   -0.022116 
10   0.055165 
11   -0.037833 
12   -0.27934 
13   0.160375 
14   0.163119 
15   0.158148 
16   0.162379 
17   0.154696 
18   0.178068 
19   0.157388 
20   0.155027 
21   0.169317 
22   0.15401 
23   0.156383 
24   0.183242 
 
$$$$ 
 
