PCCDB-ID:  27386 
public computational chemistry database (PCCDB) project, http://pccdb.org 
 
 34 35  0  0  1  0  0  0  0  0999 V2000 
    1.0434   -0.5740   -2.0020 C   0  0  0  0  0  0  0  0  0  0  0  0 
    0.4957    0.3089   -3.1330 C   0  0  0  0  0  0  0  0  0  0  0  0 
   -0.0683   -0.9047   -0.9939 C   0  0  0  0  0  0  0  0  0  0  0  0 
   -6.8090    2.2512   -0.9811 C   0  0  0  0  0  0  0  0  0  0  0  0 
   -5.5883    1.5646   -2.9250 C   0  0  0  0  0  0  0  0  0  0  0  0 
   -7.5298    3.1121   -1.8059 C   0  0  0  0  0  0  0  0  0  0  0  0 
   -6.3719    2.4556   -3.6596 C   0  0  0  0  0  0  0  0  0  0  0  0 
   -0.2261    1.5207   -2.5457 C   0  0  0  0  0  0  0  0  0  0  0  0 
   -1.9825    0.1012    0.3866 C   0  0  0  0  0  0  0  0  0  0  0  0 
   -5.8025    1.4620   -1.5458 C   0  0  0  0  0  0  0  0  0  0  0  0 
   -0.7833    0.3685   -0.5254 C   0  0  2  0  0  0  0  0  0  0  0  0 
   -5.0265    0.5553   -0.6337 C   0  0  0  0  0  0  0  0  0  0  0  0 
   -7.3256    3.2274   -3.1256 N   0  0  0  0  0  0  0  0  0  0  0  0 
   -3.0130   -0.7097   -0.2885 N   0  0  0  0  0  0  0  0  0  0  0  0 
   -3.8382    0.0909   -1.1141 N   0  0  0  0  0  0  0  0  0  0  0  0 
   -5.4580    0.2096    0.4680 O   0  0  0  0  0  0  0  0  0  0  0  0 
   -1.2642    1.1295   -1.6469 O   0  0  0  0  0  0  0  0  0  0  0  0 
    1.8570   -0.0398   -1.4893 H   0  0  0  0  0  0  0  0  0  0  0  0 
    1.4796   -1.4950   -2.4063 H   0  0  0  0  0  0  0  0  0  0  0  0 
   -0.2148   -0.2645   -3.7428 H   0  0  0  0  0  0  0  0  0  0  0  0 
    1.3014    0.6444   -3.7984 H   0  0  0  0  0  0  0  0  0  0  0  0 
    0.3467   -1.4256   -0.1213 H   0  0  0  0  0  0  0  0  0  0  0  0 
   -0.8129   -1.5699   -1.4454 H   0  0  0  0  0  0  0  0  0  0  0  0 
   -7.0121    2.1775    0.0816 H   0  0  0  0  0  0  0  0  0  0  0  0 
   -4.8549    0.9474   -3.4348 H   0  0  0  0  0  0  0  0  0  0  0  0 
   -8.3138    3.7418   -1.3886 H   0  0  0  0  0  0  0  0  0  0  0  0 
   -6.2276    2.5489   -4.7349 H   0  0  0  0  0  0  0  0  0  0  0  0 
   -0.7128    2.1204   -3.3210 H   0  0  0  0  0  0  0  0  0  0  0  0 
    0.4895    2.1702   -2.0136 H   0  0  0  0  0  0  0  0  0  0  0  0 
   -2.3882    1.0560    0.7529 H   0  0  0  0  0  0  0  0  0  0  0  0 
   -1.6334   -0.4768    1.2502 H   0  0  0  0  0  0  0  0  0  0  0  0 
   -0.0687    0.9978    0.0355 H   0  0  0  0  0  0  0  0  0  0  0  0 
   -3.6579   -1.0786    0.4111 H   0  0  0  0  0  0  0  0  0  0  0  0 
   -3.3250    0.5432   -1.8593 H   0  0  0  0  0  0  0  0  0  0  0  0 
  1 18  1  0  0  0  0 
  1  3  1  0  0  0  0 
  2  8  1  0  0  0  0 
  2  1  1  0  0  0  0 
  3 11  1  0  0  0  0 
  3 22  1  0  0  0  0 
  4 24  1  0  0  0  0 
  5 10  2  0  0  0  0 
  6 26  1  0  0  0  0 
  6  4  2  0  0  0  0 
  7 13  2  0  0  0  0 
  7  5  1  0  0  0  0 
  8 29  1  0  0  0  0 
  8 17  1  0  0  0  0 
  9 30  1  0  0  0  0 
  9 31  1  0  0  0  0 
 10  4  1  0  0  0  0 
 10 12  1  0  0  0  0 
 11 32  1  1  0  0  0 
 11  9  1  0  0  0  0 
 12 16  2  0  0  0  0 
 13  6  1  0  0  0  0 
 14  9  1  0  0  0  0 
 14 33  1  0  0  0  0 
 15 12  1  0  0  0  0 
 15 14  1  0  0  0  0 
 17 11  1  0  0  0  0 
 19  1  1  0  0  0  0 
 20  2  1  0  0  0  0 
 21  2  1  0  0  0  0 
 23  3  1  0  0  0  0 
 25  5  1  0  0  0  0 
 27  7  1  0  0  0  0 
 28  8  1  0  0  0  0 
 34 15  1  0  0  0  0 
M  END 
>  <HBA> 
5 
 
>  <HBD> 
2 
 
>  <TPSA> 
63.25 
 
>  <cid> 
27386 
 
>  <dipole> 
4.85 
 
>  <excitation_energy_1> 
4.057 
 
>  <excitation_energy_2> 
4.421 
 
>  <excitation_energy_3> 
4.615 
 
>  <excitation_energy_4> 
4.893 
 
>  <homo_energy> 
-6.036 
 
>  <homo_lumo_gap> 
4.689 
 
>  <logP> 
1.667 
 
>  <lumo_energy> 
-1.347 
 
>  <melting_point> 
118.38 
 
>  <molecular_refractivity> 
63.04 
 
>  <oscillator_strength_1> 
0.0922 
 
>  <oscillator_strength_2> 
0.0225 
 
>  <oscillator_strength_3> 
0.0071 
 
>  <oscillator_strength_4> 
0.004 
 
>  <open_babel_can_smiles> 
O=C(c1ccncc1)NNC[C@H]1CCCCO1 
 
>  <mulliken_charges> 
34 
1   -0.275375 
2   -0.27093 
3   -0.272225 
4   -0.166637 
5   -0.189057 
6   0.034401 
7   0.036363 
8   -0.029539 
9   -0.159425 
10   0.102356 
11   0.158487 
12   0.561167 
13   -0.402395 
14   -0.418433 
15   -0.500246 
16   -0.537665 
17   -0.503605 
18   0.131143 
19   0.143114 
20   0.143112 
21   0.137726 
22   0.131562 
23   0.16599 
24   0.168308 
25   0.140609 
26   0.146338 
27   0.14354 
28   0.146511 
29   0.125197 
30   0.152327 
31   0.149143 
32   0.113953 
33   0.338004 
34   0.356182 
 
>  <lowdin_charges> 
34 
1   -0.280448 
2   -0.294786 
3   -0.29713 
4   -0.152491 
5   -0.18026 
6   -0.088159 
7   -0.087354 
8   -0.136125 
9   -0.21636 
10   -0.010771 
11   -0.005905 
12   0.142805 
13   -0.142269 
14   -0.274982 
15   -0.212234 
16   -0.32423 
17   -0.286226 
18   0.139721 
19   0.150063 
20   0.148053 
21   0.151566 
22   0.148911 
23   0.159632 
24   0.180323 
25   0.165902 
26   0.160505 
27   0.155915 
28   0.151331 
29   0.130769 
30   0.144912 
31   0.158099 
32   0.129929 
33   0.278255 
34   0.29304 
 
$$$$ 
 
