PCCDB-ID:  51330 
public computational chemistry database (PCCDB) project, http://pccdb.org 
 
 36 35  0  0  1  0  0  0  0  0999 V2000 
    8.7142    4.4698    0.9267 C   0  0  0  0  0  0  0  0  0  0  0  0 
    2.8453    1.0286    1.1996 C   0  0  0  0  0  0  0  0  0  0  0  0 
    0.9834    4.7217    2.7642 C   0  0  0  0  0  0  0  0  0  0  0  0 
   -0.0909    2.4997    2.2821 C   0  0  0  0  0  0  0  0  0  0  0  0 
    0.3913    3.1783    4.6464 C   0  0  0  0  0  0  0  0  0  0  0  0 
    8.5184    3.7680   -0.1878 C   0  0  0  0  0  0  0  0  0  0  0  0 
    7.3923    2.8084   -0.4408 C   0  0  0  0  0  0  0  0  0  0  0  0 
    4.5008    2.8123    1.8920 C   0  0  0  0  0  0  0  0  0  0  0  0 
    2.3146    2.5898    3.1615 C   0  0  0  0  0  0  0  0  0  0  0  0 
    3.0092    2.4434    1.7802 C   0  0  2  0  0  0  0  0  0  0  0  0 
    5.2170    2.8999    0.5576 C   0  0  0  0  0  0  0  0  0  0  0  0 
    0.9042    3.2429    3.1936 C   0  0  0  0  0  0  0  0  0  0  0  0 
    4.6928    3.1596   -0.5039 O   0  0  0  0  0  0  0  0  0  0  0  0 
    6.5476    2.6781    0.7168 O   0  0  0  0  0  0  0  0  0  0  0  0 
    9.5558    5.1492    1.0238 H   0  0  0  0  0  0  0  0  0  0  0  0 
    8.0432    4.3862    1.7757 H   0  0  0  0  0  0  0  0  0  0  0  0 
    3.2843    0.9574    0.1993 H   0  0  0  0  0  0  0  0  0  0  0  0 
    1.7900    0.7502    1.1199 H   0  0  0  0  0  0  0  0  0  0  0  0 
    3.3350    0.2861    1.8438 H   0  0  0  0  0  0  0  0  0  0  0  0 
   -0.0047    5.1939    2.8235 H   0  0  0  0  0  0  0  0  0  0  0  0 
    1.3377    4.8326    1.7332 H   0  0  0  0  0  0  0  0  0  0  0  0 
    1.6619    5.2871    3.4155 H   0  0  0  0  0  0  0  0  0  0  0  0 
   -1.0915    2.9414    2.3656 H   0  0  0  0  0  0  0  0  0  0  0  0 
   -0.1715    1.4412    2.5591 H   0  0  0  0  0  0  0  0  0  0  0  0 
    0.2030    2.5522    1.2279 H   0  0  0  0  0  0  0  0  0  0  0  0 
   -0.5964    3.6468    4.7377 H   0  0  0  0  0  0  0  0  0  0  0  0 
    1.0719    3.6993    5.3315 H   0  0  0  0  0  0  0  0  0  0  0  0 
    0.3015    2.1400    4.9891 H   0  0  0  0  0  0  0  0  0  0  0  0 
    9.2114    3.8649   -1.0241 H   0  0  0  0  0  0  0  0  0  0  0  0 
    7.7846    1.8074   -0.6643 H   0  0  0  0  0  0  0  0  0  0  0  0 
    6.7831    3.1259   -1.2931 H   0  0  0  0  0  0  0  0  0  0  0  0 
    5.0388    2.1096    2.5392 H   0  0  0  0  0  0  0  0  0  0  0  0 
    4.6075    3.8013    2.3605 H   0  0  0  0  0  0  0  0  0  0  0  0 
    2.9544    3.1832    3.8304 H   0  0  0  0  0  0  0  0  0  0  0  0 
    2.2460    1.5964    3.6279 H   0  0  0  0  0  0  0  0  0  0  0  0 
    2.5662    3.1513    1.0700 H   0  0  0  0  0  0  0  0  0  0  0  0 
  1 15  1  0  0  0  0 
  1 16  1  0  0  0  0 
  2 10  1  0  0  0  0 
  2 19  1  0  0  0  0 
  3 20  1  0  0  0  0 
  3 12  1  0  0  0  0 
  3 22  1  0  0  0  0 
  4 23  1  0  0  0  0 
  4 24  1  0  0  0  0 
  4 12  1  0  0  0  0 
  5 26  1  0  0  0  0 
  5 28  1  0  0  0  0 
  5 27  1  0  0  0  0 
  6  1  2  0  0  0  0 
  7  6  1  0  0  0  0 
  7 14  1  0  0  0  0 
  8 33  1  0  0  0  0 
  8 32  1  0  0  0  0 
  9 12  1  0  0  0  0 
  9 35  1  0  0  0  0 
  9 34  1  0  0  0  0 
 10 36  1  6  0  0  0 
 10  8  1  0  0  0  0 
 10  9  1  0  0  0  0 
 11 14  1  0  0  0  0 
 11  8  1  0  0  0  0 
 12  5  1  0  0  0  0 
 13 11  2  0  0  0  0 
 17  2  1  0  0  0  0 
 18  2  1  0  0  0  0 
 21  3  1  0  0  0  0 
 25  4  1  0  0  0  0 
 29  6  1  0  0  0  0 
 30  7  1  0  0  0  0 
 31  7  1  0  0  0  0 
M  END 
>  <HBA> 
2 
 
>  <HBD> 
0 
 
>  <TPSA> 
26.3 
 
>  <cid> 
51330 
 
>  <dipole> 
1.31 
 
>  <excitation_energy_1> 
5.811 
 
>  <excitation_energy_2> 
6.4 
 
>  <excitation_energy_3> 
6.665 
 
>  <excitation_energy_4> 
6.848 
 
>  <homo_energy> 
-7.029 
 
>  <homo_lumo_gap> 
7.339 
 
>  <logP> 
3.178 
 
>  <lumo_energy> 
0.31 
 
>  <melting_point> 
-20.02 
 
>  <molecular_refractivity> 
60.35 
 
>  <oscillator_strength_1> 
0.0004 
 
>  <oscillator_strength_2> 
0.004 
 
>  <oscillator_strength_3> 
0.0273 
 
>  <oscillator_strength_4> 
0.0143 
 
>  <open_babel_can_smiles> 
C=CCOC(=O)C[C@H](CC(C)(C)C)C 
 
>  <mulliken_charges> 
36 
1   -0.323544 
2   -0.46903 
3   -0.447013 
4   -0.446711 
5   -0.441334 
6   -0.084719 
7   -0.08741 
8   -0.373096 
9   -0.268569 
10   -0.064266 
11   0.625149 
12   0.09648 
13   -0.475533 
14   -0.463563 
15   0.142228 
16   0.14967 
17   0.159881 
18   0.150948 
19   0.135148 
20   0.139296 
21   0.147651 
22   0.134521 
23   0.137504 
24   0.137837 
25   0.14825 
26   0.137826 
27   0.13663 
28   0.137552 
29   0.134495 
30   0.160678 
31   0.191952 
32   0.165016 
33   0.172613 
34   0.122787 
35   0.1276 
36   0.153073 
 
>  <lowdin_charges> 
36 
1   -0.335456 
2   -0.450931 
3   -0.445867 
4   -0.441439 
5   -0.441854 
6   -0.163061 
7   -0.133093 
8   -0.302867 
9   -0.277886 
10   -0.124302 
11   0.204687 
12   0.016478 
13   -0.266823 
14   -0.192773 
15   0.16202 
16   0.163178 
17   0.155937 
18   0.152226 
19   0.14381 
20   0.147705 
21   0.148385 
22   0.146195 
23   0.146778 
24   0.144548 
25   0.148838 
26   0.146278 
27   0.146948 
28   0.144924 
29   0.158659 
30   0.156632 
31   0.173905 
32   0.164607 
33   0.170053 
34   0.140476 
35   0.140922 
36   0.152161 
 
$$$$ 
 
