PCCDB-ID:  69818 
public computational chemistry database (PCCDB) project, http://pccdb.org 
 
 17 16  0  0  0  0  0  0  0  0999 V2000 
    1.0004   -0.0118    0.0395 C   0  0  0  0  0  0  0  0  0  0  0  0 
    2.5303   -0.0533    0.0495 C   0  0  0  0  0  0  0  0  0  0  0  0 
    3.0875   -1.2643   -0.7284 C   0  0  0  0  0  0  0  0  0  0  0  0 
    4.5492   -1.3405   -0.7259 C   0  0  0  0  0  0  0  0  0  0  0  0 
    5.7588   -1.3959   -0.7184 C   0  0  0  0  0  0  0  0  0  0  0  0 
    7.2232   -1.4609   -0.6512 C   0  0  0  0  0  0  0  0  0  0  0  0 
    7.7098   -2.2270    0.4494 O   0  0  0  0  0  0  0  0  0  0  0  0 
    0.6246    0.8661    0.5761 H   0  0  0  0  0  0  0  0  0  0  0  0 
    0.5757   -0.9029    0.5181 H   0  0  0  0  0  0  0  0  0  0  0  0 
    0.6098    0.0298   -0.9848 H   0  0  0  0  0  0  0  0  0  0  0  0 
    2.8994   -0.0941    1.0820 H   0  0  0  0  0  0  0  0  0  0  0  0 
    2.9367    0.8671   -0.3876 H   0  0  0  0  0  0  0  0  0  0  0  0 
    2.7268   -1.2246   -1.7667 H   0  0  0  0  0  0  0  0  0  0  0  0 
    2.6738   -2.1908   -0.3044 H   0  0  0  0  0  0  0  0  0  0  0  0 
    7.6363   -0.4387   -0.6358 H   0  0  0  0  0  0  0  0  0  0  0  0 
    7.6242   -1.9503   -1.5460 H   0  0  0  0  0  0  0  0  0  0  0  0 
    7.2745   -1.8856    1.2463 H   0  0  0  0  0  0  0  0  0  0  0  0 
  1  2  1  0  0  0  0 
  1  9  1  0  0  0  0 
  1  8  1  0  0  0  0 
  2 11  1  0  0  0  0 
  3  4  1  0  0  0  0 
  3 14  1  0  0  0  0 
  3  2  1  0  0  0  0 
  4  5  3  0  0  0  0 
  5  6  1  0  0  0  0 
  6 15  1  0  0  0  0 
  6  7  1  0  0  0  0 
  7 17  1  0  0  0  0 
 10  1  1  0  0  0  0 
 12  2  1  0  0  0  0 
 13  3  1  0  0  0  0 
 16  6  1  0  0  0  0 
M  END 
>  <HBA> 
1 
 
>  <HBD> 
1 
 
>  <TPSA> 
20.23 
 
>  <cid> 
69818 
 
>  <dipole> 
2.22 
 
>  <excitation_energy_1> 
5.878 
 
>  <excitation_energy_2> 
6.286 
 
>  <excitation_energy_3> 
6.46 
 
>  <excitation_energy_4> 
6.594 
 
>  <homo_energy> 
-6.754 
 
>  <homo_lumo_gap> 
7.731 
 
>  <logP> 
0.782 
 
>  <lumo_energy> 
0.977 
 
>  <melting_point> 
9.4 
 
>  <molecular_refractivity> 
30.28 
 
>  <oscillator_strength_1> 
0.0027 
 
>  <oscillator_strength_2> 
0.0416 
 
>  <oscillator_strength_3> 
0.0418 
 
>  <oscillator_strength_4> 
0.0059 
 
>  <open_babel_can_smiles> 
CCCC#CCO 
 
>  <mulliken_charges> 
17 
1   -0.441918 
2   -0.24913 
3   -0.396476 
4   0.093755 
5   -0.033177 
6   -0.153093 
7   -0.601894 
8   0.149418 
9   0.144995 
10   0.144717 
11   0.144463 
12   0.146927 
13   0.166922 
14   0.167154 
15   0.150912 
16   0.175872 
17   0.390553 
 
>  <lowdin_charges> 
17 
1   -0.446254 
2   -0.265429 
3   -0.25888 
4   -0.068725 
5   -0.116775 
6   -0.115281 
7   -0.460336 
8   0.154741 
9   0.148977 
10   0.147467 
11   0.145864 
12   0.148351 
13   0.163615 
14   0.164785 
15   0.145348 
16   0.167555 
17   0.344978 
 
$$$$ 
 
