PCCDB-ID:  70823 
public computational chemistry database (PCCDB) project, http://pccdb.org 
 
 25 26  0  0  0  0  0  0  0  0999 V2000 
   -1.5651   -1.0522    0.7696 C   0  0  0  0  0  0  0  0  0  0  0  0 
   -0.5186   -1.6825    1.4519 C   0  0  0  0  0  0  0  0  0  0  0  0 
   -1.2802   -0.1534   -0.2591 C   0  0  0  0  0  0  0  0  0  0  0  0 
    0.8021   -1.4164    1.1094 C   0  0  0  0  0  0  0  0  0  0  0  0 
    0.0433    0.1131   -0.6023 C   0  0  0  0  0  0  0  0  0  0  0  0 
    2.4728   -0.1880   -0.3336 C   0  0  0  0  0  0  0  0  0  0  0  0 
    3.6270   -0.6570    0.1841 C   0  0  0  0  0  0  0  0  0  0  0  0 
    7.6206   -1.6753    1.4689 C   0  0  0  0  0  0  0  0  0  0  0  0 
    6.2714   -1.5385    1.3290 C   0  0  0  0  0  0  0  0  0  0  0  0 
    7.3662   -0.3804   -0.2164 C   0  0  0  0  0  0  0  0  0  0  0  0 
    1.1083   -0.5106    0.0742 C   0  0  0  0  0  0  0  0  0  0  0  0 
    4.9075   -0.1961   -0.3809 C   0  0  0  0  0  0  0  0  0  0  0  0 
    8.2981   -0.9504    0.4987 N   0  0  0  0  0  0  0  0  0  0  0  0 
    6.0921   -0.6938    0.2302 N   0  0  0  0  0  0  0  0  0  0  0  0 
    5.0041    0.5710   -1.3246 O   0  0  0  0  0  0  0  0  0  0  0  0 
   -2.5959   -1.2629    1.0405 H   0  0  0  0  0  0  0  0  0  0  0  0 
   -0.7366   -2.3836    2.2527 H   0  0  0  0  0  0  0  0  0  0  0  0 
   -2.0874    0.3403   -0.7928 H   0  0  0  0  0  0  0  0  0  0  0  0 
    1.6022   -1.9149    1.6486 H   0  0  0  0  0  0  0  0  0  0  0  0 
    0.2649    0.8138   -1.4034 H   0  0  0  0  0  0  0  0  0  0  0  0 
    2.5700    0.5200   -1.1552 H   0  0  0  0  0  0  0  0  0  0  0  0 
    3.6359   -1.3650    1.0041 H   0  0  0  0  0  0  0  0  0  0  0  0 
    8.1556   -2.2533    2.2103 H   0  0  0  0  0  0  0  0  0  0  0  0 
    5.4503   -1.9430    1.8969 H   0  0  0  0  0  0  0  0  0  0  0  0 
    7.5074    0.2677   -1.0681 H   0  0  0  0  0  0  0  0  0  0  0  0 
  1 16  1  0  0  0  0 
  1  2  2  0  0  0  0 
  2 17  1  0  0  0  0 
  3  1  1  0  0  0  0 
  4  2  1  0  0  0  0 
  4 19  1  0  0  0  0 
  5  3  2  0  0  0  0 
  5 11  1  0  0  0  0 
  6 11  1  0  0  0  0 
  6  7  2  0  0  0  0 
  7 22  1  0  0  0  0 
  8 23  1  0  0  0  0 
  9  8  2  0  0  0  0 
  9 24  1  0  0  0  0 
 10 14  1  0  0  0  0 
 10 13  2  0  0  0  0 
 11  4  2  0  0  0  0 
 12  7  1  0  0  0  0 
 12 14  1  0  0  0  0 
 13  8  1  0  0  0  0 
 14  9  1  0  0  0  0 
 15 12  2  0  0  0  0 
 18  3  1  0  0  0  0 
 20  5  1  0  0  0  0 
 21  6  1  0  0  0  0 
 25 10  1  0  0  0  0 
M  END 
>  <HBA> 
3 
 
>  <HBD> 
0 
 
>  <TPSA> 
34.89 
 
>  <cid> 
70823 
 
>  <dipole> 
6.09 
 
>  <excitation_energy_1> 
3.433 
 
>  <excitation_energy_2> 
3.96 
 
>  <excitation_energy_3> 
4.078 
 
>  <excitation_energy_4> 
4.294 
 
>  <homo_energy> 
-6.449 
 
>  <homo_lumo_gap> 
4.106 
 
>  <logP> 
2.237 
 
>  <lumo_energy> 
-2.343 
 
>  <melting_point> 
91.79 
 
>  <molecular_refractivity> 
58.33 
 
>  <oscillator_strength_1> 
0.0033 
 
>  <oscillator_strength_2> 
0.0028 
 
>  <oscillator_strength_3> 
0.768 
 
>  <oscillator_strength_4> 
0.0303 
 
>  <open_babel_can_smiles> 
O=C(n1cncc1)/C=C/c1ccccc1 
 
>  <mulliken_charges> 
25 
1   -0.120948 
2   -0.13119 
3   -0.131691 
4   -0.16768 
5   -0.183366 
6   -0.148105 
7   -0.211505 
8   -0.039632 
9   0.022984 
10   0.229003 
11   0.164705 
12   0.609757 
13   -0.433936 
14   -0.498876 
15   -0.48447 
16   0.142198 
17   0.1412 
18   0.142777 
19   0.134543 
20   0.145892 
21   0.176735 
22   0.143613 
23   0.145274 
24   0.162961 
25   0.189756 
 
>  <lowdin_charges> 
25 
1   -0.13965 
2   -0.150162 
3   -0.153456 
4   -0.145627 
5   -0.143473 
6   -0.084458 
7   -0.218404 
8   -0.140551 
9   -0.171505 
10   -0.066951 
11   -0.010892 
12   0.184902 
13   -0.169137 
14   -0.017553 
15   -0.260245 
16   0.162974 
17   0.163697 
18   0.16553 
19   0.160997 
20   0.1651 
21   0.180283 
22   0.162044 
23   0.167153 
24   0.173637 
25   0.185746 
 
$$$$ 
 
