PCCDB-ID:  33528 
public computational chemistry database (PCCDB) project, http://pccdb.org 
 
 33 33  0  0  0  0  0  0  0  0999 V2000 
    3.0293   -3.8203   -3.4412 C   0  0  0  0  0  0  0  0  0  0  0  0 
    2.3634   -4.0099   -2.0717 C   0  0  0  0  0  0  0  0  0  0  0  0 
    3.3498   -4.0352   -0.8909 C   0  0  0  0  0  0  0  0  0  0  0  0 
    3.9833   -2.6706   -0.5817 C   0  0  0  0  0  0  0  0  0  0  0  0 
    4.9907   -2.6807    0.5823 C   0  0  0  0  0  0  0  0  0  0  0  0 
    6.2510   -3.5476    0.3721 C   0  0  0  0  0  0  0  0  0  0  0  0 
    7.0002   -3.3156   -0.9510 C   0  0  0  0  0  0  0  0  0  0  0  0 
    8.0691   -1.2749   -4.7689 C   0  0  0  0  0  0  0  0  0  0  0  0 
    7.4905   -1.8743   -1.1428 C   0  0  0  0  0  0  0  0  0  0  0  0 
    9.3632   -1.5717   -4.5359 C   0  0  0  0  0  0  0  0  0  0  0  0 
    7.2242   -1.3317   -3.5700 C   0  0  0  0  0  0  0  0  0  0  0  0 
    8.0396   -1.6332   -2.4760 N   0  0  0  0  0  0  0  0  0  0  0  0 
    6.0119   -1.1541   -3.4699 O   0  0  0  0  0  0  0  0  0  0  0  0 
    9.6903   -1.9266   -2.8613 S   0  0  0  0  0  0  0  0  0  0  0  0 
    2.2810   -3.8061   -4.2423 H   0  0  0  0  0  0  0  0  0  0  0  0 
    3.7227   -4.6447   -3.6530 H   0  0  0  0  0  0  0  0  0  0  0  0 
    3.5998   -2.8873   -3.5031 H   0  0  0  0  0  0  0  0  0  0  0  0 
    1.7958   -4.9506   -2.0801 H   0  0  0  0  0  0  0  0  0  0  0  0 
    1.6249   -3.2118   -1.9072 H   0  0  0  0  0  0  0  0  0  0  0  0 
    4.1328   -4.7776   -1.1042 H   0  0  0  0  0  0  0  0  0  0  0  0 
    2.8290   -4.3948    0.0088 H   0  0  0  0  0  0  0  0  0  0  0  0 
    3.1794   -1.9633   -0.3321 H   0  0  0  0  0  0  0  0  0  0  0  0 
    4.4658   -2.2653   -1.4793 H   0  0  0  0  0  0  0  0  0  0  0  0 
    4.4887   -3.0284    1.4965 H   0  0  0  0  0  0  0  0  0  0  0  0 
    5.2922   -1.6445    0.7888 H   0  0  0  0  0  0  0  0  0  0  0  0 
    5.9769   -4.6092    0.4192 H   0  0  0  0  0  0  0  0  0  0  0  0 
    6.9359   -3.3802    1.2159 H   0  0  0  0  0  0  0  0  0  0  0  0 
    6.3492   -3.5635   -1.7966 H   0  0  0  0  0  0  0  0  0  0  0  0 
    7.8599   -3.9967   -1.0070 H   0  0  0  0  0  0  0  0  0  0  0  0 
    7.6492   -1.0267   -5.7350 H   0  0  0  0  0  0  0  0  0  0  0  0 
    8.2489   -1.6066   -0.3982 H   0  0  0  0  0  0  0  0  0  0  0  0 
    6.6621   -1.1687   -1.0432 H   0  0  0  0  0  0  0  0  0  0  0  0 
   10.1825   -1.6019   -5.2433 H   0  0  0  0  0  0  0  0  0  0  0  0 
  1  2  1  0  0  0  0 
  2 19  1  0  0  0  0 
  2  3  1  0  0  0  0 
  3  4  1  0  0  0  0 
  3 21  1  0  0  0  0 
  4 22  1  0  0  0  0 
  4  5  1  0  0  0  0 
  5 25  1  0  0  0  0 
  5 24  1  0  0  0  0 
  6 26  1  0  0  0  0 
  6  5  1  0  0  0  0 
  6 27  1  0  0  0  0 
  7  6  1  0  0  0  0 
  8 10  2  0  0  0  0 
  8 11  1  0  0  0  0 
  9 32  1  0  0  0  0 
  9  7  1  0  0  0  0 
  9 31  1  0  0  0  0 
 10 14  1  0  0  0  0 
 11 13  2  0  0  0  0 
 11 12  1  0  0  0  0 
 12  9  1  0  0  0  0 
 14 12  1  0  0  0  0 
 15  1  1  0  0  0  0 
 16  1  1  0  0  0  0 
 17  1  1  0  0  0  0 
 18  2  1  0  0  0  0 
 20  3  1  0  0  0  0 
 23  4  1  0  0  0  0 
 28  7  1  0  0  0  0 
 29  7  1  0  0  0  0 
 30  8  1  0  0  0  0 
 33 10  1  0  0  0  0 
M  END 
>  <HBA> 
3 
 
>  <HBD> 
0 
 
>  <TPSA> 
50.24 
 
>  <cid> 
33528 
 
>  <dipole> 
3.35 
 
>  <excitation_energy_1> 
3.914 
 
>  <excitation_energy_2> 
4.542 
 
>  <excitation_energy_3> 
4.755 
 
>  <excitation_energy_4> 
5.323 
 
>  <homo_energy> 
-5.968 
 
>  <homo_lumo_gap> 
5.05 
 
>  <logP> 
3.27 
 
>  <lumo_energy> 
-0.917 
 
>  <melting_point> 
35.5 
 
>  <molecular_refractivity> 
63.49 
 
>  <oscillator_strength_1> 
0.0008 
 
>  <oscillator_strength_2> 
0.0795 
 
>  <oscillator_strength_3> 
0.014 
 
>  <oscillator_strength_4> 
0.0346 
 
>  <open_babel_can_smiles> 
CCCCCCCCn1sccc1=O 
 
>  <mulliken_charges> 
33 
1   -0.456634 
2   -0.247201 
3   -0.249639 
4   -0.28035 
5   -0.265552 
6   -0.264551 
7   -0.267164 
8   -0.140894 
9   -0.143414 
10   -0.327277 
11   0.587318 
12   -0.562723 
13   -0.539521 
14   0.373946 
15   0.135932 
16   0.13254 
17   0.178631 
18   0.124484 
19   0.128103 
20   0.125283 
21   0.121315 
22   0.125655 
23   0.175652 
24   0.127947 
25   0.128387 
26   0.140343 
27   0.126363 
28   0.1687 
29   0.135888 
30   0.166415 
31   0.151894 
32   0.194991 
33   0.195132 
 
>  <lowdin_charges> 
33 
1   -0.453237 
2   -0.272527 
3   -0.279316 
4   -0.290086 
5   -0.279425 
6   -0.279372 
7   -0.288784 
8   -0.205698 
9   -0.198991 
10   -0.276512 
11   0.138182 
12   -0.239493 
13   -0.321283 
14   0.370583 
15   0.147504 
16   0.142435 
17   0.16161 
18   0.138239 
19   0.138447 
20   0.13585 
21   0.136958 
22   0.142006 
23   0.156642 
24   0.141362 
25   0.137577 
26   0.145069 
27   0.140405 
28   0.158764 
29   0.146159 
30   0.18409 
31   0.154255 
32   0.176404 
33   0.192183 
 
$$$$ 
 
