PCCDB-ID:  29587 
public computational chemistry database (PCCDB) project, http://pccdb.org 
 
 26 26  0  0  0  0  0  0  0  0999 V2000 
    3.0470   -0.8496    1.5691 C   0  0  0  0  0  0  0  0  0  0  0  0 
    2.3653    0.9945   -0.0304 C   0  0  0  0  0  0  0  0  0  0  0  0 
    3.7476   -0.8977   -1.8569 C   0  0  0  0  0  0  0  0  0  0  0  0 
    4.2407   -1.7235   -2.8576 C   0  0  0  0  0  0  0  0  0  0  0  0 
    2.3142   -0.5142    0.2512 C   0  0  0  0  0  0  0  0  0  0  0  0 
    2.8418   -1.3733   -0.8930 C   0  0  0  0  0  0  0  0  0  0  0  0 
    3.8514   -3.0679   -2.9565 C   0  0  0  0  0  0  0  0  0  0  0  0 
    2.4547   -2.7134   -0.9927 C   0  0  0  0  0  0  0  0  0  0  0  0 
    2.9436   -3.5499   -2.0059 C   0  0  0  0  0  0  0  0  0  0  0  0 
    4.4365   -3.8792   -4.0809 C   0  0  0  0  0  0  0  0  0  0  0  0 
    1.5892   -3.3500   -0.1210 O   0  0  0  0  0  0  0  0  0  0  0  0 
    2.5099   -4.8513   -2.0441 O   0  0  0  0  0  0  0  0  0  0  0  0 
    5.2201   -3.4012   -4.8719 O   0  0  0  0  0  0  0  0  0  0  0  0 
    4.0626   -5.1710   -4.1896 O   0  0  0  0  0  0  0  0  0  0  0  0 
    2.6130   -0.2915    2.4069 H   0  0  0  0  0  0  0  0  0  0  0  0 
    4.1062   -0.5805    1.4922 H   0  0  0  0  0  0  0  0  0  0  0  0 
    2.9918   -1.9181    1.8033 H   0  0  0  0  0  0  0  0  0  0  0  0 
    1.8700    1.5420    0.7786 H   0  0  0  0  0  0  0  0  0  0  0  0 
    1.8655    1.2475   -0.9712 H   0  0  0  0  0  0  0  0  0  0  0  0 
    3.3978    1.3569   -0.0845 H   0  0  0  0  0  0  0  0  0  0  0  0 
    4.0712    0.1366   -1.8216 H   0  0  0  0  0  0  0  0  0  0  0  0 
    4.9423   -1.3532   -3.5966 H   0  0  0  0  0  0  0  0  0  0  0  0 
    1.2457   -0.7566    0.3927 H   0  0  0  0  0  0  0  0  0  0  0  0 
    1.0958   -2.6955    0.3956 H   0  0  0  0  0  0  0  0  0  0  0  0 
    1.8680   -4.9761   -1.3218 H   0  0  0  0  0  0  0  0  0  0  0  0 
    3.4289   -5.4083   -3.4847 H   0  0  0  0  0  0  0  0  0  0  0  0 
  1 17  1  0  0  0  0 
  1 15  1  0  0  0  0 
  2  5  1  0  0  0  0 
  2 18  1  0  0  0  0 
  3 21  1  0  0  0  0 
  3  6  2  0  0  0  0 
  4  3  1  0  0  0  0 
  5 23  1  0  0  0  0 
  5  1  1  0  0  0  0 
  6  5  1  0  0  0  0 
  7  4  2  0  0  0  0 
  7  9  1  0  0  0  0 
  8  6  1  0  0  0  0 
  8 11  1  0  0  0  0 
  9  8  2  0  0  0  0 
 10  7  1  0  0  0  0 
 11 24  1  0  0  0  0 
 12  9  1  0  0  0  0 
 12 25  1  0  0  0  0 
 13 10  2  0  0  0  0 
 14 10  1  0  0  0  0 
 14 26  1  0  0  0  0 
 16  1  1  0  0  0  0 
 19  2  1  0  0  0  0 
 20  2  1  0  0  0  0 
 22  4  1  0  0  0  0 
M  END 
>  <HBA> 
4 
 
>  <HBD> 
3 
 
>  <TPSA> 
77.76 
 
>  <cid> 
29587 
 
>  <dipole> 
7.96 
 
>  <excitation_energy_1> 
4.479 
 
>  <excitation_energy_2> 
4.702 
 
>  <excitation_energy_3> 
4.93 
 
>  <excitation_energy_4> 
5.236 
 
>  <homo_energy> 
-6.286 
 
>  <homo_lumo_gap> 
5.184 
 
>  <logP> 
1.919 
 
>  <lumo_energy> 
-1.102 
 
>  <melting_point> 
180.1 
 
>  <molecular_refractivity> 
52.03 
 
>  <oscillator_strength_1> 
0.0447 
 
>  <oscillator_strength_2> 
0.0002 
 
>  <oscillator_strength_3> 
0.0028 
 
>  <oscillator_strength_4> 
0.2126 
 
>  <open_babel_can_smiles> 
CC(c1ccc(c(c1O)O)C(=O)O)C 
 
>  <mulliken_charges> 
26 
1   -0.438713 
2   -0.45214 
3   -0.209025 
4   -0.179228 
5   -0.192658 
6   0.172484 
7   0.01959 
8   0.227785 
9   0.27229 
10   0.572165 
11   -0.692323 
12   -0.701082 
13   -0.463366 
14   -0.602336 
15   0.1498 
16   0.161491 
17   0.152078 
18   0.15063 
19   0.15984 
20   0.156505 
21   0.134924 
22   0.170215 
23   0.116144 
24   0.426822 
25   0.445626 
26   0.44248 
 
>  <lowdin_charges> 
26 
1   -0.442499 
2   -0.442519 
3   -0.176093 
4   -0.13376 
5   -0.119637 
6   -0.025756 
7   -0.084622 
8   0.050216 
9   0.083041 
10   0.197105 
11   -0.40671 
12   -0.387329 
13   -0.258127 
14   -0.362953 
15   0.153223 
16   0.157202 
17   0.151186 
18   0.156658 
19   0.158167 
20   0.152932 
21   0.162723 
22   0.183818 
23   0.129327 
24   0.366598 
25   0.375863 
26   0.361948 
 
$$$$ 
 
