PCCDB-ID:  59230 
public computational chemistry database (PCCDB) project, http://pccdb.org 
 
 39 39  0  0  1  0  0  0  0  0999 V2000 
    8.3130    3.2823    5.9154 C   0  0  0  0  0  0  0  0  0  0  0  0 
    9.3176    3.3945   -3.0178 C   0  0  0  0  0  0  0  0  0  0  0  0 
   10.1689    6.2863   -0.5063 C   0  0  0  0  0  0  0  0  0  0  0  0 
    7.6180    3.6722    4.6067 C   0  0  0  0  0  0  0  0  0  0  0  0 
    8.0593    2.8172    3.4114 C   0  0  0  0  0  0  0  0  0  0  0  0 
    7.3680    3.2071    2.0961 C   0  0  0  0  0  0  0  0  0  0  0  0 
   11.1240    6.1606   -3.7463 C   0  0  0  0  0  0  0  0  0  0  0  0 
    9.9534    7.1215   -3.5476 C   0  0  0  0  0  0  0  0  0  0  0  0 
    7.8200    2.3391    0.9183 C   0  0  0  0  0  0  0  0  0  0  0  0 
    7.8166    4.2991   -1.1764 C   0  0  0  0  0  0  0  0  0  0  0  0 
    9.2623    4.1782   -1.7007 C   0  0  2  0  0  0  0  0  0  0  0  0 
    9.9151    5.5810   -1.8411 C   0  0  0  0  0  0  0  0  0  0  0  0 
   11.1893    5.4716   -2.5011 O   0  0  0  0  0  0  0  0  0  0  0  0 
    9.0905    6.3793   -2.6929 O   0  0  0  0  0  0  0  0  0  0  0  0 
    7.0118    2.7170   -0.6906 S   0  0  0  0  0  0  0  0  0  0  0  0 
    7.9764    3.9088    6.7493 H   0  0  0  0  0  0  0  0  0  0  0  0 
    9.4015    3.3917    5.8344 H   0  0  0  0  0  0  0  0  0  0  0  0 
    8.1047    2.2378    6.1780 H   0  0  0  0  0  0  0  0  0  0  0  0 
    8.8544    2.4121   -2.8907 H   0  0  0  0  0  0  0  0  0  0  0  0 
   10.3518    3.2518   -3.3418 H   0  0  0  0  0  0  0  0  0  0  0  0 
    8.7743    3.9270   -3.8069 H   0  0  0  0  0  0  0  0  0  0  0  0 
   10.8842    5.7119    0.0909 H   0  0  0  0  0  0  0  0  0  0  0  0 
    9.2468    6.4108    0.0672 H   0  0  0  0  0  0  0  0  0  0  0  0 
   10.5971    7.2764   -0.6892 H   0  0  0  0  0  0  0  0  0  0  0  0 
    7.8169    4.7308    4.3870 H   0  0  0  0  0  0  0  0  0  0  0  0 
    6.5293    3.5869    4.7297 H   0  0  0  0  0  0  0  0  0  0  0  0 
    7.8561    1.7579    3.6290 H   0  0  0  0  0  0  0  0  0  0  0  0 
    9.1499    2.8985    3.2919 H   0  0  0  0  0  0  0  0  0  0  0  0 
    7.5727    4.2645    1.8792 H   0  0  0  0  0  0  0  0  0  0  0  0 
    6.2796    3.1214    2.2073 H   0  0  0  0  0  0  0  0  0  0  0  0 
   12.0810    6.6629   -3.9200 H   0  0  0  0  0  0  0  0  0  0  0  0 
   10.9329    5.4583   -4.5697 H   0  0  0  0  0  0  0  0  0  0  0  0 
    9.4067    7.3593   -4.4640 H   0  0  0  0  0  0  0  0  0  0  0  0 
   10.2773    8.0579   -3.0695 H   0  0  0  0  0  0  0  0  0  0  0  0 
    7.5677    1.2884    1.1026 H   0  0  0  0  0  0  0  0  0  0  0  0 
    8.9089    2.3821    0.7960 H   0  0  0  0  0  0  0  0  0  0  0  0 
    7.1757    4.7076   -1.9635 H   0  0  0  0  0  0  0  0  0  0  0  0 
    7.7496    4.9864   -0.3295 H   0  0  0  0  0  0  0  0  0  0  0  0 
    9.8651    3.6427   -0.9541 H   0  0  0  0  0  0  0  0  0  0  0  0 
  1 18  1  0  0  0  0 
  1 16  1  0  0  0  0 
  2 19  1  0  0  0  0 
  2 11  1  0  0  0  0 
  3 23  1  0  0  0  0 
  3 22  1  0  0  0  0 
  4 26  1  0  0  0  0 
  4  1  1  0  0  0  0 
  5 27  1  0  0  0  0 
  5  4  1  0  0  0  0 
  6 30  1  0  0  0  0 
  6  5  1  0  0  0  0 
  7  8  1  0  0  0  0 
  7 13  1  0  0  0  0 
  8 34  1  0  0  0  0 
  8 14  1  0  0  0  0 
  9 35  1  0  0  0  0 
  9  6  1  0  0  0  0 
 10 15  1  0  0  0  0 
 10 38  1  0  0  0  0 
 11 10  1  0  0  0  0 
 11 39  1  1  0  0  0 
 12 11  1  0  0  0  0 
 12  3  1  0  0  0  0 
 13 12  1  0  0  0  0 
 14 12  1  0  0  0  0 
 15  9  1  0  0  0  0 
 17  1  1  0  0  0  0 
 20  2  1  0  0  0  0 
 21  2  1  0  0  0  0 
 24  3  1  0  0  0  0 
 25  4  1  0  0  0  0 
 28  5  1  0  0  0  0 
 29  6  1  0  0  0  0 
 31  7  1  0  0  0  0 
 32  7  1  0  0  0  0 
 33  8  1  0  0  0  0 
 36  9  1  0  0  0  0 
 37 10  1  0  0  0  0 
M  END 
>  <HBA> 
3 
 
>  <HBD> 
0 
 
>  <TPSA> 
43.76 
 
>  <cid> 
59230 
 
>  <dipole> 
2.28 
 
>  <excitation_energy_1> 
5.236 
 
>  <excitation_energy_2> 
5.345 
 
>  <excitation_energy_3> 
5.679 
 
>  <excitation_energy_4> 
5.767 
 
>  <homo_energy> 
-5.763 
 
>  <homo_lumo_gap> 
7.165 
 
>  <logP> 
3.309 
 
>  <lumo_energy> 
1.401 
 
>  <melting_point> 
-5.88 
 
>  <molecular_refractivity> 
67.48 
 
>  <oscillator_strength_1> 
0.0036 
 
>  <oscillator_strength_2> 
0.0059 
 
>  <oscillator_strength_3> 
0.0104 
 
>  <oscillator_strength_4> 
0.0194 
 
>  <open_babel_can_smiles> 
CCCCCSC[C@H](C1(C)OCCO1)C 
 
>  <mulliken_charges> 
39 
1   -0.441623 
2   -0.471043 
3   -0.456449 
4   -0.246692 
5   -0.250117 
6   -0.247384 
7   -0.038095 
8   -0.055904 
9   -0.424476 
10   -0.437924 
11   -0.086214 
12   0.53938 
13   -0.520869 
14   -0.508936 
15   0.079664 
16   0.143268 
17   0.141601 
18   0.142523 
19   0.169428 
20   0.157084 
21   0.143508 
22   0.154182 
23   0.149243 
24   0.149598 
25   0.130956 
26   0.13373 
27   0.129978 
28   0.127686 
29   0.13471 
30   0.14866 
31   0.14732 
32   0.140428 
33   0.155065 
34   0.137675 
35   0.171458 
36   0.165873 
37   0.189062 
38   0.170417 
39   0.133228 
 
>  <lowdin_charges> 
39 
1   -0.441947 
2   -0.452862 
3   -0.459959 
4   -0.267782 
5   -0.272178 
6   -0.276673 
7   -0.143017 
8   -0.145113 
9   -0.374768 
10   -0.381929 
11   -0.140897 
12   0.217466 
13   -0.27371 
14   -0.26494 
15   0.085656 
16   0.150851 
17   0.144445 
18   0.145722 
19   0.16336 
20   0.155508 
21   0.149252 
22   0.161217 
23   0.154666 
24   0.157262 
25   0.137566 
26   0.138574 
27   0.137218 
28   0.1355 
29   0.138888 
30   0.147559 
31   0.15057 
32   0.138267 
33   0.156461 
34   0.134838 
35   0.164408 
36   0.150356 
37   0.176376 
38   0.156689 
39   0.147097 
 
$$$$ 
 
