PCCDB-ID:  61011 
public computational chemistry database (PCCDB) project, http://pccdb.org 
 
 27 26  0  0  0  0  0  0  0  0999 V2000 
   -1.0847   -0.6402    0.3247 C   0  0  0  0  0  0  0  0  0  0  0  0 
    0.9295   -2.6355    2.7950 C   0  0  0  0  0  0  0  0  0  0  0  0 
    0.3343   -0.3910    0.8693 C   0  0  0  0  0  0  0  0  0  0  0  0 
    1.0399   -2.7195    1.2712 C   0  0  0  0  0  0  0  0  0  0  0  0 
    2.4076   -0.3883   -1.3953 C   0  0  0  0  0  0  0  0  0  0  0  0 
    3.6775    0.0287   -0.6514 C   0  0  0  0  0  0  0  0  0  0  0  0 
    1.7047   -1.6054   -0.7790 C   0  0  0  0  0  0  0  0  0  0  0  0 
    4.2733    1.2140   -1.2812 N   0  0  0  0  0  0  0  0  0  0  0  0 
    1.3384   -1.4358    0.6306 N   0  0  0  0  0  0  0  0  0  0  0  0 
   -1.7291    0.2140    0.5633 H   0  0  0  0  0  0  0  0  0  0  0  0 
   -1.5429   -1.5326    0.7657 H   0  0  0  0  0  0  0  0  0  0  0  0 
   -1.0911   -0.7638   -0.7638 H   0  0  0  0  0  0  0  0  0  0  0  0 
    0.8763   -3.6443    3.2197 H   0  0  0  0  0  0  0  0  0  0  0  0 
    0.0341   -2.0973    3.1235 H   0  0  0  0  0  0  0  0  0  0  0  0 
    1.8060   -2.1294    3.2142 H   0  0  0  0  0  0  0  0  0  0  0  0 
    0.2780   -0.2231    1.9503 H   0  0  0  0  0  0  0  0  0  0  0  0 
    0.7205    0.5426    0.4467 H   0  0  0  0  0  0  0  0  0  0  0  0 
    0.1265   -3.1958    0.8636 H   0  0  0  0  0  0  0  0  0  0  0  0 
    1.8675   -3.3952    1.0223 H   0  0  0  0  0  0  0  0  0  0  0  0 
    2.6601   -0.6469   -2.4346 H   0  0  0  0  0  0  0  0  0  0  0  0 
    1.7366    0.4763   -1.4578 H   0  0  0  0  0  0  0  0  0  0  0  0 
    4.3594   -0.8411   -0.5933 H   0  0  0  0  0  0  0  0  0  0  0  0 
    3.4197    0.2851    0.3812 H   0  0  0  0  0  0  0  0  0  0  0  0 
    2.3930   -2.4595   -0.8254 H   0  0  0  0  0  0  0  0  0  0  0  0 
    0.8398   -1.8800   -1.4134 H   0  0  0  0  0  0  0  0  0  0  0  0 
    4.6257    0.9678   -2.2062 H   0  0  0  0  0  0  0  0  0  0  0  0 
    5.0863    1.5151   -0.7459 H   0  0  0  0  0  0  0  0  0  0  0  0 
  1 10  1  0  0  0  0 
  1 11  1  0  0  0  0 
  1  3  1  0  0  0  0 
  2 14  1  0  0  0  0 
  2 15  1  0  0  0  0 
  2 13  1  0  0  0  0 
  3 16  1  0  0  0  0 
  4  2  1  0  0  0  0 
  5  7  1  0  0  0  0 
  5  6  1  0  0  0  0 
  6 22  1  0  0  0  0 
  6 23  1  0  0  0  0 
  7  9  1  0  0  0  0 
  8 27  1  0  0  0  0 
  8  6  1  0  0  0  0 
  9  3  1  0  0  0  0 
  9  4  1  0  0  0  0 
 12  1  1  0  0  0  0 
 17  3  1  0  0  0  0 
 18  4  1  0  0  0  0 
 19  4  1  0  0  0  0 
 20  5  1  0  0  0  0 
 21  5  1  0  0  0  0 
 24  7  1  0  0  0  0 
 25  7  1  0  0  0  0 
 26  8  1  0  0  0  0 
M  END 
>  <HBA> 
2 
 
>  <HBD> 
1 
 
>  <TPSA> 
29.26 
 
>  <cid> 
61011 
 
>  <dipole> 
1.18 
 
>  <excitation_energy_1> 
4.995 
 
>  <excitation_energy_2> 
5.222 
 
>  <excitation_energy_3> 
5.365 
 
>  <excitation_energy_4> 
5.469 
 
>  <homo_energy> 
-5.423 
 
>  <homo_lumo_gap> 
7.527 
 
>  <logP> 
1.377 
 
>  <lumo_energy> 
2.103 
 
>  <melting_point> 
29.66 
 
>  <molecular_refractivity> 
41.37 
 
>  <oscillator_strength_1> 
0.0086 
 
>  <oscillator_strength_2> 
0.0127 
 
>  <oscillator_strength_3> 
0.0142 
 
>  <oscillator_strength_4> 
0.0076 
 
>  <open_babel_can_smiles> 
NCCCN(CC)CC 
 
>  <mulliken_charges> 
27 
1   -0.460557 
2   -0.457367 
3   -0.140187 
4   -0.10242 
5   -0.269532 
6   -0.127809 
7   -0.117046 
8   -0.718013 
9   -0.382537 
10   0.142684 
11   0.147228 
12   0.149322 
13   0.142023 
14   0.14773 
15   0.154592 
16   0.141796 
17   0.148016 
18   0.110741 
19   0.133953 
20   0.122012 
21   0.151011 
22   0.104643 
23   0.156937 
24   0.129026 
25   0.112532 
26   0.287865 
27   0.293358 
 
>  <lowdin_charges> 
27 
1   -0.465831 
2   -0.452711 
3   -0.205296 
4   -0.197917 
5   -0.28684 
6   -0.20563 
7   -0.201776 
8   -0.560414 
9   -0.193011 
10   0.153744 
11   0.148997 
12   0.147578 
13   0.152158 
14   0.148625 
15   0.154786 
16   0.143076 
17   0.148184 
18   0.115903 
19   0.143178 
20   0.139052 
21   0.148806 
22   0.114338 
23   0.148541 
24   0.141027 
25   0.119633 
26   0.248385 
27   0.253413 
 
$$$$ 
 
