PCCDB-ID:  62349 
public computational chemistry database (PCCDB) project, http://pccdb.org 
 
 30 30  0  0  1  0  0  0  0  0999 V2000 
    1.4759   -0.7789    1.2665 C   0  0  0  0  0  0  0  0  0  0  0  0 
    3.1310    1.0766    0.8349 C   0  0  0  0  0  0  0  0  0  0  0  0 
    3.5432   -1.7797   -4.4109 C   0  0  0  0  0  0  0  0  0  0  0  0 
    3.6486    0.1606   -2.7359 C   0  0  0  0  0  0  0  0  0  0  0  0 
    4.2674   -0.5637   -1.5332 C   0  0  0  0  0  0  0  0  0  0  0  0 
    1.5447   -1.2991   -2.8984 C   0  0  0  0  0  0  0  0  0  0  0  0 
    2.3476   -0.0889    0.2053 C   0  0  0  0  0  0  0  0  0  0  0  0 
    2.7573   -0.7018   -3.6482 C   0  0  2  0  0  0  0  0  0  0  0  0 
    3.3122   -1.0988   -0.4555 C   0  0  1  0  0  0  0  0  0  0  0  0 
    1.8413   -2.4725   -1.9694 C   0  0  0  0  0  0  0  0  0  0  0  0 
    1.3814   -3.5727   -2.1736 O   0  0  0  0  0  0  0  0  0  0  0  0 
    2.6352   -2.3155   -0.8759 O   0  0  0  0  0  0  0  0  0  0  0  0 
    0.7867   -0.0581    1.7205 H   0  0  0  0  0  0  0  0  0  0  0  0 
    2.0973   -1.1988    2.0679 H   0  0  0  0  0  0  0  0  0  0  0  0 
    0.8864   -1.5968    0.8436 H   0  0  0  0  0  0  0  0  0  0  0  0 
    2.4447    1.7477    1.3627 H   0  0  0  0  0  0  0  0  0  0  0  0 
    3.6689    1.6734    0.0912 H   0  0  0  0  0  0  0  0  0  0  0  0 
    3.8610    0.7078    1.5666 H   0  0  0  0  0  0  0  0  0  0  0  0 
    4.3597   -1.3298   -4.9878 H   0  0  0  0  0  0  0  0  0  0  0  0 
    2.8937   -2.3171   -5.1109 H   0  0  0  0  0  0  0  0  0  0  0  0 
    3.9790   -2.5267   -3.7381 H   0  0  0  0  0  0  0  0  0  0  0  0 
    4.4655    0.5778   -3.3403 H   0  0  0  0  0  0  0  0  0  0  0  0 
    3.0658    1.0235   -2.3844 H   0  0  0  0  0  0  0  0  0  0  0  0 
    4.9687    0.1190   -1.0378 H   0  0  0  0  0  0  0  0  0  0  0  0 
    4.8729   -1.4126   -1.8737 H   0  0  0  0  0  0  0  0  0  0  0  0 
    0.8291   -1.6989   -3.6212 H   0  0  0  0  0  0  0  0  0  0  0  0 
    1.0322   -0.5063   -2.3401 H   0  0  0  0  0  0  0  0  0  0  0  0 
    1.6822    0.3331   -0.5583 H   0  0  0  0  0  0  0  0  0  0  0  0 
    2.3318   -0.0180   -4.3961 H   0  0  0  0  0  0  0  0  0  0  0  0 
    3.9472   -1.4863    0.3507 H   0  0  0  0  0  0  0  0  0  0  0  0 
  1 13  1  0  0  0  0 
  1 14  1  0  0  0  0 
  2 16  1  0  0  0  0 
  2 18  1  0  0  0  0 
  3 21  1  0  0  0  0 
  3  8  1  0  0  0  0 
  4 23  1  0  0  0  0 
  4  5  1  0  0  0  0 
  5 24  1  0  0  0  0 
  5  9  1  0  0  0  0 
  6 27  1  0  0  0  0 
  6 10  1  0  0  0  0 
  7  2  1  0  0  0  0 
  7  1  1  0  0  0  0 
  8 29  1  6  0  0  0 
  8  6  1  0  0  0  0 
  8  4  1  0  0  0  0 
  9  7  1  0  0  0  0 
  9 30  1  1  0  0  0 
 10 12  1  0  0  0  0 
 11 10  2  0  0  0  0 
 12  9  1  0  0  0  0 
 15  1  1  0  0  0  0 
 17  2  1  0  0  0  0 
 19  3  1  0  0  0  0 
 20  3  1  0  0  0  0 
 22  4  1  0  0  0  0 
 25  5  1  0  0  0  0 
 26  6  1  0  0  0  0 
 28  7  1  0  0  0  0 
M  END 
>  <HBA> 
2 
 
>  <HBD> 
0 
 
>  <TPSA> 
26.3 
 
>  <cid> 
62349 
 
>  <dipole> 
4.59 
 
>  <excitation_energy_1> 
5.419 
 
>  <excitation_energy_2> 
6.46 
 
>  <excitation_energy_3> 
6.832 
 
>  <excitation_energy_4> 
6.912 
 
>  <homo_energy> 
-6.906 
 
>  <homo_lumo_gap> 
7.295 
 
>  <logP> 
2.374 
 
>  <lumo_energy> 
0.389 
 
>  <melting_point> 
5.8 
 
>  <molecular_refractivity> 
49.35 
 
>  <oscillator_strength_1> 
0.0016 
 
>  <oscillator_strength_2> 
0.0019 
 
>  <oscillator_strength_3> 
0.0047 
 
>  <oscillator_strength_4> 
0.0187 
 
>  <open_babel_can_smiles> 
C[C@@H]1CC[C@H](OC(=O)C1)C(C)C 
 
>  <mulliken_charges> 
30 
1   -0.446459 
2   -0.457015 
3   -0.457512 
4   -0.269565 
5   -0.30342 
6   -0.371401 
7   -0.109959 
8   -0.082736 
9   0.149368 
10   0.591359 
11   -0.451951 
12   -0.470438 
13   0.141412 
14   0.14358 
15   0.169178 
16   0.151422 
17   0.149772 
18   0.145638 
19   0.143347 
20   0.156217 
21   0.161531 
22   0.137651 
23   0.13524 
24   0.146507 
25   0.15595 
26   0.174284 
27   0.158466 
28   0.131431 
29   0.134476 
30   0.143628 
 
>  <lowdin_charges> 
30 
1   -0.448194 
2   -0.449672 
3   -0.453898 
4   -0.284716 
5   -0.297126 
6   -0.318246 
7   -0.140752 
8   -0.122769 
9   -0.000279 
10   0.193066 
11   -0.249145 
12   -0.198603 
13   0.150898 
14   0.150234 
15   0.16254 
16   0.157042 
17   0.151664 
18   0.150244 
19   0.151469 
20   0.158884 
21   0.155882 
22   0.149374 
23   0.142416 
24   0.157171 
25   0.156136 
26   0.173625 
27   0.160622 
28   0.140022 
29   0.147506 
30   0.154605 
 
$$$$ 
 
