PCCDB-ID:  31435 
public computational chemistry database (PCCDB) project, http://pccdb.org 
 
 17 16  0  0  0  0  0  0  0  0999 V2000 
    2.5799    2.3111   -0.1163 C   0  0  0  0  0  0  0  0  0  0  0  0 
    0.5779   -1.7229   -1.8266 C   0  0  0  0  0  0  0  0  0  0  0  0 
    3.0525    1.6070   -4.9885 C   0  0  0  0  0  0  0  0  0  0  0  0 
    3.2133    0.0604   -2.1403 O   0  0  0  0  0  0  0  0  0  0  0  0 
    1.5482    1.6925   -0.9182 O   0  0  0  0  0  0  0  0  0  0  0  0 
    1.9851    0.8973   -2.2639 P   0  0  0  0  0  0  0  0  0  0  0  0 
    0.2408   -0.1711   -2.7621 S   0  0  0  0  0  0  0  0  0  0  0  0 
    2.0879    2.4640   -3.6756 S   0  0  0  0  0  0  0  0  0  0  0  0 
    2.9992    3.1777   -0.6370 H   0  0  0  0  0  0  0  0  0  0  0  0 
    3.3723    1.5937    0.1102 H   0  0  0  0  0  0  0  0  0  0  0  0 
    2.0882    2.6342    0.8024 H   0  0  0  0  0  0  0  0  0  0  0  0 
   -0.1252   -2.4656   -2.2105 H   0  0  0  0  0  0  0  0  0  0  0  0 
    0.4088   -1.5750   -0.7585 H   0  0  0  0  0  0  0  0  0  0  0  0 
    1.6024   -2.0513   -2.0078 H   0  0  0  0  0  0  0  0  0  0  0  0 
    3.3340    2.3776   -5.7098 H   0  0  0  0  0  0  0  0  0  0  0  0 
    2.4406    0.8504   -5.4833 H   0  0  0  0  0  0  0  0  0  0  0  0 
    3.9460    1.1521   -4.5592 H   0  0  0  0  0  0  0  0  0  0  0  0 
  1 10  1  0  0  0  0 
  1 11  1  0  0  0  0 
  2 13  1  0  0  0  0 
  3 17  1  0  0  0  0 
  3  8  1  0  0  0  0 
  5  1  1  0  0  0  0 
  6  4  2  0  0  0  0 
  6  5  1  0  0  0  0 
  7  6  1  0  0  0  0 
  7  2  1  0  0  0  0 
  8  6  1  0  0  0  0 
  9  1  1  0  0  0  0 
 12  2  1  0  0  0  0 
 14  2  1  0  0  0  0 
 15  3  1  0  0  0  0 
 16  3  1  0  0  0  0 
M  END 
>  <HBA> 
4 
 
>  <HBD> 
0 
 
>  <TPSA> 
86.71 
 
>  <cid> 
31435 
 
>  <dipole> 
0.51 
 
>  <excitation_energy_1> 
5.131 
 
>  <excitation_energy_2> 
5.25 
 
>  <excitation_energy_3> 
5.8 
 
>  <excitation_energy_4> 
5.984 
 
>  <homo_energy> 
-6.846 
 
>  <homo_lumo_gap> 
6.474 
 
>  <logP> 
2.467 
 
>  <lumo_energy> 
-0.373 
 
>  <melting_point> 
-2.49 
 
>  <molecular_refractivity> 
41.47 
 
>  <oscillator_strength_1> 
0.0069 
 
>  <oscillator_strength_2> 
0.0021 
 
>  <oscillator_strength_3> 
0.0081 
 
>  <oscillator_strength_4> 
0.0002 
 
>  <open_babel_can_smiles> 
COP(=O)(SC)SC 
 
>  <mulliken_charges> 
17 
1   -0.225275 
2   -0.604363 
3   -0.604806 
4   -0.550292 
5   -0.514727 
6   0.814389 
7   -0.026049 
8   -0.053611 
9   0.173284 
10   0.184803 
11   0.175806 
12   0.192122 
13   0.197753 
14   0.223149 
15   0.19396 
16   0.202571 
17   0.221286 
 
>  <lowdin_charges> 
17 
1   -0.275255 
2   -0.536271 
3   -0.538073 
4   -0.58817 
5   -0.396427 
6   0.784836 
7   -0.011043 
8   -0.021698 
9   0.160304 
10   0.168657 
11   0.166141 
12   0.180987 
13   0.172241 
14   0.187416 
15   0.181207 
16   0.177496 
17   0.187654 
 
$$$$ 
 
