PCCDB-ID:  28324 
public computational chemistry database (PCCDB) project, http://pccdb.org 
 
 15 14  0  0  0  0  0  0  0  0999 V2000 
    2.0450   -1.5226    0.1871 C   0  0  0  0  0  0  0  0  0  0  0  0 
    2.3639   -2.7889   -1.8095 C   0  0  0  0  0  0  0  0  0  0  0  0 
    1.0160   -1.0929    1.2244 C   0  0  0  0  0  0  0  0  0  0  0  0 
    3.1249   -1.8709   -2.7721 C   0  0  0  0  0  0  0  0  0  0  0  0 
    1.4417   -2.1461   -0.9440 O   0  0  0  0  0  0  0  0  0  0  0  0 
    1.4166    0.0100    2.3707 S   0  0  0  0  0  0  0  0  0  0  0  0 
   -0.5567   -1.8655    1.2097 S   0  0  0  0  0  0  0  0  0  0  0  0 
    4.5868   -2.3091   -3.3689 S   0  0  0  0  0  0  0  0  0  0  0  0 
    2.3171   -0.4013   -3.2862 S   0  0  0  0  0  0  0  0  0  0  0  0 
    2.7346   -2.2277    0.6769 H   0  0  0  0  0  0  0  0  0  0  0  0 
    2.6218   -0.6378   -0.1068 H   0  0  0  0  0  0  0  0  0  0  0  0 
    3.0999   -3.3720   -1.2436 H   0  0  0  0  0  0  0  0  0  0  0  0 
    1.7708   -3.4809   -2.4191 H   0  0  0  0  0  0  0  0  0  0  0  0 
   -0.3628   -2.6137    0.0996 H   0  0  0  0  0  0  0  0  0  0  0  0 
    1.2217   -0.5395   -2.5010 H   0  0  0  0  0  0  0  0  0  0  0  0 
  1 10  1  0  0  0  0 
  1  3  1  0  0  0  0 
  2 12  1  0  0  0  0 
  2  5  1  0  0  0  0 
  3  6  2  0  0  0  0 
  4  2  1  0  0  0  0 
  5  1  1  0  0  0  0 
  7  3  1  0  0  0  0 
  8  4  2  0  0  0  0 
  9  4  1  0  0  0  0 
  9 15  1  0  0  0  0 
 11  1  1  0  0  0  0 
 13  2  1  0  0  0  0 
 14  7  1  0  0  0  0 
M  END 
>  <HBA> 
5 
 
>  <HBD> 
2 
 
>  <TPSA> 
151.01 
 
>  <cid> 
28324 
 
>  <dipole> 
2.94 
 
>  <excitation_energy_1> 
2.651 
 
>  <excitation_energy_2> 
2.697 
 
>  <excitation_energy_3> 
3.445 
 
>  <excitation_energy_4> 
3.613 
 
>  <homo_energy> 
-6.506 
 
>  <homo_lumo_gap> 
3.97 
 
>  <logP> 
1.517 
 
>  <lumo_energy> 
-2.536 
 
>  <melting_point> 
67.06 
 
>  <molecular_refractivity> 
53.87 
 
>  <oscillator_strength_1> 
0.0 
 
>  <oscillator_strength_2> 
0.0 
 
>  <oscillator_strength_3> 
0.0031 
 
>  <oscillator_strength_4> 
0.0006 
 
>  <open_babel_can_smiles> 
SC(=S)COCC(=S)S 
 
>  <mulliken_charges> 
15 
1   -0.05114 
2   -0.062841 
3   -0.201179 
4   -0.197006 
5   -0.488744 
6   -0.096433 
7   0.084905 
8   -0.092439 
9   0.083509 
10   0.187132 
11   0.19952 
12   0.185837 
13   0.20062 
14   0.126821 
15   0.121437 
 
>  <lowdin_charges> 
15 
1   -0.148557 
2   -0.152052 
3   -0.220824 
4   -0.23545 
5   -0.270464 
6   -0.059123 
7   0.083752 
8   -0.051928 
9   0.083619 
10   0.171462 
11   0.175693 
12   0.171037 
13   0.183553 
14   0.136727 
15   0.132553 
 
$$$$ 
 
