PCCDB-ID:  7148 
public computational chemistry database (PCCDB) project, http://pccdb.org 
 
 20 20  0  0  0  0  0  0  0  0999 V2000 
    4.6694   -1.0300    0.7331 C   0  0  0  0  0  0  0  0  0  0  0  0 
    3.8313   -1.9566   -0.1459 C   0  0  0  0  0  0  0  0  0  0  0  0 
    0.3906   -3.3682   -3.8436 C   0  0  0  0  0  0  0  0  0  0  0  0 
    0.4311   -1.9706   -3.8570 C   0  0  0  0  0  0  0  0  0  0  0  0 
    1.1857   -4.0799   -2.9434 C   0  0  0  0  0  0  0  0  0  0  0  0 
    1.2623   -1.2898   -2.9729 C   0  0  0  0  0  0  0  0  0  0  0  0 
    2.0202   -3.3974   -2.0585 C   0  0  0  0  0  0  0  0  0  0  0  0 
    2.0668   -1.9950   -2.0635 C   0  0  0  0  0  0  0  0  0  0  0  0 
    2.9419   -1.2052   -1.1329 C   0  0  0  0  0  0  0  0  0  0  0  0 
    2.9408    0.0164   -1.1677 O   0  0  0  0  0  0  0  0  0  0  0  0 
    5.2886   -1.6148    1.4212 H   0  0  0  0  0  0  0  0  0  0  0  0 
    4.0322   -0.3626    1.3205 H   0  0  0  0  0  0  0  0  0  0  0  0 
    5.3245   -0.4001    0.1245 H   0  0  0  0  0  0  0  0  0  0  0  0 
    3.1935   -2.6045    0.4720 H   0  0  0  0  0  0  0  0  0  0  0  0 
    4.4763   -2.6407   -0.7158 H   0  0  0  0  0  0  0  0  0  0  0  0 
   -0.2583   -3.9013   -4.5333 H   0  0  0  0  0  0  0  0  0  0  0  0 
   -0.1865   -1.4150   -4.5574 H   0  0  0  0  0  0  0  0  0  0  0  0 
    1.1557   -5.1660   -2.9297 H   0  0  0  0  0  0  0  0  0  0  0  0 
    1.3089   -0.2056   -2.9639 H   0  0  0  0  0  0  0  0  0  0  0  0 
    2.6335   -3.9646   -1.3656 H   0  0  0  0  0  0  0  0  0  0  0  0 
  1 12  1  0  0  0  0 
  1 11  1  0  0  0  0 
  2 14  1  0  0  0  0 
  2  1  1  0  0  0  0 
  3  5  1  0  0  0  0 
  4  3  2  0  0  0  0 
  4  6  1  0  0  0  0 
  5 18  1  0  0  0  0 
  5  7  2  0  0  0  0 
  6 19  1  0  0  0  0 
  6  8  2  0  0  0  0 
  7 20  1  0  0  0  0 
  8  7  1  0  0  0  0 
  8  9  1  0  0  0  0 
  9  2  1  0  0  0  0 
 10  9  2  0  0  0  0 
 13  1  1  0  0  0  0 
 15  2  1  0  0  0  0 
 16  3  1  0  0  0  0 
 17  4  1  0  0  0  0 
M  END 
>  <HBA> 
1 
 
>  <HBD> 
0 
 
>  <TPSA> 
17.07 
 
>  <cid> 
7148 
 
>  <dipole> 
2.85 
 
>  <excitation_energy_1> 
3.755 
 
>  <excitation_energy_2> 
4.741 
 
>  <excitation_energy_3> 
5.158 
 
>  <excitation_energy_4> 
5.53 
 
>  <homo_energy> 
-6.708 
 
>  <homo_lumo_gap> 
5.265 
 
>  <logP> 
2.279 
 
>  <lumo_energy> 
-1.442 
 
>  <melting_point> 
37.55 
 
>  <molecular_refractivity> 
41.44 
 
>  <oscillator_strength_1> 
0.0 
 
>  <oscillator_strength_2> 
0.0215 
 
>  <oscillator_strength_3> 
0.251 
 
>  <oscillator_strength_4> 
0.0001 
 
>  <open_babel_can_smiles> 
CCC(=O)c1ccccc1 
 
>  <mulliken_charges> 
20 
1   -0.43225 
2   -0.363077 
3   -0.11904 
4   -0.132932 
5   -0.134003 
6   -0.156264 
7   -0.182626 
8   0.078988 
9   0.408108 
10   -0.463348 
11   0.137983 
12   0.16172 
13   0.161627 
14   0.16237 
15   0.162216 
16   0.137221 
17   0.138108 
18   0.135595 
19   0.16365 
20   0.135954 
 
>  <lowdin_charges> 
20 
1   -0.443183 
2   -0.31128 
3   -0.141376 
4   -0.156089 
5   -0.155744 
6   -0.125834 
7   -0.152282 
8   -0.050399 
9   0.157582 
10   -0.241302 
11   0.150749 
12   0.160831 
13   0.16079 
14   0.163009 
15   0.162907 
16   0.162575 
17   0.162865 
18   0.158354 
19   0.174691 
20   0.163136 
 
$$$$ 
 
