PCCDB-ID:  65425 
public computational chemistry database (PCCDB) project, http://pccdb.org 
 
 21 20  0  0  0  0  0  0  0  0999 V2000 
    4.6145   -1.3741   -4.8705 C   0  0  0  0  0  0  0  0  0  0  0  0 
   -0.6041    3.6456   -2.8848 C   0  0  0  0  0  0  0  0  0  0  0  0 
    0.8881    0.6104   -2.3797 C   0  0  0  0  0  0  0  0  0  0  0  0 
    2.3800    0.6404   -2.7222 C   0  0  0  0  0  0  0  0  0  0  0  0 
   -0.0431    0.9572   -3.5501 C   0  0  0  0  0  0  0  0  0  0  0  0 
    2.8047   -0.4825   -3.6496 C   0  0  0  0  0  0  0  0  0  0  0  0 
    2.0995   -1.3921   -4.0349 O   0  0  0  0  0  0  0  0  0  0  0  0 
    4.1044   -0.3538   -3.9966 O   0  0  0  0  0  0  0  0  0  0  0  0 
    0.1261    2.6546   -4.2362 S   0  0  0  0  0  0  0  0  0  0  0  0 
    5.6591   -1.1145   -5.0448 H   0  0  0  0  0  0  0  0  0  0  0  0 
    4.0595   -1.3862   -5.8123 H   0  0  0  0  0  0  0  0  0  0  0  0 
    4.5364   -2.3584   -4.4008 H   0  0  0  0  0  0  0  0  0  0  0  0 
   -0.6052    4.6857   -3.2215 H   0  0  0  0  0  0  0  0  0  0  0  0 
   -0.0191    3.5803   -1.9629 H   0  0  0  0  0  0  0  0  0  0  0  0 
   -1.6366    3.3399   -2.6875 H   0  0  0  0  0  0  0  0  0  0  0  0 
    0.7055    1.2950   -1.5427 H   0  0  0  0  0  0  0  0  0  0  0  0 
    0.6208   -0.3945   -2.0302 H   0  0  0  0  0  0  0  0  0  0  0  0 
    2.9875    0.5571   -1.8115 H   0  0  0  0  0  0  0  0  0  0  0  0 
    2.6586    1.5948   -3.1845 H   0  0  0  0  0  0  0  0  0  0  0  0 
   -1.0889    0.8090   -3.2578 H   0  0  0  0  0  0  0  0  0  0  0  0 
    0.1549    0.2877   -4.3918 H   0  0  0  0  0  0  0  0  0  0  0  0 
  1 12  1  0  0  0  0 
  1  8  1  0  0  0  0 
  2 15  1  0  0  0  0 
  2 14  1  0  0  0  0 
  3 17  1  0  0  0  0 
  3 16  1  0  0  0  0 
  4  3  1  0  0  0  0 
  4 18  1  0  0  0  0 
  5 20  1  0  0  0  0 
  5  3  1  0  0  0  0 
  6  4  1  0  0  0  0 
  7  6  2  0  0  0  0 
  8  6  1  0  0  0  0 
  9  5  1  0  0  0  0 
  9  2  1  0  0  0  0 
 10  1  1  0  0  0  0 
 11  1  1  0  0  0  0 
 13  2  1  0  0  0  0 
 19  4  1  0  0  0  0 
 21  5  1  0  0  0  0 
M  END 
>  <HBA> 
3 
 
>  <HBD> 
0 
 
>  <TPSA> 
51.6 
 
>  <cid> 
65425 
 
>  <dipole> 
1.87 
 
>  <excitation_energy_1> 
5.135 
 
>  <excitation_energy_2> 
5.31 
 
>  <excitation_energy_3> 
5.484 
 
>  <excitation_energy_4> 
5.838 
 
>  <homo_energy> 
-5.932 
 
>  <homo_lumo_gap> 
6.28 
 
>  <logP> 
1.303 
 
>  <lumo_energy> 
0.348 
 
>  <melting_point> 
-5.15 
 
>  <molecular_refractivity> 
39.83 
 
>  <oscillator_strength_1> 
0.0014 
 
>  <oscillator_strength_2> 
0.001 
 
>  <oscillator_strength_3> 
0.0191 
 
>  <oscillator_strength_4> 
0.0188 
 
>  <open_babel_can_smiles> 
CSCCCC(=O)OC 
 
>  <mulliken_charges> 
21 
1   -0.217595 
2   -0.582313 
3   -0.251998 
4   -0.363146 
5   -0.421217 
6   0.621599 
7   -0.483165 
8   -0.44985 
9   0.075694 
10   0.164744 
11   0.170882 
12   0.168944 
13   0.183842 
14   0.175563 
15   0.175344 
16   0.138382 
17   0.16056 
18   0.172131 
19   0.197726 
20   0.165649 
21   0.198223 
 
>  <lowdin_charges> 
21 
1   -0.276851 
2   -0.545938 
3   -0.276887 
4   -0.308498 
5   -0.379555 
6   0.200615 
7   -0.271445 
8   -0.193335 
9   0.08683 
10   0.159286 
11   0.159402 
12   0.157951 
13   0.175208 
14   0.158903 
15   0.159892 
16   0.147212 
17   0.158954 
18   0.172015 
19   0.180808 
20   0.156432 
21   0.179001 
 
$$$$ 
 
