PCCDB-ID:  34306 
public computational chemistry database (PCCDB) project, http://pccdb.org 
 
 33 32  0  0  0  0  0  0  0  0999 V2000 
    0.9103    0.2000    1.3017 C   0  0  0  0  0  0  0  0  0  0  0  0 
    2.6054   -1.2037    0.0661 C   0  0  0  0  0  0  0  0  0  0  0  0 
    4.9242    2.6998   -0.5493 C   0  0  0  0  0  0  0  0  0  0  0  0 
    4.4413    1.3646    0.0337 C   0  0  0  0  0  0  0  0  0  0  0  0 
    6.4382    2.7343   -0.7995 C   0  0  0  0  0  0  0  0  0  0  0  0 
    2.9259    1.3280    0.2738 C   0  0  0  0  0  0  0  0  0  0  0  0 
    6.8910    4.0684   -1.3821 C   0  0  0  0  0  0  0  0  0  0  0  0 
   10.3562    3.7014   -2.6835 C   0  0  0  0  0  0  0  0  0  0  0  0 
    2.3950    0.0426    0.9398 C   0  0  0  0  0  0  0  0  0  0  0  0 
    8.8389    3.6136   -2.6741 C   0  0  0  0  0  0  0  0  0  0  0  0 
    8.1806    3.1270   -3.5684 O   0  0  0  0  0  0  0  0  0  0  0  0 
    8.3335    4.1219   -1.5349 O   0  0  0  0  0  0  0  0  0  0  0  0 
   11.0011    4.4482   -4.2335 S   0  0  0  0  0  0  0  0  0  0  0  0 
    0.5289   -0.6921    1.8125 H   0  0  0  0  0  0  0  0  0  0  0  0 
    0.3010    0.3521    0.4010 H   0  0  0  0  0  0  0  0  0  0  0  0 
    0.7479    1.0603    1.9621 H   0  0  0  0  0  0  0  0  0  0  0  0 
    2.2084   -2.0987    0.5597 H   0  0  0  0  0  0  0  0  0  0  0  0 
    3.6643   -1.3876   -0.1450 H   0  0  0  0  0  0  0  0  0  0  0  0 
    2.0859   -1.0977   -0.8957 H   0  0  0  0  0  0  0  0  0  0  0  0 
    4.6447    3.5164    0.1329 H   0  0  0  0  0  0  0  0  0  0  0  0 
    4.3939    2.8955   -1.4926 H   0  0  0  0  0  0  0  0  0  0  0  0 
    4.9646    1.1737    0.9827 H   0  0  0  0  0  0  0  0  0  0  0  0 
    4.7363    0.5543   -0.6460 H   0  0  0  0  0  0  0  0  0  0  0  0 
    6.7186    1.9331   -1.4936 H   0  0  0  0  0  0  0  0  0  0  0  0 
    6.9776    2.5547    0.1400 H   0  0  0  0  0  0  0  0  0  0  0  0 
    2.4021    1.4749   -0.6836 H   0  0  0  0  0  0  0  0  0  0  0  0 
    2.6496    2.1864    0.9037 H   0  0  0  0  0  0  0  0  0  0  0  0 
    6.6616    4.8976   -0.7076 H   0  0  0  0  0  0  0  0  0  0  0  0 
    6.4294    4.2533   -2.3555 H   0  0  0  0  0  0  0  0  0  0  0  0 
   10.7616    2.6917   -2.5613 H   0  0  0  0  0  0  0  0  0  0  0  0 
   10.7122    4.3212   -1.8597 H   0  0  0  0  0  0  0  0  0  0  0  0 
    2.9550   -0.1031    1.8770 H   0  0  0  0  0  0  0  0  0  0  0  0 
   10.2832    3.6570   -5.0589 H   0  0  0  0  0  0  0  0  0  0  0  0 
  1 14  1  0  0  0  0 
  1 16  1  0  0  0  0 
  2 17  1  0  0  0  0 
  2  9  1  0  0  0  0 
  3  4  1  0  0  0  0 
  3 20  1  0  0  0  0 
  4  6  1  0  0  0  0 
  4 22  1  0  0  0  0 
  5  3  1  0  0  0  0 
  5 25  1  0  0  0  0 
  6 27  1  0  0  0  0 
  6  9  1  0  0  0  0 
  7  5  1  0  0  0  0 
  7 28  1  0  0  0  0 
  8 10  1  0  0  0  0 
  8 30  1  0  0  0  0 
  8 31  1  0  0  0  0 
  9  1  1  0  0  0  0 
  9 32  1  0  0  0  0 
 10 12  1  0  0  0  0 
 11 10  2  0  0  0  0 
 12  7  1  0  0  0  0 
 13  8  1  0  0  0  0 
 15  1  1  0  0  0  0 
 18  2  1  0  0  0  0 
 19  2  1  0  0  0  0 
 21  3  1  0  0  0  0 
 23  4  1  0  0  0  0 
 24  5  1  0  0  0  0 
 26  6  1  0  0  0  0 
 29  7  1  0  0  0  0 
 33 13  1  0  0  0  0 
M  END 
>  <HBA> 
3 
 
>  <HBD> 
1 
 
>  <TPSA> 
65.1 
 
>  <cid> 
34306 
 
>  <dipole> 
2.72 
 
>  <excitation_energy_1> 
4.937 
 
>  <excitation_energy_2> 
5.566 
 
>  <excitation_energy_3> 
5.766 
 
>  <excitation_energy_4> 
6.272 
 
>  <homo_energy> 
-6.574 
 
>  <homo_lumo_gap> 
6.313 
 
>  <logP> 
2.676 
 
>  <lumo_energy> 
-0.261 
 
>  <melting_point> 
3.48 
 
>  <molecular_refractivity> 
59.4 
 
>  <oscillator_strength_1> 
0.0038 
 
>  <oscillator_strength_2> 
0.0154 
 
>  <oscillator_strength_3> 
0.0032 
 
>  <oscillator_strength_4> 
0.023 
 
>  <open_babel_can_smiles> 
SCC(=O)OCCCCCC(C)C 
 
>  <mulliken_charges> 
33 
1   -0.442013 
2   -0.445311 
3   -0.265701 
4   -0.259009 
5   -0.280246 
6   -0.247385 
7   -0.048964 
8   -0.502074 
9   -0.066418 
10   0.630766 
11   -0.470244 
12   -0.454143 
13   -0.063573 
14   0.139959 
15   0.138982 
16   0.138938 
17   0.140699 
18   0.14465 
19   0.13868 
20   0.130565 
21   0.138685 
22   0.12864 
23   0.137872 
24   0.15986 
25   0.14281 
26   0.12545 
27   0.124937 
28   0.15398 
29   0.17208 
30   0.208167 
31   0.205466 
32   0.119481 
33   0.124414 
 
>  <lowdin_charges> 
33 
1   -0.445723 
2   -0.445846 
3   -0.273892 
4   -0.27577 
5   -0.287776 
6   -0.275987 
7   -0.13028 
8   -0.398071 
9   -0.11994 
10   0.195794 
11   -0.269706 
12   -0.186335 
13   -0.064433 
14   0.148477 
15   0.145952 
16   0.147306 
17   0.149259 
18   0.14708 
19   0.145252 
20   0.139521 
21   0.14303 
22   0.138498 
23   0.1432 
24   0.156036 
25   0.146639 
26   0.13745 
27   0.139379 
28   0.154466 
29   0.15983 
30   0.181735 
31   0.187097 
32   0.134059 
33   0.133699 
 
$$$$ 
 
