PCCDB-ID:  66412 
public computational chemistry database (PCCDB) project, http://pccdb.org 
 
 16 16  0  0  0  0  0  0  0  0999 V2000 
    3.4999   -0.2154    1.1201 C   0  0  0  0  0  0  0  0  0  0  0  0 
    2.6145   -0.0714   -0.1288 C   0  0  0  0  0  0  0  0  0  0  0  0 
    3.4809    2.6424   -2.4521 C   0  0  0  0  0  0  0  0  0  0  0  0 
    3.0847    3.4006   -1.1570 C   0  0  0  0  0  0  0  0  0  0  0  0 
    2.9157    1.1669   -0.9157 C   0  0  0  0  0  0  0  0  0  0  0  0 
    3.3219    1.2178   -2.1219 N   0  0  0  0  0  0  0  0  0  0  0  0 
    2.7315    2.3425   -0.2348 O   0  0  0  0  0  0  0  0  0  0  0  0 
    3.2373   -1.1246    1.6709 H   0  0  0  0  0  0  0  0  0  0  0  0 
    3.3746    0.6405    1.7899 H   0  0  0  0  0  0  0  0  0  0  0  0 
    4.5580   -0.2801    0.8438 H   0  0  0  0  0  0  0  0  0  0  0  0 
    1.5594   -0.0402    0.1731 H   0  0  0  0  0  0  0  0  0  0  0  0 
    2.7434   -0.9234   -0.8012 H   0  0  0  0  0  0  0  0  0  0  0  0 
    4.5155    2.8411   -2.7555 H   0  0  0  0  0  0  0  0  0  0  0  0 
    2.8385    2.9002   -3.3024 H   0  0  0  0  0  0  0  0  0  0  0  0 
    2.2144    4.0530   -1.2774 H   0  0  0  0  0  0  0  0  0  0  0  0 
    3.9031    3.9788   -0.7169 H   0  0  0  0  0  0  0  0  0  0  0  0 
  1  8  1  0  0  0  0 
  1  9  1  0  0  0  0 
  2 11  1  0  0  0  0 
  2  1  1  0  0  0  0 
  3  6  1  0  0  0  0 
  3  4  1  0  0  0  0 
  4 16  1  0  0  0  0 
  4  7  1  0  0  0  0 
  5  7  1  0  0  0  0 
  5  2  1  0  0  0  0 
  6  5  2  0  0  0  0 
 10  1  1  0  0  0  0 
 12  2  1  0  0  0  0 
 13  3  1  0  0  0  0 
 14  3  1  0  0  0  0 
 15  4  1  0  0  0  0 
M  END 
>  <HBA> 
2 
 
>  <HBD> 
0 
 
>  <TPSA> 
21.59 
 
>  <cid> 
66412 
 
>  <dipole> 
1.33 
 
>  <excitation_energy_1> 
6.071 
 
>  <excitation_energy_2> 
6.409 
 
>  <excitation_energy_3> 
6.469 
 
>  <excitation_energy_4> 
6.621 
 
>  <homo_energy> 
-6.528 
 
>  <homo_lumo_gap> 
7.336 
 
>  <logP> 
0.261 
 
>  <lumo_energy> 
0.808 
 
>  <melting_point> 
5.59 
 
>  <molecular_refractivity> 
32.13 
 
>  <oscillator_strength_1> 
0.0065 
 
>  <oscillator_strength_2> 
0.0359 
 
>  <oscillator_strength_3> 
0.0079 
 
>  <oscillator_strength_4> 
0.0448 
 
>  <open_babel_can_smiles> 
CCC1=NCCO1 
 
>  <mulliken_charges> 
16 
1   -0.451389 
2   -0.321864 
3   -0.182876 
4   -0.058405 
5   0.523734 
6   -0.44961 
7   -0.486711 
8   0.150117 
9   0.16621 
10   0.15608 
11   0.161115 
12   0.172396 
13   0.155984 
14   0.156091 
15   0.15475 
16   0.154377 
 
>  <lowdin_charges> 
16 
1   -0.43963 
2   -0.274341 
3   -0.218679 
4   -0.143641 
5   0.125278 
6   -0.22909 
7   -0.221657 
8   0.154298 
9   0.159419 
10   0.152669 
11   0.160836 
12   0.169511 
13   0.150918 
14   0.152495 
15   0.150813 
16   0.1508 
 
$$$$ 
 
