PCCDB-ID:  14285 
public computational chemistry database (PCCDB) project, http://pccdb.org 
 
 20 20  0  0  0  0  0  0  0  0999 V2000 
    0.7338    1.3091   -0.3619 C   0  0  0  0  0  0  0  0  0  0  0  0 
    1.5120    0.1101    0.2002 C   0  0  0  0  0  0  0  0  0  0  0  0 
   -0.7037    1.3480    0.1786 C   0  0  0  0  0  0  0  0  0  0  0  0 
    0.7903   -1.2147   -0.0906 C   0  0  0  0  0  0  0  0  0  0  0  0 
   -1.4487    0.0368   -0.1148 C   0  0  0  0  0  0  0  0  0  0  0  0 
   -0.6943   -1.2337    0.3198 C   0  0  0  0  0  0  0  0  0  0  0  0 
   -0.8285   -1.4439    1.8185 N   0  0  0  0  0  0  0  0  0  0  0  0 
   -0.3562   -0.5927    2.5726 O   0  0  0  0  0  0  0  0  0  0  0  0 
   -1.4066   -2.4616    2.1898 O   0  0  0  0  0  0  0  0  0  0  0  0 
    0.7095    1.2467   -1.4608 H   0  0  0  0  0  0  0  0  0  0  0  0 
    1.2533    2.2429   -0.1153 H   0  0  0  0  0  0  0  0  0  0  0  0 
    1.6381    0.2288    1.2813 H   0  0  0  0  0  0  0  0  0  0  0  0 
    2.5169    0.0685   -0.2379 H   0  0  0  0  0  0  0  0  0  0  0  0 
   -1.2589    2.1789   -0.2742 H   0  0  0  0  0  0  0  0  0  0  0  0 
   -0.6848    1.5255    1.2588 H   0  0  0  0  0  0  0  0  0  0  0  0 
    1.3108   -2.0614    0.3727 H   0  0  0  0  0  0  0  0  0  0  0  0 
    0.7994   -1.4005   -1.1738 H   0  0  0  0  0  0  0  0  0  0  0  0 
   -1.5925   -0.0615   -1.1999 H   0  0  0  0  0  0  0  0  0  0  0  0 
   -2.4508    0.0401    0.3308 H   0  0  0  0  0  0  0  0  0  0  0  0 
   -1.1850   -2.1190   -0.0867 H   0  0  0  0  0  0  0  0  0  0  0  0 
  1 11  1  0  0  0  0 
  1  3  1  0  0  0  0 
  1  2  1  0  0  0  0 
  2 12  1  0  0  0  0 
  3 15  1  0  0  0  0 
  4  2  1  0  0  0  0 
  4  6  1  0  0  0  0 
  4 16  1  0  0  0  0 
  5  3  1  0  0  0  0 
  5  6  1  0  0  0  0 
  5 19  1  0  0  0  0 
  6  7  1  0  0  0  0 
  7  9  2  0  0  0  0 
  7  8  2  0  0  0  0 
 10  1  1  0  0  0  0 
 13  2  1  0  0  0  0 
 14  3  1  0  0  0  0 
 17  4  1  0  0  0  0 
 18  5  1  0  0  0  0 
 20  6  1  0  0  0  0 
M  END 
>  <HBA> 
0 
 
>  <HBD> 
0 
 
>  <TPSA> 
45.82 
 
>  <cid> 
14285 
 
>  <dipole> 
3.69 
 
>  <excitation_energy_1> 
4.049 
 
>  <excitation_energy_2> 
4.328 
 
>  <excitation_energy_3> 
5.876 
 
>  <excitation_energy_4> 
5.887 
 
>  <homo_energy> 
-7.72 
 
>  <homo_lumo_gap> 
6.041 
 
>  <logP> 
2.119 
 
>  <lumo_energy> 
-1.679 
 
>  <melting_point> 
26.77 
 
>  <molecular_refractivity> 
36.95 
 
>  <oscillator_strength_1> 
0.0001 
 
>  <oscillator_strength_2> 
0.0003 
 
>  <oscillator_strength_3> 
0.0216 
 
>  <oscillator_strength_4> 
0.0024 
 
>  <open_babel_can_smiles> 
O=N(=O)C1CCCCC1 
 
>  <mulliken_charges> 
20 
1   -0.265422 
2   -0.261302 
3   -0.261058 
4   -0.281672 
5   -0.282016 
6   -0.003663 
7   0.449246 
8   -0.381825 
9   -0.375778 
10   0.125222 
11   0.140476 
12   0.167538 
13   0.136378 
14   0.136401 
15   0.167431 
16   0.159034 
17   0.150087 
18   0.150201 
19   0.159118 
20   0.171604 
 
>  <lowdin_charges> 
20 
1   -0.275397 
2   -0.280621 
3   -0.282619 
4   -0.277445 
5   -0.275796 
6   -0.082587 
7   0.294236 
8   -0.253907 
9   -0.24449 
10   0.132959 
11   0.149564 
12   0.155323 
13   0.146854 
14   0.148612 
15   0.155311 
16   0.15861 
17   0.152534 
18   0.152555 
19   0.156998 
20   0.169306 
 
$$$$ 
 
