PCCDB-ID:  10628 
public computational chemistry database (PCCDB) project, http://pccdb.org 
 
 25 25  0  0  0  0  0  0  0  0999 V2000 
    1.0055    0.3859    0.2066 C   0  0  0  0  0  0  0  0  0  0  0  0 
    3.5381    2.0061   -2.0114 C   0  0  0  0  0  0  0  0  0  0  0  0 
    4.3305    0.2189   -4.6502 C   0  0  0  0  0  0  0  0  0  0  0  0 
    2.7037   -3.0325   -1.2194 C   0  0  0  0  0  0  0  0  0  0  0  0 
    2.4759   -0.0722    0.1716 C   0  0  0  0  0  0  0  0  0  0  0  0 
    3.4410    0.5183   -2.1941 C   0  0  0  0  0  0  0  0  0  0  0  0 
    3.7861   -0.2027   -3.3221 C   0  0  0  0  0  0  0  0  0  0  0  0 
    3.0500   -1.6825   -1.7633 C   0  0  0  0  0  0  0  0  0  0  0  0 
    2.9746   -0.4190   -1.2056 C   0  0  0  0  0  0  0  0  0  0  0  0 
    3.5393   -1.5330   -3.0450 N   0  0  0  0  0  0  0  0  0  0  0  0 
    0.6943    0.6424    1.2269 H   0  0  0  0  0  0  0  0  0  0  0  0 
    0.3424   -0.4039   -0.1640 H   0  0  0  0  0  0  0  0  0  0  0  0 
    0.8509    1.2679   -0.4250 H   0  0  0  0  0  0  0  0  0  0  0  0 
    4.0351    2.4871   -2.8606 H   0  0  0  0  0  0  0  0  0  0  0  0 
    4.1114    2.2681   -1.1120 H   0  0  0  0  0  0  0  0  0  0  0  0 
    2.5518    2.4781   -1.9054 H   0  0  0  0  0  0  0  0  0  0  0  0 
    4.5162    1.2962   -4.6638 H   0  0  0  0  0  0  0  0  0  0  0  0 
    3.6372   -0.0010   -5.4747 H   0  0  0  0  0  0  0  0  0  0  0  0 
    5.2822   -0.2785   -4.8850 H   0  0  0  0  0  0  0  0  0  0  0  0 
    2.4921   -2.9703   -0.1482 H   0  0  0  0  0  0  0  0  0  0  0  0 
    3.5249   -3.7511   -1.3490 H   0  0  0  0  0  0  0  0  0  0  0  0 
    1.8147   -3.4653   -1.7005 H   0  0  0  0  0  0  0  0  0  0  0  0 
    2.5930   -0.9355    0.8397 H   0  0  0  0  0  0  0  0  0  0  0  0 
    3.1034    0.7215    0.6007 H   0  0  0  0  0  0  0  0  0  0  0  0 
    3.7183   -2.2940   -3.6827 H   0  0  0  0  0  0  0  0  0  0  0  0 
  1 11  1  0  0  0  0 
  2 16  1  0  0  0  0 
  2 15  1  0  0  0  0 
  3  7  1  0  0  0  0 
  4 20  1  0  0  0  0 
  5  1  1  0  0  0  0 
  5 24  1  0  0  0  0 
  5 23  1  0  0  0  0 
  6  2  1  0  0  0  0 
  6  9  1  0  0  0  0 
  7 10  1  0  0  0  0 
  7  6  2  0  0  0  0 
  8  4  1  0  0  0  0 
  8  9  2  0  0  0  0 
  9  5  1  0  0  0  0 
 10  8  1  0  0  0  0 
 12  1  1  0  0  0  0 
 13  1  1  0  0  0  0 
 14  2  1  0  0  0  0 
 17  3  1  0  0  0  0 
 18  3  1  0  0  0  0 
 19  3  1  0  0  0  0 
 21  4  1  0  0  0  0 
 22  4  1  0  0  0  0 
 25 10  1  0  0  0  0 
M  END 
>  <HBA> 
0 
 
>  <HBD> 
1 
 
>  <TPSA> 
15.79 
 
>  <cid> 
10628 
 
>  <dipole> 
1.78 
 
>  <excitation_energy_1> 
4.289 
 
>  <excitation_energy_2> 
4.772 
 
>  <excitation_energy_3> 
4.832 
 
>  <excitation_energy_4> 
5.162 
 
>  <homo_energy> 
-4.852 
 
>  <homo_lumo_gap> 
6.267 
 
>  <logP> 
2.502 
 
>  <lumo_energy> 
1.415 
 
>  <melting_point> 
68.28 
 
>  <molecular_refractivity> 
45.46 
 
>  <oscillator_strength_1> 
0.0005 
 
>  <oscillator_strength_2> 
0.0096 
 
>  <oscillator_strength_3> 
0.0022 
 
>  <oscillator_strength_4> 
0.0012 
 
>  <open_babel_can_smiles> 
CCc1c(C)[nH]c(c1C)C 
 
>  <mulliken_charges> 
25 
1   -0.431149 
2   -0.539828 
3   -0.5367 
4   -0.535356 
5   -0.341415 
6   0.05005 
7   0.285722 
8   0.283317 
9   0.045208 
10   -0.668377 
11   0.132984 
12   0.141443 
13   0.146752 
14   0.144409 
15   0.150502 
16   0.151605 
17   0.166271 
18   0.153604 
19   0.150867 
20   0.166827 
21   0.148908 
22   0.155507 
23   0.131413 
24   0.135328 
25   0.312108 
 
>  <lowdin_charges> 
25 
1   -0.443243 
2   -0.440683 
3   -0.444576 
4   -0.445457 
5   -0.269524 
6   -0.071232 
7   -0.010379 
8   -0.009562 
9   -0.073431 
10   -0.199757 
11   0.142569 
12   0.147571 
13   0.148278 
14   0.152433 
15   0.152463 
16   0.150757 
17   0.163628 
18   0.154182 
19   0.152602 
20   0.164063 
21   0.153043 
22   0.154726 
23   0.143306 
24   0.1459 
25   0.282323 
 
$$$$ 
 
