PCCDB-ID:  17766 
public computational chemistry database (PCCDB) project, http://pccdb.org 
 
 36 37  0  0  1  0  0  0  0  0999 V2000 
    4.8512   -3.1993    3.0360 C   0  0  0  0  0  0  0  0  0  0  0  0 
    2.7676   -2.7896    1.9180 C   0  0  0  0  0  0  0  0  0  0  0  0 
    9.1222   -5.2323    0.5425 C   0  0  0  0  0  0  0  0  0  0  0  0 
    7.7254   -5.3195    0.7484 C   0  0  0  0  0  0  0  0  0  0  0  0 
    8.4867   -1.3211   -2.2734 C   0  0  0  0  0  0  0  0  0  0  0  0 
    9.6329   -4.2260   -0.2428 C   0  0  0  0  0  0  0  0  0  0  0  0 
    9.3161   -2.2353   -1.6694 C   0  0  0  0  0  0  0  0  0  0  0  0 
    6.8685   -4.4151    0.1601 C   0  0  0  0  0  0  0  0  0  0  0  0 
    7.0885   -1.4166   -2.1020 C   0  0  0  0  0  0  0  0  0  0  0  0 
    4.4374   -1.3375   -0.2300 C   0  0  0  0  0  0  0  0  0  0  0  0 
    4.7766   -1.5900    1.2432 C   0  0  0  0  0  0  0  0  0  0  0  0 
    4.3445   -2.2985   -2.5030 C   0  0  0  0  0  0  0  0  0  0  0  0 
    8.7807   -3.2731   -0.8637 C   0  0  0  0  0  0  0  0  0  0  0  0 
    4.9881   -2.4359   -1.1865 C   0  0  1  0  0  0  0  0  0  0  0  0 
    7.3578   -3.3663   -0.6715 C   0  0  0  0  0  0  0  0  0  0  0  0 
    6.5153   -2.4079   -1.3269 C   0  0  0  0  0  0  0  0  0  0  0  0 
    3.8159   -2.1668   -3.5288 N   0  0  0  0  0  0  0  0  0  0  0  0 
    4.2193   -2.8396    1.7692 N   0  0  0  0  0  0  0  0  0  0  0  0 
    4.4444   -4.1524    3.3910 H   0  0  0  0  0  0  0  0  0  0  0  0 
    4.6900   -2.4442    3.8294 H   0  0  0  0  0  0  0  0  0  0  0  0 
    5.9291   -3.3222    2.8906 H   0  0  0  0  0  0  0  0  0  0  0  0 
    2.4069   -3.7568    2.2827 H   0  0  0  0  0  0  0  0  0  0  0  0 
    2.2853   -2.6000    0.9550 H   0  0  0  0  0  0  0  0  0  0  0  0 
    2.4354   -2.0083    2.6292 H   0  0  0  0  0  0  0  0  0  0  0  0 
    9.7858   -5.9561    1.0075 H   0  0  0  0  0  0  0  0  0  0  0  0 
    7.3223   -6.1086    1.3775 H   0  0  0  0  0  0  0  0  0  0  0  0 
    8.8966   -0.5315   -2.8967 H   0  0  0  0  0  0  0  0  0  0  0  0 
   10.7051   -4.1423   -0.4042 H   0  0  0  0  0  0  0  0  0  0  0  0 
   10.3938   -2.1806   -1.8034 H   0  0  0  0  0  0  0  0  0  0  0  0 
    5.8068   -4.4890    0.3680 H   0  0  0  0  0  0  0  0  0  0  0  0 
    6.4467   -0.7051   -2.6158 H   0  0  0  0  0  0  0  0  0  0  0  0 
    4.8493   -0.3660   -0.5255 H   0  0  0  0  0  0  0  0  0  0  0  0 
    3.3527   -1.2673   -0.3655 H   0  0  0  0  0  0  0  0  0  0  0  0 
    4.4411   -0.7156    1.8356 H   0  0  0  0  0  0  0  0  0  0  0  0 
    5.8657   -1.6419    1.3521 H   0  0  0  0  0  0  0  0  0  0  0  0 
    4.6646   -3.4002   -0.7846 H   0  0  0  0  0  0  0  0  0  0  0  0 
  1 19  1  0  0  0  0 
  1 20  1  0  0  0  0 
  2 22  1  0  0  0  0 
  2 24  1  0  0  0  0 
  3  4  1  0  0  0  0 
  3 25  1  0  0  0  0 
  4 26  1  0  0  0  0 
  5  9  2  0  0  0  0 
  5  7  1  0  0  0  0 
  6  3  2  0  0  0  0 
  7 13  2  0  0  0  0 
  8 30  1  0  0  0  0 
  8  4  2  0  0  0  0 
  9 16  1  0  0  0  0 
 10 11  1  0  0  0  0 
 11 35  1  0  0  0  0 
 11 18  1  0  0  0  0 
 11 34  1  0  0  0  0 
 12 14  1  0  0  0  0 
 13 15  1  0  0  0  0 
 13  6  1  0  0  0  0 
 14 36  1  1  0  0  0 
 14 10  1  0  0  0  0 
 15  8  1  0  0  0  0 
 16 14  1  0  0  0  0 
 16 15  2  0  0  0  0 
 17 12  3  0  0  0  0 
 18  2  1  0  0  0  0 
 18  1  1  0  0  0  0 
 21  1  1  0  0  0  0 
 23  2  1  0  0  0  0 
 27  5  1  0  0  0  0 
 28  6  1  0  0  0  0 
 29  7  1  0  0  0  0 
 31  9  1  0  0  0  0 
 32 10  1  0  0  0  0 
 33 10  1  0  0  0  0 
M  END 
>  <HBA> 
2 
 
>  <HBD> 
0 
 
>  <TPSA> 
27.03 
 
>  <cid> 
17766 
 
>  <dipole> 
4.73 
 
>  <excitation_energy_1> 
4.221 
 
>  <excitation_energy_2> 
4.253 
 
>  <excitation_energy_3> 
4.398 
 
>  <excitation_energy_4> 
5.048 
 
>  <homo_energy> 
-5.957 
 
>  <homo_lumo_gap> 
4.718 
 
>  <logP> 
3.399 
 
>  <lumo_energy> 
-1.238 
 
>  <melting_point> 
85.71 
 
>  <molecular_refractivity> 
75.59 
 
>  <oscillator_strength_1> 
0.0001 
 
>  <oscillator_strength_2> 
0.0997 
 
>  <oscillator_strength_3> 
0.0002 
 
>  <oscillator_strength_4> 
0.0007 
 
>  <open_babel_can_smiles> 
N#C[C@@H](c1cccc2c1cccc2)CCN(C)C 
 
>  <mulliken_charges> 
36 
1   -0.301676 
2   -0.305419 
3   -0.130448 
4   -0.14277 
5   -0.133497 
6   -0.195128 
7   -0.188567 
8   -0.204812 
9   -0.189577 
10   -0.274538 
11   -0.125382 
12   0.342339 
13   0.137926 
14   -0.237199 
15   0.070819 
16   0.094674 
17   -0.482648 
18   -0.376433 
19   0.148689 
20   0.123233 
21   0.160922 
22   0.154083 
23   0.157197 
24   0.12328 
25   0.132626 
26   0.132126 
27   0.136924 
28   0.132624 
29   0.133255 
30   0.162626 
31   0.147369 
32   0.156735 
33   0.160004 
34   0.121084 
35   0.155522 
36   0.204036 
 
>  <lowdin_charges> 
36 
1   -0.357903 
2   -0.361075 
3   -0.159124 
4   -0.158494 
5   -0.156098 
6   -0.152761 
7   -0.150851 
8   -0.166064 
9   -0.160034 
10   -0.268521 
11   -0.202667 
12   -0.014821 
13   0.002118 
14   -0.126296 
15   -0.008714 
16   -0.006058 
17   -0.138249 
18   -0.187185 
19   0.150292 
20   0.124933 
21   0.153357 
22   0.153473 
23   0.152216 
24   0.125327 
25   0.161358 
26   0.160336 
27   0.163131 
28   0.157104 
29   0.157694 
30   0.167555 
31   0.167615 
32   0.158151 
33   0.153958 
34   0.126951 
35   0.152207 
36   0.187139 
 
$$$$ 
 
