PCCDB-ID:  11168 
public computational chemistry database (PCCDB) project, http://pccdb.org 
 
  7  6  0  0  0  0  0  0  0  0999 V2000 
    1.0194   -0.0150   -0.0553 C   0  0  0  0  0  0  0  0  0  0  0  0 
    3.2922   -1.4932    0.0113 C   0  0  0  0  0  0  0  0  0  0  0  0 
    3.6312   -2.6084    0.0525 N   0  0  0  0  0  0  0  0  0  0  0  0 
    2.8538    0.1501   -0.0489 S   0  0  0  0  0  0  0  0  0  0  0  0 
    0.6366    1.0077   -0.0929 H   0  0  0  0  0  0  0  0  0  0  0  0 
    0.6771   -0.5035    0.8580 H   0  0  0  0  0  0  0  0  0  0  0  0 
    0.6888   -0.5651   -0.9373 H   0  0  0  0  0  0  0  0  0  0  0  0 
  1  4  1  0  0  0  0 
  1  6  1  0  0  0  0 
  2  3  3  0  0  0  0 
  4  2  1  0  0  0  0 
  5  1  1  0  0  0  0 
  7  1  1  0  0  0  0 
M  END 
>  <HBA> 
2 
 
>  <HBD> 
0 
 
>  <TPSA> 
49.09 
 
>  <cid> 
11168 
 
>  <dipole> 
4.05 
 
>  <excitation_energy_1> 
4.922 
 
>  <excitation_energy_2> 
6.169 
 
>  <excitation_energy_3> 
6.763 
 
>  <excitation_energy_4> 
6.869 
 
>  <homo_energy> 
-7.266 
 
>  <homo_lumo_gap> 
6.487 
 
>  <logP> 
0.83 
 
>  <lumo_energy> 
-0.778 
 
>  <melting_point> 
18.96 
 
>  <molecular_refractivity> 
19.07 
 
>  <oscillator_strength_1> 
0.0 
 
>  <oscillator_strength_2> 
0.0021 
 
>  <oscillator_strength_3> 
0.0144 
 
>  <oscillator_strength_4> 
0.0024 
 
>  <open_babel_can_smiles> 
CSC#N 
 
>  <mulliken_charges> 
7 
1   -0.599766 
2   0.123266 
3   -0.377588 
4   0.226041 
5   0.20108 
6   0.213493 
7   0.213474 
 
>  <lowdin_charges> 
7 
1   -0.529535 
2   -0.171523 
3   -0.115356 
4   0.263689 
5   0.184529 
6   0.184008 
7   0.184188 
 
$$$$ 
 
