PCCDB-ID:  18508 
public computational chemistry database (PCCDB) project, http://pccdb.org 
 
 30 30  0  0  0  0  0  0  0  0999 V2000 
    3.5816   -1.1971   -0.4485 C   0  0  0  0  0  0  0  0  0  0  0  0 
    1.5266   -0.0546   -1.2876 C   0  0  0  0  0  0  0  0  0  0  0  0 
    1.6560   -0.8400    1.0842 C   0  0  0  0  0  0  0  0  0  0  0  0 
    2.2509    3.8873   -0.5621 C   0  0  0  0  0  0  0  0  0  0  0  0 
    1.3890    3.0857    0.4219 C   0  0  0  0  0  0  0  0  0  0  0  0 
    3.0627    2.9522   -1.4696 C   0  0  0  0  0  0  0  0  0  0  0  0 
    2.2514    2.1156    1.2455 C   0  0  0  0  0  0  0  0  0  0  0  0 
    3.9036    1.9474   -0.6584 C   0  0  0  0  0  0  0  0  0  0  0  0 
    3.1332    1.1379    0.4216 C   0  0  0  0  0  0  0  0  0  0  0  0 
    2.4608   -0.2011   -0.0690 C   0  0  0  0  0  0  0  0  0  0  0  0 
    3.1521   -2.1577   -0.7579 H   0  0  0  0  0  0  0  0  0  0  0  0 
    4.2467   -1.3894    0.4026 H   0  0  0  0  0  0  0  0  0  0  0  0 
    4.1969   -0.8343   -1.2789 H   0  0  0  0  0  0  0  0  0  0  0  0 
    1.0860   -1.0282   -1.5378 H   0  0  0  0  0  0  0  0  0  0  0  0 
    2.0652    0.2936   -2.1750 H   0  0  0  0  0  0  0  0  0  0  0  0 
    0.6997    0.6372   -1.0985 H   0  0  0  0  0  0  0  0  0  0  0  0 
    1.3501   -1.8580    0.8135 H   0  0  0  0  0  0  0  0  0  0  0  0 
    0.7441   -0.2793    1.3161 H   0  0  0  0  0  0  0  0  0  0  0  0 
    2.2530   -0.9072    2.0025 H   0  0  0  0  0  0  0  0  0  0  0  0 
    2.9397    4.5302    0.0067 H   0  0  0  0  0  0  0  0  0  0  0  0 
    1.6258    4.5571   -1.1667 H   0  0  0  0  0  0  0  0  0  0  0  0 
    0.6138    2.5396   -0.1312 H   0  0  0  0  0  0  0  0  0  0  0  0 
    0.8585    3.7654    1.1019 H   0  0  0  0  0  0  0  0  0  0  0  0 
    3.7328    3.5390   -2.1119 H   0  0  0  0  0  0  0  0  0  0  0  0 
    2.3774    2.4256   -2.1441 H   0  0  0  0  0  0  0  0  0  0  0  0 
    1.6294    1.5703    1.9622 H   0  0  0  0  0  0  0  0  0  0  0  0 
    2.9368    2.7242    1.8545 H   0  0  0  0  0  0  0  0  0  0  0  0 
    4.6861    2.5185   -0.1375 H   0  0  0  0  0  0  0  0  0  0  0  0 
    4.4356    1.2754   -1.3419 H   0  0  0  0  0  0  0  0  0  0  0  0 
    3.8975    0.7825    1.1291 H   0  0  0  0  0  0  0  0  0  0  0  0 
  1 10  1  0  0  0  0 
  1 12  1  0  0  0  0 
  2 16  1  0  0  0  0 
  2 10  1  0  0  0  0 
  3 18  1  0  0  0  0 
  3 19  1  0  0  0  0 
  4 20  1  0  0  0  0 
  4  5  1  0  0  0  0 
  5 23  1  0  0  0  0 
  5  7  1  0  0  0  0 
  6  8  1  0  0  0  0 
  6  4  1  0  0  0  0 
  7 27  1  0  0  0  0 
  7 26  1  0  0  0  0 
  8 28  1  0  0  0  0 
  8  9  1  0  0  0  0 
  9 30  1  0  0  0  0 
  9  7  1  0  0  0  0 
 10  9  1  0  0  0  0 
 10  3  1  0  0  0  0 
 11  1  1  0  0  0  0 
 13  1  1  0  0  0  0 
 14  2  1  0  0  0  0 
 15  2  1  0  0  0  0 
 17  3  1  0  0  0  0 
 21  4  1  0  0  0  0 
 22  5  1  0  0  0  0 
 24  6  1  0  0  0  0 
 25  6  1  0  0  0  0 
 29  8  1  0  0  0  0 
M  END 
>  <HBA> 
0 
 
>  <HBD> 
0 
 
>  <TPSA> 
0.0 
 
>  <cid> 
18508 
 
>  <dipole> 
0.04 
 
>  <excitation_energy_1> 
7.062 
 
>  <excitation_energy_2> 
7.215 
 
>  <excitation_energy_3> 
7.238 
 
>  <excitation_energy_4> 
7.447 
 
>  <homo_energy> 
-7.652 
 
>  <homo_lumo_gap> 
9.557 
 
>  <logP> 
3.613 
 
>  <lumo_energy> 
1.905 
 
>  <melting_point> 
12.05 
 
>  <molecular_refractivity> 
47.81 
 
>  <oscillator_strength_1> 
0.004 
 
>  <oscillator_strength_2> 
0.0024 
 
>  <oscillator_strength_3> 
0.0041 
 
>  <oscillator_strength_4> 
0.0074 
 
>  <open_babel_can_smiles> 
CC(C1CCCCC1)(C)C 
 
>  <mulliken_charges> 
30 
1   -0.449327 
2   -0.454903 
3   -0.451349 
4   -0.254267 
5   -0.259941 
6   -0.259741 
7   -0.278901 
8   -0.279332 
9   -0.066056 
10   0.102422 
11   0.136039 
12   0.136679 
13   0.142065 
14   0.134123 
15   0.144603 
16   0.144685 
17   0.135453 
18   0.142833 
19   0.136905 
20   0.124031 
21   0.126739 
22   0.133124 
23   0.126962 
24   0.126738 
25   0.134105 
26   0.133347 
27   0.124494 
28   0.126081 
29   0.130367 
30   0.112025 
 
>  <lowdin_charges> 
30 
1   -0.445646 
2   -0.448255 
3   -0.443735 
4   -0.280632 
5   -0.283763 
6   -0.285006 
7   -0.286193 
8   -0.285725 
9   -0.132508 
10   0.012861 
11   0.145695 
12   0.145838 
13   0.147022 
14   0.145581 
15   0.148715 
16   0.147376 
17   0.145538 
18   0.14729 
19   0.145842 
20   0.136661 
21   0.142969 
22   0.138809 
23   0.143253 
24   0.143329 
25   0.142101 
26   0.147074 
27   0.140461 
28   0.141639 
29   0.144019 
30   0.13939 
 
$$$$ 
 
