PCCDB-ID:  45951 
public computational chemistry database (PCCDB) project, http://pccdb.org 
 
 44 43  0  0  0  0  0  0  0  0999 V2000 
    1.7812    0.0948   -1.4248 C   0  0  0  0  0  0  0  0  0  0  0  0 
    0.5315   -1.9441   -0.6202 C   0  0  0  0  0  0  0  0  0  0  0  0 
    6.2930    0.7610    0.7677 C   0  0  0  0  0  0  0  0  0  0  0  0 
    6.3107   -0.6333    2.8753 C   0  0  0  0  0  0  0  0  0  0  0  0 
    7.9905   -7.4500   -1.9073 C   0  0  0  0  0  0  0  0  0  0  0  0 
    8.0837   -5.9504   -2.1427 C   0  0  0  0  0  0  0  0  0  0  0  0 
    6.8299   -3.9798   -1.6955 C   0  0  0  0  0  0  0  0  0  0  0  0 
    5.6553   -3.4917   -0.8578 C   0  0  0  0  0  0  0  0  0  0  0  0 
    3.0486   -2.0347   -0.7718 C   0  0  0  0  0  0  0  0  0  0  0  0 
    4.7220   -1.2422    1.0112 C   0  0  0  0  0  0  0  0  0  0  0  0 
    1.8281   -1.1283   -0.4959 C   0  0  0  0  0  0  0  0  0  0  0  0 
    6.1024   -0.6456    1.3536 C   0  0  0  0  0  0  0  0  0  0  0  0 
    4.4296   -1.4141   -0.4892 C   0  0  0  0  0  0  0  0  0  0  0  0 
    6.7523   -7.9624   -2.3690 O   0  0  0  0  0  0  0  0  0  0  0  0 
    7.0066   -5.3600   -1.4277 O   0  0  0  0  0  0  0  0  0  0  0  0 
    5.4823   -2.1212   -1.1693 O   0  0  0  0  0  0  0  0  0  0  0  0 
    0.8899    0.7016   -1.2257 H   0  0  0  0  0  0  0  0  0  0  0  0 
    1.7420   -0.2181   -2.4763 H   0  0  0  0  0  0  0  0  0  0  0  0 
    2.6533    0.7468   -1.3048 H   0  0  0  0  0  0  0  0  0  0  0  0 
   -0.3473   -1.3244   -0.4052 H   0  0  0  0  0  0  0  0  0  0  0  0 
    0.5235   -2.7914    0.0752 H   0  0  0  0  0  0  0  0  0  0  0  0 
    0.4147   -2.3439   -1.6360 H   0  0  0  0  0  0  0  0  0  0  0  0 
    7.2656    1.1764    1.0577 H   0  0  0  0  0  0  0  0  0  0  0  0 
    5.5182    1.4488    1.1329 H   0  0  0  0  0  0  0  0  0  0  0  0 
    6.2533    0.7556   -0.3265 H   0  0  0  0  0  0  0  0  0  0  0  0 
    7.3044   -0.2497    3.1361 H   0  0  0  0  0  0  0  0  0  0  0  0 
    6.2178   -1.6394    3.3019 H   0  0  0  0  0  0  0  0  0  0  0  0 
    5.5681    0.0074    3.3692 H   0  0  0  0  0  0  0  0  0  0  0  0 
    8.1366   -7.6579   -0.8348 H   0  0  0  0  0  0  0  0  0  0  0  0 
    8.7807   -7.9653   -2.4634 H   0  0  0  0  0  0  0  0  0  0  0  0 
    7.9883   -5.7347   -3.2186 H   0  0  0  0  0  0  0  0  0  0  0  0 
    9.0504   -5.5524   -1.7923 H   0  0  0  0  0  0  0  0  0  0  0  0 
    7.7363   -3.4107   -1.4363 H   0  0  0  0  0  0  0  0  0  0  0  0 
    6.6217   -3.8094   -2.7633 H   0  0  0  0  0  0  0  0  0  0  0  0 
    5.8781   -3.6504    0.2075 H   0  0  0  0  0  0  0  0  0  0  0  0 
    4.7648   -4.0862   -1.1062 H   0  0  0  0  0  0  0  0  0  0  0  0 
    3.0295   -2.3345   -1.8294 H   0  0  0  0  0  0  0  0  0  0  0  0 
    2.9354   -2.9558   -0.1831 H   0  0  0  0  0  0  0  0  0  0  0  0 
    3.9425   -0.5938    1.4368 H   0  0  0  0  0  0  0  0  0  0  0  0 
    4.6111   -2.2116    1.5174 H   0  0  0  0  0  0  0  0  0  0  0  0 
    1.8894   -0.7671    0.5409 H   0  0  0  0  0  0  0  0  0  0  0  0 
    6.8671   -1.2973    0.9098 H   0  0  0  0  0  0  0  0  0  0  0  0 
    4.4707   -0.4306   -0.9674 H   0  0  0  0  0  0  0  0  0  0  0  0 
    6.0771   -7.3749   -1.9900 H   0  0  0  0  0  0  0  0  0  0  0  0 
  1 19  1  0  0  0  0 
  1 17  1  0  0  0  0 
  1 11  1  0  0  0  0 
  2 11  1  0  0  0  0 
  2 20  1  0  0  0  0 
  2 21  1  0  0  0  0 
  3 23  1  0  0  0  0 
  3 24  1  0  0  0  0 
  3 12  1  0  0  0  0 
  4 26  1  0  0  0  0 
  4 27  1  0  0  0  0 
  4 28  1  0  0  0  0 
  5 29  1  0  0  0  0 
  6  5  1  0  0  0  0 
  6 32  1  0  0  0  0 
  6 15  1  0  0  0  0 
  7 33  1  0  0  0  0 
  7 15  1  0  0  0  0 
  7  8  1  0  0  0  0 
  8 35  1  0  0  0  0 
  9 11  1  0  0  0  0 
  9 13  1  0  0  0  0 
  9 38  1  0  0  0  0 
 10 12  1  0  0  0  0 
 10 39  1  0  0  0  0 
 10 40  1  0  0  0  0 
 11 41  1  0  0  0  0 
 12  4  1  0  0  0  0 
 13 10  1  0  0  0  0 
 14 44  1  0  0  0  0 
 14  5  1  0  0  0  0 
 16  8  1  0  0  0  0 
 16 13  1  0  0  0  0 
 18  1  1  0  0  0  0 
 22  2  1  0  0  0  0 
 25  3  1  0  0  0  0 
 30  5  1  0  0  0  0 
 31  6  1  0  0  0  0 
 34  7  1  0  0  0  0 
 36  8  1  0  0  0  0 
 37  9  1  0  0  0  0 
 42 12  1  0  0  0  0 
 43 13  1  0  0  0  0 
M  END 
>  <HBA> 
3 
 
>  <HBD> 
1 
 
>  <TPSA> 
38.69 
 
>  <cid> 
45951 
 
>  <dipole> 
2.14 
 
>  <excitation_energy_1> 
6.347 
 
>  <excitation_energy_2> 
6.552 
 
>  <excitation_energy_3> 
6.634 
 
>  <excitation_energy_4> 
6.716 
 
>  <homo_energy> 
-6.797 
 
>  <homo_lumo_gap> 
8.822 
 
>  <logP> 
2.473 
 
>  <lumo_energy> 
2.025 
 
>  <melting_point> 
-30.49 
 
>  <molecular_refractivity> 
67.94 
 
>  <oscillator_strength_1> 
0.0 
 
>  <oscillator_strength_2> 
0.0077 
 
>  <oscillator_strength_3> 
0.0014 
 
>  <oscillator_strength_4> 
0.0023 
 
>  <open_babel_can_smiles> 
OCCOCCOC(CC(C)C)CC(C)C 
 
>  <mulliken_charges> 
44 
1   -0.447883 
2   -0.442124 
3   -0.452029 
4   -0.443378 
5   -0.034697 
6   -0.031367 
7   -0.023194 
8   -0.030333 
9   -0.283147 
10   -0.285723 
11   -0.077933 
12   -0.063136 
13   0.154908 
14   -0.622021 
15   -0.499866 
16   -0.511157 
17   0.142398 
18   0.142713 
19   0.146423 
20   0.141191 
21   0.140956 
22   0.141169 
23   0.140487 
24   0.134107 
25   0.154039 
26   0.140407 
27   0.138238 
28   0.137059 
29   0.129893 
30   0.14488 
31   0.133603 
32   0.122834 
33   0.133595 
34   0.13682 
35   0.13296 
36   0.132684 
37   0.138231 
38   0.129274 
39   0.132836 
40   0.128252 
41   0.127904 
42   0.135454 
43   0.136165 
44   0.398504 
 
>  <lowdin_charges> 
44 
1   -0.446828 
2   -0.443345 
3   -0.446249 
4   -0.444578 
5   -0.138196 
6   -0.145646 
7   -0.129791 
8   -0.136558 
9   -0.290386 
10   -0.295772 
11   -0.119788 
12   -0.121816 
13   -0.000856 
14   -0.47074 
15   -0.283713 
16   -0.278803 
17   0.150224 
18   0.146315 
19   0.148562 
20   0.148948 
21   0.148273 
22   0.145918 
23   0.148905 
24   0.143722 
25   0.150669 
26   0.147568 
27   0.145875 
28   0.145459 
29   0.130035 
30   0.151514 
31   0.133058 
32   0.132257 
33   0.134687 
34   0.134038 
35   0.131165 
36   0.134379 
37   0.146104 
38   0.141111 
39   0.146695 
40   0.140496 
41   0.13536 
42   0.142986 
43   0.144371 
44   0.344371 
 
$$$$ 
 
