PCCDB-ID:  21491 
public computational chemistry database (PCCDB) project, http://pccdb.org 
 
 30 30  0  0  1  0  0  0  0  0999 V2000 
    0.9059   -0.3274   -0.0452 C   0  0  0  0  0  0  0  0  0  0  0  0 
    2.7939    0.4916    1.3598 C   0  0  0  0  0  0  0  0  0  0  0  0 
    4.1963    1.6217   -1.0280 C   0  0  0  0  0  0  0  0  0  0  0  0 
    3.5542   -1.2645   -1.9327 C   0  0  0  0  0  0  0  0  0  0  0  0 
    2.8731    0.0119   -2.4483 C   0  0  0  0  0  0  0  0  0  0  0  0 
    3.1755   -1.3829   -0.4328 C   0  0  1  0  0  0  0  0  0  0  0  0 
    4.4012   -1.6656    0.4380 C   0  0  0  0  0  0  0  0  0  0  0  0 
    1.7244    2.0214   -1.4353 C   0  0  0  0  0  0  0  0  0  0  0  0 
    2.4245   -0.0345   -0.0386 C   0  0  0  0  0  0  0  0  0  0  0  0 
    2.8144    0.9537   -1.2270 C   0  0  2  0  0  0  0  0  0  0  0  0 
    5.5110   -1.2352    0.2304 O   0  0  0  0  0  0  0  0  0  0  0  0 
    4.1838   -2.4350    1.5387 O   0  0  0  0  0  0  0  0  0  0  0  0 
    0.8717    1.9675   -2.2873 O   0  0  0  0  0  0  0  0  0  0  0  0 
    1.7228    3.0705   -0.5652 O   0  0  0  0  0  0  0  0  0  0  0  0 
    0.6696   -1.0794    0.7173 H   0  0  0  0  0  0  0  0  0  0  0  0 
    0.5571   -0.7060   -1.0102 H   0  0  0  0  0  0  0  0  0  0  0  0 
    0.3230    0.5695    0.1880 H   0  0  0  0  0  0  0  0  0  0  0  0 
    2.5044   -0.2281    2.1337 H   0  0  0  0  0  0  0  0  0  0  0  0 
    2.2513    1.4189    1.5786 H   0  0  0  0  0  0  0  0  0  0  0  0 
    3.8645    0.6798    1.4746 H   0  0  0  0  0  0  0  0  0  0  0  0 
    4.4383    2.2442   -1.8964 H   0  0  0  0  0  0  0  0  0  0  0  0 
    4.9795    0.8682   -0.9135 H   0  0  0  0  0  0  0  0  0  0  0  0 
    4.2585    2.2605   -0.1384 H   0  0  0  0  0  0  0  0  0  0  0  0 
    4.6414   -1.1883   -2.0169 H   0  0  0  0  0  0  0  0  0  0  0  0 
    3.2475   -2.1518   -2.4953 H   0  0  0  0  0  0  0  0  0  0  0  0 
    1.8591   -0.1836   -2.8039 H   0  0  0  0  0  0  0  0  0  0  0  0 
    3.4157    0.4668   -3.2836 H   0  0  0  0  0  0  0  0  0  0  0  0 
    2.4659   -2.2076   -0.2901 H   0  0  0  0  0  0  0  0  0  0  0  0 
    3.2598   -2.7327    1.5587 H   0  0  0  0  0  0  0  0  0  0  0  0 
    2.4920    3.0164    0.0241 H   0  0  0  0  0  0  0  0  0  0  0  0 
  1  9  1  0  0  0  0 
  1 17  1  0  0  0  0 
  1 15  1  0  0  0  0 
  2 20  1  0  0  0  0 
  2 19  1  0  0  0  0 
  2 18  1  0  0  0  0 
  3 22  1  0  0  0  0 
  3 23  1  0  0  0  0 
  4  6  1  0  0  0  0 
  5  4  1  0  0  0  0 
  5 10  1  0  0  0  0 
  6 28  1  1  0  0  0 
  6  9  1  0  0  0  0 
  6  7  1  0  0  0  0 
  7 12  1  0  0  0  0 
  8 14  1  0  0  0  0 
  9  2  1  0  0  0  0 
 10  8  1  6  0  0  0 
 10  3  1  0  0  0  0 
 10  9  1  0  0  0  0 
 11  7  2  0  0  0  0 
 12 29  1  0  0  0  0 
 13  8  2  0  0  0  0 
 14 30  1  0  0  0  0 
 16  1  1  0  0  0  0 
 21  3  1  0  0  0  0 
 24  4  1  0  0  0  0 
 25  4  1  0  0  0  0 
 26  5  1  0  0  0  0 
 27  5  1  0  0  0  0 
M  END 
>  <HBA> 
4 
 
>  <HBD> 
2 
 
>  <TPSA> 
74.6 
 
>  <cid> 
21491 
 
>  <dipole> 
2.59 
 
>  <excitation_energy_1> 
5.512 
 
>  <excitation_energy_2> 
5.556 
 
>  <excitation_energy_3> 
6.321 
 
>  <excitation_energy_4> 
6.466 
 
>  <homo_energy> 
-7.298 
 
>  <homo_lumo_gap> 
6.999 
 
>  <logP> 
1.598 
 
>  <lumo_energy> 
-0.299 
 
>  <melting_point> 
185.05 
 
>  <molecular_refractivity> 
51.09 
 
>  <oscillator_strength_1> 
0.0031 
 
>  <oscillator_strength_2> 
0.0013 
 
>  <oscillator_strength_3> 
0.0041 
 
>  <oscillator_strength_4> 
0.0127 
 
>  <open_babel_can_smiles> 
OC(=O)[C@@H]1CC[C@@](C1(C)C)(C)C(=O)O 
 
>  <mulliken_charges> 
30 
1   -0.475063 
2   -0.496151 
3   -0.510018 
4   -0.29613 
5   -0.285703 
6   -0.2159 
7   0.601905 
8   0.614924 
9   0.095624 
10   -0.038619 
11   -0.44593 
12   -0.566078 
13   -0.457256 
14   -0.582105 
15   0.133711 
16   0.168961 
17   0.172986 
18   0.147781 
19   0.144707 
20   0.179584 
21   0.165159 
22   0.206021 
23   0.132163 
24   0.180101 
25   0.148464 
26   0.173285 
27   0.149569 
28   0.129912 
29   0.409661 
30   0.414436 
 
>  <lowdin_charges> 
30 
1   -0.44979 
2   -0.458508 
3   -0.459556 
4   -0.280637 
5   -0.27621 
6   -0.172209 
7   0.196068 
8   0.193395 
9   0.017843 
10   -0.035176 
11   -0.24542 
12   -0.349756 
13   -0.239196 
14   -0.358221 
15   0.145788 
16   0.161015 
17   0.163696 
18   0.15477 
19   0.150941 
20   0.163646 
21   0.161627 
22   0.180206 
23   0.141943 
24   0.163498 
25   0.1543 
26   0.161268 
27   0.155818 
28   0.148989 
29   0.355098 
30   0.354771 
 
$$$$ 
 
