PCCDB-ID:  17589 
public computational chemistry database (PCCDB) project, http://pccdb.org 
 
 10  9  0  0  0  0  0  0  0  0999 V2000 
    0.9132    0.0052    0.0368 C   0  0  0  0  0  0  0  0  0  0  0  0 
    3.1267   -1.0890    0.5171 C   0  0  0  0  0  0  0  0  0  0  0  0 
    2.4196    0.1527    0.1850 C   0  0  0  0  0  0  0  0  0  0  0  0 
    5.5525   -0.9296    0.7732 N   0  0  0  0  0  0  0  0  0  0  0  0 
    4.4273   -1.0392    0.6614 N   0  0  0  0  0  0  0  0  0  0  0  0 
    2.9972    1.2201    0.0374 O   0  0  0  0  0  0  0  0  0  0  0  0 
    0.4666   -0.3945    0.9553 H   0  0  0  0  0  0  0  0  0  0  0  0 
    0.6698   -0.6892   -0.7767 H   0  0  0  0  0  0  0  0  0  0  0  0 
    0.4823    0.9838   -0.1816 H   0  0  0  0  0  0  0  0  0  0  0  0 
    2.6637   -2.0567    0.6560 H   0  0  0  0  0  0  0  0  0  0  0  0 
  1  3  1  0  0  0  0 
  1  7  1  0  0  0  0 
  2 10  1  0  0  0  0 
  2  5  1  0  0  0  0 
  3  2  1  0  0  0  0 
  5  4  1  0  0  0  0 
  6  3  2  0  0  0  0 
  8  1  1  0  0  0  0 
  9  1  1  0  0  0  0 
M  RAD  3   2   2   4   3   5   2 
M  END 
>  <HBA> 
2 
 
>  <HBD> 
0 
 
>  <TPSA> 
51.21 
 
>  <cid> 
17589 
 
>  <dipole> 
3.62 
 
>  <excitation_energy_1> 
3.152 
 
>  <excitation_energy_2> 
4.073 
 
>  <excitation_energy_3> 
4.187 
 
>  <excitation_energy_4> 
5.421 
 
>  <homo_energy> 
-6.664 
 
>  <homo_lumo_gap> 
4.789 
 
>  <logP> 
1.131 
 
>  <lumo_energy> 
-1.875 
 
>  <melting_point> 
25.16 
 
>  <molecular_refractivity> 
19.72 
 
>  <oscillator_strength_1> 
0.0 
 
>  <oscillator_strength_2> 
0.0009 
 
>  <oscillator_strength_3> 
0.0002 
 
>  <oscillator_strength_4> 
0.3256 
 
>  <open_babel_can_smiles> 
CC(=O)[CH][N][N] 
 
>  <mulliken_charges> 
10 
1   -0.536673 
2   -0.164325 
3   0.447408 
4   -0.17761 
5   0.185663 
6   -0.474093 
7   0.170197 
8   0.171901 
9   0.186868 
10   0.190664 
 
>  <lowdin_charges> 
10 
1   -0.471176 
2   -0.299852 
3   0.153821 
4   -0.015709 
5   0.190464 
6   -0.269406 
7   0.169765 
8   0.171183 
9   0.177453 
10   0.193456 
 
$$$$ 
 
