PCCDB-ID:  72971 
public computational chemistry database (PCCDB) project, http://pccdb.org 
 
 28 28  0  0  0  0  0  0  0  0999 V2000 
    1.8207    1.8597   -2.2779 C   0  0  0  0  0  0  0  0  0  0  0  0 
    3.2672    1.7278   -2.7639 C   0  0  0  0  0  0  0  0  0  0  0  0 
    4.1426    0.9100   -1.8058 C   0  0  0  0  0  0  0  0  0  0  0  0 
    9.2866    3.7513   -3.0521 C   0  0  0  0  0  0  0  0  0  0  0  0 
    9.6184    1.3889   -3.4458 C   0  0  0  0  0  0  0  0  0  0  0  0 
    7.9791    3.5093   -2.6692 C   0  0  0  0  0  0  0  0  0  0  0  0 
    8.3033    1.1327   -3.0624 C   0  0  0  0  0  0  0  0  0  0  0  0 
    5.5871    0.7605   -2.2634 C   0  0  0  0  0  0  0  0  0  0  0  0 
   10.1247    2.6937   -3.4465 C   0  0  0  0  0  0  0  0  0  0  0  0 
    7.4753    2.1960   -2.6720 C   0  0  0  0  0  0  0  0  0  0  0  0 
   11.5131    3.0100   -3.8452 C   0  0  0  0  0  0  0  0  0  0  0  0 
   12.2302    1.9112   -4.2104 O   0  0  0  0  0  0  0  0  0  0  0  0 
   12.0032    4.1235   -3.8593 O   0  0  0  0  0  0  0  0  0  0  0  0 
    6.1823    2.0621   -2.2806 O   0  0  0  0  0  0  0  0  0  0  0  0 
    1.2184    2.4483   -2.9787 H   0  0  0  0  0  0  0  0  0  0  0  0 
    1.7746    2.3564   -1.3010 H   0  0  0  0  0  0  0  0  0  0  0  0 
    1.3440    0.8771   -2.1721 H   0  0  0  0  0  0  0  0  0  0  0  0 
    3.7094    2.7227   -2.8914 H   0  0  0  0  0  0  0  0  0  0  0  0 
    3.2799    1.2546   -3.7563 H   0  0  0  0  0  0  0  0  0  0  0  0 
    3.7250   -0.0998   -1.6882 H   0  0  0  0  0  0  0  0  0  0  0  0 
    4.1375    1.3695   -0.8085 H   0  0  0  0  0  0  0  0  0  0  0  0 
    9.6867    4.7598   -3.0544 H   0  0  0  0  0  0  0  0  0  0  0  0 
   10.2577    0.5666   -3.7478 H   0  0  0  0  0  0  0  0  0  0  0  0 
    7.3202    4.3152   -2.3622 H   0  0  0  0  0  0  0  0  0  0  0  0 
    7.9358    0.1135   -3.0677 H   0  0  0  0  0  0  0  0  0  0  0  0 
    5.6349    0.3201   -3.2700 H   0  0  0  0  0  0  0  0  0  0  0  0 
    6.1482    0.1099   -1.5782 H   0  0  0  0  0  0  0  0  0  0  0  0 
   13.1137    2.2483   -4.4467 H   0  0  0  0  0  0  0  0  0  0  0  0 
  1 17  1  0  0  0  0 
  1 16  1  0  0  0  0 
  2  1  1  0  0  0  0 
  2  3  1  0  0  0  0 
  3 20  1  0  0  0  0 
  3 21  1  0  0  0  0 
  4  6  2  0  0  0  0 
  5  7  1  0  0  0  0 
  6 24  1  0  0  0  0 
  7 10  2  0  0  0  0 
  8  3  1  0  0  0  0 
  8 27  1  0  0  0  0 
  9  5  2  0  0  0  0 
  9  4  1  0  0  0  0 
 10  6  1  0  0  0  0 
 10 14  1  0  0  0  0 
 11  9  1  0  0  0  0 
 12 11  1  0  0  0  0 
 13 11  2  0  0  0  0 
 14  8  1  0  0  0  0 
 15  1  1  0  0  0  0 
 18  2  1  0  0  0  0 
 19  2  1  0  0  0  0 
 22  4  1  0  0  0  0 
 23  5  1  0  0  0  0 
 25  7  1  0  0  0  0 
 26  8  1  0  0  0  0 
 28 12  1  0  0  0  0 
M  END 
>  <HBA> 
3 
 
>  <HBD> 
1 
 
>  <TPSA> 
46.53 
 
>  <cid> 
72971 
 
>  <dipole> 
3.63 
 
>  <excitation_energy_1> 
4.87 
 
>  <excitation_energy_2> 
4.9 
 
>  <excitation_energy_3> 
5.003 
 
>  <excitation_energy_4> 
5.782 
 
>  <homo_energy> 
-6.242 
 
>  <homo_lumo_gap> 
5.276 
 
>  <logP> 
2.564 
 
>  <lumo_energy> 
-0.966 
 
>  <melting_point> 
98.76 
 
>  <molecular_refractivity> 
54.31 
 
>  <oscillator_strength_1> 
0.4423 
 
>  <oscillator_strength_2> 
0.0011 
 
>  <oscillator_strength_3> 
0.0001 
 
>  <oscillator_strength_4> 
0.007 
 
>  <open_babel_can_smiles> 
CCCCOc1ccc(cc1)C(=O)O 
 
>  <mulliken_charges> 
28 
1   -0.443291 
2   -0.250014 
3   -0.272072 
4   -0.160425 
5   -0.172107 
6   -0.183666 
7   -0.200313 
8   -0.041036 
9   0.069981 
10   0.394596 
11   0.532098 
12   -0.588699 
13   -0.482637 
14   -0.514878 
15   0.147009 
16   0.145166 
17   0.141064 
18   0.156275 
19   0.130295 
20   0.137087 
21   0.15016 
22   0.164877 
23   0.160916 
24   0.144071 
25   0.139903 
26   0.142102 
27   0.144429 
28   0.409109 
 
>  <lowdin_charges> 
28 
1   -0.444578 
2   -0.273307 
3   -0.27899 
4   -0.119204 
5   -0.126931 
6   -0.184362 
7   -0.215339 
8   -0.127602 
9   -0.068869 
10   0.119169 
11   0.19284 
12   -0.366801 
13   -0.281171 
14   -0.192732 
15   0.153648 
16   0.147904 
17   0.145637 
18   0.15083 
19   0.138823 
20   0.147862 
21   0.150555 
22   0.177651 
23   0.175031 
24   0.170732 
25   0.164741 
26   0.139159 
27   0.144205 
28   0.361098 
 
$$$$ 
 
