PCCDB-ID:  14478 
public computational chemistry database (PCCDB) project, http://pccdb.org 
 
 32 31  0  0  0  0  0  0  0  0999 V2000 
    1.9621   -1.3875    2.5959 C   0  0  0  0  0  0  0  0  0  0  0  0 
    7.1752    1.2746    1.3574 C   0  0  0  0  0  0  0  0  0  0  0  0 
    7.4526   -0.2352    3.3579 C   0  0  0  0  0  0  0  0  0  0  0  0 
    1.7391    1.2167    0.8506 C   0  0  0  0  0  0  0  0  0  0  0  0 
    2.6362    2.4800    2.8097 C   0  0  0  0  0  0  0  0  0  0  0  0 
    2.0435    0.0629    3.0895 C   0  0  0  0  0  0  0  0  0  0  0  0 
    5.1315    0.5502    2.7267 C   0  0  0  0  0  0  0  0  0  0  0  0 
    4.0677    0.7397    1.6344 C   0  0  0  0  0  0  0  0  0  0  0  0 
    6.5286    0.1616    2.1967 C   0  0  0  0  0  0  0  0  0  0  0  0 
    2.6326    1.1083    2.1037 C   0  0  0  0  0  0  0  0  0  0  0  0 
    1.5220   -2.0277    3.3692 H   0  0  0  0  0  0  0  0  0  0  0  0 
    2.9502   -1.7973    2.3577 H   0  0  0  0  0  0  0  0  0  0  0  0 
    1.3387   -1.4829    1.7002 H   0  0  0  0  0  0  0  0  0  0  0  0 
    8.1603    0.9639    0.9893 H   0  0  0  0  0  0  0  0  0  0  0  0 
    7.3180    2.1828    1.9585 H   0  0  0  0  0  0  0  0  0  0  0  0 
    6.5678    1.5427    0.4868 H   0  0  0  0  0  0  0  0  0  0  0  0 
    8.4411   -0.5412    2.9944 H   0  0  0  0  0  0  0  0  0  0  0  0 
    7.0354   -1.0684    3.9364 H   0  0  0  0  0  0  0  0  0  0  0  0 
    7.5993    0.6069    4.0472 H   0  0  0  0  0  0  0  0  0  0  0  0 
    0.7018    1.4482    1.1234 H   0  0  0  0  0  0  0  0  0  0  0  0 
    1.7343    0.2876    0.2696 H   0  0  0  0  0  0  0  0  0  0  0  0 
    2.0952    2.0155    0.1884 H   0  0  0  0  0  0  0  0  0  0  0  0 
    1.6139    2.7904    3.0597 H   0  0  0  0  0  0  0  0  0  0  0  0 
    3.0700    3.2552    2.1656 H   0  0  0  0  0  0  0  0  0  0  0  0 
    3.2093    2.4584    3.7433 H   0  0  0  0  0  0  0  0  0  0  0  0 
    2.6260    0.0867    4.0200 H   0  0  0  0  0  0  0  0  0  0  0  0 
    1.0332    0.3979    3.3657 H   0  0  0  0  0  0  0  0  0  0  0  0 
    4.8024   -0.2337    3.4221 H   0  0  0  0  0  0  0  0  0  0  0  0 
    5.2285    1.4672    3.3257 H   0  0  0  0  0  0  0  0  0  0  0  0 
    4.0167   -0.1803    1.0345 H   0  0  0  0  0  0  0  0  0  0  0  0 
    4.3954    1.5262    0.9412 H   0  0  0  0  0  0  0  0  0  0  0  0 
    6.4061   -0.7213    1.5495 H   0  0  0  0  0  0  0  0  0  0  0  0 
  1  6  1  0  0  0  0 
  1 11  1  0  0  0  0 
  2 15  1  0  0  0  0 
  2  9  1  0  0  0  0 
  3 18  1  0  0  0  0 
  3 19  1  0  0  0  0 
  4 20  1  0  0  0  0 
  4 10  1  0  0  0  0 
  5 23  1  0  0  0  0 
  5 25  1  0  0  0  0 
  6 27  1  0  0  0  0 
  6 26  1  0  0  0  0 
  7 29  1  0  0  0  0 
  7 28  1  0  0  0  0 
  8 10  1  0  0  0  0 
  8  7  1  0  0  0  0 
  9  7  1  0  0  0  0 
  9  3  1  0  0  0  0 
 10  5  1  0  0  0  0 
 10  6  1  0  0  0  0 
 12  1  1  0  0  0  0 
 13  1  1  0  0  0  0 
 14  2  1  0  0  0  0 
 16  2  1  0  0  0  0 
 17  3  1  0  0  0  0 
 21  4  1  0  0  0  0 
 22  4  1  0  0  0  0 
 24  5  1  0  0  0  0 
 30  8  1  0  0  0  0 
 31  8  1  0  0  0  0 
 32  9  1  0  0  0  0 
M  END 
>  <HBA> 
0 
 
>  <HBD> 
0 
 
>  <TPSA> 
0.0 
 
>  <cid> 
14478 
 
>  <dipole> 
0.08 
 
>  <excitation_energy_1> 
7.47 
 
>  <excitation_energy_2> 
7.557 
 
>  <excitation_energy_3> 
7.773 
 
>  <excitation_energy_4> 
7.817 
 
>  <homo_energy> 
-7.954 
 
>  <homo_lumo_gap> 
9.992 
 
>  <logP> 
3.859 
 
>  <lumo_energy> 
2.038 
 
>  <melting_point> 
-10.53 
 
>  <molecular_refractivity> 
49.92 
 
>  <oscillator_strength_1> 
0.0036 
 
>  <oscillator_strength_2> 
0.006 
 
>  <oscillator_strength_3> 
0.0161 
 
>  <oscillator_strength_4> 
0.0711 
 
>  <open_babel_can_smiles> 
CCC(CCC(C)C)(C)C 
 
>  <mulliken_charges> 
32 
1   -0.455674 
2   -0.444645 
3   -0.442225 
4   -0.449281 
5   -0.449393 
6   -0.250062 
7   -0.259503 
8   -0.264117 
9   -0.065808 
10   0.10387 
11   0.141434 
12   0.145694 
13   0.145488 
14   0.138934 
15   0.137046 
16   0.145019 
17   0.13833 
18   0.13831 
19   0.137627 
20   0.135276 
21   0.14054 
22   0.136522 
23   0.1364 
24   0.135439 
25   0.141517 
26   0.130539 
27   0.124734 
28   0.130073 
29   0.127092 
30   0.125669 
31   0.126746 
32   0.11841 
 
>  <lowdin_charges> 
32 
1   -0.450996 
2   -0.447269 
3   -0.445179 
4   -0.443557 
5   -0.444251 
6   -0.274898 
7   -0.281466 
8   -0.280014 
9   -0.119758 
10   0.010827 
11   0.15166 
12   0.146734 
13   0.148129 
14   0.147383 
15   0.144778 
16   0.148889 
17   0.14648 
18   0.147173 
19   0.145381 
20   0.144274 
21   0.146702 
22   0.147307 
23   0.145639 
24   0.146603 
25   0.146696 
26   0.140041 
27   0.13893 
28   0.141656 
29   0.138665 
30   0.138703 
31   0.141002 
32   0.133736 
 
$$$$ 
 
