PCCDB-ID:  16559 
public computational chemistry database (PCCDB) project, http://pccdb.org 
 
 35 37  0  0  0  0  0  0  0  0999 V2000 
   -0.7756    1.4295   -1.1782 C   0  0  0  0  0  0  0  0  0  0  0  0 
    0.4786    1.2202   -0.3167 C   0  0  0  0  0  0  0  0  0  0  0  0 
   -2.0391    0.9441   -0.4542 C   0  0  0  0  0  0  0  0  0  0  0  0 
   -1.1313    0.0840    6.7080 C   0  0  0  0  0  0  0  0  0  0  0  0 
    0.6412   -0.2506    0.1041 C   0  0  0  0  0  0  0  0  0  0  0  0 
   -1.9324   -0.5464   -0.0970 C   0  0  0  0  0  0  0  0  0  0  0  0 
   -0.9872    0.9324    5.4012 C   0  0  0  0  0  0  0  0  0  0  0  0 
   -1.0502   -1.4175    6.2972 C   0  0  0  0  0  0  0  0  0  0  0  0 
   -0.6263   -0.9905    0.6103 C   0  0  0  0  0  0  0  0  0  0  0  0 
   -0.9131   -0.1037    4.3151 C   0  0  0  0  0  0  0  0  0  0  0  0 
   -0.9459   -1.3785    4.7958 C   0  0  0  0  0  0  0  0  0  0  0  0 
   -0.8330    0.1437    2.9029 C   0  0  0  0  0  0  0  0  0  0  0  0 
   -0.8022   -2.2733    2.7309 C   0  0  0  0  0  0  0  0  0  0  0  0 
   -0.8974   -2.4954    4.0160 N   0  0  0  0  0  0  0  0  0  0  0  0 
   -0.7475   -1.0554    2.1107 N   0  0  0  0  0  0  0  0  0  0  0  0 
   -0.8351    1.2476    2.3669 O   0  0  0  0  0  0  0  0  0  0  0  0 
   -0.7544   -3.3515    1.9209 O   0  0  0  0  0  0  0  0  0  0  0  0 
   -0.6660    0.8812   -2.1277 H   0  0  0  0  0  0  0  0  0  0  0  0 
   -0.8750    2.4899   -1.4418 H   0  0  0  0  0  0  0  0  0  0  0  0 
    0.4195    1.8561    0.5681 H   0  0  0  0  0  0  0  0  0  0  0  0 
    1.3729    1.5176   -0.8806 H   0  0  0  0  0  0  0  0  0  0  0  0 
   -2.9190    1.0860   -1.0958 H   0  0  0  0  0  0  0  0  0  0  0  0 
   -2.1923    1.5350    0.4516 H   0  0  0  0  0  0  0  0  0  0  0  0 
   -2.0847    0.2975    7.2001 H   0  0  0  0  0  0  0  0  0  0  0  0 
   -0.3452    0.3350    7.4261 H   0  0  0  0  0  0  0  0  0  0  0  0 
    1.4405   -0.3567    0.8471 H   0  0  0  0  0  0  0  0  0  0  0  0 
    0.9754   -0.8157   -0.7783 H   0  0  0  0  0  0  0  0  0  0  0  0 
   -1.9819   -1.1227   -1.0328 H   0  0  0  0  0  0  0  0  0  0  0  0 
   -2.7914   -0.8715    0.5021 H   0  0  0  0  0  0  0  0  0  0  0  0 
   -0.0892    1.5633    5.4151 H   0  0  0  0  0  0  0  0  0  0  0  0 
   -1.8326    1.6156    5.2537 H   0  0  0  0  0  0  0  0  0  0  0  0 
   -1.9301   -1.9937    6.6096 H   0  0  0  0  0  0  0  0  0  0  0  0 
   -0.1811   -1.9294    6.7305 H   0  0  0  0  0  0  0  0  0  0  0  0 
   -0.4798   -2.0346    0.3497 H   0  0  0  0  0  0  0  0  0  0  0  0 
   -0.7988   -4.1115    2.5303 H   0  0  0  0  0  0  0  0  0  0  0  0 
  1  3  1  0  0  0  0 
  1  2  1  0  0  0  0 
  2  5  1  0  0  0  0 
  2 20  1  0  0  0  0 
  3  6  1  0  0  0  0 
  3 23  1  0  0  0  0 
  4 24  1  0  0  0  0 
  4 25  1  0  0  0  0 
  5  9  1  0  0  0  0 
  5 26  1  0  0  0  0 
  6 29  1  0  0  0  0 
  6  9  1  0  0  0  0 
  7 30  1  0  0  0  0 
  7  4  1  0  0  0  0 
  8 32  1  0  0  0  0 
  8  4  1  0  0  0  0 
  8 33  1  0  0  0  0 
  9 15  1  0  0  0  0 
 10 11  2  0  0  0  0 
 10  7  1  0  0  0  0 
 11  8  1  0  0  0  0 
 12 10  1  0  0  0  0 
 13 14  2  0  0  0  0 
 14 11  1  0  0  0  0 
 15 13  1  0  0  0  0 
 15 12  1  0  0  0  0 
 16 12  2  0  0  0  0 
 17 35  1  0  0  0  0 
 17 13  1  0  0  0  0 
 18  1  1  0  0  0  0 
 19  1  1  0  0  0  0 
 21  2  1  0  0  0  0 
 22  3  1  0  0  0  0 
 27  5  1  0  0  0  0 
 28  6  1  0  0  0  0 
 31  7  1  0  0  0  0 
 34  9  1  0  0  0  0 
M  END 
>  <HBA> 
3 
 
>  <HBD> 
1 
 
>  <TPSA> 
54.86 
 
>  <cid> 
16559 
 
>  <dipole> 
2.62 
 
>  <excitation_energy_1> 
4.782 
 
>  <excitation_energy_2> 
4.958 
 
>  <excitation_energy_3> 
5.242 
 
>  <excitation_energy_4> 
5.681 
 
>  <homo_energy> 
-5.924 
 
>  <homo_lumo_gap> 
5.317 
 
>  <logP> 
1.53 
 
>  <lumo_energy> 
-0.607 
 
>  <melting_point> 
174.49 
 
>  <molecular_refractivity> 
67.13 
 
>  <oscillator_strength_1> 
0.1016 
 
>  <oscillator_strength_2> 
0.0006 
 
>  <oscillator_strength_3> 
0.0 
 
>  <oscillator_strength_4> 
0.146 
 
>  <open_babel_can_smiles> 
Oc1nc2CCCc2c(=O)n1C1CCCCC1 
 
>  <mulliken_charges> 
35 
1   -0.263373 
2   -0.252182 
3   -0.253333 
4   -0.292309 
5   -0.273896 
6   -0.270121 
7   -0.333521 
8   -0.339832 
9   0.016448 
10   0.038545 
11   0.257407 
12   0.577503 
13   0.729312 
14   -0.581764 
15   -0.54871 
16   -0.533907 
17   -0.609336 
18   0.114314 
19   0.130454 
20   0.178623 
21   0.117872 
22   0.119741 
23   0.172495 
24   0.149393 
25   0.147503 
26   0.141997 
27   0.133802 
28   0.13468 
29   0.139726 
30   0.157232 
31   0.159362 
32   0.161614 
33   0.161668 
34   0.183403 
35   0.429187 
 
>  <lowdin_charges> 
35 
1   -0.274214 
2   -0.286437 
3   -0.285127 
4   -0.278833 
5   -0.281151 
6   -0.280779 
7   -0.26638 
8   -0.281633 
9   -0.055265 
10   -0.096808 
11   0.058191 
12   0.159271 
13   0.181621 
14   -0.24252 
15   -0.062769 
16   -0.305702 
17   -0.348964 
18   0.128972 
19   0.143074 
20   0.163385 
21   0.137975 
22   0.138957 
23   0.160503 
24   0.150655 
25   0.151182 
26   0.152277 
27   0.145594 
28   0.145314 
29   0.15059 
30   0.154981 
31   0.156889 
32   0.160545 
33   0.160431 
34   0.171805 
35   0.37437 
 
$$$$ 
 
