PCCDB-ID:  38360 
public computational chemistry database (PCCDB) project, http://pccdb.org 
 
 33 33  0  0  0  0  0  0  0  0999 V2000 
    8.2070   -7.6296    1.8574 C   0  0  0  0  0  0  0  0  0  0  0  0 
    7.1546   -6.8257    1.0869 C   0  0  0  0  0  0  0  0  0  0  0  0 
    6.5487   -5.6817    1.9121 C   0  0  0  0  0  0  0  0  0  0  0  0 
    5.4957   -4.8702    1.1452 C   0  0  0  0  0  0  0  0  0  0  0  0 
    4.8378   -3.7478    1.9650 C   0  0  0  0  0  0  0  0  0  0  0  0 
    8.5121    0.6351    0.0709 C   0  0  0  0  0  0  0  0  0  0  0  0 
    8.5326    0.6275    2.4749 C   0  0  0  0  0  0  0  0  0  0  0  0 
    7.6115   -0.4217    0.0747 C   0  0  0  0  0  0  0  0  0  0  0  0 
    7.6240   -0.4350    2.4856 C   0  0  0  0  0  0  0  0  0  0  0  0 
    5.7795   -2.6154    2.3637 C   0  0  0  0  0  0  0  0  0  0  0  0 
    8.9917    1.1814    1.2746 C   0  0  0  0  0  0  0  0  0  0  0  0 
    7.1572   -0.9701    1.2816 C   0  0  0  0  0  0  0  0  0  0  0  0 
    9.8543    2.2941    1.2665 N   0  0  0  0  0  0  0  0  0  0  0  0 
    6.2732   -2.0137    1.1721 O   0  0  0  0  0  0  0  0  0  0  0  0 
    8.6255   -8.4360    1.2441 H   0  0  0  0  0  0  0  0  0  0  0  0 
    7.7751   -8.0846    2.7572 H   0  0  0  0  0  0  0  0  0  0  0  0 
    9.0383   -6.9891    2.1766 H   0  0  0  0  0  0  0  0  0  0  0  0 
    6.3510   -7.4976    0.7533 H   0  0  0  0  0  0  0  0  0  0  0  0 
    7.6034   -6.4128    0.1727 H   0  0  0  0  0  0  0  0  0  0  0  0 
    7.3603   -5.0205    2.2463 H   0  0  0  0  0  0  0  0  0  0  0  0 
    6.0960   -6.0969    2.8254 H   0  0  0  0  0  0  0  0  0  0  0  0 
    4.7076   -5.5512    0.7948 H   0  0  0  0  0  0  0  0  0  0  0  0 
    5.9494   -4.4343    0.2468 H   0  0  0  0  0  0  0  0  0  0  0  0 
    4.4034   -4.1613    2.8860 H   0  0  0  0  0  0  0  0  0  0  0  0 
    4.0081   -3.3141    1.3925 H   0  0  0  0  0  0  0  0  0  0  0  0 
    8.8477    1.0497   -0.8774 H   0  0  0  0  0  0  0  0  0  0  0  0 
    8.8823    1.0342    3.4216 H   0  0  0  0  0  0  0  0  0  0  0  0 
    7.2460   -0.8433   -0.8568 H   0  0  0  0  0  0  0  0  0  0  0  0 
    7.2957   -0.8341    3.4386 H   0  0  0  0  0  0  0  0  0  0  0  0 
    6.6175   -2.9915    2.9693 H   0  0  0  0  0  0  0  0  0  0  0  0 
    5.2444   -1.8675    2.9679 H   0  0  0  0  0  0  0  0  0  0  0  0 
   10.4335    2.3529    0.4366 H   0  0  0  0  0  0  0  0  0  0  0  0 
   10.4298    2.3685    2.0977 H   0  0  0  0  0  0  0  0  0  0  0  0 
  1 17  1  0  0  0  0 
  1 16  1  0  0  0  0 
  2  1  1  0  0  0  0 
  2  3  1  0  0  0  0 
  3 20  1  0  0  0  0 
  3 21  1  0  0  0  0 
  4  3  1  0  0  0  0 
  4  5  1  0  0  0  0 
  5 10  1  0  0  0  0 
  5 24  1  0  0  0  0 
  6  8  2  0  0  0  0 
  6 11  1  0  0  0  0 
  7  9  1  0  0  0  0 
  7 27  1  0  0  0  0 
  8 12  1  0  0  0  0 
  9 29  1  0  0  0  0 
 10 31  1  0  0  0  0 
 10 30  1  0  0  0  0 
 11  7  2  0  0  0  0 
 12  9  2  0  0  0  0 
 13 11  1  0  0  0  0 
 13 33  1  0  0  0  0 
 14 12  1  0  0  0  0 
 14 10  1  0  0  0  0 
 15  1  1  0  0  0  0 
 18  2  1  0  0  0  0 
 19  2  1  0  0  0  0 
 22  4  1  0  0  0  0 
 23  4  1  0  0  0  0 
 25  5  1  0  0  0  0 
 26  6  1  0  0  0  0 
 28  8  1  0  0  0  0 
 32 13  1  0  0  0  0 
M  END 
>  <HBA> 
2 
 
>  <HBD> 
1 
 
>  <TPSA> 
35.25 
 
>  <cid> 
38360 
 
>  <dipole> 
1.65 
 
>  <excitation_energy_1> 
4.347 
 
>  <excitation_energy_2> 
4.404 
 
>  <excitation_energy_3> 
4.791 
 
>  <excitation_energy_4> 
5.067 
 
>  <homo_energy> 
-4.925 
 
>  <homo_lumo_gap> 
5.127 
 
>  <logP> 
3.809 
 
>  <lumo_energy> 
0.201 
 
>  <melting_point> 
55.26 
 
>  <molecular_refractivity> 
61.37 
 
>  <oscillator_strength_1> 
0.0474 
 
>  <oscillator_strength_2> 
0.0048 
 
>  <oscillator_strength_3> 
0.0031 
 
>  <oscillator_strength_4> 
0.0008 
 
>  <open_babel_can_smiles> 
CCCCCCOc1ccc(cc1)N 
 
>  <mulliken_charges> 
33 
1   -0.441586 
2   -0.24728 
3   -0.251943 
4   -0.254781 
5   -0.281045 
6   -0.173791 
7   -0.183811 
8   -0.182755 
9   -0.199572 
10   -0.031592 
11   0.298336 
12   0.373171 
13   -0.786235 
14   -0.529245 
15   0.14124 
16   0.139934 
17   0.141647 
18   0.129302 
19   0.133552 
20   0.134414 
21   0.122335 
22   0.127608 
23   0.152508 
24   0.131243 
25   0.14627 
26   0.117361 
27   0.115231 
28   0.132487 
29   0.129387 
30   0.135519 
31   0.134555 
32   0.313944 
33   0.31359 
 
>  <lowdin_charges> 
33 
1   -0.446537 
2   -0.27303 
3   -0.279005 
4   -0.279657 
5   -0.282623 
6   -0.188682 
7   -0.193579 
8   -0.173589 
9   -0.204135 
10   -0.131804 
11   0.044041 
12   0.082786 
13   -0.499841 
14   -0.211443 
15   0.149935 
16   0.145984 
17   0.147072 
18   0.139171 
19   0.14093 
20   0.140501 
21   0.135108 
22   0.142107 
23   0.150795 
24   0.145754 
25   0.152502 
26   0.153418 
27   0.152008 
28   0.164488 
29   0.161008 
30   0.134847 
31   0.138243 
32   0.271775 
33   0.271451 
 
$$$$ 
 
