PCCDB-ID:  38934 
public computational chemistry database (PCCDB) project, http://pccdb.org 
 
 22 21  0  0  0  0  0  0  0  0999 V2000 
    4.7493   -1.5699    0.0100 C   0  0  0  0  0  0  0  0  0  0  0  0 
    3.2456   -1.0736    2.0023 C   0  0  0  0  0  0  0  0  0  0  0  0 
    1.2970   -0.1328   -0.6922 C   0  0  0  0  0  0  0  0  0  0  0  0 
    0.7763    1.1085   -1.4382 C   0  0  0  0  0  0  0  0  0  0  0  0 
    3.3112   -1.2981    0.4746 C   0  0  0  0  0  0  0  0  0  0  0  0 
    2.7370   -0.0616   -0.2113 C   0  0  0  0  0  0  0  0  0  0  0  0 
    0.4727    2.3127   -0.5412 C   0  0  0  0  0  0  0  0  0  0  0  0 
    3.4167    0.9496   -0.3439 O   0  0  0  0  0  0  0  0  0  0  0  0 
   -0.6510    2.7021   -0.3258 O   0  0  0  0  0  0  0  0  0  0  0  0 
    1.5436    2.9245    0.0012 O   0  0  0  0  0  0  0  0  0  0  0  0 
    5.1609   -2.4345    0.5414 H   0  0  0  0  0  0  0  0  0  0  0  0 
    5.3844   -0.7020    0.2094 H   0  0  0  0  0  0  0  0  0  0  0  0 
    4.7919   -1.7807   -1.0643 H   0  0  0  0  0  0  0  0  0  0  0  0 
    3.6194   -1.9602    2.5251 H   0  0  0  0  0  0  0  0  0  0  0  0 
    2.2224   -0.8864    2.3474 H   0  0  0  0  0  0  0  0  0  0  0  0 
    3.8642   -0.2167    2.2882 H   0  0  0  0  0  0  0  0  0  0  0  0 
    1.2283   -1.0099   -1.3518 H   0  0  0  0  0  0  0  0  0  0  0  0 
    0.6569   -0.3776    0.1683 H   0  0  0  0  0  0  0  0  0  0  0  0 
   -0.1585    0.8551   -1.9420 H   0  0  0  0  0  0  0  0  0  0  0  0 
    1.5067    1.3989   -2.2037 H   0  0  0  0  0  0  0  0  0  0  0  0 
    2.6761   -2.1584    0.2263 H   0  0  0  0  0  0  0  0  0  0  0  0 
    2.3595    2.4332   -0.2454 H   0  0  0  0  0  0  0  0  0  0  0  0 
  1 12  1  0  0  0  0 
  1  5  1  0  0  0  0 
  1 11  1  0  0  0  0 
  2 16  1  0  0  0  0 
  2 15  1  0  0  0  0 
  2 14  1  0  0  0  0 
  3  6  1  0  0  0  0 
  3 18  1  0  0  0  0 
  4  3  1  0  0  0  0 
  4  7  1  0  0  0  0 
  5  2  1  0  0  0  0 
  6  5  1  0  0  0  0 
  7  9  2  0  0  0  0 
  7 10  1  0  0  0  0 
  8  6  2  0  0  0  0 
 13  1  1  0  0  0  0 
 17  3  1  0  0  0  0 
 19  4  1  0  0  0  0 
 20  4  1  0  0  0  0 
 21  5  1  0  0  0  0 
 22 10  1  0  0  0  0 
M  END 
>  <HBA> 
3 
 
>  <HBD> 
1 
 
>  <TPSA> 
54.37 
 
>  <cid> 
38934 
 
>  <dipole> 
6.15 
 
>  <excitation_energy_1> 
4.452 
 
>  <excitation_energy_2> 
5.089 
 
>  <excitation_energy_3> 
5.543 
 
>  <excitation_energy_4> 
6.148 
 
>  <homo_energy> 
-6.942 
 
>  <homo_lumo_gap> 
5.649 
 
>  <logP> 
1.076 
 
>  <lumo_energy> 
-1.293 
 
>  <melting_point> 
71.32 
 
>  <molecular_refractivity> 
37.73 
 
>  <oscillator_strength_1> 
0.001 
 
>  <oscillator_strength_2> 
0.0033 
 
>  <oscillator_strength_3> 
0.002 
 
>  <oscillator_strength_4> 
0.0005 
 
>  <open_babel_can_smiles> 
CC(C(=O)CCC(=O)O)C 
 
>  <mulliken_charges> 
22 
1   -0.444904 
2   -0.454146 
3   -0.377874 
4   -0.375212 
5   -0.155914 
6   0.476919 
7   0.577482 
8   -0.482584 
9   -0.448821 
10   -0.585696 
11   0.150965 
12   0.17549 
13   0.150039 
14   0.1613 
15   0.155273 
16   0.173578 
17   0.18098 
18   0.193351 
19   0.179201 
20   0.17221 
21   0.139049 
22   0.439317 
 
>  <lowdin_charges> 
22 
1   -0.438441 
2   -0.436901 
3   -0.308985 
4   -0.317617 
5   -0.150948 
6   0.185022 
7   0.185629 
8   -0.253147 
9   -0.254284 
10   -0.367697 
11   0.156353 
12   0.165866 
13   0.152115 
14   0.160821 
15   0.153862 
16   0.16399 
17   0.17508 
18   0.178875 
19   0.176371 
20   0.167706 
21   0.148183 
22   0.358148 
 
$$$$ 
 
