PCCDB-ID:  9257 
public computational chemistry database (PCCDB) project, http://pccdb.org 
 
  8  8  0  0  0  0  0  0  0  0999 V2000 
   -1.1312   -0.0203   -0.0023 C   0  0  0  0  0  0  0  0  0  0  0  0 
    0.8800   -0.6072   -0.0023 C   0  0  0  0  0  0  0  0  0  0  0  0 
   -0.3879   -1.1124   -0.0042 N   0  0  0  0  0  0  0  0  0  0  0  0 
   -0.3401    1.0754    0.0007 N   0  0  0  0  0  0  0  0  0  0  0  0 
    0.9690    0.7151    0.0006 N   0  0  0  0  0  0  0  0  0  0  0  0 
   -2.2119    0.0241   -0.0028 H   0  0  0  0  0  0  0  0  0  0  0  0 
    1.7625   -1.2323   -0.0031 H   0  0  0  0  0  0  0  0  0  0  0  0 
   -0.5908    2.0538    0.0021 H   0  0  0  0  0  0  0  0  0  0  0  0 
  1  4  1  0  0  0  0 
  2  5  1  0  0  0  0 
  3  2  2  0  0  0  0 
  3  1  1  0  0  0  0 
  4  8  1  0  0  0  0 
  5  4  1  0  0  0  0 
  6  1  1  0  0  0  0 
  7  2  1  0  0  0  0 
M  RAD  1   5   2 
M  END 
>  <HBA> 
2 
 
>  <HBD> 
1 
 
>  <TPSA> 
41.57 
 
>  <cid> 
9257 
 
>  <dipole> 
2.87 
 
>  <excitation_energy_1> 
6.235 
 
>  <excitation_energy_2> 
6.62 
 
>  <excitation_energy_3> 
6.987 
 
>  <excitation_energy_4> 
7.059 
 
>  <homo_energy> 
-7.383 
 
>  <homo_lumo_gap> 
7.519 
 
>  <logP> 
-0.195 
 
>  <lumo_energy> 
0.136 
 
>  <melting_point> 
80.6 
 
>  <molecular_refractivity> 
16.38 
 
>  <oscillator_strength_1> 
0.0053 
 
>  <oscillator_strength_2> 
0.0033 
 
>  <oscillator_strength_3> 
0.035 
 
>  <oscillator_strength_4> 
0.0784 
 
>  <open_babel_can_smiles> 
C1N[N]C=N1 
 
>  <mulliken_charges> 
8 
1   0.226064 
2   0.160385 
3   -0.425992 
4   -0.393886 
5   -0.253755 
6   0.1731 
7   0.160557 
8   0.353527 
 
>  <lowdin_charges> 
8 
1   -0.078255 
2   -0.100918 
3   -0.189832 
4   -0.124835 
5   -0.153852 
6   0.175321 
7   0.17208 
8   0.30029 
 
$$$$ 
 
