PCCDB-ID:  42059 
public computational chemistry database (PCCDB) project, http://pccdb.org 
 
 32 32  0  0  0  0  0  0  0  0999 V2000 
    2.0205   -0.9321   -0.9665 C   0  0  0  0  0  0  0  0  0  0  0  0 
    6.7819    0.8126    1.1668 C   0  0  0  0  0  0  0  0  0  0  0  0 
    6.5388   -1.2724   -0.2782 C   0  0  0  0  0  0  0  0  0  0  0  0 
    2.1364    0.1266    0.1336 C   0  0  0  0  0  0  0  0  0  0  0  0 
    0.3302    4.7499   -1.0580 C   0  0  0  0  0  0  0  0  0  0  0  0 
    1.5813    4.9151   -0.4605 C   0  0  0  0  0  0  0  0  0  0  0  0 
   -0.0872    3.4681   -1.4115 C   0  0  0  0  0  0  0  0  0  0  0  0 
    2.4062    3.8206   -0.2117 C   0  0  0  0  0  0  0  0  0  0  0  0 
    0.7370    2.3666   -1.1789 C   0  0  0  0  0  0  0  0  0  0  0  0 
    6.1913    0.1992   -0.0988 C   0  0  0  0  0  0  0  0  0  0  0  0 
    1.9918    2.5292   -0.5740 C   0  0  0  0  0  0  0  0  0  0  0  0 
    4.1697    1.4429   -0.4063 C   0  0  0  0  0  0  0  0  0  0  0  0 
    2.7944    1.3809   -0.2875 N   0  0  0  0  0  0  0  0  0  0  0  0 
    4.8086    2.4085   -0.7868 O   0  0  0  0  0  0  0  0  0  0  0  0 
    4.7377    0.2608   -0.0411 O   0  0  0  0  0  0  0  0  0  0  0  0 
    1.5248   -1.8261   -0.5701 H   0  0  0  0  0  0  0  0  0  0  0  0 
    3.0115   -1.2228   -1.3248 H   0  0  0  0  0  0  0  0  0  0  0  0 
    1.4389   -0.5716   -1.8211 H   0  0  0  0  0  0  0  0  0  0  0  0 
    7.8759    0.7533    1.1396 H   0  0  0  0  0  0  0  0  0  0  0  0 
    6.4300    0.2772    2.0562 H   0  0  0  0  0  0  0  0  0  0  0  0 
    6.4983    1.8651    1.2477 H   0  0  0  0  0  0  0  0  0  0  0  0 
    7.6250   -1.3943   -0.3507 H   0  0  0  0  0  0  0  0  0  0  0  0 
    6.0860   -1.6724   -1.1911 H   0  0  0  0  0  0  0  0  0  0  0  0 
    6.1831   -1.8642    0.5726 H   0  0  0  0  0  0  0  0  0  0  0  0 
    2.6988   -0.2811    0.9766 H   0  0  0  0  0  0  0  0  0  0  0  0 
    1.1477    0.4049    0.5065 H   0  0  0  0  0  0  0  0  0  0  0  0 
   -0.3078    5.6087   -1.2467 H   0  0  0  0  0  0  0  0  0  0  0  0 
    1.9206    5.9070   -0.1740 H   0  0  0  0  0  0  0  0  0  0  0  0 
   -1.0548    3.3168   -1.8828 H   0  0  0  0  0  0  0  0  0  0  0  0 
    3.3733    3.9631    0.2508 H   0  0  0  0  0  0  0  0  0  0  0  0 
    0.4012    1.3803   -1.4798 H   0  0  0  0  0  0  0  0  0  0  0  0 
    6.5080    0.7792   -0.9698 H   0  0  0  0  0  0  0  0  0  0  0  0 
  1 16  1  0  0  0  0 
  1  4  1  0  0  0  0 
  2 21  1  0  0  0  0 
  2 20  1  0  0  0  0 
  3 10  1  0  0  0  0 
  3 24  1  0  0  0  0 
  4 26  1  0  0  0  0 
  4 25  1  0  0  0  0 
  5  6  2  0  0  0  0 
  6  8  1  0  0  0  0 
  6 28  1  0  0  0  0 
  7  9  2  0  0  0  0 
  7  5  1  0  0  0  0 
  8 30  1  0  0  0  0 
  9 11  1  0  0  0  0 
 10 15  1  0  0  0  0 
 10  2  1  0  0  0  0 
 11 13  1  0  0  0  0 
 11  8  2  0  0  0  0 
 12 13  1  0  0  0  0 
 12 15  1  0  0  0  0 
 13  4  1  0  0  0  0 
 14 12  2  0  0  0  0 
 17  1  1  0  0  0  0 
 18  1  1  0  0  0  0 
 19  2  1  0  0  0  0 
 22  3  1  0  0  0  0 
 23  3  1  0  0  0  0 
 27  5  1  0  0  0  0 
 29  7  1  0  0  0  0 
 31  9  1  0  0  0  0 
 32 10  1  0  0  0  0 
M  END 
>  <HBA> 
3 
 
>  <HBD> 
0 
 
>  <TPSA> 
29.54 
 
>  <cid> 
42059 
 
>  <dipole> 
2.43 
 
>  <excitation_energy_1> 
4.932 
 
>  <excitation_energy_2> 
5.16 
 
>  <excitation_energy_3> 
5.451 
 
>  <excitation_energy_4> 
5.789 
 
>  <homo_energy> 
-5.837 
 
>  <homo_lumo_gap> 
5.859 
 
>  <logP> 
3.058 
 
>  <lumo_energy> 
0.022 
 
>  <melting_point> 
32.78 
 
>  <molecular_refractivity> 
61.55 
 
>  <oscillator_strength_1> 
0.0165 
 
>  <oscillator_strength_2> 
0.2504 
 
>  <oscillator_strength_3> 
0.0059 
 
>  <oscillator_strength_4> 
0.0097 
 
>  <open_babel_can_smiles> 
CCN(c1ccccc1)C(=O)OC(C)C 
 
>  <mulliken_charges> 
32 
1   -0.453314 
2   -0.459089 
3   -0.454373 
4   -0.136849 
5   -0.125409 
6   -0.145843 
7   -0.140501 
8   -0.132516 
9   -0.170114 
10   0.140476 
11   0.302828 
12   0.804216 
13   -0.564634 
14   -0.520613 
15   -0.510001 
16   0.145932 
17   0.168463 
18   0.15612 
19   0.146472 
20   0.147 
21   0.174824 
22   0.150104 
23   0.156789 
24   0.152578 
25   0.16968 
26   0.157982 
27   0.126596 
28   0.130901 
29   0.128484 
30   0.156848 
31   0.132101 
32   0.164862 
 
>  <lowdin_charges> 
32 
1   -0.456409 
2   -0.452561 
3   -0.447534 
4   -0.19386 
5   -0.167771 
6   -0.151538 
7   -0.153005 
8   -0.159905 
9   -0.184985 
10   0.016635 
11   0.056654 
12   0.215191 
13   -0.090803 
14   -0.308867 
15   -0.212472 
16   0.154891 
17   0.159859 
18   0.151691 
19   0.154445 
20   0.15217 
21   0.165583 
22   0.155642 
23   0.157802 
24   0.155231 
25   0.162085 
26   0.156816 
27   0.157862 
28   0.158216 
29   0.156856 
30   0.174943 
31   0.159897 
32   0.157241 
 
$$$$ 
 
