PCCDB-ID:  25184 
public computational chemistry database (PCCDB) project, http://pccdb.org 
 
 12 11  0  0  0  0  0  0  0  0999 V2000 
    0.6640    0.4191    0.4535 C   0  0  0  0  0  0  0  0  0  0  0  0 
   -0.7676    0.8223    0.8620 C   0  0  0  0  0  0  0  0  0  0  0  0 
    1.7154    1.1919    1.1183 N   0  0  0  0  0  0  0  0  0  0  0  0 
    2.2426    0.7484    2.3031 N   0  0  0  0  0  0  0  0  0  0  0  0 
   -1.6007    1.1006    0.0365 O   0  0  0  0  0  0  0  0  0  0  0  0 
   -1.0276    0.8080    2.1766 O   0  0  0  0  0  0  0  0  0  0  0  0 
    3.3550    1.1546    2.6042 O   0  0  0  0  0  0  0  0  0  0  0  0 
    1.5242    0.0012    2.9879 O   0  0  0  0  0  0  0  0  0  0  0  0 
    0.7579    0.6084   -0.6159 H   0  0  0  0  0  0  0  0  0  0  0  0 
    0.8119   -0.6516    0.6419 H   0  0  0  0  0  0  0  0  0  0  0  0 
    2.4391    1.6384    0.5673 H   0  0  0  0  0  0  0  0  0  0  0  0 
   -0.2401    0.4951    2.6737 H   0  0  0  0  0  0  0  0  0  0  0  0 
  1 10  1  0  0  0  0 
  1  2  1  0  0  0  0 
  1  3  1  0  0  0  0 
  2  6  1  0  0  0  0 
  3  4  1  0  0  0  0 
  4  7  2  0  0  0  0 
  4  8  2  0  0  0  0 
  5  2  2  0  0  0  0 
  6 12  1  0  0  0  0 
  9  1  1  0  0  0  0 
 11  3  1  0  0  0  0 
M  END 
>  <HBA> 
3 
 
>  <HBD> 
2 
 
>  <TPSA> 
95.15 
 
>  <cid> 
25184 
 
>  <dipole> 
3.75 
 
>  <excitation_energy_1> 
4.5 
 
>  <excitation_energy_2> 
4.715 
 
>  <excitation_energy_3> 
5.493 
 
>  <excitation_energy_4> 
5.518 
 
>  <homo_energy> 
-7.619 
 
>  <homo_lumo_gap> 
5.284 
 
>  <logP> 
-0.234 
 
>  <lumo_energy> 
-2.335 
 
>  <melting_point> 
111.19 
 
>  <molecular_refractivity> 
24.41 
 
>  <oscillator_strength_1> 
0.0225 
 
>  <oscillator_strength_2> 
0.0171 
 
>  <oscillator_strength_3> 
0.0008 
 
>  <oscillator_strength_4> 
0.0018 
 
>  <open_babel_can_smiles> 
OC(=O)CNN(=O)=O 
 
>  <mulliken_charges> 
12 
1   -0.27445 
2   0.611876 
3   -0.380833 
4   0.632707 
5   -0.431438 
6   -0.568174 
7   -0.388214 
8   -0.435241 
9   0.207282 
10   0.213933 
11   0.370258 
12   0.442293 
 
>  <lowdin_charges> 
12 
1   -0.241239 
2   0.188449 
3   -0.225987 
4   0.344885 
5   -0.234346 
6   -0.348328 
7   -0.234515 
8   -0.288511 
9   0.189609 
10   0.181762 
11   0.30812 
12   0.3601 
 
$$$$ 
 
