PCCDB-ID:  11525 
public computational chemistry database (PCCDB) project, http://pccdb.org 
 
 20 20  0  0  0  0  0  0  0  0999 V2000 
    0.8862   -0.0064    0.1238 C   0  0  0  0  0  0  0  0  0  0  0  0 
    2.9832    1.1924   -0.6652 C   0  0  0  0  0  0  0  0  0  0  0  0 
    2.9187   -1.3280   -0.6378 C   0  0  0  0  0  0  0  0  0  0  0  0 
    4.5238    1.1761   -0.7392 C   0  0  0  0  0  0  0  0  0  0  0  0 
    4.4583   -1.3916   -0.7094 C   0  0  0  0  0  0  0  0  0  0  0  0 
    2.4171   -0.0466    0.0518 C   0  0  0  0  0  0  0  0  0  0  0  0 
    5.0500   -0.1289   -1.3234 C   0  0  0  0  0  0  0  0  0  0  0  0 
    5.8798   -0.1605   -2.2123 O   0  0  0  0  0  0  0  0  0  0  0  0 
    0.5361    0.8942    0.6417 H   0  0  0  0  0  0  0  0  0  0  0  0 
    0.4905   -0.8768    0.6602 H   0  0  0  0  0  0  0  0  0  0  0  0 
    0.4450   -0.0054   -0.8812 H   0  0  0  0  0  0  0  0  0  0  0  0 
    2.5728    1.2333   -1.6849 H   0  0  0  0  0  0  0  0  0  0  0  0 
    2.6500    2.1082   -0.1608 H   0  0  0  0  0  0  0  0  0  0  0  0 
    2.5388   -2.2145   -0.1145 H   0  0  0  0  0  0  0  0  0  0  0  0 
    2.5075   -1.3696   -1.6571 H   0  0  0  0  0  0  0  0  0  0  0  0 
    4.9319    1.2734    0.2788 H   0  0  0  0  0  0  0  0  0  0  0  0 
    4.9159    2.0072   -1.3328 H   0  0  0  0  0  0  0  0  0  0  0  0 
    4.8082   -2.2553   -1.2823 H   0  0  0  0  0  0  0  0  0  0  0  0 
    4.8600   -1.4850    0.3116 H   0  0  0  0  0  0  0  0  0  0  0  0 
    2.8077   -0.0455    1.0827 H   0  0  0  0  0  0  0  0  0  0  0  0 
  1  9  1  0  0  0  0 
  1 10  1  0  0  0  0 
  2 13  1  0  0  0  0 
  2  6  1  0  0  0  0 
  3 14  1  0  0  0  0 
  3  6  1  0  0  0  0 
  4  2  1  0  0  0  0 
  4 16  1  0  0  0  0 
  5  3  1  0  0  0  0 
  5 19  1  0  0  0  0 
  6  1  1  0  0  0  0 
  6 20  1  0  0  0  0 
  7  4  1  0  0  0  0 
  7  5  1  0  0  0  0 
  8  7  2  0  0  0  0 
 11  1  1  0  0  0  0 
 12  2  1  0  0  0  0 
 15  3  1  0  0  0  0 
 17  4  1  0  0  0  0 
 18  5  1  0  0  0  0 
M  END 
>  <HBA> 
1 
 
>  <HBD> 
0 
 
>  <TPSA> 
17.07 
 
>  <cid> 
11525 
 
>  <dipole> 
3.11 
 
>  <excitation_energy_1> 
4.189 
 
>  <excitation_energy_2> 
6.104 
 
>  <excitation_energy_3> 
6.41 
 
>  <excitation_energy_4> 
6.531 
 
>  <homo_energy> 
-6.373 
 
>  <homo_lumo_gap> 
6.038 
 
>  <logP> 
1.766 
 
>  <lumo_energy> 
-0.335 
 
>  <melting_point> 
16.74 
 
>  <molecular_refractivity> 
33.85 
 
>  <oscillator_strength_1> 
0.0 
 
>  <oscillator_strength_2> 
0.0096 
 
>  <oscillator_strength_3> 
0.0093 
 
>  <oscillator_strength_4> 
0.0117 
 
>  <open_babel_can_smiles> 
CC1CCC(=O)CC1 
 
>  <mulliken_charges> 
20 
1   -0.446123 
2   -0.267755 
3   -0.267794 
4   -0.34654 
5   -0.346637 
6   -0.076603 
7   0.452563 
8   -0.44608 
9   0.144106 
10   0.14411 
11   0.143554 
12   0.140908 
13   0.139823 
14   0.139851 
15   0.140923 
16   0.152775 
17   0.162772 
18   0.162762 
19   0.152734 
20   0.120652 
 
>  <lowdin_charges> 
20 
1   -0.44348 
2   -0.274495 
3   -0.274765 
4   -0.307939 
5   -0.307677 
6   -0.125974 
7   0.156111 
8   -0.233687 
9   0.150899 
10   0.151127 
11   0.147769 
12   0.143003 
13   0.148532 
14   0.148802 
15   0.14301 
16   0.158365 
17   0.164607 
18   0.164387 
19   0.158289 
20   0.133115 
 
$$$$ 
 
