PCCDB-ID:  48204 
public computational chemistry database (PCCDB) project, http://pccdb.org 
 
 28 27  0  0  0  0  0  0  0  0999 V2000 
    2.6716    1.8532   -0.0113 C   0  0  0  0  0  0  0  0  0  0  0  0 
    3.6012   -2.0503   -2.2886 C   0  0  0  0  0  0  0  0  0  0  0  0 
   -0.4536   -0.0712   -2.1360 C   0  0  0  0  0  0  0  0  0  0  0  0 
    4.3880    0.7570   -4.5112 C   0  0  0  0  0  0  0  0  0  0  0  0 
    2.6809    0.4511   -0.6343 C   0  0  0  0  0  0  0  0  0  0  0  0 
    2.5217   -1.0497   -2.7202 C   0  0  0  0  0  0  0  0  0  0  0  0 
    1.4832    1.2874   -2.7221 C   0  0  0  0  0  0  0  0  0  0  0  0 
    2.6630    0.4004   -2.1877 C   0  0  0  0  0  0  0  0  0  0  0  0 
    0.2361    1.0669   -2.6944 N   0  0  0  0  0  0  0  0  0  0  0  0 
    1.8481    2.4770   -3.2749 O   0  0  0  0  0  0  0  0  0  0  0  0 
    4.3356    1.1005   -2.7129 S   0  0  0  0  0  0  0  0  0  0  0  0 
    2.6540    1.7741    1.0811 H   0  0  0  0  0  0  0  0  0  0  0  0 
    1.7904    2.4251   -0.3198 H   0  0  0  0  0  0  0  0  0  0  0  0 
    3.5623    2.4283   -0.2857 H   0  0  0  0  0  0  0  0  0  0  0  0 
    3.4017   -3.0246   -2.7486 H   0  0  0  0  0  0  0  0  0  0  0  0 
    3.6110   -2.1980   -1.2037 H   0  0  0  0  0  0  0  0  0  0  0  0 
    4.6046   -1.7329   -2.5879 H   0  0  0  0  0  0  0  0  0  0  0  0 
   -1.4322    0.2684   -1.7766 H   0  0  0  0  0  0  0  0  0  0  0  0 
    0.0400   -0.5800   -1.2957 H   0  0  0  0  0  0  0  0  0  0  0  0 
   -0.6511   -0.8228   -2.9133 H   0  0  0  0  0  0  0  0  0  0  0  0 
    5.2708    1.2776   -4.8918 H   0  0  0  0  0  0  0  0  0  0  0  0 
    3.5001    1.1529   -5.0109 H   0  0  0  0  0  0  0  0  0  0  0  0 
    4.4929   -0.3108   -4.7164 H   0  0  0  0  0  0  0  0  0  0  0  0 
    1.8037   -0.1024   -0.2781 H   0  0  0  0  0  0  0  0  0  0  0  0 
    3.5581   -0.1001   -0.2786 H   0  0  0  0  0  0  0  0  0  0  0  0 
    1.5522   -1.4355   -2.3979 H   0  0  0  0  0  0  0  0  0  0  0  0 
    2.4695   -1.0159   -3.8148 H   0  0  0  0  0  0  0  0  0  0  0  0 
    2.8129    2.5845   -3.1403 H   0  0  0  0  0  0  0  0  0  0  0  0 
  1 12  1  0  0  0  0 
  2 16  1  0  0  0  0 
  3 18  1  0  0  0  0 
  3 19  1  0  0  0  0 
  4 11  1  0  0  0  0 
  5 25  1  0  0  0  0 
  5 24  1  0  0  0  0 
  5  1  1  0  0  0  0 
  6 26  1  0  0  0  0 
  6  2  1  0  0  0  0 
  6  8  1  0  0  0  0 
  7  9  2  0  0  0  0 
  7  8  1  0  0  0  0 
  8  5  1  0  0  0  0 
  9  3  1  0  0  0  0 
 10 28  1  0  0  0  0 
 10  7  1  0  0  0  0 
 11  8  1  0  0  0  0 
 13  1  1  0  0  0  0 
 14  1  1  0  0  0  0 
 15  2  1  0  0  0  0 
 17  2  1  0  0  0  0 
 20  3  1  0  0  0  0 
 21  4  1  0  0  0  0 
 22  4  1  0  0  0  0 
 23  4  1  0  0  0  0 
 27  6  1  0  0  0  0 
M  END 
>  <HBA> 
3 
 
>  <HBD> 
1 
 
>  <TPSA> 
54.4 
 
>  <cid> 
48204 
 
>  <dipole> 
3.34 
 
>  <excitation_energy_1> 
5.127 
 
>  <excitation_energy_2> 
5.37 
 
>  <excitation_energy_3> 
5.675 
 
>  <excitation_energy_4> 
5.784 
 
>  <homo_energy> 
-6.076 
 
>  <homo_lumo_gap> 
6.539 
 
>  <logP> 
2.045 
 
>  <lumo_energy> 
0.463 
 
>  <melting_point> 
40.67 
 
>  <molecular_refractivity> 
51.2 
 
>  <oscillator_strength_1> 
0.0011 
 
>  <oscillator_strength_2> 
0.0047 
 
>  <oscillator_strength_3> 
0.0096 
 
>  <oscillator_strength_4> 
0.0077 
 
>  <open_babel_can_smiles> 
C/N=C(\C(SC)(CC)CC)/O 
 
>  <mulliken_charges> 
28 
1   -0.472207 
2   -0.455792 
3   -0.326441 
4   -0.603105 
5   -0.271876 
6   -0.269621 
7   0.488489 
8   -0.16188 
9   -0.410535 
10   -0.589442 
11   0.044684 
12   0.150044 
13   0.175085 
14   0.166263 
15   0.147651 
16   0.152133 
17   0.166163 
18   0.160816 
19   0.1308 
20   0.154236 
21   0.191542 
22   0.199422 
23   0.188069 
24   0.156887 
25   0.161774 
26   0.159448 
27   0.150164 
28   0.417227 
 
>  <lowdin_charges> 
28 
1   -0.452362 
2   -0.447342 
3   -0.36 
4   -0.551685 
5   -0.276074 
6   -0.277923 
7   0.117702 
8   -0.107471 
9   -0.213036 
10   -0.375093 
11   0.091276 
12   0.153827 
13   0.163292 
14   0.158378 
15   0.154111 
16   0.150151 
17   0.157815 
18   0.153951 
19   0.128755 
20   0.151338 
21   0.181846 
22   0.173216 
23   0.165162 
24   0.154072 
25   0.156745 
26   0.161345 
27   0.148606 
28   0.339396 
 
$$$$ 
 
