PCCDB-ID:  14235 
public computational chemistry database (PCCDB) project, http://pccdb.org 
 
 34 33  0  0  0  0  0  0  0  0999 V2000 
    6.3561   -2.7464   -2.1345 C   0  0  0  0  0  0  0  0  0  0  0  0 
    6.8927   -0.0470   -0.7648 C   0  0  0  0  0  0  0  0  0  0  0  0 
    6.8595   -5.9848    0.2190 C   0  0  0  0  0  0  0  0  0  0  0  0 
    8.0024   -3.5036    3.6590 C   0  0  0  0  0  0  0  0  0  0  0  0 
    5.5336   -3.7504    4.0526 C   0  0  0  0  0  0  0  0  0  0  0  0 
    5.4898   -1.9226   -1.5329 C   0  0  0  0  0  0  0  0  0  0  0  0 
    5.0172   -1.9726    1.5873 C   0  0  0  0  0  0  0  0  0  0  0  0 
    4.9514   -0.7436    0.6536 C   0  0  0  0  0  0  0  0  0  0  0  0 
    6.3832   -2.1273    2.2721 C   0  0  0  0  0  0  0  0  0  0  0  0 
    5.8459   -0.8614   -0.5653 C   0  0  0  0  0  0  0  0  0  0  0  0 
    7.2814   -4.7627    1.0081 C   0  0  0  0  0  0  0  0  0  0  0  0 
    6.6151   -3.4634    3.0067 C   0  0  0  0  0  0  0  0  0  0  0  0 
    8.2164   -4.0475    0.7136 O   0  0  0  0  0  0  0  0  0  0  0  0 
    6.4632   -4.5942    2.0686 O   0  0  0  0  0  0  0  0  0  0  0  0 
    6.0227   -3.4890   -2.8549 H   0  0  0  0  0  0  0  0  0  0  0  0 
    7.4189   -2.7180   -1.9106 H   0  0  0  0  0  0  0  0  0  0  0  0 
    7.5051   -0.1157   -1.6592 H   0  0  0  0  0  0  0  0  0  0  0  0 
    7.1606    0.7208   -0.0432 H   0  0  0  0  0  0  0  0  0  0  0  0 
    7.5814   -6.1670   -0.5779 H   0  0  0  0  0  0  0  0  0  0  0  0 
    5.8681   -5.8193   -0.2160 H   0  0  0  0  0  0  0  0  0  0  0  0 
    6.7910   -6.8593    0.8733 H   0  0  0  0  0  0  0  0  0  0  0  0 
    8.0472   -2.7646    4.4671 H   0  0  0  0  0  0  0  0  0  0  0  0 
    8.7894   -3.2837    2.9367 H   0  0  0  0  0  0  0  0  0  0  0  0 
    8.1877   -4.4919    4.0945 H   0  0  0  0  0  0  0  0  0  0  0  0 
    5.5038   -2.9433    4.7927 H   0  0  0  0  0  0  0  0  0  0  0  0 
    5.7464   -4.6893    4.5741 H   0  0  0  0  0  0  0  0  0  0  0  0 
    4.5460   -3.8352    3.5910 H   0  0  0  0  0  0  0  0  0  0  0  0 
    4.4228   -2.0400   -1.7361 H   0  0  0  0  0  0  0  0  0  0  0  0 
    4.7920   -2.8757    1.0067 H   0  0  0  0  0  0  0  0  0  0  0  0 
    4.2227   -1.8793    2.3381 H   0  0  0  0  0  0  0  0  0  0  0  0 
    5.2107    0.1622    1.2161 H   0  0  0  0  0  0  0  0  0  0  0  0 
    3.9100   -0.6188    0.3212 H   0  0  0  0  0  0  0  0  0  0  0  0 
    6.5118   -1.3237    3.0113 H   0  0  0  0  0  0  0  0  0  0  0  0 
    7.1799   -2.0042    1.5339 H   0  0  0  0  0  0  0  0  0  0  0  0 
  1 16  1  0  0  0  0 
  1  6  2  0  0  0  0 
  2 10  2  0  0  0  0 
  2 18  1  0  0  0  0 
  3 21  1  0  0  0  0 
  3 11  1  0  0  0  0 
  4 24  1  0  0  0  0 
  4 22  1  0  0  0  0 
  5 26  1  0  0  0  0 
  5 25  1  0  0  0  0 
  6 10  1  0  0  0  0 
  7  9  1  0  0  0  0 
  7 30  1  0  0  0  0 
  8 31  1  0  0  0  0 
  8  7  1  0  0  0  0 
  9 12  1  0  0  0  0 
  9 33  1  0  0  0  0 
 10  8  1  0  0  0  0 
 11 14  1  0  0  0  0 
 12  4  1  0  0  0  0 
 12  5  1  0  0  0  0 
 13 11  2  0  0  0  0 
 14 12  1  0  0  0  0 
 15  1  1  0  0  0  0 
 17  2  1  0  0  0  0 
 19  3  1  0  0  0  0 
 20  3  1  0  0  0  0 
 23  4  1  0  0  0  0 
 27  5  1  0  0  0  0 
 28  6  1  0  0  0  0 
 29  7  1  0  0  0  0 
 32  8  1  0  0  0  0 
 34  9  1  0  0  0  0 
M  END 
>  <HBA> 
2 
 
>  <HBD> 
0 
 
>  <TPSA> 
26.3 
 
>  <cid> 
14235 
 
>  <dipole> 
2.0 
 
>  <excitation_energy_1> 
5.364 
 
>  <excitation_energy_2> 
5.641 
 
>  <excitation_energy_3> 
5.74 
 
>  <excitation_energy_4> 
5.91 
 
>  <homo_energy> 
-6.21 
 
>  <homo_lumo_gap> 
5.929 
 
>  <logP> 
3.241 
 
>  <lumo_energy> 
-0.28 
 
>  <melting_point> 
-44.86 
 
>  <molecular_refractivity> 
60.17 
 
>  <oscillator_strength_1> 
0.1797 
 
>  <oscillator_strength_2> 
0.0016 
 
>  <oscillator_strength_3> 
0.0034 
 
>  <oscillator_strength_4> 
0.0025 
 
>  <open_babel_can_smiles> 
C=CC(=C)CCCC(OC(=O)C)(C)C 
 
>  <mulliken_charges> 
34 
1   -0.335083 
2   -0.392281 
3   -0.520891 
4   -0.469896 
5   -0.458318 
6   -0.126735 
7   -0.269144 
8   -0.342441 
9   -0.282911 
10   0.204054 
11   0.622345 
12   0.311235 
13   -0.477461 
14   -0.491336 
15   0.13593 
16   0.165168 
17   0.143093 
18   0.133588 
19   0.177215 
20   0.18098 
21   0.174989 
22   0.141249 
23   0.187267 
24   0.145064 
25   0.143889 
26   0.151309 
27   0.15906 
28   0.125799 
29   0.146768 
30   0.132451 
31   0.136725 
32   0.138594 
33   0.126085 
34   0.183639 
 
>  <lowdin_charges> 
34 
1   -0.32614 
2   -0.345325 
3   -0.465565 
4   -0.456854 
5   -0.446423 
6   -0.151045 
7   -0.280059 
8   -0.271135 
9   -0.29579 
10   0.003065 
11   0.205738 
12   0.14192 
13   -0.272183 
14   -0.20274 
15   0.157604 
16   0.16767 
17   0.161061 
18   0.155825 
19   0.173142 
20   0.176538 
21   0.173892 
22   0.154137 
23   0.173032 
24   0.152605 
25   0.15422 
26   0.155937 
27   0.157721 
28   0.149207 
29   0.14735 
30   0.142397 
31   0.146857 
32   0.14752 
33   0.145481 
34   0.170338 
 
$$$$ 
 
