PCCDB-ID:  17542 
public computational chemistry database (PCCDB) project, http://pccdb.org 
 
 31 30  0  0  1  0  0  0  0  0999 V2000 
    0.9096   -1.2234    1.3387 C   0  0  0  0  0  0  0  0  0  0  0  0 
    6.3064    1.4469    1.4088 C   0  0  0  0  0  0  0  0  0  0  0  0 
    2.3362   -0.6680    1.4139 C   0  0  0  0  0  0  0  0  0  0  0  0 
    5.7653    1.7018    2.8194 C   0  0  0  0  0  0  0  0  0  0  0  0 
    2.9730   -0.9107    2.7859 C   0  0  0  0  0  0  0  0  0  0  0  0 
    4.3992    1.0605    3.0998 C   0  0  0  0  0  0  0  0  0  0  0  0 
    5.1105   -1.1520    3.9126 C   0  0  0  0  0  0  0  0  0  0  0  0 
    5.6730   -2.4233    3.2849 C   0  0  2  0  0  0  0  0  0  0  0  0 
    5.8976   -3.3932    5.3242 N   0  0  0  0  0  0  0  0  0  0  0  0 
    6.0517   -3.4761    3.8989 N   0  0  0  0  0  0  0  0  0  0  0  0 
    4.3536   -0.3974    2.9017 N   0  0  0  0  0  0  0  0  0  0  0  0 
    5.7766   -2.3805    1.9366 O   0  0  0  0  0  0  0  0  0  0  0  0 
    0.4741   -1.0568    0.3478 H   0  0  0  0  0  0  0  0  0  0  0  0 
    0.2549   -0.7425    2.0756 H   0  0  0  0  0  0  0  0  0  0  0  0 
    0.8924   -2.3025    1.5328 H   0  0  0  0  0  0  0  0  0  0  0  0 
    7.2297    2.0115    1.2387 H   0  0  0  0  0  0  0  0  0  0  0  0 
    5.5820    1.7523    0.6439 H   0  0  0  0  0  0  0  0  0  0  0  0 
    6.5322    0.3876    1.2511 H   0  0  0  0  0  0  0  0  0  0  0  0 
    2.3194    0.4042    1.1810 H   0  0  0  0  0  0  0  0  0  0  0  0 
    2.9638   -1.1431    0.6490 H   0  0  0  0  0  0  0  0  0  0  0  0 
    5.6490    2.7815    2.9832 H   0  0  0  0  0  0  0  0  0  0  0  0 
    6.5051    1.3715    3.5605 H   0  0  0  0  0  0  0  0  0  0  0  0 
    3.0106   -1.9919    2.9608 H   0  0  0  0  0  0  0  0  0  0  0  0 
    2.3353   -0.4869    3.5836 H   0  0  0  0  0  0  0  0  0  0  0  0 
    3.6702    1.5009    2.4117 H   0  0  0  0  0  0  0  0  0  0  0  0 
    4.0674    1.3264    4.1207 H   0  0  0  0  0  0  0  0  0  0  0  0 
    5.9410   -0.5332    4.2721 H   0  0  0  0  0  0  0  0  0  0  0  0 
    4.5133   -1.4241    4.7952 H   0  0  0  0  0  0  0  0  0  0  0  0 
    6.5973   -2.7473    5.6992 H   0  0  0  0  0  0  0  0  0  0  0  0 
    6.1791   -4.3107    5.6625 H   0  0  0  0  0  0  0  0  0  0  0  0 
    5.3415   -1.5270    1.6989 H   0  0  0  0  0  0  0  0  0  0  0  0 
  1  3  1  0  0  0  0 
  1 15  1  0  0  0  0 
  1 14  1  0  0  0  0 
  2  4  1  0  0  0  0 
  3  5  1  0  0  0  0 
  4 21  1  0  0  0  0 
  4  6  1  0  0  0  0 
  4 22  1  0  0  0  0 
  5 11  1  0  0  0  0 
  5 23  1  0  0  0  0 
  5 24  1  0  0  0  0 
  6 26  1  0  0  0  0 
  7 27  1  0  0  0  0 
  7 28  1  0  0  0  0 
  8 12  1  1  0  0  0 
  8 10  1  0  0  0  0 
  8  7  1  0  0  0  0 
  9 30  1  0  0  0  0 
  9 29  1  0  0  0  0 
 10  9  1  0  0  0  0 
 11  6  1  0  0  0  0 
 11  7  1  0  0  0  0 
 13  1  1  0  0  0  0 
 16  2  1  0  0  0  0 
 17  2  1  0  0  0  0 
 18  2  1  0  0  0  0 
 19  3  1  0  0  0  0 
 20  3  1  0  0  0  0 
 25  6  1  0  0  0  0 
 31 12  1  0  0  0  0 
M  RAD  2   8   2  10   2 
M  END 
>  <HBA> 
4 
 
>  <HBD> 
2 
 
>  <TPSA> 
58.36 
 
>  <cid> 
17542 
 
>  <dipole> 
4.08 
 
>  <excitation_energy_1> 
4.831 
 
>  <excitation_energy_2> 
5.255 
 
>  <excitation_energy_3> 
5.437 
 
>  <excitation_energy_4> 
5.531 
 
>  <homo_energy> 
-5.374 
 
>  <homo_lumo_gap> 
6.373 
 
>  <logP> 
1.19 
 
>  <lumo_energy> 
0.999 
 
>  <melting_point> 
77.56 
 
>  <molecular_refractivity> 
49.18 
 
>  <oscillator_strength_1> 
0.0044 
 
>  <oscillator_strength_2> 
0.0268 
 
>  <oscillator_strength_3> 
0.029 
 
>  <oscillator_strength_4> 
0.0025 
 
>  <open_babel_can_smiles> 
CCCN(C[C]([N]N)O)CCC 
 
>  <mulliken_charges> 
31 
1   -0.44901 
2   -0.441868 
3   -0.260021 
4   -0.270457 
5   -0.124366 
6   -0.1204 
7   -0.230022 
8   0.518415 
9   -0.598932 
10   -0.368389 
11   -0.456393 
12   -0.615939 
13   0.150096 
14   0.145018 
15   0.151962 
16   0.147514 
17   0.142728 
18   0.156028 
19   0.13818 
20   0.147766 
21   0.140951 
22   0.140051 
23   0.163588 
24   0.126821 
25   0.144894 
26   0.123279 
27   0.162673 
28   0.183163 
29   0.297855 
30   0.322109 
31   0.432704 
 
>  <lowdin_charges> 
31 
1   -0.443298 
2   -0.446774 
3   -0.279123 
4   -0.279992 
5   -0.203307 
6   -0.201584 
7   -0.243333 
8   0.087815 
9   -0.473237 
10   -0.179927 
11   -0.193634 
12   -0.377006 
13   0.154112 
14   0.149383 
15   0.149907 
16   0.153127 
17   0.148977 
18   0.150878 
19   0.13949 
20   0.148662 
21   0.147633 
22   0.142099 
23   0.155504 
24   0.13011 
25   0.149528 
26   0.126179 
27   0.161841 
28   0.163864 
29   0.24917 
30   0.26418 
31   0.348757 
 
$$$$ 
 
