PCCDB-ID:  11527 
public computational chemistry database (PCCDB) project, http://pccdb.org 
 
 27 26  0  0  1  0  0  0  0  0999 V2000 
    2.4684    0.6908    1.9734 C   0  0  0  0  0  0  0  0  0  0  0  0 
    8.4418   -1.0116   -1.0332 C   0  0  0  0  0  0  0  0  0  0  0  0 
    3.4241    1.6295    1.2296 C   0  0  0  0  0  0  0  0  0  0  0  0 
    7.0230   -0.4407   -1.1216 C   0  0  0  0  0  0  0  0  0  0  0  0 
    3.9749    1.0276   -0.0693 C   0  0  0  0  0  0  0  0  0  0  0  0 
    4.9226    1.9744   -0.8216 C   0  0  0  0  0  0  0  0  0  0  0  0 
    5.5167    1.4076   -2.1315 C   0  0  0  0  0  0  0  0  0  0  0  0 
    6.9241    0.7948   -2.0274 C   0  0  2  0  0  0  0  0  0  0  0  0 
    7.4295    0.5119   -3.3385 O   0  0  0  0  0  0  0  0  0  0  0  0 
    2.0863    1.1526    2.8909 H   0  0  0  0  0  0  0  0  0  0  0  0 
    2.9697   -0.2435    2.2546 H   0  0  0  0  0  0  0  0  0  0  0  0 
    1.6057    0.4269    1.3492 H   0  0  0  0  0  0  0  0  0  0  0  0 
    8.4691   -1.9102   -0.4069 H   0  0  0  0  0  0  0  0  0  0  0  0 
    9.1321   -0.2790   -0.5970 H   0  0  0  0  0  0  0  0  0  0  0  0 
    8.8199   -1.2680   -2.0270 H   0  0  0  0  0  0  0  0  0  0  0  0 
    4.2629    1.8946    1.8891 H   0  0  0  0  0  0  0  0  0  0  0  0 
    2.9083    2.5732    1.0016 H   0  0  0  0  0  0  0  0  0  0  0  0 
    6.6677   -0.1789   -0.1170 H   0  0  0  0  0  0  0  0  0  0  0  0 
    6.3315   -1.2104   -1.5002 H   0  0  0  0  0  0  0  0  0  0  0  0 
    3.1360    0.7647   -0.7312 H   0  0  0  0  0  0  0  0  0  0  0  0 
    4.4839    0.0815    0.1601 H   0  0  0  0  0  0  0  0  0  0  0  0 
    5.7393    2.2840   -0.1522 H   0  0  0  0  0  0  0  0  0  0  0  0 
    4.3689    2.8942   -1.0519 H   0  0  0  0  0  0  0  0  0  0  0  0 
    5.5897    2.2047   -2.8805 H   0  0  0  0  0  0  0  0  0  0  0  0 
    4.8307    0.6549   -2.5526 H   0  0  0  0  0  0  0  0  0  0  0  0 
    7.6072    1.5642   -1.6426 H   0  0  0  0  0  0  0  0  0  0  0  0 
    6.8334   -0.1435   -3.7371 H   0  0  0  0  0  0  0  0  0  0  0  0 
  1 11  1  0  0  0  0 
  1 10  1  0  0  0  0 
  2 14  1  0  0  0  0 
  2 13  1  0  0  0  0 
  3 16  1  0  0  0  0 
  3  1  1  0  0  0  0 
  4  2  1  0  0  0  0 
  4 18  1  0  0  0  0 
  5 21  1  0  0  0  0 
  5  3  1  0  0  0  0 
  6 22  1  0  0  0  0 
  6  5  1  0  0  0  0 
  7  8  1  0  0  0  0 
  7  6  1  0  0  0  0 
  8 26  1  1  0  0  0 
  8  4  1  0  0  0  0 
  9  8  1  0  0  0  0 
 12  1  1  0  0  0  0 
 15  2  1  0  0  0  0 
 17  3  1  0  0  0  0 
 19  4  1  0  0  0  0 
 20  5  1  0  0  0  0 
 23  6  1  0  0  0  0 
 24  7  1  0  0  0  0 
 25  7  1  0  0  0  0 
 27  9  1  0  0  0  0 
M  END 
>  <HBA> 
1 
 
>  <HBD> 
1 
 
>  <TPSA> 
20.23 
 
>  <cid> 
11527 
 
>  <dipole> 
1.62 
 
>  <excitation_energy_1> 
6.481 
 
>  <excitation_energy_2> 
7.001 
 
>  <excitation_energy_3> 
7.166 
 
>  <excitation_energy_4> 
7.252 
 
>  <homo_energy> 
-7.037 
 
>  <homo_lumo_gap> 
9.132 
 
>  <logP> 
2.338 
 
>  <lumo_energy> 
2.095 
 
>  <melting_point> 
-9.27 
 
>  <molecular_refractivity> 
41.73 
 
>  <oscillator_strength_1> 
0.013 
 
>  <oscillator_strength_2> 
0.0031 
 
>  <oscillator_strength_3> 
0.0007 
 
>  <oscillator_strength_4> 
0.0011 
 
>  <open_babel_can_smiles> 
CCCCC[C@@H](CC)O 
 
>  <mulliken_charges> 
27 
1   -0.442138 
2   -0.438977 
3   -0.247769 
4   -0.268769 
5   -0.254837 
6   -0.265154 
7   -0.279383 
8   0.139175 
9   -0.623564 
10   0.142661 
11   0.141379 
12   0.141465 
13   0.137721 
14   0.141115 
15   0.158722 
16   0.130648 
17   0.131083 
18   0.139408 
19   0.116813 
20   0.12803 
21   0.134578 
22   0.131588 
23   0.134364 
24   0.146426 
25   0.115483 
26   0.129854 
27   0.380076 
 
>  <lowdin_charges> 
27 
1   -0.445291 
2   -0.446946 
3   -0.273611 
4   -0.292815 
5   -0.279407 
6   -0.279661 
7   -0.296835 
8   -0.003081 
9   -0.466218 
10   0.150036 
11   0.146276 
12   0.14686 
13   0.147853 
14   0.148581 
15   0.155301 
16   0.13963 
17   0.139025 
18   0.146527 
19   0.134816 
20   0.138015 
21   0.139093 
22   0.140566 
23   0.144733 
24   0.152965 
25   0.135352 
26   0.14048 
27   0.337755 
 
$$$$ 
 
