PCCDB-ID:  13037 
public computational chemistry database (PCCDB) project, http://pccdb.org 
 
 19 19  0  0  0  0  0  0  0  0999 V2000 
    3.6409    3.3004    1.7254 C   0  0  0  0  0  0  0  0  0  0  0  0 
    3.6702    1.9788    1.5934 C   0  0  0  0  0  0  0  0  0  0  0  0 
    6.5562   -1.4386   -2.9159 C   0  0  0  0  0  0  0  0  0  0  0  0 
    5.9265   -2.3184   -2.0311 C   0  0  0  0  0  0  0  0  0  0  0  0 
    6.4743   -0.0593   -2.7098 C   0  0  0  0  0  0  0  0  0  0  0  0 
    5.2164   -1.8199   -0.9427 C   0  0  0  0  0  0  0  0  0  0  0  0 
    5.7638    0.4450   -1.6223 C   0  0  0  0  0  0  0  0  0  0  0  0 
    5.1315   -0.4359   -0.7328 C   0  0  0  0  0  0  0  0  0  0  0  0 
    4.3589    0.0347    0.4456 C   0  0  0  0  0  0  0  0  0  0  0  0 
    3.7940   -0.6868    1.2396 O   0  0  0  0  0  0  0  0  0  0  0  0 
    4.3563    1.4025    0.5398 O   0  0  0  0  0  0  0  0  0  0  0  0 
    3.1007    3.7466    2.5522 H   0  0  0  0  0  0  0  0  0  0  0  0 
    4.1444    3.9583    1.0245 H   0  0  0  0  0  0  0  0  0  0  0  0 
    3.1909    1.2681    2.2560 H   0  0  0  0  0  0  0  0  0  0  0  0 
    7.1106   -1.8279   -3.7657 H   0  0  0  0  0  0  0  0  0  0  0  0 
    5.9903   -3.3910   -2.1910 H   0  0  0  0  0  0  0  0  0  0  0  0 
    6.9642    0.6241   -3.3977 H   0  0  0  0  0  0  0  0  0  0  0  0 
    4.7199   -2.4838   -0.2428 H   0  0  0  0  0  0  0  0  0  0  0  0 
    5.6961    1.5142   -1.4575 H   0  0  0  0  0  0  0  0  0  0  0  0 
  1 12  1  0  0  0  0 
  2  1  2  0  0  0  0 
  2 14  1  0  0  0  0 
  3  5  2  0  0  0  0 
  3  4  1  0  0  0  0 
  4  6  2  0  0  0  0 
  5  7  1  0  0  0  0 
  6  8  1  0  0  0  0 
  6 18  1  0  0  0  0 
  7 19  1  0  0  0  0 
  7  8  2  0  0  0  0 
  8  9  1  0  0  0  0 
  9 11  1  0  0  0  0 
  9 10  2  0  0  0  0 
 11  2  1  0  0  0  0 
 13  1  1  0  0  0  0 
 15  3  1  0  0  0  0 
 16  4  1  0  0  0  0 
 17  5  1  0  0  0  0 
M  END 
>  <HBA> 
2 
 
>  <HBD> 
0 
 
>  <TPSA> 
26.3 
 
>  <cid> 
13037 
 
>  <dipole> 
2.12 
 
>  <excitation_energy_1> 
4.642 
 
>  <excitation_energy_2> 
4.822 
 
>  <excitation_energy_3> 
4.873 
 
>  <excitation_energy_4> 
5.345 
 
>  <homo_energy> 
-6.721 
 
>  <homo_lumo_gap> 
5.244 
 
>  <logP> 
1.987 
 
>  <lumo_energy> 
-1.478 
 
>  <melting_point> 
8.0 
 
>  <molecular_refractivity> 
42.05 
 
>  <oscillator_strength_1> 
0.2071 
 
>  <oscillator_strength_2> 
0.0568 
 
>  <oscillator_strength_3> 
0.0001 
 
>  <oscillator_strength_4> 
0.1842 
 
>  <open_babel_can_smiles> 
C=COC(=O)c1ccccc1 
 
>  <mulliken_charges> 
19 
1   -0.392943 
2   0.163681 
3   -0.115231 
4   -0.138639 
5   -0.137144 
6   -0.147552 
7   -0.153772 
8   0.033387 
9   0.604515 
10   -0.479214 
11   -0.47551 
12   0.155612 
13   0.154092 
14   0.184683 
15   0.139611 
16   0.140642 
17   0.139187 
18   0.165531 
19   0.159064 
 
>  <lowdin_charges> 
19 
1   -0.364584 
2   -0.036648 
3   -0.137254 
4   -0.15318 
5   -0.157528 
6   -0.129474 
7   -0.135105 
8   -0.047607 
9   0.209858 
10   -0.25785 
11   -0.151447 
12   0.174218 
13   0.170154 
14   0.177391 
15   0.163101 
16   0.161292 
17   0.163782 
18   0.179323 
19   0.171558 
 
$$$$ 
 
