PCCDB-ID:  62348 
public computational chemistry database (PCCDB) project, http://pccdb.org 
 
 21 21  0  0  0  0  0  0  0  0999 V2000 
    1.4182   -1.2447   -0.5997 C   0  0  0  0  0  0  0  0  0  0  0  0 
    4.8003   -3.4426    2.3782 C   0  0  0  0  0  0  0  0  0  0  0  0 
    3.7779   -4.1105    1.7048 C   0  0  0  0  0  0  0  0  0  0  0  0 
    4.4438   -1.5172    0.9832 C   0  0  0  0  0  0  0  0  0  0  0  0 
    6.2461   -1.3993    2.7642 C   0  0  0  0  0  0  0  0  0  0  0  0 
    5.1490   -2.1366    2.0213 C   0  0  0  0  0  0  0  0  0  0  0  0 
    3.0821   -3.4892    0.6655 C   0  0  0  0  0  0  0  0  0  0  0  0 
    3.4143   -2.1685    0.3055 C   0  0  0  0  0  0  0  0  0  0  0  0 
    7.3211   -2.2406    3.1693 O   0  0  0  0  0  0  0  0  0  0  0  0 
    2.0892   -4.1157   -0.0414 O   0  0  0  0  0  0  0  0  0  0  0  0 
    2.8117   -1.5284   -0.7498 O   0  0  0  0  0  0  0  0  0  0  0  0 
    1.1285   -0.6863   -1.4927 H   0  0  0  0  0  0  0  0  0  0  0  0 
    1.2403   -0.6243    0.2891 H   0  0  0  0  0  0  0  0  0  0  0  0 
    0.8251   -2.1615   -0.5311 H   0  0  0  0  0  0  0  0  0  0  0  0 
    5.3413   -3.9391    3.1778 H   0  0  0  0  0  0  0  0  0  0  0  0 
    3.5209   -5.1329    1.9794 H   0  0  0  0  0  0  0  0  0  0  0  0 
    4.6898   -0.5067    0.6665 H   0  0  0  0  0  0  0  0  0  0  0  0 
    5.8614   -0.9727    3.6985 H   0  0  0  0  0  0  0  0  0  0  0  0 
    6.6044   -0.5558    2.1524 H   0  0  0  0  0  0  0  0  0  0  0  0 
    7.6608   -2.6726    2.3692 H   0  0  0  0  0  0  0  0  0  0  0  0 
    1.9852   -5.0155    0.3053 H   0  0  0  0  0  0  0  0  0  0  0  0 
  1 14  1  0  0  0  0 
  1 13  1  0  0  0  0 
  2 15  1  0  0  0  0 
  3 16  1  0  0  0  0 
  3  2  2  0  0  0  0 
  4  6  2  0  0  0  0 
  5  9  1  0  0  0  0 
  5 18  1  0  0  0  0 
  6  2  1  0  0  0  0 
  6  5  1  0  0  0  0 
  7  3  1  0  0  0  0 
  8  7  2  0  0  0  0 
  8  4  1  0  0  0  0 
 10 21  1  0  0  0  0 
 10  7  1  0  0  0  0 
 11  1  1  0  0  0  0 
 11  8  1  0  0  0  0 
 12  1  1  0  0  0  0 
 17  4  1  0  0  0  0 
 19  5  1  0  0  0  0 
 20  9  1  0  0  0  0 
M  END 
>  <HBA> 
3 
 
>  <HBD> 
2 
 
>  <TPSA> 
49.69 
 
>  <cid> 
62348 
 
>  <dipole> 
1.93 
 
>  <excitation_energy_1> 
4.878 
 
>  <excitation_energy_2> 
5.038 
 
>  <excitation_energy_3> 
5.382 
 
>  <excitation_energy_4> 
5.724 
 
>  <homo_energy> 
-5.807 
 
>  <homo_lumo_gap> 
5.818 
 
>  <logP> 
0.893 
 
>  <lumo_energy> 
0.011 
 
>  <melting_point> 
72.85 
 
>  <molecular_refractivity> 
41.08 
 
>  <oscillator_strength_1> 
0.0403 
 
>  <oscillator_strength_2> 
0.0017 
 
>  <oscillator_strength_3> 
0.0545 
 
>  <oscillator_strength_4> 
0.0299 
 
>  <open_babel_can_smiles> 
COc1cc(CO)ccc1O 
 
>  <mulliken_charges> 
21 
1   -0.214094 
2   -0.179749 
3   -0.199347 
4   -0.238926 
5   -0.092831 
6   0.100146 
7   0.313924 
8   0.335396 
9   -0.610337 
10   -0.641995 
11   -0.521644 
12   0.158696 
13   0.13841 
14   0.168946 
15   0.142515 
16   0.120327 
17   0.131632 
18   0.16145 
19   0.130084 
20   0.387792 
21   0.409604 
 
>  <lowdin_charges> 
21 
1   -0.2764 
2   -0.164664 
3   -0.206383 
4   -0.178012 
5   -0.132042 
6   -0.047034 
7   0.07604 
8   0.068459 
9   -0.463467 
10   -0.37493 
11   -0.223854 
12   0.156819 
13   0.138725 
14   0.153111 
15   0.167085 
16   0.152517 
17   0.163627 
18   0.156045 
19   0.13363 
20   0.342113 
21   0.358614 
 
$$$$ 
 
