PCCDB-ID:  59000 
public computational chemistry database (PCCDB) project, http://pccdb.org 
 
 32 33  0  0  1  0  0  0  0  0999 V2000 
    2.5458    0.7006    1.2373 C   0  0  0  0  0  0  0  0  0  0  0  0 
    5.4791   -2.5657   -6.1543 C   0  0  0  0  0  0  0  0  0  0  0  0 
    4.6018    0.0998   -5.1116 C   0  0  0  0  0  0  0  0  0  0  0  0 
    4.2152    1.3543   -4.6632 C   0  0  0  0  0  0  0  0  0  0  0  0 
    3.9590   -0.9369   -3.0000 C   0  0  0  0  0  0  0  0  0  0  0  0 
    1.3831   -0.9176   -0.3416 C   0  0  0  0  0  0  0  0  0  0  0  0 
    2.8316    2.1236   -1.3988 C   0  0  0  0  0  0  0  0  0  0  0  0 
    2.6642   -0.0927   -0.0709 C   0  0  1  0  0  0  0  0  0  0  0  0 
    4.8923   -2.4098   -4.7579 C   0  0  0  0  0  0  0  0  0  0  0  0 
    4.4808   -1.0517   -4.2930 C   0  0  0  0  0  0  0  0  0  0  0  0 
    3.5572    0.3122   -2.5188 C   0  0  0  0  0  0  0  0  0  0  0  0 
    3.0006    0.7699   -1.2626 C   0  0  0  0  0  0  0  0  0  0  0  0 
    3.6944    1.4491   -3.3672 C   0  0  0  0  0  0  0  0  0  0  0  0 
    1.1636   -1.9124    0.7162 N   0  0  0  0  0  0  0  0  0  0  0  0 
    3.2422    2.5355   -2.6597 N   0  0  0  0  0  0  0  0  0  0  0  0 
    4.7655   -3.3908   -4.0364 O   0  0  0  0  0  0  0  0  0  0  0  0 
    2.2975    0.0246    2.0589 H   0  0  0  0  0  0  0  0  0  0  0  0 
    1.7448    1.4483    1.1726 H   0  0  0  0  0  0  0  0  0  0  0  0 
    3.4799    1.2231    1.4714 H   0  0  0  0  0  0  0  0  0  0  0  0 
    4.7702   -2.2327   -6.9218 H   0  0  0  0  0  0  0  0  0  0  0  0 
    5.7167   -3.6186   -6.3158 H   0  0  0  0  0  0  0  0  0  0  0  0 
    6.3908   -1.9672   -6.2709 H   0  0  0  0  0  0  0  0  0  0  0  0 
    5.0066    0.0072   -6.1140 H   0  0  0  0  0  0  0  0  0  0  0  0 
    4.3138    2.2304   -5.2986 H   0  0  0  0  0  0  0  0  0  0  0  0 
    3.8827   -1.8369   -2.3980 H   0  0  0  0  0  0  0  0  0  0  0  0 
    1.4454   -1.3521   -1.3534 H   0  0  0  0  0  0  0  0  0  0  0  0 
    0.5241   -0.2343   -0.3458 H   0  0  0  0  0  0  0  0  0  0  0  0 
    2.4517    2.8485   -0.6932 H   0  0  0  0  0  0  0  0  0  0  0  0 
    3.4859   -0.8170    0.0505 H   0  0  0  0  0  0  0  0  0  0  0  0 
    1.8524   -2.6592    0.6263 H   0  0  0  0  0  0  0  0  0  0  0  0 
    0.2555   -2.3553    0.5871 H   0  0  0  0  0  0  0  0  0  0  0  0 
    3.2308    3.4875   -2.9910 H   0  0  0  0  0  0  0  0  0  0  0  0 
  1 19  1  0  0  0  0 
  1 17  1  0  0  0  0 
  2  9  1  0  0  0  0 
  3  4  2  0  0  0  0 
  3 10  1  0  0  0  0 
  4 13  1  0  0  0  0 
  5 11  1  0  0  0  0 
  5 25  1  0  0  0  0 
  6  8  1  0  0  0  0 
  6 14  1  0  0  0  0 
  7 12  2  0  0  0  0 
  7 28  1  0  0  0  0 
  8 29  1  1  0  0  0 
  8  1  1  0  0  0  0 
  9 10  1  0  0  0  0 
  9 16  2  0  0  0  0 
 10  5  2  0  0  0  0 
 11 12  1  0  0  0  0 
 12  8  1  0  0  0  0 
 13 15  1  0  0  0  0 
 13 11  2  0  0  0  0 
 15  7  1  0  0  0  0 
 18  1  1  0  0  0  0 
 20  2  1  0  0  0  0 
 21  2  1  0  0  0  0 
 22  2  1  0  0  0  0 
 23  3  1  0  0  0  0 
 24  4  1  0  0  0  0 
 26  6  1  0  0  0  0 
 27  6  1  0  0  0  0 
 30 14  1  0  0  0  0 
 31 14  1  0  0  0  0 
 32 15  1  0  0  0  0 
M  END 
>  <HBA> 
2 
 
>  <HBD> 
2 
 
>  <TPSA> 
58.88 
 
>  <cid> 
59000 
 
>  <dipole> 
4.55 
 
>  <excitation_energy_1> 
3.859 
 
>  <excitation_energy_2> 
3.87 
 
>  <excitation_energy_3> 
4.393 
 
>  <excitation_energy_4> 
4.699 
 
>  <homo_energy> 
-5.573 
 
>  <homo_lumo_gap> 
4.574 
 
>  <logP> 
3.133 
 
>  <lumo_energy> 
-0.999 
 
>  <melting_point> 
188.58 
 
>  <molecular_refractivity> 
65.78 
 
>  <oscillator_strength_1> 
0.0286 
 
>  <oscillator_strength_2> 
0.0095 
 
>  <oscillator_strength_3> 
0.0282 
 
>  <oscillator_strength_4> 
0.0046 
 
>  <open_babel_can_smiles> 
NC[C@@H](c1c[nH]c2c1cc(cc2)C(=O)C)C 
 
>  <mulliken_charges> 
32 
1   -0.451393 
2   -0.543338 
3   -0.209939 
4   -0.164385 
5   -0.257249 
6   -0.138484 
7   -0.011811 
8   -0.148583 
9   0.406747 
10   0.070008 
11   0.079319 
12   0.083374 
13   0.337007 
14   -0.718849 
15   -0.701527 
16   -0.46812 
17   0.175199 
18   0.130168 
19   0.14016 
20   0.166285 
21   0.176859 
22   0.167009 
23   0.127234 
24   0.125621 
25   0.15603 
26   0.12986 
27   0.135141 
28   0.153508 
29   0.130983 
30   0.296062 
31   0.298464 
32   0.328641 
 
>  <lowdin_charges> 
32 
1   -0.446183 
2   -0.477757 
3   -0.158966 
4   -0.189886 
5   -0.131105 
6   -0.206253 
7   -0.137443 
8   -0.120655 
9   0.162484 
10   -0.072527 
11   -0.035825 
12   -0.051562 
13   0.04207 
14   -0.559617 
15   -0.194948 
16   -0.260377 
17   0.167592 
18   0.141472 
19   0.148109 
20   0.167874 
21   0.171161 
22   0.167574 
23   0.159047 
24   0.158083 
25   0.174216 
26   0.126594 
27   0.141305 
28   0.168953 
29   0.144366 
30   0.253795 
31   0.256977 
32   0.291433 
 
$$$$ 
 
