PCCDB-ID:  8128 
public computational chemistry database (PCCDB) project, http://pccdb.org 
 
 16 15  0  0  0  0  0  0  0  0999 V2000 
    1.3724    0.0616    0.0373 C   0  0  0  0  0  0  0  0  0  0  0  0 
    0.8533    1.4246    0.5079 C   0  0  0  0  0  0  0  0  0  0  0  0 
    2.9110   -0.0535    0.0908 C   0  0  0  0  0  0  0  0  0  0  0  0 
   -0.6853    1.5398    0.4541 C   0  0  0  0  0  0  0  0  0  0  0  0 
    3.4450    0.0955    1.4493 C   0  0  0  0  0  0  0  0  0  0  0  0 
   -1.2189    1.3911   -0.9046 C   0  0  0  0  0  0  0  0  0  0  0  0 
    3.8397    0.2214    2.5337 N   0  0  0  0  0  0  0  0  0  0  0  0 
   -1.6134    1.2654   -1.9893 N   0  0  0  0  0  0  0  0  0  0  0  0 
    1.0602   -0.1202   -0.9977 H   0  0  0  0  0  0  0  0  0  0  0  0 
    0.9330   -0.7365    0.6487 H   0  0  0  0  0  0  0  0  0  0  0  0 
    1.2929    2.2227   -0.1033 H   0  0  0  0  0  0  0  0  0  0  0  0 
    1.1653    1.6062    1.5430 H   0  0  0  0  0  0  0  0  0  0  0  0 
    3.3722    0.7108   -0.5476 H   0  0  0  0  0  0  0  0  0  0  0  0 
    3.2288   -1.0266   -0.3017 H   0  0  0  0  0  0  0  0  0  0  0  0 
   -1.0031    2.5129    0.8466 H   0  0  0  0  0  0  0  0  0  0  0  0 
   -1.1468    0.7755    1.0922 H   0  0  0  0  0  0  0  0  0  0  0  0 
  1  3  1  0  0  0  0 
  1  2  1  0  0  0  0 
  1 10  1  0  0  0  0 
  2 12  1  0  0  0  0 
  3  5  1  0  0  0  0 
  4  2  1  0  0  0  0 
  4 15  1  0  0  0  0 
  4 16  1  0  0  0  0 
  5  7  3  0  0  0  0 
  6  4  1  0  0  0  0 
  8  6  3  0  0  0  0 
  9  1  1  0  0  0  0 
 11  2  1  0  0  0  0 
 13  3  1  0  0  0  0 
 14  3  1  0  0  0  0 
M  END 
>  <HBA> 
2 
 
>  <HBD> 
0 
 
>  <TPSA> 
47.58 
 
>  <cid> 
8128 
 
>  <dipole> 
0.0 
 
>  <excitation_energy_1> 
7.515 
 
>  <excitation_energy_2> 
7.54 
 
>  <excitation_energy_3> 
7.752 
 
>  <excitation_energy_4> 
7.803 
 
>  <homo_energy> 
-8.939 
 
>  <homo_lumo_gap> 
9.364 
 
>  <logP> 
1.594 
 
>  <lumo_energy> 
0.425 
 
>  <melting_point> 
41.24 
 
>  <molecular_refractivity> 
30.45 
 
>  <oscillator_strength_1> 
0.0 
 
>  <oscillator_strength_2> 
0.0001 
 
>  <oscillator_strength_3> 
0.0 
 
>  <oscillator_strength_4> 
0.0373 
 
>  <open_babel_can_smiles> 
N#CCCCCC#N 
 
>  <mulliken_charges> 
16 
1   -0.270711 
2   -0.270818 
3   -0.350016 
4   -0.349998 
5   0.353495 
6   0.353512 
7   -0.468611 
8   -0.468643 
9   0.177498 
10   0.16016 
11   0.160168 
12   0.177507 
13   0.197448 
14   0.200779 
15   0.200784 
16   0.197447 
 
>  <lowdin_charges> 
16 
1   -0.268824 
2   -0.268834 
3   -0.27468 
4   -0.274681 
5   -0.020356 
6   -0.02033 
7   -0.126728 
8   -0.126763 
9   0.163905 
10   0.156792 
11   0.156793 
12   0.163906 
13   0.183377 
14   0.18652 
15   0.186524 
16   0.183379 
 
$$$$ 
 
