PCCDB-ID:  18504 
public computational chemistry database (PCCDB) project, http://pccdb.org 
 
 28 29  0  0  0  0  0  0  0  0999 V2000 
    1.1769    0.0965    1.5917 C   0  0  0  0  0  0  0  0  0  0  0  0 
   10.2356   -3.1446   -2.4110 C   0  0  0  0  0  0  0  0  0  0  0  0 
    3.3329    1.0729    0.6754 C   0  0  0  0  0  0  0  0  0  0  0  0 
    3.0950   -1.3179    0.7304 C   0  0  0  0  0  0  0  0  0  0  0  0 
    4.6000    0.9301    0.1180 C   0  0  0  0  0  0  0  0  0  0  0  0 
    4.3579   -1.4721    0.1748 C   0  0  0  0  0  0  0  0  0  0  0  0 
    6.4726   -0.4222   -0.7262 C   0  0  0  0  0  0  0  0  0  0  0  0 
    2.5550   -0.0471    0.9922 C   0  0  0  0  0  0  0  0  0  0  0  0 
    5.1433   -0.3423   -0.1452 C   0  0  0  0  0  0  0  0  0  0  0  0 
    7.2076   -1.5082   -1.0698 C   0  0  0  0  0  0  0  0  0  0  0  0 
    8.5744   -1.3748   -1.6612 C   0  0  0  0  0  0  0  0  0  0  0  0 
    7.9207   -3.4961   -1.4201 C   0  0  0  0  0  0  0  0  0  0  0  0 
    6.8832   -2.8716   -0.9575 N   0  0  0  0  0  0  0  0  0  0  0  0 
    8.9646   -2.7173   -1.8590 N   0  0  0  0  0  0  0  0  0  0  0  0 
    9.2486   -0.3986   -1.9351 O   0  0  0  0  0  0  0  0  0  0  0  0 
    8.0551   -4.8234   -1.5035 O   0  0  0  0  0  0  0  0  0  0  0  0 
    0.9303    1.1454    1.7839 H   0  0  0  0  0  0  0  0  0  0  0  0 
    1.0954   -0.4472    2.5411 H   0  0  0  0  0  0  0  0  0  0  0  0 
    0.4068   -0.3103    0.9237 H   0  0  0  0  0  0  0  0  0  0  0  0 
   10.8006   -2.2357   -2.6285 H   0  0  0  0  0  0  0  0  0  0  0  0 
   10.0912   -3.7162   -3.3329 H   0  0  0  0  0  0  0  0  0  0  0  0 
   10.7891   -3.7571   -1.6927 H   0  0  0  0  0  0  0  0  0  0  0  0 
    2.9409    2.0689    0.8679 H   0  0  0  0  0  0  0  0  0  0  0  0 
    2.5077   -2.2026    0.9685 H   0  0  0  0  0  0  0  0  0  0  0  0 
    5.1855    1.8152   -0.1200 H   0  0  0  0  0  0  0  0  0  0  0  0 
    4.7575   -2.4607   -0.0185 H   0  0  0  0  0  0  0  0  0  0  0  0 
    6.9672    0.5278   -0.9214 H   0  0  0  0  0  0  0  0  0  0  0  0 
    7.2285   -5.2024   -1.1528 H   0  0  0  0  0  0  0  0  0  0  0  0 
  1 17  1  0  0  0  0 
  1 18  1  0  0  0  0 
  2 14  1  0  0  0  0 
  2 22  1  0  0  0  0 
  3 23  1  0  0  0  0 
  3  8  2  0  0  0  0 
  4 24  1  0  0  0  0 
  4  8  1  0  0  0  0 
  5  3  1  0  0  0  0 
  6  4  2  0  0  0  0 
  7  9  1  0  0  0  0 
  8  1  1  0  0  0  0 
  9  5  2  0  0  0  0 
  9  6  1  0  0  0  0 
 10 13  1  0  0  0  0 
 10  7  2  0  0  0  0 
 11 10  1  0  0  0  0 
 12 13  2  0  0  0  0 
 14 11  1  0  0  0  0 
 14 12  1  0  0  0  0 
 15 11  2  0  0  0  0 
 16 12  1  0  0  0  0 
 16 28  1  0  0  0  0 
 19  1  1  0  0  0  0 
 20  2  1  0  0  0  0 
 21  2  1  0  0  0  0 
 25  5  1  0  0  0  0 
 26  6  1  0  0  0  0 
 27  7  1  0  0  0  0 
M  END 
>  <HBA> 
4 
 
>  <HBD> 
1 
 
>  <TPSA> 
49.41 
 
>  <cid> 
18504 
 
>  <dipole> 
2.95 
 
>  <excitation_energy_1> 
3.603 
 
>  <excitation_energy_2> 
4.048 
 
>  <excitation_energy_3> 
4.224 
 
>  <excitation_energy_4> 
4.486 
 
>  <homo_energy> 
-5.499 
 
>  <homo_lumo_gap> 
3.736 
 
>  <logP> 
1.784 
 
>  <lumo_energy> 
-1.763 
 
>  <melting_point> 
138.61 
 
>  <molecular_refractivity> 
68.12 
 
>  <oscillator_strength_1> 
0.7088 
 
>  <oscillator_strength_2> 
0.0001 
 
>  <oscillator_strength_3> 
0.0058 
 
>  <oscillator_strength_4> 
0.0948 
 
>  <open_babel_can_smiles> 
Cc1ccc(cc1)/C=C/1\N=C(N(C1=O)C)O 
 
>  <mulliken_charges> 
28 
1   -0.532015 
2   -0.324597 
3   -0.191104 
4   -0.183756 
5   -0.178951 
6   -0.168982 
7   -0.267394 
8   0.185027 
9   0.166813 
10   0.237159 
11   0.561925 
12   0.727925 
13   -0.588114 
14   -0.510361 
15   -0.505533 
16   -0.605791 
17   0.156524 
18   0.163906 
19   0.165298 
20   0.200866 
21   0.176625 
22   0.176641 
23   0.124581 
24   0.122458 
25   0.13327 
26   0.165879 
27   0.161289 
28   0.430411 
 
>  <lowdin_charges> 
28 
1   -0.442536 
2   -0.349043 
3   -0.170746 
4   -0.167346 
5   -0.149641 
6   -0.146072 
7   -0.129475 
8   0.010941 
9   -0.00885 
10   -0.013059 
11   0.154328 
12   0.166572 
13   -0.260466 
14   -0.085242 
15   -0.272835 
16   -0.335835 
17   0.156313 
18   0.161773 
19   0.163535 
20   0.184554 
21   0.164214 
22   0.165739 
23   0.155226 
24   0.155175 
25   0.15978 
26   0.176973 
27   0.177354 
28   0.378669 
 
$$$$ 
 
