PCCDB-ID:  48173 
public computational chemistry database (PCCDB) project, http://pccdb.org 
 
 29 29  0  0  1  0  0  0  0  0999 V2000 
    0.8672    1.1451    1.3814 C   0  0  0  0  0  0  0  0  0  0  0  0 
    7.5354    1.4553    2.4945 C   0  0  0  0  0  0  0  0  0  0  0  0 
    2.3627    1.1913    1.2594 C   0  0  0  0  0  0  0  0  0  0  0  0 
    6.8653    1.3500    1.1201 C   0  0  0  0  0  0  0  0  0  0  0  0 
    3.0318    1.1389    0.0977 C   0  0  0  0  0  0  0  0  0  0  0  0 
    5.3361    1.2952    1.2409 C   0  0  0  0  0  0  0  0  0  0  0  0 
    4.8928    2.3666   -1.0079 C   0  0  0  0  0  0  0  0  0  0  0  0 
    4.9815   -0.0810   -0.8518 C   0  0  0  0  0  0  0  0  0  0  0  0 
    6.3468    1.1067   -2.2946 C   0  0  0  0  0  0  0  0  0  0  0  0 
    4.5425    1.1812   -0.1029 C   0  0  2  0  0  0  0  0  0  0  0  0 
    5.7058    2.3379   -1.9853 N   0  0  0  0  0  0  0  0  0  0  0  0 
    5.7958   -0.1184   -1.8278 N   0  0  0  0  0  0  0  0  0  0  0  0 
    4.3092    3.5405   -0.6932 O   0  0  0  0  0  0  0  0  0  0  0  0 
    4.4806   -1.2441   -0.3891 O   0  0  0  0  0  0  0  0  0  0  0  0 
    7.3382    1.0987   -2.9870 O   0  0  0  0  0  0  0  0  0  0  0  0 
    0.4889    2.0475    1.8788 H   0  0  0  0  0  0  0  0  0  0  0  0 
    0.5529    0.2944    1.9999 H   0  0  0  0  0  0  0  0  0  0  0  0 
    0.3799    1.0598    0.4054 H   0  0  0  0  0  0  0  0  0  0  0  0 
    8.6247    1.4947    2.3920 H   0  0  0  0  0  0  0  0  0  0  0  0 
    7.2916    0.5924    3.1262 H   0  0  0  0  0  0  0  0  0  0  0  0 
    7.2182    2.3603    3.0269 H   0  0  0  0  0  0  0  0  0  0  0  0 
    2.9111    1.2731    2.1969 H   0  0  0  0  0  0  0  0  0  0  0  0 
    7.2315    0.4552    0.6034 H   0  0  0  0  0  0  0  0  0  0  0  0 
    7.1602    2.2071    0.5034 H   0  0  0  0  0  0  0  0  0  0  0  0 
    2.4596    1.0572   -0.8285 H   0  0  0  0  0  0  0  0  0  0  0  0 
    4.9850    2.1942    1.7642 H   0  0  0  0  0  0  0  0  0  0  0  0 
    5.0566    0.4401    1.8702 H   0  0  0  0  0  0  0  0  0  0  0  0 
    3.6360    3.3814   -0.0075 H   0  0  0  0  0  0  0  0  0  0  0  0 
    3.7936   -1.0475    0.2727 H   0  0  0  0  0  0  0  0  0  0  0  0 
  1 16  1  0  0  0  0 
  1 17  1  0  0  0  0 
  2 21  1  0  0  0  0 
  2 20  1  0  0  0  0 
  3  1  1  0  0  0  0 
  3 22  1  0  0  0  0 
  4  6  1  0  0  0  0 
  4  2  1  0  0  0  0 
  5  3  2  0  0  0  0 
  6 26  1  0  0  0  0 
  6 27  1  0  0  0  0 
  7 13  1  0  0  0  0 
  7 10  1  0  0  0  0 
  8 14  1  0  0  0  0 
  8 10  1  0  0  0  0 
  9 11  2  0  0  0  0 
  9 12  1  0  0  0  0 
 10  5  1  1  0  0  0 
 10  6  1  0  0  0  0 
 11  7  2  0  0  0  0 
 12  8  2  0  0  0  0 
 13 28  1  0  0  0  0 
 14 29  1  0  0  0  0 
 15  9  2  0  0  0  0 
 18  1  1  0  0  0  0 
 19  2  1  0  0  0  0 
 23  4  1  0  0  0  0 
 24  4  1  0  0  0  0 
 25  5  1  0  0  0  0 
M  END 
>  <HBA> 
5 
 
>  <HBD> 
2 
 
>  <TPSA> 
75.27 
 
>  <cid> 
48173 
 
>  <dipole> 
10.53 
 
>  <excitation_energy_1> 
4.007 
 
>  <excitation_energy_2> 
4.256 
 
>  <excitation_energy_3> 
5.022 
 
>  <excitation_energy_4> 
5.347 
 
>  <homo_energy> 
-6.806 
 
>  <homo_lumo_gap> 
5.372 
 
>  <logP> 
1.373 
 
>  <lumo_energy> 
-1.434 
 
>  <melting_point> 
150.7 
 
>  <molecular_refractivity> 
61.76 
 
>  <oscillator_strength_1> 
0.0007 
 
>  <oscillator_strength_2> 
0.0004 
 
>  <oscillator_strength_3> 
0.0499 
 
>  <oscillator_strength_4> 
0.0078 
 
>  <open_babel_can_smiles> 
CCC[C@]1(/C=C/C)C(=N[C](=[N]=C1O)=O)O 
 
>  <mulliken_charges> 
29 
1   -0.493986 
2   -0.447497 
3   -0.091497 
4   -0.284614 
5   -0.213661 
6   -0.262188 
7   0.542276 
8   0.542293 
9   0.615282 
10   -0.154519 
11   -0.464621 
12   -0.464753 
13   -0.574497 
14   -0.57458 
15   -0.430684 
16   0.174494 
17   0.174418 
18   0.171396 
19   0.162576 
20   0.144782 
21   0.144609 
22   0.154389 
23   0.172303 
24   0.172182 
25   0.165974 
26   0.14518 
27   0.145381 
28   0.414754 
29   0.41481 
 
>  <lowdin_charges> 
29 
1   -0.44018 
2   -0.440847 
3   -0.152093 
4   -0.284313 
5   -0.208835 
6   -0.26943 
7   0.143211 
8   0.142977 
9   0.171215 
10   -0.058918 
11   -0.182871 
12   -0.182975 
13   -0.328501 
14   -0.328371 
15   -0.210142 
16   0.169511 
17   0.169663 
18   0.164252 
19   0.159192 
20   0.148498 
21   0.148246 
22   0.162642 
23   0.16049 
24   0.16054 
25   0.168783 
26   0.148451 
27   0.148707 
28   0.360497 
29   0.360599 
 
$$$$ 
 
