PCCDB-ID:  33107 
public computational chemistry database (PCCDB) project, http://pccdb.org 
 
 21 22  0  0  0  0  0  0  0  0999 V2000 
    0.9290    0.0311    0.0446 C   0  0  0  0  0  0  0  0  0  0  0  0 
    7.8278    0.8226    0.0745 C   0  0  0  0  0  0  0  0  0  0  0  0 
    3.1192    1.3164    0.0528 C   0  0  0  0  0  0  0  0  0  0  0  0 
    4.5094    1.4041    0.0592 C   0  0  0  0  0  0  0  0  0  0  0  0 
    3.1797   -1.1107    0.0555 C   0  0  0  0  0  0  0  0  0  0  0  0 
    6.7009   -1.4785    0.0712 C   0  0  0  0  0  0  0  0  0  0  0  0 
    2.4409    0.0787    0.0508 C   0  0  0  0  0  0  0  0  0  0  0  0 
    6.6654   -0.1217    0.0706 C   0  0  0  0  0  0  0  0  0  0  0  0 
    5.2556    0.2186    0.0642 C   0  0  0  0  0  0  0  0  0  0  0  0 
    4.5632   -1.0058    0.0619 C   0  0  0  0  0  0  0  0  0  0  0  0 
    5.4482   -2.0506    0.0662 O   0  0  0  0  0  0  0  0  0  0  0  0 
    0.4990    1.0375    0.0401 H   0  0  0  0  0  0  0  0  0  0  0  0 
    0.5394   -0.4929    0.9264 H   0  0  0  0  0  0  0  0  0  0  0  0 
    0.5468   -0.4973   -0.8379 H   0  0  0  0  0  0  0  0  0  0  0  0 
    8.7792    0.2812    0.0723 H   0  0  0  0  0  0  0  0  0  0  0  0 
    7.8140    1.4713    0.9595 H   0  0  0  0  0  0  0  0  0  0  0  0 
    7.8139    1.4781   -0.8056 H   0  0  0  0  0  0  0  0  0  0  0  0 
    2.5311    2.2308    0.0488 H   0  0  0  0  0  0  0  0  0  0  0  0 
    4.9984    2.3745    0.0611 H   0  0  0  0  0  0  0  0  0  0  0  0 
    2.6939   -2.0822    0.0540 H   0  0  0  0  0  0  0  0  0  0  0  0 
    7.5226   -2.1802    0.0752 H   0  0  0  0  0  0  0  0  0  0  0  0 
  1  7  1  0  0  0  0 
  1 13  1  0  0  0  0 
  2 16  1  0  0  0  0 
  3  4  1  0  0  0  0 
  4 19  1  0  0  0  0 
  4  9  2  0  0  0  0 
  5 10  2  0  0  0  0 
  6 21  1  0  0  0  0 
  7  3  2  0  0  0  0 
  7  5  1  0  0  0  0 
  8  6  2  0  0  0  0 
  8  2  1  0  0  0  0 
  9  8  1  0  0  0  0 
 10  9  1  0  0  0  0 
 10 11  1  0  0  0  0 
 11  6  1  0  0  0  0 
 12  1  1  0  0  0  0 
 14  1  1  0  0  0  0 
 15  2  1  0  0  0  0 
 17  2  1  0  0  0  0 
 18  3  1  0  0  0  0 
 20  5  1  0  0  0  0 
M  END 
>  <HBA> 
1 
 
>  <HBD> 
0 
 
>  <TPSA> 
13.14 
 
>  <cid> 
33107 
 
>  <dipole> 
0.83 
 
>  <excitation_energy_1> 
4.769 
 
>  <excitation_energy_2> 
4.962 
 
>  <excitation_energy_3> 
5.392 
 
>  <excitation_energy_4> 
5.677 
 
>  <homo_energy> 
-5.668 
 
>  <homo_lumo_gap> 
5.325 
 
>  <logP> 
3.05 
 
>  <lumo_energy> 
-0.343 
 
>  <melting_point> 
56.56 
 
>  <molecular_refractivity> 
46.15 
 
>  <oscillator_strength_1> 
0.1312 
 
>  <oscillator_strength_2> 
0.0424 
 
>  <oscillator_strength_3> 
0.0001 
 
>  <oscillator_strength_4> 
0.0001 
 
>  <open_babel_can_smiles> 
Cc1ccc2c(c1)occ2C 
 
>  <mulliken_charges> 
21 
1   -0.529704 
2   -0.526195 
3   -0.190192 
4   -0.210507 
5   -0.235223 
6   0.019861 
7   0.1628 
8   0.094627 
9   0.095461 
10   0.312875 
11   -0.486812 
12   0.154265 
13   0.161896 
14   0.161825 
15   0.156668 
16   0.163514 
17   0.163447 
18   0.118578 
19   0.126944 
20   0.134231 
21   0.151642 
 
>  <lowdin_charges> 
21 
1   -0.442415 
2   -0.434828 
3   -0.179717 
4   -0.162722 
5   -0.186108 
6   -0.078583 
7   0.001162 
8   -0.049113 
9   -0.040123 
10   0.08543 
11   -0.12017 
12   0.155768 
13   0.160596 
14   0.160553 
15   0.160378 
16   0.161275 
17   0.161292 
18   0.154351 
19   0.157755 
20   0.165064 
21   0.170153 
 
$$$$ 
 
