PCCDB-ID:  57947 
public computational chemistry database (PCCDB) project, http://pccdb.org 
 
 34 35  0  0  1  0  0  0  0  0999 V2000 
    0.7126   -0.0182    0.8732 C   0  0  0  0  0  0  0  0  0  0  0  0 
    4.6950   -1.4620   -7.1270 C   0  0  0  0  0  0  0  0  0  0  0  0 
    3.1885   -1.0922   -6.9842 C   0  0  0  0  0  0  0  0  0  0  0  0 
    5.4637   -0.3315   -6.4111 C   0  0  0  0  0  0  0  0  0  0  0  0 
    3.1334    0.1278   -6.0252 C   0  0  0  0  0  0  0  0  0  0  0  0 
    3.4968   -1.4663   -0.8613 C   0  0  0  0  0  0  0  0  0  0  0  0 
    2.7757    0.7418   -1.4329 C   0  0  0  0  0  0  0  0  0  0  0  0 
    4.0512   -1.6220   -2.1271 C   0  0  0  0  0  0  0  0  0  0  0  0 
    3.3253    0.6078   -2.7096 C   0  0  0  0  0  0  0  0  0  0  0  0 
    2.2427   -0.1297    0.9118 C   0  0  1  0  0  0  0  0  0  0  0  0 
    2.8450   -0.2835   -0.4838 C   0  0  0  0  0  0  0  0  0  0  0  0 
    4.5017    0.1482   -5.3221 C   0  0  0  0  0  0  0  0  0  0  0  0 
    3.9732   -0.5835   -3.0654 C   0  0  0  0  0  0  0  0  0  0  0  0 
    2.7743    0.9983    1.7001 N   0  0  0  0  0  0  0  0  0  0  0  0 
    4.5681   -0.8299   -4.2702 O   0  0  0  0  0  0  0  0  0  0  0  0 
    0.2690   -0.8857    0.3741 H   0  0  0  0  0  0  0  0  0  0  0  0 
    0.3975    0.8778    0.3229 H   0  0  0  0  0  0  0  0  0  0  0  0 
    0.3165    0.0511    1.8913 H   0  0  0  0  0  0  0  0  0  0  0  0 
    5.0033   -1.5693   -8.1720 H   0  0  0  0  0  0  0  0  0  0  0  0 
    4.8977   -2.4163   -6.6311 H   0  0  0  0  0  0  0  0  0  0  0  0 
    2.6231   -1.9344   -6.5739 H   0  0  0  0  0  0  0  0  0  0  0  0 
    2.7350   -0.8487   -7.9506 H   0  0  0  0  0  0  0  0  0  0  0  0 
    5.6537    0.5045   -7.0963 H   0  0  0  0  0  0  0  0  0  0  0  0 
    6.4243   -0.6483   -5.9939 H   0  0  0  0  0  0  0  0  0  0  0  0 
    2.3035    0.0772   -5.3146 H   0  0  0  0  0  0  0  0  0  0  0  0 
    3.0199    1.0616   -6.5905 H   0  0  0  0  0  0  0  0  0  0  0  0 
    3.5722   -2.2843   -0.1472 H   0  0  0  0  0  0  0  0  0  0  0  0 
    2.2800    1.6780   -1.1826 H   0  0  0  0  0  0  0  0  0  0  0  0 
    4.5583   -2.5391   -2.4116 H   0  0  0  0  0  0  0  0  0  0  0  0 
    3.2409    1.4296   -3.4110 H   0  0  0  0  0  0  0  0  0  0  0  0 
    2.4955   -1.0381    1.4749 H   0  0  0  0  0  0  0  0  0  0  0  0 
    4.7749    1.1317   -4.9203 H   0  0  0  0  0  0  0  0  0  0  0  0 
    2.5197    1.8765    1.2468 H   0  0  0  0  0  0  0  0  0  0  0  0 
    3.7937    0.9674    1.6837 H   0  0  0  0  0  0  0  0  0  0  0  0 
  1 10  1  0  0  0  0 
  1 18  1  0  0  0  0 
  2  3  1  0  0  0  0 
  2 20  1  0  0  0  0 
  2  4  1  0  0  0  0 
  3 21  1  0  0  0  0 
  3  5  1  0  0  0  0 
  4 24  1  0  0  0  0 
  4 12  1  0  0  0  0 
  5 12  1  0  0  0  0 
  5 25  1  0  0  0  0 
  6 11  1  0  0  0  0 
  6 27  1  0  0  0  0 
  7 28  1  0  0  0  0 
  7 11  2  0  0  0  0 
  8  6  2  0  0  0  0 
  9  7  1  0  0  0  0 
 10 31  1  1  0  0  0 
 10 14  1  0  0  0  0 
 11 10  1  0  0  0  0 
 12 32  1  0  0  0  0 
 12 15  1  0  0  0  0 
 13  9  2  0  0  0  0 
 13  8  1  0  0  0  0 
 15 13  1  0  0  0  0 
 16  1  1  0  0  0  0 
 17  1  1  0  0  0  0 
 19  2  1  0  0  0  0 
 22  3  1  0  0  0  0 
 23  4  1  0  0  0  0 
 26  5  1  0  0  0  0 
 29  8  1  0  0  0  0 
 30  9  1  0  0  0  0 
 33 14  1  0  0  0  0 
 34 14  1  0  0  0  0 
M  END 
>  <HBA> 
2 
 
>  <HBD> 
1 
 
>  <TPSA> 
35.25 
 
>  <cid> 
57947 
 
>  <dipole> 
2.43 
 
>  <excitation_energy_1> 
4.791 
 
>  <excitation_energy_2> 
5.099 
 
>  <excitation_energy_3> 
5.374 
 
>  <excitation_energy_4> 
5.441 
 
>  <homo_energy> 
-5.592 
 
>  <homo_lumo_gap> 
5.622 
 
>  <logP> 
3.728 
 
>  <lumo_energy> 
0.03 
 
>  <melting_point> 
86.77 
 
>  <molecular_refractivity> 
62.53 
 
>  <oscillator_strength_1> 
0.0292 
 
>  <oscillator_strength_2> 
0.0259 
 
>  <oscillator_strength_3> 
0.075 
 
>  <oscillator_strength_4> 
0.079 
 
>  <open_babel_can_smiles> 
C[C@@H](c1ccc(cc1)OC1CCCC1)N 
 
>  <mulliken_charges> 
34 
1   -0.434167 
2   -0.270316 
3   -0.272091 
4   -0.281924 
5   -0.289616 
6   -0.201749 
7   -0.202924 
8   -0.176565 
9   -0.191593 
10   -0.06926 
11   0.179321 
12   0.117846 
13   0.378996 
14   -0.69903 
15   -0.541 
16   0.148522 
17   0.13483 
18   0.158518 
19   0.135922 
20   0.153366 
21   0.148961 
22   0.137657 
23   0.137007 
24   0.152488 
25   0.15608 
26   0.136626 
27   0.124173 
28   0.114487 
29   0.133224 
30   0.133264 
31   0.134809 
32   0.13135 
33   0.288614 
34   0.294173 
 
>  <lowdin_charges> 
34 
1   -0.444727 
2   -0.283492 
3   -0.285935 
4   -0.285273 
5   -0.299266 
6   -0.161862 
7   -0.158531 
8   -0.184381 
9   -0.214831 
10   -0.061576 
11   -0.041129 
12   -6.5e-05 
13   0.102544 
14   -0.5452 
15   -0.205117 
16   0.15492 
17   0.144586 
18   0.157071 
19   0.144691 
20   0.151362 
21   0.151682 
22   0.145857 
23   0.147662 
24   0.156018 
25   0.157578 
26   0.147454 
27   0.155475 
28   0.148983 
29   0.164587 
30   0.161795 
31   0.142882 
32   0.136433 
33   0.248621 
34   0.251181 
 
$$$$ 
 
