PCCDB-ID:  18811 
public computational chemistry database (PCCDB) project, http://pccdb.org 
 
 30 31  0  0  0  0  0  0  0  0999 V2000 
    3.2915    0.6986    3.5777 C   0  0  0  0  0  0  0  0  0  0  0  0 
    4.3582    1.5059    3.1840 C   0  0  0  0  0  0  0  0  0  0  0  0 
    3.3046   -0.6657    3.2731 C   0  0  0  0  0  0  0  0  0  0  0  0 
    8.6985   -3.6441   -2.3483 C   0  0  0  0  0  0  0  0  0  0  0  0 
    9.2369   -3.0731   -1.1999 C   0  0  0  0  0  0  0  0  0  0  0  0 
    5.4334    0.9510    2.4858 C   0  0  0  0  0  0  0  0  0  0  0  0 
    4.3823   -1.2178    2.5835 C   0  0  0  0  0  0  0  0  0  0  0  0 
    7.3271   -3.5292   -2.6009 C   0  0  0  0  0  0  0  0  0  0  0  0 
    8.4160   -2.3869   -0.2982 C   0  0  0  0  0  0  0  0  0  0  0  0 
    5.0066   -2.7080   -1.9642 C   0  0  0  0  0  0  0  0  0  0  0  0 
    6.6291   -1.0216    1.4531 C   0  0  0  0  0  0  0  0  0  0  0  0 
    5.4576   -0.4132    2.1828 C   0  0  0  0  0  0  0  0  0  0  0  0 
    6.4896   -2.8519   -1.7187 C   0  0  0  0  0  0  0  0  0  0  0  0 
    7.0478   -2.2791   -0.5586 C   0  0  0  0  0  0  0  0  0  0  0  0 
    4.6616   -3.3518   -3.1845 O   0  0  0  0  0  0  0  0  0  0  0  0 
    6.1499   -1.6320    0.2534 O   0  0  0  0  0  0  0  0  0  0  0  0 
    2.4525    1.1281    4.1186 H   0  0  0  0  0  0  0  0  0  0  0  0 
    4.3535    2.5680    3.4137 H   0  0  0  0  0  0  0  0  0  0  0  0 
    2.4754   -1.2991    3.5769 H   0  0  0  0  0  0  0  0  0  0  0  0 
    9.3365   -4.1760   -3.0484 H   0  0  0  0  0  0  0  0  0  0  0  0 
   10.3007   -3.1540   -0.9926 H   0  0  0  0  0  0  0  0  0  0  0  0 
    6.2599    1.5850    2.1729 H   0  0  0  0  0  0  0  0  0  0  0  0 
    4.3913   -2.2778    2.3439 H   0  0  0  0  0  0  0  0  0  0  0  0 
    6.8898   -3.9658   -3.4917 H   0  0  0  0  0  0  0  0  0  0  0  0 
    8.8492   -1.9449    0.5917 H   0  0  0  0  0  0  0  0  0  0  0  0 
    4.7438   -1.6381   -1.9887 H   0  0  0  0  0  0  0  0  0  0  0  0 
    4.4532   -3.1407   -1.1147 H   0  0  0  0  0  0  0  0  0  0  0  0 
    7.1201   -1.7845    2.0754 H   0  0  0  0  0  0  0  0  0  0  0  0 
    7.3772   -0.2536    1.2140 H   0  0  0  0  0  0  0  0  0  0  0  0 
    3.7057   -3.2556   -3.3024 H   0  0  0  0  0  0  0  0  0  0  0  0 
  1 17  1  0  0  0  0 
  2 18  1  0  0  0  0 
  2  1  2  0  0  0  0 
  3 19  1  0  0  0  0 
  3  1  1  0  0  0  0 
  4  5  1  0  0  0  0 
  5 21  1  0  0  0  0 
  5  9  2  0  0  0  0 
  6  2  1  0  0  0  0 
  7  3  2  0  0  0  0 
  8  4  2  0  0  0  0 
  8 13  1  0  0  0  0 
  9 25  1  0  0  0  0 
 10 13  1  0  0  0  0 
 10 27  1  0  0  0  0 
 11 28  1  0  0  0  0 
 11 12  1  0  0  0  0 
 12  6  2  0  0  0  0 
 12  7  1  0  0  0  0 
 13 14  2  0  0  0  0 
 14  9  1  0  0  0  0 
 14 16  1  0  0  0  0 
 15 10  1  0  0  0  0 
 16 11  1  0  0  0  0 
 20  4  1  0  0  0  0 
 22  6  1  0  0  0  0 
 23  7  1  0  0  0  0 
 24  8  1  0  0  0  0 
 26 10  1  0  0  0  0 
 29 11  1  0  0  0  0 
 30 15  1  0  0  0  0 
M  END 
>  <HBA> 
2 
 
>  <HBD> 
1 
 
>  <TPSA> 
29.46 
 
>  <cid> 
18811 
 
>  <dipole> 
2.42 
 
>  <excitation_energy_1> 
4.741 
 
>  <excitation_energy_2> 
4.972 
 
>  <excitation_energy_3> 
5.091 
 
>  <excitation_energy_4> 
5.266 
 
>  <homo_energy> 
-5.733 
 
>  <homo_lumo_gap> 
5.448 
 
>  <logP> 
2.758 
 
>  <lumo_energy> 
-0.286 
 
>  <melting_point> 
62.27 
 
>  <molecular_refractivity> 
63.55 
 
>  <oscillator_strength_1> 
0.0058 
 
>  <oscillator_strength_2> 
0.0073 
 
>  <oscillator_strength_3> 
0.0309 
 
>  <oscillator_strength_4> 
0.0001 
 
>  <open_babel_can_smiles> 
OCc1ccccc1OCc1ccccc1 
 
>  <mulliken_charges> 
30 
1   -0.126052 
2   -0.129099 
3   -0.132337 
4   -0.133899 
5   -0.138622 
6   -0.179463 
7   -0.158269 
8   -0.175697 
9   -0.19704 
10   -0.07247 
11   -0.119236 
12   0.144808 
13   0.059752 
14   0.338008 
15   -0.626274 
16   -0.529528 
17   0.131939 
18   0.132509 
19   0.132611 
20   0.122948 
21   0.12486 
22   0.129018 
23   0.137767 
24   0.155524 
25   0.132055 
26   0.143256 
27   0.138197 
28   0.151239 
29   0.14652 
30   0.396975 
 
>  <lowdin_charges> 
30 
1   -0.1545 
2   -0.153121 
3   -0.15507 
4   -0.177655 
5   -0.151484 
6   -0.162325 
7   -0.149673 
8   -0.152373 
9   -0.21612 
10   -0.1274 
11   -0.124352 
12   -0.014432 
13   -0.039043 
14   0.09164 
15   -0.465296 
16   -0.205958 
17   0.159722 
18   0.1575 
19   0.15984 
20   0.157026 
21   0.154045 
22   0.157854 
23   0.160282 
24   0.172809 
25   0.160937 
26   0.139041 
27   0.139256 
28   0.14789 
29   0.145 
30   0.34596 
 
$$$$ 
 
