PCCDB-ID:  70285 
public computational chemistry database (PCCDB) project, http://pccdb.org 
 
 20 20  0  0  0  0  0  0  0  0999 V2000 
    1.5939    0.2600    0.2563 C   0  0  0  0  0  0  0  0  0  0  0  0 
    3.0654   -0.0122    0.2303 C   0  0  0  0  0  0  0  0  0  0  0  0 
    6.6365   -5.1948   -0.0827 C   0  0  0  0  0  0  0  0  0  0  0  0 
    5.2458   -5.0773   -0.0179 C   0  0  0  0  0  0  0  0  0  0  0  0 
    7.4148   -4.0359   -0.0544 C   0  0  0  0  0  0  0  0  0  0  0  0 
    4.6304   -3.8311    0.0727 C   0  0  0  0  0  0  0  0  0  0  0  0 
    6.8169   -2.7814    0.0361 C   0  0  0  0  0  0  0  0  0  0  0  0 
    5.4182   -2.6690    0.1012 C   0  0  0  0  0  0  0  0  0  0  0  0 
    3.5143   -1.2126    0.2134 N   0  0  0  0  0  0  0  0  0  0  0  0 
    4.8516   -1.4001    0.2034 N   0  0  0  0  0  0  0  0  0  0  0  0 
    1.3101    0.8281    1.1527 H   0  0  0  0  0  0  0  0  0  0  0  0 
    1.0383   -0.6813    0.2479 H   0  0  0  0  0  0  0  0  0  0  0  0 
    1.2850    0.8590   -0.6110 H   0  0  0  0  0  0  0  0  0  0  0  0 
    3.7492    0.8501    0.2301 H   0  0  0  0  0  0  0  0  0  0  0  0 
    7.1053   -6.1718   -0.1540 H   0  0  0  0  0  0  0  0  0  0  0  0 
    4.6249   -5.9695   -0.0398 H   0  0  0  0  0  0  0  0  0  0  0  0 
    8.4985   -4.1040   -0.1046 H   0  0  0  0  0  0  0  0  0  0  0  0 
    3.5522   -3.7388    0.1221 H   0  0  0  0  0  0  0  0  0  0  0  0 
    7.4319   -1.8837    0.0582 H   0  0  0  0  0  0  0  0  0  0  0  0 
    5.4660   -0.5904    0.1529 H   0  0  0  0  0  0  0  0  0  0  0  0 
  1 11  1  0  0  0  0 
  2  1  1  0  0  0  0 
  3  5  2  0  0  0  0 
  3  4  1  0  0  0  0 
  4  6  2  0  0  0  0 
  5  7  1  0  0  0  0 
  6  8  1  0  0  0  0 
  6 18  1  0  0  0  0 
  7 19  1  0  0  0  0 
  7  8  2  0  0  0  0 
  8 10  1  0  0  0  0 
  9  2  2  0  0  0  0 
 10  9  1  0  0  0  0 
 12  1  1  0  0  0  0 
 13  1  1  0  0  0  0 
 14  2  1  0  0  0  0 
 15  3  1  0  0  0  0 
 16  4  1  0  0  0  0 
 17  5  1  0  0  0  0 
 20 10  1  0  0  0  0 
M  END 
>  <HBA> 
2 
 
>  <HBD> 
1 
 
>  <TPSA> 
24.39 
 
>  <cid> 
70285 
 
>  <dipole> 
2.23 
 
>  <excitation_energy_1> 
4.299 
 
>  <excitation_energy_2> 
4.497 
 
>  <excitation_energy_3> 
4.629 
 
>  <excitation_energy_4> 
5.101 
 
>  <homo_energy> 
-5.119 
 
>  <homo_lumo_gap> 
5.021 
 
>  <logP> 
2.177 
 
>  <lumo_energy> 
-0.098 
 
>  <melting_point> 
55.07 
 
>  <molecular_refractivity> 
44.24 
 
>  <oscillator_strength_1> 
0.1965 
 
>  <oscillator_strength_2> 
0.0061 
 
>  <oscillator_strength_3> 
0.3082 
 
>  <oscillator_strength_4> 
0.0005 
 
>  <open_babel_can_smiles> 
C/C=N/Nc1ccccc1 
 
>  <mulliken_charges> 
20 
1   -0.489131 
2   0.065379 
3   -0.134964 
4   -0.139225 
5   -0.135686 
6   -0.168351 
7   -0.193776 
8   0.390422 
9   -0.175005 
10   -0.55688 
11   0.158528 
12   0.175047 
13   0.158001 
14   0.106088 
15   0.120684 
16   0.126265 
17   0.124864 
18   0.149524 
19   0.113342 
20   0.304874 
 
>  <lowdin_charges> 
20 
1   -0.44244 
2   -0.131007 
3   -0.186233 
4   -0.14572 
5   -0.144842 
6   -0.188726 
7   -0.20337 
8   0.059007 
9   -0.083052 
10   -0.194944 
11   0.159962 
12   0.169434 
13   0.159939 
14   0.12394 
15   0.154596 
16   0.156877 
17   0.153844 
18   0.16879 
19   0.150563 
20   0.263381 
 
$$$$ 
 
