PCCDB-ID:  41963 
public computational chemistry database (PCCDB) project, http://pccdb.org 
 
 24 25  0  0  1  0  0  0  0  0999 V2000 
   -1.4930   -0.0434   -0.0521 C   0  0  0  0  0  0  0  0  0  0  0  0 
   -0.7217   -0.2443    1.0927 C   0  0  0  0  0  0  0  0  0  0  0  0 
   -0.8588    0.1571   -1.2801 C   0  0  0  0  0  0  0  0  0  0  0  0 
    4.3428   -0.2236   -2.1404 C   0  0  0  0  0  0  0  0  0  0  0  0 
    4.5605    1.1937   -1.6637 C   0  0  0  0  0  0  0  0  0  0  0  0 
    0.6730   -0.2447    1.0161 C   0  0  0  0  0  0  0  0  0  0  0  0 
    0.5333    0.1591   -1.3558 C   0  0  0  0  0  0  0  0  0  0  0  0 
    3.3956   -0.8593   -1.4452 C   0  0  0  0  0  0  0  0  0  0  0  0 
    3.3965    1.4120   -0.6636 C   0  0  0  0  0  0  0  0  0  0  0  0 
    1.3161   -0.0386   -0.2092 C   0  0  0  0  0  0  0  0  0  0  0  0 
    2.8360   -0.0085   -0.3157 C   0  0  1  0  0  0  0  0  0  0  0  0 
    3.3512   -0.4876    0.9399 O   0  0  0  0  0  0  0  0  0  0  0  0 
   -2.5781   -0.0462    0.0097 H   0  0  0  0  0  0  0  0  0  0  0  0 
   -1.2053   -0.4040    2.0533 H   0  0  0  0  0  0  0  0  0  0  0  0 
   -1.4477    0.3090   -2.1811 H   0  0  0  0  0  0  0  0  0  0  0  0 
    4.9238   -0.6644   -2.9469 H   0  0  0  0  0  0  0  0  0  0  0  0 
    4.5369    1.9180   -2.4878 H   0  0  0  0  0  0  0  0  0  0  0  0 
    5.5501    1.3028   -1.1958 H   0  0  0  0  0  0  0  0  0  0  0  0 
    1.2705   -0.4071    1.9052 H   0  0  0  0  0  0  0  0  0  0  0  0 
    1.0197    0.3095   -2.3168 H   0  0  0  0  0  0  0  0  0  0  0  0 
    3.0821   -1.8900   -1.5816 H   0  0  0  0  0  0  0  0  0  0  0  0 
    2.6123    2.0102   -1.1363 H   0  0  0  0  0  0  0  0  0  0  0  0 
    3.6914    1.9275    0.2552 H   0  0  0  0  0  0  0  0  0  0  0  0 
    4.3082   -0.5927    0.8231 H   0  0  0  0  0  0  0  0  0  0  0  0 
  1 13  1  0  0  0  0 
  1  2  2  0  0  0  0 
  2 14  1  0  0  0  0 
  3  1  1  0  0  0  0 
  4  5  1  0  0  0  0 
  4  8  2  0  0  0  0 
  5 18  1  0  0  0  0 
  5  9  1  0  0  0  0 
  6  2  1  0  0  0  0 
  6 19  1  0  0  0  0 
  7  3  2  0  0  0  0 
  7 10  1  0  0  0  0 
  8 11  1  0  0  0  0 
  9 11  1  0  0  0  0 
  9 23  1  0  0  0  0 
 10  6  2  0  0  0  0 
 11 10  1  0  0  0  0 
 11 12  1  1  0  0  0 
 15  3  1  0  0  0  0 
 16  4  1  0  0  0  0 
 17  5  1  0  0  0  0 
 20  7  1  0  0  0  0 
 21  8  1  0  0  0  0 
 22  9  1  0  0  0  0 
 24 12  1  0  0  0  0 
M  END 
>  <HBA> 
1 
 
>  <HBD> 
1 
 
>  <TPSA> 
20.23 
 
>  <cid> 
41963 
 
>  <dipole> 
1.94 
 
>  <excitation_energy_1> 
5.265 
 
>  <excitation_energy_2> 
5.648 
 
>  <excitation_energy_3> 
5.789 
 
>  <excitation_energy_4> 
5.933 
 
>  <homo_energy> 
-6.319 
 
>  <homo_lumo_gap> 
6.433 
 
>  <logP> 
2.224 
 
>  <lumo_energy> 
0.114 
 
>  <melting_point> 
62.43 
 
>  <molecular_refractivity> 
49.09 
 
>  <oscillator_strength_1> 
0.0014 
 
>  <oscillator_strength_2> 
0.0198 
 
>  <oscillator_strength_3> 
0.011 
 
>  <oscillator_strength_4> 
0.0347 
 
>  <open_babel_can_smiles> 
O[C@]1(CCC=C1)c1ccccc1 
 
>  <mulliken_charges> 
24 
1   -0.12695 
2   -0.13249 
3   -0.136616 
4   -0.126058 
5   -0.31604 
6   -0.17176 
7   -0.178138 
8   -0.117975 
9   -0.305921 
10   0.107743 
11   0.234054 
12   -0.651517 
13   0.124683 
14   0.126117 
15   0.12512 
16   0.133614 
17   0.150756 
18   0.146639 
19   0.154992 
20   0.125344 
21   0.138141 
22   0.156331 
23   0.152345 
24   0.387587 
 
>  <lowdin_charges> 
24 
1   -0.158699 
2   -0.156708 
3   -0.159177 
4   -0.164563 
5   -0.282946 
6   -0.160732 
7   -0.168534 
8   -0.18695 
9   -0.29386 
10   -0.010607 
11   0.124489 
12   -0.452899 
13   0.153335 
14   0.155695 
15   0.155877 
16   0.15783 
17   0.153714 
18   0.148047 
19   0.172434 
20   0.156193 
21   0.161724 
22   0.159356 
23   0.156102 
24   0.34088 
 
$$$$ 
 
