PCCDB-ID:  8041 
public computational chemistry database (PCCDB) project, http://pccdb.org 
 
 21 20  0  0  0  0  0  0  0  0999 V2000 
    1.0948   -3.4621   -5.5630 C   0  0  0  0  0  0  0  0  0  0  0  0 
    0.3892   -6.6621    1.3538 C   0  0  0  0  0  0  0  0  0  0  0  0 
    0.8690   -3.8799   -4.3122 C   0  0  0  0  0  0  0  0  0  0  0  0 
    0.6199   -5.9823    0.2248 C   0  0  0  0  0  0  0  0  0  0  0  0 
    0.7583   -3.6640   -1.4558 C   0  0  0  0  0  0  0  0  0  0  0  0 
    1.9371   -4.3294   -3.3812 C   0  0  0  0  0  0  0  0  0  0  0  0 
   -0.4470   -5.5439   -0.7129 C   0  0  0  0  0  0  0  0  0  0  0  0 
    1.9176   -4.2735   -2.1090 N   0  0  0  0  0  0  0  0  0  0  0  0 
   -0.4162   -4.5366   -1.4914 N   0  0  0  0  0  0  0  0  0  0  0  0 
    3.0665   -4.8427   -3.9532 O   0  0  0  0  0  0  0  0  0  0  0  0 
   -1.5888   -6.2940   -0.7285 O   0  0  0  0  0  0  0  0  0  0  0  0 
    0.2811   -3.1387   -6.2054 H   0  0  0  0  0  0  0  0  0  0  0  0 
    2.0955   -3.3919   -5.9851 H   0  0  0  0  0  0  0  0  0  0  0  0 
    1.2016   -6.9574    2.0110 H   0  0  0  0  0  0  0  0  0  0  0  0 
   -0.6144   -6.9214    1.6857 H   0  0  0  0  0  0  0  0  0  0  0  0 
   -0.1387   -3.9034   -3.9066 H   0  0  0  0  0  0  0  0  0  0  0  0 
    1.6307   -5.7058   -0.0619 H   0  0  0  0  0  0  0  0  0  0  0  0 
    0.4740   -2.7176   -1.9339 H   0  0  0  0  0  0  0  0  0  0  0  0 
    1.0551   -3.4239   -0.4264 H   0  0  0  0  0  0  0  0  0  0  0  0 
    2.8644   -5.0730   -4.8737 H   0  0  0  0  0  0  0  0  0  0  0  0 
   -1.3978   -7.1488   -0.3113 H   0  0  0  0  0  0  0  0  0  0  0  0 
  1  3  2  0  0  0  0 
  2 15  1  0  0  0  0 
  2 14  1  0  0  0  0 
  3 16  1  0  0  0  0 
  3  6  1  0  0  0  0 
  4  2  2  0  0  0  0 
  5 19  1  0  0  0  0 
  6  8  2  0  0  0  0 
  7  4  1  0  0  0  0 
  8  5  1  0  0  0  0 
  9  5  1  0  0  0  0 
  9  7  2  0  0  0  0 
 10  6  1  0  0  0  0 
 11  7  1  0  0  0  0 
 11 21  1  0  0  0  0 
 12  1  1  0  0  0  0 
 13  1  1  0  0  0  0 
 17  4  1  0  0  0  0 
 18  5  1  0  0  0  0 
 20 10  1  0  0  0  0 
M  END 
>  <HBA> 
4 
 
>  <HBD> 
2 
 
>  <TPSA> 
58.2 
 
>  <cid> 
8041 
 
>  <dipole> 
1.58 
 
>  <excitation_energy_1> 
4.055 
 
>  <excitation_energy_2> 
4.12 
 
>  <excitation_energy_3> 
4.785 
 
>  <excitation_energy_4> 
4.792 
 
>  <homo_energy> 
-6.327 
 
>  <homo_lumo_gap> 
5.108 
 
>  <logP> 
0.33 
 
>  <lumo_energy> 
-1.219 
 
>  <melting_point> 
28.72 
 
>  <molecular_refractivity> 
40.82 
 
>  <oscillator_strength_1> 
0.0214 
 
>  <oscillator_strength_2> 
0.0005 
 
>  <oscillator_strength_3> 
0.007 
 
>  <oscillator_strength_4> 
0.0001 
 
>  <open_babel_can_smiles> 
C=C/C(=N\C/N=C(\C=C)/O)/O 
 
>  <mulliken_charges> 
21 
1   -0.357187 
2   -0.356974 
3   -0.125105 
4   -0.125443 
5   -0.078236 
6   0.464356 
7   0.464597 
8   -0.427589 
9   -0.427626 
10   -0.584923 
11   -0.584944 
12   0.165651 
13   0.153894 
14   0.165646 
15   0.153936 
16   0.198404 
17   0.198358 
18   0.14874 
19   0.148715 
20   0.402871 
21   0.402861 
 
>  <lowdin_charges> 
21 
1   -0.312432 
2   -0.312267 
3   -0.1825 
4   -0.182795 
5   -0.14295 
6   0.129994 
7   0.13135 
8   -0.217585 
9   -0.218483 
10   -0.362201 
11   -0.363714 
12   0.173539 
13   0.160007 
14   0.173472 
15   0.160014 
16   0.189523 
17   0.189442 
18   0.139974 
19   0.138988 
20   0.35374 
21   0.354887 
 
$$$$ 
 
