PCCDB-ID:  7523 
public computational chemistry database (PCCDB) project, http://pccdb.org 
 
 17 17  0  0  0  0  0  0  0  0999 V2000 
    3.7102   -0.1859    1.0077 C   0  0  0  0  0  0  0  0  0  0  0  0 
    2.5998   -0.1373   -0.0550 C   0  0  0  0  0  0  0  0  0  0  0  0 
    3.5159    1.3081   -3.4652 C   0  0  0  0  0  0  0  0  0  0  0  0 
    3.5224    2.6616   -3.1342 C   0  0  0  0  0  0  0  0  0  0  0  0 
    3.2098    0.3768   -2.4743 C   0  0  0  0  0  0  0  0  0  0  0  0 
    3.2207    3.0140   -1.8176 C   0  0  0  0  0  0  0  0  0  0  0  0 
    2.9190    0.8243   -1.1789 C   0  0  0  0  0  0  0  0  0  0  0  0 
    2.9259    2.1309   -0.8587 N   0  0  0  0  0  0  0  0  0  0  0  0 
    3.4276   -0.8434    1.8374 H   0  0  0  0  0  0  0  0  0  0  0  0 
    3.8934    0.8166    1.4063 H   0  0  0  0  0  0  0  0  0  0  0  0 
    4.6490   -0.5594    0.5824 H   0  0  0  0  0  0  0  0  0  0  0  0 
    1.6651    0.1850    0.4202 H   0  0  0  0  0  0  0  0  0  0  0  0 
    2.4266   -1.1398   -0.4644 H   0  0  0  0  0  0  0  0  0  0  0  0 
    3.7425    0.9818   -4.4770 H   0  0  0  0  0  0  0  0  0  0  0  0 
    3.7531    3.4258   -3.8704 H   0  0  0  0  0  0  0  0  0  0  0  0 
    3.1941   -0.6864   -2.6977 H   0  0  0  0  0  0  0  0  0  0  0  0 
    3.2125    4.0615   -1.5181 H   0  0  0  0  0  0  0  0  0  0  0  0 
  1 10  1  0  0  0  0 
  1  9  1  0  0  0  0 
  2 12  1  0  0  0  0 
  2  1  1  0  0  0  0 
  3  4  2  0  0  0  0 
  3  5  1  0  0  0  0 
  4  6  1  0  0  0  0 
  5  7  2  0  0  0  0 
  6 17  1  0  0  0  0 
  6  8  2  0  0  0  0 
  7  8  1  0  0  0  0 
  7  2  1  0  0  0  0 
 11  1  1  0  0  0  0 
 13  2  1  0  0  0  0 
 14  3  1  0  0  0  0 
 15  4  1  0  0  0  0 
 16  5  1  0  0  0  0 
M  END 
>  <HBA> 
1 
 
>  <HBD> 
0 
 
>  <TPSA> 
12.89 
 
>  <cid> 
7523 
 
>  <dipole> 
1.76 
 
>  <excitation_energy_1> 
4.827 
 
>  <excitation_energy_2> 
5.178 
 
>  <excitation_energy_3> 
5.356 
 
>  <excitation_energy_4> 
6.114 
 
>  <homo_energy> 
-6.748 
 
>  <homo_lumo_gap> 
6.21 
 
>  <logP> 
1.644 
 
>  <lumo_energy> 
-0.539 
 
>  <melting_point> 
21.99 
 
>  <molecular_refractivity> 
34.01 
 
>  <oscillator_strength_1> 
0.0042 
 
>  <oscillator_strength_2> 
0.0002 
 
>  <oscillator_strength_3> 
0.0606 
 
>  <oscillator_strength_4> 
0.0693 
 
>  <open_babel_can_smiles> 
CCc1ccccn1 
 
>  <mulliken_charges> 
17 
1   -0.441462 
2   -0.310434 
3   -0.100675 
4   -0.143393 
5   -0.174044 
6   0.03703 
7   0.303769 
8   -0.462644 
9   0.14233 
10   0.169743 
11   0.142316 
12   0.158005 
13   0.134001 
14   0.140515 
15   0.135204 
16   0.131542 
17   0.138196 
 
>  <lowdin_charges> 
17 
1   -0.440555 
2   -0.273854 
3   -0.126547 
4   -0.184464 
5   -0.18404 
6   -0.084584 
7   0.055722 
8   -0.160356 
9   0.150185 
10   0.160167 
11   0.147461 
12   0.159715 
13   0.143599 
14   0.16117 
15   0.164107 
16   0.159019 
17   0.153254 
 
$$$$ 
 
