PCCDB-ID:  11542 
public computational chemistry database (PCCDB) project, http://pccdb.org 
 
 23 22  0  0  0  0  0  0  0  0999 V2000 
    1.1434   -0.0905    0.3717 C   0  0  0  0  0  0  0  0  0  0  0  0 
    5.3764    1.4735   -0.1833 C   0  0  0  0  0  0  0  0  0  0  0  0 
    5.3380   -0.8179   -1.2256 C   0  0  0  0  0  0  0  0  0  0  0  0 
    4.9663    1.2147   -2.6427 C   0  0  0  0  0  0  0  0  0  0  0  0 
    2.6743   -0.0711    0.2867 C   0  0  0  0  0  0  0  0  0  0  0  0 
    3.1756    0.5170   -1.0407 C   0  0  0  0  0  0  0  0  0  0  0  0 
    4.7109    0.5898   -1.2566 C   0  0  0  0  0  0  0  0  0  0  0  0 
    0.8009   -0.5104    1.3245 H   0  0  0  0  0  0  0  0  0  0  0  0 
    0.7085   -0.6947   -0.4341 H   0  0  0  0  0  0  0  0  0  0  0  0 
    0.7282    0.9213    0.2849 H   0  0  0  0  0  0  0  0  0  0  0  0 
    6.4492    1.5852   -0.3834 H   0  0  0  0  0  0  0  0  0  0  0  0 
    5.2730    1.0460    0.8202 H   0  0  0  0  0  0  0  0  0  0  0  0 
    4.9345    2.4779   -0.1674 H   0  0  0  0  0  0  0  0  0  0  0  0 
    6.4098   -0.7699   -1.4544 H   0  0  0  0  0  0  0  0  0  0  0  0 
    4.8685   -1.4765   -1.9674 H   0  0  0  0  0  0  0  0  0  0  0  0 
    5.2343   -1.2920   -0.2432 H   0  0  0  0  0  0  0  0  0  0  0  0 
    6.0410    1.2885   -2.8504 H   0  0  0  0  0  0  0  0  0  0  0  0 
    4.5436    2.2252   -2.7065 H   0  0  0  0  0  0  0  0  0  0  0  0 
    4.5125    0.6120   -3.4393 H   0  0  0  0  0  0  0  0  0  0  0  0 
    3.0523   -1.0939    0.4128 H   0  0  0  0  0  0  0  0  0  0  0  0 
    3.0714    0.5089    1.1298 H   0  0  0  0  0  0  0  0  0  0  0  0 
    2.7660    1.5331   -1.1472 H   0  0  0  0  0  0  0  0  0  0  0  0 
    2.7417   -0.0683   -1.8659 H   0  0  0  0  0  0  0  0  0  0  0  0 
  1  8  1  0  0  0  0 
  2 13  1  0  0  0  0 
  2 12  1  0  0  0  0 
  3 16  1  0  0  0  0 
  4  7  1  0  0  0  0 
  5  1  1  0  0  0  0 
  5 20  1  0  0  0  0 
  5 21  1  0  0  0  0 
  6  5  1  0  0  0  0 
  7  3  1  0  0  0  0 
  7  6  1  0  0  0  0 
  7  2  1  0  0  0  0 
  9  1  1  0  0  0  0 
 10  1  1  0  0  0  0 
 11  2  1  0  0  0  0 
 14  3  1  0  0  0  0 
 15  3  1  0  0  0  0 
 17  4  1  0  0  0  0 
 18  4  1  0  0  0  0 
 19  4  1  0  0  0  0 
 22  6  1  0  0  0  0 
 23  6  1  0  0  0  0 
M  END 
>  <HBA> 
0 
 
>  <HBD> 
0 
 
>  <TPSA> 
0.0 
 
>  <cid> 
11542 
 
>  <dipole> 
0.06 
 
>  <excitation_energy_1> 
7.677 
 
>  <excitation_energy_2> 
7.839 
 
>  <excitation_energy_3> 
7.932 
 
>  <excitation_energy_4> 
8.129 
 
>  <homo_energy> 
-8.155 
 
>  <homo_lumo_gap> 
10.278 
 
>  <logP> 
2.833 
 
>  <lumo_energy> 
2.123 
 
>  <melting_point> 
-8.54 
 
>  <molecular_refractivity> 
35.5 
 
>  <oscillator_strength_1> 
0.0575 
 
>  <oscillator_strength_2> 
0.054 
 
>  <oscillator_strength_3> 
0.052 
 
>  <oscillator_strength_4> 
0.0015 
 
>  <open_babel_can_smiles> 
CCCC(C)(C)C 
 
>  <mulliken_charges> 
23 
1   -0.442022 
2   -0.444697 
3   -0.444629 
4   -0.440636 
5   -0.258812 
6   -0.239754 
7   0.10126 
8   0.140565 
9   0.140928 
10   0.140935 
11   0.13648 
12   0.141637 
13   0.135867 
14   0.136502 
15   0.135893 
16   0.141475 
17   0.135773 
18   0.136466 
19   0.136443 
20   0.13421 
21   0.134273 
22   0.120946 
23   0.120897 
 
>  <lowdin_charges> 
23 
1   -0.443954 
2   -0.441069 
3   -0.443723 
4   -0.440274 
5   -0.276866 
6   -0.275029 
7   0.014642 
8   0.148583 
9   0.146755 
10   0.145091 
11   0.144992 
12   0.146355 
13   0.144994 
14   0.144981 
15   0.146914 
16   0.146632 
17   0.143894 
18   0.144861 
19   0.146666 
20   0.139754 
21   0.141522 
22   0.136284 
23   0.137995 
 
$$$$ 
 
