PCCDB-ID:  69354 
public computational chemistry database (PCCDB) project, http://pccdb.org 
 
 19 18  0  0  0  0  0  0  0  0999 V2000 
    6.1152   -1.1391   -1.7773 C   0  0  0  0  0  0  0  0  0  0  0  0 
    1.2848   -2.6817   -5.4682 C   0  0  0  0  0  0  0  0  0  0  0  0 
    3.5701   -0.6616   -1.6767 C   0  0  0  0  0  0  0  0  0  0  0  0 
    2.2824   -1.3062   -2.1828 C   0  0  0  0  0  0  0  0  0  0  0  0 
    4.7140   -1.6734   -1.5699 C   0  0  0  0  0  0  0  0  0  0  0  0 
    2.4067   -1.7056   -3.6402 C   0  0  0  0  0  0  0  0  0  0  0  0 
    4.4946   -2.8434   -1.3193 O   0  0  0  0  0  0  0  0  0  0  0  0 
    3.4020   -1.5640   -4.3207 O   0  0  0  0  0  0  0  0  0  0  0  0 
    1.2594   -2.2460   -4.0983 O   0  0  0  0  0  0  0  0  0  0  0  0 
    6.2340   -0.8816   -2.8377 H   0  0  0  0  0  0  0  0  0  0  0  0 
    6.8534   -1.8952   -1.5026 H   0  0  0  0  0  0  0  0  0  0  0  0 
    6.2811   -0.2208   -1.2006 H   0  0  0  0  0  0  0  0  0  0  0  0 
    0.2922   -3.0881   -5.6637 H   0  0  0  0  0  0  0  0  0  0  0  0 
    2.0499   -3.4491   -5.6115 H   0  0  0  0  0  0  0  0  0  0  0  0 
    1.4946   -1.8412   -6.1352 H   0  0  0  0  0  0  0  0  0  0  0  0 
    3.4083   -0.2532   -0.6686 H   0  0  0  0  0  0  0  0  0  0  0  0 
    3.8678    0.1763   -2.3150 H   0  0  0  0  0  0  0  0  0  0  0  0 
    1.4219   -0.6363   -2.0733 H   0  0  0  0  0  0  0  0  0  0  0  0 
    2.0611   -2.2082   -1.6023 H   0  0  0  0  0  0  0  0  0  0  0  0 
  1  5  1  0  0  0  0 
  1 11  1  0  0  0  0 
  1 12  1  0  0  0  0 
  2  9  1  0  0  0  0 
  3  5  1  0  0  0  0 
  3 16  1  0  0  0  0 
  4 18  1  0  0  0  0 
  4  3  1  0  0  0  0 
  4 19  1  0  0  0  0 
  5  7  2  0  0  0  0 
  6  4  1  0  0  0  0 
  8  6  2  0  0  0  0 
  9  6  1  0  0  0  0 
 10  1  1  0  0  0  0 
 13  2  1  0  0  0  0 
 14  2  1  0  0  0  0 
 15  2  1  0  0  0  0 
 17  3  1  0  0  0  0 
M  END 
>  <HBA> 
3 
 
>  <HBD> 
0 
 
>  <TPSA> 
43.37 
 
>  <cid> 
69354 
 
>  <dipole> 
2.35 
 
>  <excitation_energy_1> 
4.5 
 
>  <excitation_energy_2> 
5.904 
 
>  <excitation_energy_3> 
6.049 
 
>  <excitation_energy_4> 
6.127 
 
>  <homo_energy> 
-6.623 
 
>  <homo_lumo_gap> 
6.422 
 
>  <logP> 
0.529 
 
>  <lumo_energy> 
-0.201 
 
>  <melting_point> 
7.27 
 
>  <molecular_refractivity> 
32.44 
 
>  <oscillator_strength_1> 
0.0 
 
>  <oscillator_strength_2> 
0.0007 
 
>  <oscillator_strength_3> 
0.0005 
 
>  <oscillator_strength_4> 
0.0213 
 
>  <open_babel_can_smiles> 
COC(=O)CCC(=O)C 
 
>  <mulliken_charges> 
19 
1   -0.535915 
2   -0.2189 
3   -0.350851 
4   -0.361889 
5   0.477761 
6   0.636287 
7   -0.44901 
8   -0.485921 
9   -0.452194 
10   0.191784 
11   0.176649 
12   0.159656 
13   0.16556 
14   0.174402 
15   0.169083 
16   0.165808 
17   0.16371 
18   0.17151 
19   0.202471 
 
>  <lowdin_charges> 
19 
1   -0.47304 
2   -0.2777 
3   -0.30713 
4   -0.301919 
5   0.172504 
6   0.202494 
7   -0.242852 
8   -0.272183 
9   -0.190034 
10   0.18144 
11   0.172206 
12   0.164602 
13   0.160731 
14   0.162098 
15   0.159547 
16   0.168772 
17   0.163381 
18   0.171181 
19   0.185901 
 
$$$$ 
 
