PCCDB-ID:  51055 
public computational chemistry database (PCCDB) project, http://pccdb.org 
 
 27 28  0  0  0  0  0  0  0  0999 V2000 
    0.9514    0.0260    0.0254 C   0  0  0  0  0  0  0  0  0  0  0  0 
    7.0006    0.8679    0.1118 C   0  0  0  0  0  0  0  0  0  0  0  0 
    6.9827   -0.5579    0.1195 C   0  0  0  0  0  0  0  0  0  0  0  0 
    5.8157    1.5614    0.0925 C   0  0  0  0  0  0  0  0  0  0  0  0 
    2.9969   -2.4868    0.1068 C   0  0  0  0  0  0  0  0  0  0  0  0 
    3.0834   -3.1271    1.5062 C   0  0  0  0  0  0  0  0  0  0  0  0 
    5.7972   -1.2343    0.1135 C   0  0  0  0  0  0  0  0  0  0  0  0 
    3.2402    1.2528    0.0558 C   0  0  0  0  0  0  0  0  0  0  0  0 
    2.4536    0.0812    0.0530 C   0  0  0  0  0  0  0  0  0  0  0  0 
    4.5796    0.8736    0.0838 C   0  0  0  0  0  0  0  0  0  0  0  0 
    3.3077   -1.0234    0.0785 C   0  0  0  0  0  0  0  0  0  0  0  0 
    2.8618   -4.5740    1.4130 N   0  0  0  0  0  0  0  0  0  0  0  0 
    4.6042   -0.5435    0.0998 N   0  0  0  0  0  0  0  0  0  0  0  0 
    0.5293    1.0336   -0.0404 H   0  0  0  0  0  0  0  0  0  0  0  0 
    0.5384   -0.4447    0.9268 H   0  0  0  0  0  0  0  0  0  0  0  0 
    0.5774   -0.5436   -0.8353 H   0  0  0  0  0  0  0  0  0  0  0  0 
    7.9487    1.3961    0.1188 H   0  0  0  0  0  0  0  0  0  0  0  0 
    7.9081   -1.1238    0.1311 H   0  0  0  0  0  0  0  0  0  0  0  0 
    5.7978    2.6471    0.0816 H   0  0  0  0  0  0  0  0  0  0  0  0 
    1.9806   -2.6309   -0.2830 H   0  0  0  0  0  0  0  0  0  0  0  0 
    3.6581   -3.0501   -0.5662 H   0  0  0  0  0  0  0  0  0  0  0  0 
    2.3848   -2.5988    2.1791 H   0  0  0  0  0  0  0  0  0  0  0  0 
    4.0873   -2.9700    1.9190 H   0  0  0  0  0  0  0  0  0  0  0  0 
    5.7256   -2.3146    0.1167 H   0  0  0  0  0  0  0  0  0  0  0  0 
    2.8773    2.2720    0.0386 H   0  0  0  0  0  0  0  0  0  0  0  0 
    1.8985   -4.7539    1.1302 H   0  0  0  0  0  0  0  0  0  0  0  0 
    2.9661   -4.9998    2.3327 H   0  0  0  0  0  0  0  0  0  0  0  0 
  1  9  1  0  0  0  0 
  1 15  1  0  0  0  0 
  2 17  1  0  0  0  0 
  2  3  1  0  0  0  0 
  3 18  1  0  0  0  0 
  4  2  2  0  0  0  0 
  5  6  1  0  0  0  0 
  6 23  1  0  0  0  0 
  6 22  1  0  0  0  0 
  7 24  1  0  0  0  0 
  7  3  2  0  0  0  0 
  8 10  2  0  0  0  0 
  9  8  1  0  0  0  0 
  9 11  2  0  0  0  0 
 10  4  1  0  0  0  0 
 10 13  1  0  0  0  0 
 11 13  1  0  0  0  0 
 11  5  1  0  0  0  0 
 12  6  1  0  0  0  0 
 12 27  1  0  0  0  0 
 13  7  1  0  0  0  0 
 14  1  1  0  0  0  0 
 16  1  1  0  0  0  0 
 19  4  1  0  0  0  0 
 20  5  1  0  0  0  0 
 21  5  1  0  0  0  0 
 25  8  1  0  0  0  0 
 26 12  1  0  0  0  0 
M  END 
>  <HBA> 
2 
 
>  <HBD> 
1 
 
>  <TPSA> 
30.43 
 
>  <cid> 
51055 
 
>  <dipole> 
1.41 
 
>  <excitation_energy_1> 
3.588 
 
>  <excitation_energy_2> 
4.269 
 
>  <excitation_energy_3> 
4.463 
 
>  <excitation_energy_4> 
4.588 
 
>  <homo_energy> 
-4.721 
 
>  <homo_lumo_gap> 
4.351 
 
>  <logP> 
2.449 
 
>  <lumo_energy> 
-0.37 
 
>  <melting_point> 
104.13 
 
>  <molecular_refractivity> 
54.84 
 
>  <oscillator_strength_1> 
0.0392 
 
>  <oscillator_strength_2> 
0.0102 
 
>  <oscillator_strength_3> 
0.008 
 
>  <oscillator_strength_4> 
0.0003 
 
>  <open_babel_can_smiles> 
NCCc1c(C)cc2n1cccc2 
 
>  <mulliken_charges> 
27 
1   -0.536046 
2   -0.127995 
3   -0.186201 
4   -0.192545 
5   -0.340959 
6   -0.135062 
7   0.061688 
8   -0.270623 
9   0.067765 
10   0.350062 
11   0.27575 
12   -0.716891 
13   -0.558087 
14   0.156533 
15   0.154556 
16   0.156432 
17   0.129342 
18   0.134902 
19   0.136758 
20   0.143005 
21   0.15642 
22   0.122298 
23   0.144373 
24   0.16605 
25   0.117828 
26   0.292887 
27   0.297762 
 
>  <lowdin_charges> 
27 
1   -0.441138 
2   -0.178918 
3   -0.188676 
4   -0.158174 
5   -0.282677 
6   -0.207461 
7   -0.113466 
8   -0.24565 
9   -0.033521 
10   0.025918 
11   -0.032343 
12   -0.558008 
13   0.046122 
14   0.15911 
15   0.155891 
16   0.157075 
17   0.159463 
18   0.165125 
19   0.163252 
20   0.153436 
21   0.156512 
22   0.123625 
23   0.141976 
24   0.169814 
25   0.157507 
26   0.249913 
27   0.255294 
 
$$$$ 
 
