PCCDB-ID:  65289 
public computational chemistry database (PCCDB) project, http://pccdb.org 
 
 27 27  0  0  1  0  0  0  0  0999 V2000 
    1.0533   -0.0499    0.5238 C   0  0  0  0  0  0  0  0  0  0  0  0 
    6.3173    1.2226    1.8251 C   0  0  0  0  0  0  0  0  0  0  0  0 
    6.7122   -0.0359   -1.1299 C   0  0  0  0  0  0  0  0  0  0  0  0 
    3.1296   -1.2043   -0.2426 C   0  0  0  0  0  0  0  0  0  0  0  0 
    3.2148    1.2592    0.0842 C   0  0  0  0  0  0  0  0  0  0  0  0 
    4.5789   -1.2977   -0.6492 C   0  0  0  0  0  0  0  0  0  0  0  0 
    4.5622    1.2142   -0.6528 C   0  0  0  0  0  0  0  0  0  0  0  0 
    2.4980   -0.0739    0.0967 C   0  0  0  0  0  0  0  0  0  0  0  0 
    5.8186   -0.0675    1.1836 C   0  0  0  0  0  0  0  0  0  0  0  0 
    5.4006   -0.0377   -0.3084 C   0  0  2  0  0  0  0  0  0  0  0  0 
    5.8015   -1.0988    1.8291 O   0  0  0  0  0  0  0  0  0  0  0  0 
    0.6187   -1.0545    0.5394 H   0  0  0  0  0  0  0  0  0  0  0  0 
    0.4478    0.5739   -0.1491 H   0  0  0  0  0  0  0  0  0  0  0  0 
    0.9433    0.3807    1.5294 H   0  0  0  0  0  0  0  0  0  0  0  0 
    5.4762    1.8984    2.0208 H   0  0  0  0  0  0  0  0  0  0  0  0 
    7.0199    1.7631    1.1820 H   0  0  0  0  0  0  0  0  0  0  0  0 
    6.7978    0.9795    2.7748 H   0  0  0  0  0  0  0  0  0  0  0  0 
    6.4810   -0.0109   -2.2011 H   0  0  0  0  0  0  0  0  0  0  0  0 
    7.3003   -0.9390   -0.9311 H   0  0  0  0  0  0  0  0  0  0  0  0 
    7.3389    0.8347   -0.9063 H   0  0  0  0  0  0  0  0  0  0  0  0 
    2.5764   -2.1433   -0.2263 H   0  0  0  0  0  0  0  0  0  0  0  0 
    2.5714    2.0189   -0.3832 H   0  0  0  0  0  0  0  0  0  0  0  0 
    3.3493    1.6035    1.1226 H   0  0  0  0  0  0  0  0  0  0  0  0 
    4.6441   -1.4834   -1.7328 H   0  0  0  0  0  0  0  0  0  0  0  0 
    5.0397   -2.1625   -0.1600 H   0  0  0  0  0  0  0  0  0  0  0  0 
    5.1307    2.1325   -0.4611 H   0  0  0  0  0  0  0  0  0  0  0  0 
    4.3744    1.1914   -1.7347 H   0  0  0  0  0  0  0  0  0  0  0  0 
  1 12  1  0  0  0  0 
  1 14  1  0  0  0  0 
  2 15  1  0  0  0  0 
  2 17  1  0  0  0  0 
  3 19  1  0  0  0  0 
  3 20  1  0  0  0  0 
  3 10  1  0  0  0  0 
  4 21  1  0  0  0  0 
  4  8  2  0  0  0  0 
  5  8  1  0  0  0  0 
  5 23  1  0  0  0  0 
  6 10  1  0  0  0  0 
  6  4  1  0  0  0  0 
  6 25  1  0  0  0  0 
  7 26  1  0  0  0  0 
  7 10  1  0  0  0  0 
  7  5  1  0  0  0  0 
  8  1  1  0  0  0  0 
  9  2  1  0  0  0  0 
  9 11  2  0  0  0  0 
 10  9  1  1  0  0  0 
 13  1  1  0  0  0  0 
 16  2  1  0  0  0  0 
 18  3  1  0  0  0  0 
 22  5  1  0  0  0  0 
 24  6  1  0  0  0  0 
 27  7  1  0  0  0  0 
M  END 
>  <HBA> 
1 
 
>  <HBD> 
0 
 
>  <TPSA> 
17.07 
 
>  <cid> 
65289 
 
>  <dipole> 
2.67 
 
>  <excitation_energy_1> 
4.301 
 
>  <excitation_energy_2> 
4.909 
 
>  <excitation_energy_3> 
5.585 
 
>  <excitation_energy_4> 
5.951 
 
>  <homo_energy> 
-6.191 
 
>  <homo_lumo_gap> 
5.916 
 
>  <logP> 
2.712 
 
>  <lumo_energy> 
-0.275 
 
>  <melting_point> 
46.65 
 
>  <molecular_refractivity> 
47.54 
 
>  <oscillator_strength_1> 
0.0003 
 
>  <oscillator_strength_2> 
0.0018 
 
>  <oscillator_strength_3> 
0.0018 
 
>  <oscillator_strength_4> 
0.0114 
 
>  <open_babel_can_smiles> 
CC1=CC[C@](CC1)(C)C(=O)C 
 
>  <mulliken_charges> 
27 
1   -0.513235 
2   -0.54301 
3   -0.467166 
4   -0.165219 
5   -0.340244 
6   -0.300543 
7   -0.279503 
8   0.189302 
9   0.465378 
10   -0.00387 
11   -0.443257 
12   0.153547 
13   0.147451 
14   0.150389 
15   0.17603 
16   0.164797 
17   0.179193 
18   0.152295 
19   0.16077 
20   0.143593 
21   0.113873 
22   0.141071 
23   0.14255 
24   0.134073 
25   0.169211 
26   0.130754 
27   0.14177 
 
>  <lowdin_charges> 
27 
1   -0.438807 
2   -0.479882 
3   -0.437551 
4   -0.185131 
5   -0.280287 
6   -0.275107 
7   -0.274079 
8   -0.021444 
9   0.168751 
10   -0.022146 
11   -0.233881 
12   0.155694 
13   0.152889 
14   0.152635 
15   0.172623 
16   0.165422 
17   0.17338 
18   0.152881 
19   0.15839 
20   0.148825 
21   0.149769 
22   0.151259 
23   0.143475 
24   0.144755 
25   0.166615 
26   0.144062 
27   0.146887 
 
$$$$ 
 
