PCCDB-ID:  41577 
public computational chemistry database (PCCDB) project, http://pccdb.org 
 
 32 32  0  0  0  0  0  0  0  0999 V2000 
    2.2179   -2.8595    0.5493 C   0  0  0  0  0  0  0  0  0  0  0  0 
    3.1400   -0.7160   -2.6249 C   0  0  0  0  0  0  0  0  0  0  0  0 
    2.0342    0.1208   -0.5479 C   0  0  0  0  0  0  0  0  0  0  0  0 
    2.3006   -2.3658   -0.8994 C   0  0  0  0  0  0  0  0  0  0  0  0 
    4.2942    3.3397    1.1959 C   0  0  0  0  0  0  0  0  0  0  0  0 
    4.6680    2.2049    0.4818 C   0  0  0  0  0  0  0  0  0  0  0  0 
    3.7185    3.2398    2.4637 C   0  0  0  0  0  0  0  0  0  0  0  0 
    3.9025    0.8211    2.3217 C   0  0  0  0  0  0  0  0  0  0  0  0 
    4.4544    0.9278    1.0369 C   0  0  0  0  0  0  0  0  0  0  0  0 
    3.5303    1.9705    3.0215 C   0  0  0  0  0  0  0  0  0  0  0  0 
    4.3725   -0.9723   -0.4581 C   0  0  0  0  0  0  0  0  0  0  0  0 
    2.9664   -0.9694   -1.1056 C   0  0  0  0  0  0  0  0  0  0  0  0 
    4.9261   -0.2096    0.3842 N   0  0  0  0  0  0  0  0  0  0  0  0 
    2.9801    1.7892    4.2633 O   0  0  0  0  0  0  0  0  0  0  0  0 
    5.1764   -1.9934   -0.8957 O   0  0  0  0  0  0  0  0  0  0  0  0 
    1.7200   -3.8343    0.5914 H   0  0  0  0  0  0  0  0  0  0  0  0 
    1.6480   -2.1711    1.1816 H   0  0  0  0  0  0  0  0  0  0  0  0 
    3.2145   -2.9739    0.9893 H   0  0  0  0  0  0  0  0  0  0  0  0 
    2.1631   -0.7493   -3.1207 H   0  0  0  0  0  0  0  0  0  0  0  0 
    3.7813   -1.4610   -3.1102 H   0  0  0  0  0  0  0  0  0  0  0  0 
    3.5806    0.2696   -2.8086 H   0  0  0  0  0  0  0  0  0  0  0  0 
    1.0623    0.0410   -1.0497 H   0  0  0  0  0  0  0  0  0  0  0  0 
    2.4272    1.1232   -0.7309 H   0  0  0  0  0  0  0  0  0  0  0  0 
    1.8704    0.0257    0.5270 H   0  0  0  0  0  0  0  0  0  0  0  0 
    1.2921   -2.3051   -1.3287 H   0  0  0  0  0  0  0  0  0  0  0  0 
    2.8179   -3.1265   -1.5043 H   0  0  0  0  0  0  0  0  0  0  0  0 
    4.4549    4.3228    0.7607 H   0  0  0  0  0  0  0  0  0  0  0  0 
    5.1327    2.2878   -0.4957 H   0  0  0  0  0  0  0  0  0  0  0  0 
    3.4327    4.1322    3.0169 H   0  0  0  0  0  0  0  0  0  0  0  0 
    3.7664   -0.1518    2.7818 H   0  0  0  0  0  0  0  0  0  0  0  0 
    2.7835    2.6588    4.6444 H   0  0  0  0  0  0  0  0  0  0  0  0 
    4.6862   -2.5474   -1.5207 H   0  0  0  0  0  0  0  0  0  0  0  0 
  1 16  1  0  0  0  0 
  1 18  1  0  0  0  0 
  1 17  1  0  0  0  0 
  2 12  1  0  0  0  0 
  3 24  1  0  0  0  0 
  4  1  1  0  0  0  0 
  5  7  2  0  0  0  0 
  6  9  2  0  0  0  0 
  6  5  1  0  0  0  0 
  7 29  1  0  0  0  0 
  7 10  1  0  0  0  0 
  8 30  1  0  0  0  0 
  8 10  2  0  0  0  0 
  9  8  1  0  0  0  0 
 10 14  1  0  0  0  0 
 11 13  2  0  0  0  0 
 12  4  1  0  0  0  0 
 12  3  1  0  0  0  0 
 12 11  1  0  0  0  0 
 13  9  1  0  0  0  0 
 14 31  1  0  0  0  0 
 15 11  1  0  0  0  0 
 19  2  1  0  0  0  0 
 20  2  1  0  0  0  0 
 21  2  1  0  0  0  0 
 22  3  1  0  0  0  0 
 23  3  1  0  0  0  0 
 25  4  1  0  0  0  0 
 26  4  1  0  0  0  0 
 27  5  1  0  0  0  0 
 28  6  1  0  0  0  0 
 32 15  1  0  0  0  0 
M  END 
>  <HBA> 
3 
 
>  <HBD> 
2 
 
>  <TPSA> 
49.33 
 
>  <cid> 
41577 
 
>  <dipole> 
3.74 
 
>  <excitation_energy_1> 
4.533 
 
>  <excitation_energy_2> 
4.883 
 
>  <excitation_energy_3> 
4.892 
 
>  <excitation_energy_4> 
4.999 
 
>  <homo_energy> 
-5.412 
 
>  <homo_lumo_gap> 
5.622 
 
>  <logP> 
2.84 
 
>  <lumo_energy> 
0.21 
 
>  <melting_point> 
115.6 
 
>  <molecular_refractivity> 
61.75 
 
>  <oscillator_strength_1> 
0.0161 
 
>  <oscillator_strength_2> 
0.0006 
 
>  <oscillator_strength_3> 
0.0507 
 
>  <oscillator_strength_4> 
0.0033 
 
>  <open_babel_can_smiles> 
CCC(/C(=N\c1cccc(c1)O)/O)(C)C 
 
>  <mulliken_charges> 
32 
1   -0.458853 
2   -0.448033 
3   -0.466448 
4   -0.269068 
5   -0.139611 
6   -0.163736 
7   -0.203782 
8   -0.202485 
9   0.257395 
10   0.352853 
11   0.500867 
12   -0.004619 
13   -0.492242 
14   -0.647324 
15   -0.587787 
16   0.149584 
17   0.159065 
18   0.168969 
19   0.15374 
20   0.133252 
21   0.163559 
22   0.137911 
23   0.167936 
24   0.170535 
25   0.145356 
26   0.116318 
27   0.126884 
28   0.120912 
29   0.10987 
30   0.134743 
31   0.405299 
32   0.408942 
 
>  <lowdin_charges> 
32 
1   -0.452611 
2   -0.441014 
3   -0.443586 
4   -0.275832 
5   -0.140203 
6   -0.211048 
7   -0.2409 
8   -0.221154 
9   0.070526 
10   0.110356 
11   0.150728 
12   -0.018443 
13   -0.161678 
14   -0.382784 
15   -0.367745 
16   0.155151 
17   0.156729 
18   0.158962 
19   0.155278 
20   0.144791 
21   0.159519 
22   0.148965 
23   0.163983 
24   0.16171 
25   0.149195 
26   0.132666 
27   0.156711 
28   0.156689 
29   0.150986 
30   0.167406 
31   0.355423 
32   0.351223 
 
$$$$ 
 
