PCCDB-ID:  67571 
public computational chemistry database (PCCDB) project, http://pccdb.org 
 
 27 30  0  0  0  0  0  0  0  0999 V2000 
   -4.4322   -0.4059   -0.0130 C   0  0  0  0  0  0  0  0  0  0  0  0 
   -3.7367   -1.6359   -0.0277 C   0  0  0  0  0  0  0  0  0  0  0  0 
   -3.7359    0.7844   -0.0020 C   0  0  0  0  0  0  0  0  0  0  0  0 
   -2.3578   -1.6529   -0.0302 C   0  0  0  0  0  0  0  0  0  0  0  0 
   -1.5907    2.0404    0.0066 C   0  0  0  0  0  0  0  0  0  0  0  0 
   -0.2177    2.0670    0.0056 C   0  0  0  0  0  0  0  0  0  0  0  0 
    3.2448   -1.5294   -0.0286 C   0  0  0  0  0  0  0  0  0  0  0  0 
    4.3543   -0.6891   -0.0194 C   0  0  0  0  0  0  0  0  0  0  0  0 
    3.1052    1.2414   -0.0031 C   0  0  0  0  0  0  0  0  0  0  0  0 
   -2.3180    0.8092   -0.0050 C   0  0  0  0  0  0  0  0  0  0  0  0 
   -1.6183   -0.4440   -0.0192 C   0  0  0  0  0  0  0  0  0  0  0  0 
    0.5003    0.8455   -0.0085 C   0  0  0  0  0  0  0  0  0  0  0  0 
    1.9084    0.5155   -0.0116 C   0  0  0  0  0  0  0  0  0  0  0  0 
    1.9984   -0.9011   -0.0250 C   0  0  0  0  0  0  0  0  0  0  0  0 
   -0.1991   -0.3721   -0.0197 C   0  0  0  0  0  0  0  0  0  0  0  0 
    4.3051    0.6591   -0.0072 N   0  0  0  0  0  0  0  0  0  0  0  0 
    0.7196   -1.4151   -0.0298 N   0  0  0  0  0  0  0  0  0  0  0  0 
   -5.5186   -0.4013   -0.0091 H   0  0  0  0  0  0  0  0  0  0  0  0 
   -4.2908   -2.5703   -0.0369 H   0  0  0  0  0  0  0  0  0  0  0  0 
   -4.2712    1.7309    0.0098 H   0  0  0  0  0  0  0  0  0  0  0  0 
   -1.8350   -2.6067   -0.0415 H   0  0  0  0  0  0  0  0  0  0  0  0 
   -2.1552    2.9690    0.0171 H   0  0  0  0  0  0  0  0  0  0  0  0 
    0.3163    3.0129    0.0133 H   0  0  0  0  0  0  0  0  0  0  0  0 
    3.3569   -2.6096   -0.0376 H   0  0  0  0  0  0  0  0  0  0  0  0 
    5.3532   -1.1212   -0.0212 H   0  0  0  0  0  0  0  0  0  0  0  0 
    3.0970    2.3309    0.0063 H   0  0  0  0  0  0  0  0  0  0  0  0 
    0.4901   -2.3965   -0.0369 H   0  0  0  0  0  0  0  0  0  0  0  0 
  1 18  1  0  0  0  0 
  1  3  2  0  0  0  0 
  2  1  1  0  0  0  0 
  3 20  1  0  0  0  0 
  4  2  2  0  0  0  0 
  4 11  1  0  0  0  0 
  5 22  1  0  0  0  0 
  6  5  1  0  0  0  0 
  6 23  1  0  0  0  0 
  7 14  2  0  0  0  0 
  7  8  1  0  0  0  0 
  8 16  2  0  0  0  0 
  9 26  1  0  0  0  0 
 10  3  1  0  0  0  0 
 10  5  2  0  0  0  0 
 11 10  1  0  0  0  0 
 12  6  2  0  0  0  0 
 13 12  1  0  0  0  0 
 13  9  2  0  0  0  0 
 14 13  1  0  0  0  0 
 15 11  2  0  0  0  0 
 15 12  1  0  0  0  0 
 16  9  1  0  0  0  0 
 17 14  1  0  0  0  0 
 17 15  1  0  0  0  0 
 19  2  1  0  0  0  0 
 21  4  1  0  0  0  0 
 24  7  1  0  0  0  0 
 25  8  1  0  0  0  0 
 27 17  1  0  0  0  0 
M  END 
>  <HBA> 
1 
 
>  <HBD> 
1 
 
>  <TPSA> 
28.68 
 
>  <cid> 
67571 
 
>  <dipole> 
3.82 
 
>  <excitation_energy_1> 
3.857 
 
>  <excitation_energy_2> 
3.921 
 
>  <excitation_energy_3> 
4.534 
 
>  <excitation_energy_4> 
4.64 
 
>  <homo_energy> 
-5.502 
 
>  <homo_lumo_gap> 
4.397 
 
>  <logP> 
3.869 
 
>  <lumo_energy> 
-1.105 
 
>  <melting_point> 
201.11 
 
>  <molecular_refractivity> 
71.11 
 
>  <oscillator_strength_1> 
0.0525 
 
>  <oscillator_strength_2> 
0.028 
 
>  <oscillator_strength_3> 
0.2232 
 
>  <oscillator_strength_4> 
0.0004 
 
>  <open_babel_can_smiles> 
c1ccc2c(c1)ccc1c2[nH]c2c1cncc2 
 
>  <mulliken_charges> 
27 
1   -0.127678 
2   -0.143339 
3   -0.208753 
4   -0.179537 
5   -0.209304 
6   -0.191737 
7   -0.194813 
8   0.028404 
9   -0.013032 
10   0.140125 
11   0.134358 
12   0.077029 
13   0.031269 
14   0.381612 
15   0.212692 
16   -0.43485 
17   -0.816101 
18   0.132272 
19   0.131627 
20   0.133449 
21   0.11341 
22   0.128789 
23   0.137256 
24   0.129846 
25   0.137461 
26   0.139545 
27   0.329999 
 
>  <lowdin_charges> 
27 
1   -0.156679 
2   -0.156269 
3   -0.15206 
4   -0.16433 
5   -0.173554 
6   -0.150033 
7   -0.206469 
8   -0.093279 
9   -0.083269 
10   0.004708 
11   -0.017992 
12   -0.037292 
13   -0.053611 
14   0.058594 
15   0.041164 
16   -0.168584 
17   -0.201427 
18   0.158054 
19   0.159898 
20   0.159537 
21   0.148971 
22   0.159152 
23   0.163171 
24   0.160589 
25   0.155642 
26   0.15334 
27   0.292031 
 
$$$$ 
 
