PCCDB-ID:  30958 
public computational chemistry database (PCCDB) project, http://pccdb.org 
 
 37 37  0  0  0  0  0  0  0  0999 V2000 
    2.2948   -4.3790   -1.5942 C   0  0  0  0  0  0  0  0  0  0  0  0 
    4.2496   -0.0126   -3.2596 C   0  0  0  0  0  0  0  0  0  0  0  0 
    2.7439    2.4262    4.4697 C   0  0  0  0  0  0  0  0  0  0  0  0 
    5.6827   -3.5505   -3.1490 C   0  0  0  0  0  0  0  0  0  0  0  0 
    4.6267   -4.2529   -2.5706 C   0  0  0  0  0  0  0  0  0  0  0  0 
    5.5564   -2.1791   -3.3641 C   0  0  0  0  0  0  0  0  0  0  0  0 
    3.0372    1.2617    1.0029 C   0  0  0  0  0  0  0  0  0  0  0  0 
    2.6430    2.2158    2.1182 C   0  0  0  0  0  0  0  0  0  0  0  0 
    2.8285   -1.0821    0.2711 C   0  0  0  0  0  0  0  0  0  0  0  0 
    3.4483   -3.6051   -2.1871 C   0  0  0  0  0  0  0  0  0  0  0  0 
    4.3944   -1.4926   -2.9984 C   0  0  0  0  0  0  0  0  0  0  0  0 
    1.9002   -1.0534   -0.9536 C   0  0  0  0  0  0  0  0  0  0  0  0 
    3.3428   -2.2108   -2.3869 C   0  0  0  0  0  0  0  0  0  0  0  0 
    2.4193   -0.0499    1.2259 N   0  0  0  0  0  0  0  0  0  0  0  0 
    2.1288   -1.5508   -2.0996 N   0  0  0  0  0  0  0  0  0  0  0  0 
    0.7279   -0.4406   -0.7105 O   0  0  0  0  0  0  0  0  0  0  0  0 
    3.1077    1.6617    3.3375 O   0  0  0  0  0  0  0  0  0  0  0  0 
    1.3557   -4.1382   -2.1051 H   0  0  0  0  0  0  0  0  0  0  0  0 
    2.1387   -4.1488   -0.5311 H   0  0  0  0  0  0  0  0  0  0  0  0 
    2.4677   -5.4572   -1.6710 H   0  0  0  0  0  0  0  0  0  0  0  0 
    5.0575    0.3523   -3.9019 H   0  0  0  0  0  0  0  0  0  0  0  0 
    4.2755    0.5774   -2.3328 H   0  0  0  0  0  0  0  0  0  0  0  0 
    3.2905    0.2084   -3.7417 H   0  0  0  0  0  0  0  0  0  0  0  0 
    3.1439    1.9125    5.3475 H   0  0  0  0  0  0  0  0  0  0  0  0 
    1.6502    2.5097    4.5688 H   0  0  0  0  0  0  0  0  0  0  0  0 
    3.1680    3.4414    4.4247 H   0  0  0  0  0  0  0  0  0  0  0  0 
    6.5897   -4.0705   -3.4452 H   0  0  0  0  0  0  0  0  0  0  0  0 
    4.7097   -5.3268   -2.4170 H   0  0  0  0  0  0  0  0  0  0  0  0 
    6.3682   -1.6263   -3.8324 H   0  0  0  0  0  0  0  0  0  0  0  0 
    4.1368    1.1943    0.9541 H   0  0  0  0  0  0  0  0  0  0  0  0 
    2.6860    1.6617    0.0440 H   0  0  0  0  0  0  0  0  0  0  0  0 
    1.5475    2.3369    2.1451 H   0  0  0  0  0  0  0  0  0  0  0  0 
    3.0904    3.2080    1.9438 H   0  0  0  0  0  0  0  0  0  0  0  0 
    3.8728   -0.9923   -0.0575 H   0  0  0  0  0  0  0  0  0  0  0  0 
    2.7260   -2.0624    0.7514 H   0  0  0  0  0  0  0  0  0  0  0  0 
    2.6154   -0.3339    2.1822 H   0  0  0  0  0  0  0  0  0  0  0  0 
    0.8140   -0.1177    0.2211 H   0  0  0  0  0  0  0  0  0  0  0  0 
  1 19  1  0  0  0  0 
  2 11  1  0  0  0  0 
  2 22  1  0  0  0  0 
  3 25  1  0  0  0  0 
  3 24  1  0  0  0  0 
  4  5  1  0  0  0  0 
  5 28  1  0  0  0  0 
  5 10  2  0  0  0  0 
  6  4  2  0  0  0  0 
  6 11  1  0  0  0  0 
  7 14  1  0  0  0  0 
  7  8  1  0  0  0  0 
  8 32  1  0  0  0  0 
  8 17  1  0  0  0  0 
  9 35  1  0  0  0  0 
  9 14  1  0  0  0  0 
 10  1  1  0  0  0  0 
 11 13  2  0  0  0  0 
 12 16  1  0  0  0  0 
 12  9  1  0  0  0  0 
 13 10  1  0  0  0  0 
 13 15  1  0  0  0  0 
 14 36  1  0  0  0  0 
 15 12  2  0  0  0  0 
 16 37  1  0  0  0  0 
 17  3  1  0  0  0  0 
 18  1  1  0  0  0  0 
 20  1  1  0  0  0  0 
 21  2  1  0  0  0  0 
 23  2  1  0  0  0  0 
 26  3  1  0  0  0  0 
 27  4  1  0  0  0  0 
 29  6  1  0  0  0  0 
 30  7  1  0  0  0  0 
 31  7  1  0  0  0  0 
 33  8  1  0  0  0  0 
 34  9  1  0  0  0  0 
M  END 
>  <HBA> 
4 
 
>  <HBD> 
2 
 
>  <TPSA> 
50.36 
 
>  <cid> 
30958 
 
>  <dipole> 
5.68 
 
>  <excitation_energy_1> 
4.63 
 
>  <excitation_energy_2> 
4.908 
 
>  <excitation_energy_3> 
5.026 
 
>  <excitation_energy_4> 
5.305 
 
>  <homo_energy> 
-5.372 
 
>  <homo_lumo_gap> 
5.872 
 
>  <logP> 
1.942 
 
>  <lumo_energy> 
0.501 
 
>  <melting_point> 
84.51 
 
>  <molecular_refractivity> 
68.99 
 
>  <oscillator_strength_1> 
0.003 
 
>  <oscillator_strength_2> 
0.0216 
 
>  <oscillator_strength_3> 
0.0144 
 
>  <oscillator_strength_4> 
0.0034 
 
>  <open_babel_can_smiles> 
COCCNC/C(=N\c1c(C)cccc1C)/O 
 
>  <mulliken_charges> 
37 
1   -0.531775 
2   -0.530044 
3   -0.195265 
4   -0.120451 
5   -0.207463 
6   -0.208168 
7   -0.140824 
8   -0.023112 
9   -0.22748 
10   0.175259 
11   0.175184 
12   0.500071 
13   0.089049 
14   -0.617855 
15   -0.480619 
16   -0.593015 
17   -0.471201 
18   0.178081 
19   0.142279 
20   0.147288 
21   0.146338 
22   0.140103 
23   0.177507 
24   0.163921 
25   0.137793 
26   0.137627 
27   0.116923 
28   0.114059 
29   0.113802 
30   0.147476 
31   0.162152 
32   0.132982 
33   0.132902 
34   0.175103 
35   0.18163 
36   0.334939 
37   0.424801 
 
>  <lowdin_charges> 
37 
1   -0.438377 
2   -0.442968 
3   -0.27623 
4   -0.175912 
5   -0.168895 
6   -0.172688 
7   -0.207412 
8   -0.130387 
9   -0.239581 
10   -0.025013 
11   -0.025013 
12   0.126167 
13   0.026955 
14   -0.361864 
15   -0.182077 
16   -0.360426 
17   -0.278513 
18   0.16818 
19   0.146197 
20   0.151473 
21   0.153619 
22   0.147315 
23   0.167856 
24   0.159029 
25   0.133973 
26   0.135202 
27   0.153392 
28   0.148826 
29   0.151753 
30   0.136366 
31   0.155854 
32   0.131333 
33   0.136134 
34   0.159777 
35   0.170436 
36   0.272862 
37   0.352655 
 
$$$$ 
 
