PCCDB-ID:  20811 
public computational chemistry database (PCCDB) project, http://pccdb.org 
 
 30 29  0  0  1  0  0  0  0  0999 V2000 
    0.9354    0.0346    0.2059 C   0  0  0  0  0  0  0  0  0  0  0  0 
    8.6121   -2.7405   -3.5693 C   0  0  0  0  0  0  0  0  0  0  0  0 
    2.4617   -0.0956    0.1751 C   0  0  0  0  0  0  0  0  0  0  0  0 
    2.9767   -0.9058   -1.0213 C   0  0  0  0  0  0  0  0  0  0  0  0 
    4.5046   -1.0367   -1.0639 C   0  0  0  0  0  0  0  0  0  0  0  0 
    5.0153   -1.8549   -2.2569 C   0  0  0  0  0  0  0  0  0  0  0  0 
    6.5424   -1.9888   -2.2907 C   0  0  0  0  0  0  0  0  0  0  0  0 
    7.0765   -2.8206   -3.4684 C   0  0  2  0  0  0  0  0  0  0  0  0 
    6.9969   -5.0357   -2.3585 N   0  0  0  0  0  0  0  0  0  0  0  0 
    6.5372   -4.1958   -3.4198 N   0  0  0  0  0  0  0  0  0  0  0  0 
    0.5998    0.6154    1.0728 H   0  0  0  0  0  0  0  0  0  0  0  0 
    0.4544   -0.9500    0.2581 H   0  0  0  0  0  0  0  0  0  0  0  0 
    0.5623    0.5361   -0.6957 H   0  0  0  0  0  0  0  0  0  0  0  0 
    8.9377   -1.7049   -3.7203 H   0  0  0  0  0  0  0  0  0  0  0  0 
    8.9828   -3.3358   -4.4127 H   0  0  0  0  0  0  0  0  0  0  0  0 
    9.1059   -3.1005   -2.6577 H   0  0  0  0  0  0  0  0  0  0  0  0 
    2.8074   -0.5658    1.1068 H   0  0  0  0  0  0  0  0  0  0  0  0 
    2.9138    0.9065    0.1555 H   0  0  0  0  0  0  0  0  0  0  0  0 
    2.6265   -0.4376   -1.9535 H   0  0  0  0  0  0  0  0  0  0  0  0 
    2.5266   -1.9096   -1.0002 H   0  0  0  0  0  0  0  0  0  0  0  0 
    4.8542   -1.4989   -0.1281 H   0  0  0  0  0  0  0  0  0  0  0  0 
    4.9538   -0.0323   -1.0896 H   0  0  0  0  0  0  0  0  0  0  0  0 
    4.6754   -1.3847   -3.1917 H   0  0  0  0  0  0  0  0  0  0  0  0 
    4.5664   -2.8559   -2.2458 H   0  0  0  0  0  0  0  0  0  0  0  0 
    6.8955   -2.4359   -1.3492 H   0  0  0  0  0  0  0  0  0  0  0  0 
    6.9993   -0.9905   -2.3357 H   0  0  0  0  0  0  0  0  0  0  0  0 
    6.6597   -2.4008   -4.3956 H   0  0  0  0  0  0  0  0  0  0  0  0 
    6.4087   -4.8553   -1.5483 H   0  0  0  0  0  0  0  0  0  0  0  0 
    7.9587   -4.8150   -2.0864 H   0  0  0  0  0  0  0  0  0  0  0  0 
    6.7702   -4.6787   -4.2845 H   0  0  0  0  0  0  0  0  0  0  0  0 
  1 12  1  0  0  0  0 
  1 11  1  0  0  0  0 
  2  8  1  0  0  0  0 
  2 16  1  0  0  0  0 
  3  1  1  0  0  0  0 
  3 17  1  0  0  0  0 
  4 20  1  0  0  0  0 
  4  3  1  0  0  0  0 
  5  4  1  0  0  0  0 
  5 21  1  0  0  0  0 
  6 24  1  0  0  0  0 
  6  5  1  0  0  0  0 
  7  6  1  0  0  0  0 
  7 25  1  0  0  0  0 
  8 27  1  6  0  0  0 
  8 10  1  0  0  0  0 
  8  7  1  0  0  0  0 
  9 29  1  0  0  0  0 
  9 28  1  0  0  0  0 
 10  9  1  0  0  0  0 
 13  1  1  0  0  0  0 
 14  2  1  0  0  0  0 
 15  2  1  0  0  0  0 
 18  3  1  0  0  0  0 
 19  4  1  0  0  0  0 
 22  5  1  0  0  0  0 
 23  6  1  0  0  0  0 
 26  7  1  0  0  0  0 
 30 10  1  0  0  0  0 
M  END 
>  <HBA> 
2 
 
>  <HBD> 
2 
 
>  <TPSA> 
38.05 
 
>  <cid> 
20811 
 
>  <dipole> 
1.71 
 
>  <excitation_energy_1> 
5.562 
 
>  <excitation_energy_2> 
5.844 
 
>  <excitation_energy_3> 
6.1 
 
>  <excitation_energy_4> 
6.316 
 
>  <homo_energy> 
-6.079 
 
>  <homo_lumo_gap> 
7.894 
 
>  <logP> 
2.9 
 
>  <lumo_energy> 
1.815 
 
>  <melting_point> 
53.54 
 
>  <molecular_refractivity> 
46.08 
 
>  <oscillator_strength_1> 
0.013 
 
>  <oscillator_strength_2> 
0.0075 
 
>  <oscillator_strength_3> 
0.0208 
 
>  <oscillator_strength_4> 
0.0055 
 
>  <open_babel_can_smiles> 
CCCCCC[C@H](NN)C 
 
>  <mulliken_charges> 
30 
1   -0.441081 
2   -0.457255 
3   -0.246402 
4   -0.244892 
5   -0.253056 
6   -0.252647 
7   -0.253958 
8   0.028228 
9   -0.597595 
10   -0.439354 
11   0.140482 
12   0.141358 
13   0.140893 
14   0.147843 
15   0.140501 
16   0.135613 
17   0.128704 
18   0.128791 
19   0.12623 
20   0.12773 
21   0.122088 
22   0.123776 
23   0.124264 
24   0.151246 
25   0.113716 
26   0.128977 
27   0.126621 
28   0.313415 
29   0.288256 
30   0.307509 
 
>  <lowdin_charges> 
30 
1   -0.44545 
2   -0.465353 
3   -0.271575 
4   -0.27385 
5   -0.273927 
6   -0.27515 
7   -0.282051 
8   -0.075591 
9   -0.488468 
10   -0.308594 
11   0.149235 
12   0.145874 
13   0.146488 
14   0.153855 
15   0.148973 
16   0.143564 
17   0.138155 
18   0.137374 
19   0.137444 
20   0.137317 
21   0.135051 
22   0.134795 
23   0.137862 
24   0.148807 
25   0.132591 
26   0.141911 
27   0.141001 
28   0.257663 
29   0.235985 
30   0.256065 
 
$$$$ 
 
