PCCDB-ID:  28485 
public computational chemistry database (PCCDB) project, http://pccdb.org 
 
 32 31  0  0  0  0  0  0  0  0999 V2000 
    3.4885    2.0795    0.6450 C   0  0  0  0  0  0  0  0  0  0  0  0 
    1.2857    1.2711    0.1482 C   0  0  0  0  0  0  0  0  0  0  0  0 
    4.0707   -6.3592   -0.2162 C   0  0  0  0  0  0  0  0  0  0  0  0 
    5.4158   -7.5405   -1.8111 C   0  0  0  0  0  0  0  0  0  0  0  0 
    3.1950    0.1598   -0.8181 C   0  0  0  0  0  0  0  0  0  0  0  0 
    5.7250   -5.1605   -1.5365 C   0  0  0  0  0  0  0  0  0  0  0  0 
    4.4779   -0.6104   -0.4830 C   0  0  0  0  0  0  0  0  0  0  0  0 
    6.1694   -4.0944   -0.5315 C   0  0  0  0  0  0  0  0  0  0  0  0 
    2.6845    0.9025    0.3352 N   0  0  0  0  0  0  0  0  0  0  0  0 
    5.3681   -6.4198   -0.8794 N   0  0  0  0  0  0  0  0  0  0  0  0 
    4.9600   -1.6233   -1.9546 S   0  0  0  0  0  0  0  0  0  0  0  0 
    6.7298   -2.5294   -1.3316 S   0  0  0  0  0  0  0  0  0  0  0  0 
    3.0847    2.5699    1.5369 H   0  0  0  0  0  0  0  0  0  0  0  0 
    3.5030    2.8211   -0.1784 H   0  0  0  0  0  0  0  0  0  0  0  0 
    4.5215    1.7945    0.8638 H   0  0  0  0  0  0  0  0  0  0  0  0 
    0.9149    1.7650    1.0530 H   0  0  0  0  0  0  0  0  0  0  0  0 
    0.6831    0.3720   -0.0186 H   0  0  0  0  0  0  0  0  0  0  0  0 
    1.1226    1.9585   -0.7053 H   0  0  0  0  0  0  0  0  0  0  0  0 
    3.8844   -7.3032    0.3071 H   0  0  0  0  0  0  0  0  0  0  0  0 
    3.2326   -6.1849   -0.9200 H   0  0  0  0  0  0  0  0  0  0  0  0 
    4.0562   -5.5595    0.5303 H   0  0  0  0  0  0  0  0  0  0  0  0 
    5.2161   -8.4731   -1.2716 H   0  0  0  0  0  0  0  0  0  0  0  0 
    6.4142   -7.6129   -2.2552 H   0  0  0  0  0  0  0  0  0  0  0  0 
    4.6779   -7.4596   -2.6338 H   0  0  0  0  0  0  0  0  0  0  0  0 
    2.4252   -0.5623   -1.1141 H   0  0  0  0  0  0  0  0  0  0  0  0 
    3.3698    0.8184   -1.6919 H   0  0  0  0  0  0  0  0  0  0  0  0 
    6.5638   -5.3570   -2.2129 H   0  0  0  0  0  0  0  0  0  0  0  0 
    4.8988   -4.7646   -2.1574 H   0  0  0  0  0  0  0  0  0  0  0  0 
    4.2997   -1.2649    0.3745 H   0  0  0  0  0  0  0  0  0  0  0  0 
    5.3100    0.0576   -0.2490 H   0  0  0  0  0  0  0  0  0  0  0  0 
    7.0435   -4.4490    0.0267 H   0  0  0  0  0  0  0  0  0  0  0  0 
    5.3895   -3.8512    0.1946 H   0  0  0  0  0  0  0  0  0  0  0  0 
  1 15  1  0  0  0  0 
  1 13  1  0  0  0  0 
  2  9  1  0  0  0  0 
  2 16  1  0  0  0  0 
  3 19  1  0  0  0  0 
  3 21  1  0  0  0  0 
  4 22  1  0  0  0  0 
  4 10  1  0  0  0  0 
  5  7  1  0  0  0  0 
  5  9  1  0  0  0  0 
  6 10  1  0  0  0  0 
  6  8  1  0  0  0  0 
  7 30  1  0  0  0  0 
  7 29  1  0  0  0  0 
  8 31  1  0  0  0  0 
  8 32  1  0  0  0  0 
  9  1  1  0  0  0  0 
 10  3  1  0  0  0  0 
 11 12  1  0  0  0  0 
 11  7  1  0  0  0  0 
 12  8  1  0  0  0  0 
 14  1  1  0  0  0  0 
 17  2  1  0  0  0  0 
 18  2  1  0  0  0  0 
 20  3  1  0  0  0  0 
 23  4  1  0  0  0  0 
 24  4  1  0  0  0  0 
 25  5  1  0  0  0  0 
 26  5  1  0  0  0  0 
 27  6  1  0  0  0  0 
 28  6  1  0  0  0  0 
M  END 
>  <HBA> 
4 
 
>  <HBD> 
0 
 
>  <TPSA> 
57.08 
 
>  <cid> 
28485 
 
>  <dipole> 
1.96 
 
>  <excitation_energy_1> 
4.366 
 
>  <excitation_energy_2> 
4.471 
 
>  <excitation_energy_3> 
4.75 
 
>  <excitation_energy_4> 
4.81 
 
>  <homo_energy> 
-5.777 
 
>  <homo_lumo_gap> 
5.17 
 
>  <logP> 
1.491 
 
>  <lumo_energy> 
-0.607 
 
>  <melting_point> 
-4.68 
 
>  <molecular_refractivity> 
61.54 
 
>  <oscillator_strength_1> 
0.0041 
 
>  <oscillator_strength_2> 
0.0002 
 
>  <oscillator_strength_3> 
0.0038 
 
>  <oscillator_strength_4> 
0.0033 
 
>  <open_babel_can_smiles> 
CN(CCSSCCN(C)C)C 
 
>  <mulliken_charges> 
32 
1   -0.302636 
2   -0.296423 
3   -0.300685 
4   -0.295802 
5   -0.126584 
6   -0.109997 
7   -0.415886 
8   -0.428725 
9   -0.368541 
10   -0.370084 
11   0.005053 
12   0.009637 
13   0.152138 
14   0.12164 
15   0.153437 
16   0.150795 
17   0.151321 
18   0.121216 
19   0.150452 
20   0.121887 
21   0.148323 
22   0.148593 
23   0.151074 
24   0.120585 
25   0.15297 
26   0.131209 
27   0.150044 
28   0.138512 
29   0.18234 
30   0.185838 
31   0.188061 
32   0.18024 
 
>  <lowdin_charges> 
32 
1   -0.35916 
2   -0.356803 
3   -0.359402 
4   -0.355408 
5   -0.205256 
6   -0.208786 
7   -0.384002 
8   -0.386719 
9   -0.183031 
10   -0.186242 
11   0.01788 
12   0.03583 
13   0.153086 
14   0.123133 
15   0.149979 
16   0.151767 
17   0.151225 
18   0.122699 
19   0.151343 
20   0.123085 
21   0.148889 
22   0.1499 
23   0.150137 
24   0.122203 
25   0.154065 
26   0.128316 
27   0.153381 
28   0.133112 
29   0.163365 
30   0.16429 
31   0.175038 
32   0.162086 
 
$$$$ 
 
