PCCDB-ID:  46258 
public computational chemistry database (PCCDB) project, http://pccdb.org 
 
 27 27  0  0  1  0  0  0  0  0999 V2000 
    0.3751    0.9908    0.0898 C   0  0  0  0  0  0  0  0  0  0  0  0 
    5.9024   -1.9006    1.4401 C   0  0  0  0  0  0  0  0  0  0  0  0 
    4.0756    1.9275    0.1518 C   0  0  0  0  0  0  0  0  0  0  0  0 
    2.6863    2.0202    0.2429 C   0  0  0  0  0  0  0  0  0  0  0  0 
    4.6771    0.7163   -0.1873 C   0  0  0  0  0  0  0  0  0  0  0  0 
    2.5032   -0.3045   -0.3542 C   0  0  0  0  0  0  0  0  0  0  0  0 
    1.8811    0.9033   -0.0112 C   0  0  0  0  0  0  0  0  0  0  0  0 
    4.9582   -2.5986    0.4580 C   0  0  2  0  0  0  0  0  0  0  0  0 
    3.8951   -0.4202   -0.4347 C   0  0  0  0  0  0  0  0  0  0  0  0 
    4.5508   -1.7543   -0.7866 C   0  0  2  0  0  0  0  0  0  0  0  0 
    3.7089   -3.1044    1.0574 N   0  0  0  0  0  0  0  0  0  0  0  0 
    3.7191   -2.5665   -1.5980 O   0  0  0  0  0  0  0  0  0  0  0  0 
    0.0207    2.0139   -0.0747 H   0  0  0  0  0  0  0  0  0  0  0  0 
    0.0216    0.6804    1.0826 H   0  0  0  0  0  0  0  0  0  0  0  0 
   -0.1133    0.3409   -0.6442 H   0  0  0  0  0  0  0  0  0  0  0  0 
    6.8204   -1.5639    0.9421 H   0  0  0  0  0  0  0  0  0  0  0  0 
    6.1944   -2.5903    2.2412 H   0  0  0  0  0  0  0  0  0  0  0  0 
    5.4295   -1.0257    1.8993 H   0  0  0  0  0  0  0  0  0  0  0  0 
    4.6900    2.8064    0.3304 H   0  0  0  0  0  0  0  0  0  0  0  0 
    2.2219    2.9704    0.4971 H   0  0  0  0  0  0  0  0  0  0  0  0 
    5.7597    0.6579   -0.2778 H   0  0  0  0  0  0  0  0  0  0  0  0 
    1.8930   -1.1686   -0.6008 H   0  0  0  0  0  0  0  0  0  0  0  0 
    5.4680   -3.4778    0.0438 H   0  0  0  0  0  0  0  0  0  0  0  0 
    5.4624   -1.5479   -1.3622 H   0  0  0  0  0  0  0  0  0  0  0  0 
    3.2610   -2.3663    1.6004 H   0  0  0  0  0  0  0  0  0  0  0  0 
    3.9048   -3.8687    1.7002 H   0  0  0  0  0  0  0  0  0  0  0  0 
    3.2215   -3.1079   -0.9507 H   0  0  0  0  0  0  0  0  0  0  0  0 
  1 14  1  0  0  0  0 
  2 18  1  0  0  0  0 
  2 17  1  0  0  0  0 
  3  4  1  0  0  0  0 
  3 19  1  0  0  0  0 
  4 20  1  0  0  0  0 
  5  3  2  0  0  0  0 
  6  7  1  0  0  0  0 
  7  1  1  0  0  0  0 
  7  4  2  0  0  0  0 
  8 23  1  6  0  0  0 
  8 11  1  0  0  0  0 
  8  2  1  0  0  0  0 
  9  6  2  0  0  0  0 
  9  5  1  0  0  0  0 
 10 24  1  6  0  0  0 
 10  9  1  0  0  0  0 
 10  8  1  0  0  0  0 
 11 25  1  0  0  0  0 
 11 26  1  0  0  0  0 
 12 27  1  0  0  0  0 
 12 10  1  0  0  0  0 
 13  1  1  0  0  0  0 
 15  1  1  0  0  0  0 
 16  2  1  0  0  0  0 
 21  5  1  0  0  0  0 
 22  6  1  0  0  0  0 
M  END 
>  <HBA> 
2 
 
>  <HBD> 
2 
 
>  <TPSA> 
46.25 
 
>  <cid> 
46258 
 
>  <dipole> 
3.11 
 
>  <excitation_energy_1> 
5.183 
 
>  <excitation_energy_2> 
5.682 
 
>  <excitation_energy_3> 
5.846 
 
>  <excitation_energy_4> 
5.934 
 
>  <homo_energy> 
-6.302 
 
>  <homo_lumo_gap> 
6.425 
 
>  <logP> 
2.076 
 
>  <lumo_energy> 
0.122 
 
>  <melting_point> 
83.53 
 
>  <molecular_refractivity> 
49.86 
 
>  <oscillator_strength_1> 
0.0005 
 
>  <oscillator_strength_2> 
0.0147 
 
>  <oscillator_strength_3> 
0.0005 
 
>  <oscillator_strength_4> 
0.0305 
 
>  <open_babel_can_smiles> 
C[C@H]([C@H](c1cccc(c1)C)O)N 
 
>  <mulliken_charges> 
27 
1   -0.528413 
2   -0.456821 
3   -0.129649 
4   -0.181897 
5   -0.18815 
6   -0.2413 
7   0.178632 
8   -0.003673 
9   0.152697 
10   0.075581 
11   -0.749217 
12   -0.644995 
13   0.154912 
14   0.160217 
15   0.161185 
16   0.144883 
17   0.138593 
18   0.157411 
19   0.125641 
20   0.118665 
21   0.119914 
22   0.124897 
23   0.146083 
24   0.133004 
25   0.31045 
26   0.309078 
27   0.412269 
 
>  <lowdin_charges> 
27 
1   -0.442657 
2   -0.464671 
3   -0.157198 
4   -0.172747 
5   -0.172805 
6   -0.176705 
7   0.001919 
8   -0.082854 
9   -0.020267 
10   -0.009713 
11   -0.553289 
12   -0.465698 
13   0.156091 
14   0.158654 
15   0.161287 
16   0.152347 
17   0.149675 
18   0.156732 
19   0.156419 
20   0.152984 
21   0.15058 
22   0.159088 
23   0.148026 
24   0.145647 
25   0.262152 
26   0.263588 
27   0.343417 
 
$$$$ 
 
