PCCDB-ID:  43668 
public computational chemistry database (PCCDB) project, http://pccdb.org 
 
 34 36  0  0  1  0  0  0  0  0999 V2000 
    0.8608   -0.0402    0.1860 C   0  0  0  0  0  0  0  0  0  0  0  0 
    2.8733    4.6151   -0.0640 C   0  0  0  0  0  0  0  0  0  0  0  0 
    2.6036   -1.9686   -1.6094 C   0  0  0  0  0  0  0  0  0  0  0  0 
    1.8429    4.9996   -4.6088 C   0  0  0  0  0  0  0  0  0  0  0  0 
    1.7223    3.7545   -5.2561 C   0  0  0  0  0  0  0  0  0  0  0  0 
    2.1513    5.0773   -3.2547 C   0  0  0  0  0  0  0  0  0  0  0  0 
    1.9112    2.5616   -4.5635 C   0  0  0  0  0  0  0  0  0  0  0  0 
    3.0196    1.3355    0.1217 C   0  0  0  0  0  0  0  0  0  0  0  0 
    2.2565    0.2304   -2.4981 C   0  0  0  0  0  0  0  0  0  0  0  0 
    2.3808   -0.0543   -0.0677 C   0  0  2  0  0  0  0  0  0  0  0  0 
    2.6464    3.6041   -1.1479 C   0  0  0  0  0  0  0  0  0  0  0  0 
    2.3432    3.8916   -2.5270 C   0  0  0  0  0  0  0  0  0  0  0  0 
    2.2284    2.6460   -3.2040 C   0  0  0  0  0  0  0  0  0  0  0  0 
    2.7070    2.2335   -1.0373 C   0  0  0  0  0  0  0  0  0  0  0  0 
    2.7998   -0.5435   -1.3961 N   0  0  0  0  0  0  0  0  0  0  0  0 
    2.4765    1.6490   -2.2806 N   0  0  0  0  0  0  0  0  0  0  0  0 
    0.6585    0.2179    1.2317 H   0  0  0  0  0  0  0  0  0  0  0  0 
    0.4118   -1.0210   -0.0049 H   0  0  0  0  0  0  0  0  0  0  0  0 
    0.3496    0.6990   -0.4403 H   0  0  0  0  0  0  0  0  0  0  0  0 
    2.0478    5.3370   -0.0094 H   0  0  0  0  0  0  0  0  0  0  0  0 
    3.7925    5.1945   -0.2275 H   0  0  0  0  0  0  0  0  0  0  0  0 
    2.9602    4.1412    0.9195 H   0  0  0  0  0  0  0  0  0  0  0  0 
    3.0909   -2.2666   -2.5452 H   0  0  0  0  0  0  0  0  0  0  0  0 
    1.5437   -2.2786   -1.6694 H   0  0  0  0  0  0  0  0  0  0  0  0 
    3.0752   -2.5247   -0.7928 H   0  0  0  0  0  0  0  0  0  0  0  0 
    1.6927    5.9123   -5.1793 H   0  0  0  0  0  0  0  0  0  0  0  0 
    1.4770    3.7230   -6.3142 H   0  0  0  0  0  0  0  0  0  0  0  0 
    2.2393    6.0444   -2.7657 H   0  0  0  0  0  0  0  0  0  0  0  0 
    1.8150    1.6039   -5.0679 H   0  0  0  0  0  0  0  0  0  0  0  0 
    4.1065    1.2003    0.2077 H   0  0  0  0  0  0  0  0  0  0  0  0 
    2.6760    1.7898    1.0579 H   0  0  0  0  0  0  0  0  0  0  0  0 
    1.1727    0.0504   -2.6561 H   0  0  0  0  0  0  0  0  0  0  0  0 
    2.7706   -0.0743   -3.4189 H   0  0  0  0  0  0  0  0  0  0  0  0 
    2.8406   -0.7376    0.6566 H   0  0  0  0  0  0  0  0  0  0  0  0 
  1 17  1  0  0  0  0 
  2 20  1  0  0  0  0 
  2 22  1  0  0  0  0 
  3 15  1  0  0  0  0 
  3 25  1  0  0  0  0 
  4  6  1  0  0  0  0 
  5  4  2  0  0  0  0 
  5  7  1  0  0  0  0 
  6 28  1  0  0  0  0 
  6 12  2  0  0  0  0 
  7 13  2  0  0  0  0 
  8 30  1  0  0  0  0 
  8 31  1  0  0  0  0 
  9 16  1  0  0  0  0 
  9 15  1  0  0  0  0 
 10  8  1  0  0  0  0 
 10  1  1  0  0  0  0 
 10 34  1  1  0  0  0 
 11 14  2  0  0  0  0 
 11  2  1  0  0  0  0 
 12 11  1  0  0  0  0 
 13 12  1  0  0  0  0 
 13 16  1  0  0  0  0 
 14  8  1  0  0  0  0 
 15 10  1  0  0  0  0 
 16 14  1  0  0  0  0 
 18  1  1  0  0  0  0 
 19  1  1  0  0  0  0 
 21  2  1  0  0  0  0 
 23  3  1  0  0  0  0 
 24  3  1  0  0  0  0 
 26  4  1  0  0  0  0 
 27  5  1  0  0  0  0 
 29  7  1  0  0  0  0 
 32  9  1  0  0  0  0 
 33  9  1  0  0  0  0 
M  END 
>  <HBA> 
2 
 
>  <HBD> 
0 
 
>  <TPSA> 
8.17 
 
>  <cid> 
43668 
 
>  <dipole> 
2.93 
 
>  <excitation_energy_1> 
4.357 
 
>  <excitation_energy_2> 
4.532 
 
>  <excitation_energy_3> 
4.701 
 
>  <excitation_energy_4> 
4.879 
 
>  <homo_energy> 
-4.996 
 
>  <homo_lumo_gap> 
5.053 
 
>  <logP> 
2.721 
 
>  <lumo_energy> 
0.057 
 
>  <melting_point> 
83.72 
 
>  <molecular_refractivity> 
72.25 
 
>  <oscillator_strength_1> 
0.1075 
 
>  <oscillator_strength_2> 
0.0036 
 
>  <oscillator_strength_3> 
0.0149 
 
>  <oscillator_strength_4> 
0.0069 
 
>  <open_babel_can_smiles> 
CN1Cn2c3ccccc3c(c2C[C@H]1C)C 
 
>  <mulliken_charges> 
34 
1   -0.465402 
2   -0.534336 
3   -0.300041 
4   -0.139047 
5   -0.152293 
6   -0.21532 
7   -0.175887 
8   -0.320341 
9   0.044895 
10   0.016342 
11   0.027235 
12   0.072944 
13   0.311551 
14   0.277017 
15   -0.406006 
16   -0.59921 
17   0.148919 
18   0.148794 
19   0.16355 
20   0.154301 
21   0.156791 
22   0.146258 
23   0.154218 
24   0.127495 
25   0.155863 
26   0.115813 
27   0.117883 
28   0.118373 
29   0.120261 
30   0.164525 
31   0.147987 
32   0.13031 
33   0.155646 
34   0.130912 
 
>  <lowdin_charges> 
34 
1   -0.466196 
2   -0.437735 
3   -0.35464 
4   -0.178028 
5   -0.166128 
6   -0.167268 
7   -0.192711 
8   -0.276671 
9   -0.114153 
10   -0.061201 
11   -0.07674 
12   -0.029786 
13   0.025784 
14   0.014446 
15   -0.186758 
16   -0.041304 
17   0.155111 
18   0.151826 
19   0.159135 
20   0.155799 
21   0.155688 
22   0.15298 
23   0.153254 
24   0.123355 
25   0.156071 
26   0.152824 
27   0.151605 
28   0.153787 
29   0.154067 
30   0.160427 
31   0.156658 
32   0.11807 
33   0.15232 
34   0.146113 
 
$$$$ 
 
