PCCDB-ID:  68529 
public computational chemistry database (PCCDB) project, http://pccdb.org 
 
 22 22  0  0  0  0  0  0  0  0999 V2000 
    0.9138    0.1798    0.0807 C   0  0  0  0  0  0  0  0  0  0  0  0 
    2.4354    0.0072    0.0357 C   0  0  0  0  0  0  0  0  0  0  0  0 
    2.8757   -1.2085   -0.7892 C   0  0  0  0  0  0  0  0  0  0  0  0 
    5.3940   -3.8054   -3.3533 C   0  0  0  0  0  0  0  0  0  0  0  0 
    5.3232   -4.6251   -2.1913 C   0  0  0  0  0  0  0  0  0  0  0  0 
    4.4015   -1.3747   -0.8261 C   0  0  0  0  0  0  0  0  0  0  0  0 
    5.0919   -2.5181   -2.9631 C   0  0  0  0  0  0  0  0  0  0  0  0 
    4.9805   -3.8070   -1.1358 C   0  0  0  0  0  0  0  0  0  0  0  0 
    4.8453   -2.5200   -1.6079 N   0  0  0  0  0  0  0  0  0  0  0  0 
    0.6295    1.0559    0.6743 H   0  0  0  0  0  0  0  0  0  0  0  0 
    0.4287   -0.6971    0.5263 H   0  0  0  0  0  0  0  0  0  0  0  0 
    0.4999    0.3104   -0.9265 H   0  0  0  0  0  0  0  0  0  0  0  0 
    2.8229   -0.0874    1.0603 H   0  0  0  0  0  0  0  0  0  0  0  0 
    2.8946    0.9157   -0.3798 H   0  0  0  0  0  0  0  0  0  0  0  0 
    2.5028   -1.1183   -1.8181 H   0  0  0  0  0  0  0  0  0  0  0  0 
    2.4277   -2.1226   -0.3769 H   0  0  0  0  0  0  0  0  0  0  0  0 
    5.6533   -4.1186   -4.3558 H   0  0  0  0  0  0  0  0  0  0  0  0 
    5.5177   -5.6876   -2.1315 H   0  0  0  0  0  0  0  0  0  0  0  0 
    4.7938   -1.4890    0.1912 H   0  0  0  0  0  0  0  0  0  0  0  0 
    4.8690   -0.4774   -1.2481 H   0  0  0  0  0  0  0  0  0  0  0  0 
    5.0372   -1.5983   -3.5289 H   0  0  0  0  0  0  0  0  0  0  0  0 
    4.8269   -4.0254   -0.0880 H   0  0  0  0  0  0  0  0  0  0  0  0 
  1 11  1  0  0  0  0 
  1 10  1  0  0  0  0 
  2  1  1  0  0  0  0 
  2 13  1  0  0  0  0 
  3 16  1  0  0  0  0 
  3  2  1  0  0  0  0 
  4  7  2  0  0  0  0 
  4  5  1  0  0  0  0 
  5 18  1  0  0  0  0 
  5  8  2  0  0  0  0 
  6  3  1  0  0  0  0 
  6 19  1  0  0  0  0 
  7  9  1  0  0  0  0 
  8 22  1  0  0  0  0 
  9  8  1  0  0  0  0 
  9  6  1  0  0  0  0 
 12  1  1  0  0  0  0 
 14  2  1  0  0  0  0 
 15  3  1  0  0  0  0 
 17  4  1  0  0  0  0 
 20  6  1  0  0  0  0 
 21  7  1  0  0  0  0 
M  END 
>  <HBA> 
1 
 
>  <HBD> 
0 
 
>  <TPSA> 
4.93 
 
>  <cid> 
68529 
 
>  <dipole> 
2.25 
 
>  <excitation_energy_1> 
5.064 
 
>  <excitation_energy_2> 
5.478 
 
>  <excitation_energy_3> 
5.529 
 
>  <excitation_energy_4> 
5.621 
 
>  <homo_energy> 
-5.377 
 
>  <homo_lumo_gap> 
6.697 
 
>  <logP> 
2.288 
 
>  <lumo_energy> 
1.32 
 
>  <melting_point> 
3.49 
 
>  <molecular_refractivity> 
40.12 
 
>  <oscillator_strength_1> 
0.0048 
 
>  <oscillator_strength_2> 
0.0526 
 
>  <oscillator_strength_3> 
0.0194 
 
>  <oscillator_strength_4> 
0.0008 
 
>  <open_babel_can_smiles> 
CCCCn1cccc1 
 
>  <mulliken_charges> 
22 
1   -0.441696 
2   -0.253734 
3   -0.245384 
4   -0.188426 
5   -0.188471 
6   -0.154195 
7   0.018956 
8   0.018726 
9   -0.365369 
10   0.145425 
11   0.145807 
12   0.145823 
13   0.133599 
14   0.133628 
15   0.144616 
16   0.144408 
17   0.118451 
18   0.118475 
19   0.15228 
20   0.152202 
21   0.132423 
22   0.132457 
 
>  <lowdin_charges> 
22 
1   -0.443541 
2   -0.272785 
3   -0.281825 
4   -0.215056 
5   -0.213913 
6   -0.193328 
7   -0.167201 
8   -0.164863 
9   -0.001345 
10   0.151926 
11   0.149426 
12   0.148144 
13   0.13925 
14   0.140616 
15   0.146551 
16   0.147801 
17   0.156243 
18   0.155282 
19   0.151442 
20   0.152957 
21   0.158014 
22   0.156205 
 
$$$$ 
 
