PCCDB-ID:  39831 
public computational chemistry database (PCCDB) project, http://pccdb.org 
 
 21 21  0  0  0  0  0  0  0  0999 V2000 
    3.5096    3.9934   -1.3681 C   0  0  0  0  0  0  0  0  0  0  0  0 
    2.9843    2.6155   -1.7462 C   0  0  0  0  0  0  0  0  0  0  0  0 
    5.1183    0.0572   -0.2126 C   0  0  0  0  0  0  0  0  0  0  0  0 
    5.3633   -0.5676    0.9571 C   0  0  0  0  0  0  0  0  0  0  0  0 
    6.1167   -2.8503    1.6317 C   0  0  0  0  0  0  0  0  0  0  0  0 
    6.6939   -2.5659    0.2753 C   0  0  0  0  0  0  0  0  0  0  0  0 
    4.0728    1.0849   -0.2796 C   0  0  0  0  0  0  0  0  0  0  0  0 
    6.3694   -1.4875    1.1880 N   0  0  0  0  0  0  0  0  0  0  0  0 
    3.3600    1.4439    0.6431 O   0  0  0  0  0  0  0  0  0  0  0  0 
    3.9821    1.5935   -1.5390 O   0  0  0  0  0  0  0  0  0  0  0  0 
    2.7638    4.7586   -1.6138 H   0  0  0  0  0  0  0  0  0  0  0  0 
    4.4305    4.2220   -1.9149 H   0  0  0  0  0  0  0  0  0  0  0  0 
    3.7135    4.0431   -0.2950 H   0  0  0  0  0  0  0  0  0  0  0  0 
    2.7522    2.5570   -2.8131 H   0  0  0  0  0  0  0  0  0  0  0  0 
    2.0927    2.3636   -1.1664 H   0  0  0  0  0  0  0  0  0  0  0  0 
    5.6792   -0.1633   -1.1145 H   0  0  0  0  0  0  0  0  0  0  0  0 
    4.7820   -0.2973    1.8363 H   0  0  0  0  0  0  0  0  0  0  0  0 
    6.7568   -3.2136    2.4324 H   0  0  0  0  0  0  0  0  0  0  0  0 
    5.0823   -3.1889    1.6722 H   0  0  0  0  0  0  0  0  0  0  0  0 
    6.0425   -2.7070   -0.5866 H   0  0  0  0  0  0  0  0  0  0  0  0 
    7.7527   -2.7312    0.0903 H   0  0  0  0  0  0  0  0  0  0  0  0 
  1 13  1  0  0  0  0 
  2 10  1  0  0  0  0 
  2  1  1  0  0  0  0 
  2 15  1  0  0  0  0 
  3  4  2  0  0  0  0 
  4  8  1  0  0  0  0 
  4 17  1  0  0  0  0 
  5 19  1  0  0  0  0 
  5 18  1  0  0  0  0 
  6  8  1  0  0  0  0 
  6  5  1  0  0  0  0 
  7  3  1  0  0  0  0 
  7  9  2  0  0  0  0 
  8  5  1  0  0  0  0 
 10  7  1  0  0  0  0 
 11  1  1  0  0  0  0 
 12  1  1  0  0  0  0 
 14  2  1  0  0  0  0 
 16  3  1  0  0  0  0 
 20  6  1  0  0  0  0 
 21  6  1  0  0  0  0 
M  END 
>  <HBA> 
3 
 
>  <HBD> 
0 
 
>  <TPSA> 
29.31 
 
>  <cid> 
39831 
 
>  <dipole> 
2.78 
 
>  <excitation_energy_1> 
4.929 
 
>  <excitation_energy_2> 
5.058 
 
>  <excitation_energy_3> 
5.855 
 
>  <excitation_energy_4> 
5.984 
 
>  <homo_energy> 
-6.131 
 
>  <homo_lumo_gap> 
5.456 
 
>  <logP> 
0.317 
 
>  <lumo_energy> 
-0.675 
 
>  <melting_point> 
6.29 
 
>  <molecular_refractivity> 
41.27 
 
>  <oscillator_strength_1> 
0.0583 
 
>  <oscillator_strength_2> 
0.502 
 
>  <oscillator_strength_3> 
0.0325 
 
>  <oscillator_strength_4> 
0.0222 
 
>  <open_babel_can_smiles> 
CCOC(=O)/C=C/N1CC1 
 
>  <mulliken_charges> 
21 
1   -0.460829 
2   -0.038523 
3   -0.232101 
4   0.065481 
5   -0.192173 
6   -0.194644 
7   0.623134 
8   -0.35237 
9   -0.516862 
10   -0.485592 
11   0.144696 
12   0.153783 
13   0.177175 
14   0.145709 
15   0.166407 
16   0.140873 
17   0.177322 
18   0.1708 
19   0.168831 
20   0.167716 
21   0.171169 
 
>  <lowdin_charges> 
21 
1   -0.45532 
2   -0.127639 
3   -0.260563 
4   -0.053733 
5   -0.220957 
6   -0.226058 
7   0.199461 
8   -0.126676 
9   -0.300018 
10   -0.203784 
11   0.15647 
12   0.154474 
13   0.164146 
14   0.146858 
15   0.157027 
16   0.167686 
17   0.177519 
18   0.166113 
19   0.159237 
20   0.160773 
21   0.164985 
 
$$$$ 
 
