PCCDB-ID:  52897 
public computational chemistry database (PCCDB) project, http://pccdb.org 
 
 28 29  0  0  0  0  0  0  0  0999 V2000 
    0.8873   -0.5409   -0.0482 C   0  0  0  0  0  0  0  0  0  0  0  0 
    5.4703   -2.7094   -0.1525 C   0  0  0  0  0  0  0  0  0  0  0  0 
    3.2161   -1.5312   -0.1003 C   0  0  0  0  0  0  0  0  0  0  0  0 
    2.9773    0.8806   -0.0422 C   0  0  0  0  0  0  0  0  0  0  0  0 
    4.9304    3.5698   -0.0251 C   0  0  0  0  0  0  0  0  0  0  0  0 
    6.5626    1.5798   -0.0620 C   0  0  0  0  0  0  0  0  0  0  0  0 
    2.3906   -0.3791   -0.0648 C   0  0  0  0  0  0  0  0  0  0  0  0 
    4.6049   -1.4747   -0.1164 C   0  0  0  0  0  0  0  0  0  0  0  0 
    5.2924    2.1134   -0.0412 C   0  0  0  0  0  0  0  0  0  0  0  0 
    4.3798    0.9918   -0.0593 C   0  0  0  0  0  0  0  0  0  0  0  0 
    4.3832    4.1104    1.3077 C   0  0  0  0  0  0  0  0  0  0  0  0 
    5.1650   -0.1860   -0.0948 C   0  0  0  0  0  0  0  0  0  0  0  0 
    6.4930    0.2040   -0.0975 N   0  0  0  0  0  0  0  0  0  0  0  0 
    3.7228    5.1164    1.3868 O   0  0  0  0  0  0  0  0  0  0  0  0 
    4.7299    3.4102    2.4124 O   0  0  0  0  0  0  0  0  0  0  0  0 
    0.5582   -1.1479    0.8045 H   0  0  0  0  0  0  0  0  0  0  0  0 
    0.5259   -1.0404   -0.9564 H   0  0  0  0  0  0  0  0  0  0  0  0 
    0.3840    0.4284    0.0199 H   0  0  0  0  0  0  0  0  0  0  0  0 
    4.8600   -3.6162   -0.1943 H   0  0  0  0  0  0  0  0  0  0  0  0 
    6.1124   -2.7835    0.7361 H   0  0  0  0  0  0  0  0  0  0  0  0 
    6.1308   -2.7166   -1.0307 H   0  0  0  0  0  0  0  0  0  0  0  0 
    2.7406   -2.5103   -0.1170 H   0  0  0  0  0  0  0  0  0  0  0  0 
    2.3545    1.7715   -0.0130 H   0  0  0  0  0  0  0  0  0  0  0  0 
    4.1819    3.8133   -0.7862 H   0  0  0  0  0  0  0  0  0  0  0  0 
    5.8124    4.1804   -0.2601 H   0  0  0  0  0  0  0  0  0  0  0  0 
    7.5197    2.0844   -0.0780 H   0  0  0  0  0  0  0  0  0  0  0  0 
    7.2860   -0.4177   -0.1094 H   0  0  0  0  0  0  0  0  0  0  0  0 
    5.2156    2.6122    2.1276 H   0  0  0  0  0  0  0  0  0  0  0  0 
  1 18  1  0  0  0  0 
  1 16  1  0  0  0  0 
  2  8  1  0  0  0  0 
  2 20  1  0  0  0  0 
  3  7  1  0  0  0  0 
  4 23  1  0  0  0  0 
  5 11  1  0  0  0  0 
  6  9  2  0  0  0  0 
  7  1  1  0  0  0  0 
  7  4  2  0  0  0  0 
  8  3  2  0  0  0  0 
  8 12  1  0  0  0  0 
  9  5  1  0  0  0  0 
 10  4  1  0  0  0  0 
 10  9  1  0  0  0  0 
 11 14  2  0  0  0  0 
 11 15  1  0  0  0  0 
 12 10  2  0  0  0  0 
 13 12  1  0  0  0  0 
 13  6  1  0  0  0  0 
 17  1  1  0  0  0  0 
 19  2  1  0  0  0  0 
 21  2  1  0  0  0  0 
 22  3  1  0  0  0  0 
 24  5  1  0  0  0  0 
 25  5  1  0  0  0  0 
 26  6  1  0  0  0  0 
 27 13  1  0  0  0  0 
 28 15  1  0  0  0  0 
M  END 
>  <HBA> 
2 
 
>  <HBD> 
2 
 
>  <TPSA> 
53.09 
 
>  <cid> 
52897 
 
>  <dipole> 
6.7 
 
>  <excitation_energy_1> 
4.635 
 
>  <excitation_energy_2> 
4.76 
 
>  <excitation_energy_3> 
4.836 
 
>  <excitation_energy_4> 
5.096 
 
>  <homo_energy> 
-5.733 
 
>  <homo_lumo_gap> 
5.274 
 
>  <logP> 
2.412 
 
>  <lumo_energy> 
-0.46 
 
>  <melting_point> 
185.94 
 
>  <molecular_refractivity> 
59.78 
 
>  <oscillator_strength_1> 
0.0642 
 
>  <oscillator_strength_2> 
0.0016 
 
>  <oscillator_strength_3> 
0.0668 
 
>  <oscillator_strength_4> 
0.004 
 
>  <open_babel_can_smiles> 
OC(=O)Cc1c[nH]c2c1cc(C)cc2C 
 
>  <mulliken_charges> 
28 
1   -0.532182 
2   -0.547096 
3   -0.274418 
4   -0.279891 
5   -0.450485 
6   0.006009 
7   0.188891 
8   0.202577 
9   -0.022783 
10   0.124223 
11   0.593335 
12   0.227522 
13   -0.694146 
14   -0.451635 
15   -0.566921 
16   0.159524 
17   0.158781 
18   0.158252 
19   0.167557 
20   0.157351 
21   0.156482 
22   0.113323 
23   0.132336 
24   0.189392 
25   0.182627 
26   0.157042 
27   0.332015 
28   0.412321 
 
>  <lowdin_charges> 
28 
1   -0.441966 
2   -0.444497 
3   -0.178798 
4   -0.17877 
5   -0.310265 
6   -0.138048 
7   -0.006867 
8   -0.021735 
9   -0.089443 
10   -0.037468 
11   0.183961 
12   0.020128 
13   -0.199591 
14   -0.24925 
15   -0.355071 
16   0.159351 
17   0.158511 
18   0.158025 
19   0.165198 
20   0.156308 
21   0.155855 
22   0.152398 
23   0.160121 
24   0.18103 
25   0.179109 
26   0.168201 
27   0.295104 
28   0.358469 
 
$$$$ 
 
