PCCDB-ID:  70269 
public computational chemistry database (PCCDB) project, http://pccdb.org 
 
 14 14  0  0  0  0  0  0  0  0999 V2000 
    1.0501    0.1117    0.0723 C   0  0  0  0  0  0  0  0  0  0  0  0 
    2.5582    0.0348    0.0757 C   0  0  0  0  0  0  0  0  0  0  0  0 
    3.3140   -1.1664    0.0739 C   0  0  0  0  0  0  0  0  0  0  0  0 
    5.1766    0.0872    0.0823 C   0  0  0  0  0  0  0  0  0  0  0  0 
    4.6346   -1.1352    0.0770 N   0  0  0  0  0  0  0  0  0  0  0  0 
    3.2034    1.2000    0.0812 N   0  0  0  0  0  0  0  0  0  0  0  0 
    4.5320    1.2586    0.0847 N   0  0  0  0  0  0  0  0  0  0  0  0 
    2.7733   -2.3999    0.0686 O   0  0  0  0  0  0  0  0  0  0  0  0 
    6.5147    0.1667    0.0860 O   0  0  0  0  0  0  0  0  0  0  0  0 
    0.5577   -0.8679    0.0681 H   0  0  0  0  0  0  0  0  0  0  0  0 
    0.6991    0.6563   -0.8100 H   0  0  0  0  0  0  0  0  0  0  0  0 
    0.6949    0.6511    0.9561 H   0  0  0  0  0  0  0  0  0  0  0  0 
    1.8058   -2.3311    0.0696 H   0  0  0  0  0  0  0  0  0  0  0  0 
    6.8464   -0.7485    0.0829 H   0  0  0  0  0  0  0  0  0  0  0  0 
  1  2  1  0  0  0  0 
  1 12  1  0  0  0  0 
  2  6  2  0  0  0  0 
  3  2  1  0  0  0  0 
  3  5  2  0  0  0  0 
  4  7  2  0  0  0  0 
  4  9  1  0  0  0  0 
  5  4  2  0  0  0  0 
  6  7  1  0  0  0  0 
  8 13  1  0  0  0  0 
  8  3  1  0  0  0  0 
 10  1  1  0  0  0  0 
 11  1  1  0  0  0  0 
 14  9  1  0  0  0  0 
M  END 
>  <HBA> 
3 
 
>  <HBD> 
2 
 
>  <TPSA> 
78.61 
 
>  <cid> 
70269 
 
>  <dipole> 
4.33 
 
>  <excitation_energy_1> 
3.463 
 
>  <excitation_energy_2> 
4.76 
 
>  <excitation_energy_3> 
4.822 
 
>  <excitation_energy_4> 
5.557 
 
>  <homo_energy> 
-6.504 
 
>  <homo_lumo_gap> 
4.836 
 
>  <logP> 
-1.233 
 
>  <lumo_energy> 
-1.668 
 
>  <melting_point> 
188.09 
 
>  <molecular_refractivity> 
30.44 
 
>  <oscillator_strength_1> 
0.005 
 
>  <oscillator_strength_2> 
0.1042 
 
>  <oscillator_strength_3> 
0.0003 
 
>  <oscillator_strength_4> 
0.0111 
 
>  <open_babel_can_smiles> 
CC1=NN=[C](=[N]=C1O)O 
 
>  <mulliken_charges> 
14 
1   -0.514807 
2   0.260905 
3   0.473918 
4   0.658351 
5   -0.50113 
6   -0.285876 
7   -0.294638 
8   -0.588316 
9   -0.575593 
10   0.129023 
11   0.19655 
12   0.196523 
13   0.422353 
14   0.422738 
 
>  <lowdin_charges> 
14 
1   -0.442826 
2   -0.041768 
3   0.136212 
4   0.145365 
5   -0.184218 
6   -0.060378 
7   -0.131533 
8   -0.32857 
9   -0.327493 
10   0.143463 
11   0.181635 
12   0.181609 
13   0.360696 
14   0.367808 
 
$$$$ 
 
