PCCDB-ID:  37197 
public computational chemistry database (PCCDB) project, http://pccdb.org 
 
 18 18  0  0  0  0  0  0  0  0999 V2000 
    1.4317    0.7086    0.5992 C   0  0  0  0  0  0  0  0  0  0  0  0 
    6.3410   -0.6876    2.0033 C   0  0  0  0  0  0  0  0  0  0  0  0 
    3.0202    0.8644   -1.4314 C   0  0  0  0  0  0  0  0  0  0  0  0 
    2.7228    0.5673   -0.1392 C   0  0  0  0  0  0  0  0  0  0  0  0 
    6.7647   -0.6367    0.5564 C   0  0  0  0  0  0  0  0  0  0  0  0 
    4.7904    0.0833   -0.4600 C   0  0  0  0  0  0  0  0  0  0  0  0 
    3.8669    0.0656    0.4705 N   0  0  0  0  0  0  0  0  0  0  0  0 
    6.1011   -0.2981   -0.4821 N   0  0  0  0  0  0  0  0  0  0  0  0 
    8.0482   -1.0096    0.3156 O   0  0  0  0  0  0  0  0  0  0  0  0 
    4.3352    0.5586   -1.6554 O   0  0  0  0  0  0  0  0  0  0  0  0 
    0.6516    1.1203   -0.0486 H   0  0  0  0  0  0  0  0  0  0  0  0 
    1.5449    1.3728    1.4641 H   0  0  0  0  0  0  0  0  0  0  0  0 
    1.0883   -0.2614    0.9776 H   0  0  0  0  0  0  0  0  0  0  0  0 
    6.3461   -1.7286    2.3530 H   0  0  0  0  0  0  0  0  0  0  0  0 
    5.3351   -0.2883    2.1263 H   0  0  0  0  0  0  0  0  0  0  0  0 
    7.0502   -0.1226    2.6221 H   0  0  0  0  0  0  0  0  0  0  0  0 
    2.4669    1.2649   -2.2661 H   0  0  0  0  0  0  0  0  0  0  0  0 
    8.4738   -1.2447    1.1551 H   0  0  0  0  0  0  0  0  0  0  0  0 
  1 13  1  0  0  0  0 
  1 12  1  0  0  0  0 
  2 15  1  0  0  0  0 
  2 14  1  0  0  0  0 
  2 16  1  0  0  0  0 
  3  4  2  0  0  0  0 
  4  7  1  0  0  0  0 
  4  1  1  0  0  0  0 
  5  2  1  0  0  0  0 
  6  7  2  0  0  0  0 
  8  6  1  0  0  0  0 
  8  5  2  0  0  0  0 
  9  5  1  0  0  0  0 
  9 18  1  0  0  0  0 
 10  3  1  0  0  0  0 
 10  6  1  0  0  0  0 
 11  1  1  0  0  0  0 
 17  3  1  0  0  0  0 
M  END 
>  <HBA> 
4 
 
>  <HBD> 
1 
 
>  <TPSA> 
55.13 
 
>  <cid> 
37197 
 
>  <dipole> 
3.04 
 
>  <excitation_energy_1> 
4.612 
 
>  <excitation_energy_2> 
5.02 
 
>  <excitation_energy_3> 
5.227 
 
>  <excitation_energy_4> 
5.552 
 
>  <homo_energy> 
-5.755 
 
>  <homo_lumo_gap> 
4.977 
 
>  <logP> 
1.014 
 
>  <lumo_energy> 
-0.778 
 
>  <melting_point> 
78.17 
 
>  <molecular_refractivity> 
35.78 
 
>  <oscillator_strength_1> 
0.3891 
 
>  <oscillator_strength_2> 
0.002 
 
>  <oscillator_strength_3> 
0.0186 
 
>  <oscillator_strength_4> 
0.0049 
 
>  <open_babel_can_smiles> 
C/C(=N\c1occ(n1)C)/O 
 
>  <mulliken_charges> 
18 
1   -0.519962 
2   -0.562794 
3   0.018487 
4   0.259483 
5   0.500917 
6   0.666747 
7   -0.523427 
8   -0.503205 
9   -0.558028 
10   -0.418022 
11   0.153747 
12   0.166788 
13   0.168598 
14   0.178958 
15   0.235922 
16   0.164876 
17   0.15808 
18   0.412836 
 
>  <lowdin_charges> 
18 
1   -0.438403 
2   -0.490545 
3   -0.11943 
4   0.006048 
5   0.172661 
6   0.133609 
7   -0.221612 
8   -0.175951 
9   -0.343527 
10   -0.091023 
11   0.160665 
12   0.165135 
13   0.165613 
14   0.173374 
15   0.201193 
16   0.167194 
17   0.17571 
18   0.35929 
 
$$$$ 
 
