PCCDB-ID:  48154 
public computational chemistry database (PCCDB) project, http://pccdb.org 
 
 37 37  0  0  1  0  0  0  0  0999 V2000 
    0.6110   -2.0964   -0.6871 C   0  0  0  0  0  0  0  0  0  0  0  0 
    7.6035    1.6281   -0.4036 C   0  0  0  0  0  0  0  0  0  0  0  0 
    7.6870   -1.1992   -1.8210 C   0  0  0  0  0  0  0  0  0  0  0  0 
    2.0419   -2.6060   -0.8896 C   0  0  0  0  0  0  0  0  0  0  0  0 
    7.7065    0.2571    0.2779 C   0  0  0  0  0  0  0  0  0  0  0  0 
    3.0839   -1.5061   -0.6462 C   0  0  0  0  0  0  0  0  0  0  0  0 
    5.5003   -0.6941   -0.5502 C   0  0  0  0  0  0  0  0  0  0  0  0 
    7.0272   -0.9238   -0.4584 C   0  0  1  0  0  0  0  0  0  0  0  0 
    4.7756   -2.5105   -2.2115 C   0  0  0  0  0  0  0  0  0  0  0  0 
    4.9017   -3.0519    0.1782 C   0  0  0  0  0  0  0  0  0  0  0  0 
    5.2617   -4.6562   -1.4625 C   0  0  0  0  0  0  0  0  0  0  0  0 
    4.5822   -1.9360   -0.8120 C   0  0  2  0  0  0  0  0  0  0  0  0 
    5.0660   -3.7141   -2.5068 N   0  0  0  0  0  0  0  0  0  0  0  0 
    5.2019   -4.2559   -0.1013 N   0  0  0  0  0  0  0  0  0  0  0  0 
    4.5819   -1.6619   -3.2469 O   0  0  0  0  0  0  0  0  0  0  0  0 
    4.8421   -2.7303    1.4917 O   0  0  0  0  0  0  0  0  0  0  0  0 
    5.4872   -5.8130   -1.7360 O   0  0  0  0  0  0  0  0  0  0  0  0 
   -0.1148   -2.8967   -0.8639 H   0  0  0  0  0  0  0  0  0  0  0  0 
    0.3767   -1.2764   -1.3769 H   0  0  0  0  0  0  0  0  0  0  0  0 
    0.4578   -1.7278    0.3345 H   0  0  0  0  0  0  0  0  0  0  0  0 
    8.1316    2.3864    0.1847 H   0  0  0  0  0  0  0  0  0  0  0  0 
    6.5642    1.9636   -0.5039 H   0  0  0  0  0  0  0  0  0  0  0  0 
    8.0505    1.6211   -1.4037 H   0  0  0  0  0  0  0  0  0  0  0  0 
    8.7745   -1.2677   -1.7048 H   0  0  0  0  0  0  0  0  0  0  0  0 
    7.4799   -0.4009   -2.5433 H   0  0  0  0  0  0  0  0  0  0  0  0 
    7.3492   -2.1400   -2.2629 H   0  0  0  0  0  0  0  0  0  0  0  0 
    2.1504   -2.9989   -1.9078 H   0  0  0  0  0  0  0  0  0  0  0  0 
    2.2312   -3.4478   -0.2121 H   0  0  0  0  0  0  0  0  0  0  0  0 
    7.2858    0.3286    1.2913 H   0  0  0  0  0  0  0  0  0  0  0  0 
    8.7664    0.0042    0.4098 H   0  0  0  0  0  0  0  0  0  0  0  0 
    2.9522   -1.0992    0.3660 H   0  0  0  0  0  0  0  0  0  0  0  0 
    2.8892   -0.6616   -1.3224 H   0  0  0  0  0  0  0  0  0  0  0  0 
    5.2889    0.0660   -1.3148 H   0  0  0  0  0  0  0  0  0  0  0  0 
    5.1581   -0.2295    0.3866 H   0  0  0  0  0  0  0  0  0  0  0  0 
    7.1920   -1.8072    0.1739 H   0  0  0  0  0  0  0  0  0  0  0  0 
    4.3821   -0.7712   -2.9193 H   0  0  0  0  0  0  0  0  0  0  0  0 
    4.6306   -1.7899    1.5987 H   0  0  0  0  0  0  0  0  0  0  0  0 
  1 20  1  0  0  0  0 
  2 21  1  0  0  0  0 
  2  5  1  0  0  0  0 
  3 24  1  0  0  0  0 
  3  8  1  0  0  0  0 
  4  1  1  0  0  0  0 
  4  6  1  0  0  0  0 
  4 28  1  0  0  0  0 
  5 30  1  0  0  0  0 
  5 29  1  0  0  0  0 
  6 31  1  0  0  0  0 
  7  8  1  0  0  0  0 
  7 34  1  0  0  0  0 
  8 35  1  1  0  0  0 
  8  5  1  0  0  0  0 
  9 12  1  0  0  0  0 
 10 16  1  0  0  0  0 
 11 14  1  0  0  0  0 
 12  6  1  1  0  0  0 
 12  7  1  0  0  0  0 
 12 10  1  0  0  0  0 
 13  9  2  0  0  0  0 
 13 11  2  0  0  0  0 
 14 10  2  0  0  0  0 
 15 36  1  0  0  0  0 
 15  9  1  0  0  0  0 
 16 37  1  0  0  0  0 
 17 11  2  0  0  0  0 
 18  1  1  0  0  0  0 
 19  1  1  0  0  0  0 
 22  2  1  0  0  0  0 
 23  2  1  0  0  0  0 
 25  3  1  0  0  0  0 
 26  3  1  0  0  0  0 
 27  4  1  0  0  0  0 
 32  6  1  0  0  0  0 
 33  7  1  0  0  0  0 
M  END 
>  <HBA> 
5 
 
>  <HBD> 
2 
 
>  <TPSA> 
75.27 
 
>  <cid> 
48154 
 
>  <dipole> 
9.76 
 
>  <excitation_energy_1> 
3.993 
 
>  <excitation_energy_2> 
4.165 
 
>  <excitation_energy_3> 
5.236 
 
>  <excitation_energy_4> 
5.499 
 
>  <homo_energy> 
-6.868 
 
>  <homo_lumo_gap> 
5.377 
 
>  <logP> 
2.233 
 
>  <lumo_energy> 
-1.491 
 
>  <melting_point> 
139.58 
 
>  <molecular_refractivity> 
71.85 
 
>  <oscillator_strength_1> 
0.0 
 
>  <oscillator_strength_2> 
0.0 
 
>  <oscillator_strength_3> 
0.0001 
 
>  <oscillator_strength_4> 
0.0073 
 
>  <open_babel_can_smiles> 
CCC[C@@]1(C[C@H](CC)C)C(=N[C](=[N]=C1O)=O)O 
 
>  <mulliken_charges> 
37 
1   -0.44742 
2   -0.454208 
3   -0.470011 
4   -0.278743 
5   -0.258351 
6   -0.264298 
7   -0.297441 
8   -0.08304 
9   0.561797 
10   0.552648 
11   0.61687 
12   -0.150567 
13   -0.47566 
14   -0.471199 
15   -0.583089 
16   -0.582203 
17   -0.43212 
18   0.162667 
19   0.145984 
20   0.146451 
21   0.154285 
22   0.137962 
23   0.155516 
24   0.154489 
25   0.142645 
26   0.180539 
27   0.170954 
28   0.169534 
29   0.127638 
30   0.146018 
31   0.134365 
32   0.134449 
33   0.133183 
34   0.12952 
35   0.156446 
36   0.417117 
37   0.417274 
 
>  <lowdin_charges> 
37 
1   -0.442519 
2   -0.450483 
3   -0.454015 
4   -0.283084 
5   -0.27145 
6   -0.269029 
7   -0.277421 
8   -0.132102 
9   0.147518 
10   0.145675 
11   0.169328 
12   -0.063596 
13   -0.187526 
14   -0.183983 
15   -0.328795 
16   -0.330984 
17   -0.209133 
18   0.161845 
19   0.149254 
20   0.147964 
21   0.158241 
22   0.141743 
23   0.152047 
24   0.155742 
25   0.147958 
26   0.167555 
27   0.158383 
28   0.159188 
29   0.137352 
30   0.148357 
31   0.141994 
32   0.142881 
33   0.143498 
34   0.141544 
35   0.154242 
36   0.356216 
37   0.355595 
 
$$$$ 
 
