PCCDB-ID:  20241 
public computational chemistry database (PCCDB) project, http://pccdb.org 
 
 21 22  0  0  1  0  0  0  0  0999 V2000 
    1.3874   -0.0789   -0.0027 C   0  0  0  0  0  0  0  0  0  0  0  0 
    0.6482    1.2573    0.2035 C   0  0  0  0  0  0  0  0  0  0  0  0 
    2.9203   -0.0333    0.1477 C   0  0  0  0  0  0  0  0  0  0  0  0 
    0.0726    1.5285    2.7333 C   0  0  0  0  0  0  0  0  0  0  0  0 
    4.8651    1.6034   -0.4458 C   0  0  0  0  0  0  0  0  0  0  0  0 
    0.8793    1.8921    1.5572 C   0  0  2  0  0  0  0  0  0  0  0  0 
    3.6035    0.9331   -0.7919 C   0  0  2  0  0  0  0  0  0  0  0  0 
   -0.1603    2.7593    2.0403 O   0  0  0  0  0  0  0  0  0  0  0  0 
    3.6232    2.3181   -0.4000 O   0  0  0  0  0  0  0  0  0  0  0  0 
    1.1421   -0.4581   -1.0046 H   0  0  0  0  0  0  0  0  0  0  0  0 
    0.9956   -0.8194    0.7075 H   0  0  0  0  0  0  0  0  0  0  0  0 
   -0.4297    1.0898    0.0874 H   0  0  0  0  0  0  0  0  0  0  0  0 
    0.9427    1.9751   -0.5718 H   0  0  0  0  0  0  0  0  0  0  0  0 
    3.3218   -1.0396   -0.0395 H   0  0  0  0  0  0  0  0  0  0  0  0 
    3.1971    0.2283    1.1765 H   0  0  0  0  0  0  0  0  0  0  0  0 
    0.4905    1.6256    3.7363 H   0  0  0  0  0  0  0  0  0  0  0  0 
   -0.7170    0.7814    2.6348 H   0  0  0  0  0  0  0  0  0  0  0  0 
    5.5524    1.9145   -1.2329 H   0  0  0  0  0  0  0  0  0  0  0  0 
    5.3284    1.4097    0.5225 H   0  0  0  0  0  0  0  0  0  0  0  0 
    1.8824    2.2848    1.7266 H   0  0  0  0  0  0  0  0  0  0  0  0 
    3.3871    0.7879   -1.8539 H   0  0  0  0  0  0  0  0  0  0  0  0 
  1  3  1  0  0  0  0 
  1  2  1  0  0  0  0 
  1 11  1  0  0  0  0 
  2  6  1  0  0  0  0 
  3 15  1  0  0  0  0 
  4 16  1  0  0  0  0 
  5  9  1  0  0  0  0 
  5 19  1  0  0  0  0 
  6 20  1  1  0  0  0 
  6  8  1  0  0  0  0 
  6  4  1  0  0  0  0 
  7 21  1  6  0  0  0 
  7  5  1  0  0  0  0 
  7  9  1  0  0  0  0 
  7  3  1  0  0  0  0 
  8  4  1  0  0  0  0 
 10  1  1  0  0  0  0 
 12  2  1  0  0  0  0 
 13  2  1  0  0  0  0 
 14  3  1  0  0  0  0 
 17  4  1  0  0  0  0 
 18  5  1  0  0  0  0 
M  END 
>  <HBA> 
2 
 
>  <HBD> 
0 
 
>  <TPSA> 
25.06 
 
>  <cid> 
20241 
 
>  <dipole> 
3.96 
 
>  <excitation_energy_1> 
6.517 
 
>  <excitation_energy_2> 
6.84 
 
>  <excitation_energy_3> 
6.88 
 
>  <excitation_energy_4> 
7.015 
 
>  <homo_energy> 
-6.912 
 
>  <homo_lumo_gap> 
9.091 
 
>  <logP> 
0.954 
 
>  <lumo_energy> 
2.18 
 
>  <melting_point> 
0.03 
 
>  <molecular_refractivity> 
33.7 
 
>  <oscillator_strength_1> 
0.0103 
 
>  <oscillator_strength_2> 
0.0134 
 
>  <oscillator_strength_3> 
0.0125 
 
>  <oscillator_strength_4> 
0.001 
 
>  <open_babel_can_smiles> 
C(C[C@H]1OC1)C[C@H]1OC1 
 
>  <mulliken_charges> 
21 
1   -0.272544 
2   -0.287386 
3   -0.282822 
4   -0.112104 
5   -0.113664 
6   0.10632 
7   0.103609 
8   -0.452009 
9   -0.441516 
10   0.135874 
11   0.136849 
12   0.142941 
13   0.163284 
14   0.142115 
15   0.14587 
16   0.14408 
17   0.141587 
18   0.151693 
19   0.149246 
20   0.157748 
21   0.140828 
 
>  <lowdin_charges> 
21 
1   -0.275333 
2   -0.282528 
3   -0.282996 
4   -0.172597 
5   -0.167892 
6   -0.025054 
7   -0.019528 
8   -0.28888 
9   -0.29318 
10   0.143629 
11   0.145929 
12   0.151852 
13   0.159832 
14   0.152654 
15   0.150292 
16   0.149485 
17   0.147925 
18   0.15579 
19   0.152029 
20   0.153389 
21   0.145184 
 
$$$$ 
 
