PCCDB-ID:  15366 
public computational chemistry database (PCCDB) project, http://pccdb.org 
 
 18 19  0  0  0  0  0  0  0  0999 V2000 
    2.4121    0.7143   -0.0004 C   0  0  0  0  0  0  0  0  0  0  0  0 
    2.4108   -0.7002    0.0165 C   0  0  0  0  0  0  0  0  0  0  0  0 
   -2.4257    0.6554   -0.0275 C   0  0  0  0  0  0  0  0  0  0  0  0 
    1.2252    1.4134   -0.0154 C   0  0  0  0  0  0  0  0  0  0  0  0 
   -1.2722    1.4066   -0.0304 C   0  0  0  0  0  0  0  0  0  0  0  0 
    1.2213   -1.3983    0.0179 C   0  0  0  0  0  0  0  0  0  0  0  0 
   -2.3728   -0.7445   -0.0109 C   0  0  0  0  0  0  0  0  0  0  0  0 
   -0.0228    0.7346   -0.0143 C   0  0  0  0  0  0  0  0  0  0  0  0 
    0.0064   -0.6879    0.0030 C   0  0  0  0  0  0  0  0  0  0  0  0 
   -1.2000   -1.4185    0.0056 N   0  3  0  0  0  0  0  0  0  0  0  0 
   -1.1712   -2.6943    0.0226 O   0  5  0  0  0  0  0  0  0  0  0  0 
    3.3567    1.2511   -0.0013 H   0  0  0  0  0  0  0  0  0  0  0  0 
    3.3534   -1.2396    0.0281 H   0  0  0  0  0  0  0  0  0  0  0  0 
   -3.4037    1.1259   -0.0389 H   0  0  0  0  0  0  0  0  0  0  0  0 
    1.2232    2.5002   -0.0281 H   0  0  0  0  0  0  0  0  0  0  0  0 
   -1.3029    2.4915   -0.0434 H   0  0  0  0  0  0  0  0  0  0  0  0 
    1.1764   -2.4800    0.0307 H   0  0  0  0  0  0  0  0  0  0  0  0 
   -3.2436   -1.3863   -0.0079 H   0  0  0  0  0  0  0  0  0  0  0  0 
  1  2  2  0  0  0  0 
  2  6  1  0  0  0  0 
  2 13  1  0  0  0  0 
  3  7  1  0  0  0  0 
  4  8  2  0  0  0  0 
  4  1  1  0  0  0  0 
  5  3  2  0  0  0  0 
  5  8  1  0  0  0  0 
  6 17  1  0  0  0  0 
  7 18  1  0  0  0  0 
  7 10  2  0  0  0  0 
  8  9  1  0  0  0  0 
  9 10  1  0  0  0  0 
  9  6  2  0  0  0  0 
 10 11  1  0  0  0  0 
 12  1  1  0  0  0  0 
 14  3  1  0  0  0  0 
 15  4  1  0  0  0  0 
 16  5  1  0  0  0  0 
M  CHG  2  10   1  11  -1 
M  END 
>  <HBA> 
1 
 
>  <HBD> 
0 
 
>  <TPSA> 
25.46 
 
>  <cid> 
15366 
 
>  <dipole> 
3.65 
 
>  <excitation_energy_1> 
3.625 
 
>  <excitation_energy_2> 
3.714 
 
>  <excitation_energy_3> 
4.0 
 
>  <excitation_energy_4> 
4.691 
 
>  <homo_energy> 
-5.54 
 
>  <homo_lumo_gap> 
3.85 
 
>  <logP> 
2.268 
 
>  <lumo_energy> 
-1.69 
 
>  <melting_point> 
63.16 
 
>  <molecular_refractivity> 
45.11 
 
>  <oscillator_strength_1> 
0.1139 
 
>  <oscillator_strength_2> 
0.0 
 
>  <oscillator_strength_3> 
0.0208 
 
>  <oscillator_strength_4> 
0.0065 
 
>  <open_babel_can_smiles> 
[O-][n+]1cccc2c1cccc2 
 
>  <mulliken_charges> 
18 
1   -0.119874 
2   -0.141485 
3   -0.181612 
4   -0.205239 
5   -0.148513 
6   -0.133494 
7   0.059709 
8   0.127567 
9   0.270075 
10   -0.08662 
11   -0.515792 
12   0.139492 
13   0.142594 
14   0.152047 
15   0.13896 
16   0.142507 
17   0.18211 
18   0.177569 
 
>  <lowdin_charges> 
18 
1   -0.148051 
2   -0.148576 
3   -0.157297 
4   -0.151754 
5   -0.165289 
6   -0.143374 
7   -0.133535 
8   0.000593 
9   0.01933 
10   0.213248 
11   -0.381445 
12   0.163542 
13   0.164984 
14   0.172287 
15   0.16068 
16   0.163832 
17   0.187008 
18   0.183817 
 
$$$$ 
 
