PCCDB-ID:  19103 
public computational chemistry database (PCCDB) project, http://pccdb.org 
 
 19 20  0  0  0  0  0  0  0  0999 V2000 
   -2.5700    0.4714   -0.0840 C   0  0  0  0  0  0  0  0  0  0  0  0 
   -1.4668    1.2840    0.0307 C   0  0  0  0  0  0  0  0  0  0  0  0 
    2.2621    0.8020    0.1744 C   0  0  0  0  0  0  0  0  0  0  0  0 
    2.3387   -0.5887    0.0733 C   0  0  0  0  0  0  0  0  0  0  0  0 
   -2.3861   -0.9298   -0.1814 C   0  0  0  0  0  0  0  0  0  0  0  0 
   -0.1765    0.6949    0.0477 C   0  0  0  0  0  0  0  0  0  0  0  0 
    1.0340    1.4503    0.1634 C   0  0  0  0  0  0  0  0  0  0  0  0 
    1.1813   -1.3550   -0.0416 C   0  0  0  0  0  0  0  0  0  0  0  0 
   -0.1099   -0.7266   -0.0567 C   0  0  0  0  0  0  0  0  0  0  0  0 
   -1.2081   -1.5198   -0.1694 N   0  0  0  0  0  0  0  0  0  0  0  0 
    0.9010    2.8622    0.2626 N   0  0  0  0  0  0  0  0  0  0  0  0 
    1.2074   -2.6979   -0.1419 O   0  0  0  0  0  0  0  0  0  0  0  0 
    1.9537    3.4894    0.3624 O   0  0  0  0  0  0  0  0  0  0  0  0 
   -3.5730    0.8874   -0.1006 H   0  0  0  0  0  0  0  0  0  0  0  0 
   -1.5535    2.3617    0.1082 H   0  0  0  0  0  0  0  0  0  0  0  0 
    3.1571    1.4093    0.2643 H   0  0  0  0  0  0  0  0  0  0  0  0 
    3.3086   -1.0826    0.0832 H   0  0  0  0  0  0  0  0  0  0  0  0 
   -3.2520   -1.5845   -0.2723 H   0  0  0  0  0  0  0  0  0  0  0  0 
    2.1304   -2.9994   -0.1176 H   0  0  0  0  0  0  0  0  0  0  0  0 
  1  2  2  0  0  0  0 
  2  6  1  0  0  0  0 
  2 15  1  0  0  0  0 
  3 16  1  0  0  0  0 
  4 17  1  0  0  0  0 
  4  3  2  0  0  0  0 
  5 10  2  0  0  0  0 
  5  1  1  0  0  0  0 
  6  7  2  0  0  0  0 
  7  3  1  0  0  0  0 
  7 11  1  0  0  0  0 
  8  4  1  0  0  0  0 
  9  8  2  0  0  0  0 
  9  6  1  0  0  0  0 
 10  9  1  0  0  0  0 
 11 13  2  0  0  0  0 
 12 19  1  0  0  0  0 
 12  8  1  0  0  0  0 
 14  1  1  0  0  0  0 
 18  5  1  0  0  0  0 
M  END 
>  <HBA> 
4 
 
>  <HBD> 
1 
 
>  <TPSA> 
62.55 
 
>  <cid> 
19103 
 
>  <dipole> 
2.8 
 
>  <excitation_energy_1> 
1.462 
 
>  <excitation_energy_2> 
3.496 
 
>  <excitation_energy_3> 
3.519 
 
>  <excitation_energy_4> 
3.72 
 
>  <homo_energy> 
-5.75 
 
>  <homo_lumo_gap> 
3.075 
 
>  <logP> 
2.338 
 
>  <lumo_energy> 
-2.675 
 
>  <melting_point> 
132.22 
 
>  <molecular_refractivity> 
49.22 
 
>  <oscillator_strength_1> 
0.0002 
 
>  <oscillator_strength_2> 
0.0001 
 
>  <oscillator_strength_3> 
0.2164 
 
>  <oscillator_strength_4> 
0.0006 
 
>  <open_babel_can_smiles> 
O=Nc1ccc(c2c1cccn2)O 
 
>  <mulliken_charges> 
19 
1   -0.149185 
2   -0.135523 
3   -0.126976 
4   -0.216661 
5   0.049274 
6   0.134204 
7   0.166498 
8   0.365765 
9   0.179022 
10   -0.481184 
11   -0.078494 
12   -0.594214 
13   -0.312239 
14   0.147912 
15   0.178386 
16   0.170394 
17   0.137324 
18   0.148396 
19   0.417301 
 
>  <lowdin_charges> 
19 
1   -0.165484 
2   -0.120044 
3   -0.111865 
4   -0.214772 
5   -0.081869 
6   -0.000392 
7   -0.046539 
8   0.130649 
9   0.013416 
10   -0.131203 
11   0.032159 
12   -0.319682 
13   -0.202401 
14   0.168689 
15   0.180416 
16   0.182429 
17   0.16197 
18   0.160954 
19   0.363568 
 
$$$$ 
 
