PCCDB-ID:  27732 
public computational chemistry database (PCCDB) project, http://pccdb.org 
 
 35 35  0  0  1  0  0  0  0  0999 V2000 
    6.3791   -2.1944    0.8702 C   0  0  0  0  0  0  0  0  0  0  0  0 
    3.5628    1.1826   -0.3519 C   0  0  0  0  0  0  0  0  0  0  0  0 
    7.5568    3.0955   -1.2705 C   0  0  0  0  0  0  0  0  0  0  0  0 
    5.7388   -0.8016    0.8885 C   0  0  0  0  0  0  0  0  0  0  0  0 
    5.7481   -0.1358   -0.4960 C   0  0  0  0  0  0  0  0  0  0  0  0 
    9.4572    4.9704    2.1622 C   0  0  0  0  0  0  0  0  0  0  0  0 
    9.7217    4.9444    0.6762 C   0  0  0  0  0  0  0  0  0  0  0  0 
    5.7064    2.3292    0.3149 C   0  0  0  0  0  0  0  0  0  0  0  0 
    5.0797    1.2559   -0.5991 C   0  0  2  0  0  0  0  0  0  0  0  0 
    7.2098    2.6107    0.1411 C   0  0  2  0  0  0  0  0  0  0  0  0 
    9.0100    3.7897    1.3410 C   0  0  0  0  0  0  0  0  0  0  0  0 
    7.5914    3.6308    1.1355 N   0  0  0  0  0  0  0  0  0  0  0  0 
    6.3650   -2.6557    1.8644 H   0  0  0  0  0  0  0  0  0  0  0  0 
    7.4243   -2.1461    0.5402 H   0  0  0  0  0  0  0  0  0  0  0  0 
    5.8481   -2.8656    0.1838 H   0  0  0  0  0  0  0  0  0  0  0  0 
    3.0924    0.4300   -0.9963 H   0  0  0  0  0  0  0  0  0  0  0  0 
    3.0851    2.1472   -0.5601 H   0  0  0  0  0  0  0  0  0  0  0  0 
    3.3321    0.9221    0.6880 H   0  0  0  0  0  0  0  0  0  0  0  0 
    7.3258    2.3308   -2.0197 H   0  0  0  0  0  0  0  0  0  0  0  0 
    8.6221    3.3302   -1.3530 H   0  0  0  0  0  0  0  0  0  0  0  0 
    6.9903    4.0030   -1.5108 H   0  0  0  0  0  0  0  0  0  0  0  0 
    6.2736   -0.1714    1.6117 H   0  0  0  0  0  0  0  0  0  0  0  0 
    4.7082   -0.8836    1.2579 H   0  0  0  0  0  0  0  0  0  0  0  0 
    5.2446   -0.8060   -1.2084 H   0  0  0  0  0  0  0  0  0  0  0  0 
    6.7889   -0.0645   -0.8413 H   0  0  0  0  0  0  0  0  0  0  0  0 
    8.6799    5.6421    2.5154 H   0  0  0  0  0  0  0  0  0  0  0  0 
   10.2899    4.8376    2.8472 H   0  0  0  0  0  0  0  0  0  0  0  0 
   10.7414    4.7948    0.3309 H   0  0  0  0  0  0  0  0  0  0  0  0 
    9.1166    5.5965    0.0543 H   0  0  0  0  0  0  0  0  0  0  0  0 
    5.5266    2.0468    1.3639 H   0  0  0  0  0  0  0  0  0  0  0  0 
    5.1724    3.2776    0.1642 H   0  0  0  0  0  0  0  0  0  0  0  0 
    5.2138    1.5847   -1.6395 H   0  0  0  0  0  0  0  0  0  0  0  0 
    7.7695    1.6724    0.3229 H   0  0  0  0  0  0  0  0  0  0  0  0 
    9.5976    2.8706    1.4573 H   0  0  0  0  0  0  0  0  0  0  0  0 
    7.1646    3.3834    2.0279 H   0  0  0  0  0  0  0  0  0  0  0  0 
  1  4  1  0  0  0  0 
  1 13  1  0  0  0  0 
  2 18  1  0  0  0  0 
  3 10  1  0  0  0  0 
  4 23  1  0  0  0  0 
  4 22  1  0  0  0  0 
  5  4  1  0  0  0  0 
  6 26  1  0  0  0  0 
  6 27  1  0  0  0  0 
  7 11  1  0  0  0  0 
  7  6  1  0  0  0  0 
  8 30  1  0  0  0  0 
  9 32  1  6  0  0  0 
  9  5  1  0  0  0  0 
  9  2  1  0  0  0  0 
  9  8  1  0  0  0  0 
 10  8  1  0  0  0  0 
 10 33  1  1  0  0  0 
 10 12  1  0  0  0  0 
 11 34  1  0  0  0  0 
 11  6  1  0  0  0  0 
 12 11  1  0  0  0  0 
 12 35  1  0  0  0  0 
 14  1  1  0  0  0  0 
 15  1  1  0  0  0  0 
 16  2  1  0  0  0  0 
 17  2  1  0  0  0  0 
 19  3  1  0  0  0  0 
 20  3  1  0  0  0  0 
 21  3  1  0  0  0  0 
 24  5  1  0  0  0  0 
 25  5  1  0  0  0  0 
 28  7  1  0  0  0  0 
 29  7  1  0  0  0  0 
 31  8  1  0  0  0  0 
M  END 
>  <HBA> 
1 
 
>  <HBD> 
1 
 
>  <TPSA> 
12.03 
 
>  <cid> 
27732 
 
>  <dipole> 
0.89 
 
>  <excitation_energy_1> 
5.426 
 
>  <excitation_energy_2> 
5.842 
 
>  <excitation_energy_3> 
5.873 
 
>  <excitation_energy_4> 
6.112 
 
>  <homo_energy> 
-5.905 
 
>  <homo_lumo_gap> 
7.989 
 
>  <logP> 
3.344 
 
>  <lumo_energy> 
2.084 
 
>  <melting_point> 
19.87 
 
>  <molecular_refractivity> 
55.68 
 
>  <oscillator_strength_1> 
0.0098 
 
>  <oscillator_strength_2> 
0.0525 
 
>  <oscillator_strength_3> 
0.0099 
 
>  <oscillator_strength_4> 
0.0244 
 
>  <open_babel_can_smiles> 
CCC[C@H](C[C@H](NC1CC1)C)C 
 
>  <mulliken_charges> 
35 
1   -0.441725 
2   -0.449913 
3   -0.44619 
4   -0.254667 
5   -0.255971 
6   -0.332621 
7   -0.296975 
8   -0.276928 
9   -0.078986 
10   0.059652 
11   0.031885 
12   -0.572189 
13   0.140767 
14   0.141053 
15   0.141715 
16   0.138552 
17   0.141329 
18   0.142011 
19   0.14069 
20   0.154031 
21   0.145832 
22   0.132336 
23   0.134948 
24   0.124045 
25   0.131027 
26   0.156742 
27   0.146877 
28   0.143454 
29   0.158954 
30   0.119069 
31   0.139058 
32   0.125134 
33   0.105331 
34   0.118949 
35   0.292723 
 
>  <lowdin_charges> 
35 
1   -0.442887 
2   -0.445984 
3   -0.450821 
4   -0.277303 
5   -0.280724 
6   -0.32192 
7   -0.320095 
8   -0.281658 
9   -0.12367 
10   -0.05832 
11   -0.098158 
12   -0.349592 
13   0.148129 
14   0.144638 
15   0.147499 
16   0.148316 
17   0.148715 
18   0.144405 
19   0.148868 
20   0.155171 
21   0.15107 
22   0.139978 
23   0.139749 
24   0.140408 
25   0.137805 
26   0.163509 
27   0.15771 
28   0.154075 
29   0.165369 
30   0.133584 
31   0.147277 
32   0.138273 
33   0.114924 
34   0.129014 
35   0.252646 
 
$$$$ 
 
