PCCDB-ID:  51035 
public computational chemistry database (PCCDB) project, http://pccdb.org 
 
 21 21  0  0  0  0  0  0  0  0999 V2000 
    0.8683    0.1850   -0.2443 C   0  0  0  0  0  0  0  0  0  0  0  0 
    3.1287    1.2229   -0.1990 C   0  0  0  0  0  0  0  0  0  0  0  0 
    4.5083    1.1894   -0.1161 C   0  0  0  0  0  0  0  0  0  0  0  0 
    2.3685    0.0466   -0.1422 C   0  0  0  0  0  0  0  0  0  0  0  0 
    5.1876   -0.0127    0.0660 C   0  0  0  0  0  0  0  0  0  0  0  0 
    4.4835   -1.2559    0.1845 C   0  0  0  0  0  0  0  0  0  0  0  0 
    3.0509   -1.1741    0.0317 C   0  0  0  0  0  0  0  0  0  0  0  0 
    5.1220   -2.4173    0.3892 N   0  0  0  0  0  0  0  0  0  0  0  0 
    6.6367    0.0731    0.1603 N   0  0  0  0  0  0  0  0  0  0  0  0 
    2.2786   -2.4116    0.0315 N   0  0  0  0  0  0  0  0  0  0  0  0 
    7.1591    1.1838    0.0717 O   0  0  0  0  0  0  0  0  0  0  0  0 
    7.3013   -0.9667    0.3223 O   0  0  0  0  0  0  0  0  0  0  0  0 
    1.2163   -2.4397   -0.5876 O   0  0  0  0  0  0  0  0  0  0  0  0 
    2.7143   -3.3973    0.6515 O   0  0  0  0  0  0  0  0  0  0  0  0 
    0.5911    1.2298   -0.0785 H   0  0  0  0  0  0  0  0  0  0  0  0 
    0.3400   -0.4393    0.4803 H   0  0  0  0  0  0  0  0  0  0  0  0 
    0.5118   -0.1192   -1.2326 H   0  0  0  0  0  0  0  0  0  0  0  0 
    2.6204    2.1738   -0.3150 H   0  0  0  0  0  0  0  0  0  0  0  0 
    5.0949    2.0973   -0.1770 H   0  0  0  0  0  0  0  0  0  0  0  0 
    6.1317   -2.3890    0.4578 H   0  0  0  0  0  0  0  0  0  0  0  0 
    4.5720   -3.2392    0.5975 H   0  0  0  0  0  0  0  0  0  0  0  0 
  1  4  1  0  0  0  0 
  1 15  1  0  0  0  0 
  1 16  1  0  0  0  0 
  2  4  2  0  0  0  0 
  2  3  1  0  0  0  0 
  3  5  2  0  0  0  0 
  4  7  1  0  0  0  0 
  5  9  1  0  0  0  0 
  5  6  1  0  0  0  0 
  6  8  1  0  0  0  0 
  7  6  2  0  0  0  0 
  8 20  1  0  0  0  0 
  8 21  1  0  0  0  0 
  9 12  2  0  0  0  0 
 10  7  1  0  0  0  0 
 10 14  2  0  0  0  0 
 11  9  2  0  0  0  0 
 13 10  2  0  0  0  0 
 17  1  1  0  0  0  0 
 18  2  1  0  0  0  0 
 19  3  1  0  0  0  0 
M  END 
>  <HBA> 
1 
 
>  <HBD> 
1 
 
>  <TPSA> 
117.66 
 
>  <cid> 
51035 
 
>  <dipole> 
2.64 
 
>  <excitation_energy_1> 
3.096 
 
>  <excitation_energy_2> 
3.681 
 
>  <excitation_energy_3> 
3.728 
 
>  <excitation_energy_4> 
3.796 
 
>  <homo_energy> 
-6.664 
 
>  <homo_lumo_gap> 
3.728 
 
>  <logP> 
3.021 
 
>  <lumo_energy> 
-2.936 
 
>  <melting_point> 
136.91 
 
>  <molecular_refractivity> 
53.46 
 
>  <oscillator_strength_1> 
0.155 
 
>  <oscillator_strength_2> 
0.0062 
 
>  <oscillator_strength_3> 
0.0047 
 
>  <oscillator_strength_4> 
0.0045 
 
>  <open_babel_can_smiles> 
O=N(=O)c1ccc(c(c1N)N(=O)=O)C 
 
>  <mulliken_charges> 
21 
1   -0.509156 
2   -0.216067 
3   -0.140083 
4   0.179509 
5   0.240689 
6   0.357383 
7   0.173872 
8   -0.827459 
9   0.372039 
10   0.343375 
11   -0.395198 
12   -0.438057 
13   -0.383606 
14   -0.422346 
15   0.158164 
16   0.182679 
17   0.199991 
18   0.149381 
19   0.197266 
20   0.390489 
21   0.387135 
 
>  <lowdin_charges> 
21 
1   -0.43844 
2   -0.192863 
3   -0.104964 
4   0.058423 
5   -0.046996 
6   0.099906 
7   -0.04984 
8   -0.425073 
9   0.314624 
10   0.310389 
11   -0.245579 
12   -0.27817 
13   -0.229811 
14   -0.275048 
15   0.157912 
16   0.176128 
17   0.184074 
18   0.170462 
19   0.196039 
20   0.30919 
21   0.309636 
 
$$$$ 
 
