PCCDB-ID:  37585 
public computational chemistry database (PCCDB) project, http://pccdb.org 
 
 23 23  0  0  0  0  0  0  0  0999 V2000 
    2.2698   -0.9661   -0.0304 C   0  0  0  0  0  0  0  0  0  0  0  0 
    3.4763    1.8185   -3.0481 C   0  0  0  0  0  0  0  0  0  0  0  0 
    3.3226    3.1667   -2.7828 C   0  0  0  0  0  0  0  0  0  0  0  0 
    3.1165    0.8499   -2.0951 C   0  0  0  0  0  0  0  0  0  0  0  0 
    2.5897    4.9906   -1.1627 C   0  0  0  0  0  0  0  0  0  0  0  0 
    3.4003    6.2599   -3.1486 C   0  0  0  0  0  0  0  0  0  0  0  0 
    2.5296    7.4052   -1.2021 C   0  0  0  0  0  0  0  0  0  0  0  0 
    2.8403    6.1558   -1.8352 C   0  0  0  0  0  0  0  0  0  0  0  0 
    2.7960    3.6090   -1.5427 C   0  0  0  0  0  0  0  0  0  0  0  0 
    2.6004    1.2558   -0.8733 C   0  0  0  0  0  0  0  0  0  0  0  0 
    2.4366    2.6285   -0.5917 C   0  0  0  0  0  0  0  0  0  0  0  0 
    3.8538    6.3696   -4.2152 N   0  0  0  0  0  0  0  0  0  0  0  0 
    2.2771    8.4177   -0.6871 N   0  0  0  0  0  0  0  0  0  0  0  0 
    1.9262    2.9955    0.6091 O   0  0  0  0  0  0  0  0  0  0  0  0 
    2.2059    0.4428    0.1586 O   0  0  0  0  0  0  0  0  0  0  0  0 
    1.8918   -1.4103    0.8914 H   0  0  0  0  0  0  0  0  0  0  0  0 
    3.3026   -1.2953   -0.1980 H   0  0  0  0  0  0  0  0  0  0  0  0 
    1.6423   -1.2792   -0.8737 H   0  0  0  0  0  0  0  0  0  0  0  0 
    3.8821    1.4987   -4.0024 H   0  0  0  0  0  0  0  0  0  0  0  0 
    3.6065    3.8907   -3.5349 H   0  0  0  0  0  0  0  0  0  0  0  0 
    3.2452   -0.2034   -2.3187 H   0  0  0  0  0  0  0  0  0  0  0  0 
    2.1638    5.1232   -0.1729 H   0  0  0  0  0  0  0  0  0  0  0  0 
    1.7456    2.1771    1.1068 H   0  0  0  0  0  0  0  0  0  0  0  0 
  1 15  1  0  0  0  0 
  1 16  1  0  0  0  0 
  2  3  2  0  0  0  0 
  2  4  1  0  0  0  0 
  3  9  1  0  0  0  0 
  4 10  2  0  0  0  0 
  5 22  1  0  0  0  0 
  6  8  1  0  0  0  0 
  7 13  3  0  0  0  0 
  8  7  1  0  0  0  0 
  8  5  2  0  0  0  0 
  9  5  1  0  0  0  0 
  9 11  2  0  0  0  0 
 10 11  1  0  0  0  0 
 10 15  1  0  0  0  0 
 11 14  1  0  0  0  0 
 12  6  3  0  0  0  0 
 14 23  1  0  0  0  0 
 17  1  1  0  0  0  0 
 18  1  1  0  0  0  0 
 19  2  1  0  0  0  0 
 20  3  1  0  0  0  0 
 21  4  1  0  0  0  0 
M  END 
>  <HBA> 
4 
 
>  <HBD> 
1 
 
>  <TPSA> 
77.04 
 
>  <cid> 
37585 
 
>  <dipole> 
10.04 
 
>  <excitation_energy_1> 
3.253 
 
>  <excitation_energy_2> 
3.934 
 
>  <excitation_energy_3> 
5.265 
 
>  <excitation_energy_4> 
5.339 
 
>  <homo_energy> 
-6.408 
 
>  <homo_lumo_gap> 
3.777 
 
>  <logP> 
1.831 
 
>  <lumo_energy> 
-2.631 
 
>  <melting_point> 
143.82 
 
>  <molecular_refractivity> 
54.16 
 
>  <oscillator_strength_1> 
0.0839 
 
>  <oscillator_strength_2> 
0.5854 
 
>  <oscillator_strength_3> 
0.0686 
 
>  <oscillator_strength_4> 
0.0 
 
>  <open_babel_can_smiles> 
COc1cccc(c1O)C=C(C#N)C#N 
 
>  <mulliken_charges> 
23 
1   -0.219922 
2   -0.144105 
3   -0.196184 
4   -0.191329 
5   -0.154885 
6   0.314401 
7   0.283404 
8   0.121071 
9   0.118637 
10   0.363439 
11   0.239995 
12   -0.498623 
13   -0.467275 
14   -0.644889 
15   -0.554251 
16   0.180927 
17   0.16555 
18   0.165677 
19   0.148352 
20   0.177853 
21   0.149281 
22   0.204726 
23   0.43815 
 
>  <lowdin_charges> 
23 
1   -0.272358 
2   -0.160093 
3   -0.152178 
4   -0.179019 
5   -0.066719 
6   -0.00189 
7   -0.005973 
8   -0.052868 
9   -0.045536 
10   0.057342 
11   0.100938 
12   -0.106659 
13   -0.105068 
14   -0.360285 
15   -0.217589 
16   0.169815 
17   0.152142 
18   0.154177 
19   0.16843 
20   0.186737 
21   0.168873 
22   0.196413 
23   0.371367 
 
$$$$ 
 
