PCCDB-ID:  40132 
public computational chemistry database (PCCDB) project, http://pccdb.org 
 
 31 32  0  0  1  0  0  0  0  0999 V2000 
    3.2741    1.9757   -0.3408 C   0  0  0  0  0  0  0  0  0  0  0  0 
   -1.4552    1.4154   -2.7494 C   0  0  0  0  0  0  0  0  0  0  0  0 
   -0.1880   -3.6510   -2.3218 C   0  0  0  0  0  0  0  0  0  0  0  0 
   -1.4481   -3.0542   -2.2682 C   0  0  0  0  0  0  0  0  0  0  0  0 
    0.9621   -2.8608   -2.4733 C   0  0  0  0  0  0  0  0  0  0  0  0 
   -1.6000   -1.6639   -2.3705 C   0  0  0  0  0  0  0  0  0  0  0  0 
    2.8106   -0.3146   -1.4911 C   0  0  0  0  0  0  0  0  0  0  0  0 
    3.6683    0.9356   -1.3540 C   0  0  0  0  0  0  0  0  0  0  0  0 
    0.8255   -1.4861   -2.5612 C   0  0  0  0  0  0  0  0  0  0  0  0 
   -0.4481   -0.9003   -2.5207 C   0  0  0  0  0  0  0  0  0  0  0  0 
    0.9775    0.8807   -2.8231 C   0  0  0  0  0  0  0  0  0  0  0  0 
    1.8691   -0.3995   -2.7291 C   0  0  1  0  0  0  0  0  0  0  0  0 
    4.7554    1.1699   -1.9897 N   0  0  0  0  0  0  0  0  0  0  0  0 
   -0.3411    0.4947   -2.6659 N   0  0  0  0  0  0  0  0  0  0  0  0 
    1.3647    2.0229   -3.0003 O   0  0  0  0  0  0  0  0  0  0  0  0 
    2.5769   -0.6051   -3.9331 O   0  0  0  0  0  0  0  0  0  0  0  0 
    5.0447    0.1394   -2.9367 O   0  0  0  0  0  0  0  0  0  0  0  0 
    3.1894    1.5305    0.6589 H   0  0  0  0  0  0  0  0  0  0  0  0 
    2.3012    2.4026   -0.6073 H   0  0  0  0  0  0  0  0  0  0  0  0 
    4.0139    2.7788   -0.3128 H   0  0  0  0  0  0  0  0  0  0  0  0 
   -2.1080    1.1638   -3.5939 H   0  0  0  0  0  0  0  0  0  0  0  0 
   -1.0404    2.4140   -2.8968 H   0  0  0  0  0  0  0  0  0  0  0  0 
   -2.0475    1.3980   -1.8269 H   0  0  0  0  0  0  0  0  0  0  0  0 
   -0.0968   -4.7309   -2.2511 H   0  0  0  0  0  0  0  0  0  0  0  0 
   -2.3329   -3.6742   -2.1517 H   0  0  0  0  0  0  0  0  0  0  0  0 
    1.9451   -3.3198   -2.5345 H   0  0  0  0  0  0  0  0  0  0  0  0 
   -2.5846   -1.2078   -2.3392 H   0  0  0  0  0  0  0  0  0  0  0  0 
    2.1982   -0.4045   -0.5879 H   0  0  0  0  0  0  0  0  0  0  0  0 
    3.4650   -1.1931   -1.5378 H   0  0  0  0  0  0  0  0  0  0  0  0 
    3.4468   -0.1687   -3.8500 H   0  0  0  0  0  0  0  0  0  0  0  0 
    5.8611    0.4660   -3.3456 H   0  0  0  0  0  0  0  0  0  0  0  0 
  1 20  1  0  0  0  0 
  1 18  1  0  0  0  0 
  2 14  1  0  0  0  0 
  2 23  1  0  0  0  0 
  3  4  1  0  0  0  0 
  3 24  1  0  0  0  0 
  4 25  1  0  0  0  0 
  5  3  2  0  0  0  0 
  6 27  1  0  0  0  0 
  6  4  2  0  0  0  0 
  7  8  1  0  0  0  0 
  7 28  1  0  0  0  0 
  8  1  1  0  0  0  0 
  9 10  2  0  0  0  0 
  9  5  1  0  0  0  0 
 10  6  1  0  0  0  0 
 11 12  1  0  0  0  0 
 11 14  1  0  0  0  0 
 12 16  1  6  0  0  0 
 12  9  1  0  0  0  0 
 12  7  1  0  0  0  0 
 13  8  2  0  0  0  0 
 14 10  1  0  0  0  0 
 15 11  2  0  0  0  0 
 16 30  1  0  0  0  0 
 17 13  1  0  0  0  0 
 19  1  1  0  0  0  0 
 21  2  1  0  0  0  0 
 22  2  1  0  0  0  0 
 26  5  1  0  0  0  0 
 29  7  1  0  0  0  0 
 31 17  1  0  0  0  0 
M  END 
>  <HBA> 
5 
 
>  <HBD> 
2 
 
>  <TPSA> 
73.13 
 
>  <cid> 
40132 
 
>  <dipole> 
2.63 
 
>  <excitation_energy_1> 
4.425 
 
>  <excitation_energy_2> 
4.717 
 
>  <excitation_energy_3> 
4.964 
 
>  <excitation_energy_4> 
5.215 
 
>  <homo_energy> 
-5.837 
 
>  <homo_lumo_gap> 
5.211 
 
>  <logP> 
1.156 
 
>  <lumo_energy> 
-0.626 
 
>  <melting_point> 
156.81 
 
>  <molecular_refractivity> 
66.52 
 
>  <oscillator_strength_1> 
0.0208 
 
>  <oscillator_strength_2> 
0.0022 
 
>  <oscillator_strength_3> 
0.099 
 
>  <oscillator_strength_4> 
0.0165 
 
>  <open_babel_can_smiles> 
O/N=C(\C[C@@]1(O)c2ccccc2N(C1=O)C)/C 
 
>  <mulliken_charges> 
31 
1   -0.514291 
2   -0.335194 
3   -0.13761 
4   -0.136657 
5   -0.19536 
6   -0.185728 
7   -0.367287 
8   0.356279 
9   0.110155 
10   0.338278 
11   0.60886 
12   0.137576 
13   -0.225911 
14   -0.546702 
15   -0.517719 
16   -0.646916 
17   -0.536084 
18   0.154057 
19   0.188802 
20   0.177872 
21   0.169773 
22   0.201301 
23   0.164077 
24   0.129639 
25   0.132254 
26   0.141266 
27   0.13314 
28   0.158955 
29   0.185931 
30   0.431326 
31   0.425918 
 
>  <lowdin_charges> 
31 
1   -0.442135 
2   -0.354356 
3   -0.169865 
4   -0.144341 
5   -0.140571 
6   -0.197121 
7   -0.300427 
8   0.038311 
9   -0.035809 
10   0.051516 
11   0.147097 
12   0.108647 
13   -0.071459 
14   -0.070029 
15   -0.280247 
16   -0.447804 
17   -0.392978 
18   0.157202 
19   0.175052 
20   0.17244 
21   0.159863 
22   0.183709 
23   0.156788 
24   0.157076 
25   0.160458 
26   0.164517 
27   0.161679 
28   0.166088 
29   0.175992 
30   0.349263 
31   0.361443 
 
$$$$ 
 
