PCCDB-ID:  9016 
public computational chemistry database (PCCDB) project, http://pccdb.org 
 
 20 20  0  0  0  0  0  0  0  0999 V2000 
    1.9178    0.4813    1.1120 C   0  0  0  0  0  0  0  0  0  0  0  0 
    5.3971    3.5992   -4.6168 C   0  0  0  0  0  0  0  0  0  0  0  0 
    3.8743    0.6835   -1.9582 C   0  0  0  0  0  0  0  0  0  0  0  0 
    2.9033    2.4689   -0.6559 C   0  0  0  0  0  0  0  0  0  0  0  0 
    4.3923    1.6101   -2.8614 C   0  0  0  0  0  0  0  0  0  0  0  0 
    3.4216    3.3956   -1.5589 C   0  0  0  0  0  0  0  0  0  0  0  0 
    3.1283    1.0998   -0.8517 C   0  0  0  0  0  0  0  0  0  0  0  0 
    4.1675    2.9792   -2.6655 C   0  0  0  0  0  0  0  0  0  0  0  0 
    2.6659    0.1048   -0.0296 O   0  0  0  0  0  0  0  0  0  0  0  0 
    4.6276    3.9741   -3.4890 O   0  0  0  0  0  0  0  0  0  0  0  0 
    1.6591   -0.4484    1.6229 H   0  0  0  0  0  0  0  0  0  0  0  0 
    0.9945    1.0103    0.8376 H   0  0  0  0  0  0  0  0  0  0  0  0 
    2.5039    1.1153    1.7917 H   0  0  0  0  0  0  0  0  0  0  0  0 
    5.6617    4.5294   -5.1238 H   0  0  0  0  0  0  0  0  0  0  0  0 
    4.8252    2.9632   -5.3067 H   0  0  0  0  0  0  0  0  0  0  0  0 
    6.3168    3.0731   -4.3255 H   0  0  0  0  0  0  0  0  0  0  0  0 
    4.0426   -0.3796   -2.1004 H   0  0  0  0  0  0  0  0  0  0  0  0 
    2.3290    2.8256    0.1916 H   0  0  0  0  0  0  0  0  0  0  0  0 
    4.9667    1.2534   -3.7088 H   0  0  0  0  0  0  0  0  0  0  0  0 
    3.2533    4.4587   -1.4167 H   0  0  0  0  0  0  0  0  0  0  0  0 
  1 11  1  0  0  0  0 
  1 13  1  0  0  0  0 
  2 16  1  0  0  0  0 
  2 10  1  0  0  0  0 
  3  7  2  0  0  0  0 
  4 18  1  0  0  0  0 
  5  8  2  0  0  0  0 
  5  3  1  0  0  0  0 
  6 20  1  0  0  0  0 
  6  4  2  0  0  0  0 
  7  4  1  0  0  0  0 
  7  9  1  0  0  0  0 
  8  6  1  0  0  0  0 
  9  1  1  0  0  0  0 
 10  8  1  0  0  0  0 
 12  1  1  0  0  0  0 
 14  2  1  0  0  0  0 
 15  2  1  0  0  0  0 
 17  3  1  0  0  0  0 
 19  5  1  0  0  0  0 
M  END 
>  <HBA> 
2 
 
>  <HBD> 
0 
 
>  <TPSA> 
18.46 
 
>  <cid> 
9016 
 
>  <dipole> 
0.03 
 
>  <excitation_energy_1> 
4.612 
 
>  <excitation_energy_2> 
4.973 
 
>  <excitation_energy_3> 
5.2 
 
>  <excitation_energy_4> 
5.564 
 
>  <homo_energy> 
-5.279 
 
>  <homo_lumo_gap> 
5.344 
 
>  <logP> 
1.704 
 
>  <lumo_energy> 
0.065 
 
>  <melting_point> 
14.53 
 
>  <molecular_refractivity> 
39.43 
 
>  <oscillator_strength_1> 
0.0631 
 
>  <oscillator_strength_2> 
0.0 
 
>  <oscillator_strength_3> 
0.0093 
 
>  <oscillator_strength_4> 
0.0058 
 
>  <open_babel_can_smiles> 
COc1ccc(cc1)OC 
 
>  <mulliken_charges> 
20 
1   -0.211965 
2   -0.211968 
3   -0.182588 
4   -0.196527 
5   -0.196815 
6   -0.182847 
7   0.372268 
8   0.372509 
9   -0.512549 
10   -0.512565 
11   0.166662 
12   0.148258 
13   0.148354 
14   0.166667 
15   0.14828 
16   0.148335 
17   0.136999 
18   0.131237 
19   0.131259 
20   0.136994 
 
>  <lowdin_charges> 
20 
1   -0.279383 
2   -0.27943 
3   -0.172734 
4   -0.202248 
5   -0.202256 
6   -0.172739 
7   0.083788 
8   0.083805 
9   -0.205264 
10   -0.205241 
11   0.161554 
12   0.142573 
13   0.144211 
14   0.161556 
15   0.144048 
16   0.142754 
17   0.164383 
18   0.16312 
19   0.16312 
20   0.164383 
 
$$$$ 
 
