PCCDB-ID:  62346 
public computational chemistry database (PCCDB) project, http://pccdb.org 
 
 39 39  0  0  0  0  0  0  0  0999 V2000 
    1.4292   -2.2578    4.9537 C   0  0  0  0  0  0  0  0  0  0  0  0 
    3.4212   -2.4829    6.5095 C   0  0  0  0  0  0  0  0  0  0  0  0 
   10.6935   -1.2449    7.6269 C   0  0  0  0  0  0  0  0  0  0  0  0 
    7.6252   -0.8680    1.9156 C   0  0  0  0  0  0  0  0  0  0  0  0 
    5.2241   -1.9039    3.9885 C   0  0  0  0  0  0  0  0  0  0  0  0 
    3.7227   -1.9860    4.0467 C   0  0  0  0  0  0  0  0  0  0  0  0 
    5.7237   -0.5049    3.5406 C   0  0  0  0  0  0  0  0  0  0  0  0 
    8.6269   -0.1562    6.7482 C   0  0  0  0  0  0  0  0  0  0  0  0 
   10.3292   -0.9027    5.1050 C   0  0  0  0  0  0  0  0  0  0  0  0 
    7.6721    0.3254    5.6779 C   0  0  0  0  0  0  0  0  0  0  0  0 
    9.5984    0.0121    4.1036 C   0  0  0  0  0  0  0  0  0  0  0  0 
    2.9321   -2.2243    5.1050 C   0  0  0  0  0  0  0  0  0  0  0  0 
    9.8124   -0.7333    6.5169 C   0  0  0  0  0  0  0  0  0  0  0  0 
    7.2272   -0.4497    3.3151 C   0  0  0  0  0  0  0  0  0  0  0  0 
    8.0974   -0.0742    4.2738 C   0  0  0  0  0  0  0  0  0  0  0  0 
    0.9487   -1.5076    5.5980 H   0  0  0  0  0  0  0  0  0  0  0  0 
    1.0213   -3.2327    5.2571 H   0  0  0  0  0  0  0  0  0  0  0  0 
    1.1176   -2.0676    3.9217 H   0  0  0  0  0  0  0  0  0  0  0  0 
    3.0948   -3.4728    6.8584 H   0  0  0  0  0  0  0  0  0  0  0  0 
    2.9914   -1.7525    7.2094 H   0  0  0  0  0  0  0  0  0  0  0  0 
    4.5085   -2.4382    6.6057 H   0  0  0  0  0  0  0  0  0  0  0  0 
   10.2340   -1.1022    8.6104 H   0  0  0  0  0  0  0  0  0  0  0  0 
   11.6686   -0.7375    7.6287 H   0  0  0  0  0  0  0  0  0  0  0  0 
   10.9024   -2.3173    7.5038 H   0  0  0  0  0  0  0  0  0  0  0  0 
    7.3012   -0.1190    1.1785 H   0  0  0  0  0  0  0  0  0  0  0  0 
    7.1249   -1.8062    1.6397 H   0  0  0  0  0  0  0  0  0  0  0  0 
    8.6979   -1.0208    1.7830 H   0  0  0  0  0  0  0  0  0  0  0  0 
    5.5965   -2.6525    3.2731 H   0  0  0  0  0  0  0  0  0  0  0  0 
    5.6829   -2.1522    4.9508 H   0  0  0  0  0  0  0  0  0  0  0  0 
    3.2292   -1.8117    3.0879 H   0  0  0  0  0  0  0  0  0  0  0  0 
    5.3955    0.2371    4.2752 H   0  0  0  0  0  0  0  0  0  0  0  0 
    5.2159   -0.2407    2.6020 H   0  0  0  0  0  0  0  0  0  0  0  0 
    8.2890   -0.0279    7.7770 H   0  0  0  0  0  0  0  0  0  0  0  0 
   11.4081   -0.6903    5.0792 H   0  0  0  0  0  0  0  0  0  0  0  0 
   10.2256   -1.9548    4.7963 H   0  0  0  0  0  0  0  0  0  0  0  0 
    7.5875    1.4254    5.7445 H   0  0  0  0  0  0  0  0  0  0  0  0 
    6.6715   -0.0520    5.9145 H   0  0  0  0  0  0  0  0  0  0  0  0 
    9.9217   -0.2158    3.0856 H   0  0  0  0  0  0  0  0  0  0  0  0 
    9.9118    1.0486    4.3043 H   0  0  0  0  0  0  0  0  0  0  0  0 
  1 12  1  0  0  0  0 
  1 17  1  0  0  0  0 
  1 16  1  0  0  0  0 
  2 21  1  0  0  0  0 
  2 19  1  0  0  0  0 
  2 20  1  0  0  0  0 
  3 23  1  0  0  0  0 
  3 22  1  0  0  0  0 
  4 14  1  0  0  0  0 
  5  6  1  0  0  0  0 
  5 29  1  0  0  0  0 
  6 12  2  0  0  0  0 
  7  5  1  0  0  0  0 
  7 31  1  0  0  0  0 
  8 33  1  0  0  0  0 
  9 13  1  0  0  0  0 
 10 36  1  0  0  0  0 
 10 37  1  0  0  0  0 
 10  8  1  0  0  0  0 
 11 15  1  0  0  0  0 
 11 39  1  0  0  0  0 
 11  9  1  0  0  0  0 
 12  2  1  0  0  0  0 
 13  8  2  0  0  0  0 
 13  3  1  0  0  0  0 
 14  7  1  0  0  0  0 
 14 15  2  0  0  0  0 
 15 10  1  0  0  0  0 
 18  1  1  0  0  0  0 
 24  3  1  0  0  0  0 
 25  4  1  0  0  0  0 
 26  4  1  0  0  0  0 
 27  4  1  0  0  0  0 
 28  5  1  0  0  0  0 
 30  6  1  0  0  0  0 
 32  7  1  0  0  0  0 
 34  9  1  0  0  0  0 
 35  9  1  0  0  0  0 
 38 11  1  0  0  0  0 
M  END 
>  <HBA> 
0 
 
>  <HBD> 
0 
 
>  <TPSA> 
0.0 
 
>  <cid> 
62346 
 
>  <dipole> 
0.17 
 
>  <excitation_energy_1> 
5.239 
 
>  <excitation_energy_2> 
5.495 
 
>  <excitation_energy_3> 
5.574 
 
>  <excitation_energy_4> 
5.684 
 
>  <homo_energy> 
-5.774 
 
>  <homo_lumo_gap> 
6.536 
 
>  <logP> 
5.179 
 
>  <lumo_energy> 
0.762 
 
>  <melting_point> 
33.09 
 
>  <molecular_refractivity> 
70.68 
 
>  <oscillator_strength_1> 
0.0179 
 
>  <oscillator_strength_2> 
0.0084 
 
>  <oscillator_strength_3> 
0.0336 
 
>  <oscillator_strength_4> 
0.1239 
 
>  <open_babel_can_smiles> 
CC(=CCC/C(=C\1/CCC(=CC1)C)/C)C 
 
>  <mulliken_charges> 
39 
1   -0.505503 
2   -0.513507 
3   -0.513693 
4   -0.518706 
5   -0.301962 
6   -0.158939 
7   -0.33316 
8   -0.173726 
9   -0.319038 
10   -0.361338 
11   -0.338532 
12   0.187023 
13   0.189435 
14   0.09796 
15   0.118057 
16   0.147735 
17   0.148056 
18   0.150184 
19   0.151554 
20   0.149928 
21   0.154888 
22   0.150216 
23   0.148705 
24   0.150156 
25   0.15189 
26   0.150323 
27   0.152044 
28   0.140384 
29   0.145819 
30   0.108007 
31   0.14601 
32   0.132405 
33   0.11008 
34   0.1332 
35   0.145678 
36   0.149447 
37   0.149921 
38   0.13579 
39   0.143209 
 
>  <lowdin_charges> 
39 
1   -0.439615 
2   -0.443883 
3   -0.436057 
4   -0.44416 
5   -0.273149 
6   -0.191064 
7   -0.276257 
8   -0.193372 
9   -0.270154 
10   -0.272424 
11   -0.271309 
12   -0.011047 
13   -0.018489 
14   -0.031389 
15   -0.031801 
16   0.152746 
17   0.151571 
18   0.152815 
19   0.154529 
20   0.155125 
21   0.153653 
22   0.153688 
23   0.151796 
24   0.151721 
25   0.154533 
26   0.152131 
27   0.151878 
28   0.147947 
29   0.147422 
30   0.143313 
31   0.150344 
32   0.143705 
33   0.145395 
34   0.14303 
35   0.147306 
36   0.150459 
37   0.155005 
38   0.147236 
39   0.146822 
 
$$$$ 
 
