PCCDB-ID:  15294 
public computational chemistry database (PCCDB) project, http://pccdb.org 
 
 20 20  0  0  0  0  0  0  0  0999 V2000 
    3.3131    1.0831    0.3797 C   0  0  0  0  0  0  0  0  0  0  0  0 
    1.3675   -2.1479   -4.3869 C   0  0  0  0  0  0  0  0  0  0  0  0 
    1.2032    0.2502   -4.7261 C   0  0  0  0  0  0  0  0  0  0  0  0 
    1.8912   -1.9306   -3.1202 C   0  0  0  0  0  0  0  0  0  0  0  0 
    1.7294    0.4720   -3.4564 C   0  0  0  0  0  0  0  0  0  0  0  0 
    0.4596   -1.2788   -6.5524 C   0  0  0  0  0  0  0  0  0  0  0  0 
    1.0201   -1.0560   -5.1976 C   0  0  0  0  0  0  0  0  0  0  0  0 
    2.0751   -0.6204   -2.6493 C   0  0  0  0  0  0  0  0  0  0  0  0 
    2.6435   -0.4502   -1.2781 C   0  0  0  0  0  0  0  0  0  0  0  0 
    0.2663   -2.3720   -7.0468 O   0  0  0  0  0  0  0  0  0  0  0  0 
    2.9601   -1.3700   -0.5506 O   0  0  0  0  0  0  0  0  0  0  0  0 
    2.7695    0.8491   -0.9298 O   0  0  0  0  0  0  0  0  0  0  0  0 
    3.3691    2.1670    0.4824 H   0  0  0  0  0  0  0  0  0  0  0  0 
    4.3058    0.6345    0.4681 H   0  0  0  0  0  0  0  0  0  0  0  0 
    2.6608    0.6563    1.1461 H   0  0  0  0  0  0  0  0  0  0  0  0 
    1.2171   -3.1515   -4.7724 H   0  0  0  0  0  0  0  0  0  0  0  0 
    0.9329    1.0928   -5.3589 H   0  0  0  0  0  0  0  0  0  0  0  0 
    2.1681   -2.7573   -2.4747 H   0  0  0  0  0  0  0  0  0  0  0  0 
    1.8737    1.4802   -3.0858 H   0  0  0  0  0  0  0  0  0  0  0  0 
    0.2165   -0.3491   -7.1132 H   0  0  0  0  0  0  0  0  0  0  0  0 
  1 14  1  0  0  0  0 
  1 13  1  0  0  0  0 
  1 15  1  0  0  0  0 
  2  4  2  0  0  0  0 
  3  5  1  0  0  0  0 
  4  8  1  0  0  0  0 
  4 18  1  0  0  0  0 
  5 19  1  0  0  0  0 
  5  8  2  0  0  0  0 
  6  7  1  0  0  0  0 
  7  3  2  0  0  0  0 
  7  2  1  0  0  0  0 
  8  9  1  0  0  0  0 
  9 12  1  0  0  0  0 
  9 11  2  0  0  0  0 
 10  6  2  0  0  0  0 
 12  1  1  0  0  0  0 
 16  2  1  0  0  0  0 
 17  3  1  0  0  0  0 
 20  6  1  0  0  0  0 
M  END 
>  <HBA> 
3 
 
>  <HBD> 
0 
 
>  <TPSA> 
43.37 
 
>  <cid> 
15294 
 
>  <dipole> 
3.95 
 
>  <excitation_energy_1> 
3.49 
 
>  <excitation_energy_2> 
4.395 
 
>  <excitation_energy_3> 
4.419 
 
>  <excitation_energy_4> 
4.838 
 
>  <homo_energy> 
-7.157 
 
>  <homo_lumo_gap> 
4.849 
 
>  <logP> 
1.286 
 
>  <lumo_energy> 
-2.308 
 
>  <melting_point> 
64.04 
 
>  <molecular_refractivity> 
43.11 
 
>  <oscillator_strength_1> 
0.0001 
 
>  <oscillator_strength_2> 
0.0295 
 
>  <oscillator_strength_3> 
0.0001 
 
>  <oscillator_strength_4> 
0.4807 
 
>  <open_babel_can_smiles> 
COC(=O)c1ccc(cc1)C=O 
 
>  <mulliken_charges> 
20 
1   -0.219031 
2   -0.167167 
3   -0.187238 
4   -0.154269 
5   -0.161679 
6   0.197587 
7   0.105348 
8   0.057969 
9   0.597303 
10   -0.398539 
11   -0.482887 
12   -0.466382 
13   0.167342 
14   0.1757 
15   0.174626 
16   0.170313 
17   0.146138 
18   0.17302 
19   0.164406 
20   0.107439 
 
>  <lowdin_charges> 
20 
1   -0.274358 
2   -0.125182 
3   -0.14477 
4   -0.129698 
5   -0.138849 
6   0.048002 
7   -0.042475 
8   -0.027782 
9   0.197027 
10   -0.21861 
11   -0.261903 
12   -0.189795 
13   0.16006 
14   0.161813 
15   0.163074 
16   0.17876 
17   0.165712 
18   0.182746 
19   0.175536 
20   0.120693 
 
$$$$ 
 
