PCCDB-ID:  12048 
public computational chemistry database (PCCDB) project, http://pccdb.org 
 
 23 22  0  0  0  0  0  0  0  0999 V2000 
    2.9242   -0.6293   -1.1371 C   0  0  0  0  0  0  0  0  0  0  0  0 
    3.7480    1.0675    3.6868 C   0  0  0  0  0  0  0  0  0  0  0  0 
    6.0373   -0.4603    1.0500 C   0  0  0  0  0  0  0  0  0  0  0  0 
    2.9543   -0.8907    0.3734 C   0  0  0  0  0  0  0  0  0  0  0  0 
    3.3598   -0.0637    2.7273 C   0  0  0  0  0  0  0  0  0  0  0  0 
    4.9832    0.6362    0.8443 C   0  0  0  0  0  0  0  0  0  0  0  0 
    3.5324    0.2589    1.2271 C   0  0  0  0  0  0  0  0  0  0  0  0 
    2.4147   -1.4443   -1.6639 H   0  0  0  0  0  0  0  0  0  0  0  0 
    3.9307   -0.5452   -1.5617 H   0  0  0  0  0  0  0  0  0  0  0  0 
    2.3889    0.3005   -1.3680 H   0  0  0  0  0  0  0  0  0  0  0  0 
    3.5021    0.8022    4.7216 H   0  0  0  0  0  0  0  0  0  0  0  0 
    3.2113    1.9938    3.4457 H   0  0  0  0  0  0  0  0  0  0  0  0 
    4.8205    1.2883    3.6533 H   0  0  0  0  0  0  0  0  0  0  0  0 
    7.0310   -0.0953    0.7659 H   0  0  0  0  0  0  0  0  0  0  0  0 
    5.8298   -1.3484    0.4420 H   0  0  0  0  0  0  0  0  0  0  0  0 
    6.0945   -0.7826    2.0961 H   0  0  0  0  0  0  0  0  0  0  0  0 
    3.5142   -1.8153    0.5728 H   0  0  0  0  0  0  0  0  0  0  0  0 
    1.9289   -1.0857    0.7170 H   0  0  0  0  0  0  0  0  0  0  0  0 
    2.3060   -0.3236    2.8989 H   0  0  0  0  0  0  0  0  0  0  0  0 
    3.9317   -0.9677    2.9793 H   0  0  0  0  0  0  0  0  0  0  0  0 
    4.9988    0.9506   -0.2069 H   0  0  0  0  0  0  0  0  0  0  0  0 
    5.2783    1.5244    1.4171 H   0  0  0  0  0  0  0  0  0  0  0  0 
    2.9184    1.1512    1.0197 H   0  0  0  0  0  0  0  0  0  0  0  0 
  1  4  1  0  0  0  0 
  2 11  1  0  0  0  0 
  3 16  1  0  0  0  0 
  4 17  1  0  0  0  0 
  4 18  1  0  0  0  0 
  4  7  1  0  0  0  0 
  5 19  1  0  0  0  0 
  5 20  1  0  0  0  0 
  5  2  1  0  0  0  0 
  6  3  1  0  0  0  0 
  6  7  1  0  0  0  0 
  6 22  1  0  0  0  0 
  7  5  1  0  0  0  0 
  8  1  1  0  0  0  0 
  9  1  1  0  0  0  0 
 10  1  1  0  0  0  0 
 12  2  1  0  0  0  0 
 13  2  1  0  0  0  0 
 14  3  1  0  0  0  0 
 15  3  1  0  0  0  0 
 21  6  1  0  0  0  0 
 23  7  1  0  0  0  0 
M  END 
>  <HBA> 
0 
 
>  <HBD> 
0 
 
>  <TPSA> 
0.0 
 
>  <cid> 
12048 
 
>  <dipole> 
0.03 
 
>  <excitation_energy_1> 
7.649 
 
>  <excitation_energy_2> 
7.651 
 
>  <excitation_energy_3> 
7.826 
 
>  <excitation_energy_4> 
8.068 
 
>  <homo_energy> 
-8.15 
 
>  <homo_lumo_gap> 
10.242 
 
>  <logP> 
2.833 
 
>  <lumo_energy> 
2.093 
 
>  <melting_point> 
-27.23 
 
>  <molecular_refractivity> 
35.76 
 
>  <oscillator_strength_1> 
0.0061 
 
>  <oscillator_strength_2> 
0.0051 
 
>  <oscillator_strength_3> 
0.0084 
 
>  <oscillator_strength_4> 
0.0013 
 
>  <open_babel_can_smiles> 
CCC(CC)CC 
 
>  <mulliken_charges> 
23 
1   -0.4499 
2   -0.449745 
3   -0.452076 
4   -0.25303 
5   -0.25317 
6   -0.262892 
7   -0.059234 
8   0.140948 
9   0.146308 
10   0.140405 
11   0.140912 
12   0.140385 
13   0.146261 
14   0.141347 
15   0.145563 
16   0.145668 
17   0.130441 
18   0.127482 
19   0.127465 
20   0.130416 
21   0.132938 
22   0.132814 
23   0.110695 
 
>  <lowdin_charges> 
23 
1   -0.448246 
2   -0.444736 
3   -0.448564 
4   -0.275196 
5   -0.275406 
6   -0.279014 
7   -0.128066 
8   0.150718 
9   0.146589 
10   0.145999 
11   0.148549 
12   0.145954 
13   0.14554 
14   0.149624 
15   0.147469 
16   0.146018 
17   0.138796 
18   0.139411 
19   0.138939 
20   0.138968 
21   0.140953 
22   0.142665 
23   0.133038 
 
$$$$ 
 
