PCCDB-ID:  42445 
public computational chemistry database (PCCDB) project, http://pccdb.org 
 
 26 27  0  0  1  0  0  0  0  0999 V2000 
    1.0356   -0.2907    0.1473 C   0  0  0  0  0  0  0  0  0  0  0  0 
    5.5347    1.9295    4.8869 C   0  0  0  0  0  0  0  0  0  0  0  0 
    4.7978   -1.9785    3.4405 C   0  0  0  0  0  0  0  0  0  0  0  0 
    5.0409   -0.7081    3.9750 C   0  0  0  0  0  0  0  0  0  0  0  0 
    4.2005   -2.1479    2.1952 C   0  0  0  0  0  0  0  0  0  0  0  0 
    3.7767    1.4082    1.1080 C   0  0  0  0  0  0  0  0  0  0  0  0 
    2.7790    2.2847   -0.9302 C   0  0  0  0  0  0  0  0  0  0  0  0 
    2.4814   -0.1505   -0.3350 C   0  0  1  0  0  0  0  0  0  0  0  0 
    3.0648    1.2222   -0.0276 C   0  0  0  0  0  0  0  0  0  0  0  0 
    4.0778    0.2827    1.9638 C   0  0  0  0  0  0  0  0  0  0  0  0 
    4.6863    0.4216    3.2342 C   0  0  0  0  0  0  0  0  0  0  0  0 
    3.8333   -1.0139    1.4689 C   0  0  0  0  0  0  0  0  0  0  0  0 
    2.5168    3.1272   -1.6923 N   0  0  0  0  0  0  0  0  0  0  0  0 
    4.8849    1.7046    3.6430 O   0  0  0  0  0  0  0  0  0  0  0  0 
    3.3017   -1.1979    0.2289 O   0  0  0  0  0  0  0  0  0  0  0  0 
    0.4013    0.4519   -0.3489 H   0  0  0  0  0  0  0  0  0  0  0  0 
    0.9705   -0.1323    1.2287 H   0  0  0  0  0  0  0  0  0  0  0  0 
    0.6562   -1.2901   -0.0884 H   0  0  0  0  0  0  0  0  0  0  0  0 
    5.6034    3.0131    4.9940 H   0  0  0  0  0  0  0  0  0  0  0  0 
    6.5429    1.4967    4.8955 H   0  0  0  0  0  0  0  0  0  0  0  0 
    4.9537    1.5173    5.7214 H   0  0  0  0  0  0  0  0  0  0  0  0 
    5.0779   -2.8543    4.0194 H   0  0  0  0  0  0  0  0  0  0  0  0 
    5.4996   -0.6144    4.9515 H   0  0  0  0  0  0  0  0  0  0  0  0 
    4.0119   -3.1303    1.7770 H   0  0  0  0  0  0  0  0  0  0  0  0 
    4.1568    2.3875    1.3763 H   0  0  0  0  0  0  0  0  0  0  0  0 
    2.5269   -0.3378   -1.4116 H   0  0  0  0  0  0  0  0  0  0  0  0 
  1 17  1  0  0  0  0 
  2 20  1  0  0  0  0 
  2 19  1  0  0  0  0 
  2 21  1  0  0  0  0 
  3  4  1  0  0  0  0 
  3 22  1  0  0  0  0 
  4 23  1  0  0  0  0 
  5  3  2  0  0  0  0 
  6 25  1  0  0  0  0 
  6 10  1  0  0  0  0 
  7  9  1  0  0  0  0 
  8 26  1  6  0  0  0 
  8  9  1  0  0  0  0 
  8  1  1  0  0  0  0 
  8 15  1  0  0  0  0 
  9  6  2  0  0  0  0 
 10 11  1  0  0  0  0 
 11 14  1  0  0  0  0 
 11  4  2  0  0  0  0 
 12 10  2  0  0  0  0 
 12  5  1  0  0  0  0 
 13  7  3  0  0  0  0 
 14  2  1  0  0  0  0 
 15 12  1  0  0  0  0 
 16  1  1  0  0  0  0 
 18  1  1  0  0  0  0 
 24  5  1  0  0  0  0 
M  END 
>  <HBA> 
3 
 
>  <HBD> 
0 
 
>  <TPSA> 
42.25 
 
>  <cid> 
42445 
 
>  <dipole> 
5.69 
 
>  <excitation_energy_1> 
3.657 
 
>  <excitation_energy_2> 
3.903 
 
>  <excitation_energy_3> 
5.344 
 
>  <excitation_energy_4> 
5.465 
 
>  <homo_energy> 
-5.984 
 
>  <homo_lumo_gap> 
4.229 
 
>  <logP> 
2.383 
 
>  <lumo_energy> 
-1.755 
 
>  <melting_point> 
97.63 
 
>  <molecular_refractivity> 
56.77 
 
>  <oscillator_strength_1> 
0.0578 
 
>  <oscillator_strength_2> 
0.3521 
 
>  <oscillator_strength_3> 
0.0854 
 
>  <oscillator_strength_4> 
0.0101 
 
>  <open_babel_can_smiles> 
N#CC1=Cc2c(OC)cccc2O[C@H]1C 
 
>  <mulliken_charges> 
26 
1   -0.450338 
2   -0.218753 
3   -0.135878 
4   -0.204693 
5   -0.182385 
6   -0.129228 
7   0.254807 
8   0.077481 
9   0.076988 
10   0.040871 
11   0.321204 
12   0.329293 
13   -0.487856 
14   -0.508317 
15   -0.535031 
16   0.167501 
17   0.161659 
18   0.163819 
19   0.177051 
20   0.159629 
21   0.158774 
22   0.140282 
23   0.13619 
24   0.142507 
25   0.176612 
26   0.167813 
 
>  <lowdin_charges> 
26 
1   -0.453965 
2   -0.273759 
3   -0.125635 
4   -0.231375 
5   -0.202568 
6   -0.102501 
7   -0.018749 
8   0.024864 
9   -0.06004 
10   -0.08149 
11   0.114588 
12   0.121168 
13   -0.127904 
14   -0.192871 
15   -0.188987 
16   0.168222 
17   0.159303 
18   0.161481 
19   0.164936 
20   0.149002 
21   0.150297 
22   0.164809 
23   0.164965 
24   0.170241 
25   0.184622 
26   0.161348 
 
$$$$ 
 
