PCCDB-ID:  15268 
public computational chemistry database (PCCDB) project, http://pccdb.org 
 
 47 46  0  0  0  0  0  0  0  0999 V2000 
    1.7966    3.2383   -2.6647 C   0  0  0  0  0  0  0  0  0  0  0  0 
   14.9416    2.4337    2.3052 C   0  0  0  0  0  0  0  0  0  0  0  0 
   13.5637    3.4733    0.4815 C   0  0  0  0  0  0  0  0  0  0  0  0 
    3.2276    2.8638   -3.0693 C   0  0  0  0  0  0  0  0  0  0  0  0 
    4.0802    2.2768   -1.9319 C   0  0  0  0  0  0  0  0  0  0  0  0 
    4.3858    3.2535   -0.7874 C   0  0  0  0  0  0  0  0  0  0  0  0 
    5.2936    2.6540    0.2953 C   0  0  0  0  0  0  0  0  0  0  0  0 
    5.5995    3.6333    1.4374 C   0  0  0  0  0  0  0  0  0  0  0  0 
    6.4318    3.0410    2.5887 C   0  0  0  0  0  0  0  0  0  0  0  0 
    7.8546    2.5718    2.2317 C   0  0  0  0  0  0  0  0  0  0  0  0 
    8.7903    3.6880    1.7426 C   0  0  0  0  0  0  0  0  0  0  0  0 
   10.2261    3.2287    1.4224 C   0  0  0  0  0  0  0  0  0  0  0  0 
   11.0537    2.8547    2.6630 C   0  0  0  0  0  0  0  0  0  0  0  0 
   12.4291    2.1972    2.4242 C   0  0  0  0  0  0  0  0  0  0  0  0 
   13.5979    3.1053    1.9739 C   0  0  0  0  0  0  0  0  0  0  0  0 
    1.2262    3.6036   -3.5266 H   0  0  0  0  0  0  0  0  0  0  0  0 
    1.7794    4.0256   -1.9026 H   0  0  0  0  0  0  0  0  0  0  0  0 
    1.2628    2.3710   -2.2560 H   0  0  0  0  0  0  0  0  0  0  0  0 
   15.7867    3.0687    2.0134 H   0  0  0  0  0  0  0  0  0  0  0  0 
   15.0454    1.4798    1.7709 H   0  0  0  0  0  0  0  0  0  0  0  0 
   15.0321    2.2249    3.3778 H   0  0  0  0  0  0  0  0  0  0  0  0 
   13.5921    2.5691   -0.1410 H   0  0  0  0  0  0  0  0  0  0  0  0 
   14.4337    4.0855    0.2138 H   0  0  0  0  0  0  0  0  0  0  0  0 
   12.6688    4.0376    0.2065 H   0  0  0  0  0  0  0  0  0  0  0  0 
    3.7347    3.7488   -3.4799 H   0  0  0  0  0  0  0  0  0  0  0  0 
    3.1846    2.1328   -3.8880 H   0  0  0  0  0  0  0  0  0  0  0  0 
    5.0309    1.9190   -2.3526 H   0  0  0  0  0  0  0  0  0  0  0  0 
    3.5757    1.3876   -1.5246 H   0  0  0  0  0  0  0  0  0  0  0  0 
    3.4493    3.5894   -0.3212 H   0  0  0  0  0  0  0  0  0  0  0  0 
    4.8608    4.1565   -1.1998 H   0  0  0  0  0  0  0  0  0  0  0  0 
    6.2299    2.3152   -0.1699 H   0  0  0  0  0  0  0  0  0  0  0  0 
    4.8174    1.7524    0.7092 H   0  0  0  0  0  0  0  0  0  0  0  0 
    4.6484    3.9953    1.8538 H   0  0  0  0  0  0  0  0  0  0  0  0 
    6.1007    4.5216    1.0286 H   0  0  0  0  0  0  0  0  0  0  0  0 
    5.8814    2.1904    3.0160 H   0  0  0  0  0  0  0  0  0  0  0  0 
    6.5009    3.7892    3.3913 H   0  0  0  0  0  0  0  0  0  0  0  0 
    7.8078    1.7831    1.4674 H   0  0  0  0  0  0  0  0  0  0  0  0 
    8.2838    2.0980    3.1241 H   0  0  0  0  0  0  0  0  0  0  0  0 
    8.8256    4.4897    2.4962 H   0  0  0  0  0  0  0  0  0  0  0  0 
    8.3650    4.1438    0.8389 H   0  0  0  0  0  0  0  0  0  0  0  0 
   10.7268    4.0330    0.8715 H   0  0  0  0  0  0  0  0  0  0  0  0 
   10.1861    2.3688    0.7366 H   0  0  0  0  0  0  0  0  0  0  0  0 
   10.4658    2.1547    3.2712 H   0  0  0  0  0  0  0  0  0  0  0  0 
   11.1881    3.7509    3.2878 H   0  0  0  0  0  0  0  0  0  0  0  0 
   12.3219    1.3673    1.7085 H   0  0  0  0  0  0  0  0  0  0  0  0 
   12.7257    1.7306    3.3740 H   0  0  0  0  0  0  0  0  0  0  0  0 
   13.5389    4.0372    2.5580 H   0  0  0  0  0  0  0  0  0  0  0  0 
  1 18  1  0  0  0  0 
  1 17  1  0  0  0  0 
  2 21  1  0  0  0  0 
  3 15  1  0  0  0  0 
  4  1  1  0  0  0  0 
  4  5  1  0  0  0  0 
  5 28  1  0  0  0  0 
  5  6  1  0  0  0  0 
  6 29  1  0  0  0  0 
  6  7  1  0  0  0  0 
  7 32  1  0  0  0  0 
  7  8  1  0  0  0  0 
  8 33  1  0  0  0  0 
  8  9  1  0  0  0  0 
  9 35  1  0  0  0  0 
  9 36  1  0  0  0  0 
 10  9  1  0  0  0  0 
 10 38  1  0  0  0  0 
 11 10  1  0  0  0  0 
 11 39  1  0  0  0  0 
 12 11  1  0  0  0  0 
 12 13  1  0  0  0  0 
 13 43  1  0  0  0  0 
 13 44  1  0  0  0  0 
 14 13  1  0  0  0  0 
 14 46  1  0  0  0  0 
 15  2  1  0  0  0  0 
 15 14  1  0  0  0  0 
 15 47  1  0  0  0  0 
 16  1  1  0  0  0  0 
 19  2  1  0  0  0  0 
 20  2  1  0  0  0  0 
 22  3  1  0  0  0  0 
 23  3  1  0  0  0  0 
 24  3  1  0  0  0  0 
 25  4  1  0  0  0  0 
 26  4  1  0  0  0  0 
 27  5  1  0  0  0  0 
 30  6  1  0  0  0  0 
 31  7  1  0  0  0  0 
 34  8  1  0  0  0  0 
 37 10  1  0  0  0  0 
 40 11  1  0  0  0  0 
 41 12  1  0  0  0  0 
 42 12  1  0  0  0  0 
 45 14  1  0  0  0  0 
M  END 
>  <HBA> 
0 
 
>  <HBD> 
0 
 
>  <TPSA> 
0.0 
 
>  <cid> 
15268 
 
>  <dipole> 
0.08 
 
>  <excitation_energy_1> 
7.458 
 
>  <excitation_energy_2> 
7.585 
 
>  <excitation_energy_3> 
7.622 
 
>  <excitation_energy_4> 
7.668 
 
>  <homo_energy> 
-7.897 
 
>  <homo_lumo_gap> 
10.153 
 
>  <logP> 
5.953 
 
>  <lumo_energy> 
2.256 
 
>  <melting_point> 
-32.54 
 
>  <molecular_refractivity> 
74.22 
 
>  <oscillator_strength_1> 
0.0005 
 
>  <oscillator_strength_2> 
0.0001 
 
>  <oscillator_strength_3> 
0.0256 
 
>  <oscillator_strength_4> 
0.0073 
 
>  <open_babel_can_smiles> 
CCCCCCCCCCCCC(C)C 
 
>  <mulliken_charges> 
47 
1   -0.443121 
2   -0.443141 
3   -0.446092 
4   -0.247991 
5   -0.249367 
6   -0.252919 
7   -0.253859 
8   -0.25704 
9   -0.25747 
10   -0.259238 
11   -0.257211 
12   -0.25699 
13   -0.261035 
14   -0.253253 
15   -0.061053 
16   0.141169 
17   0.146142 
18   0.139991 
19   0.137697 
20   0.138409 
21   0.138502 
22   0.136989 
23   0.137023 
24   0.148352 
25   0.128798 
26   0.129554 
27   0.126027 
28   0.125311 
29   0.131049 
30   0.125095 
31   0.131075 
32   0.125734 
33   0.126226 
34   0.13145 
35   0.125474 
36   0.125772 
37   0.130911 
38   0.132109 
39   0.12498 
40   0.131336 
41   0.134647 
42   0.124793 
43   0.132774 
44   0.125614 
45   0.123261 
46   0.125261 
47   0.118254 
 
>  <lowdin_charges> 
47 
1   -0.449543 
2   -0.443694 
3   -0.449337 
4   -0.274139 
5   -0.276372 
6   -0.276822 
7   -0.277033 
8   -0.279161 
9   -0.277546 
10   -0.281858 
11   -0.279429 
12   -0.280043 
13   -0.279685 
14   -0.277629 
15   -0.120196 
16   0.150024 
17   0.147575 
18   0.14627 
19   0.146927 
20   0.144859 
21   0.144376 
22   0.144902 
23   0.146884 
24   0.149481 
25   0.138853 
26   0.141607 
27   0.139334 
28   0.137236 
29   0.138886 
30   0.137039 
31   0.138334 
32   0.137403 
33   0.140183 
34   0.138861 
35   0.140329 
36   0.140093 
37   0.138549 
38   0.141828 
39   0.137422 
40   0.141698 
41   0.142826 
42   0.137352 
43   0.143048 
44   0.137358 
45   0.13766 
46   0.141792 
47   0.133498 
 
$$$$ 
 
