PCCDB-ID:  72893 
public computational chemistry database (PCCDB) project, http://pccdb.org 
 
 25 25  0  0  0  0  0  0  0  0999 V2000 
    2.7748   -0.9747   -1.6525 C   0  0  0  0  0  0  0  0  0  0  0  0 
    2.5665    2.7497    5.0574 C   0  0  0  0  0  0  0  0  0  0  0  0 
    1.7407   -0.3595   -0.6924 C   0  0  0  0  0  0  0  0  0  0  0  0 
    2.8187   -0.0100    1.5802 C   0  0  0  0  0  0  0  0  0  0  0  0 
    2.5581    1.8952    0.1495 C   0  0  0  0  0  0  0  0  0  0  0  0 
    3.4290    0.7909    2.5452 C   0  0  0  0  0  0  0  0  0  0  0  0 
    3.1774    2.7038    1.0983 C   0  0  0  0  0  0  0  0  0  0  0  0 
    3.8565    3.2085    4.4114 C   0  0  0  0  0  0  0  0  0  0  0  0 
    2.3665    0.5231    0.3673 C   0  0  0  0  0  0  0  0  0  0  0  0 
    3.6068    2.1666    2.3228 C   0  0  0  0  0  0  0  0  0  0  0  0 
    4.2783    2.9959    3.2348 N   0  0  0  0  0  0  0  0  0  0  0  0 
    4.6527    3.9809    5.2076 O   0  0  0  0  0  0  0  0  0  0  0  0 
    2.2868   -1.6069   -2.4039 H   0  0  0  0  0  0  0  0  0  0  0  0 
    3.4982   -1.5910   -1.1067 H   0  0  0  0  0  0  0  0  0  0  0  0 
    3.3359   -0.1932   -2.1772 H   0  0  0  0  0  0  0  0  0  0  0  0 
    2.7716    2.0997    5.9172 H   0  0  0  0  0  0  0  0  0  0  0  0 
    1.9435    2.2015    4.3500 H   0  0  0  0  0  0  0  0  0  0  0  0 
    2.0032    3.6180    5.4232 H   0  0  0  0  0  0  0  0  0  0  0  0 
    1.1741   -1.1670   -0.2106 H   0  0  0  0  0  0  0  0  0  0  0  0 
    1.0145    0.2237   -1.2734 H   0  0  0  0  0  0  0  0  0  0  0  0 
    2.6924   -1.0730    1.7775 H   0  0  0  0  0  0  0  0  0  0  0  0 
    2.2206    2.3387   -0.7853 H   0  0  0  0  0  0  0  0  0  0  0  0 
    3.7927    0.3512    3.4703 H   0  0  0  0  0  0  0  0  0  0  0  0 
    3.3314    3.7623    0.9103 H   0  0  0  0  0  0  0  0  0  0  0  0 
    4.2188    4.1065    6.0654 H   0  0  0  0  0  0  0  0  0  0  0  0 
  1 14  1  0  0  0  0 
  1  3  1  0  0  0  0 
  2 18  1  0  0  0  0 
  2 16  1  0  0  0  0 
  3 19  1  0  0  0  0 
  3  9  1  0  0  0  0 
  4 21  1  0  0  0  0 
  4  6  2  0  0  0  0 
  5  9  2  0  0  0  0 
  5  7  1  0  0  0  0 
  6 23  1  0  0  0  0 
  7 10  2  0  0  0  0 
  8  2  1  0  0  0  0 
  8 12  1  0  0  0  0 
  9  4  1  0  0  0  0 
 10  6  1  0  0  0  0 
 10 11  1  0  0  0  0 
 11  8  2  0  0  0  0 
 12 25  1  0  0  0  0 
 13  1  1  0  0  0  0 
 15  1  1  0  0  0  0 
 17  2  1  0  0  0  0 
 20  3  1  0  0  0  0 
 22  5  1  0  0  0  0 
 24  7  1  0  0  0  0 
M  END 
>  <HBA> 
2 
 
>  <HBD> 
1 
 
>  <TPSA> 
29.1 
 
>  <cid> 
72893 
 
>  <dipole> 
3.68 
 
>  <excitation_energy_1> 
4.65 
 
>  <excitation_energy_2> 
4.853 
 
>  <excitation_energy_3> 
4.871 
 
>  <excitation_energy_4> 
5.307 
 
>  <homo_energy> 
-5.584 
 
>  <homo_lumo_gap> 
5.54 
 
>  <logP> 
2.28 
 
>  <lumo_energy> 
-0.044 
 
>  <melting_point> 
62.77 
 
>  <molecular_refractivity> 
50.53 
 
>  <oscillator_strength_1> 
0.1312 
 
>  <oscillator_strength_2> 
0.0022 
 
>  <oscillator_strength_3> 
0.0693 
 
>  <oscillator_strength_4> 
0.0464 
 
>  <open_babel_can_smiles> 
CCc1ccc(cc1)/N=C(/O)\C 
 
>  <mulliken_charges> 
25 
1   -0.431499 
2   -0.55555 
3   -0.340074 
4   -0.194285 
5   -0.193236 
6   -0.155999 
7   -0.148023 
8   0.481807 
9   0.178753 
10   0.234412 
11   -0.465345 
12   -0.570458 
13   0.140171 
14   0.148333 
15   0.149475 
16   0.175034 
17   0.199181 
18   0.169808 
19   0.138932 
20   0.13972 
21   0.119159 
22   0.12041 
23   0.12143 
24   0.130672 
25   0.407169 
 
>  <lowdin_charges> 
25 
1   -0.444596 
2   -0.486007 
3   -0.272892 
4   -0.163154 
5   -0.162929 
6   -0.188689 
7   -0.171165 
8   0.143435 
9   -0.015047 
10   0.043165 
11   -0.169885 
12   -0.360221 
13   0.148644 
14   0.15138 
15   0.151945 
16   0.170099 
17   0.185917 
18   0.167898 
19   0.147724 
20   0.148367 
21   0.151047 
22   0.153584 
23   0.155385 
24   0.160351 
25   0.355643 
 
$$$$ 
 
