PCCDB-ID:  13157 
public computational chemistry database (PCCDB) project, http://pccdb.org 
 
 18 17  0  0  0  0  0  0  0  0999 V2000 
    1.2622   -0.9091    0.0130 C   0  0  0  0  0  0  0  0  0  0  0  0 
    2.5663   -0.9470    0.8155 C   0  0  0  0  0  0  0  0  0  0  0  0 
    3.6463   -0.0641    0.1781 C   0  0  0  0  0  0  0  0  0  0  0  0 
    5.2533    0.7684    1.9794 C   0  0  0  0  0  0  0  0  0  0  0  0 
    6.3213    0.8185    2.6579 N   0  0  0  0  0  0  0  0  0  0  0  0 
    5.8732   -1.0350    0.6359 N   0  0  0  0  0  0  0  0  0  0  0  0 
    4.9211   -0.1032    0.9122 N   0  0  0  0  0  0  0  0  0  0  0  0 
    4.2230    1.6115    2.2214 O   0  0  0  0  0  0  0  0  0  0  0  0 
    5.5828   -1.8167   -0.2523 O   0  0  0  0  0  0  0  0  0  0  0  0 
    0.5001   -1.5430    0.4781 H   0  0  0  0  0  0  0  0  0  0  0  0 
    1.4140   -1.2683   -1.0118 H   0  0  0  0  0  0  0  0  0  0  0  0 
    0.8586    0.1090   -0.0451 H   0  0  0  0  0  0  0  0  0  0  0  0 
    2.9407   -1.9753    0.8764 H   0  0  0  0  0  0  0  0  0  0  0  0 
    2.3870   -0.6044    1.8415 H   0  0  0  0  0  0  0  0  0  0  0  0 
    3.3283    0.9782    0.1340 H   0  0  0  0  0  0  0  0  0  0  0  0 
    3.8762   -0.4108   -0.8325 H   0  0  0  0  0  0  0  0  0  0  0  0 
    6.9934    0.1179    2.3482 H   0  0  0  0  0  0  0  0  0  0  0  0 
    4.5280    2.1705    2.9593 H   0  0  0  0  0  0  0  0  0  0  0  0 
  1 10  1  0  0  0  0 
  1  2  1  0  0  0  0 
  2 13  1  0  0  0  0 
  2 14  1  0  0  0  0 
  3  2  1  0  0  0  0 
  3  7  1  0  0  0  0 
  4  8  1  0  0  0  0 
  4  5  2  0  0  0  0 
  6  7  1  0  0  0  0 
  7  4  1  0  0  0  0 
  8 18  1  0  0  0  0 
  9  6  1  0  0  0  0 
 11  1  1  0  0  0  0 
 12  1  1  0  0  0  0 
 15  3  1  0  0  0  0 
 16  3  1  0  0  0  0 
 17  5  1  0  0  0  0 
M  RAD  2   6   2   9   2 
M  END 
>  <HBA> 
5 
 
>  <HBD> 
1 
 
>  <TPSA> 
75.76 
 
>  <cid> 
13157 
 
>  <dipole> 
2.81 
 
>  <excitation_energy_1> 
3.051 
 
>  <excitation_energy_2> 
4.681 
 
>  <excitation_energy_3> 
5.092 
 
>  <excitation_energy_4> 
5.976 
 
>  <homo_energy> 
-6.77 
 
>  <homo_lumo_gap> 
4.898 
 
>  <logP> 
1.159 
 
>  <lumo_energy> 
-1.872 
 
>  <melting_point> 
82.43 
 
>  <molecular_refractivity> 
32.27 
 
>  <oscillator_strength_1> 
0.0013 
 
>  <oscillator_strength_2> 
0.0651 
 
>  <oscillator_strength_3> 
0.0013 
 
>  <oscillator_strength_4> 
0.0937 
 
>  <open_babel_can_smiles> 
CCCN(C(=N)O)[N][O] 
 
>  <mulliken_charges> 
18 
1   -0.450046 
2   -0.259725 
3   -0.141312 
4   0.691199 
5   -0.635726 
6   0.177945 
7   -0.322861 
8   -0.603052 
9   -0.345289 
10   0.155121 
11   0.152628 
12   0.148357 
13   0.160236 
14   0.154358 
15   0.182514 
16   0.183153 
17   0.32221 
18   0.43029 
 
>  <lowdin_charges> 
18 
1   -0.442977 
2   -0.276266 
3   -0.212166 
4   0.160729 
5   -0.434839 
6   0.072813 
7   -0.039601 
8   -0.362191 
9   -0.2207 
10   0.158802 
11   0.151229 
12   0.149206 
13   0.153588 
14   0.150218 
15   0.16964 
16   0.169342 
17   0.277222 
18   0.375951 
 
$$$$ 
 
