PCCDB-ID:  25425 
public computational chemistry database (PCCDB) project, http://pccdb.org 
 
 26 25  0  0  0  0  0  0  0  0999 V2000 
    1.9288   -2.4870    4.1068 C   0  0  0  0  0  0  0  0  0  0  0  0 
    7.3507   -0.5030   -2.8523 C   0  0  0  0  0  0  0  0  0  0  0  0 
    2.2772   -1.8369    2.7640 C   0  0  0  0  0  0  0  0  0  0  0  0 
    3.4136   -2.5519    2.0220 C   0  0  0  0  0  0  0  0  0  0  0  0 
    3.7583   -1.9070    0.6740 C   0  0  0  0  0  0  0  0  0  0  0  0 
    4.9001   -2.6185   -0.0522 C   0  0  0  0  0  0  0  0  0  0  0  0 
    7.1966   -1.9977   -2.6936 C   0  0  0  0  0  0  0  0  0  0  0  0 
    5.2359   -2.0189   -1.4082 C   0  0  0  0  0  0  0  0  0  0  0  0 
    6.3298   -2.6438   -2.0199 N   0  0  0  0  0  0  0  0  0  0  0  0 
    8.1291   -2.7439   -3.3361 O   0  0  0  0  0  0  0  0  0  0  0  0 
    4.5657   -1.1407   -1.9321 O   0  0  0  0  0  0  0  0  0  0  0  0 
    1.1177   -1.9512    4.6131 H   0  0  0  0  0  0  0  0  0  0  0  0 
    2.7947   -2.4940    4.7805 H   0  0  0  0  0  0  0  0  0  0  0  0 
    1.6074   -3.5273    3.9723 H   0  0  0  0  0  0  0  0  0  0  0  0 
    6.5991    0.0366   -2.2792 H   0  0  0  0  0  0  0  0  0  0  0  0 
    7.2235   -0.2311   -3.9074 H   0  0  0  0  0  0  0  0  0  0  0  0 
    8.3562   -0.1919   -2.5411 H   0  0  0  0  0  0  0  0  0  0  0  0 
    2.5568   -0.7863    2.9267 H   0  0  0  0  0  0  0  0  0  0  0  0 
    1.3844   -1.8167    2.1233 H   0  0  0  0  0  0  0  0  0  0  0  0 
    3.1364   -3.6052    1.8645 H   0  0  0  0  0  0  0  0  0  0  0  0 
    4.3089   -2.5686    2.6622 H   0  0  0  0  0  0  0  0  0  0  0  0 
    4.0264   -0.8528    0.8243 H   0  0  0  0  0  0  0  0  0  0  0  0 
    2.8739   -1.8973    0.0253 H   0  0  0  0  0  0  0  0  0  0  0  0 
    4.6654   -3.6800   -0.2162 H   0  0  0  0  0  0  0  0  0  0  0  0 
    5.8184   -2.6249    0.5530 H   0  0  0  0  0  0  0  0  0  0  0  0 
    8.7584   -2.1578   -3.7860 H   0  0  0  0  0  0  0  0  0  0  0  0 
  1 12  1  0  0  0  0 
  1 13  1  0  0  0  0 
  2  7  1  0  0  0  0 
  2 17  1  0  0  0  0 
  2 15  1  0  0  0  0 
  3 18  1  0  0  0  0 
  3  1  1  0  0  0  0 
  4 21  1  0  0  0  0 
  4  3  1  0  0  0  0 
  5 22  1  0  0  0  0 
  5  4  1  0  0  0  0 
  6 25  1  0  0  0  0 
  6  5  1  0  0  0  0 
  7  9  2  0  0  0  0 
  8  6  1  0  0  0  0 
  9  8  1  0  0  0  0 
 10  7  1  0  0  0  0 
 11  8  2  0  0  0  0 
 14  1  1  0  0  0  0 
 16  2  1  0  0  0  0 
 19  3  1  0  0  0  0 
 20  4  1  0  0  0  0 
 23  5  1  0  0  0  0 
 24  6  1  0  0  0  0 
 26 10  1  0  0  0  0 
M  END 
>  <HBA> 
3 
 
>  <HBD> 
1 
 
>  <TPSA> 
46.17 
 
>  <cid> 
25425 
 
>  <dipole> 
3.49 
 
>  <excitation_energy_1> 
4.309 
 
>  <excitation_energy_2> 
5.54 
 
>  <excitation_energy_3> 
5.741 
 
>  <excitation_energy_4> 
6.114 
 
>  <homo_energy> 
-6.574 
 
>  <homo_lumo_gap> 
5.823 
 
>  <logP> 
1.62 
 
>  <lumo_energy> 
-0.751 
 
>  <melting_point> 
42.07 
 
>  <molecular_refractivity> 
43.77 
 
>  <oscillator_strength_1> 
0.0012 
 
>  <oscillator_strength_2> 
0.0087 
 
>  <oscillator_strength_3> 
0.0045 
 
>  <oscillator_strength_4> 
0.1367 
 
>  <open_babel_can_smiles> 
CCCCCC(=O)/N=C(\O)/C 
 
>  <mulliken_charges> 
26 
1   -0.441484 
2   -0.551997 
3   -0.246671 
4   -0.249207 
5   -0.246489 
6   -0.344091 
7   0.511953 
8   0.524265 
9   -0.450546 
10   -0.557734 
11   -0.477691 
12   0.141388 
13   0.139929 
14   0.141244 
15   0.215444 
16   0.186116 
17   0.165785 
18   0.130348 
19   0.132822 
20   0.126724 
21   0.123747 
22   0.136474 
23   0.14987 
24   0.172617 
25   0.153973 
26   0.413214 
 
>  <lowdin_charges> 
26 
1   -0.444829 
2   -0.481069 
3   -0.270691 
4   -0.273798 
5   -0.271419 
6   -0.301548 
7   0.177089 
8   0.173365 
9   -0.20179 
10   -0.342402 
11   -0.273708 
12   0.15009 
13   0.145909 
14   0.144979 
15   0.194607 
16   0.176946 
17   0.164702 
18   0.137596 
19   0.140588 
20   0.135773 
21   0.135877 
22   0.142997 
23   0.151605 
24   0.168279 
25   0.159388 
26   0.361464 
 
$$$$ 
 
