PCCDB-ID:  20217 
public computational chemistry database (PCCDB) project, http://pccdb.org 
 
 23 23  0  0  0  0  0  0  0  0999 V2000 
   -0.8322   -2.0580   -3.2472 C   0  0  0  0  0  0  0  0  0  0  0  0 
    0.4188   -2.6700   -3.2325 C   0  0  0  0  0  0  0  0  0  0  0  0 
   -1.1153   -1.0612   -2.3068 C   0  0  0  0  0  0  0  0  0  0  0  0 
    1.3893   -2.3019   -2.2947 C   0  0  0  0  0  0  0  0  0  0  0  0 
   -0.1618   -0.6840   -1.3680 C   0  0  0  0  0  0  0  0  0  0  0  0 
    4.0145   -0.7344    0.7901 C   0  0  0  0  0  0  0  0  0  0  0  0 
    3.2729   -1.4343   -0.3353 C   0  0  0  0  0  0  0  0  0  0  0  0 
    1.0968   -1.3031   -1.3589 C   0  0  0  0  0  0  0  0  0  0  0  0 
    4.7202    1.3594    1.6633 N   0  0  0  0  0  0  0  0  0  0  0  0 
    4.2053    0.6782    0.4557 N   0  0  0  0  0  0  0  0  0  0  0  0 
    1.9646   -0.8660   -0.3961 O   0  0  0  0  0  0  0  0  0  0  0  0 
   -1.5789   -2.3508   -3.9794 H   0  0  0  0  0  0  0  0  0  0  0  0 
    0.6539   -3.4461   -3.9563 H   0  0  0  0  0  0  0  0  0  0  0  0 
   -2.0870   -0.5741   -2.3044 H   0  0  0  0  0  0  0  0  0  0  0  0 
    2.3546   -2.7948   -2.3010 H   0  0  0  0  0  0  0  0  0  0  0  0 
   -0.3660    0.0864   -0.6308 H   0  0  0  0  0  0  0  0  0  0  0  0 
    5.0012   -1.2068    0.8951 H   0  0  0  0  0  0  0  0  0  0  0  0 
    3.4777   -0.8740    1.7424 H   0  0  0  0  0  0  0  0  0  0  0  0 
    3.2090   -2.5131   -0.1368 H   0  0  0  0  0  0  0  0  0  0  0  0 
    3.7954   -1.2781   -1.2884 H   0  0  0  0  0  0  0  0  0  0  0  0 
    4.8120    2.3351    1.3681 H   0  0  0  0  0  0  0  0  0  0  0  0 
    5.6956    1.0502    1.7159 H   0  0  0  0  0  0  0  0  0  0  0  0 
    3.2621    1.0566    0.3523 H   0  0  0  0  0  0  0  0  0  0  0  0 
  1  2  2  0  0  0  0 
  1  3  1  0  0  0  0 
  2  4  1  0  0  0  0 
  3 14  1  0  0  0  0 
  3  5  2  0  0  0  0 
  4  8  2  0  0  0  0 
  5  8  1  0  0  0  0 
  5 16  1  0  0  0  0 
  6 17  1  0  0  0  0 
  6 18  1  0  0  0  0 
  7 19  1  0  0  0  0 
  7  6  1  0  0  0  0 
  8 11  1  0  0  0  0 
  9 22  1  0  0  0  0 
 10  6  1  0  0  0  0 
 10  9  1  0  0  0  0 
 11  7  1  0  0  0  0 
 12  1  1  0  0  0  0 
 13  2  1  0  0  0  0 
 15  4  1  0  0  0  0 
 20  7  1  0  0  0  0 
 21  9  1  0  0  0  0 
 23 10  1  0  0  0  0 
M  END 
>  <HBA> 
3 
 
>  <HBD> 
2 
 
>  <TPSA> 
47.28 
 
>  <cid> 
20217 
 
>  <dipole> 
1.24 
 
>  <excitation_energy_1> 
4.867 
 
>  <excitation_energy_2> 
4.913 
 
>  <excitation_energy_3> 
5.07 
 
>  <excitation_energy_4> 
5.246 
 
>  <homo_energy> 
-5.369 
 
>  <homo_lumo_gap> 
5.431 
 
>  <logP> 
1.62 
 
>  <lumo_energy> 
0.063 
 
>  <melting_point> 
89.18 
 
>  <molecular_refractivity> 
43.25 
 
>  <oscillator_strength_1> 
0.0015 
 
>  <oscillator_strength_2> 
0.0068 
 
>  <oscillator_strength_3> 
0.0286 
 
>  <oscillator_strength_4> 
0.0025 
 
>  <open_babel_can_smiles> 
NNCCOc1ccccc1 
 
>  <mulliken_charges> 
23 
1   -0.132996 
2   -0.13773 
3   -0.132593 
4   -0.193254 
5   -0.175318 
6   -0.124898 
7   -0.044617 
8   0.381343 
9   -0.592476 
10   -0.47864 
11   -0.532214 
12   0.125327 
13   0.129305 
14   0.129906 
15   0.133412 
16   0.134375 
17   0.136825 
18   0.147073 
19   0.143103 
20   0.153301 
21   0.304896 
22   0.303365 
23   0.322503 
 
>  <lowdin_charges> 
23 
1   -0.180161 
2   -0.146327 
3   -0.146096 
4   -0.213852 
5   -0.184309 
6   -0.213609 
7   -0.128514 
8   0.103129 
9   -0.4903 
10   -0.323679 
11   -0.209095 
12   0.157692 
13   0.157994 
14   0.157861 
15   0.161729 
16   0.165035 
17   0.144068 
18   0.138842 
19   0.141601 
20   0.14652 
21   0.253642 
22   0.250061 
23   0.257766 
 
$$$$ 
 
