PCCDB-ID:  44717 
public computational chemistry database (PCCDB) project, http://pccdb.org 
 
 32 33  0  0  1  0  0  0  0  0999 V2000 
    1.8580    0.6512    0.8671 C   0  0  0  0  0  0  0  0  0  0  0  0 
    4.5299   -2.7802   -2.7323 C   0  0  0  0  0  0  0  0  0  0  0  0 
    3.7834    2.3524   -2.4757 C   0  0  0  0  0  0  0  0  0  0  0  0 
    4.4778    1.5121   -3.3358 C   0  0  0  0  0  0  0  0  0  0  0  0 
    3.9198   -1.8916   -1.6402 C   0  0  0  0  0  0  0  0  0  0  0  0 
    5.7068   -2.0840   -3.4218 C   0  0  0  0  0  0  0  0  0  0  0  0 
    3.1101    1.8282   -1.3693 C   0  0  0  0  0  0  0  0  0  0  0  0 
    4.5097    0.1220   -3.1198 C   0  0  0  0  0  0  0  0  0  0  0  0 
    3.8532   -0.4193   -2.0033 C   0  0  0  0  0  0  0  0  0  0  0  0 
    5.2527   -0.7773   -4.1008 C   0  0  2  0  0  0  0  0  0  0  0  0 
    3.1593    0.4533   -1.1339 C   0  0  0  0  0  0  0  0  0  0  0  0 
    4.3982   -1.0566   -5.3710 C   0  0  1  0  0  0  0  0  0  0  0  0 
    4.0531    0.0927   -6.1986 N   0  0  0  0  0  0  0  0  0  0  0  0 
    5.1457   -1.9555   -6.1730 O   0  0  0  0  0  0  0  0  0  0  0  0 
    2.5627   -0.1551   -0.0609 O   0  0  0  0  0  0  0  0  0  0  0  0 
    1.4744   -0.0315    1.6279 H   0  0  0  0  0  0  0  0  0  0  0  0 
    1.0161    1.1739    0.3934 H   0  0  0  0  0  0  0  0  0  0  0  0 
    2.5169    1.3901    1.3420 H   0  0  0  0  0  0  0  0  0  0  0  0 
    3.7671   -3.0364   -3.4790 H   0  0  0  0  0  0  0  0  0  0  0  0 
    4.8523   -3.7309   -2.2910 H   0  0  0  0  0  0  0  0  0  0  0  0 
    3.7694    3.4248   -2.6517 H   0  0  0  0  0  0  0  0  0  0  0  0 
    5.0218    1.9326   -4.1770 H   0  0  0  0  0  0  0  0  0  0  0  0 
    4.5163   -1.9813   -0.7197 H   0  0  0  0  0  0  0  0  0  0  0  0 
    2.9209   -2.2485   -1.3637 H   0  0  0  0  0  0  0  0  0  0  0  0 
    6.1671   -2.7384   -4.1662 H   0  0  0  0  0  0  0  0  0  0  0  0 
    6.4764   -1.8450   -2.6737 H   0  0  0  0  0  0  0  0  0  0  0  0 
    2.5729    2.4917   -0.7015 H   0  0  0  0  0  0  0  0  0  0  0  0 
    6.1438   -0.2422   -4.4599 H   0  0  0  0  0  0  0  0  0  0  0  0 
    3.4401   -1.5051   -5.0645 H   0  0  0  0  0  0  0  0  0  0  0  0 
    4.8845    0.6595   -6.3698 H   0  0  0  0  0  0  0  0  0  0  0  0 
    3.3760    0.6877   -5.7250 H   0  0  0  0  0  0  0  0  0  0  0  0 
    4.7007   -1.9497   -7.0369 H   0  0  0  0  0  0  0  0  0  0  0  0 
  1 18  1  0  0  0  0 
  1 16  1  0  0  0  0 
  2 20  1  0  0  0  0 
  2  5  1  0  0  0  0 
  3  7  2  0  0  0  0 
  4  8  2  0  0  0  0 
  4  3  1  0  0  0  0 
  5 24  1  0  0  0  0 
  5 23  1  0  0  0  0 
  6  2  1  0  0  0  0 
  6 26  1  0  0  0  0 
  7 11  1  0  0  0  0 
  7 27  1  0  0  0  0 
  8  9  1  0  0  0  0 
  9  5  1  0  0  0  0 
  9 11  2  0  0  0  0 
 10 28  1  6  0  0  0 
 10  6  1  0  0  0  0 
 10  8  1  0  0  0  0 
 11 15  1  0  0  0  0 
 12 29  1  1  0  0  0 
 12 10  1  0  0  0  0 
 13 31  1  0  0  0  0 
 13 12  1  0  0  0  0 
 14 12  1  0  0  0  0 
 15  1  1  0  0  0  0 
 17  1  1  0  0  0  0 
 19  2  1  0  0  0  0 
 21  3  1  0  0  0  0 
 22  4  1  0  0  0  0 
 25  6  1  0  0  0  0 
 30 13  1  0  0  0  0 
 32 14  1  0  0  0  0 
M  END 
>  <HBA> 
3 
 
>  <HBD> 
2 
 
>  <TPSA> 
55.48 
 
>  <cid> 
44717 
 
>  <dipole> 
2.62 
 
>  <excitation_energy_1> 
4.969 
 
>  <excitation_energy_2> 
5.344 
 
>  <excitation_energy_3> 
5.496 
 
>  <excitation_energy_4> 
5.611 
 
>  <homo_energy> 
-5.788 
 
>  <homo_lumo_gap> 
5.908 
 
>  <logP> 
2.092 
 
>  <lumo_energy> 
0.12 
 
>  <melting_point> 
111.55 
 
>  <molecular_refractivity> 
59.04 
 
>  <oscillator_strength_1> 
0.0261 
 
>  <oscillator_strength_2> 
0.0004 
 
>  <oscillator_strength_3> 
0.0544 
 
>  <oscillator_strength_4> 
0.0128 
 
>  <open_babel_can_smiles> 
COc1cccc2c1CCC[C@H]2[C@H](O)N 
 
>  <mulliken_charges> 
32 
1   -0.213394 
2   -0.281654 
3   -0.139142 
4   -0.202347 
5   -0.321704 
6   -0.271362 
7   -0.197253 
8   0.10616 
9   0.046604 
10   -0.187183 
11   0.325889 
12   0.252552 
13   -0.733302 
14   -0.62573 
15   -0.508914 
16   0.168547 
17   0.151096 
18   0.15197 
19   0.144061 
20   0.132734 
21   0.125379 
22   0.108665 
23   0.15168 
24   0.154412 
25   0.164397 
26   0.129037 
27   0.128265 
28   0.125689 
29   0.118013 
30   0.296093 
31   0.307301 
32   0.393441 
 
>  <lowdin_charges> 
32 
1   -0.28159 
2   -0.279481 
3   -0.152812 
4   -0.196555 
5   -0.273944 
6   -0.280229 
7   -0.219215 
8   -0.011481 
9   -0.038868 
10   -0.146815 
11   0.095581 
12   0.042648 
13   -0.557089 
14   -0.462104 
15   -0.198814 
16   0.163264 
17   0.145389 
18   0.146556 
19   0.143851 
20   0.146237 
21   0.154253 
22   0.148954 
23   0.153667 
24   0.157115 
25   0.1622 
26   0.141547 
27   0.16241 
28   0.147127 
29   0.123905 
30   0.25351 
31   0.266024 
32   0.344757 
 
$$$$ 
 
