PCCDB-ID:  14269 
public computational chemistry database (PCCDB) project, http://pccdb.org 
 
 17 17  0  0  1  0  0  0  0  0999 V2000 
    1.0066    0.0005   -0.0829 C   0  0  0  0  0  0  0  0  0  0  0  0 
    3.0916    1.3191   -0.7697 C   0  0  0  0  0  0  0  0  0  0  0  0 
    4.6151    1.1985   -0.8684 C   0  0  0  0  0  0  0  0  0  0  0  0 
    4.4277   -1.1213   -0.7473 C   0  0  0  0  0  0  0  0  0  0  0  0 
    2.5245    0.0802   -0.0623 C   0  0  2  0  0  0  0  0  0  0  0  0 
    4.9785   -0.0444   -1.4650 O   0  0  0  0  0  0  0  0  0  0  0  0 
    3.0223   -1.1006   -0.7077 O   0  0  0  0  0  0  0  0  0  0  0  0 
    0.5692    0.8705    0.4195 H   0  0  0  0  0  0  0  0  0  0  0  0 
    0.6646   -0.9062    0.4260 H   0  0  0  0  0  0  0  0  0  0  0  0 
    0.6411   -0.0265   -1.1150 H   0  0  0  0  0  0  0  0  0  0  0  0 
    2.6662    1.3779   -1.7788 H   0  0  0  0  0  0  0  0  0  0  0  0 
    2.8143    2.2322   -0.2275 H   0  0  0  0  0  0  0  0  0  0  0  0 
    5.0677    1.2752    0.1360 H   0  0  0  0  0  0  0  0  0  0  0  0 
    5.0480    1.9818   -1.4968 H   0  0  0  0  0  0  0  0  0  0  0  0 
    4.8287   -1.1229    0.2854 H   0  0  0  0  0  0  0  0  0  0  0  0 
    4.7189   -2.0347   -1.2687 H   0  0  0  0  0  0  0  0  0  0  0  0 
    2.8808    0.0777    0.9847 H   0  0  0  0  0  0  0  0  0  0  0  0 
  1  5  1  0  0  0  0 
  1  8  1  0  0  0  0 
  1  9  1  0  0  0  0 
  2 12  1  0  0  0  0 
  2  5  1  0  0  0  0 
  3  2  1  0  0  0  0 
  3 13  1  0  0  0  0 
  4  7  1  0  0  0  0 
  4 15  1  0  0  0  0 
  5 17  1  1  0  0  0 
  6  3  1  0  0  0  0 
  6  4  1  0  0  0  0 
  7  5  1  0  0  0  0 
 10  1  1  0  0  0  0 
 11  2  1  0  0  0  0 
 14  3  1  0  0  0  0 
 16  4  1  0  0  0  0 
M  END 
>  <HBA> 
2 
 
>  <HBD> 
0 
 
>  <TPSA> 
18.46 
 
>  <cid> 
14269 
 
>  <dipole> 
1.94 
 
>  <excitation_energy_1> 
6.769 
 
>  <excitation_energy_2> 
6.994 
 
>  <excitation_energy_3> 
7.136 
 
>  <excitation_energy_4> 
7.203 
 
>  <homo_energy> 
-7.034 
 
>  <homo_lumo_gap> 
9.578 
 
>  <logP> 
0.769 
 
>  <lumo_energy> 
2.544 
 
>  <melting_point> 
-21.22 
 
>  <molecular_refractivity> 
26.2 
 
>  <oscillator_strength_1> 
0.0018 
 
>  <oscillator_strength_2> 
0.0446 
 
>  <oscillator_strength_3> 
0.0003 
 
>  <oscillator_strength_4> 
0.0151 
 
>  <open_babel_can_smiles> 
C[C@@H]1CCOCO1 
 
>  <mulliken_charges> 
17 
1   -0.452061 
2   -0.275901 
3   -0.04768 
4   0.180192 
5   0.139188 
6   -0.45823 
7   -0.473557 
8   0.142171 
9   0.158561 
10   0.157591 
11   0.152292 
12   0.133272 
13   0.12106 
14   0.15237 
15   0.105975 
16   0.154715 
17   0.110043 
 
>  <lowdin_charges> 
17 
1   -0.446062 
2   -0.30694 
3   -0.135026 
4   -0.023095 
5   0.005415 
6   -0.265973 
7   -0.269707 
8   0.15432 
9   0.160419 
10   0.156832 
11   0.153158 
12   0.151017 
13   0.125671 
14   0.154697 
15   0.109213 
16   0.155232 
17   0.120828 
 
$$$$ 
 
