PCCDB-ID:  31517 
public computational chemistry database (PCCDB) project, http://pccdb.org 
 
 32 33  0  0  0  0  0  0  0  0999 V2000 
    0.7896   -0.7772   -0.2780 C   0  0  0  0  0  0  0  0  0  0  0  0 
    4.4423   -4.3046   -1.0677 C   0  0  0  0  0  0  0  0  0  0  0  0 
    4.0372   -4.6000    1.4430 C   0  0  0  0  0  0  0  0  0  0  0  0 
    9.0291   -0.1473    1.5978 C   0  0  0  0  0  0  0  0  0  0  0  0 
    2.8363    0.7407    0.0268 C   0  0  0  0  0  0  0  0  0  0  0  0 
    4.1996    0.9374    0.2473 C   0  0  0  0  0  0  0  0  0  0  0  0 
    2.2583   -0.5427   -0.0375 C   0  0  0  0  0  0  0  0  0  0  0  0 
    5.0575   -0.1545    0.4232 C   0  0  0  0  0  0  0  0  0  0  0  0 
    3.1453   -1.5952    0.1423 C   0  0  0  0  0  0  0  0  0  0  0  0 
    4.5030   -1.4226    0.3798 C   0  0  0  0  0  0  0  0  0  0  0  0 
    7.3834   -0.4400   -0.0615 C   0  0  0  0  0  0  0  0  0  0  0  0 
    4.1132   -3.6454    0.2647 C   0  0  0  0  0  0  0  0  0  0  0  0 
    8.5989   -0.5332    0.2647 N   0  0  0  0  0  0  0  0  0  0  0  0 
    6.9397   -0.8058   -1.2855 O   0  0  0  0  0  0  0  0  0  0  0  0 
    6.3960    0.0649    0.7308 O   0  0  0  0  0  0  0  0  0  0  0  0 
    2.8500   -2.9379    0.1456 O   0  0  0  0  0  0  0  0  0  0  0  0 
    5.1197   -2.6309    0.5472 O   0  0  0  0  0  0  0  0  0  0  0  0 
    0.2592    0.1713   -0.4046 H   0  0  0  0  0  0  0  0  0  0  0  0 
    0.3270   -1.3157    0.5583 H   0  0  0  0  0  0  0  0  0  0  0  0 
    0.6224   -1.3833   -1.1768 H   0  0  0  0  0  0  0  0  0  0  0  0 
    3.6686   -5.0328   -1.3296 H   0  0  0  0  0  0  0  0  0  0  0  0 
    5.4079   -4.8157   -1.0070 H   0  0  0  0  0  0  0  0  0  0  0  0 
    4.4947   -3.5441   -1.8521 H   0  0  0  0  0  0  0  0  0  0  0  0 
    3.2641   -5.3541    1.2673 H   0  0  0  0  0  0  0  0  0  0  0  0 
    3.7929   -4.0455    2.3529 H   0  0  0  0  0  0  0  0  0  0  0  0 
    4.9987   -5.1035    1.5808 H   0  0  0  0  0  0  0  0  0  0  0  0 
    9.7379   -0.8948    1.9717 H   0  0  0  0  0  0  0  0  0  0  0  0 
    8.2086   -0.0489    2.3195 H   0  0  0  0  0  0  0  0  0  0  0  0 
    9.5638    0.8106    1.5541 H   0  0  0  0  0  0  0  0  0  0  0  0 
    2.1940    1.6067   -0.1080 H   0  0  0  0  0  0  0  0  0  0  0  0 
    4.6209    1.9364    0.2866 H   0  0  0  0  0  0  0  0  0  0  0  0 
    7.7283   -1.1527   -1.7383 H   0  0  0  0  0  0  0  0  0  0  0  0 
  1  7  1  0  0  0  0 
  1 19  1  0  0  0  0 
  2 22  1  0  0  0  0 
  2 12  1  0  0  0  0 
  3 26  1  0  0  0  0 
  3 25  1  0  0  0  0 
  4 27  1  0  0  0  0 
  4 28  1  0  0  0  0 
  5  6  1  0  0  0  0 
  6 31  1  0  0  0  0 
  6  8  2  0  0  0  0 
  7  5  2  0  0  0  0 
  7  9  1  0  0  0  0 
  8 15  1  0  0  0  0 
  9 16  1  0  0  0  0 
  9 10  2  0  0  0  0 
 10  8  1  0  0  0  0 
 10 17  1  0  0  0  0 
 11 13  2  0  0  0  0 
 11 15  1  0  0  0  0 
 12 17  1  0  0  0  0 
 12  3  1  0  0  0  0 
 13  4  1  0  0  0  0 
 14 11  1  0  0  0  0 
 16 12  1  0  0  0  0 
 18  1  1  0  0  0  0 
 20  1  1  0  0  0  0 
 21  2  1  0  0  0  0 
 23  2  1  0  0  0  0 
 24  3  1  0  0  0  0 
 29  4  1  0  0  0  0 
 30  5  1  0  0  0  0 
 32 14  1  0  0  0  0 
M  END 
>  <HBA> 
5 
 
>  <HBD> 
1 
 
>  <TPSA> 
56.79 
 
>  <cid> 
31517 
 
>  <dipole> 
2.12 
 
>  <excitation_energy_1> 
4.862 
 
>  <excitation_energy_2> 
5.038 
 
>  <excitation_energy_3> 
5.31 
 
>  <excitation_energy_4> 
5.505 
 
>  <homo_energy> 
-5.54 
 
>  <homo_lumo_gap> 
5.736 
 
>  <logP> 
2.611 
 
>  <lumo_energy> 
0.196 
 
>  <melting_point> 
116.65 
 
>  <molecular_refractivity> 
61.81 
 
>  <oscillator_strength_1> 
0.0389 
 
>  <oscillator_strength_2> 
0.0049 
 
>  <oscillator_strength_3> 
0.0112 
 
>  <oscillator_strength_4> 
0.0022 
 
>  <open_babel_can_smiles> 
C/N=C(\Oc1ccc(c2c1OC(O2)(C)C)C)/O 
 
>  <mulliken_charges> 
32 
1   -0.521406 
2   -0.440432 
3   -0.447589 
4   -0.322676 
5   -0.211624 
6   -0.173011 
7   0.130562 
8   0.292544 
9   0.269015 
10   0.343453 
11   0.715211 
12   0.483068 
13   -0.482833 
14   -0.591603 
15   -0.541313 
16   -0.55766 
17   -0.557711 
18   0.154458 
19   0.167689 
20   0.166963 
21   0.158363 
22   0.159346 
23   0.16981 
24   0.160432 
25   0.168821 
26   0.162624 
27   0.152146 
28   0.154003 
29   0.15263 
30   0.125446 
31   0.139192 
32   0.42208 
 
>  <lowdin_charges> 
32 
1   -0.436857 
2   -0.45466 
3   -0.449895 
4   -0.354225 
5   -0.171827 
6   -0.180916 
7   -0.029968 
8   0.074349 
9   0.066627 
10   0.054447 
11   0.191944 
12   0.246768 
13   -0.260175 
14   -0.36131 
15   -0.155441 
16   -0.209636 
17   -0.200171 
18   0.158352 
19   0.164529 
20   0.163663 
21   0.163943 
22   0.16354 
23   0.169174 
24   0.165304 
25   0.168378 
26   0.165609 
27   0.151995 
28   0.145311 
29   0.150148 
30   0.15964 
31   0.16908 
32   0.372282 
 
$$$$ 
 
