PCCDB-ID:  20506 
public computational chemistry database (PCCDB) project, http://pccdb.org 
 
 38 39  0  0  1  0  0  0  0  0999 V2000 
    9.4301    4.6166    0.2791 C   0  0  0  0  0  0  0  0  0  0  0  0 
    8.1134    3.9030    0.6102 C   0  0  0  0  0  0  0  0  0  0  0  0 
    7.7914    2.7046   -0.2977 C   0  0  0  0  0  0  0  0  0  0  0  0 
    6.0469    2.6711   -8.5035 C   0  0  0  0  0  0  0  0  0  0  0  0 
    5.0161    2.4185   -7.5939 C   0  0  0  0  0  0  0  0  0  0  0  0 
    8.7463    1.5132   -0.1393 C   0  0  0  0  0  0  0  0  0  0  0  0 
    7.3511    2.2792   -8.2047 C   0  0  0  0  0  0  0  0  0  0  0  0 
    5.2872    1.7569   -6.3974 C   0  0  0  0  0  0  0  0  0  0  0  0 
    8.4153    0.3291   -1.0539 C   0  0  0  0  0  0  0  0  0  0  0  0 
    8.2808   -0.4158   -3.3793 C   0  0  0  0  0  0  0  0  0  0  0  0 
    9.1656    0.9524   -5.3665 C   0  0  0  0  0  0  0  0  0  0  0  0 
    8.0789    0.0266   -4.8288 C   0  0  2  0  0  0  0  0  0  0  0  0 
    7.6282    1.6264   -7.0033 C   0  0  0  0  0  0  0  0  0  0  0  0 
    6.5888    1.3503   -6.0992 C   0  0  0  0  0  0  0  0  0  0  0  0 
    8.5593    0.6877   -2.4668 N   0  0  0  0  0  0  0  0  0  0  0  0 
    8.9276    1.2609   -6.7390 O   0  0  0  0  0  0  0  0  0  0  0  0 
    6.8117    0.6883   -4.9175 O   0  0  0  0  0  0  0  0  0  0  0  0 
    9.5758    5.4921    0.9223 H   0  0  0  0  0  0  0  0  0  0  0  0 
    9.4378    4.9635   -0.7618 H   0  0  0  0  0  0  0  0  0  0  0  0 
   10.2985    3.9622    0.4172 H   0  0  0  0  0  0  0  0  0  0  0  0 
    7.2912    4.6272    0.5348 H   0  0  0  0  0  0  0  0  0  0  0  0 
    8.1305    3.5728    1.6592 H   0  0  0  0  0  0  0  0  0  0  0  0 
    7.7855    3.0230   -1.3474 H   0  0  0  0  0  0  0  0  0  0  0  0 
    6.7701    2.3597   -0.0812 H   0  0  0  0  0  0  0  0  0  0  0  0 
    5.8398    3.1795   -9.4406 H   0  0  0  0  0  0  0  0  0  0  0  0 
    3.9995    2.7290   -7.8173 H   0  0  0  0  0  0  0  0  0  0  0  0 
    8.7263    1.1601    0.9015 H   0  0  0  0  0  0  0  0  0  0  0  0 
    9.7837    1.8262   -0.3296 H   0  0  0  0  0  0  0  0  0  0  0  0 
    8.1743    2.4734   -8.8856 H   0  0  0  0  0  0  0  0  0  0  0  0 
    4.5040    1.5375   -5.6779 H   0  0  0  0  0  0  0  0  0  0  0  0 
    7.3724    0.0222   -0.8956 H   0  0  0  0  0  0  0  0  0  0  0  0 
    9.0444   -0.5379   -0.7712 H   0  0  0  0  0  0  0  0  0  0  0  0 
    9.0571   -1.2055   -3.3645 H   0  0  0  0  0  0  0  0  0  0  0  0 
    7.3464   -0.8916   -3.0607 H   0  0  0  0  0  0  0  0  0  0  0  0 
   10.1494    0.4751   -5.3298 H   0  0  0  0  0  0  0  0  0  0  0  0 
    9.1828    1.8771   -4.7750 H   0  0  0  0  0  0  0  0  0  0  0  0 
    8.0467   -0.8720   -5.4644 H   0  0  0  0  0  0  0  0  0  0  0  0 
    9.5129    1.0171   -2.6128 H   0  0  0  0  0  0  0  0  0  0  0  0 
  1 20  1  0  0  0  0 
  1  2  1  0  0  0  0 
  1 18  1  0  0  0  0 
  2 22  1  0  0  0  0 
  3  6  1  0  0  0  0 
  3 24  1  0  0  0  0 
  3  2  1  0  0  0  0 
  4  7  2  0  0  0  0 
  4  5  1  0  0  0  0 
  5  8  2  0  0  0  0 
  6 27  1  0  0  0  0 
  7 13  1  0  0  0  0 
  8 14  1  0  0  0  0 
  8 30  1  0  0  0  0 
  9 31  1  0  0  0  0 
  9 32  1  0  0  0  0 
  9  6  1  0  0  0  0 
 10 33  1  0  0  0  0 
 10 34  1  0  0  0  0 
 10 15  1  0  0  0  0 
 11 35  1  0  0  0  0 
 11 12  1  0  0  0  0 
 11 36  1  0  0  0  0 
 12 37  1  6  0  0  0 
 12 10  1  0  0  0  0 
 13 16  1  0  0  0  0 
 13 14  2  0  0  0  0 
 14 17  1  0  0  0  0 
 15  9  1  0  0  0  0 
 16 11  1  0  0  0  0 
 17 12  1  0  0  0  0 
 19  1  1  0  0  0  0 
 21  2  1  0  0  0  0 
 23  3  1  0  0  0  0 
 25  4  1  0  0  0  0 
 26  5  1  0  0  0  0 
 28  6  1  0  0  0  0 
 29  7  1  0  0  0  0 
 38 15  1  0  0  0  0 
M  END 
>  <HBA> 
3 
 
>  <HBD> 
1 
 
>  <TPSA> 
30.49 
 
>  <cid> 
20506 
 
>  <dipole> 
2.47 
 
>  <excitation_energy_1> 
4.872 
 
>  <excitation_energy_2> 
5.084 
 
>  <excitation_energy_3> 
5.369 
 
>  <excitation_energy_4> 
5.452 
 
>  <homo_energy> 
-5.524 
 
>  <homo_lumo_gap> 
5.812 
 
>  <logP> 
2.997 
 
>  <lumo_energy> 
0.288 
 
>  <melting_point> 
60.3 
 
>  <molecular_refractivity> 
68.96 
 
>  <oscillator_strength_1> 
0.0471 
 
>  <oscillator_strength_2> 
0.0046 
 
>  <oscillator_strength_3> 
0.0086 
 
>  <oscillator_strength_4> 
0.0064 
 
>  <open_babel_can_smiles> 
CCCCCNC[C@@H]1COc2c(O1)cccc2 
 
>  <mulliken_charges> 
38 
1   -0.443958 
2   -0.249205 
3   -0.242042 
4   -0.139241 
5   -0.137454 
6   -0.275728 
7   -0.190999 
8   -0.193479 
9   -0.115976 
10   -0.152711 
11   -0.064419 
12   0.1247 
13   0.325742 
14   0.33802 
15   -0.550185 
16   -0.528746 
17   -0.53192 
18   0.142257 
19   0.142277 
20   0.141364 
21   0.132673 
22   0.126103 
23   0.152665 
24   0.126025 
25   0.125244 
26   0.125362 
27   0.131738 
28   0.126739 
29   0.136194 
30   0.136559 
31   0.143385 
32   0.109408 
33   0.118167 
34   0.163771 
35   0.149101 
36   0.164018 
37   0.141817 
38   0.292734 
 
>  <lowdin_charges> 
38 
1   -0.447327 
2   -0.272383 
3   -0.275103 
4   -0.167752 
5   -0.166124 
6   -0.278855 
7   -0.178364 
8   -0.178717 
9   -0.198379 
10   -0.208797 
11   -0.146332 
12   -0.011381 
13   0.05902 
14   0.063331 
15   -0.358023 
16   -0.209467 
17   -0.202191 
18   0.15015 
19   0.145403 
20   0.144785 
21   0.143491 
22   0.135127 
23   0.149038 
24   0.139853 
25   0.157023 
26   0.156366 
27   0.142669 
28   0.135193 
29   0.166648 
30   0.167041 
31   0.141732 
32   0.117482 
33   0.125029 
34   0.161097 
35   0.15581 
36   0.152132 
37   0.143658 
38   0.247116 
 
$$$$ 
 
