PCCDB-ID:  52159 
public computational chemistry database (PCCDB) project, http://pccdb.org 
 
 18 18  0  0  1  0  0  0  0  0999 V2000 
    0.6995    0.1009    0.8500 C   0  0  0  0  0  0  0  0  0  0  0  0 
    2.4406    3.2263    2.2414 C   0  0  0  0  0  0  0  0  0  0  0  0 
    3.2455   -0.4920    0.5202 C   0  0  0  0  0  0  0  0  0  0  0  0 
    2.1086    0.4766    0.4612 C   0  0  2  0  0  0  0  0  0  0  0  0 
    4.0243    1.6098    1.6023 C   0  0  0  0  0  0  0  0  0  0  0  0 
    3.7987    2.8197    1.9246 N   0  0  0  0  0  0  0  0  0  0  0  0 
    3.1122    0.5512    1.5318 N   0  0  0  0  0  0  0  0  0  0  0  0 
    5.3003    1.2023    1.3589 O   0  0  0  0  0  0  0  0  0  0  0  0 
    0.1575   -0.2977   -0.0156 H   0  0  0  0  0  0  0  0  0  0  0  0 
    0.1491    0.9714    1.2246 H   0  0  0  0  0  0  0  0  0  0  0  0 
    0.7083   -0.6606    1.6361 H   0  0  0  0  0  0  0  0  0  0  0  0 
    2.4783    4.0935    2.9091 H   0  0  0  0  0  0  0  0  0  0  0  0 
    1.8526    2.4375    2.7330 H   0  0  0  0  0  0  0  0  0  0  0  0 
    1.8945    3.5392    1.3391 H   0  0  0  0  0  0  0  0  0  0  0  0 
    4.0493   -0.3936   -0.2052 H   0  0  0  0  0  0  0  0  0  0  0  0 
    3.0730   -1.5040    0.8815 H   0  0  0  0  0  0  0  0  0  0  0  0 
    2.1931    1.2426   -0.3110 H   0  0  0  0  0  0  0  0  0  0  0  0 
    5.8453    1.9910    1.5331 H   0  0  0  0  0  0  0  0  0  0  0  0 
  1 10  1  0  0  0  0 
  1 11  1  0  0  0  0 
  2 13  1  0  0  0  0 
  2 12  1  0  0  0  0 
  3 16  1  0  0  0  0 
  3  7  1  0  0  0  0 
  4 17  1  6  0  0  0 
  4  3  1  0  0  0  0 
  4  1  1  0  0  0  0 
  4  7  1  0  0  0  0 
  5  6  2  0  0  0  0 
  6  2  1  0  0  0  0 
  7  5  1  0  0  0  0 
  8 18  1  0  0  0  0 
  8  5  1  0  0  0  0 
  9  1  1  0  0  0  0 
 14  2  1  0  0  0  0 
 15  3  1  0  0  0  0 
M  END 
>  <HBA> 
3 
 
>  <HBD> 
1 
 
>  <TPSA> 
32.11 
 
>  <cid> 
52159 
 
>  <dipole> 
2.09 
 
>  <excitation_energy_1> 
5.68 
 
>  <excitation_energy_2> 
6.012 
 
>  <excitation_energy_3> 
6.103 
 
>  <excitation_energy_4> 
6.298 
 
>  <homo_energy> 
-6.166 
 
>  <homo_lumo_gap> 
7.238 
 
>  <logP> 
0.359 
 
>  <lumo_energy> 
1.072 
 
>  <melting_point> 
44.29 
 
>  <molecular_refractivity> 
34.24 
 
>  <oscillator_strength_1> 
0.0314 
 
>  <oscillator_strength_2> 
0.0054 
 
>  <oscillator_strength_3> 
0.0042 
 
>  <oscillator_strength_4> 
0.0191 
 
>  <open_babel_can_smiles> 
C/N=C(\N1C[C@H]1C)/O 
 
>  <mulliken_charges> 
18 
1   -0.454623 
2   -0.324638 
3   -0.191696 
4   0.003508 
5   0.625137 
6   -0.470524 
7   -0.408087 
8   -0.597888 
9   0.152471 
10   0.159909 
11   0.161616 
12   0.153547 
13   0.148777 
14   0.139192 
15   0.174577 
16   0.159481 
17   0.156358 
18   0.412883 
 
>  <lowdin_charges> 
18 
1   -0.443184 
2   -0.359161 
3   -0.223238 
4   -0.070463 
5   0.14547 
6   -0.270094 
7   -0.16496 
8   -0.375531 
9   0.158276 
10   0.159834 
11   0.162693 
12   0.151873 
13   0.142319 
14   0.141688 
15   0.166311 
16   0.160437 
17   0.154231 
18   0.363498 
 
$$$$ 
 
