PCCDB-ID:  70208 
public computational chemistry database (PCCDB) project, http://pccdb.org 
 
 17 16  0  0  0  0  0  0  0  0999 V2000 
    2.0124   -1.6708   -1.0305 C   0  0  0  0  0  0  0  0  0  0  0  0 
    1.3515    0.5641   -1.9584 C   0  0  0  0  0  0  0  0  0  0  0  0 
    0.5585    1.1778    1.2112 C   0  0  0  0  0  0  0  0  0  0  0  0 
    1.9659   -0.3374   -0.9152 C   0  0  0  0  0  0  0  0  0  0  0  0 
    2.5728    0.3215    0.2967 C   0  0  0  0  0  0  0  0  0  0  0  0 
    1.9936    1.0080    1.1895 N   0  0  0  0  0  0  0  0  0  0  0  0 
    0.0905    1.0956    2.5409 O   0  0  0  0  0  0  0  0  0  0  0  0 
    3.9237    0.1524    0.4195 O   0  0  0  0  0  0  0  0  0  0  0  0 
    1.5835   -2.1806   -1.8896 H   0  0  0  0  0  0  0  0  0  0  0  0 
    2.4553   -2.2981   -0.2611 H   0  0  0  0  0  0  0  0  0  0  0  0 
    0.9738   -0.0182   -2.8043 H   0  0  0  0  0  0  0  0  0  0  0  0 
    2.0871    1.2856   -2.3362 H   0  0  0  0  0  0  0  0  0  0  0  0 
    0.5207    1.1491   -1.5482 H   0  0  0  0  0  0  0  0  0  0  0  0 
    0.0033    0.4085    0.6570 H   0  0  0  0  0  0  0  0  0  0  0  0 
    0.3208    2.1625    0.7706 H   0  0  0  0  0  0  0  0  0  0  0  0 
    0.7572    1.5533    3.0796 H   0  0  0  0  0  0  0  0  0  0  0  0 
    4.2321   -0.3611   -0.3437 H   0  0  0  0  0  0  0  0  0  0  0  0 
  1  4  2  0  0  0  0 
  1 10  1  0  0  0  0 
  2 13  1  0  0  0  0 
  2  4  1  0  0  0  0 
  3  7  1  0  0  0  0 
  4  5  1  0  0  0  0 
  5  8  1  0  0  0  0 
  5  6  2  0  0  0  0 
  6  3  1  0  0  0  0 
  7 16  1  0  0  0  0 
  9  1  1  0  0  0  0 
 11  2  1  0  0  0  0 
 12  2  1  0  0  0  0 
 14  3  1  0  0  0  0 
 15  3  1  0  0  0  0 
 17  8  1  0  0  0  0 
M  END 
>  <HBA> 
3 
 
>  <HBD> 
2 
 
>  <TPSA> 
49.33 
 
>  <cid> 
70208 
 
>  <dipole> 
4.05 
 
>  <excitation_energy_1> 
5.194 
 
>  <excitation_energy_2> 
5.37 
 
>  <excitation_energy_3> 
5.844 
 
>  <excitation_energy_4> 
6.205 
 
>  <homo_energy> 
-6.841 
 
>  <homo_lumo_gap> 
6.202 
 
>  <logP> 
0.019 
 
>  <lumo_energy> 
-0.639 
 
>  <melting_point> 
24.11 
 
>  <molecular_refractivity> 
29.84 
 
>  <oscillator_strength_1> 
0.0144 
 
>  <oscillator_strength_2> 
0.0251 
 
>  <oscillator_strength_3> 
0.0325 
 
>  <oscillator_strength_4> 
0.0083 
 
>  <open_babel_can_smiles> 
CC(=C)/C(=N\CO)/O 
 
>  <mulliken_charges> 
17 
1   -0.375282 
2   -0.508782 
3   0.088821 
4   0.097364 
5   0.43207 
6   -0.432383 
7   -0.61243 
8   -0.57428 
9   0.15447 
10   0.164788 
11   0.162815 
12   0.169447 
13   0.179908 
14   0.13386 
15   0.123485 
16   0.391291 
17   0.404839 
 
>  <lowdin_charges> 
17 
1   -0.334407 
2   -0.440365 
3   -0.073988 
4   -0.032935 
5   0.132923 
6   -0.217181 
7   -0.463693 
8   -0.362356 
9   0.166059 
10   0.170099 
11   0.16312 
12   0.165798 
13   0.170069 
14   0.133664 
15   0.122783 
16   0.344256 
17   0.356155 
 
$$$$ 
 
