PCCDB-ID:  58315 
public computational chemistry database (PCCDB) project, http://pccdb.org 
 
 36 38  0  0  1  0  0  0  0  0999 V2000 
    0.9607    0.0814   -0.0531 C   0  0  0  0  0  0  0  0  0  0  0  0 
    5.1168    0.9856    1.4380 C   0  0  0  0  0  0  0  0  0  0  0  0 
    7.9779    0.3901   -2.8084 C   0  0  0  0  0  0  0  0  0  0  0  0 
    7.8775    1.5065   -1.9773 C   0  0  0  0  0  0  0  0  0  0  0  0 
    2.9344   -2.8682   -1.6869 C   0  0  0  0  0  0  0  0  0  0  0  0 
    7.1153   -0.6995   -2.6201 C   0  0  0  0  0  0  0  0  0  0  0  0 
    4.0416   -1.9468   -2.2414 C   0  0  0  0  0  0  0  0  0  0  0  0 
    2.6304   -2.6201   -0.1867 C   0  0  0  0  0  0  0  0  0  0  0  0 
    6.9227    1.5663   -0.9549 C   0  0  0  0  0  0  0  0  0  0  0  0 
    6.1682   -0.6554   -1.6069 C   0  0  0  0  0  0  0  0  0  0  0  0 
    5.1358   -1.6809   -1.1912 C   0  0  1  0  0  0  0  0  0  0  0  0 
    3.0208   -1.2043    0.2746 C   0  0  1  0  0  0  0  0  0  0  0  0 
    6.0633    0.4789   -0.7851 C   0  0  0  0  0  0  0  0  0  0  0  0 
    4.5587   -1.0651    0.1279 C   0  0  2  0  0  0  0  0  0  0  0  0 
    2.3234   -0.1758   -0.4940 N   0  0  0  0  0  0  0  0  0  0  0  0 
    5.0135    0.3426    0.1390 N   0  0  0  0  0  0  0  0  0  0  0  0 
    0.5586    0.9398   -0.6012 H   0  0  0  0  0  0  0  0  0  0  0  0 
    0.8680    0.2897    1.0313 H   0  0  0  0  0  0  0  0  0  0  0  0 
    0.3173   -0.7781   -0.2753 H   0  0  0  0  0  0  0  0  0  0  0  0 
    5.2723    2.0616    1.3169 H   0  0  0  0  0  0  0  0  0  0  0  0 
    5.9428    0.5809    2.0487 H   0  0  0  0  0  0  0  0  0  0  0  0 
    4.1814    0.8473    1.9881 H   0  0  0  0  0  0  0  0  0  0  0  0 
    8.7274    0.3610   -3.5941 H   0  0  0  0  0  0  0  0  0  0  0  0 
    8.5528    2.3466   -2.1188 H   0  0  0  0  0  0  0  0  0  0  0  0 
    3.2208   -3.9199   -1.8185 H   0  0  0  0  0  0  0  0  0  0  0  0 
    2.0268   -2.7192   -2.2814 H   0  0  0  0  0  0  0  0  0  0  0  0 
    7.1985   -1.5785   -3.2556 H   0  0  0  0  0  0  0  0  0  0  0  0 
    3.6015   -0.9913   -2.5367 H   0  0  0  0  0  0  0  0  0  0  0  0 
    4.4947   -2.3914   -3.1364 H   0  0  0  0  0  0  0  0  0  0  0  0 
    3.1858   -3.3345    0.4373 H   0  0  0  0  0  0  0  0  0  0  0  0 
    1.5703   -2.8042    0.0219 H   0  0  0  0  0  0  0  0  0  0  0  0 
    6.8600    2.4422   -0.3162 H   0  0  0  0  0  0  0  0  0  0  0  0 
    5.6178   -2.6395   -0.9553 H   0  0  0  0  0  0  0  0  0  0  0  0 
    2.7758   -1.1192    1.3537 H   0  0  0  0  0  0  0  0  0  0  0  0 
    5.0068   -1.5934    0.9865 H   0  0  0  0  0  0  0  0  0  0  0  0 
    2.8807    0.6759   -0.4519 H   0  0  0  0  0  0  0  0  0  0  0  0 
  1 18  1  0  0  0  0 
  2 22  1  0  0  0  0 
  2 21  1  0  0  0  0 
  3  6  2  0  0  0  0 
  3  4  1  0  0  0  0 
  4  9  2  0  0  0  0 
  5  8  1  0  0  0  0 
  6 10  1  0  0  0  0 
  7  5  1  0  0  0  0 
  7 11  1  0  0  0  0 
  8 31  1  0  0  0  0 
  8 12  1  0  0  0  0 
  8 30  1  0  0  0  0 
  9 13  1  0  0  0  0 
  9 32  1  0  0  0  0 
 10 11  1  0  0  0  0 
 10 13  2  0  0  0  0 
 11 33  1  1  0  0  0 
 11 14  1  0  0  0  0 
 12 34  1  1  0  0  0 
 13 16  1  0  0  0  0 
 14 16  1  0  0  0  0 
 14 12  1  0  0  0  0 
 14 35  1  1  0  0  0 
 15 36  1  0  0  0  0 
 15  1  1  0  0  0  0 
 15 12  1  0  0  0  0 
 16  2  1  0  0  0  0 
 17  1  1  0  0  0  0 
 19  1  1  0  0  0  0 
 20  2  1  0  0  0  0 
 23  3  1  0  0  0  0 
 24  4  1  0  0  0  0 
 25  5  1  0  0  0  0 
 26  5  1  0  0  0  0 
 27  6  1  0  0  0  0 
 28  7  1  0  0  0  0 
 29  7  1  0  0  0  0 
M  END 
>  <HBA> 
2 
 
>  <HBD> 
1 
 
>  <TPSA> 
15.27 
 
>  <cid> 
58315 
 
>  <dipole> 
1.75 
 
>  <excitation_energy_1> 
4.377 
 
>  <excitation_energy_2> 
4.517 
 
>  <excitation_energy_3> 
4.943 
 
>  <excitation_energy_4> 
5.03 
 
>  <homo_energy> 
-5.078 
 
>  <homo_lumo_gap> 
5.295 
 
>  <logP> 
2.816 
 
>  <lumo_energy> 
0.218 
 
>  <melting_point> 
86.52 
 
>  <molecular_refractivity> 
71.16 
 
>  <oscillator_strength_1> 
0.0413 
 
>  <oscillator_strength_2> 
0.0574 
 
>  <oscillator_strength_3> 
0.0125 
 
>  <oscillator_strength_4> 
0.0325 
 
>  <open_babel_can_smiles> 
CN[C@H]1CCC[C@@H]2[C@H]1N(C)c1c2cccc1 
 
>  <mulliken_charges> 
36 
1   -0.300712 
2   -0.317429 
3   -0.139731 
4   -0.139476 
5   -0.254002 
6   -0.208223 
7   -0.25077 
8   -0.269376 
9   -0.19227 
10   0.107555 
11   -0.195538 
12   0.032713 
13   0.329133 
14   0.035449 
15   -0.552297 
16   -0.529462 
17   0.148114 
18   0.11325 
19   0.149918 
20   0.162231 
21   0.142621 
22   0.159783 
23   0.119183 
24   0.122006 
25   0.125642 
26   0.140553 
27   0.121313 
28   0.16369 
29   0.125315 
30   0.126919 
31   0.135744 
32   0.119973 
33   0.136116 
34   0.092465 
35   0.122939 
36   0.316659 
 
>  <lowdin_charges> 
36 
1   -0.357767 
2   -0.35353 
3   -0.182447 
4   -0.151296 
5   -0.277496 
6   -0.159253 
7   -0.280852 
8   -0.285314 
9   -0.2046 
10   -0.032844 
11   -0.129195 
12   -0.070808 
13   0.047245 
14   -0.06194 
15   -0.36546 
16   -0.139854 
17   0.152055 
18   0.115232 
19   0.145625 
20   0.154766 
21   0.137295 
22   0.155876 
23   0.154371 
24   0.155248 
25   0.137652 
26   0.149405 
27   0.154711 
28   0.158337 
29   0.142424 
30   0.141741 
31   0.14508 
32   0.155092 
33   0.146865 
34   0.111061 
35   0.133564 
36   0.259013 
 
$$$$ 
 
