PCCDB-ID:  71404 
public computational chemistry database (PCCDB) project, http://pccdb.org 
 
 25 24  0  0  0  0  0  0  0  0999 V2000 
    0.8224    0.1169    0.5376 C   0  0  0  0  0  0  0  0  0  0  0  0 
    8.7846    2.7658   -1.3851 C   0  0  0  0  0  0  0  0  0  0  0  0 
    9.3796    3.0443    1.0404 C   0  0  0  0  0  0  0  0  0  0  0  0 
    2.3308   -0.0372    0.4353 C   0  0  0  0  0  0  0  0  0  0  0  0 
    4.2910    1.1848   -0.0740 C   0  0  0  0  0  0  0  0  0  0  0  0 
    4.7252    2.5976   -0.4491 C   0  0  0  0  0  0  0  0  0  0  0  0 
    8.4145    2.8655   -0.1020 C   0  0  0  0  0  0  0  0  0  0  0  0 
    6.9759    2.8029    0.2987 C   0  0  0  0  0  0  0  0  0  0  0  0 
    6.6012    2.8944    1.4521 O   0  0  0  0  0  0  0  0  0  0  0  0 
    2.8835    1.2098    0.0430 O   0  0  0  0  0  0  0  0  0  0  0  0 
    6.1329    2.6371   -0.7508 O   0  0  0  0  0  0  0  0  0  0  0  0 
    0.3615   -0.8293    0.8415 H   0  0  0  0  0  0  0  0  0  0  0  0 
    0.4002    0.4152   -0.4274 H   0  0  0  0  0  0  0  0  0  0  0  0 
    0.5648    0.8825    1.2764 H   0  0  0  0  0  0  0  0  0  0  0  0 
    9.8322    2.8115   -1.6709 H   0  0  0  0  0  0  0  0  0  0  0  0 
    8.0583    2.6373   -2.1795 H   0  0  0  0  0  0  0  0  0  0  0  0 
   10.4084    3.1078    0.6750 H   0  0  0  0  0  0  0  0  0  0  0  0 
    9.3077    2.2105    1.7481 H   0  0  0  0  0  0  0  0  0  0  0  0 
    9.1489    3.9518    1.6091 H   0  0  0  0  0  0  0  0  0  0  0  0 
    2.5935   -0.8149   -0.3023 H   0  0  0  0  0  0  0  0  0  0  0  0 
    2.7567   -0.3506    1.4033 H   0  0  0  0  0  0  0  0  0  0  0  0 
    4.7650    0.8867    0.8735 H   0  0  0  0  0  0  0  0  0  0  0  0 
    4.6134    0.4761   -0.8553 H   0  0  0  0  0  0  0  0  0  0  0  0 
    4.4974    3.2943    0.3601 H   0  0  0  0  0  0  0  0  0  0  0  0 
    4.2222    2.9147   -1.3649 H   0  0  0  0  0  0  0  0  0  0  0  0 
  1 12  1  0  0  0  0 
  1 14  1  0  0  0  0 
  2  7  2  0  0  0  0 
  3 19  1  0  0  0  0 
  3 18  1  0  0  0  0 
  4  1  1  0  0  0  0 
  4 21  1  0  0  0  0 
  5 10  1  0  0  0  0 
  5 22  1  0  0  0  0 
  6  5  1  0  0  0  0 
  6 24  1  0  0  0  0 
  7  8  1  0  0  0  0 
  7  3  1  0  0  0  0 
  8  9  2  0  0  0  0 
 10  4  1  0  0  0  0 
 11  6  1  0  0  0  0 
 11  8  1  0  0  0  0 
 13  1  1  0  0  0  0 
 15  2  1  0  0  0  0 
 16  2  1  0  0  0  0 
 17  3  1  0  0  0  0 
 20  4  1  0  0  0  0 
 23  5  1  0  0  0  0 
 25  6  1  0  0  0  0 
M  END 
>  <HBA> 
3 
 
>  <HBD> 
0 
 
>  <TPSA> 
35.53 
 
>  <cid> 
71404 
 
>  <dipole> 
1.87 
 
>  <excitation_energy_1> 
4.806 
 
>  <excitation_energy_2> 
5.212 
 
>  <excitation_energy_3> 
5.8 
 
>  <excitation_energy_4> 
6.357 
 
>  <homo_energy> 
-6.977 
 
>  <homo_lumo_gap> 
5.878 
 
>  <logP> 
1.142 
 
>  <lumo_energy> 
-1.099 
 
>  <melting_point> 
-41.58 
 
>  <molecular_refractivity> 
42.47 
 
>  <oscillator_strength_1> 
0.0001 
 
>  <oscillator_strength_2> 
0.0001 
 
>  <oscillator_strength_3> 
0.2135 
 
>  <oscillator_strength_4> 
0.1296 
 
>  <open_babel_can_smiles> 
CCOCCOC(=O)C(=C)C 
 
>  <mulliken_charges> 
25 
1   -0.454413 
2   -0.368409 
3   -0.500114 
4   -0.003391 
5   -0.024163 
6   -0.062249 
7   0.126077 
8   0.5937 
9   -0.483439 
10   -0.478738 
11   -0.482288 
12   0.144243 
13   0.158062 
14   0.160599 
15   0.148884 
16   0.172819 
17   0.147535 
18   0.17194 
19   0.174327 
20   0.119915 
21   0.124221 
22   0.14602 
23   0.126094 
24   0.179586 
25   0.163182 
 
>  <lowdin_charges> 
25 
1   -0.449371 
2   -0.300514 
3   -0.434392 
4   -0.123913 
5   -0.140959 
6   -0.134243 
7   -0.027519 
8   0.191971 
9   -0.26731 
10   -0.275472 
11   -0.191138 
12   0.154928 
13   0.156794 
14   0.158958 
15   0.162229 
16   0.17636 
17   0.154677 
18   0.168633 
19   0.169707 
20   0.126571 
21   0.127802 
22   0.140906 
23   0.130473 
24   0.165252 
25   0.15957 
 
$$$$ 
 
