PCCDB-ID:  11376 
public computational chemistry database (PCCDB) project, http://pccdb.org 
 
 18 19  0  0  0  0  0  0  0  0999 V2000 
   -2.4336    0.6368   -0.0241 C   0  0  0  0  0  0  0  0  0  0  0  0 
   -2.3752   -0.7781   -0.0041 C   0  0  0  0  0  0  0  0  0  0  0  0 
   -1.2775    1.3863   -0.0304 C   0  0  0  0  0  0  0  0  0  0  0  0 
   -1.1575   -1.4221    0.0094 C   0  0  0  0  0  0  0  0  0  0  0  0 
    1.2188    1.4633   -0.0204 C   0  0  0  0  0  0  0  0  0  0  0  0 
    2.3512   -0.6661    0.0143 C   0  0  0  0  0  0  0  0  0  0  0  0 
   -0.0082    0.7514   -0.0162 C   0  0  0  0  0  0  0  0  0  0  0  0 
    2.3996    0.7581   -0.0053 C   0  0  0  0  0  0  0  0  0  0  0  0 
    0.0501   -0.6787    0.0041 C   0  0  0  0  0  0  0  0  0  0  0  0 
    1.2370   -1.3583    0.0190 N   0  0  0  0  0  0  0  0  0  0  0  0 
    3.6431    1.3189   -0.0069 O   0  0  0  0  0  0  0  0  0  0  0  0 
   -3.4003    1.1333   -0.0347 H   0  0  0  0  0  0  0  0  0  0  0  0 
   -3.2970   -1.3530    0.0001 H   0  0  0  0  0  0  0  0  0  0  0  0 
   -1.3235    2.4728   -0.0463 H   0  0  0  0  0  0  0  0  0  0  0  0 
   -1.0807   -2.5049    0.0243 H   0  0  0  0  0  0  0  0  0  0  0  0 
    1.2126    2.5525   -0.0351 H   0  0  0  0  0  0  0  0  0  0  0  0 
    3.2931   -1.2130    0.0258 H   0  0  0  0  0  0  0  0  0  0  0  0 
    3.5569    2.2852   -0.0293 H   0  0  0  0  0  0  0  0  0  0  0  0 
  1  2  1  0  0  0  0 
  2 13  1  0  0  0  0 
  2  4  2  0  0  0  0 
  3  1  2  0  0  0  0 
  3  7  1  0  0  0  0 
  4 15  1  0  0  0  0 
  5  7  2  0  0  0  0 
  5  8  1  0  0  0  0 
  6 10  1  0  0  0  0 
  6 17  1  0  0  0  0 
  7  9  1  0  0  0  0 
  8  6  2  0  0  0  0 
  9  4  1  0  0  0  0 
  9 10  2  0  0  0  0 
 11  8  1  0  0  0  0 
 12  1  1  0  0  0  0 
 14  3  1  0  0  0  0 
 16  5  1  0  0  0  0 
 18 11  1  0  0  0  0 
M  END 
>  <HBA> 
2 
 
>  <HBD> 
1 
 
>  <TPSA> 
33.12 
 
>  <cid> 
11376 
 
>  <dipole> 
3.14 
 
>  <excitation_energy_1> 
4.143 
 
>  <excitation_energy_2> 
4.391 
 
>  <excitation_energy_3> 
4.512 
 
>  <excitation_energy_4> 
5.129 
 
>  <homo_energy> 
-6.006 
 
>  <homo_lumo_gap> 
4.694 
 
>  <logP> 
1.94 
 
>  <lumo_energy> 
-1.312 
 
>  <melting_point> 
104.13 
 
>  <molecular_refractivity> 
43.77 
 
>  <oscillator_strength_1> 
0.0591 
 
>  <oscillator_strength_2> 
0.0017 
 
>  <oscillator_strength_3> 
0.0283 
 
>  <oscillator_strength_4> 
0.0002 
 
>  <open_babel_can_smiles> 
Oc1cnc2c(c1)cccc2 
 
>  <mulliken_charges> 
18 
1   -0.130062 
2   -0.142678 
3   -0.203533 
4   -0.13744 
5   -0.225169 
6   0.024533 
7   0.16525 
8   0.325765 
9   0.225756 
10   -0.493714 
11   -0.640363 
12   0.13246 
13   0.132976 
14   0.127947 
15   0.144258 
16   0.128274 
17   0.154679 
18   0.411061 
 
>  <lowdin_charges> 
18 
1   -0.151586 
2   -0.162103 
3   -0.163582 
4   -0.14482 
5   -0.196594 
6   -0.102603 
7   -0.00445 
8   0.078325 
9   0.028847 
10   -0.135687 
11   -0.36784 
12   0.15963 
13   0.160701 
14   0.154369 
15   0.167685 
16   0.155284 
17   0.165768 
18   0.358656 
 
$$$$ 
 
