PCCDB-ID:  41077 
public computational chemistry database (PCCDB) project, http://pccdb.org 
 
 36 35  0  0  1  0  0  0  0  0999 V2000 
    3.1202    3.8728    2.6585 C   0  0  0  0  0  0  0  0  0  0  0  0 
    8.7003    3.8214    1.8365 C   0  0  0  0  0  0  0  0  0  0  0  0 
    9.9272    4.4699   -0.2703 C   0  0  0  0  0  0  0  0  0  0  0  0 
    3.3228    3.0712   -0.9948 C   0  0  0  0  0  0  0  0  0  0  0  0 
    6.9569    0.4193   -0.5407 C   0  0  0  0  0  0  0  0  0  0  0  0 
    4.1350    3.2822    2.0249 C   0  0  0  0  0  0  0  0  0  0  0  0 
    4.0321    2.0178    1.2132 C   0  0  0  0  0  0  0  0  0  0  0  0 
    8.3208    2.5248   -0.3381 C   0  0  0  0  0  0  0  0  0  0  0  0 
    5.7852    2.6877   -0.5808 C   0  0  0  0  0  0  0  0  0  0  0  0 
    8.6223    3.8955    0.3037 C   0  0  0  0  0  0  0  0  0  0  0  0 
    4.3565    2.1736   -0.2978 C   0  0  2  0  0  0  0  0  0  0  0  0 
    6.9614    1.8639   -0.0127 C   0  0  1  0  0  0  0  0  0  0  0  0 
    3.2560    4.7820    3.2385 H   0  0  0  0  0  0  0  0  0  0  0  0 
    2.1116    3.4645    2.6259 H   0  0  0  0  0  0  0  0  0  0  0  0 
    8.9356    4.8032    2.2645 H   0  0  0  0  0  0  0  0  0  0  0  0 
    9.4874    3.1242    2.1534 H   0  0  0  0  0  0  0  0  0  0  0  0 
    7.7592    3.4845    2.2850 H   0  0  0  0  0  0  0  0  0  0  0  0 
   10.1461    5.4578    0.1523 H   0  0  0  0  0  0  0  0  0  0  0  0 
    9.8724    4.5748   -1.3604 H   0  0  0  0  0  0  0  0  0  0  0  0 
   10.7785    3.8152   -0.0415 H   0  0  0  0  0  0  0  0  0  0  0  0 
    2.3060    2.6828   -0.8595 H   0  0  0  0  0  0  0  0  0  0  0  0 
    3.5180    3.1329   -2.0720 H   0  0  0  0  0  0  0  0  0  0  0  0 
    3.3432    4.0892   -0.5889 H   0  0  0  0  0  0  0  0  0  0  0  0 
    7.8026   -0.1481   -0.1343 H   0  0  0  0  0  0  0  0  0  0  0  0 
    7.0423    0.4025   -1.6355 H   0  0  0  0  0  0  0  0  0  0  0  0 
    6.0412   -0.1180   -0.2717 H   0  0  0  0  0  0  0  0  0  0  0  0 
    5.1257    3.7336    2.0952 H   0  0  0  0  0  0  0  0  0  0  0  0 
    3.0166    1.6114    1.3098 H   0  0  0  0  0  0  0  0  0  0  0  0 
    4.7074    1.2635    1.6425 H   0  0  0  0  0  0  0  0  0  0  0  0 
    9.1230    1.8313   -0.0428 H   0  0  0  0  0  0  0  0  0  0  0  0 
    8.3993    2.6242   -1.4318 H   0  0  0  0  0  0  0  0  0  0  0  0 
    5.8569    3.7220   -0.2193 H   0  0  0  0  0  0  0  0  0  0  0  0 
    5.9111    2.7491   -1.6728 H   0  0  0  0  0  0  0  0  0  0  0  0 
    7.8147    4.5934    0.0398 H   0  0  0  0  0  0  0  0  0  0  0  0 
    4.2630    1.1694   -0.7343 H   0  0  0  0  0  0  0  0  0  0  0  0 
    6.8607    1.8140    1.0806 H   0  0  0  0  0  0  0  0  0  0  0  0 
  1 13  1  0  0  0  0 
  2 16  1  0  0  0  0 
  2 15  1  0  0  0  0 
  2 17  1  0  0  0  0 
  3 20  1  0  0  0  0 
  3 18  1  0  0  0  0 
  3 10  1  0  0  0  0 
  4 21  1  0  0  0  0 
  4 23  1  0  0  0  0 
  4 11  1  0  0  0  0 
  5 26  1  0  0  0  0 
  5 24  1  0  0  0  0 
  5 12  1  0  0  0  0 
  6 27  1  0  0  0  0 
  6  1  2  0  0  0  0 
  7 28  1  0  0  0  0 
  7 29  1  0  0  0  0 
  7  6  1  0  0  0  0 
  8 30  1  0  0  0  0 
  8 12  1  0  0  0  0 
  8 10  1  0  0  0  0 
  9 11  1  0  0  0  0 
  9 32  1  0  0  0  0 
  9 12  1  0  0  0  0 
 10  2  1  0  0  0  0 
 11 35  1  6  0  0  0 
 11  7  1  0  0  0  0 
 12 36  1  1  0  0  0 
 14  1  1  0  0  0  0 
 19  3  1  0  0  0  0 
 22  4  1  0  0  0  0 
 25  5  1  0  0  0  0 
 31  8  1  0  0  0  0 
 33  9  1  0  0  0  0 
 34 10  1  0  0  0  0 
M  END 
>  <HBA> 
0 
 
>  <HBD> 
0 
 
>  <TPSA> 
0.0 
 
>  <cid> 
41077 
 
>  <dipole> 
0.29 
 
>  <excitation_energy_1> 
6.365 
 
>  <excitation_energy_2> 
6.521 
 
>  <excitation_energy_3> 
6.763 
 
>  <excitation_energy_4> 
6.886 
 
>  <homo_energy> 
-6.768 
 
>  <homo_lumo_gap> 
7.402 
 
>  <logP> 
4.271 
 
>  <lumo_energy> 
0.634 
 
>  <melting_point> 
-51.15 
 
>  <molecular_refractivity> 
59.32 
 
>  <oscillator_strength_1> 
0.0236 
 
>  <oscillator_strength_2> 
0.0563 
 
>  <oscillator_strength_3> 
0.0514 
 
>  <oscillator_strength_4> 
0.0143 
 
>  <open_babel_can_smiles> 
C=CC[C@H](C[C@H](CC(C)C)C)C 
 
>  <mulliken_charges> 
36 
1   -0.343103 
2   -0.45016 
3   -0.441564 
4   -0.445515 
5   -0.452524 
6   -0.045543 
7   -0.31422 
8   -0.24603 
9   -0.26092 
10   -0.074016 
11   -0.079892 
12   -0.085272 
13   0.136728 
14   0.134271 
15   0.139964 
16   0.138272 
17   0.147168 
18   0.138491 
19   0.139458 
20   0.137877 
21   0.136205 
22   0.137671 
23   0.149808 
24   0.139757 
25   0.138331 
26   0.144599 
27   0.130512 
28   0.133456 
29   0.144075 
30   0.12019 
31   0.121239 
32   0.133905 
33   0.122548 
34   0.125871 
35   0.124381 
36   0.123983 
 
>  <lowdin_charges> 
36 
1   -0.34228 
2   -0.448897 
3   -0.441466 
4   -0.442181 
5   -0.4456 
6   -0.146811 
7   -0.278518 
8   -0.273926 
9   -0.27856 
10   -0.123843 
11   -0.122829 
12   -0.126772 
13   0.156577 
14   0.15208 
15   0.148197 
16   0.146312 
17   0.146785 
18   0.146594 
19   0.145165 
20   0.145305 
21   0.145537 
22   0.145049 
23   0.150158 
24   0.148851 
25   0.143272 
26   0.148174 
27   0.148462 
28   0.145836 
29   0.15069 
30   0.138523 
31   0.135558 
32   0.140031 
33   0.137265 
34   0.136827 
35   0.137131 
36   0.133304 
 
$$$$ 
 
