PCCDB-ID:  14092 
public computational chemistry database (PCCDB) project, http://pccdb.org 
 
 24 24  0  0  0  0  0  0  0  0999 V2000 
    1.0832    1.1698    0.9827 C   0  0  0  0  0  0  0  0  0  0  0  0 
    7.3647    3.8494   -1.0629 C   0  0  0  0  0  0  0  0  0  0  0  0 
    2.6103    1.2247    0.8803 C   0  0  0  0  0  0  0  0  0  0  0  0 
    6.7877    0.0954   -0.6585 C   0  0  0  0  0  0  0  0  0  0  0  0 
    3.1170    1.1425   -0.5738 C   0  0  0  0  0  0  0  0  0  0  0  0 
    7.4283    1.3258   -0.8158 C   0  0  0  0  0  0  0  0  0  0  0  0 
    5.3972    0.0311   -0.5922 C   0  0  0  0  0  0  0  0  0  0  0  0 
    5.2877    2.4212   -0.8423 C   0  0  0  0  0  0  0  0  0  0  0  0 
    6.6850    2.5078   -0.9077 C   0  0  0  0  0  0  0  0  0  0  0  0 
    4.6262    1.1987   -0.6825 C   0  0  0  0  0  0  0  0  0  0  0  0 
    0.7518    1.2278    2.0257 H   0  0  0  0  0  0  0  0  0  0  0  0 
    0.6896    0.2376    0.5591 H   0  0  0  0  0  0  0  0  0  0  0  0 
    0.6186    2.0014    0.4384 H   0  0  0  0  0  0  0  0  0  0  0  0 
    8.4212    3.7349   -1.3259 H   0  0  0  0  0  0  0  0  0  0  0  0 
    7.3182    4.4308   -0.1326 H   0  0  0  0  0  0  0  0  0  0  0  0 
    6.8871    4.4539   -1.8429 H   0  0  0  0  0  0  0  0  0  0  0  0 
    3.0528    0.4039    1.4605 H   0  0  0  0  0  0  0  0  0  0  0  0 
    2.9815    2.1526    1.3356 H   0  0  0  0  0  0  0  0  0  0  0  0 
    7.3763   -0.8165   -0.5961 H   0  0  0  0  0  0  0  0  0  0  0  0 
    2.6739    1.9653   -1.1510 H   0  0  0  0  0  0  0  0  0  0  0  0 
    2.7479    0.2121   -1.0264 H   0  0  0  0  0  0  0  0  0  0  0  0 
    8.5136    1.3684   -0.8734 H   0  0  0  0  0  0  0  0  0  0  0  0 
    4.9025   -0.9311   -0.4770 H   0  0  0  0  0  0  0  0  0  0  0  0 
    4.6975    3.3335   -0.9222 H   0  0  0  0  0  0  0  0  0  0  0  0 
  1 11  1  0  0  0  0 
  2  9  1  0  0  0  0 
  2 15  1  0  0  0  0 
  3  1  1  0  0  0  0 
  3 18  1  0  0  0  0 
  3 17  1  0  0  0  0 
  4 19  1  0  0  0  0 
  4  7  1  0  0  0  0 
  5  3  1  0  0  0  0 
  6  4  2  0  0  0  0 
  7 23  1  0  0  0  0 
  8 10  1  0  0  0  0 
  9  8  2  0  0  0  0 
  9  6  1  0  0  0  0 
 10  7  2  0  0  0  0 
 10  5  1  0  0  0  0 
 12  1  1  0  0  0  0 
 13  1  1  0  0  0  0 
 14  2  1  0  0  0  0 
 16  2  1  0  0  0  0 
 20  5  1  0  0  0  0 
 21  5  1  0  0  0  0 
 22  6  1  0  0  0  0 
 24  8  1  0  0  0  0 
M  END 
>  <HBA> 
0 
 
>  <HBD> 
0 
 
>  <TPSA> 
0.0 
 
>  <cid> 
14092 
 
>  <dipole> 
0.33 
 
>  <excitation_energy_1> 
5.189 
 
>  <excitation_energy_2> 
5.775 
 
>  <excitation_energy_3> 
5.905 
 
>  <excitation_energy_4> 
6.068 
 
>  <homo_energy> 
-6.253 
 
>  <homo_lumo_gap> 
6.414 
 
>  <logP> 
2.947 
 
>  <lumo_energy> 
0.161 
 
>  <melting_point> 
10.66 
 
>  <molecular_refractivity> 
45.99 
 
>  <oscillator_strength_1> 
0.0036 
 
>  <oscillator_strength_2> 
0.0124 
 
>  <oscillator_strength_3> 
0.0032 
 
>  <oscillator_strength_4> 
0.0095 
 
>  <open_babel_can_smiles> 
CCCc1cccc(c1)C 
 
>  <mulliken_charges> 
24 
1   -0.441292 
2   -0.529222 
3   -0.241818 
4   -0.125382 
5   -0.341468 
6   -0.185768 
7   -0.185357 
8   -0.235817 
9   0.181937 
10   0.178838 
11   0.14424 
12   0.141881 
13   0.141755 
14   0.153542 
15   0.162796 
16   0.158149 
17   0.137759 
18   0.137382 
19   0.124783 
20   0.137247 
21   0.13772 
22   0.117967 
23   0.118225 
24   0.111903 
 
>  <lowdin_charges> 
24 
1   -0.445711 
2   -0.44202 
3   -0.270574 
4   -0.155284 
5   -0.274608 
6   -0.172057 
7   -0.174209 
8   -0.179163 
9   0.002118 
10   0.002894 
11   0.14976 
12   0.146752 
13   0.147385 
14   0.154616 
15   0.160525 
16   0.159651 
17   0.143979 
18   0.143159 
19   0.155922 
20   0.14709 
21   0.146746 
22   0.150502 
23   0.152464 
24   0.150061 
 
$$$$ 
 
