PCCDB-ID:  56738 
public computational chemistry database (PCCDB) project, http://pccdb.org 
 
 27 26  0  0  0  0  0  0  0  0999 V2000 
    1.4355   -1.0085   -5.5532 C   0  0  0  0  0  0  0  0  0  0  0  0 
    9.2552   -3.2915   -4.0107 C   0  0  0  0  0  0  0  0  0  0  0  0 
    9.0499   -1.4058   -0.9509 C   0  0  0  0  0  0  0  0  0  0  0  0 
    3.4711   -1.5515   -4.5076 C   0  0  0  0  0  0  0  0  0  0  0  0 
    4.4045   -1.0649   -3.4086 C   0  0  0  0  0  0  0  0  0  0  0  0 
    6.4484   -1.6092   -2.3660 C   0  0  0  0  0  0  0  0  0  0  0  0 
    7.6095   -2.5980   -2.4593 C   0  0  0  0  0  0  0  0  0  0  0  0 
    2.3758   -0.6603   -4.5606 O   0  0  0  0  0  0  0  0  0  0  0  0 
    8.3458   -2.2759   -3.6097 O   0  0  0  0  0  0  0  0  0  0  0  0 
    8.4040   -2.6293   -1.2892 O   0  0  0  0  0  0  0  0  0  0  0  0 
    5.4994   -1.9577   -3.3521 O   0  0  0  0  0  0  0  0  0  0  0  0 
    0.6347   -0.2653   -5.5146 H   0  0  0  0  0  0  0  0  0  0  0  0 
    1.0053   -2.0076   -5.3755 H   0  0  0  0  0  0  0  0  0  0  0  0 
    1.8831   -1.0003   -6.5603 H   0  0  0  0  0  0  0  0  0  0  0  0 
    8.7246   -4.2270   -4.2424 H   0  0  0  0  0  0  0  0  0  0  0  0 
   10.0055   -3.4941   -3.2366 H   0  0  0  0  0  0  0  0  0  0  0  0 
    9.7519   -2.9294   -4.9139 H   0  0  0  0  0  0  0  0  0  0  0  0 
    9.7941   -1.6517   -0.1893 H   0  0  0  0  0  0  0  0  0  0  0  0 
    8.3476   -0.6731   -0.5288 H   0  0  0  0  0  0  0  0  0  0  0  0 
    9.5514   -0.9626   -1.8188 H   0  0  0  0  0  0  0  0  0  0  0  0 
    3.1388   -2.5790   -4.2854 H   0  0  0  0  0  0  0  0  0  0  0  0 
    4.0114   -1.5780   -5.4681 H   0  0  0  0  0  0  0  0  0  0  0  0 
    3.8636   -1.0352   -2.4486 H   0  0  0  0  0  0  0  0  0  0  0  0 
    4.7401   -0.0399   -3.6334 H   0  0  0  0  0  0  0  0  0  0  0  0 
    6.8134   -0.5822   -2.5223 H   0  0  0  0  0  0  0  0  0  0  0  0 
    6.0105   -1.6730   -1.3567 H   0  0  0  0  0  0  0  0  0  0  0  0 
    7.2050   -3.6171   -2.5332 H   0  0  0  0  0  0  0  0  0  0  0  0 
  1 12  1  0  0  0  0 
  1 13  1  0  0  0  0 
  1  8  1  0  0  0  0 
  2  9  1  0  0  0  0 
  2 16  1  0  0  0  0 
  3 19  1  0  0  0  0 
  3 18  1  0  0  0  0 
  4 21  1  0  0  0  0 
  4  5  1  0  0  0  0 
  5 11  1  0  0  0  0 
  5 23  1  0  0  0  0 
  6 26  1  0  0  0  0 
  7  6  1  0  0  0  0 
  7 10  1  0  0  0  0 
  8  4  1  0  0  0  0 
  9  7  1  0  0  0  0 
 10  3  1  0  0  0  0 
 11  6  1  0  0  0  0 
 14  1  1  0  0  0  0 
 15  2  1  0  0  0  0 
 17  2  1  0  0  0  0 
 20  3  1  0  0  0  0 
 22  4  1  0  0  0  0 
 24  5  1  0  0  0  0 
 25  6  1  0  0  0  0 
 27  7  1  0  0  0  0 
M  END 
>  <HBA> 
4 
 
>  <HBD> 
0 
 
>  <TPSA> 
36.92 
 
>  <cid> 
56738 
 
>  <dipole> 
0.45 
 
>  <excitation_energy_1> 
6.628 
 
>  <excitation_energy_2> 
6.711 
 
>  <excitation_energy_3> 
6.899 
 
>  <excitation_energy_4> 
6.93 
 
>  <homo_energy> 
-6.844 
 
>  <homo_lumo_gap> 
9.083 
 
>  <logP> 
0.268 
 
>  <lumo_energy> 
2.24 
 
>  <melting_point> 
-63.02 
 
>  <molecular_refractivity> 
40.1 
 
>  <oscillator_strength_1> 
0.0301 
 
>  <oscillator_strength_2> 
0.007 
 
>  <oscillator_strength_3> 
0.0021 
 
>  <oscillator_strength_4> 
0.0022 
 
>  <open_babel_can_smiles> 
COCCOCC(OC)OC 
 
>  <mulliken_charges> 
27 
1   -0.189596 
2   -0.205385 
3   -0.217904 
4   -0.026526 
5   -0.019724 
6   -0.031164 
7   0.338599 
8   -0.467196 
9   -0.461963 
10   -0.477569 
11   -0.486825 
12   0.158327 
13   0.130985 
14   0.131481 
15   0.138381 
16   0.150556 
17   0.15811 
18   0.157881 
19   0.136823 
20   0.156099 
21   0.129671 
22   0.133244 
23   0.131022 
24   0.134018 
25   0.132802 
26   0.131969 
27   0.133883 
 
>  <lowdin_charges> 
27 
1   -0.276854 
2   -0.283675 
3   -0.291843 
4   -0.132818 
5   -0.130743 
6   -0.144428 
7   0.088275 
8   -0.271052 
9   -0.257769 
10   -0.271584 
11   -0.264559 
12   0.155704 
13   0.131457 
14   0.131472 
15   0.138081 
16   0.143768 
17   0.156279 
18   0.156748 
19   0.136263 
20   0.147319 
21   0.130455 
22   0.133339 
23   0.132446 
24   0.133226 
25   0.136753 
26   0.135281 
27   0.138458 
 
$$$$ 
 
