PCCDB-ID:  15606 
public computational chemistry database (PCCDB) project, http://pccdb.org 
 
 32 31  0  0  0  0  0  0  0  0999 V2000 
    1.0760   -0.0770   -0.5049 C   0  0  0  0  0  0  0  0  0  0  0  0 
   10.9929    4.1486    5.9965 C   0  0  0  0  0  0  0  0  0  0  0  0 
    2.6001   -0.0577   -0.3506 C   0  0  0  0  0  0  0  0  0  0  0  0 
    3.0789    0.8016    0.8268 C   0  0  0  0  0  0  0  0  0  0  0  0 
    4.6043    0.8270    0.9874 C   0  0  0  0  0  0  0  0  0  0  0  0 
    5.0828    1.6815    2.1683 C   0  0  0  0  0  0  0  0  0  0  0  0 
    6.6087    1.7070    2.3261 C   0  0  0  0  0  0  0  0  0  0  0  0 
    7.0799    2.5517    3.5160 C   0  0  0  0  0  0  0  0  0  0  0  0 
    8.6030    2.5717    3.6588 C   0  0  0  0  0  0  0  0  0  0  0  0 
    9.0809    3.3814    4.8486 C   0  0  0  0  0  0  0  0  0  0  0  0 
    8.3728    3.9330    5.6630 O   0  0  0  0  0  0  0  0  0  0  0  0 
   10.4342    3.4120    4.8973 O   0  0  0  0  0  0  0  0  0  0  0  0 
    0.7664   -0.6995   -1.3523 H   0  0  0  0  0  0  0  0  0  0  0  0 
    0.6816    0.9330   -0.6720 H   0  0  0  0  0  0  0  0  0  0  0  0 
    0.5914   -0.4751    0.3953 H   0  0  0  0  0  0  0  0  0  0  0  0 
   12.0746    4.0804    5.8756 H   0  0  0  0  0  0  0  0  0  0  0  0 
   10.6848    3.7110    6.9502 H   0  0  0  0  0  0  0  0  0  0  0  0 
   10.6677    5.1921    5.9667 H   0  0  0  0  0  0  0  0  0  0  0  0 
    3.0577    0.3134   -1.2788 H   0  0  0  0  0  0  0  0  0  0  0  0 
    2.9680   -1.0857   -0.2212 H   0  0  0  0  0  0  0  0  0  0  0  0 
    2.6213    0.4299    1.7559 H   0  0  0  0  0  0  0  0  0  0  0  0 
    2.7095    1.8300    0.6980 H   0  0  0  0  0  0  0  0  0  0  0  0 
    5.0607    1.2021    0.0591 H   0  0  0  0  0  0  0  0  0  0  0  0 
    4.9731   -0.2023    1.1116 H   0  0  0  0  0  0  0  0  0  0  0  0 
    4.6286    1.3057    3.0970 H   0  0  0  0  0  0  0  0  0  0  0  0 
    4.7141    2.7106    2.0457 H   0  0  0  0  0  0  0  0  0  0  0  0 
    7.0626    2.0912    1.4002 H   0  0  0  0  0  0  0  0  0  0  0  0 
    6.9786    0.6767    2.4392 H   0  0  0  0  0  0  0  0  0  0  0  0 
    6.6373    2.1710    4.4448 H   0  0  0  0  0  0  0  0  0  0  0  0 
    6.7151    3.5814    3.4116 H   0  0  0  0  0  0  0  0  0  0  0  0 
    9.0832    2.9787    2.7588 H   0  0  0  0  0  0  0  0  0  0  0  0 
    9.0039    1.5543    3.7661 H   0  0  0  0  0  0  0  0  0  0  0  0 
  1  3  1  0  0  0  0 
  1 15  1  0  0  0  0 
  2 17  1  0  0  0  0 
  3 20  1  0  0  0  0 
  3  4  1  0  0  0  0 
  4  5  1  0  0  0  0 
  4 21  1  0  0  0  0 
  5 24  1  0  0  0  0 
  5  6  1  0  0  0  0 
  6  7  1  0  0  0  0 
  6 25  1  0  0  0  0 
  7 28  1  0  0  0  0 
  7  8  1  0  0  0  0 
  8  9  1  0  0  0  0 
  8 29  1  0  0  0  0 
  9 32  1  0  0  0  0 
  9 10  1  0  0  0  0 
 10 12  1  0  0  0  0 
 10 11  2  0  0  0  0 
 12  2  1  0  0  0  0 
 13  1  1  0  0  0  0 
 14  1  1  0  0  0  0 
 16  2  1  0  0  0  0 
 18  2  1  0  0  0  0 
 19  3  1  0  0  0  0 
 22  4  1  0  0  0  0 
 23  5  1  0  0  0  0 
 26  6  1  0  0  0  0 
 27  7  1  0  0  0  0 
 30  8  1  0  0  0  0 
 31  9  1  0  0  0  0 
M  END 
>  <HBA> 
2 
 
>  <HBD> 
0 
 
>  <TPSA> 
26.3 
 
>  <cid> 
15606 
 
>  <dipole> 
1.58 
 
>  <excitation_energy_1> 
5.85 
 
>  <excitation_energy_2> 
6.996 
 
>  <excitation_energy_3> 
7.494 
 
>  <excitation_energy_4> 
7.681 
 
>  <homo_energy> 
-7.29 
 
>  <homo_lumo_gap> 
7.75 
 
>  <logP> 
2.91 
 
>  <lumo_energy> 
0.46 
 
>  <melting_point> 
-16.78 
 
>  <molecular_refractivity> 
51.47 
 
>  <oscillator_strength_1> 
0.0006 
 
>  <oscillator_strength_2> 
0.0187 
 
>  <oscillator_strength_3> 
0.0067 
 
>  <oscillator_strength_4> 
0.0028 
 
>  <open_babel_can_smiles> 
CCCCCCCCC(=O)OC 
 
>  <mulliken_charges> 
32 
1   -0.441311 
2   -0.216832 
3   -0.246611 
4   -0.245587 
5   -0.252624 
6   -0.253616 
7   -0.257 
8   -0.248418 
9   -0.362308 
10   0.620487 
11   -0.47858 
12   -0.454829 
13   0.141112 
14   0.141197 
15   0.141245 
16   0.162658 
17   0.16832 
18   0.169118 
19   0.129481 
20   0.129513 
21   0.126891 
22   0.126789 
23   0.126291 
24   0.126305 
25   0.129942 
26   0.129648 
27   0.126775 
28   0.126745 
29   0.149568 
30   0.146699 
31   0.169085 
32   0.169846 
 
>  <lowdin_charges> 
32 
1   -0.445219 
2   -0.275818 
3   -0.271246 
4   -0.273728 
5   -0.273521 
6   -0.272812 
7   -0.274037 
8   -0.269101 
9   -0.302534 
10   0.200046 
11   -0.265041 
12   -0.199718 
13   0.149621 
14   0.145538 
15   0.146706 
16   0.157377 
17   0.15788 
18   0.157042 
19   0.138627 
20   0.137419 
21   0.13771 
22   0.136456 
23   0.137403 
24   0.136167 
25   0.139424 
26   0.138068 
27   0.137469 
28   0.136197 
29   0.151143 
30   0.148424 
31   0.167366 
32   0.166691 
 
$$$$ 
 
