PCCDB-ID:  66081 
public computational chemistry database (PCCDB) project, http://pccdb.org 
 
 19 18  0  0  0  0  0  0  0  0999 V2000 
    0.9620   -0.1400    0.4729 C   0  0  0  0  0  0  0  0  0  0  0  0 
    3.0788    1.3079    0.2911 C   0  0  0  0  0  0  0  0  0  0  0  0 
    4.4890   -3.0588   -0.0500 C   0  0  0  0  0  0  0  0  0  0  0  0 
    3.7814   -2.3472   -2.4191 C   0  0  0  0  0  0  0  0  0  0  0  0 
    3.0780   -1.0604   -0.4260 C   0  0  0  0  0  0  0  0  0  0  0  0 
    2.4212   -0.0406    0.0761 C   0  0  0  0  0  0  0  0  0  0  0  0 
    3.7348   -2.0803   -0.9280 C   0  0  0  0  0  0  0  0  0  0  0  0 
    0.8279    0.1245    1.5310 H   0  0  0  0  0  0  0  0  0  0  0  0 
    0.5659   -1.1473    0.3187 H   0  0  0  0  0  0  0  0  0  0  0  0 
    0.3509    0.5625   -0.1110 H   0  0  0  0  0  0  0  0  0  0  0  0 
    2.5536    2.0927   -0.2710 H   0  0  0  0  0  0  0  0  0  0  0  0 
    4.1252    1.3029   -0.0255 H   0  0  0  0  0  0  0  0  0  0  0  0 
    3.0415    1.5963    1.3508 H   0  0  0  0  0  0  0  0  0  0  0  0 
    4.1125   -4.0814   -0.1922 H   0  0  0  0  0  0  0  0  0  0  0  0 
    4.3979   -2.8044    1.0093 H   0  0  0  0  0  0  0  0  0  0  0  0 
    5.5566   -3.0735   -0.3101 H   0  0  0  0  0  0  0  0  0  0  0  0 
    4.8177   -2.3503   -2.7850 H   0  0  0  0  0  0  0  0  0  0  0  0 
    3.2226   -1.5947   -2.9818 H   0  0  0  0  0  0  0  0  0  0  0  0 
    3.3588   -3.3347   -2.6510 H   0  0  0  0  0  0  0  0  0  0  0  0 
  1  8  1  0  0  0  0 
  2 13  1  0  0  0  0 
  3 15  1  0  0  0  0 
  4  7  1  0  0  0  0 
  5  6  2  0  0  0  0 
  6  2  1  0  0  0  0 
  6  1  1  0  0  0  0 
  7  5  2  0  0  0  0 
  7  3  1  0  0  0  0 
  9  1  1  0  0  0  0 
 10  1  1  0  0  0  0 
 11  2  1  0  0  0  0 
 12  2  1  0  0  0  0 
 14  3  1  0  0  0  0 
 16  3  1  0  0  0  0 
 17  4  1  0  0  0  0 
 18  4  1  0  0  0  0 
 19  4  1  0  0  0  0 
M  END 
>  <HBA> 
0 
 
>  <HBD> 
0 
 
>  <TPSA> 
0.0 
 
>  <cid> 
66081 
 
>  <dipole> 
0.0 
 
>  <excitation_energy_1> 
5.603 
 
>  <excitation_energy_2> 
5.787 
 
>  <excitation_energy_3> 
5.803 
 
>  <excitation_energy_4> 
5.811 
 
>  <homo_energy> 
-6.21 
 
>  <homo_lumo_gap> 
7.317 
 
>  <logP> 
2.518 
 
>  <lumo_energy> 
1.108 
 
>  <melting_point> 
-9.93 
 
>  <molecular_refractivity> 
33.99 
 
>  <oscillator_strength_1> 
0.0 
 
>  <oscillator_strength_2> 
0.0 
 
>  <oscillator_strength_3> 
0.0074 
 
>  <oscillator_strength_4> 
0.0071 
 
>  <open_babel_can_smiles> 
CC(=C=C(C)C)C 
 
>  <mulliken_charges> 
19 
1   -0.482615 
2   -0.482865 
3   -0.482687 
4   -0.482928 
5   0.204104 
6   -0.053048 
7   -0.05288 
8   0.149175 
9   0.158892 
10   0.150189 
11   0.149504 
12   0.158962 
13   0.149727 
14   0.149439 
15   0.158951 
16   0.149837 
17   0.149493 
18   0.158939 
19   0.14981 
 
>  <lowdin_charges> 
19 
1   -0.431055 
2   -0.430183 
3   -0.427468 
4   -0.431416 
5   -0.069941 
6   -0.032343 
7   -0.032473 
8   0.151213 
9   0.159136 
10   0.154359 
11   0.1537 
12   0.158511 
13   0.151471 
14   0.151698 
15   0.158323 
16   0.151304 
17   0.151649 
18   0.161069 
19   0.152446 
 
$$$$ 
 
