PCCDB-ID:  8254 
public computational chemistry database (PCCDB) project, http://pccdb.org 
 
  9  8  0  0  0  0  0  0  0  0999 V2000 
    0.8913    0.0020    0.0602 C   0  0  0  0  0  0  0  0  0  0  0  0 
    2.8033   -0.0018    1.4122 C   0  0  0  0  0  0  0  0  0  0  0  0 
    2.3006    0.0019    0.0951 O   0  0  0  0  0  0  0  0  0  0  0  0 
    0.5929    0.0051   -0.9917 H   0  0  0  0  0  0  0  0  0  0  0  0 
    0.4691    0.8937    0.5533 H   0  0  0  0  0  0  0  0  0  0  0  0 
    0.4691   -0.8924    0.5481 H   0  0  0  0  0  0  0  0  0  0  0  0 
    3.8944   -0.0016    1.3428 H   0  0  0  0  0  0  0  0  0  0  0  0 
    2.4817   -0.8965    1.9713 H   0  0  0  0  0  0  0  0  0  0  0  0 
    2.4817    0.8897    1.9764 H   0  0  0  0  0  0  0  0  0  0  0  0 
  1  3  1  0  0  0  0 
  1  6  1  0  0  0  0 
  1  5  1  0  0  0  0 
  2  8  1  0  0  0  0 
  2  9  1  0  0  0  0 
  3  2  1  0  0  0  0 
  4  1  1  0  0  0  0 
  7  2  1  0  0  0  0 
M  END 
>  <HBA> 
1 
 
>  <HBD> 
0 
 
>  <TPSA> 
9.23 
 
>  <cid> 
8254 
 
>  <dipole> 
1.27 
 
>  <excitation_energy_1> 
6.502 
 
>  <excitation_energy_2> 
7.096 
 
>  <excitation_energy_3> 
7.115 
 
>  <excitation_energy_4> 
7.541 
 
>  <homo_energy> 
-6.852 
 
>  <homo_lumo_gap> 
9.366 
 
>  <logP> 
0.263 
 
>  <lumo_energy> 
2.514 
 
>  <melting_point> 
-32.86 
 
>  <molecular_refractivity> 
12.81 
 
>  <oscillator_strength_1> 
0.0311 
 
>  <oscillator_strength_2> 
0.0107 
 
>  <oscillator_strength_3> 
0.0 
 
>  <oscillator_strength_4> 
0.023 
 
>  <open_babel_can_smiles> 
COC 
 
>  <mulliken_charges> 
9 
1   -0.191892 
2   -0.191964 
3   -0.442994 
4   0.158073 
5   0.127667 
6   0.127668 
7   0.15808 
8   0.127681 
9   0.127683 
 
>  <lowdin_charges> 
9 
1   -0.279446 
2   -0.279241 
3   -0.269857 
4   0.153634 
5   0.130623 
6   0.130604 
7   0.152597 
8   0.130531 
9   0.130555 
 
$$$$ 
 
