PCCDB-ID:  6946 
public computational chemistry database (PCCDB) project, http://pccdb.org 
 
 16 16  0  0  0  0  0  0  0  0999 V2000 
   -1.3618   -0.0691    0.0540 C   0  0  0  0  0  0  0  0  0  0  0  0 
   -0.5926   -1.2463    0.0767 C   0  0  0  0  0  0  0  0  0  0  0  0 
   -0.7597    1.1714   -0.0197 C   0  0  0  0  0  0  0  0  0  0  0  0 
    0.7834   -1.1447    0.0206 C   0  0  0  0  0  0  0  0  0  0  0  0 
    0.6509    1.3151   -0.0761 C   0  0  0  0  0  0  0  0  0  0  0  0 
    1.4107    0.1107   -0.0578 C   0  0  0  0  0  0  0  0  0  0  0  0 
    1.1950    2.5586   -0.1210 N   0  0  0  0  0  0  0  0  0  0  0  0 
    2.8578    0.1184   -0.1281 N   0  0  0  0  0  0  0  0  0  0  0  0 
    3.4561   -0.9581   -0.0951 O   0  0  0  0  0  0  0  0  0  0  0  0 
    3.4515    1.2102   -0.2227 O   0  0  0  0  0  0  0  0  0  0  0  0 
   -2.4461   -0.1292    0.0959 H   0  0  0  0  0  0  0  0  0  0  0  0 
   -1.0693   -2.2189    0.1364 H   0  0  0  0  0  0  0  0  0  0  0  0 
   -1.3653    2.0742   -0.0319 H   0  0  0  0  0  0  0  0  0  0  0  0 
    1.4176   -2.0221    0.0314 H   0  0  0  0  0  0  0  0  0  0  0  0 
    0.5930    3.3569   -0.2495 H   0  0  0  0  0  0  0  0  0  0  0  0 
    2.1933    2.6437   -0.2520 H   0  0  0  0  0  0  0  0  0  0  0  0 
  1  2  1  0  0  0  0 
  1 11  1  0  0  0  0 
  2 12  1  0  0  0  0 
  3  1  2  0  0  0  0 
  4 14  1  0  0  0  0 
  4  2  2  0  0  0  0 
  5  6  2  0  0  0  0 
  5  3  1  0  0  0  0 
  6  4  1  0  0  0  0 
  7  5  1  0  0  0  0 
  8  9  2  0  0  0  0 
  8  6  1  0  0  0  0 
 10  8  2  0  0  0  0 
 13  3  1  0  0  0  0 
 15  7  1  0  0  0  0 
 16  7  1  0  0  0  0 
M  END 
>  <HBA> 
1 
 
>  <HBD> 
1 
 
>  <TPSA> 
71.84 
 
>  <cid> 
6946 
 
>  <dipole> 
4.74 
 
>  <excitation_energy_1> 
3.307 
 
>  <excitation_energy_2> 
3.811 
 
>  <excitation_energy_3> 
4.402 
 
>  <excitation_energy_4> 
4.635 
 
>  <homo_energy> 
-6.057 
 
>  <homo_lumo_gap> 
3.886 
 
>  <logP> 
2.281 
 
>  <lumo_energy> 
-2.171 
 
>  <melting_point> 
92.27 
 
>  <molecular_refractivity> 
39.67 
 
>  <oscillator_strength_1> 
0.0916 
 
>  <oscillator_strength_2> 
0.0002 
 
>  <oscillator_strength_3> 
0.0005 
 
>  <oscillator_strength_4> 
0.1507 
 
>  <open_babel_can_smiles> 
O=N(=O)c1ccccc1N 
 
>  <mulliken_charges> 
16 
1   -0.115507 
2   -0.150727 
3   -0.191348 
4   -0.160567 
5   0.354485 
6   0.252381 
7   -0.817622 
8   0.3653 
9   -0.403505 
10   -0.448079 
11   0.142714 
12   0.140103 
13   0.13114 
14   0.182627 
15   0.336403 
16   0.382201 
 
>  <lowdin_charges> 
16 
1   -0.118342 
2   -0.185528 
3   -0.199146 
4   -0.129288 
5   0.088957 
6   -0.045885 
7   -0.449649 
8   0.313346 
9   -0.255439 
10   -0.289696 
11   0.163168 
12   0.164823 
13   0.160123 
14   0.188386 
15   0.288392 
16   0.305778 
 
$$$$ 
 
