PCCDB-ID:  72688 
public computational chemistry database (PCCDB) project, http://pccdb.org 
 
 26 27  0  0  0  0  0  0  0  0999 V2000 
   -1.3592   -0.0340   -0.2914 C   0  0  0  0  0  0  0  0  0  0  0  0 
   -0.7602    1.1972   -0.5563 C   0  0  0  0  0  0  0  0  0  0  0  0 
   -0.5537   -1.1257    0.0364 C   0  0  0  0  0  0  0  0  0  0  0  0 
    0.6247    1.3520   -0.4982 C   0  0  0  0  0  0  0  0  0  0  0  0 
    0.8312   -0.9934    0.1015 C   0  0  0  0  0  0  0  0  0  0  0  0 
    5.0688    1.0373   -0.0667 C   0  0  0  0  0  0  0  0  0  0  0  0 
    1.4248    0.2484   -0.1664 C   0  0  0  0  0  0  0  0  0  0  0  0 
    4.8497   -0.4138    0.2027 C   0  0  0  0  0  0  0  0  0  0  0  0 
    3.6378    1.5242   -0.2663 C   0  0  0  0  0  0  0  0  0  0  0  0 
    5.9425   -1.3921    0.4623 C   0  0  0  0  0  0  0  0  0  0  0  0 
    6.4573   -3.7192    0.8968 N   0  0  0  0  0  0  0  0  0  0  0  0 
    5.5418   -2.6667    0.7202 N   0  0  0  0  0  0  0  0  0  0  0  0 
    3.6029   -0.7484    0.1771 N   0  0  0  0  0  0  0  0  0  0  0  0 
    2.8412    0.3730   -0.0985 N   0  0  0  0  0  0  0  0  0  0  0  0 
    3.2511    2.6472   -0.5153 O   0  0  0  0  0  0  0  0  0  0  0  0 
    7.1197   -1.0414    0.4388 O   0  0  0  0  0  0  0  0  0  0  0  0 
   -2.4389   -0.1422   -0.3386 H   0  0  0  0  0  0  0  0  0  0  0  0 
   -1.3728    2.0572   -0.8130 H   0  0  0  0  0  0  0  0  0  0  0  0 
   -1.0025   -2.0928    0.2465 H   0  0  0  0  0  0  0  0  0  0  0  0 
    1.0826    2.3091   -0.7033 H   0  0  0  0  0  0  0  0  0  0  0  0 
    1.4534   -1.8418    0.3557 H   0  0  0  0  0  0  0  0  0  0  0  0 
    5.6808    1.2227   -0.9564 H   0  0  0  0  0  0  0  0  0  0  0  0 
    5.5528    1.5632    0.7639 H   0  0  0  0  0  0  0  0  0  0  0  0 
    6.9746   -3.5344    1.7578 H   0  0  0  0  0  0  0  0  0  0  0  0 
    7.1481   -3.6491    0.1475 H   0  0  0  0  0  0  0  0  0  0  0  0 
    4.5686   -2.9280    0.6442 H   0  0  0  0  0  0  0  0  0  0  0  0 
  1  3  2  0  0  0  0 
  2  4  2  0  0  0  0 
  2  1  1  0  0  0  0 
  3  5  1  0  0  0  0 
  3 19  1  0  0  0  0 
  4  7  1  0  0  0  0 
  5 21  1  0  0  0  0 
  6  8  1  0  0  0  0 
  6 23  1  0  0  0  0 
  7 14  1  0  0  0  0 
  7  5  2  0  0  0  0 
  8 10  1  0  0  0  0 
  9 14  1  0  0  0  0 
  9  6  1  0  0  0  0 
 10 12  1  0  0  0  0 
 11 24  1  0  0  0  0 
 12 11  1  0  0  0  0 
 13  8  2  0  0  0  0 
 14 13  1  0  0  0  0 
 15  9  2  0  0  0  0 
 16 10  2  0  0  0  0 
 17  1  1  0  0  0  0 
 18  2  1  0  0  0  0 
 20  4  1  0  0  0  0 
 22  6  1  0  0  0  0 
 25 11  1  0  0  0  0 
 26 12  1  0  0  0  0 
M  END 
>  <HBA> 
6 
 
>  <HBD> 
2 
 
>  <TPSA> 
87.79 
 
>  <cid> 
72688 
 
>  <dipole> 
1.95 
 
>  <excitation_energy_1> 
3.534 
 
>  <excitation_energy_2> 
4.131 
 
>  <excitation_energy_3> 
4.284 
 
>  <excitation_energy_4> 
4.423 
 
>  <homo_energy> 
-6.131 
 
>  <homo_lumo_gap> 
4.161 
 
>  <logP> 
0.361 
 
>  <lumo_energy> 
-1.97 
 
>  <melting_point> 
175.98 
 
>  <molecular_refractivity> 
64.0 
 
>  <oscillator_strength_1> 
0.1388 
 
>  <oscillator_strength_2> 
0.0007 
 
>  <oscillator_strength_3> 
0.0057 
 
>  <oscillator_strength_4> 
0.0002 
 
>  <open_babel_can_smiles> 
NNC(=O)C1=NN(C(=O)C1)c1ccccc1 
 
>  <mulliken_charges> 
26 
1   -0.119993 
2   -0.145017 
3   -0.140389 
4   -0.172386 
5   -0.15756 
6   -0.463631 
7   0.322813 
8   0.297973 
9   0.620525 
10   0.584627 
11   -0.552152 
12   -0.51446 
13   -0.326325 
14   -0.440377 
15   -0.482862 
16   -0.523816 
17   0.131697 
18   0.137146 
19   0.134155 
20   0.189027 
21   0.1517 
22   0.225541 
23   0.224741 
24   0.32968 
25   0.329109 
26   0.360233 
 
>  <lowdin_charges> 
26 
1   -0.160571 
2   -0.147917 
3   -0.148288 
4   -0.178603 
5   -0.178218 
6   -0.306161 
7   0.050071 
8   0.00308 
9   0.164022 
10   0.13421 
11   -0.449613 
12   -0.216152 
13   -0.084643 
14   -0.007689 
15   -0.250622 
16   -0.307318 
17   0.157639 
18   0.162521 
19   0.160187 
20   0.187941 
21   0.171359 
22   0.205374 
23   0.205492 
24   0.269323 
25   0.269556 
26   0.295021 
 
$$$$ 
 
