PCCDB-ID:  16976 
public computational chemistry database (PCCDB) project, http://pccdb.org 
 
 15 15  0  0  0  0  0  0  0  0999 V2000 
   -0.7441    1.2280   -0.0333 C   0  0  0  0  0  0  0  0  0  0  0  0 
   -1.4382    0.0169   -0.0556 C   0  0  0  0  0  0  0  0  0  0  0  0 
    0.6363    1.2464   -0.0237 C   0  0  0  0  0  0  0  0  0  0  0  0 
    0.6962   -1.1149   -0.0298 C   0  0  0  0  0  0  0  0  0  0  0  0 
   -0.6907   -1.1679   -0.0597 C   0  0  0  0  0  0  0  0  0  0  0  0 
   -1.3084   -2.5400   -0.0613 C   0  0  0  0  0  0  0  0  0  0  0  0 
    1.3697    0.0794   -0.0208 N   0  3  0  0  0  0  0  0  0  0  0  0 
   -0.7410   -3.5193    0.3546 O   0  0  0  0  0  0  0  0  0  0  0  0 
   -2.5675   -2.6309   -0.5612 O   0  0  0  0  0  0  0  0  0  0  0  0 
    2.6392    0.1140   -0.0075 O   0  5  0  0  0  0  0  0  0  0  0  0 
   -1.2739    2.1750   -0.0163 H   0  0  0  0  0  0  0  0  0  0  0  0 
   -2.5230    0.0085   -0.0202 H   0  0  0  0  0  0  0  0  0  0  0  0 
    1.2463    2.1395   -0.0093 H   0  0  0  0  0  0  0  0  0  0  0  0 
    1.3264   -1.9930   -0.0114 H   0  0  0  0  0  0  0  0  0  0  0  0 
   -2.8187   -1.8015   -0.9998 H   0  0  0  0  0  0  0  0  0  0  0  0 
  1  3  2  0  0  0  0 
  1 11  1  0  0  0  0 
  2  1  1  0  0  0  0 
  2 12  1  0  0  0  0 
  3  7  1  0  0  0  0 
  3 13  1  0  0  0  0 
  4  7  2  0  0  0  0 
  4 14  1  0  0  0  0 
  5  2  2  0  0  0  0 
  5  4  1  0  0  0  0 
  6  5  1  0  0  0  0 
  6  8  2  0  0  0  0 
  7 10  1  0  0  0  0 
  9  6  1  0  0  0  0 
 15  9  1  0  0  0  0 
M  CHG  2   7   1  10  -1 
M  END 
>  <HBA> 
3 
 
>  <HBD> 
1 
 
>  <TPSA> 
62.76 
 
>  <cid> 
16976 
 
>  <dipole> 
5.85 
 
>  <excitation_energy_1> 
3.679 
 
>  <excitation_energy_2> 
3.878 
 
>  <excitation_energy_3> 
4.37 
 
>  <excitation_energy_4> 
4.629 
 
>  <homo_energy> 
-6.354 
 
>  <homo_lumo_gap> 
4.291 
 
>  <logP> 
0.813 
 
>  <lumo_energy> 
-2.063 
 
>  <melting_point> 
110.15 
 
>  <molecular_refractivity> 
34.56 
 
>  <oscillator_strength_1> 
0.0293 
 
>  <oscillator_strength_2> 
0.0001 
 
>  <oscillator_strength_3> 
0.0005 
 
>  <oscillator_strength_4> 
0.0559 
 
>  <open_babel_can_smiles> 
[O-][n+]1cccc(c1)C(=O)O 
 
>  <mulliken_charges> 
15 
1   -0.173033 
2   -0.167368 
3   0.080583 
4   0.062964 
5   -0.009369 
6   0.567354 
7   -0.009254 
8   -0.430082 
9   -0.56768 
10   -0.495309 
11   0.167039 
12   0.151958 
13   0.192206 
14   0.215443 
15   0.414547 
 
>  <lowdin_charges> 
15 
1   -0.142943 
2   -0.181079 
3   -0.113517 
4   -0.10134 
5   -0.051015 
6   0.201721 
7   0.222104 
8   -0.223841 
9   -0.347739 
10   -0.36321 
11   0.17972 
12   0.165305 
13   0.190966 
14   0.204515 
15   0.360351 
 
$$$$ 
 
