PCCDB-ID:  16904 
public computational chemistry database (PCCDB) project, http://pccdb.org 
 
 23 23  0  0  0  0  0  0  0  0999 V2000 
    4.2094   -0.2100   -1.2753 C   0  0  0  0  0  0  0  0  0  0  0  0 
    3.4013    0.7916   -0.4562 C   0  0  0  0  0  0  0  0  0  0  0  0 
    2.5455    3.8571    3.7263 C   0  0  0  0  0  0  0  0  0  0  0  0 
    3.0068    5.5838    2.1329 C   0  0  0  0  0  0  0  0  0  0  0  0 
    1.9787    4.8392    4.5401 C   0  0  0  0  0  0  0  0  0  0  0  0 
    2.4115    6.4818    3.0162 C   0  0  0  0  0  0  0  0  0  0  0  0 
    3.0688    4.2316    2.4835 C   0  0  0  0  0  0  0  0  0  0  0  0 
    3.7167    3.2888    1.5043 C   0  0  0  0  0  0  0  0  0  0  0  0 
    1.8990    6.1314    4.2039 N   0  0  0  0  0  0  0  0  0  0  0  0 
    4.0440    0.9781    0.8624 N   0  0  0  0  0  0  0  0  0  0  0  0 
    3.3919    1.9680    1.6238 N   0  0  0  0  0  0  0  0  0  0  0  0 
    4.4903    3.6886    0.6369 O   0  0  0  0  0  0  0  0  0  0  0  0 
    3.7204   -0.3987   -2.2366 H   0  0  0  0  0  0  0  0  0  0  0  0 
    4.3084   -1.1611   -0.7420 H   0  0  0  0  0  0  0  0  0  0  0  0 
    5.2164    0.1709   -1.4858 H   0  0  0  0  0  0  0  0  0  0  0  0 
    2.3913    0.4061   -0.2753 H   0  0  0  0  0  0  0  0  0  0  0  0 
    3.3052    1.7441   -0.9959 H   0  0  0  0  0  0  0  0  0  0  0  0 
    2.5931    2.8342    4.0890 H   0  0  0  0  0  0  0  0  0  0  0  0 
    3.4250    5.9089    1.1867 H   0  0  0  0  0  0  0  0  0  0  0  0 
    1.5729    4.5715    5.5143 H   0  0  0  0  0  0  0  0  0  0  0  0 
    2.3435    7.5377    2.7605 H   0  0  0  0  0  0  0  0  0  0  0  0 
    4.9874    1.3369    0.7032 H   0  0  0  0  0  0  0  0  0  0  0  0 
    2.8461    1.6193    2.3976 H   0  0  0  0  0  0  0  0  0  0  0  0 
  1 14  1  0  0  0  0 
  1  2  1  0  0  0  0 
  2 16  1  0  0  0  0 
  2 10  1  0  0  0  0 
  3 18  1  0  0  0  0 
  3  5  2  0  0  0  0 
  4  7  2  0  0  0  0 
  4  6  1  0  0  0  0 
  5 20  1  0  0  0  0 
  6  9  2  0  0  0  0 
  7  3  1  0  0  0  0 
  8 11  1  0  0  0  0 
  8  7  1  0  0  0  0 
  9  5  1  0  0  0  0 
 10 11  1  0  0  0  0 
 11 23  1  0  0  0  0 
 12  8  2  0  0  0  0 
 13  1  1  0  0  0  0 
 15  1  1  0  0  0  0 
 17  2  1  0  0  0  0 
 19  4  1  0  0  0  0 
 21  6  1  0  0  0  0 
 22 10  1  0  0  0  0 
M  END 
>  <HBA> 
4 
 
>  <HBD> 
2 
 
>  <TPSA> 
54.02 
 
>  <cid> 
16904 
 
>  <dipole> 
2.47 
 
>  <excitation_energy_1> 
4.212 
 
>  <excitation_energy_2> 
4.479 
 
>  <excitation_energy_3> 
4.594 
 
>  <excitation_energy_4> 
5.027 
 
>  <homo_energy> 
-6.55 
 
>  <homo_lumo_gap> 
5.001 
 
>  <logP> 
1.118 
 
>  <lumo_energy> 
-1.548 
 
>  <melting_point> 
107.41 
 
>  <molecular_refractivity> 
44.84 
 
>  <oscillator_strength_1> 
0.0209 
 
>  <oscillator_strength_2> 
0.0359 
 
>  <oscillator_strength_3> 
0.0174 
 
>  <oscillator_strength_4> 
0.0378 
 
>  <open_babel_can_smiles> 
CCNNC(=O)c1ccncc1 
 
>  <mulliken_charges> 
23 
1   -0.461771 
2   -0.108414 
3   -0.192725 
4   -0.164118 
5   0.038155 
6   0.035974 
7   0.10326 
8   0.56147 
9   -0.399773 
10   -0.421195 
11   -0.495003 
12   -0.525063 
13   0.153937 
14   0.160578 
15   0.151529 
16   0.143325 
17   0.15343 
18   0.132863 
19   0.17158 
20   0.147451 
21   0.149901 
22   0.323708 
23   0.340902 
 
>  <lowdin_charges> 
23 
1   -0.4484 
2   -0.203063 
3   -0.179994 
4   -0.150608 
5   -0.086407 
6   -0.084324 
7   -0.013385 
8   0.150706 
9   -0.138774 
10   -0.282661 
11   -0.214792 
12   -0.311396 
13   0.158789 
14   0.156725 
15   0.151225 
16   0.142221 
17   0.141058 
18   0.158902 
19   0.183347 
20   0.159451 
21   0.159776 
22   0.264471 
23   0.287134 
 
$$$$ 
 
