PCCDB-ID:  32982 
public computational chemistry database (PCCDB) project, http://pccdb.org 
 
 26 26  0  0  0  0  0  0  0  0999 V2000 
    2.4176   -0.6550   -1.1432 C   0  0  0  0  0  0  0  0  0  0  0  0 
    0.8601    0.4111    0.3311 C   0  0  0  0  0  0  0  0  0  0  0  0 
    4.3896   -0.6082    1.2021 C   0  0  0  0  0  0  0  0  0  0  0  0 
    4.8327   -4.7608    3.1927 C   0  0  0  0  0  0  0  0  0  0  0  0 
    5.0435   -1.0960    2.5160 C   0  0  0  0  0  0  0  0  0  0  0  0 
    5.6078   -3.6529    2.7123 C   0  0  0  0  0  0  0  0  0  0  0  0 
    2.8571   -0.5774    1.2478 C   0  0  0  0  0  0  0  0  0  0  0  0 
    3.6396   -4.2412    3.5856 C   0  0  0  0  0  0  0  0  0  0  0  0 
    4.8312   -2.5380    2.8443 C   0  0  0  0  0  0  0  0  0  0  0  0 
    2.2640    0.1026    0.0927 N   0  0  0  0  0  0  0  0  0  0  0  0 
    3.6186   -2.8906    3.3825 O   0  0  0  0  0  0  0  0  0  0  0  0 
    1.9752   -0.0924   -1.9725 H   0  0  0  0  0  0  0  0  0  0  0  0 
    1.9291   -1.6501   -1.1061 H   0  0  0  0  0  0  0  0  0  0  0  0 
    3.4762   -0.8059   -1.3728 H   0  0  0  0  0  0  0  0  0  0  0  0 
    0.4570    0.9723   -0.5194 H   0  0  0  0  0  0  0  0  0  0  0  0 
    0.7641    1.0356    1.2261 H   0  0  0  0  0  0  0  0  0  0  0  0 
    0.2290   -0.4893    0.4736 H   0  0  0  0  0  0  0  0  0  0  0  0 
    4.7431   -1.2448    0.3823 H   0  0  0  0  0  0  0  0  0  0  0  0 
    4.7420    0.4096    0.9930 H   0  0  0  0  0  0  0  0  0  0  0  0 
    5.1315   -5.7987    3.2439 H   0  0  0  0  0  0  0  0  0  0  0  0 
    4.6857   -0.4782    3.3513 H   0  0  0  0  0  0  0  0  0  0  0  0 
    6.1250   -0.9313    2.4478 H   0  0  0  0  0  0  0  0  0  0  0  0 
    6.6153   -3.6825    2.3200 H   0  0  0  0  0  0  0  0  0  0  0  0 
    2.5529   -0.0206    2.1437 H   0  0  0  0  0  0  0  0  0  0  0  0 
    2.4571   -1.6025    1.3670 H   0  0  0  0  0  0  0  0  0  0  0  0 
    2.7435   -4.6639    4.0138 H   0  0  0  0  0  0  0  0  0  0  0  0 
  1 13  1  0  0  0  0 
  1 10  1  0  0  0  0 
  2 17  1  0  0  0  0 
  2 16  1  0  0  0  0 
  3  7  1  0  0  0  0 
  3  5  1  0  0  0  0 
  4 20  1  0  0  0  0 
  4  8  2  0  0  0  0 
  5  9  1  0  0  0  0 
  5 21  1  0  0  0  0 
  6  9  2  0  0  0  0 
  6  4  1  0  0  0  0 
  7 25  1  0  0  0  0 
  7 24  1  0  0  0  0 
  8 26  1  0  0  0  0 
  9 11  1  0  0  0  0 
 10  2  1  0  0  0  0 
 10  7  1  0  0  0  0 
 11  8  1  0  0  0  0 
 12  1  1  0  0  0  0 
 14  1  1  0  0  0  0 
 15  2  1  0  0  0  0 
 18  3  1  0  0  0  0 
 19  3  1  0  0  0  0 
 22  5  1  0  0  0  0 
 23  6  1  0  0  0  0 
M  END 
>  <HBA> 
2 
 
>  <HBD> 
0 
 
>  <TPSA> 
16.38 
 
>  <cid> 
32982 
 
>  <dipole> 
0.61 
 
>  <excitation_energy_1> 
5.144 
 
>  <excitation_energy_2> 
5.408 
 
>  <excitation_energy_3> 
5.429 
 
>  <excitation_energy_4> 
5.599 
 
>  <homo_energy> 
-5.578 
 
>  <homo_lumo_gap> 
6.133 
 
>  <logP> 
1.774 
 
>  <lumo_energy> 
0.555 
 
>  <melting_point> 
6.36 
 
>  <molecular_refractivity> 
45.8 
 
>  <oscillator_strength_1> 
0.0136 
 
>  <oscillator_strength_2> 
0.0201 
 
>  <oscillator_strength_3> 
0.0096 
 
>  <oscillator_strength_4> 
0.0226 
 
>  <open_babel_can_smiles> 
CN(CCCc1ccco1)C 
 
>  <mulliken_charges> 
26 
1   -0.299509 
2   -0.292144 
3   -0.261266 
4   -0.17991 
5   -0.357909 
6   -0.21001 
7   -0.112028 
8   0.077536 
9   0.347967 
10   -0.370479 
11   -0.436462 
12   0.14606 
13   0.116022 
14   0.15172 
15   0.145222 
16   0.147017 
17   0.11596 
18   0.139952 
19   0.145883 
20   0.137435 
21   0.155031 
22   0.153065 
23   0.132861 
24   0.131377 
25   0.126553 
26   0.150056 
 
>  <lowdin_charges> 
26 
1   -0.357182 
2   -0.357435 
3   -0.278138 
4   -0.204051 
5   -0.274722 
6   -0.222087 
7   -0.203248 
8   -0.087236 
9   0.065066 
10   -0.185473 
11   -0.108885 
12   0.150243 
13   0.118562 
14   0.148626 
15   0.148919 
16   0.14864 
17   0.119661 
18   0.145164 
19   0.149274 
20   0.166174 
21   0.158068 
22   0.159801 
23   0.164302 
24   0.142912 
25   0.123841 
26   0.169202 
 
$$$$ 
 
