PCCDB-ID:  10630 
public computational chemistry database (PCCDB) project, http://pccdb.org 
 
 22 22  0  0  0  0  0  0  0  0999 V2000 
    1.6375   -0.5107    0.5094 C   0  0  0  0  0  0  0  0  0  0  0  0 
    4.0683    3.6112    2.4322 C   0  0  0  0  0  0  0  0  0  0  0  0 
    5.6502    3.6928    0.4369 C   0  0  0  0  0  0  0  0  0  0  0  0 
    2.8221   -0.0197   -0.3228 C   0  0  0  0  0  0  0  0  0  0  0  0 
    4.2991    1.6135    0.9075 C   0  0  0  0  0  0  0  0  0  0  0  0 
    2.6174    2.4879   -0.3947 C   0  0  0  0  0  0  0  0  0  0  0  0 
    4.3432    3.1423    1.0046 C   0  0  0  0  0  0  0  0  0  0  0  0 
    3.2541    1.3254    0.0554 N   0  0  0  0  0  0  0  0  0  0  0  0 
    5.0345    0.8206    1.4599 O   0  0  0  0  0  0  0  0  0  0  0  0 
    1.6747    2.5425   -1.1414 O   0  0  0  0  0  0  0  0  0  0  0  0 
    3.2405    3.5640    0.1493 O   0  0  0  0  0  0  0  0  0  0  0  0 
    1.3513   -1.5188    0.1904 H   0  0  0  0  0  0  0  0  0  0  0  0 
    0.7741    0.1484    0.3776 H   0  0  0  0  0  0  0  0  0  0  0  0 
    1.8962   -0.5492    1.5726 H   0  0  0  0  0  0  0  0  0  0  0  0 
    4.8452    3.2274    3.0999 H   0  0  0  0  0  0  0  0  0  0  0  0 
    3.0970    3.2471    2.7810 H   0  0  0  0  0  0  0  0  0  0  0  0 
    4.0661    4.7046    2.4748 H   0  0  0  0  0  0  0  0  0  0  0  0 
    6.4934    3.3052    1.0162 H   0  0  0  0  0  0  0  0  0  0  0  0 
    5.6511    4.7858    0.4882 H   0  0  0  0  0  0  0  0  0  0  0  0 
    5.7768    3.3927   -0.6079 H   0  0  0  0  0  0  0  0  0  0  0  0 
    2.5639    0.0107   -1.3847 H   0  0  0  0  0  0  0  0  0  0  0  0 
    3.6933   -0.6663   -0.1896 H   0  0  0  0  0  0  0  0  0  0  0  0 
  1 14  1  0  0  0  0 
  2 17  1  0  0  0  0 
  2 16  1  0  0  0  0 
  2 15  1  0  0  0  0 
  3 19  1  0  0  0  0 
  3  7  1  0  0  0  0 
  3 18  1  0  0  0  0 
  4 22  1  0  0  0  0 
  4  8  1  0  0  0  0 
  4  1  1  0  0  0  0 
  5  7  1  0  0  0  0 
  5  9  2  0  0  0  0 
  6  8  1  0  0  0  0 
  6 11  1  0  0  0  0 
  7  2  1  0  0  0  0 
  8  5  1  0  0  0  0 
 10  6  2  0  0  0  0 
 11  7  1  0  0  0  0 
 12  1  1  0  0  0  0 
 13  1  1  0  0  0  0 
 20  3  1  0  0  0  0 
 21  4  1  0  0  0  0 
M  END 
>  <HBA> 
4 
 
>  <HBD> 
0 
 
>  <TPSA> 
46.61 
 
>  <cid> 
10630 
 
>  <dipole> 
1.62 
 
>  <excitation_energy_1> 
5.274 
 
>  <excitation_energy_2> 
6.296 
 
>  <excitation_energy_3> 
6.666 
 
>  <excitation_energy_4> 
6.837 
 
>  <homo_energy> 
-7.372 
 
>  <homo_lumo_gap> 
6.906 
 
>  <logP> 
0.702 
 
>  <lumo_energy> 
-0.465 
 
>  <melting_point> 
53.18 
 
>  <molecular_refractivity> 
42.37 
 
>  <oscillator_strength_1> 
0.0019 
 
>  <oscillator_strength_2> 
0.0029 
 
>  <oscillator_strength_3> 
0.1695 
 
>  <oscillator_strength_4> 
0.0022 
 
>  <open_babel_can_smiles> 
CCN1C(=O)OC(C1=O)(C)C 
 
>  <mulliken_charges> 
22 
1   -0.453167 
2   -0.446592 
3   -0.446056 
4   -0.149491 
5   0.592123 
6   0.783376 
7   0.201081 
8   -0.490817 
9   -0.498276 
10   -0.480393 
11   -0.4939 
12   0.158098 
13   0.176051 
14   0.162893 
15   0.177223 
16   0.16398 
17   0.169484 
18   0.177277 
19   0.169268 
20   0.164692 
21   0.180638 
22   0.182508 
 
>  <lowdin_charges> 
22 
1   -0.447719 
2   -0.438198 
3   -0.436984 
4   -0.186299 
5   0.153955 
6   0.208255 
7   0.10751 
8   -0.082773 
9   -0.265326 
10   -0.25209 
11   -0.18098 
12   0.160442 
13   0.165083 
14   0.15695 
15   0.173257 
16   0.163131 
17   0.164109 
18   0.173106 
19   0.164013 
20   0.162562 
21   0.166932 
22   0.171063 
 
$$$$ 
 
