PCCDB-ID:  7559 
public computational chemistry database (PCCDB) project, http://pccdb.org 
 
 21 21  0  0  0  0  0  0  0  0999 V2000 
    2.8251   -3.4327    5.0259 C   0  0  0  0  0  0  0  0  0  0  0  0 
   -2.1267   -0.9706    1.3423 C   0  0  0  0  0  0  0  0  0  0  0  0 
   -1.4151   -0.0827    2.1529 C   0  0  0  0  0  0  0  0  0  0  0  0 
   -1.4596   -2.0328    0.7319 C   0  0  0  0  0  0  0  0  0  0  0  0 
   -0.0455   -0.2549    2.3495 C   0  0  0  0  0  0  0  0  0  0  0  0 
   -0.0883   -2.2057    0.9310 C   0  0  0  0  0  0  0  0  0  0  0  0 
    2.1291   -1.4982    1.9453 C   0  0  0  0  0  0  0  0  0  0  0  0 
    0.6326   -1.3173    1.7359 C   0  0  0  0  0  0  0  0  0  0  0  0 
    2.4535   -1.7631    3.4068 C   0  0  0  0  0  0  0  0  0  0  0  0 
    2.5554   -0.9074    4.2597 O   0  0  0  0  0  0  0  0  0  0  0  0 
    2.5802   -3.0847    3.6527 O   0  0  0  0  0  0  0  0  0  0  0  0 
    2.8964   -4.5206    5.0435 H   0  0  0  0  0  0  0  0  0  0  0  0 
    2.0032   -3.0901    5.6600 H   0  0  0  0  0  0  0  0  0  0  0  0 
    3.7564   -2.9800    5.3766 H   0  0  0  0  0  0  0  0  0  0  0  0 
   -3.1935   -0.8333    1.1868 H   0  0  0  0  0  0  0  0  0  0  0  0 
   -1.9279    0.7458    2.6345 H   0  0  0  0  0  0  0  0  0  0  0  0 
   -2.0049   -2.7307    0.1019 H   0  0  0  0  0  0  0  0  0  0  0  0 
    0.5059    0.4292    2.9887 H   0  0  0  0  0  0  0  0  0  0  0  0 
    0.4269   -3.0364    0.4544 H   0  0  0  0  0  0  0  0  0  0  0  0 
    2.6643   -0.5857    1.6615 H   0  0  0  0  0  0  0  0  0  0  0  0 
    2.4994   -2.3237    1.3323 H   0  0  0  0  0  0  0  0  0  0  0  0 
  1 12  1  0  0  0  0 
  1 14  1  0  0  0  0 
  1 13  1  0  0  0  0 
  2  3  2  0  0  0  0 
  3  5  1  0  0  0  0 
  3 16  1  0  0  0  0 
  4  6  2  0  0  0  0 
  4  2  1  0  0  0  0 
  5 18  1  0  0  0  0 
  6  8  1  0  0  0  0 
  7  9  1  0  0  0  0 
  8  7  1  0  0  0  0 
  8  5  2  0  0  0  0 
  9 11  1  0  0  0  0 
  9 10  2  0  0  0  0 
 11  1  1  0  0  0  0 
 15  2  1  0  0  0  0 
 17  4  1  0  0  0  0 
 19  6  1  0  0  0  0 
 20  7  1  0  0  0  0 
 21  7  1  0  0  0  0 
M  END 
>  <HBA> 
2 
 
>  <HBD> 
0 
 
>  <TPSA> 
26.3 
 
>  <cid> 
7559 
 
>  <dipole> 
1.61 
 
>  <excitation_energy_1> 
5.257 
 
>  <excitation_energy_2> 
5.451 
 
>  <excitation_energy_3> 
5.867 
 
>  <excitation_energy_4> 
6.067 
 
>  <homo_energy> 
-6.574 
 
>  <homo_lumo_gap> 
6.346 
 
>  <logP> 
1.402 
 
>  <lumo_energy> 
-0.229 
 
>  <melting_point> 
18.26 
 
>  <molecular_refractivity> 
42.31 
 
>  <oscillator_strength_1> 
0.0001 
 
>  <oscillator_strength_2> 
0.059 
 
>  <oscillator_strength_3> 
0.0133 
 
>  <oscillator_strength_4> 
0.0245 
 
>  <open_babel_can_smiles> 
COC(=O)Cc1ccccc1 
 
>  <mulliken_charges> 
21 
1   -0.22026 
2   -0.128542 
3   -0.129609 
4   -0.128492 
5   -0.170792 
6   -0.180489 
7   -0.420202 
8   0.148583 
9   0.618224 
10   -0.473064 
11   -0.444221 
12   0.164549 
13   0.172914 
14   0.171 
15   0.129631 
16   0.132229 
17   0.130052 
18   0.151625 
19   0.126997 
20   0.181758 
21   0.168108 
 
>  <lowdin_charges> 
21 
1   -0.277251 
2   -0.156195 
3   -0.153643 
4   -0.156453 
5   -0.162311 
6   -0.1662 
7   -0.294993 
8   -0.001896 
9   0.202927 
10   -0.269793 
11   -0.191137 
12   0.158617 
13   0.161838 
14   0.15996 
15   0.156067 
16   0.159723 
17   0.159364 
18   0.169517 
19   0.157232 
20   0.176106 
21   0.168522 
 
$$$$ 
 
