PCCDB-ID:  9023 
public computational chemistry database (PCCDB) project, http://pccdb.org 
 
 15 14  0  0  0  0  0  0  0  0999 V2000 
    1.0185   -0.1034   -0.0241 C   0  0  0  0  0  0  0  0  0  0  0  0 
    3.1820   -0.9844   -1.0260 C   0  0  0  0  0  0  0  0  0  0  0  0 
    2.9884    1.4084   -0.3240 C   0  0  0  0  0  0  0  0  0  0  0  0 
    2.5553   -0.0002   -0.0203 C   0  0  0  0  0  0  0  0  0  0  0  0 
    3.6591    2.0763    0.5311 N   0  0  0  0  0  0  0  0  0  0  0  0 
    3.9587    3.3663    0.0441 O   0  0  0  0  0  0  0  0  0  0  0  0 
    0.7013   -1.1275    0.2044 H   0  0  0  0  0  0  0  0  0  0  0  0 
    0.6069    0.1615   -1.0063 H   0  0  0  0  0  0  0  0  0  0  0  0 
    0.5741    0.5666    0.7196 H   0  0  0  0  0  0  0  0  0  0  0  0 
    2.8721   -2.0118   -0.8024 H   0  0  0  0  0  0  0  0  0  0  0  0 
    4.2758   -0.9418   -0.9934 H   0  0  0  0  0  0  0  0  0  0  0  0 
    2.8653   -0.7565   -2.0517 H   0  0  0  0  0  0  0  0  0  0  0  0 
    2.7184    1.8496   -1.2898 H   0  0  0  0  0  0  0  0  0  0  0  0 
    2.9233   -0.2396    0.9848 H   0  0  0  0  0  0  0  0  0  0  0  0 
    4.4587    3.7514    0.7805 H   0  0  0  0  0  0  0  0  0  0  0  0 
  1  4  1  0  0  0  0 
  1  7  1  0  0  0  0 
  1  9  1  0  0  0  0 
  2 11  1  0  0  0  0 
  2 10  1  0  0  0  0 
  2  4  1  0  0  0  0 
  3  4  1  0  0  0  0 
  3  5  2  0  0  0  0 
  4 14  1  0  0  0  0 
  6  5  1  0  0  0  0 
  6 15  1  0  0  0  0 
  8  1  1  0  0  0  0 
 12  2  1  0  0  0  0 
 13  3  1  0  0  0  0 
M  END 
>  <HBA> 
2 
 
>  <HBD> 
1 
 
>  <TPSA> 
32.59 
 
>  <cid> 
9023 
 
>  <dipole> 
0.69 
 
>  <excitation_energy_1> 
6.06 
 
>  <excitation_energy_2> 
6.416 
 
>  <excitation_energy_3> 
6.534 
 
>  <excitation_energy_4> 
6.703 
 
>  <homo_energy> 
-6.735 
 
>  <homo_lumo_gap> 
6.98 
 
>  <logP> 
1.102 
 
>  <lumo_energy> 
0.245 
 
>  <melting_point> 
46.54 
 
>  <molecular_refractivity> 
25.76 
 
>  <oscillator_strength_1> 
0.0012 
 
>  <oscillator_strength_2> 
0.2238 
 
>  <oscillator_strength_3> 
0.0001 
 
>  <oscillator_strength_4> 
0.014 
 
>  <open_babel_can_smiles> 
CC(/C=N/O)C 
 
>  <mulliken_charges> 
15 
1   -0.448025 
2   -0.448167 
3   0.112137 
4   -0.122595 
5   -0.179123 
6   -0.510321 
7   0.147772 
8   0.143576 
9   0.156521 
10   0.147786 
11   0.156596 
12   0.143618 
13   0.136284 
14   0.150581 
15   0.41336 
 
>  <lowdin_charges> 
15 
1   -0.44304 
2   -0.438801 
3   -0.106645 
4   -0.121735 
5   -0.061644 
6   -0.389029 
7   0.151593 
8   0.147852 
9   0.157012 
10   0.151403 
11   0.15383 
12   0.147207 
13   0.144335 
14   0.153549 
15   0.354113 
 
$$$$ 
 
