PCCDB-ID:  32984 
public computational chemistry database (PCCDB) project, http://pccdb.org 
 
 29 29  0  0  1  0  0  0  0  0999 V2000 
    2.5591    1.3334    0.8051 C   0  0  0  0  0  0  0  0  0  0  0  0 
    1.0551    2.0432   -1.7309 C   0  0  0  0  0  0  0  0  0  0  0  0 
    3.4205    2.2187   -2.1168 C   0  0  0  0  0  0  0  0  0  0  0  0 
   -0.2269   -4.7316   -1.5528 C   0  0  0  0  0  0  0  0  0  0  0  0 
    1.0796   -4.1366   -1.5579 C   0  0  0  0  0  0  0  0  0  0  0  0 
    1.7170   -0.7068   -0.4428 C   0  0  0  0  0  0  0  0  0  0  0  0 
    1.8274   -1.6185   -1.6804 C   0  0  0  0  0  0  0  0  0  0  0  0 
   -1.1087   -3.7003   -1.6328 C   0  0  0  0  0  0  0  0  0  0  0  0 
    2.6135    0.5435   -0.5187 C   0  0  1  0  0  0  0  0  0  0  0  0 
    0.9002   -2.7865   -1.6438 C   0  0  0  0  0  0  0  0  0  0  0  0 
    2.3296    1.3366   -1.7307 N   0  0  0  0  0  0  0  0  0  0  0  0 
   -0.4434   -2.5083   -1.6889 O   0  0  0  0  0  0  0  0  0  0  0  0 
    2.9278    0.7172    1.6331 H   0  0  0  0  0  0  0  0  0  0  0  0 
    1.5351    1.6367    1.0516 H   0  0  0  0  0  0  0  0  0  0  0  0 
    3.1775    2.2368    0.7624 H   0  0  0  0  0  0  0  0  0  0  0  0 
    0.8687    2.4411   -2.7351 H   0  0  0  0  0  0  0  0  0  0  0  0 
    1.0107    2.8924   -1.0232 H   0  0  0  0  0  0  0  0  0  0  0  0 
    0.2365    1.3585   -1.4910 H   0  0  0  0  0  0  0  0  0  0  0  0 
    3.2173    2.6328   -3.1115 H   0  0  0  0  0  0  0  0  0  0  0  0 
    4.3558    1.6510   -2.1732 H   0  0  0  0  0  0  0  0  0  0  0  0 
    3.5795    3.0725   -1.4297 H   0  0  0  0  0  0  0  0  0  0  0  0 
   -0.4693   -5.7840   -1.4972 H   0  0  0  0  0  0  0  0  0  0  0  0 
    2.0308   -4.6490   -1.5092 H   0  0  0  0  0  0  0  0  0  0  0  0 
    1.9935   -1.2756    0.4544 H   0  0  0  0  0  0  0  0  0  0  0  0 
    0.6690   -0.4146   -0.3016 H   0  0  0  0  0  0  0  0  0  0  0  0 
    2.8515   -2.0018   -1.7678 H   0  0  0  0  0  0  0  0  0  0  0  0 
    1.6438   -1.0123   -2.5754 H   0  0  0  0  0  0  0  0  0  0  0  0 
   -2.1859   -3.6373   -1.6616 H   0  0  0  0  0  0  0  0  0  0  0  0 
    3.6463    0.1897   -0.6492 H   0  0  0  0  0  0  0  0  0  0  0  0 
  1 14  1  0  0  0  0 
  1 13  1  0  0  0  0 
  2 11  1  0  0  0  0 
  2 18  1  0  0  0  0 
  2 17  1  0  0  0  0 
  3 11  1  0  0  0  0 
  3 21  1  0  0  0  0 
  4 22  1  0  0  0  0 
  5  4  1  0  0  0  0 
  5 23  1  0  0  0  0 
  6 25  1  0  0  0  0 
  6 24  1  0  0  0  0 
  7 10  1  0  0  0  0 
  7  6  1  0  0  0  0 
  8  4  2  0  0  0  0 
  9 29  1  6  0  0  0 
  9  6  1  0  0  0  0 
  9  1  1  0  0  0  0 
 10  5  2  0  0  0  0 
 11  9  1  0  0  0  0 
 12 10  1  0  0  0  0 
 12  8  1  0  0  0  0 
 15  1  1  0  0  0  0 
 16  2  1  0  0  0  0 
 19  3  1  0  0  0  0 
 20  3  1  0  0  0  0 
 26  7  1  0  0  0  0 
 27  7  1  0  0  0  0 
 28  8  1  0  0  0  0 
M  END 
>  <HBA> 
2 
 
>  <HBD> 
0 
 
>  <TPSA> 
16.38 
 
>  <cid> 
32984 
 
>  <dipole> 
0.92 
 
>  <excitation_energy_1> 
4.942 
 
>  <excitation_energy_2> 
5.299 
 
>  <excitation_energy_3> 
5.39 
 
>  <excitation_energy_4> 
5.425 
 
>  <homo_energy> 
-5.429 
 
>  <homo_lumo_gap> 
6.161 
 
>  <logP> 
2.162 
 
>  <lumo_energy> 
0.732 
 
>  <melting_point> 
5.7 
 
>  <molecular_refractivity> 
50.6 
 
>  <oscillator_strength_1> 
0.0026 
 
>  <oscillator_strength_2> 
0.0308 
 
>  <oscillator_strength_3> 
0.0621 
 
>  <oscillator_strength_4> 
0.0253 
 
>  <open_babel_can_smiles> 
CN([C@H](CCc1ccco1)C)C 
 
>  <mulliken_charges> 
29 
1   -0.459934 
2   -0.307322 
3   -0.294404 
4   -0.181976 
5   -0.213275 
6   -0.271706 
7   -0.341048 
8   0.078254 
9   0.050301 
10   0.347391 
11   -0.369252 
12   -0.443213 
13   0.143337 
14   0.146348 
15   0.146378 
16   0.148058 
17   0.122058 
18   0.156106 
19   0.147065 
20   0.145692 
21   0.118742 
22   0.134883 
23   0.129722 
24   0.135542 
25   0.147582 
26   0.141495 
27   0.175526 
28   0.146846 
29   0.120804 
 
>  <lowdin_charges> 
29 
1   -0.462007 
2   -0.360966 
3   -0.355855 
4   -0.205439 
5   -0.22759 
6   -0.279881 
7   -0.276635 
8   -0.086659 
9   -0.058676 
10   0.070311 
11   -0.185207 
12   -0.111641 
13   0.153481 
14   0.149011 
15   0.150783 
16   0.149614 
17   0.122773 
18   0.153689 
19   0.148233 
20   0.148196 
21   0.11988 
22   0.164635 
23   0.164006 
24   0.147493 
25   0.145862 
26   0.153734 
27   0.167733 
28   0.165014 
29   0.136106 
 
$$$$ 
 
