PCCDB-ID:  45186 
public computational chemistry database (PCCDB) project, http://pccdb.org 
 
 27 28  0  0  1  0  0  0  0  0999 V2000 
    1.1880   -0.0453   -0.0078 C   0  0  0  0  0  0  0  0  0  0  0  0 
    4.3759   -0.5716   -1.8377 C   0  0  0  0  0  0  0  0  0  0  0  0 
    5.2769    0.3440    1.5859 C   0  0  0  0  0  0  0  0  0  0  0  0 
    4.6516   -1.0863    1.4877 C   0  0  0  0  0  0  0  0  0  0  0  0 
    3.0455    0.3835    2.4453 C   0  0  0  0  0  0  0  0  0  0  0  0 
    3.3613    1.2944    0.2534 C   0  0  0  0  0  0  0  0  0  0  0  0 
    4.0319    1.2620    1.6476 C   0  0  2  0  0  0  0  0  0  0  0  0 
    3.1332   -0.8023    1.4583 C   0  0  1  0  0  0  0  0  0  0  0  0 
    2.7238   -0.1350    0.0951 C   0  0  1  0  0  0  0  0  0  0  0  0 
    3.1496   -0.8739   -1.1149 N   0  0  0  0  0  0  0  0  0  0  0  0 
    0.7320    0.4299    0.8679 H   0  0  0  0  0  0  0  0  0  0  0  0 
    0.7539   -1.0473   -0.1140 H   0  0  0  0  0  0  0  0  0  0  0  0 
    0.9120    0.5297   -0.8978 H   0  0  0  0  0  0  0  0  0  0  0  0 
    4.4967   -1.3313   -2.6182 H   0  0  0  0  0  0  0  0  0  0  0  0 
    5.3082   -0.5556   -1.2462 H   0  0  0  0  0  0  0  0  0  0  0  0 
    4.2931    0.3940   -2.3493 H   0  0  0  0  0  0  0  0  0  0  0  0 
    5.9236    0.5842    0.7347 H   0  0  0  0  0  0  0  0  0  0  0  0 
    5.8831    0.4492    2.4930 H   0  0  0  0  0  0  0  0  0  0  0  0 
    4.9027   -1.6853    2.3707 H   0  0  0  0  0  0  0  0  0  0  0  0 
    4.9946   -1.6473    0.6146 H   0  0  0  0  0  0  0  0  0  0  0  0 
    2.0465    0.8205    2.5379 H   0  0  0  0  0  0  0  0  0  0  0  0 
    3.4067    0.1296    3.4494 H   0  0  0  0  0  0  0  0  0  0  0  0 
    4.0779    1.5368   -0.5352 H   0  0  0  0  0  0  0  0  0  0  0  0 
    2.5785    2.0612    0.2171 H   0  0  0  0  0  0  0  0  0  0  0  0 
    4.2358    2.2561    2.0575 H   0  0  0  0  0  0  0  0  0  0  0  0 
    2.5170   -1.6768    1.6977 H   0  0  0  0  0  0  0  0  0  0  0  0 
    3.0799   -1.8715   -0.9376 H   0  0  0  0  0  0  0  0  0  0  0  0 
  1  9  1  0  0  0  0 
  1 11  1  0  0  0  0 
  2 15  1  0  0  0  0 
  2 10  1  0  0  0  0 
  3  7  1  0  0  0  0 
  3 18  1  0  0  0  0 
  4  3  1  0  0  0  0 
  4 19  1  0  0  0  0 
  5 21  1  0  0  0  0 
  5 22  1  0  0  0  0 
  6  7  1  0  0  0  0 
  7 25  1  1  0  0  0 
  7  5  1  0  0  0  0 
  8  4  1  0  0  0  0 
  8 26  1  1  0  0  0 
  8  5  1  0  0  0  0 
  9 10  1  6  0  0  0 
  9  6  1  0  0  0  0 
  9  8  1  0  0  0  0 
 10 27  1  0  0  0  0 
 12  1  1  0  0  0  0 
 13  1  1  0  0  0  0 
 14  2  1  0  0  0  0 
 16  2  1  0  0  0  0 
 17  3  1  0  0  0  0 
 20  4  1  0  0  0  0 
 23  6  1  0  0  0  0 
 24  6  1  0  0  0  0 
M  END 
>  <HBA> 
1 
 
>  <HBD> 
1 
 
>  <TPSA> 
12.03 
 
>  <cid> 
45186 
 
>  <dipole> 
0.86 
 
>  <excitation_energy_1> 
4.927 
 
>  <excitation_energy_2> 
5.355 
 
>  <excitation_energy_3> 
5.425 
 
>  <excitation_energy_4> 
5.627 
 
>  <homo_energy> 
-5.434 
 
>  <homo_lumo_gap> 
7.562 
 
>  <logP> 
2.175 
 
>  <lumo_energy> 
2.128 
 
>  <melting_point> 
54.8 
 
>  <molecular_refractivity> 
43.99 
 
>  <oscillator_strength_1> 
0.0013 
 
>  <oscillator_strength_2> 
0.0174 
 
>  <oscillator_strength_3> 
0.0099 
 
>  <oscillator_strength_4> 
0.0307 
 
>  <open_babel_can_smiles> 
CN[C@]1(C)C[C@H]2C[C@@H]1CC2 
 
>  <mulliken_charges> 
27 
1   -0.43706 
2   -0.301729 
3   -0.273057 
4   -0.272996 
5   -0.277798 
6   -0.29974 
7   -0.097043 
8   -0.117904 
9   0.248259 
10   -0.58171 
11   0.130258 
12   0.130423 
13   0.147305 
14   0.142791 
15   0.124816 
16   0.151748 
17   0.133877 
18   0.133064 
19   0.132852 
20   0.132864 
21   0.135247 
22   0.128977 
23   0.139183 
24   0.137242 
25   0.113265 
26   0.105146 
27   0.29172 
 
>  <lowdin_charges> 
27 
1   -0.446293 
2   -0.361837 
3   -0.287925 
4   -0.28961 
5   -0.285711 
6   -0.289711 
7   -0.130216 
8   -0.149484 
9   0.064495 
10   -0.363371 
11   0.141145 
12   0.143476 
13   0.153354 
14   0.150751 
15   0.120832 
16   0.144962 
17   0.141796 
18   0.143788 
19   0.144294 
20   0.144578 
21   0.143028 
22   0.141544 
23   0.150898 
24   0.147727 
25   0.138653 
26   0.136655 
27   0.252182 
 
$$$$ 
 
