PCCDB-ID:  43318 
public computational chemistry database (PCCDB) project, http://pccdb.org 
 
 31 33  0  0  0  0  0  0  0  0999 V2000 
    5.2683   -0.0032    1.9528 C   0  0  0  0  0  0  0  0  0  0  0  0 
    4.3187    0.9282    1.8486 C   0  0  0  0  0  0  0  0  0  0  0  0 
   -6.0504    3.5567    1.4593 C   0  0  0  0  0  0  0  0  0  0  0  0 
   -5.9888    2.1647    1.5857 C   0  0  0  0  0  0  0  0  0  0  0  0 
   -4.8767    4.3181    1.4082 C   0  0  0  0  0  0  0  0  0  0  0  0 
   -4.7578    1.5097    1.6628 C   0  0  0  0  0  0  0  0  0  0  0  0 
   -0.1807    0.5070    1.8269 C   0  0  0  0  0  0  0  0  0  0  0  0 
   -1.5705    0.6149    1.7953 C   0  0  0  0  0  0  0  0  0  0  0  0 
   -2.2486    4.2543    1.4537 C   0  0  0  0  0  0  0  0  0  0  0  0 
    0.0084    2.9281    1.6099 C   0  0  0  0  0  0  0  0  0  0  0  0 
   -3.6489    3.6717    1.4847 C   0  0  0  0  0  0  0  0  0  0  0  0 
   -1.3728    3.0229    1.5798 C   0  0  0  0  0  0  0  0  0  0  0  0 
    0.6154    1.6634    1.7340 C   0  0  0  0  0  0  0  0  0  0  0  0 
   -3.5855    2.2676    1.6126 C   0  0  0  0  0  0  0  0  0  0  0  0 
   -2.1749    1.8667    1.6719 C   0  0  0  0  0  0  0  0  0  0  0  0 
    2.8737    0.5464    1.8617 C   0  0  0  0  0  0  0  0  0  0  0  0 
    2.0242    1.6301    1.7569 N   0  0  0  0  0  0  0  0  0  0  0  0 
    2.4965   -0.6163    1.9563 O   0  0  0  0  0  0  0  0  0  0  0  0 
    6.3239    0.2501    1.9450 H   0  0  0  0  0  0  0  0  0  0  0  0 
    4.9924   -1.0493    2.0486 H   0  0  0  0  0  0  0  0  0  0  0  0 
    4.5799    1.9815    1.7522 H   0  0  0  0  0  0  0  0  0  0  0  0 
   -7.0164    4.0510    1.4006 H   0  0  0  0  0  0  0  0  0  0  0  0 
   -6.9084    1.5867    1.6236 H   0  0  0  0  0  0  0  0  0  0  0  0 
   -4.9308    5.4001    1.3103 H   0  0  0  0  0  0  0  0  0  0  0  0 
   -4.7175    0.4279    1.7609 H   0  0  0  0  0  0  0  0  0  0  0  0 
    0.3017   -0.4553    1.9214 H   0  0  0  0  0  0  0  0  0  0  0  0 
   -2.1718   -0.2878    1.8672 H   0  0  0  0  0  0  0  0  0  0  0  0 
   -2.0799    4.9649    2.2748 H   0  0  0  0  0  0  0  0  0  0  0  0 
   -2.0521    4.8043    0.5227 H   0  0  0  0  0  0  0  0  0  0  0  0 
    0.6277    3.8215    1.5385 H   0  0  0  0  0  0  0  0  0  0  0  0 
    2.4685    2.5358    1.6862 H   0  0  0  0  0  0  0  0  0  0  0  0 
  1 20  1  0  0  0  0 
  2 16  1  0  0  0  0 
  2  1  2  0  0  0  0 
  3  4  1  0  0  0  0 
  4 23  1  0  0  0  0 
  4  6  2  0  0  0  0 
  5  3  2  0  0  0  0 
  5 11  1  0  0  0  0 
  6 25  1  0  0  0  0 
  7 26  1  0  0  0  0 
  8  7  1  0  0  0  0 
  8 27  1  0  0  0  0 
  9 11  1  0  0  0  0 
  9 12  1  0  0  0  0 
  9 28  1  0  0  0  0 
 10 13  1  0  0  0  0 
 11 14  2  0  0  0  0 
 12 10  2  0  0  0  0 
 12 15  1  0  0  0  0 
 13 17  1  0  0  0  0 
 13  7  2  0  0  0  0 
 14  6  1  0  0  0  0 
 14 15  1  0  0  0  0 
 15  8  2  0  0  0  0 
 16 18  2  0  0  0  0 
 17 16  1  0  0  0  0 
 19  1  1  0  0  0  0 
 21  2  1  0  0  0  0 
 22  3  1  0  0  0  0 
 24  5  1  0  0  0  0 
 29  9  1  0  0  0  0 
 30 10  1  0  0  0  0 
 31 17  1  0  0  0  0 
M  END 
>  <HBA> 
2 
 
>  <HBD> 
1 
 
>  <TPSA> 
29.1 
 
>  <cid> 
43318 
 
>  <dipole> 
3.62 
 
>  <excitation_energy_1> 
3.674 
 
>  <excitation_energy_2> 
4.23 
 
>  <excitation_energy_3> 
4.316 
 
>  <excitation_energy_4> 
4.559 
 
>  <homo_energy> 
-5.426 
 
>  <homo_lumo_gap> 
4.12 
 
>  <logP> 
3.455 
 
>  <lumo_energy> 
-1.306 
 
>  <melting_point> 
108.53 
 
>  <molecular_refractivity> 
73.53 
 
>  <oscillator_strength_1> 
0.6574 
 
>  <oscillator_strength_2> 
0.0119 
 
>  <oscillator_strength_3> 
0.0001 
 
>  <oscillator_strength_4> 
0.0519 
 
>  <open_babel_can_smiles> 
C=CC(=O)Nc1ccc2c(c1)Cc1c2cccc1 
 
>  <mulliken_charges> 
31 
1   -0.306642 
2   -0.152733 
3   -0.13001 
4   -0.137733 
5   -0.203519 
6   -0.192284 
7   -0.176175 
8   -0.210329 
9   -0.421397 
10   -0.285898 
11   0.104608 
12   0.108845 
13   0.375984 
14   0.089325 
15   0.092349 
16   0.621257 
17   -0.744416 
18   -0.515585 
19   0.153024 
20   0.183506 
21   0.127189 
22   0.126204 
23   0.127707 
24   0.123347 
25   0.129919 
26   0.187975 
27   0.134651 
28   0.171735 
29   0.171779 
30   0.115934 
31   0.331384 
 
>  <lowdin_charges> 
31 
1   -0.268077 
2   -0.195043 
3   -0.160478 
4   -0.156657 
5   -0.161694 
6   -0.160653 
7   -0.179348 
8   -0.152235 
9   -0.275354 
10   -0.198289 
11   -0.007199 
12   0.002671 
13   0.061497 
14   -0.010453 
15   -0.021108 
16   0.164091 
17   -0.230534 
18   -0.29729 
19   0.165735 
20   0.180803 
21   0.151354 
22   0.156848 
23   0.157617 
24   0.153579 
25   0.15576 
26   0.189432 
27   0.160981 
28   0.168973 
29   0.168581 
30   0.151447 
31   0.285045 
 
$$$$ 
 
