PCCDB-ID:  73173 
public computational chemistry database (PCCDB) project, http://pccdb.org 
 
 18 18  0  0  0  0  0  0  0  0999 V2000 
   -1.0221   -0.7918    0.2587 C   0  0  0  0  0  0  0  0  0  0  0  0 
   -1.0701    0.4998   -0.2664 C   0  0  0  0  0  0  0  0  0  0  0  0 
    1.2926   -0.7444    0.1846 C   0  0  0  0  0  0  0  0  0  0  0  0 
    1.2306    0.6184   -0.2071 C   0  0  0  0  0  0  0  0  0  0  0  0 
    2.4992   -1.6672    0.2574 C   0  0  0  0  0  0  0  0  0  0  0  0 
    2.3707    1.5906   -0.3433 C   0  0  0  0  0  0  0  0  0  0  0  0 
    3.6495   -1.5118   -0.2573 N   0  0  0  0  0  0  0  0  0  0  0  0 
    2.3535    2.6598   -1.0269 N   0  0  0  0  0  0  0  0  0  0  0  0 
    0.1452   -1.3955    0.4548 N   0  0  0  0  0  0  0  0  0  0  0  0 
    0.0456    1.1939   -0.4650 N   0  0  0  0  0  0  0  0  0  0  0  0 
    2.2285   -2.8224    0.9015 O   0  0  0  0  0  0  0  0  0  0  0  0 
    3.4561    1.2645    0.3965 O   0  0  0  0  0  0  0  0  0  0  0  0 
   -1.9223   -1.3464    0.5114 H   0  0  0  0  0  0  0  0  0  0  0  0 
   -2.0117    0.9867   -0.5077 H   0  0  0  0  0  0  0  0  0  0  0  0 
    3.7490   -0.5894   -0.6711 H   0  0  0  0  0  0  0  0  0  0  0  0 
    1.4466    2.7689   -1.4841 H   0  0  0  0  0  0  0  0  0  0  0  0 
    1.2658   -2.8295    1.0791 H   0  0  0  0  0  0  0  0  0  0  0  0 
    4.1010    1.9831    0.2535 H   0  0  0  0  0  0  0  0  0  0  0  0 
  1  9  2  0  0  0  0 
  1 13  1  0  0  0  0 
  2  1  1  0  0  0  0 
  3  5  1  0  0  0  0 
  3  9  1  0  0  0  0 
  4  3  2  0  0  0  0 
  5 11  1  0  0  0  0 
  6  4  1  0  0  0  0 
  6 12  1  0  0  0  0 
  7  5  2  0  0  0  0 
  8  6  2  0  0  0  0 
 10  2  2  0  0  0  0 
 10  4  1  0  0  0  0 
 11 17  1  0  0  0  0 
 14  2  1  0  0  0  0 
 15  7  1  0  0  0  0 
 16  8  1  0  0  0  0 
 18 12  1  0  0  0  0 
M  END 
>  <HBA> 
6 
 
>  <HBD> 
2 
 
>  <TPSA> 
111.96 
 
>  <cid> 
73173 
 
>  <dipole> 
5.33 
 
>  <excitation_energy_1> 
3.795 
 
>  <excitation_energy_2> 
3.892 
 
>  <excitation_energy_3> 
4.015 
 
>  <excitation_energy_4> 
4.283 
 
>  <homo_energy> 
-7.056 
 
>  <homo_lumo_gap> 
4.58 
 
>  <logP> 
0.075 
 
>  <lumo_energy> 
-2.476 
 
>  <melting_point> 
214.95 
 
>  <molecular_refractivity> 
38.22 
 
>  <oscillator_strength_1> 
0.0064 
 
>  <oscillator_strength_2> 
0.0069 
 
>  <oscillator_strength_3> 
0.0081 
 
>  <oscillator_strength_4> 
0.048 
 
>  <open_babel_can_smiles> 
OC(=N)c1nccnc1C(=N)O 
 
>  <mulliken_charges> 
18 
1   0.047853 
2   0.035748 
3   0.249324 
4   0.234582 
5   0.487889 
6   0.446306 
7   -0.585939 
8   -0.602223 
9   -0.502125 
10   -0.450238 
11   -0.594962 
12   -0.587967 
13   0.173936 
14   0.171843 
15   0.302835 
16   0.320799 
17   0.427565 
18   0.424774 
 
>  <lowdin_charges> 
18 
1   -0.088492 
2   -0.093718 
3   0.021293 
4   0.021784 
5   0.113854 
6   0.111758 
7   -0.364816 
8   -0.387556 
9   -0.129187 
10   -0.107225 
11   -0.357888 
12   -0.352754 
13   0.175994 
14   0.174811 
15   0.261328 
16   0.275248 
17   0.354092 
18   0.371472 
 
$$$$ 
 
