PCCDB-ID:  72921 
public computational chemistry database (PCCDB) project, http://pccdb.org 
 
 18 18  0  0  0  0  0  0  0  0999 V2000 
   -1.0020    0.7399    0.0123 C   0  0  0  0  0  0  0  0  0  0  0  0 
    1.0925   -0.4032   -0.0084 C   0  0  0  0  0  0  0  0  0  0  0  0 
    1.1202    2.1282   -0.1958 C   0  0  0  0  0  0  0  0  0  0  0  0 
   -1.6172   -0.5017    0.1692 C   0  0  0  0  0  0  0  0  0  0  0  0 
    0.3820   -1.5939    0.1526 C   0  0  0  0  0  0  0  0  0  0  0  0 
    1.5817    2.6603    1.1777 C   0  0  0  0  0  0  0  0  0  0  0  0 
    0.3933    0.8097   -0.0833 C   0  0  0  0  0  0  0  0  0  0  0  0 
   -0.9518   -1.6621    0.2425 N   0  0  0  0  0  0  0  0  0  0  0  0 
    2.5073    1.8017    1.8233 O   0  0  0  0  0  0  0  0  0  0  0  0 
   -1.6061    1.6423   -0.0413 H   0  0  0  0  0  0  0  0  0  0  0  0 
    2.1761   -0.4201   -0.0891 H   0  0  0  0  0  0  0  0  0  0  0  0 
    2.0052    2.0161   -0.8328 H   0  0  0  0  0  0  0  0  0  0  0  0 
    0.4693    2.8799   -0.6600 H   0  0  0  0  0  0  0  0  0  0  0  0 
   -2.7020   -0.5690    0.2372 H   0  0  0  0  0  0  0  0  0  0  0  0 
    0.9135   -2.5428    0.2090 H   0  0  0  0  0  0  0  0  0  0  0  0 
    0.7030    2.8535    1.8135 H   0  0  0  0  0  0  0  0  0  0  0  0 
    2.1046    3.6116    1.0379 H   0  0  0  0  0  0  0  0  0  0  0  0 
    2.0399    0.9791    2.0400 H   0  0  0  0  0  0  0  0  0  0  0  0 
  1  4  2  0  0  0  0 
  2  5  1  0  0  0  0 
  3  7  1  0  0  0  0 
  3  6  1  0  0  0  0 
  4 14  1  0  0  0  0 
  4  8  1  0  0  0  0 
  5 15  1  0  0  0  0 
  5  8  2  0  0  0  0 
  6 16  1  0  0  0  0 
  6  9  1  0  0  0  0 
  7  2  2  0  0  0  0 
  7  1  1  0  0  0  0 
  9 18  1  0  0  0  0 
 10  1  1  0  0  0  0 
 11  2  1  0  0  0  0 
 12  3  1  0  0  0  0 
 13  3  1  0  0  0  0 
 17  6  1  0  0  0  0 
M  END 
>  <HBA> 
2 
 
>  <HBD> 
1 
 
>  <TPSA> 
33.12 
 
>  <cid> 
72921 
 
>  <dipole> 
1.84 
 
>  <excitation_energy_1> 
4.861 
 
>  <excitation_energy_2> 
5.087 
 
>  <excitation_energy_3> 
5.428 
 
>  <excitation_energy_4> 
5.822 
 
>  <homo_energy> 
-6.958 
 
>  <homo_lumo_gap> 
6.215 
 
>  <logP> 
0.616 
 
>  <lumo_energy> 
-0.743 
 
>  <melting_point> 
40.61 
 
>  <molecular_refractivity> 
35.17 
 
>  <oscillator_strength_1> 
0.0054 
 
>  <oscillator_strength_2> 
0.0 
 
>  <oscillator_strength_3> 
0.0252 
 
>  <oscillator_strength_4> 
0.0453 
 
>  <open_babel_can_smiles> 
OCCc1ccncc1 
 
>  <mulliken_charges> 
18 
1   -0.185165 
2   -0.208627 
3   -0.351382 
4   0.039492 
5   0.040607 
6   -0.03136 
7   0.164308 
8   -0.407446 
9   -0.612629 
10   0.132773 
11   0.147375 
12   0.161676 
13   0.145477 
14   0.143038 
15   0.14401 
16   0.128701 
17   0.153544 
18   0.395608 
 
>  <lowdin_charges> 
18 
1   -0.188163 
2   -0.195767 
3   -0.295132 
4   -0.083961 
5   -0.089096 
6   -0.131105 
7   0.015721 
8   -0.152227 
9   -0.464478 
10   0.161943 
11   0.165 
12   0.161088 
13   0.157481 
14   0.155135 
15   0.158206 
16   0.130036 
17   0.151405 
18   0.343913 
 
$$$$ 
 
