PCCDB-ID:  16694 
public computational chemistry database (PCCDB) project, http://pccdb.org 
 
 22 22  0  0  0  0  0  0  0  0999 V2000 
    1.3498    0.5411   -0.3434 C   0  0  0  0  0  0  0  0  0  0  0  0 
    4.8838   -5.1462   -0.6440 C   0  0  0  0  0  0  0  0  0  0  0  0 
    5.5262   -0.1467   -0.5343 C   0  0  0  0  0  0  0  0  0  0  0  0 
    2.6168    0.1908   -0.0856 C   0  0  0  0  0  0  0  0  0  0  0  0 
    2.9174   -3.5808   -0.3000 C   0  0  0  0  0  0  0  0  0  0  0  0 
    2.3888   -2.3031   -0.1509 C   0  0  0  0  0  0  0  0  0  0  0  0 
    5.0960   -2.6230   -0.5796 C   0  0  0  0  0  0  0  0  0  0  0  0 
    4.2879   -3.7640   -0.5165 C   0  0  0  0  0  0  0  0  0  0  0  0 
    4.5872   -1.3289   -0.4350 C   0  0  0  0  0  0  0  0  0  0  0  0 
    3.1975   -1.1572   -0.2250 C   0  0  0  0  0  0  0  0  0  0  0  0 
    1.0084    1.5607   -0.1907 H   0  0  0  0  0  0  0  0  0  0  0  0 
    0.6147   -0.1634   -0.7237 H   0  0  0  0  0  0  0  0  0  0  0  0 
    4.1485   -5.8664   -1.0184 H   0  0  0  0  0  0  0  0  0  0  0  0 
    5.2394   -5.5192    0.3262 H   0  0  0  0  0  0  0  0  0  0  0  0 
    5.7415   -5.1527   -1.3256 H   0  0  0  0  0  0  0  0  0  0  0  0 
    6.5528   -0.4815   -0.7110 H   0  0  0  0  0  0  0  0  0  0  0  0 
    5.5312    0.4538    0.3846 H   0  0  0  0  0  0  0  0  0  0  0  0 
    5.2494    0.5263   -1.3549 H   0  0  0  0  0  0  0  0  0  0  0  0 
    3.2977    0.9701    0.2523 H   0  0  0  0  0  0  0  0  0  0  0  0 
    2.2603   -4.4455   -0.2379 H   0  0  0  0  0  0  0  0  0  0  0  0 
    1.3264   -2.1871    0.0445 H   0  0  0  0  0  0  0  0  0  0  0  0 
    6.1642   -2.7453   -0.7513 H   0  0  0  0  0  0  0  0  0  0  0  0 
  1 11  1  0  0  0  0 
  1  4  2  0  0  0  0 
  2  8  1  0  0  0  0 
  2 14  1  0  0  0  0 
  3  9  1  0  0  0  0 
  3 17  1  0  0  0  0 
  4 19  1  0  0  0  0 
  5 20  1  0  0  0  0 
  5  6  2  0  0  0  0 
  6 21  1  0  0  0  0 
  7  8  2  0  0  0  0 
  7  9  1  0  0  0  0 
  8  5  1  0  0  0  0 
  9 10  2  0  0  0  0 
 10  6  1  0  0  0  0 
 10  4  1  0  0  0  0 
 12  1  1  0  0  0  0 
 13  2  1  0  0  0  0 
 15  2  1  0  0  0  0 
 16  3  1  0  0  0  0 
 18  3  1  0  0  0  0 
 22  7  1  0  0  0  0 
M  END 
>  <HBA> 
0 
 
>  <HBD> 
0 
 
>  <TPSA> 
0.0 
 
>  <cid> 
16694 
 
>  <dipole> 
0.5 
 
>  <excitation_energy_1> 
4.637 
 
>  <excitation_energy_2> 
4.806 
 
>  <excitation_energy_3> 
5.547 
 
>  <excitation_energy_4> 
5.588 
 
>  <homo_energy> 
-5.799 
 
>  <homo_lumo_gap> 
5.135 
 
>  <logP> 
2.946 
 
>  <lumo_energy> 
-0.664 
 
>  <melting_point> 
6.13 
 
>  <molecular_refractivity> 
46.47 
 
>  <oscillator_strength_1> 
0.1706 
 
>  <oscillator_strength_2> 
0.2302 
 
>  <oscillator_strength_3> 
0.02 
 
>  <oscillator_strength_4> 
0.1583 
 
>  <open_babel_can_smiles> 
C=Cc1ccc(cc1C)C 
 
>  <mulliken_charges> 
22 
1   -0.341999 
2   -0.530921 
3   -0.537494 
4   -0.125346 
5   -0.186245 
6   -0.184222 
7   -0.24725 
8   0.191244 
9   0.13121 
10   0.102793 
11   0.14036 
12   0.141365 
13   0.155781 
14   0.164996 
15   0.156783 
16   0.155017 
17   0.16125 
18   0.165871 
19   0.127867 
20   0.119165 
21   0.126694 
22   0.113083 
 
>  <lowdin_charges> 
22 
1   -0.334532 
2   -0.443134 
3   -0.443865 
4   -0.15009 
5   -0.173461 
6   -0.149555 
7   -0.17659 
8   0.002519 
9   -0.000405 
10   -0.019482 
11   0.159633 
12   0.157949 
13   0.158478 
14   0.161437 
15   0.158314 
16   0.15596 
17   0.15846 
18   0.16242 
19   0.157396 
20   0.154202 
21   0.155822 
22   0.148522 
 
$$$$ 
 
