PCCDB-ID:  10195 
public computational chemistry database (PCCDB) project, http://pccdb.org 
 
 15 15  0  0  1  0  0  0  0  0999 V2000 
    1.1504   -0.2272    0.3018 C   0  0  2  0  0  0  0  0  0  0  0  0 
    0.5340    1.1964    0.3087 C   0  0  0  0  0  0  0  0  0  0  0  0 
    0.0128   -1.2662    0.3669 C   0  0  0  0  0  0  0  0  0  0  0  0 
   -1.4445    0.3072   -0.5321 C   0  0  0  0  0  0  0  0  0  0  0  0 
   -0.6534    1.3989   -0.0922 N   0  0  0  0  0  0  0  0  0  0  0  0 
   -1.1541   -0.9963   -0.0565 N   0  0  0  0  0  0  0  0  0  0  0  0 
    2.2643   -0.3962    1.3400 N   0  0  0  0  0  0  0  0  0  0  0  0 
    1.2914    2.2274    0.6732 O   0  0  0  0  0  0  0  0  0  0  0  0 
    0.2970   -2.5132    0.7443 O   0  0  0  0  0  0  0  0  0  0  0  0 
   -2.3766    0.4930   -1.2759 O   0  0  0  0  0  0  0  0  0  0  0  0 
    2.2656   -1.3683    2.0876 O   0  0  0  0  0  0  0  0  0  0  0  0 
    3.1474    0.4598    1.3391 O   0  0  0  0  0  0  0  0  0  0  0  0 
    1.6927   -0.3546   -0.6445 H   0  0  0  0  0  0  0  0  0  0  0  0 
    2.1937    1.9243    0.9034 H   0  0  0  0  0  0  0  0  0  0  0  0 
    1.1041   -2.5127    1.2965 H   0  0  0  0  0  0  0  0  0  0  0  0 
  1 13  1  6  0  0  0 
  1  2  1  0  0  0  0 
  1  3  1  0  0  0  0 
  1  7  1  0  0  0  0 
  2  8  1  0  0  0  0 
  3  9  1  0  0  0  0 
  4  5  2  0  0  0  0 
  4  6  1  0  0  0  0 
  5  2  2  0  0  0  0 
  6  3  2  0  0  0  0 
  7 11  2  0  0  0  0 
  8 14  1  0  0  0  0 
  9 15  1  0  0  0  0 
 10  4  2  0  0  0  0 
 12  7  2  0  0  0  0 
M  END 
>  <HBA> 
5 
 
>  <HBD> 
2 
 
>  <TPSA> 
121.09 
 
>  <cid> 
10195 
 
>  <dipole> 
6.49 
 
>  <excitation_energy_1> 
2.786 
 
>  <excitation_energy_2> 
2.995 
 
>  <excitation_energy_3> 
3.461 
 
>  <excitation_energy_4> 
3.704 
 
>  <homo_energy> 
-7.633 
 
>  <homo_lumo_gap> 
3.478 
 
>  <logP> 
-0.822 
 
>  <lumo_energy> 
-4.155 
 
>  <melting_point> 
156.96 
 
>  <molecular_refractivity> 
41.76 
 
>  <oscillator_strength_1> 
0.0031 
 
>  <oscillator_strength_2> 
0.0011 
 
>  <oscillator_strength_3> 
0.0002 
 
>  <oscillator_strength_4> 
0.0016 
 
>  <open_babel_can_smiles> 
O=[C]1=[N]=C([C@H](C(=N1)O)N(=O)=O)O 
 
>  <mulliken_charges> 
15 
1   -0.245228 
2   0.543696 
3   0.547278 
4   0.613307 
5   -0.427795 
6   -0.433879 
7   0.478706 
8   -0.562112 
9   -0.569554 
10   -0.403525 
11   -0.356699 
12   -0.356627 
13   0.275494 
14   0.450114 
15   0.446824 
 
>  <lowdin_charges> 
15 
1   -0.151947 
2   0.14025 
3   0.136901 
4   0.172819 
5   -0.163225 
6   -0.160209 
7   0.307269 
8   -0.312498 
9   -0.321078 
10   -0.186986 
11   -0.201838 
12   -0.215722 
13   0.223663 
14   0.367 
15   0.3656 
 
$$$$ 
 
