PCCDB-ID:  36906 
public computational chemistry database (PCCDB) project, http://pccdb.org 
 
 31 32  0  0  1  0  0  0  0  0999 V2000 
    0.7096   -1.5333    0.1284 C   0  0  0  0  0  0  0  0  0  0  0  0 
    2.7584    5.2109    3.9902 C   0  0  0  0  0  0  0  0  0  0  0  0 
    2.1588    2.6197    4.9611 C   0  0  0  0  0  0  0  0  0  0  0  0 
    1.8747    1.3298    5.4050 C   0  0  0  0  0  0  0  0  0  0  0  0 
    3.0196   -1.1025    1.1392 C   0  0  0  0  0  0  0  0  0  0  0  0 
    2.7976    1.7826    2.7589 C   0  0  0  0  0  0  0  0  0  0  0  0 
    2.1946   -1.7305    3.4970 C   0  0  0  0  0  0  0  0  0  0  0  0 
    1.9917   -0.7042    0.0419 C   0  0  1  0  0  0  0  0  0  0  0  0 
    2.5965   -0.8183    2.5518 C   0  0  0  0  0  0  0  0  0  0  0  0 
    2.6196    2.8439    3.6450 C   0  0  0  0  0  0  0  0  0  0  0  0 
    2.5143    0.4779    3.1865 C   0  0  0  0  0  0  0  0  0  0  0  0 
    2.0549    0.2703    4.5174 C   0  0  0  0  0  0  0  0  0  0  0  0 
    2.5293   -0.8064   -1.3232 N   0  0  0  0  0  0  0  0  0  0  0  0 
    1.8651   -1.0904    4.6766 N   0  0  0  0  0  0  0  0  0  0  0  0 
    2.9210    4.0883    3.1452 O   0  0  0  0  0  0  0  0  0  0  0  0 
    0.2454   -1.4410    1.1148 H   0  0  0  0  0  0  0  0  0  0  0  0 
    0.9251   -2.5978   -0.0432 H   0  0  0  0  0  0  0  0  0  0  0  0 
   -0.0045   -1.2078   -0.6338 H   0  0  0  0  0  0  0  0  0  0  0  0 
    3.0505    6.0793    3.3958 H   0  0  0  0  0  0  0  0  0  0  0  0 
    3.4021    5.1512    4.8791 H   0  0  0  0  0  0  0  0  0  0  0  0 
    1.7151    5.3319    4.3141 H   0  0  0  0  0  0  0  0  0  0  0  0 
    2.0209    3.4501    5.6434 H   0  0  0  0  0  0  0  0  0  0  0  0 
    1.5215    1.1659    6.4198 H   0  0  0  0  0  0  0  0  0  0  0  0 
    3.9587   -0.5697    0.9259 H   0  0  0  0  0  0  0  0  0  0  0  0 
    3.2434   -2.1737    1.0273 H   0  0  0  0  0  0  0  0  0  0  0  0 
    3.1529    1.9951    1.7553 H   0  0  0  0  0  0  0  0  0  0  0  0 
    2.1199   -2.8072    3.4200 H   0  0  0  0  0  0  0  0  0  0  0  0 
    1.7281    0.3509    0.1951 H   0  0  0  0  0  0  0  0  0  0  0  0 
    2.8072   -1.7729   -1.5019 H   0  0  0  0  0  0  0  0  0  0  0  0 
    3.3847   -0.2552   -1.3967 H   0  0  0  0  0  0  0  0  0  0  0  0 
    1.5580   -1.5453    5.5212 H   0  0  0  0  0  0  0  0  0  0  0  0 
  1 16  1  0  0  0  0 
  2 21  1  0  0  0  0 
  2 20  1  0  0  0  0 
  3  4  1  0  0  0  0 
  3 22  1  0  0  0  0 
  4 23  1  0  0  0  0 
  5  9  1  0  0  0  0 
  6 11  2  0  0  0  0 
  6 10  1  0  0  0  0 
  7 14  1  0  0  0  0 
  8  1  1  0  0  0  0 
  8 28  1  1  0  0  0 
  8  5  1  0  0  0  0 
  9 11  1  0  0  0  0 
  9  7  2  0  0  0  0 
 10  3  2  0  0  0  0 
 11 12  1  0  0  0  0 
 12 14  1  0  0  0  0 
 12  4  2  0  0  0  0 
 13  8  1  0  0  0  0 
 14 31  1  0  0  0  0 
 15 10  1  0  0  0  0 
 15  2  1  0  0  0  0 
 17  1  1  0  0  0  0 
 18  1  1  0  0  0  0 
 19  2  1  0  0  0  0 
 24  5  1  0  0  0  0 
 25  5  1  0  0  0  0 
 26  6  1  0  0  0  0 
 27  7  1  0  0  0  0 
 29 13  1  0  0  0  0 
 30 13  1  0  0  0  0 
M  END 
>  <HBA> 
2 
 
>  <HBD> 
2 
 
>  <TPSA> 
51.04 
 
>  <cid> 
36906 
 
>  <dipole> 
3.33 
 
>  <excitation_energy_1> 
4.236 
 
>  <excitation_energy_2> 
4.487 
 
>  <excitation_energy_3> 
4.625 
 
>  <excitation_energy_4> 
4.844 
 
>  <homo_energy> 
-5.04 
 
>  <homo_lumo_gap> 
4.904 
 
>  <logP> 
2.767 
 
>  <lumo_energy> 
-0.136 
 
>  <melting_point> 
158.79 
 
>  <molecular_refractivity> 
62.08 
 
>  <oscillator_strength_1> 
0.0662 
 
>  <oscillator_strength_2> 
0.0001 
 
>  <oscillator_strength_3> 
0.0727 
 
>  <oscillator_strength_4> 
0.0236 
 
>  <open_babel_can_smiles> 
COc1ccc2c(c1)c(c[nH]2)C[C@@H](N)C 
 
>  <mulliken_charges> 
31 
1   -0.438157 
2   -0.208928 
3   -0.217715 
4   -0.172675 
5   -0.350914 
6   -0.275097 
7   -0.00442 
8   0.027133 
9   0.078006 
10   0.377302 
11   0.084647 
12   0.318152 
13   -0.703159 
14   -0.697086 
15   -0.516547 
16   0.15151 
17   0.122772 
18   0.157551 
19   0.164519 
20   0.145358 
21   0.145923 
22   0.125179 
23   0.121471 
24   0.130723 
25   0.121739 
26   0.128858 
27   0.144376 
28   0.141656 
29   0.284033 
30   0.289858 
31   0.323929 
 
>  <lowdin_charges> 
31 
1   -0.448079 
2   -0.27769 
3   -0.216947 
4   -0.178027 
5   -0.285656 
6   -0.194395 
7   -0.132428 
8   -0.063097 
9   -0.065043 
10   0.090728 
11   -0.026043 
12   0.019822 
13   -0.548392 
14   -0.207643 
15   -0.210214 
16   0.155193 
17   0.136802 
18   0.159149 
19   0.160487 
20   0.140933 
21   0.13993 
22   0.16158 
23   0.154429 
24   0.14387 
25   0.13984 
26   0.162657 
27   0.160454 
28   0.141253 
29   0.246273 
30   0.249768 
31   0.290486 
 
$$$$ 
 
