PCCDB-ID:  69365 
public computational chemistry database (PCCDB) project, http://pccdb.org 
 
 13 12  0  0  0  0  0  0  0  0999 V2000 
    0.8486   -0.0882    0.3038 C   0  0  0  0  0  0  0  0  0  0  0  0 
    2.1216    1.7841   -1.5644 C   0  0  0  0  0  0  0  0  0  0  0  0 
    2.3318    0.1519    0.1071 C   0  0  0  0  0  0  0  0  0  0  0  0 
    2.9219    0.9455   -0.6894 N   0  0  0  0  0  0  0  0  0  0  0  0 
    1.3593    2.7655   -0.8695 O   0  0  0  0  0  0  0  0  0  0  0  0 
    3.1372   -0.6131    0.9014 O   0  0  0  0  0  0  0  0  0  0  0  0 
    0.2466    0.6325   -0.2477 H   0  0  0  0  0  0  0  0  0  0  0  0 
    0.5904    0.0099    1.3659 H   0  0  0  0  0  0  0  0  0  0  0  0 
    0.5836   -1.1055   -0.0116 H   0  0  0  0  0  0  0  0  0  0  0  0 
    1.3864    1.2104   -2.1442 H   0  0  0  0  0  0  0  0  0  0  0  0 
    2.8095    2.2623   -2.2735 H   0  0  0  0  0  0  0  0  0  0  0  0 
    1.9890    3.2658   -0.3248 H   0  0  0  0  0  0  0  0  0  0  0  0 
    2.5863   -1.1644    1.4784 H   0  0  0  0  0  0  0  0  0  0  0  0 
  1  8  1  0  0  0  0 
  2  5  1  0  0  0  0 
  2  4  1  0  0  0  0 
  3  1  1  0  0  0  0 
  3  6  1  0  0  0  0 
  4  3  2  0  0  0  0 
  5 12  1  0  0  0  0 
  6 13  1  0  0  0  0 
  7  1  1  0  0  0  0 
  9  1  1  0  0  0  0 
 10  2  1  0  0  0  0 
 11  2  1  0  0  0  0 
M  END 
>  <HBA> 
3 
 
>  <HBD> 
2 
 
>  <TPSA> 
49.33 
 
>  <cid> 
69365 
 
>  <dipole> 
2.77 
 
>  <excitation_energy_1> 
5.342 
 
>  <excitation_energy_2> 
5.994 
 
>  <excitation_energy_3> 
6.135 
 
>  <excitation_energy_4> 
6.384 
 
>  <homo_energy> 
-6.683 
 
>  <homo_lumo_gap> 
6.928 
 
>  <logP> 
-0.537 
 
>  <lumo_energy> 
0.245 
 
>  <melting_point> 
42.62 
 
>  <molecular_refractivity> 
20.7 
 
>  <oscillator_strength_1> 
0.0002 
 
>  <oscillator_strength_2> 
0.0102 
 
>  <oscillator_strength_3> 
0.0289 
 
>  <oscillator_strength_4> 
0.0564 
 
>  <open_babel_can_smiles> 
OC/N=C(/O)\C 
 
>  <mulliken_charges> 
13 
1   -0.56427 
2   0.044562 
3   0.504665 
4   -0.430847 
5   -0.611904 
6   -0.572333 
7   0.210735 
8   0.168532 
9   0.173389 
10   0.137986 
11   0.142822 
12   0.391101 
13   0.405562 
 
>  <lowdin_charges> 
13 
1   -0.486173 
2   -0.085285 
3   0.145178 
4   -0.237987 
5   -0.472992 
6   -0.361624 
7   0.189618 
8   0.166617 
9   0.167866 
10   0.135411 
11   0.137915 
12   0.345235 
13   0.35622 
 
$$$$ 
 
