PCCDB-ID:  19957 
public computational chemistry database (PCCDB) project, http://pccdb.org 
 
 18 18  0  0  1  0  0  0  0  0999 V2000 
    0.9740   -0.0406    0.2608 C   0  0  0  0  0  0  0  0  0  0  0  0 
    5.3595    1.2145   -1.7291 C   0  0  0  0  0  0  0  0  0  0  0  0 
    3.2547   -1.1997   -0.0008 C   0  0  0  0  0  0  0  0  0  0  0  0 
    4.6939   -0.8795   -0.3240 C   0  0  0  0  0  0  0  0  0  0  0  0 
    2.4463   -0.1251    0.0097 C   0  0  0  0  0  0  0  0  0  0  0  0 
    4.7271    0.6617   -0.4480 C   0  0  2  0  0  0  0  0  0  0  0  0 
    3.2524    1.0824   -0.3082 C   0  0  0  0  0  0  0  0  0  0  0  0 
    2.8241    2.2155   -0.4443 O   0  0  0  0  0  0  0  0  0  0  0  0 
    0.5345   -1.0255    0.4451 H   0  0  0  0  0  0  0  0  0  0  0  0 
    0.4646    0.4178   -0.5952 H   0  0  0  0  0  0  0  0  0  0  0  0 
    0.7650    0.6034    1.1236 H   0  0  0  0  0  0  0  0  0  0  0  0 
    6.4324    0.9966   -1.7688 H   0  0  0  0  0  0  0  0  0  0  0  0 
    5.2200    2.2989   -1.7761 H   0  0  0  0  0  0  0  0  0  0  0  0 
    4.8915    0.7754   -2.6184 H   0  0  0  0  0  0  0  0  0  0  0  0 
    2.9241   -2.2190    0.1877 H   0  0  0  0  0  0  0  0  0  0  0  0 
    4.9975   -1.3684   -1.2612 H   0  0  0  0  0  0  0  0  0  0  0  0 
    5.3745   -1.2595    0.4493 H   0  0  0  0  0  0  0  0  0  0  0  0 
    5.2543    1.0920    0.4149 H   0  0  0  0  0  0  0  0  0  0  0  0 
  1  9  1  0  0  0  0 
  1 11  1  0  0  0  0 
  2  6  1  0  0  0  0 
  3  5  2  0  0  0  0 
  3 15  1  0  0  0  0 
  4  3  1  0  0  0  0 
  4 17  1  0  0  0  0 
  5  1  1  0  0  0  0 
  6  4  1  0  0  0  0 
  6  7  1  0  0  0  0 
  6 18  1  1  0  0  0 
  7  5  1  0  0  0  0 
  8  7  2  0  0  0  0 
 10  1  1  0  0  0  0 
 12  2  1  0  0  0  0 
 13  2  1  0  0  0  0 
 14  2  1  0  0  0  0 
 16  4  1  0  0  0  0 
M  END 
>  <HBA> 
1 
 
>  <HBD> 
0 
 
>  <TPSA> 
17.07 
 
>  <cid> 
19957 
 
>  <dipole> 
3.15 
 
>  <excitation_energy_1> 
3.776 
 
>  <excitation_energy_2> 
5.67 
 
>  <excitation_energy_3> 
6.048 
 
>  <excitation_energy_4> 
6.38 
 
>  <homo_energy> 
-6.376 
 
>  <homo_lumo_gap> 
5.325 
 
>  <logP> 
1.542 
 
>  <lumo_energy> 
-1.05 
 
>  <melting_point> 
29.95 
 
>  <molecular_refractivity> 
33.38 
 
>  <oscillator_strength_1> 
0.0003 
 
>  <oscillator_strength_2> 
0.219 
 
>  <oscillator_strength_3> 
0.0023 
 
>  <oscillator_strength_4> 
0.0019 
 
>  <open_babel_can_smiles> 
C[C@@H]1CC=C(C1=O)C 
 
>  <mulliken_charges> 
18 
1   -0.513254 
2   -0.450124 
3   -0.167673 
4   -0.323821 
5   0.135096 
6   -0.16653 
7   0.387454 
8   -0.478334 
9   0.150412 
10   0.174736 
11   0.17224 
12   0.144778 
13   0.172483 
14   0.146112 
15   0.138923 
16   0.1595 
17   0.155187 
18   0.162815 
 
>  <lowdin_charges> 
18 
1   -0.437601 
2   -0.434915 
3   -0.133409 
4   -0.280747 
5   -0.045579 
6   -0.153953 
7   0.140054 
8   -0.250765 
9   0.156748 
10   0.171282 
11   0.169473 
12   0.149114 
13   0.163265 
14   0.15014 
15   0.157474 
16   0.15778 
17   0.157054 
18   0.164585 
 
$$$$ 
 
