PCCDB-ID:  34799 
public computational chemistry database (PCCDB) project, http://pccdb.org 
 
 34 35  0  0  1  0  0  0  0  0999 V2000 
    1.0323    1.5153    1.8795 C   0  0  0  0  0  0  0  0  0  0  0  0 
    7.0927    0.0599   -4.9501 C   0  0  0  0  0  0  0  0  0  0  0  0 
    2.5264    1.8351    1.8484 C   0  0  0  0  0  0  0  0  0  0  0  0 
    5.0530    3.3728   -0.8776 C   0  0  0  0  0  0  0  0  0  0  0  0 
    5.3139   -1.7186   -1.5601 C   0  0  0  0  0  0  0  0  0  0  0  0 
    4.9058   -0.8974   -0.5205 C   0  0  0  0  0  0  0  0  0  0  0  0 
    5.8711    2.5600   -1.8856 C   0  0  0  0  0  0  0  0  0  0  0  0 
    5.1979    2.7758    0.5236 C   0  0  0  0  0  0  0  0  0  0  0  0 
    5.9110   -1.1709   -2.7017 C   0  0  0  0  0  0  0  0  0  0  0  0 
    5.0874    0.4940   -0.5958 C   0  0  0  0  0  0  0  0  0  0  0  0 
    5.6655    1.0651   -1.7365 C   0  0  0  0  0  0  0  0  0  0  0  0 
    4.6181    1.3451    0.5831 C   0  0  2  0  0  0  0  0  0  0  0  0 
    6.0849    0.2099   -2.7829 C   0  0  0  0  0  0  0  0  0  0  0  0 
    3.1512    1.2488    0.6656 N   0  0  0  0  0  0  0  0  0  0  0  0 
    6.6609    0.8454   -3.8535 O   0  0  0  0  0  0  0  0  0  0  0  0 
    0.5669    1.9117    2.7890 H   0  0  0  0  0  0  0  0  0  0  0  0 
    0.8710    0.4333    1.8419 H   0  0  0  0  0  0  0  0  0  0  0  0 
    0.5154    1.9633    1.0212 H   0  0  0  0  0  0  0  0  0  0  0  0 
    7.5093    0.7608   -5.6763 H   0  0  0  0  0  0  0  0  0  0  0  0 
    6.2585   -0.4864   -5.4109 H   0  0  0  0  0  0  0  0  0  0  0  0 
    7.8693   -0.6579   -4.6534 H   0  0  0  0  0  0  0  0  0  0  0  0 
    3.0159    1.3948    2.7280 H   0  0  0  0  0  0  0  0  0  0  0  0 
    2.6647    2.9291    1.9354 H   0  0  0  0  0  0  0  0  0  0  0  0 
    3.9930    3.3712   -1.1715 H   0  0  0  0  0  0  0  0  0  0  0  0 
    5.3753    4.4208   -0.8920 H   0  0  0  0  0  0  0  0  0  0  0  0 
    5.1770   -2.7949   -1.4945 H   0  0  0  0  0  0  0  0  0  0  0  0 
    4.4293   -1.3162    0.3609 H   0  0  0  0  0  0  0  0  0  0  0  0 
    6.9400    2.7905   -1.7576 H   0  0  0  0  0  0  0  0  0  0  0  0 
    5.6323    2.8596   -2.9120 H   0  0  0  0  0  0  0  0  0  0  0  0 
    4.7099    3.4065    1.2755 H   0  0  0  0  0  0  0  0  0  0  0  0 
    6.2638    2.7405    0.7916 H   0  0  0  0  0  0  0  0  0  0  0  0 
    6.2289   -1.8224   -3.5075 H   0  0  0  0  0  0  0  0  0  0  0  0 
    4.9889    0.8711    1.5035 H   0  0  0  0  0  0  0  0  0  0  0  0 
    2.7303    1.6268   -0.1821 H   0  0  0  0  0  0  0  0  0  0  0  0 
  1 16  1  0  0  0  0 
  2 21  1  0  0  0  0 
  2 15  1  0  0  0  0 
  3  1  1  0  0  0  0 
  3 23  1  0  0  0  0 
  3 22  1  0  0  0  0 
  4  8  1  0  0  0  0 
  5 26  1  0  0  0  0 
  5  6  2  0  0  0  0 
  6 27  1  0  0  0  0 
  7 28  1  0  0  0  0 
  7 11  1  0  0  0  0 
  7  4  1  0  0  0  0 
  8 12  1  0  0  0  0 
  8 31  1  0  0  0  0 
  8 30  1  0  0  0  0 
  9  5  1  0  0  0  0 
 10  6  1  0  0  0  0 
 10 12  1  0  0  0  0 
 11 10  2  0  0  0  0 
 12 14  1  0  0  0  0 
 12 33  1  1  0  0  0 
 13  9  2  0  0  0  0 
 13 11  1  0  0  0  0 
 14  3  1  0  0  0  0 
 15 13  1  0  0  0  0 
 17  1  1  0  0  0  0 
 18  1  1  0  0  0  0 
 19  2  1  0  0  0  0 
 20  2  1  0  0  0  0 
 24  4  1  0  0  0  0 
 25  4  1  0  0  0  0 
 29  7  1  0  0  0  0 
 32  9  1  0  0  0  0 
 34 14  1  0  0  0  0 
M  END 
>  <HBA> 
2 
 
>  <HBD> 
1 
 
>  <TPSA> 
21.26 
 
>  <cid> 
34799 
 
>  <dipole> 
1.02 
 
>  <excitation_energy_1> 
4.88 
 
>  <excitation_energy_2> 
5.1 
 
>  <excitation_energy_3> 
5.195 
 
>  <excitation_energy_4> 
5.306 
 
>  <homo_energy> 
-5.494 
 
>  <homo_lumo_gap> 
5.788 
 
>  <logP> 
3.073 
 
>  <lumo_energy> 
0.294 
 
>  <melting_point> 
65.2 
 
>  <molecular_refractivity> 
62.78 
 
>  <oscillator_strength_1> 
0.0368 
 
>  <oscillator_strength_2> 
0.0152 
 
>  <oscillator_strength_3> 
0.0075 
 
>  <oscillator_strength_4> 
0.0111 
 
>  <open_babel_can_smiles> 
CCN[C@@H]1CCCc2c1cccc2OC 
 
>  <mulliken_charges> 
34 
1   -0.44519 
2   -0.211647 
3   -0.108121 
4   -0.273096 
5   -0.142171 
6   -0.160835 
7   -0.322586 
8   -0.278694 
9   -0.196724 
10   0.088791 
11   0.051704 
12   -0.041301 
13   0.318667 
14   -0.54868 
15   -0.511682 
16   0.140478 
17   0.157893 
18   0.138224 
19   0.166005 
20   0.150431 
21   0.15059 
22   0.135828 
23   0.114745 
24   0.125152 
25   0.132907 
26   0.123256 
27   0.125648 
28   0.149422 
29   0.155547 
30   0.134593 
31   0.132826 
32   0.12553 
33   0.131682 
34   0.29081 
 
>  <lowdin_charges> 
34 
1   -0.446903 
2   -0.281022 
3   -0.197434 
4   -0.274957 
5   -0.152731 
6   -0.171098 
7   -0.270902 
8   -0.29487 
9   -0.218765 
10   -0.01552 
11   -0.041518 
12   -0.062796 
13   0.092165 
14   -0.361644 
15   -0.202366 
16   0.150897 
17   0.153887 
18   0.145965 
19   0.162012 
20   0.145392 
21   0.145002 
22   0.140545 
23   0.113881 
24   0.132856 
25   0.1445 
26   0.153189 
27   0.159979 
28   0.150178 
29   0.157239 
30   0.146376 
31   0.141963 
32   0.160609 
33   0.144787 
34   0.251104 
 
$$$$ 
 
