PCCDB-ID:  8815 
public computational chemistry database (PCCDB) project, http://pccdb.org 
 
 23 23  0  0  0  0  0  0  0  0999 V2000 
    1.3416    3.2501    1.1431 C   0  0  0  0  0  0  0  0  0  0  0  0 
    8.1994   -1.4535   -0.5394 C   0  0  0  0  0  0  0  0  0  0  0  0 
    1.8430    2.0225    1.0003 C   0  0  0  0  0  0  0  0  0  0  0  0 
    2.3001    1.4207   -0.3057 C   0  0  0  0  0  0  0  0  0  0  0  0 
    4.1153   -0.3395   -0.5914 C   0  0  0  0  0  0  0  0  0  0  0  0 
    4.7811    1.8761    0.0347 C   0  0  0  0  0  0  0  0  0  0  0  0 
    5.4510   -0.7573   -0.5895 C   0  0  0  0  0  0  0  0  0  0  0  0 
    6.1118    1.4819    0.0434 C   0  0  0  0  0  0  0  0  0  0  0  0 
    3.7536    0.9730   -0.2863 C   0  0  0  0  0  0  0  0  0  0  0  0 
    6.4577    0.1585   -0.2707 C   0  0  0  0  0  0  0  0  0  0  0  0 
    7.7935   -0.1302   -0.2343 O   0  0  0  0  0  0  0  0  0  0  0  0 
    1.0280    3.6322    2.1109 H   0  0  0  0  0  0  0  0  0  0  0  0 
    1.2214    3.9205    0.2940 H   0  0  0  0  0  0  0  0  0  0  0  0 
    9.2875   -1.4619   -0.4509 H   0  0  0  0  0  0  0  0  0  0  0  0 
    7.9174   -1.7384   -1.5621 H   0  0  0  0  0  0  0  0  0  0  0  0 
    7.7734   -2.1806    0.1651 H   0  0  0  0  0  0  0  0  0  0  0  0 
    1.9544    1.3839    1.8775 H   0  0  0  0  0  0  0  0  0  0  0  0 
    2.1394    2.1518   -1.1103 H   0  0  0  0  0  0  0  0  0  0  0  0 
    1.6703    0.5525   -0.5463 H   0  0  0  0  0  0  0  0  0  0  0  0 
    3.3421   -1.0634   -0.8404 H   0  0  0  0  0  0  0  0  0  0  0  0 
    4.5276    2.9024    0.2888 H   0  0  0  0  0  0  0  0  0  0  0  0 
    5.6864   -1.7873   -0.8325 H   0  0  0  0  0  0  0  0  0  0  0  0 
    6.9060    2.1802    0.2895 H   0  0  0  0  0  0  0  0  0  0  0  0 
  1 12  1  0  0  0  0 
  2 14  1  0  0  0  0 
  2 11  1  0  0  0  0 
  2 16  1  0  0  0  0 
  3  1  2  0  0  0  0 
  3 17  1  0  0  0  0 
  4  9  1  0  0  0  0 
  4  3  1  0  0  0  0 
  5  7  2  0  0  0  0 
  5  9  1  0  0  0  0 
  6  8  1  0  0  0  0 
  6 21  1  0  0  0  0 
  7 10  1  0  0  0  0 
  8 23  1  0  0  0  0 
  9  6  2  0  0  0  0 
 10 11  1  0  0  0  0 
 10  8  2  0  0  0  0 
 13  1  1  0  0  0  0 
 15  2  1  0  0  0  0 
 18  4  1  0  0  0  0 
 19  4  1  0  0  0  0 
 20  5  1  0  0  0  0 
 22  7  1  0  0  0  0 
M  END 
>  <HBA> 
1 
 
>  <HBD> 
0 
 
>  <TPSA> 
9.23 
 
>  <cid> 
8815 
 
>  <dipole> 
1.44 
 
>  <excitation_energy_1> 
4.864 
 
>  <excitation_energy_2> 
5.271 
 
>  <excitation_energy_3> 
5.417 
 
>  <excitation_energy_4> 
5.69 
 
>  <homo_energy> 
-5.72 
 
>  <homo_lumo_gap> 
5.755 
 
>  <logP> 
2.424 
 
>  <lumo_energy> 
0.035 
 
>  <melting_point> 
-8.67 
 
>  <molecular_refractivity> 
47.04 
 
>  <oscillator_strength_1> 
0.0454 
 
>  <oscillator_strength_2> 
0.062 
 
>  <oscillator_strength_3> 
0.069 
 
>  <oscillator_strength_4> 
0.0274 
 
>  <open_babel_can_smiles> 
COc1ccc(cc1)CC=C 
 
>  <mulliken_charges> 
23 
1   -0.347174 
2   -0.213427 
3   -0.028724 
4   -0.392115 
5   -0.203923 
6   -0.177185 
7   -0.192596 
8   -0.171291 
9   0.168789 
10   0.37255 
11   -0.507613 
12   0.13949 
13   0.134624 
14   0.168369 
15   0.150458 
16   0.150424 
17   0.130512 
18   0.151753 
19   0.148838 
20   0.121598 
21   0.132085 
22   0.128432 
23   0.136128 
 
>  <lowdin_charges> 
23 
1   -0.347384 
2   -0.275707 
3   -0.141989 
4   -0.269409 
5   -0.161113 
6   -0.15043 
7   -0.21375 
8   -0.181278 
9   -0.023441 
10   0.099731 
11   -0.201531 
12   0.158576 
13   0.154099 
14   0.159858 
15   0.143236 
16   0.145409 
17   0.153304 
18   0.155686 
19   0.155378 
20   0.15464 
21   0.159625 
22   0.159871 
23   0.166618 
 
$$$$ 
 
