PCCDB-ID:  51011 
public computational chemistry database (PCCDB) project, http://pccdb.org 
 
 30 30  0  0  1  0  0  0  0  0999 V2000 
    1.1912    1.4043   -4.6246 C   0  0  0  0  0  0  0  0  0  0  0  0 
    5.3748    4.0116   -9.0270 C   0  0  0  0  0  0  0  0  0  0  0  0 
    4.2445    7.2907   -6.6026 C   0  0  0  0  0  0  0  0  0  0  0  0 
    3.2769    7.0976   -5.6216 C   0  0  0  0  0  0  0  0  0  0  0  0 
    4.6594    6.2253   -7.4096 C   0  0  0  0  0  0  0  0  0  0  0  0 
    2.7271    5.8247   -5.4405 C   0  0  0  0  0  0  0  0  0  0  0  0 
    3.3289    2.5031   -5.4850 C   0  0  0  0  0  0  0  0  0  0  0  0 
    2.4902    1.2261   -5.4179 C   0  0  1  0  0  0  0  0  0  0  0  0 
    4.1042    4.9541   -7.2377 C   0  0  0  0  0  0  0  0  0  0  0  0 
    3.1300    4.7545   -6.2329 C   0  0  0  0  0  0  0  0  0  0  0  0 
    2.6946   -1.1364   -5.0210 N   0  0  0  0  0  0  0  0  0  0  0  0 
    3.3868    0.1698   -4.9074 N   0  0  0  0  0  0  0  0  0  0  0  0 
    4.4260    3.8558   -7.9845 O   0  0  0  0  0  0  0  0  0  0  0  0 
    2.5201    3.5326   -6.0716 O   0  0  0  0  0  0  0  0  0  0  0  0 
    0.5443    2.1487   -5.0976 H   0  0  0  0  0  0  0  0  0  0  0  0 
    1.4107    1.7494   -3.6044 H   0  0  0  0  0  0  0  0  0  0  0  0 
    0.6588    0.4518   -4.5570 H   0  0  0  0  0  0  0  0  0  0  0  0 
    5.4662    3.0304   -9.4964 H   0  0  0  0  0  0  0  0  0  0  0  0 
    6.3550    4.3213   -8.6403 H   0  0  0  0  0  0  0  0  0  0  0  0 
    5.0359    4.7417   -9.7737 H   0  0  0  0  0  0  0  0  0  0  0  0 
    4.6849    8.2723   -6.7539 H   0  0  0  0  0  0  0  0  0  0  0  0 
    2.9502    7.9244   -4.9977 H   0  0  0  0  0  0  0  0  0  0  0  0 
    5.4096    6.3964   -8.1734 H   0  0  0  0  0  0  0  0  0  0  0  0 
    1.9661    5.6394   -4.6882 H   0  0  0  0  0  0  0  0  0  0  0  0 
    4.2258    2.3270   -6.0853 H   0  0  0  0  0  0  0  0  0  0  0  0 
    3.6375    2.8145   -4.4739 H   0  0  0  0  0  0  0  0  0  0  0  0 
    2.2445    0.9532   -6.4539 H   0  0  0  0  0  0  0  0  0  0  0  0 
    3.3934   -1.8032   -4.6825 H   0  0  0  0  0  0  0  0  0  0  0  0 
    2.6881   -1.3108   -6.0302 H   0  0  0  0  0  0  0  0  0  0  0  0 
    3.4396    0.3106   -3.8950 H   0  0  0  0  0  0  0  0  0  0  0  0 
  1 17  1  0  0  0  0 
  1 16  1  0  0  0  0 
  2 19  1  0  0  0  0 
  2 13  1  0  0  0  0 
  3  4  2  0  0  0  0 
  4  6  1  0  0  0  0 
  4 22  1  0  0  0  0 
  5  9  2  0  0  0  0 
  5  3  1  0  0  0  0 
  6 24  1  0  0  0  0 
  7  8  1  0  0  0  0 
  7 26  1  0  0  0  0 
  8 27  1  6  0  0  0 
  8 12  1  0  0  0  0 
  8  1  1  0  0  0  0 
  9 10  1  0  0  0  0 
 10 14  1  0  0  0  0 
 10  6  2  0  0  0  0 
 11 12  1  0  0  0  0 
 11 28  1  0  0  0  0 
 12 30  1  0  0  0  0 
 13  9  1  0  0  0  0 
 14  7  1  0  0  0  0 
 15  1  1  0  0  0  0 
 18  2  1  0  0  0  0 
 20  2  1  0  0  0  0 
 21  3  1  0  0  0  0 
 23  5  1  0  0  0  0 
 25  7  1  0  0  0  0 
 29 11  1  0  0  0  0 
M  END 
>  <HBA> 
4 
 
>  <HBD> 
2 
 
>  <TPSA> 
56.51 
 
>  <cid> 
51011 
 
>  <dipole> 
2.38 
 
>  <excitation_energy_1> 
4.793 
 
>  <excitation_energy_2> 
4.925 
 
>  <excitation_energy_3> 
5.026 
 
>  <excitation_energy_4> 
5.161 
 
>  <homo_energy> 
-5.276 
 
>  <homo_lumo_gap> 
5.475 
 
>  <logP> 
2.017 
 
>  <lumo_energy> 
0.199 
 
>  <melting_point> 
94.63 
 
>  <molecular_refractivity> 
54.55 
 
>  <oscillator_strength_1> 
0.0006 
 
>  <oscillator_strength_2> 
0.0031 
 
>  <oscillator_strength_3> 
0.0435 
 
>  <oscillator_strength_4> 
0.0095 
 
>  <open_babel_can_smiles> 
NN[C@H](COc1ccccc1OC)C 
 
>  <mulliken_charges> 
30 
1   -0.45032 
2   -0.214891 
3   -0.134248 
4   -0.142129 
5   -0.20734 
6   -0.173504 
7   -0.014485 
8   0.00841 
9   0.347387 
10   0.317387 
11   -0.59053 
12   -0.475352 
13   -0.506109 
14   -0.542501 
15   0.161697 
16   0.12361 
17   0.170251 
18   0.170366 
19   0.151681 
20   0.15361 
21   0.126462 
22   0.126565 
23   0.132071 
24   0.134616 
25   0.161339 
26   0.116057 
27   0.139786 
28   0.304366 
29   0.305261 
30   0.300487 
 
>  <lowdin_charges> 
30 
1   -0.46387 
2   -0.276637 
3   -0.157498 
4   -0.17396 
5   -0.210611 
6   -0.170894 
7   -0.128037 
8   -0.075329 
9   0.077653 
10   0.07087 
11   -0.492503 
12   -0.316158 
13   -0.193739 
14   -0.225398 
15   0.162011 
16   0.139209 
17   0.163198 
18   0.162876 
19   0.144217 
20   0.147155 
21   0.156751 
22   0.158536 
23   0.162416 
24   0.165839 
25   0.15183 
26   0.126424 
27   0.142473 
28   0.255724 
29   0.250713 
30   0.246738 
 
$$$$ 
 
