PCCDB-ID:  73265 
public computational chemistry database (PCCDB) project, http://pccdb.org 
 
 24 24  0  0  0  0  0  0  0  0999 V2000 
    0.5100   -0.0625   -0.9010 C   0  0  0  0  0  0  0  0  0  0  0  0 
    0.8950    1.4187   -0.8244 C   0  0  0  0  0  0  0  0  0  0  0  0 
    2.4010    1.6398   -1.0130 C   0  0  0  0  0  0  0  0  0  0  0  0 
    2.3994    4.8213   -4.2117 C   0  0  0  0  0  0  0  0  0  0  0  0 
    1.3394    5.6068   -3.8732 C   0  0  0  0  0  0  0  0  0  0  0  0 
    2.8698    3.0964   -0.8966 C   0  0  0  0  0  0  0  0  0  0  0  0 
    2.9791    3.9256   -3.2388 C   0  0  0  0  0  0  0  0  0  0  0  0 
    1.2818    4.8135   -1.7512 C   0  0  0  0  0  0  0  0  0  0  0  0 
    0.7594    5.6215   -2.6349 N   0  0  0  0  0  0  0  0  0  0  0  0 
    2.3288    3.9745   -1.9570 N   0  0  0  0  0  0  0  0  0  0  0  0 
    3.9281    3.1697   -3.4040 O   0  0  0  0  0  0  0  0  0  0  0  0 
    0.7578    4.7893   -0.5118 O   0  0  0  0  0  0  0  0  0  0  0  0 
   -0.5686   -0.2016   -0.7673 H   0  0  0  0  0  0  0  0  0  0  0  0 
    1.0205   -0.6460   -0.1249 H   0  0  0  0  0  0  0  0  0  0  0  0 
    0.7848   -0.4925   -1.8718 H   0  0  0  0  0  0  0  0  0  0  0  0 
    0.5793    1.8353    0.1415 H   0  0  0  0  0  0  0  0  0  0  0  0 
    0.3415    1.9748   -1.5928 H   0  0  0  0  0  0  0  0  0  0  0  0 
    2.7246    1.2489   -1.9844 H   0  0  0  0  0  0  0  0  0  0  0  0 
    2.9511    1.0698   -0.2507 H   0  0  0  0  0  0  0  0  0  0  0  0 
    2.8406    4.8341   -5.2006 H   0  0  0  0  0  0  0  0  0  0  0  0 
    0.8912    6.2828   -4.5976 H   0  0  0  0  0  0  0  0  0  0  0  0 
    3.9555    3.1380   -1.0035 H   0  0  0  0  0  0  0  0  0  0  0  0 
    2.5871    3.5275    0.0643 H   0  0  0  0  0  0  0  0  0  0  0  0 
    0.0333    5.4413   -0.5333 H   0  0  0  0  0  0  0  0  0  0  0  0 
  1  2  1  0  0  0  0 
  1 13  1  0  0  0  0 
  1 14  1  0  0  0  0 
  2 16  1  0  0  0  0 
  3  6  1  0  0  0  0 
  3  2  1  0  0  0  0 
  3 19  1  0  0  0  0 
  4  5  2  0  0  0  0 
  4  7  1  0  0  0  0 
  5  9  1  0  0  0  0 
  6 23  1  0  0  0  0 
  7 10  1  0  0  0  0 
  8 12  1  0  0  0  0 
  9  8  2  0  0  0  0 
 10  8  1  0  0  0  0 
 10  6  1  0  0  0  0 
 11  7  2  0  0  0  0 
 15  1  1  0  0  0  0 
 17  2  1  0  0  0  0 
 18  3  1  0  0  0  0 
 20  4  1  0  0  0  0 
 21  5  1  0  0  0  0 
 22  6  1  0  0  0  0 
 24 12  1  0  0  0  0 
M  END 
>  <HBA> 
3 
 
>  <HBD> 
1 
 
>  <TPSA> 
54.86 
 
>  <cid> 
73265 
 
>  <dipole> 
2.92 
 
>  <excitation_energy_1> 
4.848 
 
>  <excitation_energy_2> 
4.907 
 
>  <excitation_energy_3> 
5.658 
 
>  <excitation_energy_4> 
5.693 
 
>  <homo_energy> 
-6.319 
 
>  <homo_lumo_gap> 
5.429 
 
>  <logP> 
0.337 
 
>  <lumo_energy> 
-0.89 
 
>  <melting_point> 
121.65 
 
>  <molecular_refractivity> 
47.01 
 
>  <oscillator_strength_1> 
0.0725 
 
>  <oscillator_strength_2> 
0.0346 
 
>  <oscillator_strength_3> 
0.0007 
 
>  <oscillator_strength_4> 
0.0002 
 
>  <open_babel_can_smiles> 
CCCCn1c(O)nccc1=O 
 
>  <mulliken_charges> 
24 
1   -0.442596 
2   -0.251374 
3   -0.261671 
4   -0.215917 
5   0.043209 
6   -0.160432 
7   0.603868 
8   0.735493 
9   -0.520862 
10   -0.509955 
11   -0.532036 
12   -0.602248 
13   0.143791 
14   0.142742 
15   0.147274 
16   0.136314 
17   0.135808 
18   0.170847 
19   0.138627 
20   0.152928 
21   0.154356 
22   0.18547 
23   0.175361 
24   0.431004 
 
>  <lowdin_charges> 
24 
1   -0.442932 
2   -0.277254 
3   -0.281479 
4   -0.241643 
5   -0.059857 
6   -0.196025 
7   0.162009 
8   0.182667 
9   -0.244667 
10   -0.053668 
11   -0.302949 
12   -0.343988 
13   0.148819 
14   0.148003 
15   0.149286 
16   0.141594 
17   0.14236 
18   0.15985 
19   0.150377 
20   0.179293 
21   0.166053 
22   0.17245 
23   0.165492 
24   0.37621 
 
$$$$ 
 
