PCCDB-ID:  20750 
public computational chemistry database (PCCDB) project, http://pccdb.org 
 
 13 12  0  0  0  0  0  0  0  0999 V2000 
    0.7807    0.0371   -0.1087 C   0  0  0  0  0  0  0  0  0  0  0  0 
    2.2778    0.0917   -0.1977 C   0  0  0  0  0  0  0  0  0  0  0  0 
    3.0481   -0.8546   -0.7367 C   0  0  0  0  0  0  0  0  0  0  0  0 
    4.5565   -0.7632   -0.8274 C   0  0  0  0  0  0  0  0  0  0  0  0 
    5.2296   -1.8753   -0.1396 C   0  0  0  0  0  0  0  0  0  0  0  0 
    5.7465   -2.7630    0.4009 N   0  0  0  0  0  0  0  0  0  0  0  0 
    0.4477    0.0936    0.9360 H   0  0  0  0  0  0  0  0  0  0  0  0 
    0.3832   -0.8856   -0.5436 H   0  0  0  0  0  0  0  0  0  0  0  0 
    0.3226    0.8872   -0.6314 H   0  0  0  0  0  0  0  0  0  0  0  0 
    2.7520    0.9836    0.2162 H   0  0  0  0  0  0  0  0  0  0  0  0 
    2.6003   -1.7587   -1.1473 H   0  0  0  0  0  0  0  0  0  0  0  0 
    4.9106    0.1803   -0.3953 H   0  0  0  0  0  0  0  0  0  0  0  0 
    4.8840   -0.7741   -1.8770 H   0  0  0  0  0  0  0  0  0  0  0  0 
  1  7  1  0  0  0  0 
  2  1  1  0  0  0  0 
  2 10  1  0  0  0  0 
  3  2  2  0  0  0  0 
  4  3  1  0  0  0  0 
  4 12  1  0  0  0  0 
  4  5  1  0  0  0  0 
  5  6  3  0  0  0  0 
  8  1  1  0  0  0  0 
  9  1  1  0  0  0  0 
 11  3  1  0  0  0  0 
 13  4  1  0  0  0  0 
M  END 
>  <HBA> 
1 
 
>  <HBD> 
0 
 
>  <TPSA> 
23.79 
 
>  <cid> 
20750 
 
>  <dipole> 
4.21 
 
>  <excitation_energy_1> 
6.414 
 
>  <excitation_energy_2> 
6.901 
 
>  <excitation_energy_3> 
6.932 
 
>  <excitation_energy_4> 
7.073 
 
>  <homo_energy> 
-7.23 
 
>  <homo_lumo_gap> 
7.268 
 
>  <logP> 
1.476 
 
>  <lumo_energy> 
0.038 
 
>  <melting_point> 
17.79 
 
>  <molecular_refractivity> 
25.42 
 
>  <oscillator_strength_1> 
0.031 
 
>  <oscillator_strength_2> 
0.1226 
 
>  <oscillator_strength_3> 
0.0245 
 
>  <oscillator_strength_4> 
0.1385 
 
>  <open_babel_can_smiles> 
C/C=C/CC#N 
 
>  <mulliken_charges> 
13 
1   -0.489555 
2   -0.080832 
3   -0.083678 
4   -0.392506 
5   0.353624 
6   -0.465466 
7   0.165611 
8   0.159983 
9   0.161842 
10   0.12973 
11   0.143877 
12   0.19655 
13   0.200821 
 
>  <lowdin_charges> 
13 
1   -0.437924 
2   -0.146399 
3   -0.169244 
4   -0.266604 
5   -0.014876 
6   -0.127965 
7   0.162163 
8   0.159349 
9   0.162107 
10   0.151592 
11   0.160284 
12   0.183611 
13   0.183906 
 
$$$$ 
 
