PCCDB-ID:  27749 
public computational chemistry database (PCCDB) project, http://pccdb.org 
 
 39 41  0  0  1  0  0  0  0  0999 V2000 
    2.4906    2.1406    0.3292 C   0  0  0  0  0  0  0  0  0  0  0  0 
    2.7001    0.6065    2.9376 C   0  0  0  0  0  0  0  0  0  0  0  0 
    2.5329   -0.9675    1.0182 C   0  0  0  0  0  0  0  0  0  0  0  0 
    5.2883    2.5633   -0.8394 C   0  0  0  0  0  0  0  0  0  0  0  0 
    6.8094    2.3768   -1.0405 C   0  0  0  0  0  0  0  0  0  0  0  0 
    5.7479    0.3380    2.9151 C   0  0  0  0  0  0  0  0  0  0  0  0 
    6.6650    1.0858    1.9029 C   0  0  0  0  0  0  0  0  0  0  0  0 
    5.6632   -0.7963    0.8038 C   0  0  0  0  0  0  0  0  0  0  0  0 
    3.6737    1.2700    0.6888 C   0  0  0  0  0  0  0  0  0  0  0  0 
    4.8014   -0.5556    2.0602 C   0  0  2  0  0  0  0  0  0  0  0  0 
    4.8924    1.4930    0.1716 C   0  0  0  0  0  0  0  0  0  0  0  0 
    7.0512    0.8892   -0.6922 C   0  0  1  0  0  0  0  0  0  0  0  0 
    8.4985    0.4450   -0.5022 C   0  0  0  0  0  0  0  0  0  0  0  0 
    3.4399    0.1086    1.6722 C   0  0  0  0  0  0  0  0  0  0  0  0 
    6.1150    0.6405    0.5160 C   0  0  1  0  0  0  0  0  0  0  0  0 
    8.8348   -0.5192    0.1421 O   0  0  0  0  0  0  0  0  0  0  0  0 
    9.4465    1.1753   -1.1524 O   0  0  0  0  0  0  0  0  0  0  0  0 
    2.7200    2.8172   -0.4985 H   0  0  0  0  0  0  0  0  0  0  0  0 
    2.1717    2.7593    1.1790 H   0  0  0  0  0  0  0  0  0  0  0  0 
    1.6182    1.5448    0.0341 H   0  0  0  0  0  0  0  0  0  0  0  0 
    1.6708    0.8991    2.7034 H   0  0  0  0  0  0  0  0  0  0  0  0 
    3.1888    1.4703    3.3984 H   0  0  0  0  0  0  0  0  0  0  0  0 
    2.6512   -0.1930    3.6872 H   0  0  0  0  0  0  0  0  0  0  0  0 
    1.5589   -0.5545    0.7353 H   0  0  0  0  0  0  0  0  0  0  0  0 
    2.3469   -1.7853    1.7256 H   0  0  0  0  0  0  0  0  0  0  0  0 
    2.9839   -1.3965    0.1184 H   0  0  0  0  0  0  0  0  0  0  0  0 
    4.7619    2.4079   -1.7914 H   0  0  0  0  0  0  0  0  0  0  0  0 
    5.0453    3.5813   -0.5140 H   0  0  0  0  0  0  0  0  0  0  0  0 
    7.3662    3.0169   -0.3445 H   0  0  0  0  0  0  0  0  0  0  0  0 
    7.1175    2.6454   -2.0596 H   0  0  0  0  0  0  0  0  0  0  0  0 
    5.2098    1.0252    3.5716 H   0  0  0  0  0  0  0  0  0  0  0  0 
    6.3550   -0.3009    3.5656 H   0  0  0  0  0  0  0  0  0  0  0  0 
    7.7056    0.7679    2.0173 H   0  0  0  0  0  0  0  0  0  0  0  0 
    6.6289    2.1728    2.0330 H   0  0  0  0  0  0  0  0  0  0  0  0 
    5.1170   -1.2386   -0.0357 H   0  0  0  0  0  0  0  0  0  0  0  0 
    6.5254   -1.4333    1.0268 H   0  0  0  0  0  0  0  0  0  0  0  0 
    4.5730   -1.4880    2.5909 H   0  0  0  0  0  0  0  0  0  0  0  0 
    6.6735    0.2805   -1.5299 H   0  0  0  0  0  0  0  0  0  0  0  0 
    9.0303    1.9141   -1.6256 H   0  0  0  0  0  0  0  0  0  0  0  0 
  1  9  1  0  0  0  0 
  1 19  1  0  0  0  0 
  2 22  1  0  0  0  0 
  2 23  1  0  0  0  0 
  3 14  1  0  0  0  0 
  3 25  1  0  0  0  0 
  4 28  1  0  0  0  0 
  4 11  1  0  0  0  0 
  5  4  1  0  0  0  0 
  5 12  1  0  0  0  0 
  5 29  1  0  0  0  0 
  6 32  1  0  0  0  0 
  6 31  1  0  0  0  0 
  7 33  1  0  0  0  0 
  7 34  1  0  0  0  0 
  7  6  1  0  0  0  0 
  8 36  1  0  0  0  0 
  8 10  1  0  0  0  0 
  9 14  1  0  0  0  0 
 10 37  1  1  0  0  0 
 10  6  1  0  0  0  0 
 11  9  2  0  0  0  0 
 12 38  1  6  0  0  0 
 12 13  1  0  0  0  0 
 12 15  1  0  0  0  0 
 13 16  2  0  0  0  0 
 14 10  1  0  0  0  0 
 14  2  1  0  0  0  0 
 15 11  1  6  0  0  0 
 15  8  1  0  0  0  0 
 15  7  1  0  0  0  0 
 17 13  1  0  0  0  0 
 18  1  1  0  0  0  0 
 20  1  1  0  0  0  0 
 21  2  1  0  0  0  0 
 24  3  1  0  0  0  0 
 26  3  1  0  0  0  0 
 27  4  1  0  0  0  0 
 30  5  1  0  0  0  0 
 35  8  1  0  0  0  0 
 39 17  1  0  0  0  0 
M  END 
>  <HBA> 
2 
 
>  <HBD> 
1 
 
>  <TPSA> 
37.3 
 
>  <cid> 
27749 
 
>  <dipole> 
4.23 
 
>  <excitation_energy_1> 
5.111 
 
>  <excitation_energy_2> 
5.486 
 
>  <excitation_energy_3> 
5.544 
 
>  <excitation_energy_4> 
5.559 
 
>  <homo_energy> 
-6.036 
 
>  <homo_lumo_gap> 
6.31 
 
>  <logP> 
3.624 
 
>  <lumo_energy> 
0.275 
 
>  <melting_point> 
166.36 
 
>  <molecular_refractivity> 
68.65 
 
>  <oscillator_strength_1> 
0.0008 
 
>  <oscillator_strength_2> 
0.0022 
 
>  <oscillator_strength_3> 
0.0003 
 
>  <oscillator_strength_4> 
0.0053 
 
>  <open_babel_can_smiles> 
OC(=O)[C@@H]1CCC2=C(C([C@H]3C[C@@]12CC3)(C)C)C 
 
>  <mulliken_charges> 
39 
1   -0.532472 
2   -0.460657 
3   -0.454923 
4   -0.33448 
5   -0.334681 
6   -0.282813 
7   -0.287024 
8   -0.297039 
9   0.0996 
10   -0.107929 
11   0.081131 
12   -0.247015 
13   0.608221 
14   0.048631 
15   0.050016 
16   -0.451332 
17   -0.576914 
18   0.151287 
19   0.157981 
20   0.154097 
21   0.141525 
22   0.147245 
23   0.141312 
24   0.139206 
25   0.14051 
26   0.146888 
27   0.153658 
28   0.154511 
29   0.159157 
30   0.133827 
31   0.137042 
32   0.142553 
33   0.160175 
34   0.127009 
35   0.128646 
36   0.163705 
37   0.111391 
38   0.170457 
39   0.417497 
 
>  <lowdin_charges> 
39 
1   -0.446473 
2   -0.444405 
3   -0.444651 
4   -0.278778 
5   -0.298323 
6   -0.287109 
7   -0.284262 
8   -0.282986 
9   -0.027762 
10   -0.128825 
11   -0.043896 
12   -0.170044 
13   0.194488 
14   0.011436 
15   0.006558 
16   -0.244239 
17   -0.356647 
18   0.156621 
19   0.157958 
20   0.155093 
21   0.147611 
22   0.149708 
23   0.150157 
24   0.146175 
25   0.148661 
26   0.149655 
27   0.154195 
28   0.155232 
29   0.15152 
30   0.14112 
31   0.148114 
32   0.151714 
33   0.15367 
34   0.138409 
35   0.142549 
36   0.159799 
37   0.139597 
38   0.169279 
39   0.359079 
 
$$$$ 
 
