PCCDB-ID:  44773 
public computational chemistry database (PCCDB) project, http://pccdb.org 
 
 28 29  0  0  0  0  0  0  0  0999 V2000 
    1.2054    1.4171   -0.3607 C   0  0  0  0  0  0  0  0  0  0  0  0 
   -1.2853    1.3398   -0.3117 C   0  0  0  0  0  0  0  0  0  0  0  0 
    2.4128    0.7685   -0.2671 C   0  0  0  0  0  0  0  0  0  0  0  0 
   -2.4481    0.6183   -0.1726 C   0  0  0  0  0  0  0  0  0  0  0  0 
    1.2947   -1.3501    0.0769 C   0  0  0  0  0  0  0  0  0  0  0  0 
   -1.1856   -1.4248    0.1253 C   0  0  0  0  0  0  0  0  0  0  0  0 
   -0.0177    0.7058   -0.2312 C   0  0  0  0  0  0  0  0  0  0  0  0 
    2.4729   -0.6363   -0.0436 C   0  0  0  0  0  0  0  0  0  0  0  0 
   -2.4103   -0.7885    0.0436 C   0  0  0  0  0  0  0  0  0  0  0  0 
    0.0309   -0.7084   -0.0089 C   0  0  0  0  0  0  0  0  0  0  0  0 
    3.8048   -1.3072    0.0772 C   0  0  0  0  0  0  0  0  0  0  0  0 
   -3.6753   -1.5769    0.1800 C   0  0  0  0  0  0  0  0  0  0  0  0 
    4.8654   -0.7908    0.5861 N   0  0  0  0  0  0  0  0  0  0  0  0 
    3.8389   -2.6248   -0.3619 N   0  0  0  0  0  0  0  0  0  0  0  0 
   -3.8728   -2.7718   -0.2483 N   0  0  0  0  0  0  0  0  0  0  0  0 
   -4.7230   -0.8952    0.7877 N   0  0  0  0  0  0  0  0  0  0  0  0 
    1.1726    2.4885   -0.5428 H   0  0  0  0  0  0  0  0  0  0  0  0 
   -1.3250    2.4117   -0.4902 H   0  0  0  0  0  0  0  0  0  0  0  0 
    3.3402    1.3213   -0.3872 H   0  0  0  0  0  0  0  0  0  0  0  0 
   -3.4128    1.1098   -0.2502 H   0  0  0  0  0  0  0  0  0  0  0  0 
    1.3309   -2.4193    0.2667 H   0  0  0  0  0  0  0  0  0  0  0  0 
   -1.1459   -2.4944    0.3170 H   0  0  0  0  0  0  0  0  0  0  0  0 
    4.6601    0.1279    0.9828 H   0  0  0  0  0  0  0  0  0  0  0  0 
    3.3070   -2.8307   -1.1984 H   0  0  0  0  0  0  0  0  0  0  0  0 
    4.7788   -3.0056   -0.3733 H   0  0  0  0  0  0  0  0  0  0  0  0 
   -3.0661   -3.0915   -0.7872 H   0  0  0  0  0  0  0  0  0  0  0  0 
   -4.4761   -0.2948    1.5649 H   0  0  0  0  0  0  0  0  0  0  0  0 
   -5.5175   -1.4966    0.9771 H   0  0  0  0  0  0  0  0  0  0  0  0 
  1  3  2  0  0  0  0 
  1  7  1  0  0  0  0 
  2  7  2  0  0  0  0 
  2  4  1  0  0  0  0 
  3  8  1  0  0  0  0 
  4  9  2  0  0  0  0 
  5 21  1  0  0  0  0 
  6 22  1  0  0  0  0 
  7 10  1  0  0  0  0 
  8  5  2  0  0  0  0 
  8 11  1  0  0  0  0 
  9  6  1  0  0  0  0 
  9 12  1  0  0  0  0 
 10  5  1  0  0  0  0 
 10  6  2  0  0  0  0 
 11 13  1  0  0  0  0 
 12 16  2  0  0  0  0 
 13 23  1  0  0  0  0 
 14 11  2  0  0  0  0 
 15 12  1  0  0  0  0 
 16 28  1  0  0  0  0 
 16 27  1  0  0  0  0 
 17  1  1  0  0  0  0 
 18  2  1  0  0  0  0 
 19  3  1  0  0  0  0 
 20  4  1  0  0  0  0 
 24 14  1  0  0  0  0 
 25 14  1  0  0  0  0 
 26 15  1  0  0  0  0 
M  RAD  2  13   2  15   2 
M  END 
>  <HBA> 
4 
 
>  <HBD> 
4 
 
>  <TPSA> 
99.74 
 
>  <cid> 
44773 
 
>  <dipole> 
2.11 
 
>  <excitation_energy_1> 
4.027 
 
>  <excitation_energy_2> 
4.092 
 
>  <excitation_energy_3> 
4.402 
 
>  <excitation_energy_4> 
4.422 
 
>  <homo_energy> 
-6.172 
 
>  <homo_lumo_gap> 
4.523 
 
>  <logP> 
3.008 
 
>  <lumo_energy> 
-1.649 
 
>  <melting_point> 
228.42 
 
>  <molecular_refractivity> 
66.48 
 
>  <oscillator_strength_1> 
0.0013 
 
>  <oscillator_strength_2> 
0.014 
 
>  <oscillator_strength_3> 
0.0098 
 
>  <oscillator_strength_4> 
0.0905 
 
>  <open_babel_can_smiles> 
[NH]C(=[NH2])c1ccc2c(c1)cc(cc2)C(=[NH2])[NH] 
 
>  <mulliken_charges> 
28 
1   -0.197569 
2   -0.195466 
3   -0.182824 
4   -0.177028 
5   -0.254498 
6   -0.256728 
7   0.147858 
8   0.09464 
9   0.093636 
10   0.140388 
11   0.37703 
12   0.37294 
13   -0.620143 
14   -0.736648 
15   -0.618081 
16   -0.737211 
17   0.138809 
18   0.138295 
19   0.143407 
20   0.15268 
21   0.153931 
22   0.14469 
23   0.281056 
24   0.322748 
25   0.335223 
26   0.280101 
27   0.32341 
28   0.335353 
 
>  <lowdin_charges> 
28 
1   -0.149878 
2   -0.150094 
3   -0.156398 
4   -0.158286 
5   -0.151608 
6   -0.148698 
7   0.004182 
8   -0.034582 
9   -0.034513 
10   -0.000537 
11   0.092077 
12   0.08941 
13   -0.431154 
14   -0.47765 
15   -0.432269 
16   -0.478245 
17   0.16041 
18   0.16001 
19   0.165503 
20   0.170209 
21   0.167606 
22   0.162771 
23   0.25183 
24   0.278217 
25   0.284412 
26   0.252519 
27   0.278829 
28   0.285929 
 
$$$$ 
 
