PCCDB-ID:  72877 
public computational chemistry database (PCCDB) project, http://pccdb.org 
 
 18 18  0  0  0  0  0  0  0  0999 V2000 
   -1.4210   -0.0680   -0.0181 C   0  0  0  0  0  0  0  0  0  0  0  0 
   -0.7946    1.1767   -0.0759 C   0  0  0  0  0  0  0  0  0  0  0  0 
    0.7414   -1.1304   -0.0662 C   0  0  0  0  0  0  0  0  0  0  0  0 
   -0.6497   -1.2310   -0.0057 C   0  0  0  0  0  0  0  0  0  0  0  0 
    1.3871    0.1120   -0.1318 C   0  0  0  0  0  0  0  0  0  0  0  0 
    0.5958    1.2809   -0.1251 C   0  0  0  0  0  0  0  0  0  0  0  0 
    2.8841    0.1609   -0.1844 C   0  0  0  0  0  0  0  0  0  0  0  0 
    3.6585    1.0339    0.3151 N   0  0  0  0  0  0  0  0  0  0  0  0 
   -1.1870   -2.4886    0.0636 O   0  0  0  0  0  0  0  0  0  0  0  0 
    1.2265    2.4971   -0.1723 O   0  0  0  0  0  0  0  0  0  0  0  0 
    3.4714   -0.9055   -0.8123 O   0  0  0  0  0  0  0  0  0  0  0  0 
   -2.5067   -0.1251    0.0229 H   0  0  0  0  0  0  0  0  0  0  0  0 
   -1.4001    2.0811   -0.0840 H   0  0  0  0  0  0  0  0  0  0  0  0 
    1.3229   -2.0460   -0.0249 H   0  0  0  0  0  0  0  0  0  0  0  0 
    3.1127    1.7589    0.7790 H   0  0  0  0  0  0  0  0  0  0  0  0 
   -2.1522   -2.4192    0.1230 H   0  0  0  0  0  0  0  0  0  0  0  0 
    0.5568    3.1983   -0.1908 H   0  0  0  0  0  0  0  0  0  0  0  0 
    2.8146   -1.3331   -1.3830 H   0  0  0  0  0  0  0  0  0  0  0  0 
  1  4  1  0  0  0  0 
  1 12  1  0  0  0  0 
  2  1  2  0  0  0  0 
  3 14  1  0  0  0  0 
  3  4  2  0  0  0  0 
  4  9  1  0  0  0  0 
  5  6  2  0  0  0  0 
  5  3  1  0  0  0  0 
  6  2  1  0  0  0  0 
  7  5  1  0  0  0  0 
  7  8  2  0  0  0  0 
  8 15  1  0  0  0  0 
  9 16  1  0  0  0  0 
 10  6  1  0  0  0  0 
 11  7  1  0  0  0  0 
 13  2  1  0  0  0  0 
 17 10  1  0  0  0  0 
 18 11  1  0  0  0  0 
M  END 
>  <HBA> 
4 
 
>  <HBD> 
3 
 
>  <TPSA> 
83.55 
 
>  <cid> 
72877 
 
>  <dipole> 
7.13 
 
>  <excitation_energy_1> 
4.26 
 
>  <excitation_energy_2> 
4.831 
 
>  <excitation_energy_3> 
4.953 
 
>  <excitation_energy_4> 
5.079 
 
>  <homo_energy> 
-5.962 
 
>  <homo_lumo_gap> 
4.901 
 
>  <logP> 
0.897 
 
>  <lumo_energy> 
-1.061 
 
>  <melting_point> 
175.07 
 
>  <molecular_refractivity> 
38.58 
 
>  <oscillator_strength_1> 
0.0897 
 
>  <oscillator_strength_2> 
0.0061 
 
>  <oscillator_strength_3> 
0.0005 
 
>  <oscillator_strength_4> 
0.0003 
 
>  <open_babel_can_smiles> 
Oc1ccc(c(c1)C(=N)O)O 
 
>  <mulliken_charges> 
18 
1   -0.193517 
2   -0.193344 
3   -0.25505 
4   0.359876 
5   0.041588 
6   0.301704 
7   0.440925 
8   -0.583613 
9   -0.645188 
10   -0.64336 
11   -0.581929 
12   0.13038 
13   0.129409 
14   0.159512 
15   0.306012 
16   0.409492 
17   0.413182 
18   0.403922 
 
>  <lowdin_charges> 
18 
1   -0.191966 
2   -0.19682 
3   -0.186166 
4   0.089676 
5   -0.063539 
6   0.090559 
7   0.127973 
8   -0.37912 
9   -0.3772 
10   -0.375522 
11   -0.372061 
12   0.157721 
13   0.159546 
14   0.175987 
15   0.266097 
16   0.357375 
17   0.362297 
18   0.355163 
 
$$$$ 
 
