PCCDB-ID:  23550 
public computational chemistry database (PCCDB) project, http://pccdb.org 
 
 28 28  0  0  0  0  0  0  0  0999 V2000 
    3.8295    3.9952    0.8728 C   0  0  0  0  0  0  0  0  0  0  0  0 
    2.8491    5.3573   -0.9581 C   0  0  0  0  0  0  0  0  0  0  0  0 
   -2.6688   -1.7613    3.3620 C   0  0  0  0  0  0  0  0  0  0  0  0 
   -0.9877    1.9923    0.8529 C   0  0  0  0  0  0  0  0  0  0  0  0 
    0.5236    0.8052    2.3101 C   0  0  0  0  0  0  0  0  0  0  0  0 
   -2.0052    1.1262    1.2330 C   0  0  0  0  0  0  0  0  0  0  0  0 
   -0.4991   -0.0654    2.6908 C   0  0  0  0  0  0  0  0  0  0  0  0 
    0.3017    1.8386    1.3928 C   0  0  0  0  0  0  0  0  0  0  0  0 
   -1.7783    0.0921    2.1501 C   0  0  0  0  0  0  0  0  0  0  0  0 
    1.4427    3.7126    0.1621 C   0  0  0  0  0  0  0  0  0  0  0  0 
    1.3988    2.6720    1.0767 N   0  0  0  0  0  0  0  0  0  0  0  0 
    2.6580    4.3825    0.1066 N   0  0  0  0  0  0  0  0  0  0  0  0 
    0.4855    4.0349   -0.5377 O   0  0  0  0  0  0  0  0  0  0  0  0 
   -2.8576   -0.6974    2.4474 O   0  0  0  0  0  0  0  0  0  0  0  0 
    4.2715    3.0431    0.5376 H   0  0  0  0  0  0  0  0  0  0  0  0 
    3.6046    3.9254    1.9445 H   0  0  0  0  0  0  0  0  0  0  0  0 
    4.5917    4.7700    0.7601 H   0  0  0  0  0  0  0  0  0  0  0  0 
    3.2493    6.2929   -0.5488 H   0  0  0  0  0  0  0  0  0  0  0  0 
    1.8822    5.5496   -1.4201 H   0  0  0  0  0  0  0  0  0  0  0  0 
    3.5448    4.9860   -1.7246 H   0  0  0  0  0  0  0  0  0  0  0  0 
   -3.6366   -2.2591    3.4500 H   0  0  0  0  0  0  0  0  0  0  0  0 
   -2.3598   -1.3968    4.3517 H   0  0  0  0  0  0  0  0  0  0  0  0 
   -1.9233   -2.4822    2.9986 H   0  0  0  0  0  0  0  0  0  0  0  0 
   -1.1727    2.7833    0.1406 H   0  0  0  0  0  0  0  0  0  0  0  0 
    1.5143    0.6689    2.7410 H   0  0  0  0  0  0  0  0  0  0  0  0 
   -3.0022    1.2387    0.8180 H   0  0  0  0  0  0  0  0  0  0  0  0 
   -0.2822   -0.8508    3.4058 H   0  0  0  0  0  0  0  0  0  0  0  0 
    2.2530    2.4239    1.5508 H   0  0  0  0  0  0  0  0  0  0  0  0 
  1 16  1  0  0  0  0 
  2 18  1  0  0  0  0 
  2 12  1  0  0  0  0 
  3 21  1  0  0  0  0 
  3 22  1  0  0  0  0 
  4  6  2  0  0  0  0 
  4  8  1  0  0  0  0 
  5  7  1  0  0  0  0 
  5 25  1  0  0  0  0 
  6  9  1  0  0  0  0 
  7 27  1  0  0  0  0 
  8  5  2  0  0  0  0 
  9 14  1  0  0  0  0 
  9  7  2  0  0  0  0 
 10 11  1  0  0  0  0 
 11  8  1  0  0  0  0 
 11 28  1  0  0  0  0 
 12 10  1  0  0  0  0 
 12  1  1  0  0  0  0 
 13 10  2  0  0  0  0 
 14  3  1  0  0  0  0 
 15  1  1  0  0  0  0 
 17  1  1  0  0  0  0 
 19  2  1  0  0  0  0 
 20  2  1  0  0  0  0 
 23  3  1  0  0  0  0 
 24  4  1  0  0  0  0 
 26  6  1  0  0  0  0 
M  END 
>  <HBA> 
4 
 
>  <HBD> 
1 
 
>  <TPSA> 
41.57 
 
>  <cid> 
23550 
 
>  <dipole> 
4.88 
 
>  <excitation_energy_1> 
4.448 
 
>  <excitation_energy_2> 
4.537 
 
>  <excitation_energy_3> 
4.966 
 
>  <excitation_energy_4> 
5.085 
 
>  <homo_energy> 
-5.167 
 
>  <homo_lumo_gap> 
5.331 
 
>  <logP> 
1.862 
 
>  <lumo_energy> 
0.163 
 
>  <melting_point> 
77.01 
 
>  <molecular_refractivity> 
55.34 
 
>  <oscillator_strength_1> 
0.0015 
 
>  <oscillator_strength_2> 
0.0525 
 
>  <oscillator_strength_3> 
0.0095 
 
>  <oscillator_strength_4> 
0.438 
 
>  <open_babel_can_smiles> 
COc1ccc(cc1)NC(=O)N(C)C 
 
>  <mulliken_charges> 
28 
1   -0.336348 
2   -0.319158 
3   -0.21156 
4   -0.162481 
5   -0.21677 
6   -0.190342 
7   -0.198229 
8   0.366495 
9   0.376959 
10   0.798095 
11   -0.771349 
12   -0.443236 
13   -0.544185 
14   -0.510566 
15   0.1578 
16   0.163559 
17   0.173837 
18   0.148783 
19   0.210009 
20   0.147645 
21   0.167285 
22   0.147109 
23   0.147353 
24   0.188707 
25   0.113604 
26   0.13908 
27   0.128056 
28   0.329844 
 
>  <lowdin_charges> 
28 
1   -0.359096 
2   -0.35369 
3   -0.277696 
4   -0.171303 
5   -0.186672 
6   -0.172206 
7   -0.208112 
8   0.047558 
9   0.086525 
10   0.191639 
11   -0.261331 
12   -0.134986 
13   -0.338829 
14   -0.2026 
15   0.144703 
16   0.151617 
17   0.169271 
18   0.147114 
19   0.187363 
20   0.143534 
21   0.161314 
22   0.141346 
23   0.143198 
24   0.190781 
25   0.148155 
26   0.166573 
27   0.161746 
28   0.284084 
 
$$$$ 
 
