PCCDB-ID:  15846 
public computational chemistry database (PCCDB) project, http://pccdb.org 
 
 20 20  0  0  0  0  0  0  0  0999 V2000 
   -1.8982    0.4867    0.1058 C   0  0  0  0  0  0  0  0  0  0  0  0 
   -0.9749    1.5305    0.0187 C   0  0  0  0  0  0  0  0  0  0  0  0 
   -1.4495   -0.8345    0.1350 C   0  0  0  0  0  0  0  0  0  0  0  0 
    0.3903    1.2509   -0.0376 C   0  0  0  0  0  0  0  0  0  0  0  0 
   -0.0831   -1.1122    0.0788 C   0  0  0  0  0  0  0  0  0  0  0  0 
    2.3353   -0.3611   -0.0428 C   0  0  0  0  0  0  0  0  0  0  0  0 
    2.4666   -1.4141    2.2439 C   0  0  0  0  0  0  0  0  0  0  0  0 
    4.4574   -0.4268    1.2893 C   0  0  0  0  0  0  0  0  0  0  0  0 
    0.8515   -0.0723   -0.0057 C   0  0  0  0  0  0  0  0  0  0  0  0 
    2.9893   -0.3386    1.3832 C   0  0  0  0  0  0  0  0  0  0  0  0 
    2.0399   -2.2676    2.9029 N   0  0  0  0  0  0  0  0  0  0  0  0 
    5.6107   -0.4732    1.1756 N   0  0  0  0  0  0  0  0  0  0  0  0 
   -2.9623    0.7022    0.1455 H   0  0  0  0  0  0  0  0  0  0  0  0 
   -1.3171    2.5612   -0.0130 H   0  0  0  0  0  0  0  0  0  0  0  0 
   -2.1622   -1.6517    0.2001 H   0  0  0  0  0  0  0  0  0  0  0  0 
    1.1046    2.0683   -0.1164 H   0  0  0  0  0  0  0  0  0  0  0  0 
    0.2597   -2.1433    0.1054 H   0  0  0  0  0  0  0  0  0  0  0  0 
    2.8602    0.3924   -0.6389 H   0  0  0  0  0  0  0  0  0  0  0  0 
    2.5400   -1.3364   -0.4943 H   0  0  0  0  0  0  0  0  0  0  0  0 
    2.7410    0.6194    1.8597 H   0  0  0  0  0  0  0  0  0  0  0  0 
  1  3  1  0  0  0  0 
  1 13  1  0  0  0  0 
  2  1  2  0  0  0  0 
  3 15  1  0  0  0  0 
  4  9  2  0  0  0  0 
  4  2  1  0  0  0  0 
  5 17  1  0  0  0  0 
  5  3  2  0  0  0  0 
  6  9  1  0  0  0  0 
  6 10  1  0  0  0  0 
  7 11  3  0  0  0  0 
  8 10  1  0  0  0  0 
  9  5  1  0  0  0  0 
 10 20  1  0  0  0  0 
 10  7  1  0  0  0  0 
 12  8  3  0  0  0  0 
 14  2  1  0  0  0  0 
 16  4  1  0  0  0  0 
 18  6  1  0  0  0  0 
 19  6  1  0  0  0  0 
M  END 
>  <HBA> 
2 
 
>  <HBD> 
0 
 
>  <TPSA> 
47.58 
 
>  <cid> 
15846 
 
>  <dipole> 
4.68 
 
>  <excitation_energy_1> 
5.282 
 
>  <excitation_energy_2> 
5.828 
 
>  <excitation_energy_3> 
6.0 
 
>  <excitation_energy_4> 
6.087 
 
>  <homo_energy> 
-7.168 
 
>  <homo_lumo_gap> 
6.438 
 
>  <logP> 
1.892 
 
>  <lumo_energy> 
-0.729 
 
>  <melting_point> 
72.96 
 
>  <molecular_refractivity> 
45.33 
 
>  <oscillator_strength_1> 
0.0013 
 
>  <oscillator_strength_2> 
0.0632 
 
>  <oscillator_strength_3> 
0.0005 
 
>  <oscillator_strength_4> 
0.0169 
 
>  <open_babel_can_smiles> 
N#CC(Cc1ccccc1)C#N 
 
>  <mulliken_charges> 
20 
1   -0.125609 
2   -0.126143 
3   -0.127825 
4   -0.183308 
5   -0.16858 
6   -0.360701 
7   0.384183 
8   0.372816 
9   0.160282 
10   -0.228965 
11   -0.449918 
12   -0.448362 
13   0.139112 
14   0.138528 
15   0.142218 
16   0.128398 
17   0.145176 
18   0.183476 
19   0.185802 
20   0.239419 
 
>  <lowdin_charges> 
20 
1   -0.147318 
2   -0.149456 
3   -0.148811 
4   -0.167781 
5   -0.154759 
6   -0.254625 
7   -0.006743 
8   -0.012666 
9   -0.017869 
10   -0.115002 
11   -0.09281 
12   -0.092344 
13   0.160905 
14   0.161085 
15   0.165015 
16   0.156771 
17   0.163964 
18   0.172842 
19   0.172041 
20   0.207562 
 
$$$$ 
 
