PCCDB-ID:  39536 
public computational chemistry database (PCCDB) project, http://pccdb.org 
 
 31 32  0  0  0  0  0  0  0  0999 V2000 
    5.5178    1.4184   -0.4310 C   0  0  0  0  0  0  0  0  0  0  0  0 
   -2.0268    5.3955    3.4656 C   0  0  0  0  0  0  0  0  0  0  0  0 
   -0.3962    8.1021    2.4756 C   0  0  0  0  0  0  0  0  0  0  0  0 
    4.5732    2.5229    0.0397 C   0  0  0  0  0  0  0  0  0  0  0  0 
    1.1645    2.3025    1.8863 C   0  0  0  0  0  0  0  0  0  0  0  0 
   -0.7120    5.5149    2.7543 C   0  0  0  0  0  0  0  0  0  0  0  0 
   -0.0712    6.6549    2.3622 C   0  0  0  0  0  0  0  0  0  0  0  0 
    2.2828    2.9166    1.2583 C   0  0  0  0  0  0  0  0  0  0  0  0 
    3.3316    1.9802    0.7346 C   0  0  0  0  0  0  0  0  0  0  0  0 
    0.1064    3.0131    2.4224 C   0  0  0  0  0  0  0  0  0  0  0  0 
    0.1425    4.4211    2.3426 C   0  0  0  0  0  0  0  0  0  0  0  0 
    2.3283    4.3179    1.1753 C   0  0  0  0  0  0  0  0  0  0  0  0 
    1.2461    5.0065    1.7261 C   0  0  0  0  0  0  0  0  0  0  0  0 
    3.1820    0.7711    0.8700 O   0  0  0  0  0  0  0  0  0  0  0  0 
   -0.9770    2.4315    3.0296 O   0  0  0  0  0  0  0  0  0  0  0  0 
    3.3590    5.0042    0.5939 O   0  0  0  0  0  0  0  0  0  0  0  0 
    1.1310    6.3716    1.7293 O   0  0  0  0  0  0  0  0  0  0  0  0 
    6.3986    1.8527   -0.9164 H   0  0  0  0  0  0  0  0  0  0  0  0 
    5.0223    0.7529   -1.1442 H   0  0  0  0  0  0  0  0  0  0  0  0 
    5.8522    0.8004    0.4076 H   0  0  0  0  0  0  0  0  0  0  0  0 
   -2.4745    6.3763    3.6517 H   0  0  0  0  0  0  0  0  0  0  0  0 
   -1.9090    4.8864    4.4287 H   0  0  0  0  0  0  0  0  0  0  0  0 
   -2.7378    4.8013    2.8810 H   0  0  0  0  0  0  0  0  0  0  0  0 
   -1.3546    8.2399    2.9815 H   0  0  0  0  0  0  0  0  0  0  0  0 
   -0.4597    8.5735    1.4869 H   0  0  0  0  0  0  0  0  0  0  0  0 
    0.3724    8.6383    3.0460 H   0  0  0  0  0  0  0  0  0  0  0  0 
    4.2539    3.1564   -0.7978 H   0  0  0  0  0  0  0  0  0  0  0  0 
    5.0801    3.2147    0.7249 H   0  0  0  0  0  0  0  0  0  0  0  0 
    1.1802    1.2166    1.9254 H   0  0  0  0  0  0  0  0  0  0  0  0 
   -0.8609    1.4686    3.0032 H   0  0  0  0  0  0  0  0  0  0  0  0 
    3.1538    5.9524    0.6553 H   0  0  0  0  0  0  0  0  0  0  0  0 
  1  4  1  0  0  0  0 
  1 20  1  0  0  0  0 
  2 21  1  0  0  0  0 
  2 22  1  0  0  0  0 
  3 24  1  0  0  0  0 
  3 26  1  0  0  0  0 
  4 28  1  0  0  0  0 
  4  9  1  0  0  0  0 
  5 29  1  0  0  0  0 
  5 10  2  0  0  0  0 
  6  2  1  0  0  0  0 
  7  3  1  0  0  0  0 
  7  6  2  0  0  0  0 
  8  5  1  0  0  0  0 
  9 14  2  0  0  0  0 
  9  8  1  0  0  0  0 
 10 15  1  0  0  0  0 
 11 10  1  0  0  0  0 
 11  6  1  0  0  0  0 
 12  8  2  0  0  0  0 
 12 13  1  0  0  0  0 
 13 17  1  0  0  0  0 
 13 11  2  0  0  0  0 
 16 31  1  0  0  0  0 
 16 12  1  0  0  0  0 
 17  7  1  0  0  0  0 
 18  1  1  0  0  0  0 
 19  1  1  0  0  0  0 
 23  2  1  0  0  0  0 
 25  3  1  0  0  0  0 
 27  4  1  0  0  0  0 
 30 15  1  0  0  0  0 
M  END 
>  <HBA> 
4 
 
>  <HBD> 
2 
 
>  <TPSA> 
70.67 
 
>  <cid> 
39536 
 
>  <dipole> 
4.44 
 
>  <excitation_energy_1> 
3.755 
 
>  <excitation_energy_2> 
3.862 
 
>  <excitation_energy_3> 
4.508 
 
>  <excitation_energy_4> 
4.711 
 
>  <homo_energy> 
-5.41 
 
>  <homo_lumo_gap> 
4.215 
 
>  <logP> 
3.054 
 
>  <lumo_energy> 
-1.195 
 
>  <melting_point> 
173.74 
 
>  <molecular_refractivity> 
65.19 
 
>  <oscillator_strength_1> 
0.1806 
 
>  <oscillator_strength_2> 
0.0 
 
>  <oscillator_strength_3> 
0.2607 
 
>  <oscillator_strength_4> 
0.0002 
 
>  <open_babel_can_smiles> 
CCC(=O)c1cc(O)c2c(c1O)oc(c2C)C 
 
>  <mulliken_charges> 
31 
1   -0.433379 
2   -0.51575 
3   -0.539815 
4   -0.341348 
5   -0.265465 
6   0.05922 
7   0.29837 
8   0.045406 
9   0.404975 
10   0.269985 
11   0.111786 
12   0.226025 
13   0.242095 
14   -0.478908 
15   -0.660637 
16   -0.661649 
17   -0.5516 
18   0.133195 
19   0.155531 
20   0.156318 
21   0.14727 
22   0.174842 
23   0.175124 
24   0.173459 
25   0.175402 
26   0.175533 
27   0.167663 
28   0.167914 
29   0.150148 
30   0.412467 
31   0.425822 
 
>  <lowdin_charges> 
31 
1   -0.4436 
2   -0.434724 
3   -0.442777 
4   -0.307297 
5   -0.198297 
6   -0.048065 
7   0.079141 
8   -0.077505 
9   0.161548 
10   0.082583 
11   -0.036765 
12   0.076566 
13   0.0451 
14   -0.260473 
15   -0.381949 
16   -0.366592 
17   -0.144616 
18   0.147248 
19   0.157253 
20   0.15729 
21   0.154079 
22   0.168273 
23   0.170043 
24   0.17089 
25   0.169223 
26   0.170814 
27   0.166985 
28   0.16752 
29   0.173107 
30   0.359672 
31   0.365325 
 
$$$$ 
 
