PCCDB-ID:  12069 
public computational chemistry database (PCCDB) project, http://pccdb.org 
 
 20 20  0  0  0  0  0  0  0  0999 V2000 
   -0.6725    0.7787   -0.0804 C   0  0  0  0  0  0  0  0  0  0  0  0 
   -0.5164   -1.6256    0.0937 C   0  0  0  0  0  0  0  0  0  0  0  0 
    1.5040   -0.2715   -0.0538 C   0  0  0  0  0  0  0  0  0  0  0  0 
   -1.2976   -0.4704    0.0470 C   0  0  0  0  0  0  0  0  0  0  0  0 
    0.7182    0.8863   -0.1333 C   0  0  0  0  0  0  0  0  0  0  0  0 
    0.8710   -1.5016    0.0430 C   0  0  0  0  0  0  0  0  0  0  0  0 
   -2.8031   -0.4807    0.0818 C   0  0  0  0  0  0  0  0  0  0  0  0 
    1.4459    2.2030   -0.2308 C   0  0  0  0  0  0  0  0  0  0  0  0 
    1.6901   -2.7305    0.0980 N   0  0  0  0  0  0  0  0  0  0  0  0 
   -3.4583    0.4659   -0.2831 O   0  0  0  0  0  0  0  0  0  0  0  0 
   -3.4093   -1.6023    0.5344 O   0  0  0  0  0  0  0  0  0  0  0  0 
    2.6020    2.3232    0.0913 O   0  0  0  0  0  0  0  0  0  0  0  0 
    0.7438    3.2648   -0.6925 O   0  0  0  0  0  0  0  0  0  0  0  0 
    1.0915   -3.8000    0.2048 O   0  0  0  0  0  0  0  0  0  0  0  0 
    2.9082   -2.6024    0.0359 O   0  0  0  0  0  0  0  0  0  0  0  0 
   -1.3221    1.6487   -0.1078 H   0  0  0  0  0  0  0  0  0  0  0  0 
   -0.9358   -2.6246    0.1396 H   0  0  0  0  0  0  0  0  0  0  0  0 
    2.5845   -0.1999   -0.0714 H   0  0  0  0  0  0  0  0  0  0  0  0 
   -2.7688   -2.2168    0.9280 H   0  0  0  0  0  0  0  0  0  0  0  0 
   -0.1177    2.9921   -1.0483 H   0  0  0  0  0  0  0  0  0  0  0  0 
  1  4  1  0  0  0  0 
  2 17  1  0  0  0  0 
  3  6  2  0  0  0  0 
  4  7  1  0  0  0  0 
  4  2  2  0  0  0  0 
  5  1  2  0  0  0  0 
  5  3  1  0  0  0  0 
  6  2  1  0  0  0  0 
  6  9  1  0  0  0  0 
  7 11  1  0  0  0  0 
  8  5  1  0  0  0  0 
  8 12  2  0  0  0  0 
  9 14  2  0  0  0  0 
 10  7  2  0  0  0  0 
 11 19  1  0  0  0  0 
 13  8  1  0  0  0  0 
 15  9  2  0  0  0  0 
 16  1  1  0  0  0  0 
 18  3  1  0  0  0  0 
 20 13  1  0  0  0  0 
M  END 
>  <HBA> 
4 
 
>  <HBD> 
2 
 
>  <TPSA> 
120.42 
 
>  <cid> 
12069 
 
>  <dipole> 
2.24 
 
>  <excitation_energy_1> 
3.72 
 
>  <excitation_energy_2> 
4.103 
 
>  <excitation_energy_3> 
4.165 
 
>  <excitation_energy_4> 
4.346 
 
>  <homo_energy> 
-8.172 
 
>  <homo_lumo_gap> 
4.863 
 
>  <logP> 
1.514 
 
>  <lumo_energy> 
-3.309 
 
>  <melting_point> 
226.77 
 
>  <molecular_refractivity> 
49.18 
 
>  <oscillator_strength_1> 
0.0001 
 
>  <oscillator_strength_2> 
0.0059 
 
>  <oscillator_strength_3> 
0.001 
 
>  <oscillator_strength_4> 
0.0076 
 
>  <open_babel_can_smiles> 
OC(=O)c1cc(cc(c1)N(=O)=O)C(=O)O 
 
>  <mulliken_charges> 
20 
1   -0.205462 
2   -0.213739 
3   -0.16525 
4   0.040775 
5   0.033977 
6   0.271356 
7   0.579957 
8   0.579809 
9   0.392424 
10   -0.438227 
11   -0.564973 
12   -0.428791 
13   -0.56662 
14   -0.387604 
15   -0.372999 
16   0.182492 
17   0.191449 
18   0.225461 
19   0.423054 
20   0.422911 
 
>  <lowdin_charges> 
20 
1   -0.118764 
2   -0.135349 
3   -0.092037 
4   -0.046839 
5   -0.044153 
6   0.009962 
7   0.199056 
8   0.19235 
9   0.305447 
10   -0.230035 
11   -0.339074 
12   -0.219884 
13   -0.337366 
14   -0.238112 
15   -0.218716 
16   0.185134 
17   0.188289 
18   0.209681 
19   0.365807 
20   0.364603 
 
$$$$ 
 
