PCCDB-ID:  55785 
public computational chemistry database (PCCDB) project, http://pccdb.org 
 
 15 14  0  0  1  0  0  0  0  0999 V2000 
    0.8441    0.2212   -0.0409 C   0  0  0  0  0  0  0  0  0  0  0  0 
    0.4568    0.9741    1.2458 C   0  0  1  0  0  0  0  0  0  0  0  0 
    0.8401    2.4759    1.2032 C   0  0  0  0  0  0  0  0  0  0  0  0 
   -0.9629    0.7611    1.4909 N   0  0  0  0  0  0  0  0  0  0  0  0 
    3.3287   -0.8502   -2.0306 N   0  0  0  0  0  0  0  0  0  0  0  0 
    2.3235    0.2484   -0.1818 N   0  0  0  0  0  0  0  0  0  0  0  0 
    2.7918   -0.3370   -1.1665 N   0  0  0  0  0  0  0  0  0  0  0  0 
    0.0310    3.3489    1.4115 O   0  0  0  0  0  0  0  0  0  0  0  0 
    2.1301    2.7647    0.9445 O   0  0  0  0  0  0  0  0  0  0  0  0 
    0.3676    0.6815   -0.9171 H   0  0  0  0  0  0  0  0  0  0  0  0 
    0.4831   -0.8082    0.0487 H   0  0  0  0  0  0  0  0  0  0  0  0 
    1.0277    0.5153    2.0639 H   0  0  0  0  0  0  0  0  0  0  0  0 
   -1.4819    1.4899    0.9999 H   0  0  0  0  0  0  0  0  0  0  0  0 
   -1.1571    0.9357    2.4749 H   0  0  0  0  0  0  0  0  0  0  0  0 
    2.6067    1.9491    0.6778 H   0  0  0  0  0  0  0  0  0  0  0  0 
  1 11  1  0  0  0  0 
  1  2  1  0  0  0  0 
  2  4  1  0  0  0  0 
  2 12  1  1  0  0  0 
  3  2  1  0  0  0  0 
  3  8  2  0  0  0  0 
  4 14  1  0  0  0  0 
  5  7  2  0  0  0  0 
  6  1  1  0  0  0  0 
  7  6  2  0  0  0  0 
  9  3  1  0  0  0  0 
 10  1  1  0  0  0  0 
 13  4  1  0  0  0  0 
 15  9  1  0  0  0  0 
M  RAD  1   5   2 
M  END 
>  <HBA> 
4 
 
>  <HBD> 
2 
 
>  <TPSA> 
113.07 
 
>  <cid> 
55785 
 
>  <dipole> 
2.76 
 
>  <excitation_energy_1> 
4.353 
 
>  <excitation_energy_2> 
4.915 
 
>  <excitation_energy_3> 
5.45 
 
>  <excitation_energy_4> 
5.648 
 
>  <homo_energy> 
-7.138 
 
>  <homo_lumo_gap> 
5.535 
 
>  <logP> 
-0.138 
 
>  <lumo_energy> 
-1.603 
 
>  <melting_point> 
153.76 
 
>  <molecular_refractivity> 
25.84 
 
>  <oscillator_strength_1> 
0.0005 
 
>  <oscillator_strength_2> 
0.0067 
 
>  <oscillator_strength_3> 
0.0004 
 
>  <oscillator_strength_4> 
0.001 
 
>  <open_babel_can_smiles> 
N[C@H](C(=O)O)CN=[N]=[N] 
 
>  <mulliken_charges> 
15 
1   -0.112479 
2   -0.120189 
3   0.579449 
4   -0.702494 
5   -0.235026 
6   -0.450382 
7   0.446511 
8   -0.448322 
9   -0.575605 
10   0.175293 
11   0.194193 
12   0.177208 
13   0.317171 
14   0.317279 
15   0.43739 
 
>  <lowdin_charges> 
15 
1   -0.190205 
2   -0.116777 
3   0.174762 
4   -0.530373 
5   -0.07707 
6   -0.242693 
7   0.203226 
8   -0.250564 
9   -0.356539 
10   0.158142 
11   0.169615 
12   0.167528 
13   0.267709 
14   0.267951 
15   0.355288 
 
$$$$ 
 
