PCCDB-ID:  12958 
public computational chemistry database (PCCDB) project, http://pccdb.org 
 
 16 15  0  0  0  0  0  0  0  0999 V2000 
    2.6328    1.1903    0.0038 C   0  0  0  0  0  0  0  0  0  0  0  0 
    4.5199    0.1711   -3.2568 C   0  0  0  0  0  0  0  0  0  0  0  0 
    4.0664   -2.3510   -1.2128 C   0  0  0  0  0  0  0  0  0  0  0  0 
    1.4622   -1.3052   -1.3338 O   0  0  0  0  0  0  0  0  0  0  0  0 
    3.4846    0.1024   -0.4024 O   0  0  0  0  0  0  0  0  0  0  0  0 
    3.2321   -0.3626   -2.9284 O   0  0  0  0  0  0  0  0  0  0  0  0 
    2.9015   -0.9849   -1.4633 P   0  0  0  0  0  0  0  0  0  0  0  0 
    2.5216    1.9172   -0.8081 H   0  0  0  0  0  0  0  0  0  0  0  0 
    3.1228    1.6656    0.8557 H   0  0  0  0  0  0  0  0  0  0  0  0 
    1.6480    0.8154    0.2937 H   0  0  0  0  0  0  0  0  0  0  0  0 
    4.3992    0.7221   -4.1917 H   0  0  0  0  0  0  0  0  0  0  0  0 
    5.2507   -0.6324   -3.4094 H   0  0  0  0  0  0  0  0  0  0  0  0 
    4.8811    0.8482   -2.4761 H   0  0  0  0  0  0  0  0  0  0  0  0 
    3.9000   -2.7805   -0.2216 H   0  0  0  0  0  0  0  0  0  0  0  0 
    5.1059   -2.0183   -1.2825 H   0  0  0  0  0  0  0  0  0  0  0  0 
    3.8793   -3.1196   -1.9677 H   0  0  0  0  0  0  0  0  0  0  0  0 
  1 10  1  0  0  0  0 
  1  9  1  0  0  0  0 
  2  6  1  0  0  0  0 
  2 13  1  0  0  0  0 
  3 14  1  0  0  0  0 
  5  1  1  0  0  0  0 
  6  7  1  0  0  0  0 
  7  4  2  0  0  0  0 
  7  3  1  0  0  0  0 
  7  5  1  0  0  0  0 
  8  1  1  0  0  0  0 
 11  2  1  0  0  0  0 
 12  2  1  0  0  0  0 
 15  3  1  0  0  0  0 
 16  3  1  0  0  0  0 
M  END 
>  <HBA> 
3 
 
>  <HBD> 
0 
 
>  <TPSA> 
45.34 
 
>  <cid> 
12958 
 
>  <dipole> 
4.18 
 
>  <excitation_energy_1> 
7.001 
 
>  <excitation_energy_2> 
7.092 
 
>  <excitation_energy_3> 
7.524 
 
>  <excitation_energy_4> 
7.537 
 
>  <homo_energy> 
-7.589 
 
>  <homo_lumo_gap> 
9.306 
 
>  <logP> 
1.102 
 
>  <lumo_energy> 
1.717 
 
>  <melting_point> 
-27.04 
 
>  <molecular_refractivity> 
27.37 
 
>  <oscillator_strength_1> 
0.0332 
 
>  <oscillator_strength_2> 
0.0134 
 
>  <oscillator_strength_3> 
0.0018 
 
>  <oscillator_strength_4> 
0.0002 
 
>  <open_babel_can_smiles> 
COP(=O)(OC)C 
 
>  <mulliken_charges> 
16 
1   -0.21934 
2   -0.227798 
3   -0.673719 
4   -0.544191 
5   -0.554536 
6   -0.5168 
7   1.145669 
8   0.160265 
9   0.165713 
10   0.189036 
11   0.175396 
12   0.15232 
13   0.165356 
14   0.202509 
15   0.182427 
16   0.197693 
 
>  <lowdin_charges> 
16 
1   -0.273547 
2   -0.276317 
3   -0.628958 
4   -0.584845 
5   -0.414811 
6   -0.402102 
7   1.062779 
8   0.152975 
9   0.160785 
10   0.169307 
11   0.164405 
12   0.147254 
13   0.155974 
14   0.19417 
15   0.181094 
16   0.191836 
 
$$$$ 
 
