PCCDB-ID:  8024 
public computational chemistry database (PCCDB) project, http://pccdb.org 
 
 11 10  0  0  0  0  0  0  0  0999 V2000 
    1.1627   -0.2746    0.3293 C   0  0  0  0  0  0  0  0  0  0  0  0 
    5.1858    0.2621   -2.0713 C   0  0  0  0  0  0  0  0  0  0  0  0 
    2.4627   -0.0039    0.2460 C   0  0  0  0  0  0  0  0  0  0  0  0 
    4.4691    0.2601   -0.9502 C   0  0  0  0  0  0  0  0  0  0  0  0 
    3.1315   -0.0284   -0.9475 O   0  0  0  0  0  0  0  0  0  0  0  0 
    0.6680   -0.2450    1.2926 H   0  0  0  0  0  0  0  0  0  0  0  0 
    0.5762   -0.5253   -0.5480 H   0  0  0  0  0  0  0  0  0  0  0  0 
    6.2430    0.4951   -2.0330 H   0  0  0  0  0  0  0  0  0  0  0  0 
    4.7387    0.0346   -3.0329 H   0  0  0  0  0  0  0  0  0  0  0  0 
    3.0739    0.2505    1.1116 H   0  0  0  0  0  0  0  0  0  0  0  0 
    4.8941    0.4849    0.0277 H   0  0  0  0  0  0  0  0  0  0  0  0 
  1  6  1  0  0  0  0 
  2  8  1  0  0  0  0 
  2  4  2  0  0  0  0 
  3  1  2  0  0  0  0 
  3 10  1  0  0  0  0 
  4  5  1  0  0  0  0 
  4 11  1  0  0  0  0 
  5  3  1  0  0  0  0 
  7  1  1  0  0  0  0 
  9  2  1  0  0  0  0 
M  END 
>  <HBA> 
1 
 
>  <HBD> 
0 
 
>  <TPSA> 
9.23 
 
>  <cid> 
8024 
 
>  <dipole> 
1.32 
 
>  <excitation_energy_1> 
5.641 
 
>  <excitation_energy_2> 
5.742 
 
>  <excitation_energy_3> 
5.952 
 
>  <excitation_energy_4> 
6.095 
 
>  <homo_energy> 
-5.861 
 
>  <homo_lumo_gap> 
6.395 
 
>  <logP> 
1.29 
 
>  <lumo_energy> 
0.533 
 
>  <melting_point> 
-75.38 
 
>  <molecular_refractivity> 
21.48 
 
>  <oscillator_strength_1> 
0.0422 
 
>  <oscillator_strength_2> 
0.5241 
 
>  <oscillator_strength_3> 
0.0178 
 
>  <oscillator_strength_4> 
0.0569 
 
>  <open_babel_can_smiles> 
C=COC=C 
 
>  <mulliken_charges> 
11 
1   -0.397999 
2   -0.398051 
3   0.17654 
4   0.176622 
5   -0.433614 
6   0.147237 
7   0.154123 
8   0.147241 
9   0.154127 
10   0.136884 
11   0.13689 
 
>  <lowdin_charges> 
11 
1   -0.38563 
2   -0.383834 
3   -0.036348 
4   -0.032411 
5   -0.140588 
6   0.170445 
7   0.171389 
8   0.168995 
9   0.170552 
10   0.149355 
11   0.148074 
 
$$$$ 
 
