PCCDB-ID:  56350 
public computational chemistry database (PCCDB) project, http://pccdb.org 
 
 34 35  0  0  1  0  0  0  0  0999 V2000 
    2.8940   -1.7041   -1.7552 C   0  0  0  0  0  0  0  0  0  0  0  0 
   -0.4200    3.2213    0.3657 C   0  0  0  0  0  0  0  0  0  0  0  0 
    1.9801   -1.3652   -0.5732 C   0  0  0  0  0  0  0  0  0  0  0  0 
   -0.6217    1.8278    0.9558 C   0  0  0  0  0  0  0  0  0  0  0  0 
    1.3880   -3.9992    4.1542 C   0  0  0  0  0  0  0  0  0  0  0  0 
    2.3869   -4.7641    3.5463 C   0  0  0  0  0  0  0  0  0  0  0  0 
    1.1322   -2.6927    3.7134 C   0  0  0  0  0  0  0  0  0  0  0  0 
    3.1456   -4.2560    2.4852 C   0  0  0  0  0  0  0  0  0  0  0  0 
    0.5297   -0.1730    1.7623 C   0  0  0  0  0  0  0  0  0  0  0  0 
    1.8774   -2.1768    2.6603 C   0  0  0  0  0  0  0  0  0  0  0  0 
    1.9009   -0.8154    1.9932 C   0  0  1  0  0  0  0  0  0  0  0  0 
    2.7583   -1.1142    0.7188 C   0  0  1  0  0  0  0  0  0  0  0  0 
    2.8679   -2.9608    2.0622 C   0  0  0  0  0  0  0  0  0  0  0  0 
    0.6596    1.1519    1.1597 N   0  0  0  0  0  0  0  0  0  0  0  0 
    3.5216   -2.3215    1.0496 O   0  0  0  0  0  0  0  0  0  0  0  0 
    2.3067   -1.8946   -2.6604 H   0  0  0  0  0  0  0  0  0  0  0  0 
    3.4948   -2.5936   -1.5436 H   0  0  0  0  0  0  0  0  0  0  0  0 
    3.5819   -0.8774   -1.9728 H   0  0  0  0  0  0  0  0  0  0  0  0 
   -1.3833    3.7089    0.1809 H   0  0  0  0  0  0  0  0  0  0  0  0 
    0.1302    3.1637   -0.5791 H   0  0  0  0  0  0  0  0  0  0  0  0 
    0.1496    3.8628    1.0504 H   0  0  0  0  0  0  0  0  0  0  0  0 
    1.2676   -2.1846   -0.4078 H   0  0  0  0  0  0  0  0  0  0  0  0 
    1.3990   -0.4623   -0.7912 H   0  0  0  0  0  0  0  0  0  0  0  0 
   -1.2130    1.2156    0.2620 H   0  0  0  0  0  0  0  0  0  0  0  0 
   -1.2158    1.8993    1.8882 H   0  0  0  0  0  0  0  0  0  0  0  0 
    0.8086   -4.4164    4.9729 H   0  0  0  0  0  0  0  0  0  0  0  0 
    2.5786   -5.7747    3.8976 H   0  0  0  0  0  0  0  0  0  0  0  0 
    0.3624   -2.0954    4.1959 H   0  0  0  0  0  0  0  0  0  0  0  0 
    3.9197   -4.8431    2.0017 H   0  0  0  0  0  0  0  0  0  0  0  0 
   -0.0140   -0.1492    2.7268 H   0  0  0  0  0  0  0  0  0  0  0  0 
   -0.0705   -0.7980    1.0906 H   0  0  0  0  0  0  0  0  0  0  0  0 
    2.4792   -0.1277    2.6330 H   0  0  0  0  0  0  0  0  0  0  0  0 
    3.5025   -0.3309    0.5497 H   0  0  0  0  0  0  0  0  0  0  0  0 
    1.2424    1.7322    1.7642 H   0  0  0  0  0  0  0  0  0  0  0  0 
  1 17  1  0  0  0  0 
  1  3  1  0  0  0  0 
  2  4  1  0  0  0  0 
  2 21  1  0  0  0  0 
  3 22  1  0  0  0  0 
  3 12  1  0  0  0  0 
  4 14  1  0  0  0  0 
  4 25  1  0  0  0  0 
  5 26  1  0  0  0  0 
  6 27  1  0  0  0  0 
  6  5  2  0  0  0  0 
  7  5  1  0  0  0  0 
  7 28  1  0  0  0  0 
  8  6  1  0  0  0  0 
  9 11  1  0  0  0  0 
  9 30  1  0  0  0  0 
 10  7  2  0  0  0  0 
 11 32  1  1  0  0  0 
 11 10  1  0  0  0  0 
 12 33  1  6  0  0  0 
 12 15  1  0  0  0  0 
 12 11  1  0  0  0  0 
 13  8  2  0  0  0  0 
 13 10  1  0  0  0  0 
 14  9  1  0  0  0  0 
 14 34  1  0  0  0  0 
 15 13  1  0  0  0  0 
 16  1  1  0  0  0  0 
 18  1  1  0  0  0  0 
 19  2  1  0  0  0  0 
 20  2  1  0  0  0  0 
 23  3  1  0  0  0  0 
 24  4  1  0  0  0  0 
 29  8  1  0  0  0  0 
 31  9  1  0  0  0  0 
M  END 
>  <HBA> 
2 
 
>  <HBD> 
1 
 
>  <TPSA> 
21.26 
 
>  <cid> 
56350 
 
>  <dipole> 
2.31 
 
>  <excitation_energy_1> 
4.692 
 
>  <excitation_energy_2> 
5.248 
 
>  <excitation_energy_3> 
5.3 
 
>  <excitation_energy_4> 
5.448 
 
>  <homo_energy> 
-5.559 
 
>  <homo_lumo_gap> 
5.627 
 
>  <logP> 
2.942 
 
>  <lumo_energy> 
0.068 
 
>  <melting_point> 
59.7 
 
>  <molecular_refractivity> 
62.62 
 
>  <oscillator_strength_1> 
0.0665 
 
>  <oscillator_strength_2> 
0.0049 
 
>  <oscillator_strength_3> 
0.0041 
 
>  <oscillator_strength_4> 
0.0163 
 
>  <open_babel_can_smiles> 
CCNC[C@@H]1[C@H](CC)Oc2c1cccc2 
 
>  <mulliken_charges> 
34 
1   -0.44889 
2   -0.45193 
3   -0.269346 
4   -0.107523 
5   -0.140811 
6   -0.137285 
7   -0.210422 
8   -0.189889 
9   -0.118646 
10   0.099462 
11   -0.201893 
12   0.128766 
13   0.353605 
14   -0.555799 
15   -0.543756 
16   0.14036 
17   0.163728 
18   0.139037 
19   0.147129 
20   0.159728 
21   0.139476 
22   0.137802 
23   0.163372 
24   0.142662 
25   0.112733 
26   0.122231 
27   0.127043 
28   0.124692 
29   0.135138 
30   0.11922 
31   0.150815 
32   0.142965 
33   0.136792 
34   0.289436 
 
>  <lowdin_charges> 
34 
1   -0.446553 
2   -0.449266 
3   -0.290849 
4   -0.199673 
5   -0.182055 
6   -0.147216 
7   -0.161886 
8   -0.193953 
9   -0.201954 
10   -0.051323 
11   -0.137477 
12   0.014399 
13   0.095514 
14   -0.367325 
15   -0.213468 
16   0.149683 
17   0.157319 
18   0.146336 
19   0.154235 
20   0.156401 
21   0.14691 
22   0.146023 
23   0.160714 
24   0.14392 
25   0.116713 
26   0.156202 
27   0.156342 
28   0.15569 
29   0.166376 
30   0.122285 
31   0.149562 
32   0.149451 
33   0.148074 
34   0.250847 
 
$$$$ 
 
