PCCDB-ID:  7000 
public computational chemistry database (PCCDB) project, http://pccdb.org 
 
 18 18  0  0  0  0  0  0  0  0999 V2000 
    2.7586   -0.9360    0.7562 C   0  0  0  0  0  0  0  0  0  0  0  0 
    4.5385    3.6617    0.3867 C   0  0  0  0  0  0  0  0  0  0  0  0 
    3.1572    3.4666    0.3421 C   0  0  0  0  0  0  0  0  0  0  0  0 
    5.4143    2.5964    0.1774 C   0  0  0  0  0  0  0  0  0  0  0  0 
    2.6571    2.1863    0.0904 C   0  0  0  0  0  0  0  0  0  0  0  0 
    4.9246    1.3063   -0.0734 C   0  0  0  0  0  0  0  0  0  0  0  0 
    3.5277    1.1205   -0.1106 C   0  0  0  0  0  0  0  0  0  0  0  0 
    5.7628    0.2007   -0.2425 N   0  0  0  0  0  0  0  0  0  0  0  0 
    3.0466   -0.1486   -0.4022 O   0  0  0  0  0  0  0  0  0  0  0  0 
    2.4163   -1.9086    0.3933 H   0  0  0  0  0  0  0  0  0  0  0  0 
    1.9662   -0.4746    1.3597 H   0  0  0  0  0  0  0  0  0  0  0  0 
    3.6522   -1.0696    1.3790 H   0  0  0  0  0  0  0  0  0  0  0  0 
    4.9431    4.6524    0.5766 H   0  0  0  0  0  0  0  0  0  0  0  0 
    2.4760    4.2981    0.4965 H   0  0  0  0  0  0  0  0  0  0  0  0 
    6.4897    2.7583    0.2099 H   0  0  0  0  0  0  0  0  0  0  0  0 
    1.5882    1.9995    0.0327 H   0  0  0  0  0  0  0  0  0  0  0  0 
    6.6861    0.4251   -0.5931 H   0  0  0  0  0  0  0  0  0  0  0  0 
    5.3238   -0.5387   -0.7799 H   0  0  0  0  0  0  0  0  0  0  0  0 
  1 11  1  0  0  0  0 
  1 12  1  0  0  0  0 
  2 13  1  0  0  0  0 
  3  2  1  0  0  0  0 
  3 14  1  0  0  0  0 
  4 15  1  0  0  0  0 
  4  2  2  0  0  0  0 
  5  3  2  0  0  0  0 
  6  4  1  0  0  0  0 
  7  6  2  0  0  0  0 
  7  5  1  0  0  0  0 
  8  6  1  0  0  0  0 
  9  7  1  0  0  0  0 
  9  1  1  0  0  0  0 
 10  1  1  0  0  0  0 
 16  5  1  0  0  0  0 
 17  8  1  0  0  0  0 
 18  8  1  0  0  0  0 
M  END 
>  <HBA> 
2 
 
>  <HBD> 
1 
 
>  <TPSA> 
35.25 
 
>  <cid> 
7000 
 
>  <dipole> 
1.03 
 
>  <excitation_energy_1> 
4.721 
 
>  <excitation_energy_2> 
4.924 
 
>  <excitation_energy_3> 
5.338 
 
>  <excitation_energy_4> 
5.403 
 
>  <homo_energy> 
-5.366 
 
>  <homo_lumo_gap> 
5.633 
 
>  <logP> 
1.859 
 
>  <lumo_energy> 
0.267 
 
>  <melting_point> 
58.58 
 
>  <molecular_refractivity> 
37.34 
 
>  <oscillator_strength_1> 
0.0478 
 
>  <oscillator_strength_2> 
0.0084 
 
>  <oscillator_strength_3> 
0.0335 
 
>  <oscillator_strength_4> 
0.0346 
 
>  <open_babel_can_smiles> 
COc1ccccc1N 
 
>  <mulliken_charges> 
18 
1   -0.209768 
2   -0.13072 
3   -0.150564 
4   -0.189376 
5   -0.165922 
6   0.285498 
7   0.29641 
8   -0.795767 
9   -0.540875 
10   0.156436 
11   0.145115 
12   0.156916 
13   0.123468 
14   0.122822 
15   0.117242 
16   0.129727 
17   0.317632 
18   0.331725 
 
>  <lowdin_charges> 
18 
1   -0.276204 
2   -0.154012 
3   -0.183912 
4   -0.196363 
5   -0.1682 
6   0.037007 
7   0.055185 
8   -0.491383 
9   -0.245614 
10   0.153685 
11   0.142698 
12   0.147546 
13   0.155588 
14   0.156733 
15   0.150966 
16   0.160661 
17   0.27393 
18   0.281692 
 
$$$$ 
 
