PCCDB-ID:  70260 
public computational chemistry database (PCCDB) project, http://pccdb.org 
 
 19 19  0  0  0  0  0  0  0  0999 V2000 
    0.9632    0.0133   -0.0954 C   0  0  0  0  0  0  0  0  0  0  0  0 
    5.7185    1.6735   -0.0983 C   0  0  0  0  0  0  0  0  0  0  0  0 
    2.8207    2.4475   -0.0965 C   0  0  0  0  0  0  0  0  0  0  0  0 
    3.2854   -1.1605   -0.0961 C   0  0  0  0  0  0  0  0  0  0  0  0 
    4.6304   -0.6984   -0.0964 C   0  0  0  0  0  0  0  0  0  0  0  0 
    2.4577   -0.0573   -0.0971 C   0  0  0  0  0  0  0  0  0  0  0  0 
    4.6011    0.6800   -0.0976 C   0  0  0  0  0  0  0  0  0  0  0  0 
    3.2694    1.0686   -0.0982 N   0  0  0  0  0  0  0  0  0  0  0  0 
    0.5574   -1.0024   -0.0929 H   0  0  0  0  0  0  0  0  0  0  0  0 
    0.5574    0.5234   -0.9805 H   0  0  0  0  0  0  0  0  0  0  0  0 
    0.5597    0.5270    0.7885 H   0  0  0  0  0  0  0  0  0  0  0  0 
    6.6762    1.1453   -0.0956 H   0  0  0  0  0  0  0  0  0  0  0  0 
    5.7031    2.3303    0.7833 H   0  0  0  0  0  0  0  0  0  0  0  0 
    5.7058    2.3260   -0.9831 H   0  0  0  0  0  0  0  0  0  0  0  0 
    1.7304    2.4764   -0.1007 H   0  0  0  0  0  0  0  0  0  0  0  0 
    3.1814    2.9833   -0.9826 H   0  0  0  0  0  0  0  0  0  0  0  0 
    3.1746    2.9794    0.7948 H   0  0  0  0  0  0  0  0  0  0  0  0 
    2.9497   -2.1896   -0.0963 H   0  0  0  0  0  0  0  0  0  0  0  0 
    5.5280   -1.3034   -0.0965 H   0  0  0  0  0  0  0  0  0  0  0  0 
  1  9  1  0  0  0  0 
  1 11  1  0  0  0  0 
  2  7  1  0  0  0  0 
  2 12  1  0  0  0  0 
  2 13  1  0  0  0  0 
  3 17  1  0  0  0  0 
  5  4  1  0  0  0  0 
  6  4  2  0  0  0  0 
  6  1  1  0  0  0  0 
  7  5  2  0  0  0  0 
  8  7  1  0  0  0  0 
  8  6  1  0  0  0  0 
  8  3  1  0  0  0  0 
 10  1  1  0  0  0  0 
 14  2  1  0  0  0  0 
 15  3  1  0  0  0  0 
 16  3  1  0  0  0  0 
 18  4  1  0  0  0  0 
 19  5  1  0  0  0  0 
M  END 
>  <HBA> 
1 
 
>  <HBD> 
0 
 
>  <TPSA> 
4.93 
 
>  <cid> 
70260 
 
>  <dipole> 
2.08 
 
>  <excitation_energy_1> 
4.488 
 
>  <excitation_energy_2> 
4.954 
 
>  <excitation_energy_3> 
5.111 
 
>  <excitation_energy_4> 
5.457 
 
>  <homo_energy> 
-4.955 
 
>  <homo_lumo_gap> 
6.319 
 
>  <logP> 
1.642 
 
>  <lumo_energy> 
1.363 
 
>  <melting_point> 
15.16 
 
>  <molecular_refractivity> 
35.63 
 
>  <oscillator_strength_1> 
0.0 
 
>  <oscillator_strength_2> 
0.0001 
 
>  <oscillator_strength_3> 
0.0 
 
>  <oscillator_strength_4> 
0.0159 
 
>  <open_babel_can_smiles> 
Cc1ccc(n1C)C 
 
>  <mulliken_charges> 
19 
1   -0.532872 
2   -0.530028 
3   -0.322881 
4   -0.225144 
5   -0.223719 
6   0.322381 
7   0.320241 
8   -0.46988 
9   0.166337 
10   0.15278 
11   0.15278 
12   0.165346 
13   0.151865 
14   0.151949 
15   0.170995 
16   0.16533 
17   0.165282 
18   0.109696 
19   0.109543 
 
>  <lowdin_charges> 
19 
1   -0.44559 
2   -0.442616 
3   -0.348185 
4   -0.230683 
5   -0.230117 
6   -0.004554 
7   -0.005882 
8   -0.024055 
9   0.167519 
10   0.153206 
11   0.153234 
12   0.167229 
13   0.152929 
14   0.15293 
15   0.165621 
16   0.156527 
17   0.156365 
18   0.1523 
19   0.15382 
 
$$$$ 
 
