PCCDB-ID:  12338 
public computational chemistry database (PCCDB) project, http://pccdb.org 
 
 18 17  0  0  0  0  0  0  0  0999 V2000 
    0.9652   -0.4782    0.5100 C   0  0  0  0  0  0  0  0  0  0  0  0 
    5.9129    3.0328   -0.8087 C   0  0  0  0  0  0  0  0  0  0  0  0 
    2.4590   -0.2832    0.2303 C   0  0  0  0  0  0  0  0  0  0  0  0 
    2.8303    1.1813   -0.0335 C   0  0  0  0  0  0  0  0  0  0  0  0 
    4.3149    1.3770   -0.3139 C   0  0  0  0  0  0  0  0  0  0  0  0 
    4.5571    2.7535   -0.5430 O   0  0  0  0  0  0  0  0  0  0  0  0 
    0.7298   -1.5303    0.7065 H   0  0  0  0  0  0  0  0  0  0  0  0 
    0.3572   -0.1536   -0.3431 H   0  0  0  0  0  0  0  0  0  0  0  0 
    0.6469    0.1040    1.3832 H   0  0  0  0  0  0  0  0  0  0  0  0 
    5.9962    4.1106   -0.9737 H   0  0  0  0  0  0  0  0  0  0  0  0 
    6.2718    2.5057   -1.7084 H   0  0  0  0  0  0  0  0  0  0  0  0 
    6.5634    2.7502    0.0358 H   0  0  0  0  0  0  0  0  0  0  0  0 
    2.7507   -0.8963   -0.6343 H   0  0  0  0  0  0  0  0  0  0  0  0 
    3.0416   -0.6608    1.0827 H   0  0  0  0  0  0  0  0  0  0  0  0 
    2.5545    1.8010    0.8300 H   0  0  0  0  0  0  0  0  0  0  0  0 
    2.2605    1.5660   -0.8897 H   0  0  0  0  0  0  0  0  0  0  0  0 
    4.6226    0.7840   -1.1941 H   0  0  0  0  0  0  0  0  0  0  0  0 
    4.9189    1.0202    0.5399 H   0  0  0  0  0  0  0  0  0  0  0  0 
  1  7  1  0  0  0  0 
  1  9  1  0  0  0  0 
  2  6  1  0  0  0  0 
  2 12  1  0  0  0  0 
  3  1  1  0  0  0  0 
  3 14  1  0  0  0  0 
  4  3  1  0  0  0  0 
  4 15  1  0  0  0  0 
  5  4  1  0  0  0  0 
  5 18  1  0  0  0  0 
  6  5  1  0  0  0  0 
  8  1  1  0  0  0  0 
 10  2  1  0  0  0  0 
 11  2  1  0  0  0  0 
 13  3  1  0  0  0  0 
 16  4  1  0  0  0  0 
 17  5  1  0  0  0  0 
M  END 
>  <HBA> 
1 
 
>  <HBD> 
0 
 
>  <TPSA> 
9.23 
 
>  <cid> 
12338 
 
>  <dipole> 
1.12 
 
>  <excitation_energy_1> 
6.527 
 
>  <excitation_energy_2> 
6.986 
 
>  <excitation_energy_3> 
7.058 
 
>  <excitation_energy_4> 
7.229 
 
>  <homo_energy> 
-6.781 
 
>  <homo_lumo_gap> 
9.29 
 
>  <logP> 
1.433 
 
>  <lumo_energy> 
2.509 
 
>  <melting_point> 
-34.85 
 
>  <molecular_refractivity> 
27.23 
 
>  <oscillator_strength_1> 
0.0282 
 
>  <oscillator_strength_2> 
0.0 
 
>  <oscillator_strength_3> 
0.0073 
 
>  <oscillator_strength_4> 
0.0214 
 
>  <open_babel_can_smiles> 
CCCCOC 
 
>  <mulliken_charges> 
18 
1   -0.439786 
2   -0.189482 
3   -0.256457 
4   -0.263689 
5   -0.004354 
6   -0.462877 
7   0.142332 
8   0.143924 
9   0.143871 
10   0.15625 
11   0.126885 
12   0.12695 
13   0.132197 
14   0.132175 
15   0.143144 
16   0.143151 
17   0.112919 
18   0.112848 
 
>  <lowdin_charges> 
18 
1   -0.443008 
2   -0.278489 
3   -0.273819 
4   -0.281533 
5   -0.130381 
6   -0.272877 
7   0.148332 
8   0.148436 
9   0.148259 
10   0.152048 
11   0.130113 
12   0.130563 
13   0.140087 
14   0.140211 
15   0.148082 
16   0.148256 
17   0.122859 
18   0.12286 
 
$$$$ 
 
