PCCDB-ID:  70740 
public computational chemistry database (PCCDB) project, http://pccdb.org 
 
 14 14  0  0  0  0  0  0  0  0999 V2000 
   -1.4650   -0.0614    0.1194 C   0  0  0  0  0  0  0  0  0  0  0  0 
   -0.8099    1.1727    0.1065 C   0  0  0  0  0  0  0  0  0  0  0  0 
   -0.7311   -1.2391   -0.0273 C   0  0  0  0  0  0  0  0  0  0  0  0 
    0.5737    1.2354   -0.0541 C   0  0  0  0  0  0  0  0  0  0  0  0 
    0.6560   -1.1983   -0.1893 C   0  0  0  0  0  0  0  0  0  0  0  0 
    3.4081   -0.8658   -0.4977 C   0  0  0  0  0  0  0  0  0  0  0  0 
    1.2758    0.0446   -0.1982 C   0  0  0  0  0  0  0  0  0  0  0  0 
    4.1147   -1.7832   -0.6306 N   0  0  0  0  0  0  0  0  0  0  0  0 
    2.6765    0.1929   -0.3543 O   0  0  0  0  0  0  0  0  0  0  0  0 
   -2.5426   -0.1043    0.2453 H   0  0  0  0  0  0  0  0  0  0  0  0 
   -1.3748    2.0933    0.2196 H   0  0  0  0  0  0  0  0  0  0  0  0 
   -1.2339   -2.2016   -0.0181 H   0  0  0  0  0  0  0  0  0  0  0  0 
    1.1078    2.1796   -0.0674 H   0  0  0  0  0  0  0  0  0  0  0  0 
    1.2366   -2.1083   -0.3038 H   0  0  0  0  0  0  0  0  0  0  0  0 
  1 10  1  0  0  0  0 
  2  1  1  0  0  0  0 
  2 11  1  0  0  0  0 
  3 12  1  0  0  0  0 
  3  1  2  0  0  0  0 
  4  2  2  0  0  0  0 
  5  3  1  0  0  0  0 
  6  9  1  0  0  0  0 
  7  5  2  0  0  0  0 
  7  4  1  0  0  0  0 
  8  6  3  0  0  0  0 
  9  7  1  0  0  0  0 
 13  4  1  0  0  0  0 
 14  5  1  0  0  0  0 
M  END 
>  <HBA> 
2 
 
>  <HBD> 
0 
 
>  <TPSA> 
33.02 
 
>  <cid> 
70740 
 
>  <dipole> 
4.5 
 
>  <excitation_energy_1> 
5.256 
 
>  <excitation_energy_2> 
5.89 
 
>  <excitation_energy_3> 
6.311 
 
>  <excitation_energy_4> 
6.417 
 
>  <homo_energy> 
-7.018 
 
>  <homo_lumo_gap> 
6.291 
 
>  <logP> 
1.546 
 
>  <lumo_energy> 
-0.727 
 
>  <melting_point> 
42.32 
 
>  <molecular_refractivity> 
32.68 
 
>  <oscillator_strength_1> 
0.0084 
 
>  <oscillator_strength_2> 
0.0744 
 
>  <oscillator_strength_3> 
0.0 
 
>  <oscillator_strength_4> 
0.0156 
 
>  <open_babel_can_smiles> 
N#COc1ccccc1 
 
>  <mulliken_charges> 
14 
1   -0.118542 
2   -0.139281 
3   -0.142305 
4   -0.159395 
5   -0.168069 
6   0.525429 
7   0.331782 
8   -0.428069 
9   -0.481434 
10   0.142486 
11   0.147466 
12   0.150105 
13   0.160188 
14   0.179638 
 
>  <lowdin_charges> 
14 
1   -0.155584 
2   -0.139976 
3   -0.13671 
4   -0.169114 
5   -0.184278 
6   0.054099 
7   0.115849 
8   -0.16095 
9   -0.084735 
10   0.163273 
11   0.167391 
12   0.167934 
13   0.177219 
14   0.185583 
 
$$$$ 
 
