PCCDB-ID:  10857 
public computational chemistry database (PCCDB) project, http://pccdb.org 
 
 24 24  0  0  1  0  0  0  0  0999 V2000 
    4.5292   -2.9833   -3.4491 C   0  0  0  0  0  0  0  0  0  0  0  0 
    3.9851   -3.0432   -2.1684 C   0  0  0  0  0  0  0  0  0  0  0  0 
    5.6724   -2.2080   -3.6709 C   0  0  0  0  0  0  0  0  0  0  0  0 
    4.5652   -2.3406   -1.1070 C   0  0  0  0  0  0  0  0  0  0  0  0 
    6.2610   -1.5033   -2.6265 C   0  0  0  0  0  0  0  0  0  0  0  0 
    8.1495   -0.3687    1.9567 C   0  0  0  0  0  0  0  0  0  0  0  0 
    5.8302   -0.8125    0.9497 C   0  0  0  0  0  0  0  0  0  0  0  0 
    6.7161    0.1355    1.7505 C   0  0  2  0  0  0  0  0  0  0  0  0 
    5.7070   -1.5681   -1.3410 C   0  0  0  0  0  0  0  0  0  0  0  0 
    8.9106    0.6031    2.6483 O   0  0  0  0  0  0  0  0  0  0  0  0 
    6.7562    1.4245    1.1317 O   0  0  0  0  0  0  0  0  0  0  0  0 
    6.3607   -0.8444   -0.3755 O   0  0  0  0  0  0  0  0  0  0  0  0 
    4.0718   -3.5333   -4.2661 H   0  0  0  0  0  0  0  0  0  0  0  0 
    3.0981   -3.6425   -1.9807 H   0  0  0  0  0  0  0  0  0  0  0  0 
    6.1091   -2.1516   -4.6644 H   0  0  0  0  0  0  0  0  0  0  0  0 
    4.1252   -2.4034   -0.1184 H   0  0  0  0  0  0  0  0  0  0  0  0 
    7.1492   -0.8984   -2.7818 H   0  0  0  0  0  0  0  0  0  0  0  0 
    8.5953   -0.6160    0.9793 H   0  0  0  0  0  0  0  0  0  0  0  0 
    8.1520   -1.2799    2.5663 H   0  0  0  0  0  0  0  0  0  0  0  0 
    4.7996   -0.4348    0.9309 H   0  0  0  0  0  0  0  0  0  0  0  0 
    5.8314   -1.8191    1.3912 H   0  0  0  0  0  0  0  0  0  0  0  0 
    6.2588    0.2936    2.7339 H   0  0  0  0  0  0  0  0  0  0  0  0 
    8.6770    1.4488    2.2261 H   0  0  0  0  0  0  0  0  0  0  0  0 
    6.8995    1.2578    0.1833 H   0  0  0  0  0  0  0  0  0  0  0  0 
  1  2  1  0  0  0  0 
  2 14  1  0  0  0  0 
  2  4  2  0  0  0  0 
  3  1  2  0  0  0  0 
  3  5  1  0  0  0  0 
  4 16  1  0  0  0  0 
  5  9  2  0  0  0  0 
  6 19  1  0  0  0  0 
  6 10  1  0  0  0  0 
  7 21  1  0  0  0  0 
  7  8  1  0  0  0  0 
  8  6  1  0  0  0  0 
  8 22  1  1  0  0  0 
  9  4  1  0  0  0  0 
  9 12  1  0  0  0  0 
 11  8  1  0  0  0  0 
 12  7  1  0  0  0  0 
 13  1  1  0  0  0  0 
 15  3  1  0  0  0  0 
 17  5  1  0  0  0  0 
 18  6  1  0  0  0  0 
 20  7  1  0  0  0  0 
 23 10  1  0  0  0  0 
 24 11  1  0  0  0  0 
M  END 
>  <HBA> 
3 
 
>  <HBD> 
2 
 
>  <TPSA> 
49.69 
 
>  <cid> 
10857 
 
>  <dipole> 
2.87 
 
>  <excitation_energy_1> 
5.096 
 
>  <excitation_energy_2> 
5.673 
 
>  <excitation_energy_3> 
5.777 
 
>  <excitation_energy_4> 
5.906 
 
>  <homo_energy> 
-6.226 
 
>  <homo_lumo_gap> 
6.033 
 
>  <logP> 
0.419 
 
>  <lumo_energy> 
-0.193 
 
>  <melting_point> 
44.33 
 
>  <molecular_refractivity> 
44.87 
 
>  <oscillator_strength_1> 
0.0279 
 
>  <oscillator_strength_2> 
0.002 
 
>  <oscillator_strength_3> 
0.0814 
 
>  <oscillator_strength_4> 
0.0089 
 
>  <open_babel_can_smiles> 
OC[C@H](COc1ccccc1)O 
 
>  <mulliken_charges> 
24 
1   -0.130905 
2   -0.137583 
3   -0.132692 
4   -0.190746 
5   -0.174781 
6   -0.024679 
7   -0.059092 
8   0.081521 
9   0.379954 
10   -0.624692 
11   -0.639569 
12   -0.546931 
13   0.129977 
14   0.133898 
15   0.134488 
16   0.13693 
17   0.135424 
18   0.128802 
19   0.136747 
20   0.15733 
21   0.147248 
22   0.154006 
23   0.399138 
24   0.40621 
 
>  <lowdin_charges> 
24 
1   -0.176114 
2   -0.143702 
3   -0.143927 
4   -0.211216 
5   -0.182713 
6   -0.152186 
7   -0.140636 
8   -0.029697 
9   0.101513 
10   -0.46812 
11   -0.460538 
12   -0.215952 
13   0.160124 
14   0.159825 
15   0.160006 
16   0.162878 
17   0.164885 
18   0.130624 
19   0.146177 
20   0.149226 
21   0.146257 
22   0.154914 
23   0.343175 
24   0.345196 
 
$$$$ 
 
