PCCDB-ID:  68259 
public computational chemistry database (PCCDB) project, http://pccdb.org 
 
 19 20  0  0  0  0  0  0  0  0999 V2000 
    2.4233    0.7495   -0.0294 C   0  0  0  0  0  0  0  0  0  0  0  0 
    2.4552   -0.6633    0.0340 C   0  0  0  0  0  0  0  0  0  0  0  0 
   -2.4362    0.6595   -0.0080 C   0  0  0  0  0  0  0  0  0  0  0  0 
    1.2160    1.4086   -0.0554 C   0  0  0  0  0  0  0  0  0  0  0  0 
   -1.2610    1.3713   -0.0456 C   0  0  0  0  0  0  0  0  0  0  0  0 
    1.2836   -1.3860    0.0722 C   0  0  0  0  0  0  0  0  0  0  0  0 
   -2.4205   -0.7520    0.0616 C   0  0  0  0  0  0  0  0  0  0  0  0 
   -0.0126    0.6956   -0.0181 C   0  0  0  0  0  0  0  0  0  0  0  0 
    0.0190   -0.7379    0.0488 C   0  0  0  0  0  0  0  0  0  0  0  0 
   -1.2258   -1.4459    0.0899 C   0  0  0  0  0  0  0  0  0  0  0  0 
   -1.1795   -3.2347    0.1832 S   0  0  0  0  0  0  0  0  0  0  0  0 
    3.3534    1.3104   -0.0587 H   0  0  0  0  0  0  0  0  0  0  0  0 
    3.4102   -1.1809    0.0533 H   0  0  0  0  0  0  0  0  0  0  0  0 
   -3.3923    1.1752   -0.0294 H   0  0  0  0  0  0  0  0  0  0  0  0 
    1.1819    2.4943   -0.1064 H   0  0  0  0  0  0  0  0  0  0  0  0 
   -1.2703    2.4570   -0.0967 H   0  0  0  0  0  0  0  0  0  0  0  0 
    1.3288   -2.4702    0.1177 H   0  0  0  0  0  0  0  0  0  0  0  0 
   -3.3647   -1.2887    0.0930 H   0  0  0  0  0  0  0  0  0  0  0  0 
   -2.5154   -3.4117    0.1609 H   0  0  0  0  0  0  0  0  0  0  0  0 
  1  2  1  0  0  0  0 
  2 13  1  0  0  0  0 
  2  6  2  0  0  0  0 
  3  7  2  0  0  0  0 
  4  1  2  0  0  0  0 
  4  8  1  0  0  0  0 
  5  8  2  0  0  0  0 
  5  3  1  0  0  0  0 
  6 17  1  0  0  0  0 
  7 10  1  0  0  0  0 
  7 18  1  0  0  0  0 
  8  9  1  0  0  0  0 
  9  6  1  0  0  0  0 
  9 10  2  0  0  0  0 
 10 11  1  0  0  0  0 
 12  1  1  0  0  0  0 
 14  3  1  0  0  0  0 
 15  4  1  0  0  0  0 
 16  5  1  0  0  0  0 
 19 11  1  0  0  0  0 
M  END 
>  <HBA> 
1 
 
>  <HBD> 
1 
 
>  <TPSA> 
38.8 
 
>  <cid> 
68259 
 
>  <dipole> 
1.07 
 
>  <excitation_energy_1> 
3.943 
 
>  <excitation_energy_2> 
4.276 
 
>  <excitation_energy_3> 
4.629 
 
>  <excitation_energy_4> 
4.994 
 
>  <homo_energy> 
-5.578 
 
>  <homo_lumo_gap> 
4.471 
 
>  <logP> 
3.128 
 
>  <lumo_energy> 
-1.108 
 
>  <melting_point> 
73.42 
 
>  <molecular_refractivity> 
51.2 
 
>  <oscillator_strength_1> 
0.1176 
 
>  <oscillator_strength_2> 
0.0098 
 
>  <oscillator_strength_3> 
0.0019 
 
>  <oscillator_strength_4> 
0.0098 
 
>  <open_babel_can_smiles> 
Sc1cccc2c1cccc2 
 
>  <mulliken_charges> 
19 
1   -0.132243 
2   -0.134561 
3   -0.121085 
4   -0.191746 
5   -0.198341 
6   -0.208715 
7   -0.167159 
8   0.148071 
9   0.114774 
10   -0.125682 
11   -0.021101 
12   0.132528 
13   0.133729 
14   0.133297 
15   0.131833 
16   0.131138 
17   0.154377 
18   0.125815 
19   0.095071 
 
>  <lowdin_charges> 
19 
1   -0.15629 
2   -0.154802 
3   -0.153018 
4   -0.151994 
5   -0.16214 
6   -0.155122 
7   -0.179938 
8   0.006484 
9   -0.011513 
10   -0.109865 
11   -0.01261 
12   0.160154 
13   0.160607 
14   0.161027 
15   0.156699 
16   0.156849 
17   0.168212 
18   0.157652 
19   0.119607 
 
$$$$ 
 
