PCCDB-ID:  43457 
public computational chemistry database (PCCDB) project, http://pccdb.org 
 
 37 38  0  0  1  0  0  0  0  0999 V2000 
    0.8493   -0.1304    0.9514 C   0  0  0  0  0  0  0  0  0  0  0  0 
    4.8205    1.8854   -6.3106 C   0  0  0  0  0  0  0  0  0  0  0  0 
    2.0085   -0.0997    0.6060 C   0  0  0  0  0  0  0  0  0  0  0  0 
    5.0444   -0.8035    2.5245 C   0  0  0  0  0  0  0  0  0  0  0  0 
    4.2630   -1.8563    1.7243 C   0  0  0  0  0  0  0  0  0  0  0  0 
    4.3911    0.5816    2.4067 C   0  0  0  0  0  0  0  0  0  0  0  0 
    4.0816   -1.4313    0.2604 C   0  0  0  0  0  0  0  0  0  0  0  0 
    4.2128    0.9983    0.9403 C   0  0  0  0  0  0  0  0  0  0  0  0 
    2.8308    1.6138   -1.7479 C   0  0  0  0  0  0  0  0  0  0  0  0 
    2.7136   -0.4199   -2.3192 C   0  0  0  0  0  0  0  0  0  0  0  0 
    2.3710    0.9040   -3.0320 C   0  0  2  0  0  0  0  0  0  0  0  0 
    3.0707    0.6691   -5.3198 C   0  0  0  0  0  0  0  0  0  0  0  0 
    3.4094   -0.0407    0.1149 C   0  0  0  0  0  0  0  0  0  0  0  0 
    3.7447    0.9080   -6.3632 N   0  0  0  0  0  0  0  0  0  0  0  0 
    3.4690    0.3515   -1.3007 N   0  0  2  0  0  0  0  0  0  0  0  0 
    2.0556   -0.2350   -5.3325 O   0  0  0  0  0  0  0  0  0  0  0  0 
    3.2513    1.2464   -4.1140 O   0  0  0  0  0  0  0  0  0  0  0  0 
   -0.1675   -0.1524    1.2728 H   0  0  0  0  0  0  0  0  0  0  0  0 
    5.7808    1.3880   -6.1168 H   0  0  0  0  0  0  0  0  0  0  0  0 
    4.6795    2.6544   -5.5403 H   0  0  0  0  0  0  0  0  0  0  0  0 
    4.8996    2.3765   -7.2862 H   0  0  0  0  0  0  0  0  0  0  0  0 
    6.0757   -0.7521    2.1448 H   0  0  0  0  0  0  0  0  0  0  0  0 
    5.1129   -1.1015    3.5783 H   0  0  0  0  0  0  0  0  0  0  0  0 
    3.2777   -2.0089    2.1845 H   0  0  0  0  0  0  0  0  0  0  0  0 
    4.7806   -2.8231    1.7591 H   0  0  0  0  0  0  0  0  0  0  0  0 
    4.9955    1.3343    2.9279 H   0  0  0  0  0  0  0  0  0  0  0  0 
    3.4105    0.5657    2.9008 H   0  0  0  0  0  0  0  0  0  0  0  0 
    3.4948   -2.1809   -0.2835 H   0  0  0  0  0  0  0  0  0  0  0  0 
    5.0572   -1.3574   -0.2371 H   0  0  0  0  0  0  0  0  0  0  0  0 
    5.1901    1.0989    0.4507 H   0  0  0  0  0  0  0  0  0  0  0  0 
    3.7185    1.9754    0.8809 H   0  0  0  0  0  0  0  0  0  0  0  0 
    1.9755    1.9228   -1.1294 H   0  0  0  0  0  0  0  0  0  0  0  0 
    3.5190    2.4546   -1.8831 H   0  0  0  0  0  0  0  0  0  0  0  0 
    3.3068   -1.1430   -2.8874 H   0  0  0  0  0  0  0  0  0  0  0  0 
    1.8092   -0.9079   -1.9273 H   0  0  0  0  0  0  0  0  0  0  0  0 
    1.3348    1.0448   -3.3410 H   0  0  0  0  0  0  0  0  0  0  0  0 
    2.0321   -0.5620   -6.2493 H   0  0  0  0  0  0  0  0  0  0  0  0 
  1 18  1  0  0  0  0 
  2 19  1  0  0  0  0 
  2 20  1  0  0  0  0 
  3  1  3  0  0  0  0 
  4 23  1  0  0  0  0 
  5 25  1  0  0  0  0 
  5 24  1  0  0  0  0 
  5  4  1  0  0  0  0 
  6  4  1  0  0  0  0 
  6 27  1  0  0  0  0 
  6 26  1  0  0  0  0 
  7  5  1  0  0  0  0 
  8  6  1  0  0  0  0 
  9 15  1  0  0  0  0 
  9 32  1  0  0  0  0 
 10 35  1  0  0  0  0 
 10 15  1  0  0  0  0 
 11 36  1  6  0  0  0 
 11 10  1  0  0  0  0 
 11  9  1  0  0  0  0 
 12 17  1  0  0  0  0 
 13  7  1  0  0  0  0 
 13  3  1  0  0  0  0 
 13  8  1  0  0  0  0 
 14  2  1  0  0  0  0 
 14 12  2  0  0  0  0 
 15 13  1  1  0  0  0 
 16 12  1  0  0  0  0 
 17 11  1  0  0  0  0 
 21  2  1  0  0  0  0 
 22  4  1  0  0  0  0 
 28  7  1  0  0  0  0 
 29  7  1  0  0  0  0 
 30  8  1  0  0  0  0 
 31  8  1  0  0  0  0 
 33  9  1  0  0  0  0 
 34 10  1  0  0  0  0 
 37 16  1  0  0  0  0 
M  END 
>  <HBA> 
4 
 
>  <HBD> 
1 
 
>  <TPSA> 
41.57 
 
>  <cid> 
43457 
 
>  <dipole> 
1.98 
 
>  <excitation_energy_1> 
5.543 
 
>  <excitation_energy_2> 
5.757 
 
>  <excitation_energy_3> 
5.83 
 
>  <excitation_energy_4> 
5.91 
 
>  <homo_energy> 
-6.011 
 
>  <homo_lumo_gap> 
7.189 
 
>  <logP> 
1.692 
 
>  <lumo_energy> 
1.178 
 
>  <melting_point> 
94.91 
 
>  <molecular_refractivity> 
69.86 
 
>  <oscillator_strength_1> 
0.0051 
 
>  <oscillator_strength_2> 
0.0104 
 
>  <oscillator_strength_3> 
0.0179 
 
>  <oscillator_strength_4> 
0.0158 
 
>  <open_babel_can_smiles> 
C/N=C(\O[C@@H]1CN(C1)C1(CCCCC1)C#C)/O 
 
>  <mulliken_charges> 
37 
1   -0.535138 
2   -0.319098 
3   0.35098 
4   -0.25653 
5   -0.267503 
6   -0.267143 
7   -0.267584 
8   -0.267731 
9   -0.13402 
10   -0.124331 
11   0.090274 
12   0.725101 
13   0.0744 
14   -0.495266 
15   -0.423108 
16   -0.609681 
17   -0.49091 
18   0.189479 
19   0.150797 
20   0.148439 
21   0.149849 
22   0.129174 
23   0.131954 
24   0.144245 
25   0.133955 
26   0.133764 
27   0.144231 
28   0.141786 
29   0.147169 
30   0.147231 
31   0.140965 
32   0.142247 
33   0.159363 
34   0.157489 
35   0.142308 
36   0.16096 
37   0.421881 
 
>  <lowdin_charges> 
37 
1   -0.272191 
2   -0.352989 
3   -0.047005 
4   -0.275236 
5   -0.279187 
6   -0.280923 
7   -0.273642 
8   -0.271928 
9   -0.207805 
10   -0.213161 
11   0.003691 
12   0.18675 
13   0.065623 
14   -0.272496 
15   -0.185222 
16   -0.373336 
17   -0.186637 
18   0.203762 
19   0.148464 
20   0.142954 
21   0.149387 
22   0.13677 
23   0.143536 
24   0.146881 
25   0.146304 
26   0.147872 
27   0.146962 
28   0.151734 
29   0.150881 
30   0.150837 
31   0.149463 
32   0.145058 
33   0.154633 
34   0.154239 
35   0.146002 
36   0.150457 
37   0.369498 
 
$$$$ 
 
