PCCDB-ID:  16704 
public computational chemistry database (PCCDB) project, http://pccdb.org 
 
 19 20  0  0  1  0  0  0  0  0999 V2000 
    1.6235   -1.6445    0.5657 C   0  0  0  0  0  0  0  0  0  0  0  0 
    1.7622   -0.2724   -1.3518 C   0  0  0  0  0  0  0  0  0  0  0  0 
    3.2422   -2.5606    2.3811 C   0  0  0  0  0  0  0  0  0  0  0  0 
    1.8557    2.2691   -1.8887 C   0  0  0  0  0  0  0  0  0  0  0  0 
    2.0970   -1.7269    1.9967 C   0  0  2  0  0  0  0  0  0  0  0  0 
    2.4825    0.9418   -1.8865 C   0  0  2  0  0  0  0  0  0  0  0  0 
    2.1892   -0.4848   -0.0183 O   0  0  0  0  0  0  0  0  0  0  0  0 
    1.8969   -2.9943    2.6308 O   0  0  0  0  0  0  0  0  0  0  0  0 
    1.9375    1.4896   -3.0913 O   0  0  0  0  0  0  0  0  0  0  0  0 
    0.5216   -1.5935    0.5406 H   0  0  0  0  0  0  0  0  0  0  0  0 
    1.9235   -2.5555    0.0226 H   0  0  0  0  0  0  0  0  0  0  0  0 
    1.9962   -1.1497   -1.9787 H   0  0  0  0  0  0  0  0  0  0  0  0 
    0.6732   -0.1109   -1.4046 H   0  0  0  0  0  0  0  0  0  0  0  0 
    3.8225   -2.3068    3.2681 H   0  0  0  0  0  0  0  0  0  0  0  0 
    3.7791   -3.1213    1.6156 H   0  0  0  0  0  0  0  0  0  0  0  0 
    2.4800    3.1622   -1.8687 H   0  0  0  0  0  0  0  0  0  0  0  0 
    0.8530    2.3898   -1.4778 H   0  0  0  0  0  0  0  0  0  0  0  0 
    1.8530   -0.8600    2.6135 H   0  0  0  0  0  0  0  0  0  0  0  0 
    3.5719    0.8795   -1.8606 H   0  0  0  0  0  0  0  0  0  0  0  0 
  1  5  1  0  0  0  0 
  2  7  1  0  0  0  0 
  3  8  1  0  0  0  0 
  3 14  1  0  0  0  0 
  4  6  1  0  0  0  0 
  4 16  1  0  0  0  0 
  4 17  1  0  0  0  0 
  5  3  1  0  0  0  0 
  5 18  1  1  0  0  0 
  5  8  1  0  0  0  0 
  6 19  1  1  0  0  0 
  6  2  1  0  0  0  0 
  7  1  1  0  0  0  0 
  9  4  1  0  0  0  0 
  9  6  1  0  0  0  0 
 10  1  1  0  0  0  0 
 11  1  1  0  0  0  0 
 12  2  1  0  0  0  0 
 13  2  1  0  0  0  0 
 15  3  1  0  0  0  0 
M  END 
>  <HBA> 
3 
 
>  <HBD> 
0 
 
>  <TPSA> 
34.29 
 
>  <cid> 
16704 
 
>  <dipole> 
1.24 
 
>  <excitation_energy_1> 
6.767 
 
>  <excitation_energy_2> 
7.017 
 
>  <excitation_energy_3> 
7.134 
 
>  <excitation_energy_4> 
7.146 
 
>  <homo_energy> 
-7.287 
 
>  <homo_lumo_gap> 
9.056 
 
>  <logP> 
-0.199 
 
>  <lumo_energy> 
1.769 
 
>  <melting_point> 
-8.25 
 
>  <molecular_refractivity> 
29.98 
 
>  <oscillator_strength_1> 
0.0111 
 
>  <oscillator_strength_2> 
0.0099 
 
>  <oscillator_strength_3> 
0.0214 
 
>  <oscillator_strength_4> 
0.0307 
 
>  <open_babel_can_smiles> 
O(C[C@H]1OC1)C[C@H]1OC1 
 
>  <mulliken_charges> 
19 
1   -0.029077 
2   -0.029069 
3   -0.103404 
4   -0.103537 
5   0.090459 
6   0.090711 
7   -0.482452 
8   -0.445564 
9   -0.445655 
10   0.134908 
11   0.13268 
12   0.134952 
13   0.132624 
14   0.154941 
15   0.152695 
16   0.154966 
17   0.152705 
18   0.153594 
19   0.153522 
 
>  <lowdin_charges> 
19 
1   -0.129932 
2   -0.12974 
3   -0.164315 
4   -0.161608 
5   -0.025075 
6   -0.022662 
7   -0.27284 
8   -0.28343 
9   -0.283042 
10   0.133942 
11   0.137001 
12   0.137201 
13   0.134483 
14   0.157499 
15   0.155327 
16   0.157 
17   0.153299 
18   0.154954 
19   0.151938 
 
$$$$ 
 
