PCCDB-ID:  29635 
public computational chemistry database (PCCDB) project, http://pccdb.org 
 
 28 27  0  0  1  0  0  0  0  0999 V2000 
    3.4673    0.1517   -1.5699 C   0  0  0  0  0  0  0  0  0  0  0  0 
    6.9035    3.4654    5.1419 C   0  0  0  0  0  0  0  0  0  0  0  0 
    8.9188   -0.7281    3.4490 C   0  0  0  0  0  0  0  0  0  0  0  0 
    3.7185   -1.0357   -1.0127 C   0  0  0  0  0  0  0  0  0  0  0  0 
    7.0269    2.3946    5.9302 C   0  0  0  0  0  0  0  0  0  0  0  0 
    6.7492   -0.3960    2.1562 C   0  0  0  0  0  0  0  0  0  0  0  0 
    5.2424   -0.1659    2.2475 C   0  0  0  0  0  0  0  0  0  0  0  0 
    7.4276   -0.4169    3.5242 C   0  0  2  0  0  0  0  0  0  0  0  0 
    4.3444   -1.2304    0.3184 C   0  0  0  0  0  0  0  0  0  0  0  0 
    7.2312    1.0051    5.4488 C   0  0  0  0  0  0  0  0  0  0  0  0 
    4.5583   -2.3272    0.7986 O   0  0  0  0  0  0  0  0  0  0  0  0 
    7.3759    0.0592    6.1990 O   0  0  0  0  0  0  0  0  0  0  0  0 
    4.6451   -0.0634    0.9367 O   0  0  0  0  0  0  0  0  0  0  0  0 
    7.2341    0.9097    4.0976 O   0  0  0  0  0  0  0  0  0  0  0  0 
    3.0071    0.2262   -2.5511 H   0  0  0  0  0  0  0  0  0  0  0  0 
    3.7130    1.0791   -1.0629 H   0  0  0  0  0  0  0  0  0  0  0  0 
    6.7620    4.4580    5.5600 H   0  0  0  0  0  0  0  0  0  0  0  0 
    6.9438    3.3818    4.0607 H   0  0  0  0  0  0  0  0  0  0  0  0 
    9.0743   -1.7213    3.0135 H   0  0  0  0  0  0  0  0  0  0  0  0 
    9.3597   -0.7211    4.4493 H   0  0  0  0  0  0  0  0  0  0  0  0 
    9.4376    0.0087    2.8258 H   0  0  0  0  0  0  0  0  0  0  0  0 
    3.4757   -1.9677   -1.5147 H   0  0  0  0  0  0  0  0  0  0  0  0 
    6.9937    2.4733    7.0129 H   0  0  0  0  0  0  0  0  0  0  0  0 
    7.2015    0.3875    1.5355 H   0  0  0  0  0  0  0  0  0  0  0  0 
    6.9327   -1.3578    1.6656 H   0  0  0  0  0  0  0  0  0  0  0  0 
    5.0197    0.7884    2.7276 H   0  0  0  0  0  0  0  0  0  0  0  0 
    4.7563   -0.9764    2.7978 H   0  0  0  0  0  0  0  0  0  0  0  0 
    6.9366   -1.1347    4.1889 H   0  0  0  0  0  0  0  0  0  0  0  0 
  1 16  1  0  0  0  0 
  1  4  2  0  0  0  0 
  2 17  1  0  0  0  0 
  2  5  2  0  0  0  0 
  3  8  1  0  0  0  0 
  3 20  1  0  0  0  0 
  4  9  1  0  0  0  0 
  5 23  1  0  0  0  0 
  6  7  1  0  0  0  0 
  6  8  1  0  0  0  0 
  7 26  1  0  0  0  0 
  7 27  1  0  0  0  0 
  8 14  1  0  0  0  0 
  8 28  1  1  0  0  0 
  9 11  2  0  0  0  0 
  9 13  1  0  0  0  0 
 10  5  1  0  0  0  0 
 10 12  2  0  0  0  0 
 13  7  1  0  0  0  0 
 14 10  1  0  0  0  0 
 15  1  1  0  0  0  0 
 18  2  1  0  0  0  0 
 19  3  1  0  0  0  0 
 21  3  1  0  0  0  0 
 22  4  1  0  0  0  0 
 24  6  1  0  0  0  0 
 25  6  1  0  0  0  0 
M  END 
>  <HBA> 
4 
 
>  <HBD> 
0 
 
>  <TPSA> 
52.6 
 
>  <cid> 
29635 
 
>  <dipole> 
3.83 
 
>  <excitation_energy_1> 
4.68 
 
>  <excitation_energy_2> 
4.708 
 
>  <excitation_energy_3> 
5.711 
 
>  <excitation_energy_4> 
5.713 
 
>  <homo_energy> 
-7.437 
 
>  <homo_lumo_gap> 
6.12 
 
>  <logP> 
1.223 
 
>  <lumo_energy> 
-1.317 
 
>  <melting_point> 
-45.53 
 
>  <molecular_refractivity> 
51.81 
 
>  <oscillator_strength_1> 
0.0002 
 
>  <oscillator_strength_2> 
0.0 
 
>  <oscillator_strength_3> 
0.0094 
 
>  <oscillator_strength_4> 
0.0018 
 
>  <open_babel_can_smiles> 
C=CC(=O)OCC[C@H](OC(=O)C=C)C 
 
>  <mulliken_charges> 
28 
1   -0.310649 
2   -0.312406 
3   -0.462944 
4   -0.129865 
5   -0.130492 
6   -0.295787 
7   -0.049142 
8   0.117118 
9   0.61096 
10   0.61637 
11   -0.488642 
12   -0.485979 
13   -0.478924 
14   -0.493388 
15   0.158954 
16   0.175946 
17   0.15953 
18   0.173564 
19   0.154628 
20   0.176135 
21   0.151754 
22   0.159373 
23   0.160046 
24   0.151127 
25   0.171646 
26   0.163989 
27   0.169105 
28   0.167975 
 
>  <lowdin_charges> 
28 
1   -0.274368 
2   -0.274405 
3   -0.452078 
4   -0.178615 
5   -0.176059 
6   -0.294961 
7   -0.132296 
8   0.009833 
9   0.193431 
10   0.196984 
11   -0.268527 
12   -0.267133 
13   -0.193565 
14   -0.203071 
15   0.168646 
16   0.175959 
17   0.169032 
18   0.17244 
19   0.160072 
20   0.167544 
21   0.155799 
22   0.174719 
23   0.172826 
24   0.154578 
25   0.166667 
26   0.157877 
27   0.159746 
28   0.158925 
 
$$$$ 
 
