PCCDB-ID:  36170 
public computational chemistry database (PCCDB) project, http://pccdb.org 
 
 42 44  0  0  1  0  0  0  0  0999 V2000 
    1.0633    0.6527    0.0589 C   0  0  0  0  0  0  0  0  0  0  0  0 
    2.7874    2.0130   -0.8912 C   0  0  0  0  0  0  0  0  0  0  0  0 
    4.6729    0.6460    1.1620 C   0  0  0  0  0  0  0  0  0  0  0  0 
    3.1601    0.8882    1.2315 C   0  0  0  0  0  0  0  0  0  0  0  0 
   10.2660   -0.5447    2.7088 C   0  0  0  0  0  0  0  0  0  0  0  0 
    8.0522   -1.1947    1.7248 C   0  0  0  0  0  0  0  0  0  0  0  0 
    8.7339    1.2711    1.8657 C   0  0  0  0  0  0  0  0  0  0  0  0 
    8.4708   -1.3973    4.2588 C   0  0  0  0  0  0  0  0  0  0  0  0 
    9.2453    1.0256    4.3743 C   0  0  0  0  0  0  0  0  0  0  0  0 
    9.0688   -1.5059    2.8401 C   0  0  2  0  0  0  0  0  0  0  0  0 
    9.7814    0.8995    2.9372 C   0  0  1  0  0  0  0  0  0  0  0  0 
    7.5531    0.2746    1.7322 C   0  0  2  0  0  0  0  0  0  0  0  0 
    8.0885    0.0466    4.6651 C   0  0  1  0  0  0  0  0  0  0  0  0 
    6.4450    0.4721    2.7628 C   0  0  0  0  0  0  0  0  0  0  0  0 
    5.1890    0.6014    2.5206 N   0  0  0  0  0  0  0  0  0  0  0  0 
    6.8260    0.5159    4.0903 N   0  0  0  0  0  0  0  0  0  0  0  0 
    2.5014    0.8406   -0.0749 N   0  0  0  0  0  0  0  0  0  0  0  0 
    0.6108    0.5520   -0.9345 H   0  0  0  0  0  0  0  0  0  0  0  0 
    0.5559    1.4909    0.5782 H   0  0  0  0  0  0  0  0  0  0  0  0 
    0.8589   -0.2654    0.6200 H   0  0  0  0  0  0  0  0  0  0  0  0 
    2.3064    1.9053   -1.8699 H   0  0  0  0  0  0  0  0  0  0  0  0 
    3.8637    2.1118   -1.0595 H   0  0  0  0  0  0  0  0  0  0  0  0 
    2.4254    2.9570   -0.4345 H   0  0  0  0  0  0  0  0  0  0  0  0 
    5.1512    1.4411    0.5678 H   0  0  0  0  0  0  0  0  0  0  0  0 
    4.8364   -0.2964    0.6155 H   0  0  0  0  0  0  0  0  0  0  0  0 
    2.9709    1.8435    1.7603 H   0  0  0  0  0  0  0  0  0  0  0  0 
    2.7334    0.0966    1.8574 H   0  0  0  0  0  0  0  0  0  0  0  0 
   10.7193   -0.6435    1.7128 H   0  0  0  0  0  0  0  0  0  0  0  0 
   11.0444   -0.8016    3.4405 H   0  0  0  0  0  0  0  0  0  0  0  0 
    7.1927   -1.8747    1.7851 H   0  0  0  0  0  0  0  0  0  0  0  0 
    8.5366   -1.3870    0.7574 H   0  0  0  0  0  0  0  0  0  0  0  0 
    9.2461    1.3053    0.8940 H   0  0  0  0  0  0  0  0  0  0  0  0 
    8.3458    2.2811    2.0483 H   0  0  0  0  0  0  0  0  0  0  0  0 
    9.2186   -1.7648    4.9760 H   0  0  0  0  0  0  0  0  0  0  0  0 
    7.5907   -2.0454    4.3580 H   0  0  0  0  0  0  0  0  0  0  0  0 
    8.9017    2.0470    4.5761 H   0  0  0  0  0  0  0  0  0  0  0  0 
   10.0668    0.8145    5.0737 H   0  0  0  0  0  0  0  0  0  0  0  0 
    9.4147   -2.5389    2.6988 H   0  0  0  0  0  0  0  0  0  0  0  0 
   10.6292    1.5895    2.8283 H   0  0  0  0  0  0  0  0  0  0  0  0 
    7.0915    0.4600    0.7590 H   0  0  0  0  0  0  0  0  0  0  0  0 
    7.9121    0.0531    5.7465 H   0  0  0  0  0  0  0  0  0  0  0  0 
    6.0228    0.5305    4.7067 H   0  0  0  0  0  0  0  0  0  0  0  0 
  1 19  1  0  0  0  0 
  1 20  1  0  0  0  0 
  2 23  1  0  0  0  0 
  2 17  1  0  0  0  0 
  3  4  1  0  0  0  0 
  3 15  1  0  0  0  0 
  4 26  1  0  0  0  0 
  4 27  1  0  0  0  0 
  5 10  1  0  0  0  0 
  5 11  1  0  0  0  0 
  5 29  1  0  0  0  0 
  6 12  1  0  0  0  0 
  6 30  1  0  0  0  0 
  6 10  1  0  0  0  0 
  7 33  1  0  0  0  0 
  7 11  1  0  0  0  0 
  8 35  1  0  0  0  0 
  8 13  1  0  0  0  0 
  8 34  1  0  0  0  0 
  9 36  1  0  0  0  0 
  9 13  1  0  0  0  0 
  9 37  1  0  0  0  0 
 10 38  1  6  0  0  0 
 10  8  1  0  0  0  0 
 11 39  1  6  0  0  0 
 11  9  1  0  0  0  0 
 12 40  1  6  0  0  0 
 12  7  1  0  0  0  0 
 12 14  1  0  0  0  0 
 13 41  1  1  0  0  0 
 14 16  1  0  0  0  0 
 15 14  2  0  0  0  0 
 16 13  1  0  0  0  0 
 16 42  1  0  0  0  0 
 17  1  1  0  0  0  0 
 17  4  1  0  0  0  0 
 18  1  1  0  0  0  0 
 21  2  1  0  0  0  0 
 22  2  1  0  0  0  0 
 24  3  1  0  0  0  0 
 25  3  1  0  0  0  0 
 28  5  1  0  0  0  0 
 31  6  1  0  0  0  0 
 32  7  1  0  0  0  0 
M  END 
>  <HBA> 
3 
 
>  <HBD> 
1 
 
>  <TPSA> 
27.63 
 
>  <cid> 
36170 
 
>  <dipole> 
2.51 
 
>  <excitation_energy_1> 
4.661 
 
>  <excitation_energy_2> 
4.998 
 
>  <excitation_energy_3> 
5.14 
 
>  <excitation_energy_4> 
5.237 
 
>  <homo_energy> 
-5.333 
 
>  <homo_lumo_gap> 
6.324 
 
>  <logP> 
1.571 
 
>  <lumo_energy> 
0.991 
 
>  <melting_point> 
83.54 
 
>  <molecular_refractivity> 
75.78 
 
>  <oscillator_strength_1> 
0.003 
 
>  <oscillator_strength_2> 
0.0003 
 
>  <oscillator_strength_3> 
0.0007 
 
>  <oscillator_strength_4> 
0.0455 
 
>  <open_babel_can_smiles> 
CN(CC/N=C\1/N[C@@H]2C[C@@H]3C[C@H]1C[C@H](C2)C3)C 
 
>  <mulliken_charges> 
42 
1   -0.289582 
2   -0.297562 
3   -0.137214 
4   -0.113589 
5   -0.26915 
6   -0.275067 
7   -0.274092 
8   -0.264724 
9   -0.253852 
10   -0.087177 
11   -0.089355 
12   -0.176492 
13   0.020707 
14   0.510678 
15   -0.521022 
16   -0.602058 
17   -0.372784 
18   0.141797 
19   0.114194 
20   0.146988 
21   0.14335 
22   0.148541 
23   0.114215 
24   0.12429 
25   0.134288 
26   0.112505 
27   0.138793 
28   0.126764 
29   0.12609 
30   0.14452 
31   0.133296 
32   0.131581 
33   0.143287 
34   0.129293 
35   0.137333 
36   0.139478 
37   0.126158 
38   0.121269 
39   0.120439 
40   0.145917 
41   0.1306 
42   0.31735 
 
>  <lowdin_charges> 
42 
1   -0.355895 
2   -0.35597 
3   -0.210796 
4   -0.205259 
5   -0.282541 
6   -0.276807 
7   -0.277116 
8   -0.292222 
9   -0.286522 
10   -0.13145 
11   -0.133169 
12   -0.153177 
13   -0.061266 
14   0.090432 
15   -0.26836 
16   -0.290461 
17   -0.186358 
18   0.145559 
19   0.119202 
20   0.148795 
21   0.146847 
22   0.145947 
23   0.118111 
24   0.128951 
25   0.134867 
26   0.119383 
27   0.14864 
28   0.139875 
29   0.14084 
30   0.149412 
31   0.144083 
32   0.144151 
33   0.14866 
34   0.1457 
35   0.147488 
36   0.147711 
37   0.142705 
38   0.140985 
39   0.142316 
40   0.159871 
41   0.14724 
42   0.279597 
 
$$$$ 
 
