PCCDB-ID:  39749 
public computational chemistry database (PCCDB) project, http://pccdb.org 
 
 25 24  0  0  0  0  0  0  0  0999 V2000 
    2.3795   -1.0527   -2.4868 C   0  0  0  0  0  0  0  0  0  0  0  0 
    4.5443   -4.6675   -1.9337 C   0  0  0  0  0  0  0  0  0  0  0  0 
    2.2121   -0.6234   -1.0264 C   0  0  0  0  0  0  0  0  0  0  0  0 
    4.5878   -4.2030   -0.4659 C   0  0  0  0  0  0  0  0  0  0  0  0 
    2.8208   -1.6153   -0.0113 C   0  0  0  0  0  0  0  0  0  0  0  0 
    4.3218   -1.7028   -0.0969 C   0  0  0  0  0  0  0  0  0  0  0  0 
    6.5986   -2.6260   -0.3414 C   0  0  0  0  0  0  0  0  0  0  0  0 
    5.0931   -2.7841   -0.2990 C   0  0  0  0  0  0  0  0  0  0  0  0 
    7.2544   -3.3378    0.7129 O   0  0  0  0  0  0  0  0  0  0  0  0 
    1.9358   -0.3187   -3.1692 H   0  0  0  0  0  0  0  0  0  0  0  0 
    1.8903   -2.0173   -2.6723 H   0  0  0  0  0  0  0  0  0  0  0  0 
    3.4373   -1.1622   -2.7505 H   0  0  0  0  0  0  0  0  0  0  0  0 
    4.2176   -5.7117   -1.9994 H   0  0  0  0  0  0  0  0  0  0  0  0 
    5.5301   -4.6007   -2.4080 H   0  0  0  0  0  0  0  0  0  0  0  0 
    3.8504   -4.0557   -2.5206 H   0  0  0  0  0  0  0  0  0  0  0  0 
    1.1444   -0.5041   -0.7995 H   0  0  0  0  0  0  0  0  0  0  0  0 
    2.6682    0.3658   -0.8791 H   0  0  0  0  0  0  0  0  0  0  0  0 
    5.2556   -4.8655    0.0987 H   0  0  0  0  0  0  0  0  0  0  0  0 
    3.5918   -4.3150   -0.0248 H   0  0  0  0  0  0  0  0  0  0  0  0 
    2.3582   -2.5997   -0.1464 H   0  0  0  0  0  0  0  0  0  0  0  0 
    2.5448   -1.2792    1.0002 H   0  0  0  0  0  0  0  0  0  0  0  0 
    4.8295   -0.7403    0.0123 H   0  0  0  0  0  0  0  0  0  0  0  0 
    6.8689   -1.5589   -0.3250 H   0  0  0  0  0  0  0  0  0  0  0  0 
    7.0141   -3.0545   -1.2611 H   0  0  0  0  0  0  0  0  0  0  0  0 
    6.8844   -3.0026    1.5454 H   0  0  0  0  0  0  0  0  0  0  0  0 
  1  3  1  0  0  0  0 
  2  4  1  0  0  0  0 
  3 17  1  0  0  0  0 
  3 16  1  0  0  0  0 
  3  5  1  0  0  0  0 
  4  8  1  0  0  0  0 
  4 19  1  0  0  0  0 
  4 18  1  0  0  0  0 
  5 21  1  0  0  0  0 
  6  5  1  0  0  0  0 
  6 22  1  0  0  0  0 
  7 23  1  0  0  0  0 
  7  8  1  0  0  0  0 
  7  9  1  0  0  0  0 
  8  6  2  0  0  0  0 
  9 25  1  0  0  0  0 
 10  1  1  0  0  0  0 
 11  1  1  0  0  0  0 
 12  1  1  0  0  0  0 
 13  2  1  0  0  0  0 
 14  2  1  0  0  0  0 
 15  2  1  0  0  0  0 
 20  5  1  0  0  0  0 
 24  7  1  0  0  0  0 
M  END 
>  <HBA> 
1 
 
>  <HBD> 
1 
 
>  <TPSA> 
20.23 
 
>  <cid> 
39749 
 
>  <dipole> 
1.8 
 
>  <excitation_energy_1> 
5.938 
 
>  <excitation_energy_2> 
6.344 
 
>  <excitation_energy_3> 
6.4 
 
>  <excitation_energy_4> 
6.426 
 
>  <homo_energy> 
-6.49 
 
>  <homo_lumo_gap> 
6.947 
 
>  <logP> 
2.115 
 
>  <lumo_energy> 
0.457 
 
>  <melting_point> 
3.94 
 
>  <molecular_refractivity> 
41.26 
 
>  <oscillator_strength_1> 
0.0515 
 
>  <oscillator_strength_2> 
0.1459 
 
>  <oscillator_strength_3> 
0.0202 
 
>  <oscillator_strength_4> 
0.0276 
 
>  <open_babel_can_smiles> 
CCC/C=C(/CO)\CC 
 
>  <mulliken_charges> 
25 
1   -0.441176 
2   -0.446308 
3   -0.25171 
4   -0.326783 
5   -0.293895 
6   -0.167361 
7   -0.098238 
8   0.143707 
9   -0.610433 
10   0.142239 
11   0.141728 
12   0.152609 
13   0.144348 
14   0.148194 
15   0.15009 
16   0.133586 
17   0.132444 
18   0.157982 
19   0.138807 
20   0.139333 
21   0.140594 
22   0.112846 
23   0.124844 
24   0.148548 
25   0.384005 
 
>  <lowdin_charges> 
25 
1   -0.447533 
2   -0.442191 
3   -0.26749 
4   -0.279316 
5   -0.275498 
6   -0.180426 
7   -0.132542 
8   -0.041159 
9   -0.469234 
10   0.151081 
11   0.145383 
12   0.150179 
13   0.149227 
14   0.14833 
15   0.150758 
16   0.140856 
17   0.138986 
18   0.158183 
19   0.146038 
20   0.14611 
21   0.14948 
22   0.143802 
23   0.128738 
24   0.148458 
25   0.339783 
 
$$$$ 
 
