PCCDB-ID:  10983 
public computational chemistry database (PCCDB) project, http://pccdb.org 
 
 22 21  0  0  0  0  0  0  0  0999 V2000 
    0.6917   -0.0655   -0.1030 C   0  0  0  0  0  0  0  0  0  0  0  0 
    2.4347    1.4534    0.9439 C   0  0  0  0  0  0  0  0  0  0  0  0 
    3.0958   -0.5104   -0.5121 C   0  0  0  0  0  0  0  0  0  0  0  0 
    4.5901   -0.3686   -0.4369 C   0  0  0  0  0  0  0  0  0  0  0  0 
    2.1583    0.2531    0.0710 C   0  0  0  0  0  0  0  0  0  0  0  0 
    6.5299   -0.3532   -1.9454 C   0  0  0  0  0  0  0  0  0  0  0  0 
    7.2971   -0.6088   -0.9483 N   0  0  0  0  0  0  0  0  0  0  0  0 
    6.9151   -0.0794   -3.2715 N   0  0  0  0  0  0  0  0  0  0  0  0 
    5.1511   -0.2940   -1.7889 N   0  0  0  0  0  0  0  0  0  0  0  0 
    0.2126   -0.2616    0.8666 H   0  0  0  0  0  0  0  0  0  0  0  0 
    0.5356   -0.9412   -0.7406 H   0  0  0  0  0  0  0  0  0  0  0  0 
    0.1531    0.7828   -0.5485 H   0  0  0  0  0  0  0  0  0  0  0  0 
    2.0731    1.2786    1.9668 H   0  0  0  0  0  0  0  0  0  0  0  0 
    1.8926    2.3334    0.5710 H   0  0  0  0  0  0  0  0  0  0  0  0 
    3.4942    1.7109    1.0065 H   0  0  0  0  0  0  0  0  0  0  0  0 
    2.7625   -1.3521   -1.1208 H   0  0  0  0  0  0  0  0  0  0  0  0 
    5.0369   -1.2502    0.0362 H   0  0  0  0  0  0  0  0  0  0  0  0 
    4.9023    0.4892    0.1725 H   0  0  0  0  0  0  0  0  0  0  0  0 
    8.2644   -0.7280   -1.2551 H   0  0  0  0  0  0  0  0  0  0  0  0 
    7.8851   -0.3025   -3.4605 H   0  0  0  0  0  0  0  0  0  0  0  0 
    6.3040   -0.4979   -3.9659 H   0  0  0  0  0  0  0  0  0  0  0  0 
    4.7077    0.4063   -2.3733 H   0  0  0  0  0  0  0  0  0  0  0  0 
  1  5  1  0  0  0  0 
  1 10  1  0  0  0  0 
  2 15  1  0  0  0  0 
  2 13  1  0  0  0  0 
  3  4  1  0  0  0  0 
  3  5  2  0  0  0  0 
  4 17  1  0  0  0  0 
  4 18  1  0  0  0  0 
  5  2  1  0  0  0  0 
  6  9  1  0  0  0  0 
  6  7  1  0  0  0  0 
  8  6  2  0  0  0  0 
  9  4  1  0  0  0  0 
 11  1  1  0  0  0  0 
 12  1  1  0  0  0  0 
 14  2  1  0  0  0  0 
 16  3  1  0  0  0  0 
 19  7  1  0  0  0  0 
 20  8  1  0  0  0  0 
 21  8  1  0  0  0  0 
 22  9  1  0  0  0  0 
M  RAD  1   7   2 
M  END 
>  <HBA> 
3 
 
>  <HBD> 
2 
 
>  <TPSA> 
64.4 
 
>  <cid> 
10983 
 
>  <dipole> 
2.51 
 
>  <excitation_energy_1> 
5.224 
 
>  <excitation_energy_2> 
5.72 
 
>  <excitation_energy_3> 
5.838 
 
>  <excitation_energy_4> 
5.939 
 
>  <homo_energy> 
-5.965 
 
>  <homo_lumo_gap> 
6.686 
 
>  <logP> 
1.627 
 
>  <lumo_energy> 
0.721 
 
>  <melting_point> 
113.01 
 
>  <molecular_refractivity> 
39.58 
 
>  <oscillator_strength_1> 
0.0055 
 
>  <oscillator_strength_2> 
0.0612 
 
>  <oscillator_strength_3> 
0.0143 
 
>  <oscillator_strength_4> 
0.0255 
 
>  <open_babel_can_smiles> 
[NH]C(=[NH2])NCC=C(C)C 
 
>  <mulliken_charges> 
22 
1   -0.505624 
2   -0.514682 
3   -0.18987 
4   -0.148377 
5   0.190591 
6   0.586705 
7   -0.646565 
8   -0.756143 
9   -0.604251 
10   0.152192 
11   0.152697 
12   0.148901 
13   0.156472 
14   0.150159 
15   0.159897 
16   0.12024 
17   0.182375 
18   0.149848 
19   0.26209 
20   0.31672 
21   0.320698 
22   0.315927 
 
>  <lowdin_charges> 
22 
1   -0.440734 
2   -0.444577 
3   -0.204107 
4   -0.190075 
5   -0.003377 
6   0.124273 
7   -0.478454 
8   -0.516155 
9   -0.314048 
10   0.154207 
11   0.155441 
12   0.15349 
13   0.157121 
14   0.154967 
15   0.156874 
16   0.150338 
17   0.171498 
18   0.144027 
19   0.244229 
20   0.272857 
21   0.278101 
22   0.274103 
 
$$$$ 
 
