PCCDB-ID:  57765 
public computational chemistry database (PCCDB) project, http://pccdb.org 
 
 30 30  0  0  0  0  0  0  0  0999 V2000 
    1.3077   -0.4524   -0.3666 C   0  0  0  0  0  0  0  0  0  0  0  0 
    9.9862   -2.8738   -1.9725 C   0  0  0  0  0  0  0  0  0  0  0  0 
    2.3621   -0.8482    0.3468 C   0  0  0  0  0  0  0  0  0  0  0  0 
    8.8101   -2.9775   -1.3551 C   0  0  0  0  0  0  0  0  0  0  0  0 
    3.4573   -1.7489   -0.1587 C   0  0  0  0  0  0  0  0  0  0  0  0 
    8.4974   -2.3839    0.0019 C   0  0  0  0  0  0  0  0  0  0  0  0 
    5.0583    0.2388   -0.1137 C   0  0  0  0  0  0  0  0  0  0  0  0 
    7.4547   -0.0751   -0.0204 C   0  0  0  0  0  0  0  0  0  0  0  0 
    4.8487   -1.1361   -0.1037 C   0  0  0  0  0  0  0  0  0  0  0  0 
    7.2896   -1.4594   -0.0148 C   0  0  0  0  0  0  0  0  0  0  0  0 
    6.3501    0.7819   -0.0689 C   0  0  0  0  0  0  0  0  0  0  0  0 
    5.9803   -1.9749   -0.0606 C   0  0  0  0  0  0  0  0  0  0  0  0 
    6.4910    2.2550   -0.0779 C   0  0  0  0  0  0  0  0  0  0  0  0 
    5.7357   -3.3221   -0.0742 O   0  0  0  0  0  0  0  0  0  0  0  0 
    7.7878    2.6697   -0.0268 O   0  0  0  0  0  0  0  0  0  0  0  0 
    5.5713    3.0495   -0.1254 O   0  0  0  0  0  0  0  0  0  0  0  0 
    0.5360    0.1840    0.0579 H   0  0  0  0  0  0  0  0  0  0  0  0 
    1.1742   -0.7530   -1.4040 H   0  0  0  0  0  0  0  0  0  0  0  0 
   10.1578   -3.3134   -2.9512 H   0  0  0  0  0  0  0  0  0  0  0  0 
   10.8233   -2.3428   -1.5237 H   0  0  0  0  0  0  0  0  0  0  0  0 
    2.4612   -0.5165    1.3813 H   0  0  0  0  0  0  0  0  0  0  0  0 
    7.9950   -3.5077   -1.8498 H   0  0  0  0  0  0  0  0  0  0  0  0 
    3.2332   -2.0596   -1.1891 H   0  0  0  0  0  0  0  0  0  0  0  0 
    3.4682   -2.6749    0.4311 H   0  0  0  0  0  0  0  0  0  0  0  0 
    9.3694   -1.8292    0.3638 H   0  0  0  0  0  0  0  0  0  0  0  0 
    8.3465   -3.1938    0.7378 H   0  0  0  0  0  0  0  0  0  0  0  0 
    4.2117    0.9161   -0.1544 H   0  0  0  0  0  0  0  0  0  0  0  0 
    8.4557    0.3421    0.0126 H   0  0  0  0  0  0  0  0  0  0  0  0 
    6.5655   -3.8056    0.0545 H   0  0  0  0  0  0  0  0  0  0  0  0 
    7.7457    3.6434   -0.0389 H   0  0  0  0  0  0  0  0  0  0  0  0 
  1 17  1  0  0  0  0 
  1  3  2  0  0  0  0 
  2 20  1  0  0  0  0 
  2  4  2  0  0  0  0 
  3 21  1  0  0  0  0 
  4  6  1  0  0  0  0 
  5  9  1  0  0  0  0 
  5  3  1  0  0  0  0 
  5 24  1  0  0  0  0 
  6 25  1  0  0  0  0 
  6 26  1  0  0  0  0 
  7  9  2  0  0  0  0 
  7 11  1  0  0  0  0 
  8 10  1  0  0  0  0 
  8 28  1  0  0  0  0 
  9 12  1  0  0  0  0 
 10  6  1  0  0  0  0 
 11  8  2  0  0  0  0 
 12 10  2  0  0  0  0 
 13 11  1  0  0  0  0 
 13 15  1  0  0  0  0 
 14 12  1  0  0  0  0 
 14 29  1  0  0  0  0 
 16 13  2  0  0  0  0 
 18  1  1  0  0  0  0 
 19  2  1  0  0  0  0 
 22  4  1  0  0  0  0 
 23  5  1  0  0  0  0 
 27  7  1  0  0  0  0 
 30 15  1  0  0  0  0 
M  END 
>  <HBA> 
3 
 
>  <HBD> 
2 
 
>  <TPSA> 
57.53 
 
>  <cid> 
57765 
 
>  <dipole> 
3.46 
 
>  <excitation_energy_1> 
4.723 
 
>  <excitation_energy_2> 
4.897 
 
>  <excitation_energy_3> 
4.978 
 
>  <excitation_energy_4> 
5.196 
 
>  <homo_energy> 
-6.229 
 
>  <homo_lumo_gap> 
5.268 
 
>  <logP> 
2.547 
 
>  <lumo_energy> 
-0.961 
 
>  <melting_point> 
101.44 
 
>  <molecular_refractivity> 
63.64 
 
>  <oscillator_strength_1> 
0.0032 
 
>  <oscillator_strength_2> 
0.2416 
 
>  <oscillator_strength_3> 
0.0011 
 
>  <oscillator_strength_4> 
0.0269 
 
>  <open_babel_can_smiles> 
C=CCc1cc(cc(c1O)CC=C)C(=O)O 
 
>  <mulliken_charges> 
30 
1   -0.341941 
2   -0.335333 
3   -0.043406 
4   -0.033189 
5   -0.370931 
6   -0.451988 
7   -0.236831 
8   -0.238547 
9   0.122069 
10   0.1634 
11   0.084014 
12   0.223131 
13   0.535567 
14   -0.643502 
15   -0.590437 
16   -0.482174 
17   0.142962 
18   0.137888 
19   0.147334 
20   0.140736 
21   0.134956 
22   0.135312 
23   0.16226 
24   0.172019 
25   0.167076 
26   0.149369 
27   0.168676 
28   0.1543 
29   0.418496 
30   0.408713 
 
>  <lowdin_charges> 
30 
1   -0.338003 
2   -0.331981 
3   -0.142814 
4   -0.153482 
5   -0.26749 
6   -0.278432 
7   -0.132874 
8   -0.138635 
9   -0.031776 
10   -0.051562 
11   -0.065843 
12   0.102098 
13   0.197394 
14   -0.374864 
15   -0.367995 
16   -0.280802 
17   0.161304 
18   0.153884 
19   0.162451 
20   0.157674 
21   0.152587 
22   0.152999 
23   0.160581 
24   0.168497 
25   0.166485 
26   0.147921 
27   0.183058 
28   0.17096 
29   0.359744 
30   0.358914 
 
$$$$ 
 
