PCCDB-ID:  21405 
public computational chemistry database (PCCDB) project, http://pccdb.org 
 
 22 21  0  0  1  0  0  0  0  0999 V2000 
    0.8885   -0.0778    0.1391 C   0  0  0  0  0  0  0  0  0  0  0  0 
    6.5507    1.4527   -2.5229 C   0  0  0  0  0  0  0  0  0  0  0  0 
    2.4183   -0.0282    0.0684 C   0  0  0  0  0  0  0  0  0  0  0  0 
    2.9414    0.6149   -1.2222 C   0  0  0  0  0  0  0  0  0  0  0  0 
    4.4718    0.6617   -1.2984 C   0  0  0  0  0  0  0  0  0  0  0  0 
    5.0239    1.2807   -2.5931 C   0  0  2  0  0  0  0  0  0  0  0  0 
    4.5697    0.4874   -3.7488 N   0  0  0  0  0  0  0  0  0  0  0  0 
    0.5439   -0.5426    1.0702 H   0  0  0  0  0  0  0  0  0  0  0  0 
    0.4729   -0.6549   -0.6961 H   0  0  0  0  0  0  0  0  0  0  0  0 
    0.4568    0.9295    0.0900 H   0  0  0  0  0  0  0  0  0  0  0  0 
    6.8495    2.1006   -1.6892 H   0  0  0  0  0  0  0  0  0  0  0  0 
    6.9387    1.8977   -3.4478 H   0  0  0  0  0  0  0  0  0  0  0  0 
    7.0450    0.4815   -2.3856 H   0  0  0  0  0  0  0  0  0  0  0  0 
    2.8206   -1.0481    0.1542 H   0  0  0  0  0  0  0  0  0  0  0  0 
    2.8064    0.5239    0.9368 H   0  0  0  0  0  0  0  0  0  0  0  0 
    2.5458    1.6387   -1.3032 H   0  0  0  0  0  0  0  0  0  0  0  0 
    2.5585    0.0725   -2.0947 H   0  0  0  0  0  0  0  0  0  0  0  0 
    4.8771   -0.3583   -1.1971 H   0  0  0  0  0  0  0  0  0  0  0  0 
    4.8672    1.2284   -0.4435 H   0  0  0  0  0  0  0  0  0  0  0  0 
    4.5717    2.2765   -2.7103 H   0  0  0  0  0  0  0  0  0  0  0  0 
    5.0150   -0.4315   -3.7157 H   0  0  0  0  0  0  0  0  0  0  0  0 
    4.8982    0.9225   -4.6107 H   0  0  0  0  0  0  0  0  0  0  0  0 
  1  8  1  0  0  0  0 
  2 13  1  0  0  0  0 
  2 11  1  0  0  0  0 
  3  1  1  0  0  0  0 
  3 14  1  0  0  0  0 
  3 15  1  0  0  0  0 
  4  3  1  0  0  0  0 
  5  4  1  0  0  0  0 
  5 18  1  0  0  0  0 
  5 19  1  0  0  0  0 
  6 20  1  6  0  0  0 
  6  2  1  0  0  0  0 
  6  5  1  0  0  0  0 
  7 21  1  0  0  0  0 
  7  6  1  0  0  0  0 
  9  1  1  0  0  0  0 
 10  1  1  0  0  0  0 
 12  2  1  0  0  0  0 
 16  4  1  0  0  0  0 
 17  4  1  0  0  0  0 
 22  7  1  0  0  0  0 
M  END 
>  <HBA> 
1 
 
>  <HBD> 
1 
 
>  <TPSA> 
26.02 
 
>  <cid> 
21405 
 
>  <dipole> 
1.39 
 
>  <excitation_energy_1> 
5.714 
 
>  <excitation_energy_2> 
6.372 
 
>  <excitation_energy_3> 
6.561 
 
>  <excitation_energy_4> 
6.645 
 
>  <homo_energy> 
-6.234 
 
>  <homo_lumo_gap> 
8.324 
 
>  <logP> 
2.224 
 
>  <lumo_energy> 
2.09 
 
>  <melting_point> 
27.69 
 
>  <molecular_refractivity> 
33.66 
 
>  <oscillator_strength_1> 
0.0397 
 
>  <oscillator_strength_2> 
0.0076 
 
>  <oscillator_strength_3> 
0.0088 
 
>  <oscillator_strength_4> 
0.0059 
 
>  <open_babel_can_smiles> 
CCCC[C@H](N)C 
 
>  <mulliken_charges> 
22 
1   -0.440298 
2   -0.446601 
3   -0.247609 
4   -0.2416 
5   -0.248443 
6   0.026508 
7   -0.705025 
8   0.138236 
9   0.14214 
10   0.139984 
11   0.140014 
12   0.133281 
13   0.133768 
14   0.12636 
15   0.125089 
16   0.120559 
17   0.155734 
18   0.116587 
19   0.125597 
20   0.12812 
21   0.28556 
22   0.29204 
 
>  <lowdin_charges> 
22 
1   -0.444959 
2   -0.463157 
3   -0.272001 
4   -0.275566 
5   -0.277975 
6   -0.063196 
7   -0.550194 
8   0.147552 
9   0.147564 
10   0.144952 
11   0.149701 
12   0.144555 
13   0.143182 
14   0.135776 
15   0.136314 
16   0.13495 
17   0.153005 
18   0.132793 
19   0.14083 
20   0.135917 
21   0.247468 
22   0.25249 
 
$$$$ 
 
