PCCDB-ID:  35090 
public computational chemistry database (PCCDB) project, http://pccdb.org 
 
 27 28  0  0  0  0  0  0  0  0999 V2000 
    0.7247   -0.2619   -0.0546 C   0  0  0  0  0  0  0  0  0  0  0  0 
    4.7697   -2.9548    0.3356 C   0  0  0  0  0  0  0  0  0  0  0  0 
    9.0224    2.8834   -0.3327 C   0  0  0  0  0  0  0  0  0  0  0  0 
    8.6808    1.5401   -0.1762 C   0  0  0  0  0  0  0  0  0  0  0  0 
    8.0047    3.8307   -0.4625 C   0  0  0  0  0  0  0  0  0  0  0  0 
    7.3482    1.1273   -0.1465 C   0  0  0  0  0  0  0  0  0  0  0  0 
    6.6710    3.4367   -0.4351 C   0  0  0  0  0  0  0  0  0  0  0  0 
    2.2247   -0.3647   -0.0239 C   0  0  0  0  0  0  0  0  0  0  0  0 
    4.1015   -1.6197    0.1582 C   0  0  0  0  0  0  0  0  0  0  0  0 
    6.3281    2.0824   -0.2769 C   0  0  0  0  0  0  0  0  0  0  0  0 
    4.2614    0.6137   -0.1225 C   0  0  0  0  0  0  0  0  0  0  0  0 
    2.7624   -1.5899    0.1384 N   0  0  0  0  0  0  0  0  0  0  0  0 
    2.9174    0.7636   -0.1579 N   0  0  0  0  0  0  0  0  0  0  0  0 
    4.9036   -0.5543    0.0318 N   0  0  0  0  0  0  0  0  0  0  0  0 
    4.9526    1.7828   -0.2608 N   0  0  0  0  0  0  0  0  0  0  0  0 
    0.2750   -1.2506    0.0485 H   0  0  0  0  0  0  0  0  0  0  0  0 
    0.3970    0.1960   -0.9944 H   0  0  0  0  0  0  0  0  0  0  0  0 
    0.3749    0.3865    0.7565 H   0  0  0  0  0  0  0  0  0  0  0  0 
    4.0222   -3.7437    0.4312 H   0  0  0  0  0  0  0  0  0  0  0  0 
    5.4071   -2.9412    1.2267 H   0  0  0  0  0  0  0  0  0  0  0  0 
    5.4204   -3.1663   -0.5203 H   0  0  0  0  0  0  0  0  0  0  0  0 
   10.0644    3.1893   -0.3535 H   0  0  0  0  0  0  0  0  0  0  0  0 
    9.4613    0.7906   -0.0734 H   0  0  0  0  0  0  0  0  0  0  0  0 
    8.2467    4.8829   -0.5857 H   0  0  0  0  0  0  0  0  0  0  0  0 
    7.0888    0.0855   -0.0246 H   0  0  0  0  0  0  0  0  0  0  0  0 
    5.8834    4.1810   -0.5362 H   0  0  0  0  0  0  0  0  0  0  0  0 
    4.3282    2.5729   -0.3661 H   0  0  0  0  0  0  0  0  0  0  0  0 
  1  8  1  0  0  0  0 
  1 16  1  0  0  0  0 
  1 18  1  0  0  0  0 
  2 19  1  0  0  0  0 
  2 20  1  0  0  0  0 
  3  4  2  0  0  0  0 
  4  6  1  0  0  0  0 
  4 23  1  0  0  0  0 
  5  7  2  0  0  0  0 
  5  3  1  0  0  0  0 
  6 25  1  0  0  0  0 
  7 10  1  0  0  0  0 
  8 12  2  0  0  0  0 
  9  2  1  0  0  0  0 
 10 15  1  0  0  0  0 
 10  6  2  0  0  0  0 
 11 14  1  0  0  0  0 
 12  9  2  0  0  0  0 
 13 11  2  0  0  0  0 
 13  8  1  0  0  0  0 
 14  9  1  0  0  0  0 
 15 11  1  0  0  0  0 
 17  1  1  0  0  0  0 
 21  2  1  0  0  0  0 
 22  3  1  0  0  0  0 
 24  5  1  0  0  0  0 
 26  7  1  0  0  0  0 
 27 15  1  0  0  0  0 
M  RAD  1  14   2 
M  END 
>  <HBA> 
3 
 
>  <HBD> 
1 
 
>  <TPSA> 
50.7 
 
>  <cid> 
35090 
 
>  <dipole> 
0.92 
 
>  <excitation_energy_1> 
4.085 
 
>  <excitation_energy_2> 
4.648 
 
>  <excitation_energy_3> 
4.651 
 
>  <excitation_energy_4> 
4.81 
 
>  <homo_energy> 
-5.788 
 
>  <homo_lumo_gap> 
4.827 
 
>  <logP> 
2.305 
 
>  <lumo_energy> 
-0.961 
 
>  <melting_point> 
133.63 
 
>  <molecular_refractivity> 
59.3 
 
>  <oscillator_strength_1> 
0.0088 
 
>  <oscillator_strength_2> 
0.6205 
 
>  <oscillator_strength_3> 
0.0012 
 
>  <oscillator_strength_4> 
0.0055 
 
>  <open_babel_can_smiles> 
CC1=[N]=C(C)N=C([N]1)Nc1ccccc1 
 
>  <mulliken_charges> 
27 
1   -0.506603 
2   -0.508364 
3   -0.128472 
4   -0.143808 
5   -0.132522 
6   -0.155422 
7   -0.19839 
8   0.443866 
9   0.447103 
10   0.359101 
11   0.686224 
12   -0.479316 
13   -0.50996 
14   -0.499537 
15   -0.762756 
16   0.176406 
17   0.174791 
18   0.175041 
19   0.176743 
20   0.175269 
21   0.175374 
22   0.127374 
23   0.131357 
24   0.131013 
25   0.17718 
26   0.1242 
27   0.344105 
 
>  <lowdin_charges> 
27 
1   -0.44829 
2   -0.448654 
3   -0.170756 
4   -0.147834 
5   -0.147063 
6   -0.185494 
7   -0.19021 
8   0.121226 
9   0.125099 
10   0.06206 
11   0.143672 
12   -0.215751 
13   -0.218957 
14   -0.21238 
15   -0.21139 
16   0.170244 
17   0.173275 
18   0.174192 
19   0.171472 
20   0.173582 
21   0.173941 
22   0.156479 
23   0.159667 
24   0.157638 
25   0.181951 
26   0.155054 
27   0.297227 
 
$$$$ 
 
