PCCDB-ID:  30361 
public computational chemistry database (PCCDB) project, http://pccdb.org 
 
 27 27  0  0  0  0  0  0  0  0999 V2000 
    1.2892   -1.2785   -0.6143 C   0  0  0  0  0  0  0  0  0  0  0  0 
    0.2917   -1.8422    0.4295 C   0  0  0  0  0  0  0  0  0  0  0  0 
    2.2110   -0.1536   -0.1011 C   0  0  0  0  0  0  0  0  0  0  0  0 
   -1.1879   -1.8260   -0.0037 C   0  0  0  0  0  0  0  0  0  0  0  0 
    1.5115    1.0645    0.5345 C   0  0  0  0  0  0  0  0  0  0  0  0 
   -1.7741   -0.4576   -0.4074 C   0  0  0  0  0  0  0  0  0  0  0  0 
    0.4507    1.7523   -0.3626 C   0  0  0  0  0  0  0  0  0  0  0  0 
   -1.6462    0.6528    0.6646 C   0  0  0  0  0  0  0  0  0  0  0  0 
   -1.3533    3.0797    0.3901 N   0  0  0  0  0  0  0  0  0  0  0  0 
   -0.8809    1.8264    0.2330 N   0  0  0  0  0  0  0  0  0  0  0  0 
   -2.4589    3.1824    0.9109 O   0  0  0  0  0  0  0  0  0  0  0  0 
    0.7413   -0.9203   -1.4949 H   0  0  0  0  0  0  0  0  0  0  0  0 
    1.9274   -2.0875   -0.9903 H   0  0  0  0  0  0  0  0  0  0  0  0 
    0.3931   -1.2963    1.3752 H   0  0  0  0  0  0  0  0  0  0  0  0 
    0.5566   -2.8786    0.6722 H   0  0  0  0  0  0  0  0  0  0  0  0 
    2.8350    0.1889   -0.9386 H   0  0  0  0  0  0  0  0  0  0  0  0 
    2.9068   -0.5677    0.6415 H   0  0  0  0  0  0  0  0  0  0  0  0 
   -1.7903   -2.2406    0.8166 H   0  0  0  0  0  0  0  0  0  0  0  0 
   -1.3213   -2.5118   -0.8517 H   0  0  0  0  0  0  0  0  0  0  0  0 
    2.2787    1.7988    0.8069 H   0  0  0  0  0  0  0  0  0  0  0  0 
    1.0440    0.7735    1.4810 H   0  0  0  0  0  0  0  0  0  0  0  0 
   -2.8360   -0.6008   -0.6397 H   0  0  0  0  0  0  0  0  0  0  0  0 
   -1.3214   -0.1190   -1.3454 H   0  0  0  0  0  0  0  0  0  0  0  0 
    0.3845    1.2454   -1.3328 H   0  0  0  0  0  0  0  0  0  0  0  0 
    0.7171    2.7920   -0.5671 H   0  0  0  0  0  0  0  0  0  0  0  0 
   -1.1978    0.2557    1.5841 H   0  0  0  0  0  0  0  0  0  0  0  0 
   -2.6215    1.0575    0.9416 H   0  0  0  0  0  0  0  0  0  0  0  0 
  1  3  1  0  0  0  0 
  1  2  1  0  0  0  0 
  2 15  1  0  0  0  0 
  2 14  1  0  0  0  0 
  3  5  1  0  0  0  0 
  3 17  1  0  0  0  0 
  4  2  1  0  0  0  0 
  4 18  1  0  0  0  0 
  5 20  1  0  0  0  0 
  5 21  1  0  0  0  0 
  6  4  1  0  0  0  0 
  6  8  1  0  0  0  0 
  7 10  1  0  0  0  0 
  7  5  1  0  0  0  0 
  8 27  1  0  0  0  0 
  8 26  1  0  0  0  0 
  9 11  2  0  0  0  0 
 10  9  1  0  0  0  0 
 10  8  1  0  0  0  0 
 12  1  1  0  0  0  0 
 13  1  1  0  0  0  0 
 16  3  1  0  0  0  0 
 19  4  1  0  0  0  0 
 22  6  1  0  0  0  0 
 23  6  1  0  0  0  0 
 24  7  1  0  0  0  0 
 25  7  1  0  0  0  0 
M  END 
>  <HBA> 
3 
 
>  <HBD> 
0 
 
>  <TPSA> 
32.67 
 
>  <cid> 
30361 
 
>  <dipole> 
4.42 
 
>  <excitation_energy_1> 
3.415 
 
>  <excitation_energy_2> 
5.59 
 
>  <excitation_energy_3> 
5.693 
 
>  <excitation_energy_4> 
5.767 
 
>  <homo_energy> 
-5.913 
 
>  <homo_lumo_gap> 
5.26 
 
>  <logP> 
2.262 
 
>  <lumo_energy> 
-0.653 
 
>  <melting_point> 
16.37 
 
>  <molecular_refractivity> 
50.01 
 
>  <oscillator_strength_1> 
0.001 
 
>  <oscillator_strength_2> 
0.0373 
 
>  <oscillator_strength_3> 
0.1533 
 
>  <oscillator_strength_4> 
0.0029 
 
>  <open_babel_can_smiles> 
O=NN1CCCCCCCC1 
 
>  <mulliken_charges> 
27 
1   -0.265125 
2   -0.264037 
3   -0.273538 
4   -0.273122 
5   -0.279928 
6   -0.27989 
7   -0.134524 
8   -0.15675 
9   0.152534 
10   -0.239345 
11   -0.382363 
12   0.13517 
13   0.140306 
14   0.135742 
15   0.140106 
16   0.135484 
17   0.138291 
18   0.136735 
19   0.13723 
20   0.15107 
21   0.153167 
22   0.153097 
23   0.149882 
24   0.154011 
25   0.178095 
26   0.158678 
27   0.199024 
 
>  <lowdin_charges> 
27 
1   -0.287427 
2   -0.285375 
3   -0.279917 
4   -0.278729 
5   -0.293653 
6   -0.286893 
7   -0.203583 
8   -0.226863 
9   0.047805 
10   -0.044972 
11   -0.272801 
12   0.140059 
13   0.150107 
14   0.139916 
15   0.147899 
16   0.143938 
17   0.146627 
18   0.144742 
19   0.145391 
20   0.15601 
21   0.150281 
22   0.154034 
23   0.148516 
24   0.146114 
25   0.168263 
26   0.151309 
27   0.179204 
 
$$$$ 
 
