PCCDB-ID:  8864 
public computational chemistry database (PCCDB) project, http://pccdb.org 
 
 24 24  0  0  0  0  0  0  0  0999 V2000 
    3.7953    0.7816    0.3156 C   0  0  0  0  0  0  0  0  0  0  0  0 
    1.1678   -5.4142    0.0386 C   0  0  0  0  0  0  0  0  0  0  0  0 
    2.5547    0.1646   -0.3550 C   0  0  0  0  0  0  0  0  0  0  0  0 
    2.5944   -4.8684    0.2305 C   0  0  0  0  0  0  0  0  0  0  0  0 
    3.5984   -2.6523   -2.7143 C   0  0  0  0  0  0  0  0  0  0  0  0 
    3.3169   -1.3796   -2.2179 C   0  0  0  0  0  0  0  0  0  0  0  0 
    3.3817   -3.7793   -1.9213 C   0  0  0  0  0  0  0  0  0  0  0  0 
    2.6040   -2.3610   -0.1411 C   0  0  0  0  0  0  0  0  0  0  0  0 
    2.8164   -1.2167   -0.9196 C   0  0  0  0  0  0  0  0  0  0  0  0 
    2.8782   -3.6479   -0.6208 C   0  0  0  0  0  0  0  0  0  0  0  0 
    3.5719    1.7791    0.7120 H   0  0  0  0  0  0  0  0  0  0  0  0 
    4.6209    0.8762   -0.3987 H   0  0  0  0  0  0  0  0  0  0  0  0 
    4.1445    0.1560    1.1448 H   0  0  0  0  0  0  0  0  0  0  0  0 
    0.9967   -6.2949    0.6687 H   0  0  0  0  0  0  0  0  0  0  0  0 
    0.9954   -5.7030   -1.0043 H   0  0  0  0  0  0  0  0  0  0  0  0 
    0.4198   -4.6574    0.3009 H   0  0  0  0  0  0  0  0  0  0  0  0 
    2.2116    0.8302   -1.1574 H   0  0  0  0  0  0  0  0  0  0  0  0 
    1.7385    0.1134    0.3769 H   0  0  0  0  0  0  0  0  0  0  0  0 
    3.3166   -5.6590   -0.0101 H   0  0  0  0  0  0  0  0  0  0  0  0 
    2.7452   -4.6213    1.2891 H   0  0  0  0  0  0  0  0  0  0  0  0 
    3.9889   -2.7663   -3.7226 H   0  0  0  0  0  0  0  0  0  0  0  0 
    3.4875   -0.5043   -2.8415 H   0  0  0  0  0  0  0  0  0  0  0  0 
    3.6040   -4.7696   -2.3134 H   0  0  0  0  0  0  0  0  0  0  0  0 
    2.2119   -2.2468    0.8691 H   0  0  0  0  0  0  0  0  0  0  0  0 
  1 11  1  0  0  0  0 
  1 13  1  0  0  0  0 
  2  4  1  0  0  0  0 
  2 16  1  0  0  0  0 
  2 14  1  0  0  0  0 
  3  1  1  0  0  0  0 
  3 18  1  0  0  0  0 
  4 20  1  0  0  0  0 
  5  6  2  0  0  0  0 
  5  7  1  0  0  0  0 
  6  9  1  0  0  0  0 
  7 10  2  0  0  0  0 
  8 24  1  0  0  0  0 
  9  3  1  0  0  0  0 
  9  8  2  0  0  0  0 
 10  8  1  0  0  0  0 
 10  4  1  0  0  0  0 
 12  1  1  0  0  0  0 
 15  2  1  0  0  0  0 
 17  3  1  0  0  0  0 
 19  4  1  0  0  0  0 
 21  5  1  0  0  0  0 
 22  6  1  0  0  0  0 
 23  7  1  0  0  0  0 
M  END 
>  <HBA> 
0 
 
>  <HBD> 
0 
 
>  <TPSA> 
0.0 
 
>  <cid> 
8864 
 
>  <dipole> 
0.25 
 
>  <excitation_energy_1> 
5.199 
 
>  <excitation_energy_2> 
5.693 
 
>  <excitation_energy_3> 
5.951 
 
>  <excitation_energy_4> 
6.019 
 
>  <homo_energy> 
-6.264 
 
>  <homo_lumo_gap> 
6.449 
 
>  <logP> 
2.811 
 
>  <lumo_energy> 
0.185 
 
>  <melting_point> 
10.66 
 
>  <molecular_refractivity> 
45.99 
 
>  <oscillator_strength_1> 
0.001 
 
>  <oscillator_strength_2> 
0.0314 
 
>  <oscillator_strength_3> 
0.0007 
 
>  <oscillator_strength_4> 
0.0907 
 
>  <open_babel_can_smiles> 
CCc1cccc(c1)CC 
 
>  <mulliken_charges> 
24 
1   -0.432798 
2   -0.432759 
3   -0.339295 
4   -0.339438 
5   -0.125438 
6   -0.186008 
7   -0.186522 
8   -0.241929 
9   0.182002 
10   0.182326 
11   0.142042 
12   0.148941 
13   0.148867 
14   0.142046 
15   0.14899 
16   0.148753 
17   0.141709 
18   0.14113 
19   0.141512 
20   0.14137 
21   0.125008 
22   0.118433 
23   0.118484 
24   0.112571 
 
>  <lowdin_charges> 
24 
1   -0.441076 
2   -0.440481 
3   -0.272269 
4   -0.270207 
5   -0.152733 
6   -0.174798 
7   -0.173664 
8   -0.177632 
9   0.001084 
10   0.001084 
11   0.147945 
12   0.150903 
13   0.151197 
14   0.148887 
15   0.149335 
16   0.151109 
17   0.149213 
18   0.148247 
19   0.148887 
20   0.146391 
21   0.154498 
22   0.153278 
23   0.152218 
24   0.148587 
 
$$$$ 
 
