PCCDB-ID:  6534 
public computational chemistry database (PCCDB) project, http://pccdb.org 
 
 25 24  0  0  0  0  0  0  0  0999 V2000 
    1.3822    0.7719   -1.7722 C   0  0  0  0  0  0  0  0  0  0  0  0 
    8.1357    0.1896   -1.1272 C   0  0  0  0  0  0  0  0  0  0  0  0 
    4.9374    4.2481   -0.5996 C   0  0  0  0  0  0  0  0  0  0  0  0 
    2.7185    0.3205   -1.2109 C   0  0  0  0  0  0  0  0  0  0  0  0 
    6.6511    0.0422   -0.8474 C   0  0  0  0  0  0  0  0  0  0  0  0 
    4.7210    3.2896    0.5802 C   0  0  0  0  0  0  0  0  0  0  0  0 
    4.4396    0.5601    1.2620 O   0  0  0  0  0  0  0  0  0  0  0  0 
    3.5507    1.4890   -1.0189 O   0  0  0  0  0  0  0  0  0  0  0  0 
    6.1050    1.3588   -0.6060 O   0  0  0  0  0  0  0  0  0  0  0  0 
    4.6785    1.5252    0.1538 P   0  0  0  0  0  0  0  0  0  0  0  0 
    0.7413   -0.0972   -1.9605 H   0  0  0  0  0  0  0  0  0  0  0  0 
    1.5165    1.3116   -2.7154 H   0  0  0  0  0  0  0  0  0  0  0  0 
    0.8700    1.4327   -1.0655 H   0  0  0  0  0  0  0  0  0  0  0  0 
    8.5748   -0.7902   -1.3471 H   0  0  0  0  0  0  0  0  0  0  0  0 
    8.6522    0.6142   -0.2606 H   0  0  0  0  0  0  0  0  0  0  0  0 
    8.3045    0.8459   -1.9869 H   0  0  0  0  0  0  0  0  0  0  0  0 
    4.9343    5.2856   -0.2482 H   0  0  0  0  0  0  0  0  0  0  0  0 
    4.1450    4.1365   -1.3451 H   0  0  0  0  0  0  0  0  0  0  0  0 
    5.8962    4.0548   -1.0888 H   0  0  0  0  0  0  0  0  0  0  0  0 
    3.2293   -0.3538   -1.9099 H   0  0  0  0  0  0  0  0  0  0  0  0 
    2.6025   -0.1973   -0.2542 H   0  0  0  0  0  0  0  0  0  0  0  0 
    6.4647   -0.5862    0.0293 H   0  0  0  0  0  0  0  0  0  0  0  0 
    6.1332   -0.3995   -1.7088 H   0  0  0  0  0  0  0  0  0  0  0  0 
    3.7718    3.4975    1.0875 H   0  0  0  0  0  0  0  0  0  0  0  0 
    5.5132    3.4031    1.3291 H   0  0  0  0  0  0  0  0  0  0  0  0 
  1  4  1  0  0  0  0 
  1 13  1  0  0  0  0 
  2  5  1  0  0  0  0 
  2 15  1  0  0  0  0 
  3 17  1  0  0  0  0 
  3  6  1  0  0  0  0 
  4  8  1  0  0  0  0 
  4 21  1  0  0  0  0 
  5  9  1  0  0  0  0 
  5 22  1  0  0  0  0 
  6 24  1  0  0  0  0 
  6 25  1  0  0  0  0 
  8 10  1  0  0  0  0 
  9 10  1  0  0  0  0 
 10  6  1  0  0  0  0 
 10  7  2  0  0  0  0 
 11  1  1  0  0  0  0 
 12  1  1  0  0  0  0 
 14  2  1  0  0  0  0 
 16  2  1  0  0  0  0 
 18  3  1  0  0  0  0 
 19  3  1  0  0  0  0 
 20  4  1  0  0  0  0 
 23  5  1  0  0  0  0 
M  END 
>  <HBA> 
3 
 
>  <HBD> 
0 
 
>  <TPSA> 
45.34 
 
>  <cid> 
6534 
 
>  <dipole> 
2.18 
 
>  <excitation_energy_1> 
6.971 
 
>  <excitation_energy_2> 
7.088 
 
>  <excitation_energy_3> 
7.3 
 
>  <excitation_energy_4> 
7.374 
 
>  <homo_energy> 
-7.407 
 
>  <homo_lumo_gap> 
9.309 
 
>  <logP> 
2.272 
 
>  <lumo_energy> 
1.902 
 
>  <melting_point> 
-29.03 
 
>  <molecular_refractivity> 
41.79 
 
>  <oscillator_strength_1> 
0.006 
 
>  <oscillator_strength_2> 
0.0215 
 
>  <oscillator_strength_3> 
0.0026 
 
>  <oscillator_strength_4> 
0.0202 
 
>  <open_babel_can_smiles> 
CCP(=O)(OCC)OCC 
 
>  <mulliken_charges> 
25 
1   -0.453318 
2   -0.454883 
3   -0.454476 
4   -0.039237 
5   -0.03691 
6   -0.469811 
7   -0.583197 
8   -0.549102 
9   -0.540861 
10   1.145454 
11   0.148567 
12   0.159641 
13   0.161376 
14   0.148672 
15   0.163909 
16   0.160716 
17   0.14941 
18   0.170327 
19   0.170509 
20   0.141291 
21   0.178865 
22   0.174589 
23   0.143283 
24   0.181715 
25   0.18347 
 
>  <lowdin_charges> 
25 
1   -0.450327 
2   -0.448436 
3   -0.439372 
4   -0.12089 
5   -0.1204 
6   -0.444685 
7   -0.608031 
8   -0.414164 
9   -0.410312 
10   1.05919 
11   0.157887 
12   0.157398 
13   0.159807 
14   0.15724 
15   0.160624 
16   0.158695 
17   0.152179 
18   0.162842 
19   0.162206 
20   0.141537 
21   0.16363 
22   0.161241 
23   0.141986 
24   0.179324 
25   0.180832 
 
$$$$ 
 
