PCCDB-ID:  10451 
public computational chemistry database (PCCDB) project, http://pccdb.org 
 
 14 14  0  0  0  0  0  0  0  0999 V2000 
    0.7318    1.2960   -0.2389 C   0  0  0  0  0  0  0  0  0  0  0  0 
    1.5216    0.0877    0.2767 C   0  0  0  0  0  0  0  0  0  0  0  0 
   -0.7048    1.3727    0.2901 C   0  0  0  0  0  0  0  0  0  0  0  0 
   -0.8216   -1.4026    0.3445 C   0  0  0  0  0  0  0  0  0  0  0  0 
    0.8848   -1.5357   -0.3038 S   0  0  0  0  0  0  0  0  0  0  0  0 
   -1.7972    0.0116   -0.2867 S   0  0  0  0  0  0  0  0  0  0  0  0 
    0.7217    1.2900   -1.3343 H   0  0  0  0  0  0  0  0  0  0  0  0 
    1.2595    2.2071    0.0797 H   0  0  0  0  0  0  0  0  0  0  0  0 
    1.5528    0.0874    1.3740 H   0  0  0  0  0  0  0  0  0  0  0  0 
    2.5557    0.1274   -0.0789 H   0  0  0  0  0  0  0  0  0  0  0  0 
   -1.1911    2.2896   -0.0566 H   0  0  0  0  0  0  0  0  0  0  0  0 
   -0.7106    1.3939    1.3876 H   0  0  0  0  0  0  0  0  0  0  0  0 
   -0.7986   -1.3752    1.4389 H   0  0  0  0  0  0  0  0  0  0  0  0 
   -1.3470   -2.3097    0.0368 H   0  0  0  0  0  0  0  0  0  0  0  0 
  1  8  1  0  0  0  0 
  1  2  1  0  0  0  0 
  1  3  1  0  0  0  0 
  2  9  1  0  0  0  0 
  3 12  1  0  0  0  0 
  4 13  1  0  0  0  0 
  5  2  1  0  0  0  0 
  5  4  1  0  0  0  0 
  6  3  1  0  0  0  0 
  6  4  1  0  0  0  0 
  7  1  1  0  0  0  0 
 10  2  1  0  0  0  0 
 11  3  1  0  0  0  0 
 14  4  1  0  0  0  0 
M  END 
>  <HBA> 
2 
 
>  <HBD> 
0 
 
>  <TPSA> 
50.6 
 
>  <cid> 
10451 
 
>  <dipole> 
2.31 
 
>  <excitation_energy_1> 
4.845 
 
>  <excitation_energy_2> 
5.14 
 
>  <excitation_energy_3> 
5.316 
 
>  <excitation_energy_4> 
5.587 
 
>  <homo_energy> 
-5.921 
 
>  <homo_lumo_gap> 
6.313 
 
>  <logP> 
1.814 
 
>  <lumo_energy> 
0.392 
 
>  <melting_point> 
15.28 
 
>  <molecular_refractivity> 
34.41 
 
>  <oscillator_strength_1> 
0.0091 
 
>  <oscillator_strength_2> 
0.0007 
 
>  <oscillator_strength_3> 
0.0155 
 
>  <oscillator_strength_4> 
0.0015 
 
>  <open_babel_can_smiles> 
C1CCSCS1 
 
>  <mulliken_charges> 
14 
1   -0.252514 
2   -0.415369 
3   -0.415127 
4   -0.554984 
5   0.112022 
6   0.111848 
7   0.17214 
8   0.147045 
9   0.166087 
10   0.180243 
11   0.180218 
12   0.166028 
13   0.194719 
14   0.207646 
 
>  <lowdin_charges> 
14 
1   -0.281152 
2   -0.374855 
3   -0.376265 
4   -0.48693 
5   0.105022 
6   0.10393 
7   0.15953 
8   0.152693 
9   0.150769 
10   0.170659 
11   0.172194 
12   0.150767 
13   0.163674 
14   0.189962 
 
$$$$ 
 
