PCCDB-ID:  17050 
public computational chemistry database (PCCDB) project, http://pccdb.org 
 
 29 28  0  0  0  0  0  0  0  0999 V2000 
    4.0599   -3.9348   -3.5550 C   0  0  0  0  0  0  0  0  0  0  0  0 
    7.6669    1.4398   -5.9842 C   0  0  0  0  0  0  0  0  0  0  0  0 
    9.6565    2.0492   -2.8656 C   0  0  0  0  0  0  0  0  0  0  0  0 
    5.2775   -3.4406   -3.3224 C   0  0  0  0  0  0  0  0  0  0  0  0 
    7.0907    1.5639   -4.5724 C   0  0  0  0  0  0  0  0  0  0  0  0 
    9.1204    0.7247   -3.4413 C   0  0  0  0  0  0  0  0  0  0  0  0 
    6.9104    0.5476   -2.3741 C   0  0  0  0  0  0  0  0  0  0  0  0 
    7.0964   -0.7541   -1.5935 C   0  0  0  0  0  0  0  0  0  0  0  0 
    5.4578   -2.2277   -2.4836 C   0  0  0  0  0  0  0  0  0  0  0  0 
    7.6688    0.6124   -3.6190 N   0  0  0  0  0  0  0  0  0  0  0  0 
    4.5618   -1.5935   -1.9591 O   0  0  0  0  0  0  0  0  0  0  0  0 
    6.7703   -1.9216   -2.3731 O   0  0  0  0  0  0  0  0  0  0  0  0 
    3.9095   -4.8200   -4.1656 H   0  0  0  0  0  0  0  0  0  0  0  0 
    3.1822   -3.4546   -3.1318 H   0  0  0  0  0  0  0  0  0  0  0  0 
    7.0877    2.0615   -6.6760 H   0  0  0  0  0  0  0  0  0  0  0  0 
    7.6175    0.4009   -6.3276 H   0  0  0  0  0  0  0  0  0  0  0  0 
    8.7090    1.7716   -6.0441 H   0  0  0  0  0  0  0  0  0  0  0  0 
   10.7468    1.9975   -2.7646 H   0  0  0  0  0  0  0  0  0  0  0  0 
    9.2429    2.2654   -1.8743 H   0  0  0  0  0  0  0  0  0  0  0  0 
    9.4247    2.8998   -3.5160 H   0  0  0  0  0  0  0  0  0  0  0  0 
    6.1775   -3.8927   -3.7284 H   0  0  0  0  0  0  0  0  0  0  0  0 
    6.0166    1.3487   -4.6191 H   0  0  0  0  0  0  0  0  0  0  0  0 
    7.1771    2.6152   -4.2345 H   0  0  0  0  0  0  0  0  0  0  0  0 
    9.4430   -0.1026   -2.7992 H   0  0  0  0  0  0  0  0  0  0  0  0 
    9.5924    0.5393   -4.4121 H   0  0  0  0  0  0  0  0  0  0  0  0 
    7.1326    1.3774   -1.6736 H   0  0  0  0  0  0  0  0  0  0  0  0 
    5.8479    0.6319   -2.6197 H   0  0  0  0  0  0  0  0  0  0  0  0 
    6.4651   -0.7270   -0.7007 H   0  0  0  0  0  0  0  0  0  0  0  0 
    8.1337   -0.9133   -1.2913 H   0  0  0  0  0  0  0  0  0  0  0  0 
  1  4  2  0  0  0  0 
  1 14  1  0  0  0  0 
  2  5  1  0  0  0  0 
  3 18  1  0  0  0  0 
  3 19  1  0  0  0  0 
  4  9  1  0  0  0  0 
  5 23  1  0  0  0  0 
  5 10  1  0  0  0  0 
  6  3  1  0  0  0  0 
  6 24  1  0  0  0  0 
  7 26  1  0  0  0  0 
  7  8  1  0  0  0  0 
  8 29  1  0  0  0  0 
  8 28  1  0  0  0  0 
  9 12  1  0  0  0  0 
  9 11  2  0  0  0  0 
 10  6  1  0  0  0  0 
 10  7  1  0  0  0  0 
 12  8  1  0  0  0  0 
 13  1  1  0  0  0  0 
 15  2  1  0  0  0  0 
 16  2  1  0  0  0  0 
 17  2  1  0  0  0  0 
 20  3  1  0  0  0  0 
 21  4  1  0  0  0  0 
 22  5  1  0  0  0  0 
 25  6  1  0  0  0  0 
 27  7  1  0  0  0  0 
M  END 
>  <HBA> 
3 
 
>  <HBD> 
0 
 
>  <TPSA> 
29.54 
 
>  <cid> 
17050 
 
>  <dipole> 
1.52 
 
>  <excitation_energy_1> 
3.647 
 
>  <excitation_energy_2> 
4.737 
 
>  <excitation_energy_3> 
5.023 
 
>  <excitation_energy_4> 
5.464 
 
>  <homo_energy> 
-5.54 
 
>  <homo_lumo_gap> 
4.433 
 
>  <logP> 
1.057 
 
>  <lumo_energy> 
-1.108 
 
>  <melting_point> 
-34.08 
 
>  <molecular_refractivity> 
49.08 
 
>  <oscillator_strength_1> 
0.0026 
 
>  <oscillator_strength_2> 
0.0002 
 
>  <oscillator_strength_3> 
0.0131 
 
>  <oscillator_strength_4> 
0.0163 
 
>  <open_babel_can_smiles> 
CCN(CCOC(=O)C=C)CC 
 
>  <mulliken_charges> 
29 
1   -0.304161 
2   -0.458037 
3   -0.460418 
4   -0.131406 
5   -0.108575 
6   -0.140119 
7   -0.146241 
8   -0.056065 
9   0.611662 
10   -0.372807 
11   -0.498783 
12   -0.460026 
13   0.155824 
14   0.179 
15   0.14405 
16   0.157482 
17   0.14687 
18   0.143741 
19   0.146938 
20   0.150702 
21   0.154501 
22   0.141882 
23   0.112748 
24   0.138933 
25   0.146625 
26   0.1165 
27   0.169954 
28   0.166193 
29   0.153033 
 
>  <lowdin_charges> 
29 
1   -0.268564 
2   -0.451116 
3   -0.46482 
4   -0.185148 
5   -0.192796 
6   -0.206295 
7   -0.213725 
8   -0.137273 
9   0.199359 
10   -0.188895 
11   -0.280713 
12   -0.182796 
13   0.168146 
14   0.179312 
15   0.155311 
16   0.154494 
17   0.14656 
18   0.151692 
19   0.147602 
20   0.150846 
21   0.17121 
22   0.144401 
23   0.114608 
24   0.144216 
25   0.147273 
26   0.125606 
27   0.16051 
28   0.160337 
29   0.150657 
 
$$$$ 
 
