PCCDB-ID:  24022 
public computational chemistry database (PCCDB) project, http://pccdb.org 
 
 36 38  0  0  1  0  0  0  0  0999 V2000 
   -1.1554   -0.6228    0.6411 C   0  0  0  0  0  0  0  0  0  0  0  0 
   -0.6942    0.6835    0.4669 C   0  0  0  0  0  0  0  0  0  0  0  0 
   -0.2699   -1.6934    0.5020 C   0  0  0  0  0  0  0  0  0  0  0  0 
    2.0129    3.9397   -4.3260 C   0  0  0  0  0  0  0  0  0  0  0  0 
    2.3949    3.4206   -5.7213 C   0  0  0  0  0  0  0  0  0  0  0  0 
    0.6455    0.9186    0.1536 C   0  0  0  0  0  0  0  0  0  0  0  0 
    1.0706   -1.4587    0.1930 C   0  0  0  0  0  0  0  0  0  0  0  0 
    2.8377    3.2455   -3.2296 C   0  0  0  0  0  0  0  0  0  0  0  0 
    2.3306    1.8848   -5.7669 C   0  0  0  0  0  0  0  0  0  0  0  0 
    3.4322   -0.5631   -2.3907 C   0  0  0  0  0  0  0  0  0  0  0  0 
    1.5359   -0.1512    0.0125 C   0  0  0  0  0  0  0  0  0  0  0  0 
    2.7437    1.7153   -3.3659 C   0  0  2  0  0  0  0  0  0  0  0  0 
    3.5972    0.9629   -2.3456 C   0  0  1  0  0  0  0  0  0  0  0  0 
    3.0152    0.0950   -0.2710 C   0  0  1  0  0  0  0  0  0  0  0  0 
    3.1095    1.2276   -4.7074 N   0  0  0  0  0  0  0  0  0  0  0  0 
    3.6070   -0.9431   -1.0242 O   0  0  0  0  0  0  0  0  0  0  0  0 
    3.2140    1.3033   -1.0040 O   0  0  0  0  0  0  0  0  0  0  0  0 
   -2.1992   -0.8057    0.8831 H   0  0  0  0  0  0  0  0  0  0  0  0 
   -1.3791    1.5212    0.5712 H   0  0  0  0  0  0  0  0  0  0  0  0 
   -0.6232   -2.7130    0.6324 H   0  0  0  0  0  0  0  0  0  0  0  0 
    0.9444    3.7465   -4.1494 H   0  0  0  0  0  0  0  0  0  0  0  0 
    2.1452    5.0274   -4.2711 H   0  0  0  0  0  0  0  0  0  0  0  0 
    3.4182    3.7435   -5.9653 H   0  0  0  0  0  0  0  0  0  0  0  0 
    1.7374    3.8498   -6.4890 H   0  0  0  0  0  0  0  0  0  0  0  0 
    1.0065    1.9316    0.0072 H   0  0  0  0  0  0  0  0  0  0  0  0 
    1.7623   -2.2876    0.0772 H   0  0  0  0  0  0  0  0  0  0  0  0 
    2.5014    3.5522   -2.2328 H   0  0  0  0  0  0  0  0  0  0  0  0 
    3.8940    3.5454   -3.3153 H   0  0  0  0  0  0  0  0  0  0  0  0 
    2.6822    1.5061   -6.7338 H   0  0  0  0  0  0  0  0  0  0  0  0 
    1.2874    1.5564   -5.6577 H   0  0  0  0  0  0  0  0  0  0  0  0 
    4.1900   -1.0749   -2.9847 H   0  0  0  0  0  0  0  0  0  0  0  0 
    2.4352   -0.8409   -2.7580 H   0  0  0  0  0  0  0  0  0  0  0  0 
    1.6986    1.4163   -3.1965 H   0  0  0  0  0  0  0  0  0  0  0  0 
    4.6563    1.2391   -2.4742 H   0  0  0  0  0  0  0  0  0  0  0  0 
    3.5782    0.1676    0.6682 H   0  0  0  0  0  0  0  0  0  0  0  0 
    4.0986    1.4331   -4.8647 H   0  0  0  0  0  0  0  0  0  0  0  0 
  1 18  1  0  0  0  0 
  2 19  1  0  0  0  0 
  2  1  2  0  0  0  0 
  3 20  1  0  0  0  0 
  3  1  1  0  0  0  0 
  4 22  1  0  0  0  0 
  4 21  1  0  0  0  0 
  4  8  1  0  0  0  0 
  5  4  1  0  0  0  0 
  6  2  1  0  0  0  0 
  7  3  2  0  0  0  0 
  8 27  1  0  0  0  0 
  9  5  1  0  0  0  0 
  9 30  1  0  0  0  0 
  9 15  1  0  0  0  0 
 10 13  1  0  0  0  0 
 10 16  1  0  0  0  0 
 11  6  2  0  0  0  0 
 11  7  1  0  0  0  0 
 12  8  1  0  0  0  0 
 12 33  1  1  0  0  0 
 12 13  1  0  0  0  0 
 13 34  1  6  0  0  0 
 13 17  1  0  0  0  0 
 14 11  1  0  0  0  0 
 14 35  1  1  0  0  0 
 15 12  1  0  0  0  0 
 16 14  1  0  0  0  0 
 17 14  1  0  0  0  0 
 23  5  1  0  0  0  0 
 24  5  1  0  0  0  0 
 25  6  1  0  0  0  0 
 26  7  1  0  0  0  0 
 28  8  1  0  0  0  0 
 29  9  1  0  0  0  0 
 31 10  1  0  0  0  0 
 32 10  1  0  0  0  0 
 36 15  1  0  0  0  0 
M  END 
>  <HBA> 
3 
 
>  <HBD> 
1 
 
>  <TPSA> 
30.49 
 
>  <cid> 
24022 
 
>  <dipole> 
1.93 
 
>  <excitation_energy_1> 
5.27 
 
>  <excitation_energy_2> 
5.307 
 
>  <excitation_energy_3> 
5.391 
 
>  <excitation_energy_4> 
5.438 
 
>  <homo_energy> 
-5.997 
 
>  <homo_lumo_gap> 
5.995 
 
>  <logP> 
2.571 
 
>  <lumo_energy> 
-0.003 
 
>  <melting_point> 
56.94 
 
>  <molecular_refractivity> 
69.72 
 
>  <oscillator_strength_1> 
0.0005 
 
>  <oscillator_strength_2> 
0.0004 
 
>  <oscillator_strength_3> 
0.0074 
 
>  <oscillator_strength_4> 
0.0016 
 
>  <open_babel_can_smiles> 
C1CC[C@@H](NC1)[C@@H]1CO[C@@H](O1)c1ccccc1 
 
>  <mulliken_charges> 
36 
1   -0.12434 
2   -0.13562 
3   -0.13441 
4   -0.264565 
5   -0.263709 
6   -0.166486 
7   -0.165123 
8   -0.261897 
9   -0.141416 
10   -0.055799 
11   0.079857 
12   0.005641 
13   0.136834 
14   0.2992 
15   -0.552335 
16   -0.485266 
17   -0.524011 
18   0.127634 
19   0.12787 
20   0.129117 
21   0.131874 
22   0.135553 
23   0.124804 
24   0.132197 
25   0.143464 
26   0.144149 
27   0.15236 
28   0.118955 
29   0.139377 
30   0.141491 
31   0.159026 
32   0.151144 
33   0.136915 
34   0.120507 
35   0.152876 
36   0.284135 
 
>  <lowdin_charges> 
36 
1   -0.155465 
2   -0.158619 
3   -0.15538 
4   -0.275123 
5   -0.295296 
6   -0.160778 
7   -0.161322 
8   -0.291246 
9   -0.206842 
10   -0.143731 
11   -0.040599 
12   -0.078225 
13   -0.006522 
14   0.10778 
15   -0.359129 
16   -0.25928 
17   -0.272907 
18   0.155352 
19   0.157319 
20   0.156278 
21   0.138047 
22   0.143675 
23   0.134968 
24   0.147062 
25   0.163597 
26   0.166597 
27   0.154424 
28   0.133683 
29   0.145816 
30   0.140675 
31   0.162488 
32   0.145271 
33   0.142086 
34   0.130272 
35   0.150587 
36   0.244487 
 
$$$$ 
 
