PCCDB-ID:  61197 
public computational chemistry database (PCCDB) project, http://pccdb.org 
 
 19 18  0  0  0  0  0  0  0  0999 V2000 
    0.3532   -1.6397   -0.4513 C   0  0  0  0  0  0  0  0  0  0  0  0 
    8.9124   -1.9802    0.6157 C   0  0  0  0  0  0  0  0  0  0  0  0 
    1.7784   -1.1820   -0.4548 C   0  0  0  0  0  0  0  0  0  0  0  0 
    2.8345   -1.9244   -0.0741 C   0  0  0  0  0  0  0  0  0  0  0  0 
    4.1976   -1.4380   -0.0942 C   0  0  0  0  0  0  0  0  0  0  0  0 
    5.2774   -2.1544    0.2773 C   0  0  0  0  0  0  0  0  0  0  0  0 
    6.6269   -1.5653    0.2196 C   0  0  0  0  0  0  0  0  0  0  0  0 
    6.9021   -0.4369   -0.1461 O   0  0  0  0  0  0  0  0  0  0  0  0 
    7.5613   -2.4589    0.6364 O   0  0  0  0  0  0  0  0  0  0  0  0 
   -0.0820   -1.5804   -1.4584 H   0  0  0  0  0  0  0  0  0  0  0  0 
   -0.2650   -0.9976    0.1910 H   0  0  0  0  0  0  0  0  0  0  0  0 
    0.2580   -2.6712   -0.0973 H   0  0  0  0  0  0  0  0  0  0  0  0 
    9.5236   -2.8087    0.9760 H   0  0  0  0  0  0  0  0  0  0  0  0 
    9.0243   -1.1094    1.2679 H   0  0  0  0  0  0  0  0  0  0  0  0 
    9.2075   -1.6992   -0.3993 H   0  0  0  0  0  0  0  0  0  0  0  0 
    1.9584   -0.1616   -0.7963 H   0  0  0  0  0  0  0  0  0  0  0  0 
    2.6743   -2.9469    0.2698 H   0  0  0  0  0  0  0  0  0  0  0  0 
    4.3647   -0.4169   -0.4357 H   0  0  0  0  0  0  0  0  0  0  0  0 
    5.1956   -3.1792    0.6283 H   0  0  0  0  0  0  0  0  0  0  0  0 
  1 12  1  0  0  0  0 
  1 11  1  0  0  0  0 
  2  9  1  0  0  0  0 
  2 13  1  0  0  0  0 
  2 14  1  0  0  0  0 
  3  1  1  0  0  0  0 
  3  4  2  0  0  0  0 
  4 17  1  0  0  0  0 
  5  4  1  0  0  0  0 
  5  6  2  0  0  0  0 
  6 19  1  0  0  0  0 
  7  6  1  0  0  0  0 
  7  9  1  0  0  0  0 
  8  7  2  0  0  0  0 
 10  1  1  0  0  0  0 
 15  2  1  0  0  0  0 
 16  3  1  0  0  0  0 
 18  5  1  0  0  0  0 
M  END 
>  <HBA> 
2 
 
>  <HBD> 
0 
 
>  <TPSA> 
26.3 
 
>  <cid> 
61197 
 
>  <dipole> 
2.08 
 
>  <excitation_energy_1> 
4.527 
 
>  <excitation_energy_2> 
4.81 
 
>  <excitation_energy_3> 
5.904 
 
>  <excitation_energy_4> 
6.05 
 
>  <homo_energy> 
-6.324 
 
>  <homo_lumo_gap> 
4.803 
 
>  <logP> 
1.292 
 
>  <lumo_energy> 
-1.521 
 
>  <melting_point> 
4.79 
 
>  <molecular_refractivity> 
36.1 
 
>  <oscillator_strength_1> 
0.0001 
 
>  <oscillator_strength_2> 
0.9069 
 
>  <oscillator_strength_3> 
0.0389 
 
>  <oscillator_strength_4> 
0.0001 
 
>  <open_babel_can_smiles> 
C/C=C/C=C/C(=O)OC 
 
>  <mulliken_charges> 
19 
1   -0.494858 
2   -0.214546 
3   -0.094168 
4   -0.103539 
5   -0.077992 
6   -0.217442 
7   0.611368 
8   -0.501942 
9   -0.468766 
10   0.166122 
11   0.166132 
12   0.160057 
13   0.160364 
14   0.168107 
15   0.167973 
16   0.139059 
17   0.127374 
18   0.162647 
19   0.14405 
 
>  <lowdin_charges> 
19 
1   -0.439059 
2   -0.278543 
3   -0.127003 
4   -0.167152 
5   -0.097095 
6   -0.209365 
7   0.188867 
8   -0.281494 
9   -0.196544 
10   0.163469 
11   0.165415 
12   0.157771 
13   0.159227 
14   0.15844 
15   0.157338 
16   0.15515 
17   0.153085 
18   0.171989 
19   0.165504 
 
$$$$ 
 
