PCCDB-ID:  29717 
public computational chemistry database (PCCDB) project, http://pccdb.org 
 
 24 24  0  0  1  0  0  0  0  0999 V2000 
    2.4873    1.3738    0.3893 C   0  0  0  0  0  0  0  0  0  0  0  0 
    0.9836   -0.6192    0.0914 C   0  0  0  0  0  0  0  0  0  0  0  0 
    5.4014   -3.3358   -1.9532 C   0  0  0  0  0  0  0  0  0  0  0  0 
    3.2490   -1.9327   -1.6539 C   0  0  0  0  0  0  0  0  0  0  0  0 
    2.4389   -0.1245    0.0508 C   0  0  0  0  0  0  0  0  0  0  0  0 
    4.6735   -2.2559   -1.1728 C   0  0  2  0  0  0  0  0  0  0  0  0 
    3.0904   -0.4360   -1.3298 C   0  0  1  0  0  0  0  0  0  0  0  0 
    4.5432    0.0523   -1.4057 C   0  0  0  0  0  0  0  0  0  0  0  0 
    4.9451    1.1821   -1.5274 O   0  0  0  0  0  0  0  0  0  0  0  0 
    5.3970   -1.0066   -1.3124 O   0  0  0  0  0  0  0  0  0  0  0  0 
    2.0354    1.5521    1.3719 H   0  0  0  0  0  0  0  0  0  0  0  0 
    1.9212    1.9562   -0.3487 H   0  0  0  0  0  0  0  0  0  0  0  0 
    3.5074    1.7631    0.4009 H   0  0  0  0  0  0  0  0  0  0  0  0 
    0.5358   -0.4038    1.0680 H   0  0  0  0  0  0  0  0  0  0  0  0 
    0.8946   -1.6971   -0.0800 H   0  0  0  0  0  0  0  0  0  0  0  0 
    0.3805   -0.1077   -0.6698 H   0  0  0  0  0  0  0  0  0  0  0  0 
    4.8799   -4.2937   -1.8447 H   0  0  0  0  0  0  0  0  0  0  0  0 
    6.4257   -3.4579   -1.5881 H   0  0  0  0  0  0  0  0  0  0  0  0 
    5.4410   -3.0793   -3.0173 H   0  0  0  0  0  0  0  0  0  0  0  0 
    2.5056   -2.5776   -1.1787 H   0  0  0  0  0  0  0  0  0  0  0  0 
    3.1843   -2.0951   -2.7366 H   0  0  0  0  0  0  0  0  0  0  0  0 
    3.0065   -0.6676    0.8222 H   0  0  0  0  0  0  0  0  0  0  0  0 
    4.6714   -2.5062   -0.1034 H   0  0  0  0  0  0  0  0  0  0  0  0 
    2.5189    0.0965   -2.0984 H   0  0  0  0  0  0  0  0  0  0  0  0 
  1 13  1  0  0  0  0 
  1 11  1  0  0  0  0 
  2 14  1  0  0  0  0 
  3 17  1  0  0  0  0 
  3 18  1  0  0  0  0 
  3  6  1  0  0  0  0 
  4  7  1  0  0  0  0 
  4 20  1  0  0  0  0 
  4  6  1  0  0  0  0 
  5  2  1  0  0  0  0 
  5  1  1  0  0  0  0 
  5 22  1  0  0  0  0 
  6 23  1  1  0  0  0 
  7 24  1  6  0  0  0 
  7  5  1  0  0  0  0 
  8  7  1  0  0  0  0 
  8 10  1  0  0  0  0 
  9  8  2  0  0  0  0 
 10  6  1  0  0  0  0 
 12  1  1  0  0  0  0 
 15  2  1  0  0  0  0 
 16  2  1  0  0  0  0 
 19  3  1  0  0  0  0 
 21  4  1  0  0  0  0 
M  END 
>  <HBA> 
2 
 
>  <HBD> 
0 
 
>  <TPSA> 
26.3 
 
>  <cid> 
29717 
 
>  <dipole> 
4.33 
 
>  <excitation_energy_1> 
5.505 
 
>  <excitation_energy_2> 
6.595 
 
>  <excitation_energy_3> 
6.956 
 
>  <excitation_energy_4> 
7.101 
 
>  <homo_energy> 
-7.015 
 
>  <homo_lumo_gap> 
7.344 
 
>  <logP> 
1.594 
 
>  <lumo_energy> 
0.329 
 
>  <melting_point> 
7.13 
 
>  <molecular_refractivity> 
39.74 
 
>  <oscillator_strength_1> 
0.0013 
 
>  <oscillator_strength_2> 
0.0092 
 
>  <oscillator_strength_3> 
0.0017 
 
>  <oscillator_strength_4> 
0.0084 
 
>  <open_babel_can_smiles> 
C[C@H]1OC(=O)[C@@H](C1)C(C)C 
 
>  <mulliken_charges> 
24 
1   -0.448947 
2   -0.446941 
3   -0.455758 
4   -0.317057 
5   -0.08643 
6   0.143933 
7   -0.191198 
8   0.619536 
9   -0.465906 
10   -0.461971 
11   0.138124 
12   0.143483 
13   0.179033 
14   0.150135 
15   0.142336 
16   0.145409 
17   0.149873 
18   0.168102 
19   0.158789 
20   0.152508 
21   0.153153 
22   0.128607 
23   0.142954 
24   0.158233 
 
>  <lowdin_charges> 
24 
1   -0.448599 
2   -0.444522 
3   -0.445347 
4   -0.294347 
5   -0.11717 
6   0.011305 
7   -0.164361 
8   0.189802 
9   -0.24136 
10   -0.190725 
11   0.14795 
12   0.150775 
13   0.166504 
14   0.153811 
15   0.144769 
16   0.150375 
17   0.157941 
18   0.163557 
19   0.156936 
20   0.15794 
21   0.152651 
22   0.139021 
23   0.138454 
24   0.164642 
 
$$$$ 
 
