PCCDB-ID:  48534 
public computational chemistry database (PCCDB) project, http://pccdb.org 
 
 33 33  0  0  1  0  0  0  0  0999 V2000 
    1.7658   -0.7463   -0.7954 C   0  0  0  0  0  0  0  0  0  0  0  0 
    4.1580    3.7291    4.1224 C   0  0  0  0  0  0  0  0  0  0  0  0 
    6.9006    0.7464    2.2483 C   0  0  0  0  0  0  0  0  0  0  0  0 
    2.6104    0.2638   -0.5889 C   0  0  0  0  0  0  0  0  0  0  0  0 
    4.9950    2.4821    3.8971 C   0  0  0  0  0  0  0  0  0  0  0  0 
    3.2457    0.5795    0.7380 C   0  0  0  0  0  0  0  0  0  0  0  0 
    5.3735    0.8013    2.1717 C   0  0  2  0  0  0  0  0  0  0  0  0 
    5.3978    1.4453   -0.2912 C   0  0  0  0  0  0  0  0  0  0  0  0 
    5.2314   -0.9336    0.3307 C   0  0  0  0  0  0  0  0  0  0  0  0 
    6.0875   -0.2537   -1.7183 C   0  0  0  0  0  0  0  0  0  0  0  0 
    4.8146    0.4757    0.7435 C   0  0  2  0  0  0  0  0  0  0  0  0 
    5.9435    1.1166   -1.3961 N   0  0  0  0  0  0  0  0  0  0  0  0 
    5.8099   -1.2609   -0.7510 N   0  0  0  0  0  0  0  0  0  0  0  0 
    5.2744    2.7530   -0.0148 O   0  0  0  0  0  0  0  0  0  0  0  0 
    4.9486   -1.9348    1.2013 O   0  0  0  0  0  0  0  0  0  0  0  0 
    6.4665   -0.5800   -2.8204 O   0  0  0  0  0  0  0  0  0  0  0  0 
    4.8497    2.0865    2.5273 O   0  0  0  0  0  0  0  0  0  0  0  0 
    1.3266   -0.9292   -1.7716 H   0  0  0  0  0  0  0  0  0  0  0  0 
    1.4812   -1.4318    0.0007 H   0  0  0  0  0  0  0  0  0  0  0  0 
    4.2443    4.0528    5.1649 H   0  0  0  0  0  0  0  0  0  0  0  0 
    3.1031    3.5347    3.9053 H   0  0  0  0  0  0  0  0  0  0  0  0 
    4.5001    4.5484    3.4817 H   0  0  0  0  0  0  0  0  0  0  0  0 
    7.2652   -0.2373    1.9373 H   0  0  0  0  0  0  0  0  0  0  0  0 
    7.2468    0.9169    3.2719 H   0  0  0  0  0  0  0  0  0  0  0  0 
    7.3514    1.5045    1.6001 H   0  0  0  0  0  0  0  0  0  0  0  0 
    2.8721    0.9226   -1.4160 H   0  0  0  0  0  0  0  0  0  0  0  0 
    4.6549    1.6572    4.5410 H   0  0  0  0  0  0  0  0  0  0  0  0 
    6.0507    2.6761    4.1260 H   0  0  0  0  0  0  0  0  0  0  0  0 
    2.8468   -0.0939    1.5093 H   0  0  0  0  0  0  0  0  0  0  0  0 
    2.9857    1.5949    1.0538 H   0  0  0  0  0  0  0  0  0  0  0  0 
    4.9519    0.0734    2.8846 H   0  0  0  0  0  0  0  0  0  0  0  0 
    5.0049    2.8577    0.9241 H   0  0  0  0  0  0  0  0  0  0  0  0 
    4.4074   -1.6018    1.9336 H   0  0  0  0  0  0  0  0  0  0  0  0 
  1  4  2  0  0  0  0 
  1 19  1  0  0  0  0 
  2 20  1  0  0  0  0 
  3 24  1  0  0  0  0 
  4  6  1  0  0  0  0 
  5  2  1  0  0  0  0 
  5 28  1  0  0  0  0 
  5 27  1  0  0  0  0 
  6 30  1  0  0  0  0 
  6 29  1  0  0  0  0 
  7  3  1  0  0  0  0 
  7 17  1  0  0  0  0 
  7 31  1  1  0  0  0 
  8 14  1  0  0  0  0 
  8 11  1  0  0  0  0 
  9 11  1  0  0  0  0 
  9 15  1  0  0  0  0 
 10 12  2  0  0  0  0 
 10 13  1  0  0  0  0 
 11  6  1  1  0  0  0 
 11  7  1  0  0  0  0 
 12  8  2  0  0  0  0 
 13  9  2  0  0  0  0 
 14 32  1  0  0  0  0 
 15 33  1  0  0  0  0 
 16 10  2  0  0  0  0 
 17  5  1  0  0  0  0 
 18  1  1  0  0  0  0 
 21  2  1  0  0  0  0 
 22  2  1  0  0  0  0 
 23  3  1  0  0  0  0 
 25  3  1  0  0  0  0 
 26  4  1  0  0  0  0 
M  END 
>  <HBA> 
6 
 
>  <HBD> 
2 
 
>  <TPSA> 
84.5 
 
>  <cid> 
48534 
 
>  <dipole> 
11.27 
 
>  <excitation_energy_1> 
3.992 
 
>  <excitation_energy_2> 
4.173 
 
>  <excitation_energy_3> 
5.125 
 
>  <excitation_energy_4> 
5.258 
 
>  <homo_energy> 
-6.74 
 
>  <homo_lumo_gap> 
5.374 
 
>  <logP> 
0.998 
 
>  <lumo_energy> 
-1.366 
 
>  <melting_point> 
110.7 
 
>  <molecular_refractivity> 
67.65 
 
>  <oscillator_strength_1> 
0.0002 
 
>  <oscillator_strength_2> 
0.0001 
 
>  <oscillator_strength_3> 
0.0049 
 
>  <oscillator_strength_4> 
0.0063 
 
>  <open_babel_can_smiles> 
CCO[C@@H]([C@]1(CC=C)C(=N[C](=[N]=C1O)=O)O)C 
 
>  <mulliken_charges> 
33 
1   -0.327416 
2   -0.463892 
3   -0.487173 
4   -0.058764 
5   -0.021998 
6   -0.310502 
7   0.149842 
8   0.536256 
9   0.558714 
10   0.617888 
11   -0.171895 
12   -0.472168 
13   -0.469366 
14   -0.60253 
15   -0.583462 
16   -0.434278 
17   -0.522546 
18   0.160357 
19   0.138955 
20   0.162664 
21   0.166313 
22   0.169656 
23   0.189357 
24   0.162586 
25   0.187061 
26   0.165063 
27   0.137622 
28   0.151731 
29   0.128848 
30   0.179679 
31   0.11105 
32   0.438749 
33   0.413596 
 
>  <lowdin_charges> 
33 
1   -0.317783 
2   -0.44711 
3   -0.465964 
4   -0.161168 
5   -0.122089 
6   -0.266784 
7   0.001968 
8   0.144146 
9   0.145804 
10   0.171048 
11   -0.068517 
12   -0.189723 
13   -0.178837 
14   -0.342449 
15   -0.336681 
16   -0.212439 
17   -0.280099 
18   0.169646 
19   0.156158 
20   0.164178 
21   0.159641 
22   0.163421 
23   0.177337 
24   0.161314 
25   0.173804 
26   0.169802 
27   0.13841 
28   0.141221 
29   0.144567 
30   0.167331 
31   0.128656 
32   0.356928 
33   0.354267 
 
$$$$ 
 
