PCCDB-ID:  70507 
public computational chemistry database (PCCDB) project, http://pccdb.org 
 
 25 25  0  0  0  0  0  0  0  0999 V2000 
    1.4513   -1.0747   -0.8361 C   0  0  0  0  0  0  0  0  0  0  0  0 
    7.0823    1.2411   -3.0053 C   0  0  0  0  0  0  0  0  0  0  0  0 
    2.4445   -0.1613   -0.0913 C   0  0  0  0  0  0  0  0  0  0  0  0 
    5.7051    1.3472   -3.6851 C   0  0  0  0  0  0  0  0  0  0  0  0 
    3.0415    3.2541   -1.7024 C   0  0  0  0  0  0  0  0  0  0  0  0 
    2.5392    2.2459   -0.8836 C   0  0  0  0  0  0  0  0  0  0  0  0 
    4.0564    2.9548   -2.6122 C   0  0  0  0  0  0  0  0  0  0  0  0 
    3.0289    0.9362   -0.9591 C   0  0  0  0  0  0  0  0  0  0  0  0 
    4.5840    1.6655   -2.7195 C   0  0  0  0  0  0  0  0  0  0  0  0 
    4.0536    0.6666   -1.8838 C   0  0  0  0  0  0  0  0  0  0  0  0 
    4.5932   -0.5922   -2.0247 O   0  0  0  0  0  0  0  0  0  0  0  0 
    1.0538   -1.8499   -0.1709 H   0  0  0  0  0  0  0  0  0  0  0  0 
    1.9216   -1.5719   -1.6927 H   0  0  0  0  0  0  0  0  0  0  0  0 
    0.6099   -0.4903   -1.2226 H   0  0  0  0  0  0  0  0  0  0  0  0 
    7.8631    1.0193   -3.7424 H   0  0  0  0  0  0  0  0  0  0  0  0 
    7.0840    0.4425   -2.2573 H   0  0  0  0  0  0  0  0  0  0  0  0 
    7.3455    2.1789   -2.5028 H   0  0  0  0  0  0  0  0  0  0  0  0 
    3.2454   -0.7746    0.3530 H   0  0  0  0  0  0  0  0  0  0  0  0 
    1.9353    0.2991    0.7630 H   0  0  0  0  0  0  0  0  0  0  0  0 
    5.4902    0.4035   -4.2003 H   0  0  0  0  0  0  0  0  0  0  0  0 
    5.7398    2.1288   -4.4541 H   0  0  0  0  0  0  0  0  0  0  0  0 
    2.6480    4.2641   -1.6324 H   0  0  0  0  0  0  0  0  0  0  0  0 
    1.7493    2.4681   -0.1692 H   0  0  0  0  0  0  0  0  0  0  0  0 
    4.4532    3.7359   -3.2572 H   0  0  0  0  0  0  0  0  0  0  0  0 
    4.1849   -1.1877   -1.3796 H   0  0  0  0  0  0  0  0  0  0  0  0 
  1 12  1  0  0  0  0 
  1  3  1  0  0  0  0 
  2 17  1  0  0  0  0 
  2 16  1  0  0  0  0 
  3 18  1  0  0  0  0 
  3 19  1  0  0  0  0 
  4  2  1  0  0  0  0 
  4  9  1  0  0  0  0 
  5 22  1  0  0  0  0 
  5  6  2  0  0  0  0 
  6 23  1  0  0  0  0 
  7  5  1  0  0  0  0 
  8  6  1  0  0  0  0 
  8  3  1  0  0  0  0 
  9  7  2  0  0  0  0 
  9 10  1  0  0  0  0 
 10  8  2  0  0  0  0 
 11 10  1  0  0  0  0 
 11 25  1  0  0  0  0 
 13  1  1  0  0  0  0 
 14  1  1  0  0  0  0 
 15  2  1  0  0  0  0 
 20  4  1  0  0  0  0 
 21  4  1  0  0  0  0 
 24  7  1  0  0  0  0 
M  END 
>  <HBA> 
1 
 
>  <HBD> 
1 
 
>  <TPSA> 
20.23 
 
>  <cid> 
70507 
 
>  <dipole> 
1.56 
 
>  <excitation_energy_1> 
4.891 
 
>  <excitation_energy_2> 
5.16 
 
>  <excitation_energy_3> 
5.558 
 
>  <excitation_energy_4> 
5.632 
 
>  <homo_energy> 
-5.736 
 
>  <homo_lumo_gap> 
5.924 
 
>  <logP> 
2.517 
 
>  <lumo_energy> 
0.188 
 
>  <melting_point> 
51.64 
 
>  <molecular_refractivity> 
48.01 
 
>  <oscillator_strength_1> 
0.0421 
 
>  <oscillator_strength_2> 
0.006 
 
>  <oscillator_strength_3> 
0.0031 
 
>  <oscillator_strength_4> 
0.0069 
 
>  <open_babel_can_smiles> 
CCc1cccc(c1O)CC 
 
>  <mulliken_charges> 
25 
1   -0.437723 
2   -0.43857 
3   -0.385992 
4   -0.324762 
5   -0.123241 
6   -0.205681 
7   -0.203102 
8   0.168601 
9   0.150969 
10   0.205071 
11   -0.654859 
12   0.147225 
13   0.146795 
14   0.160146 
15   0.138212 
16   0.16123 
17   0.142359 
18   0.134078 
19   0.15572 
20   0.155024 
21   0.13419 
22   0.121508 
23   0.118378 
24   0.119842 
25   0.414581 
 
>  <lowdin_charges> 
25 
1   -0.448839 
2   -0.443434 
3   -0.281143 
4   -0.268647 
5   -0.177618 
6   -0.164013 
7   -0.162923 
8   -0.053318 
9   -0.027267 
10   0.087404 
11   -0.390673 
12   0.152045 
13   0.14833 
14   0.158103 
15   0.147675 
16   0.156114 
17   0.146995 
18   0.139778 
19   0.158137 
20   0.156135 
21   0.145992 
22   0.154623 
23   0.153135 
24   0.155205 
25   0.358203 
 
$$$$ 
 
