PCCDB-ID:  30836 
public computational chemistry database (PCCDB) project, http://pccdb.org 
 
 26 25  0  0  1  0  0  0  0  0999 V2000 
    2.7903   -0.4436    0.3974 C   0  0  0  0  0  0  0  0  0  0  0  0 
    2.0928   -0.2803   -2.0486 C   0  0  0  0  0  0  0  0  0  0  0  0 
    1.0342    2.8441   -1.5598 C   0  0  0  0  0  0  0  0  0  0  0  0 
    2.4517    0.4890   -0.7694 C   0  0  1  0  0  0  0  0  0  0  0  0 
    0.4380    4.1530   -1.0295 C   0  0  1  0  0  0  0  0  0  0  0  0 
    3.2909   -0.9999   -2.6674 C   0  0  0  0  0  0  0  0  0  0  0  0 
    0.4820    5.2413   -2.1300 C   0  0  0  0  0  0  0  0  0  0  0  0 
   -0.9301    4.0731   -0.4902 N   0  0  0  0  0  0  0  0  0  0  0  0 
    4.4356   -0.8576   -2.3180 O   0  0  0  0  0  0  0  0  0  0  0  0 
    2.9946   -1.8323   -3.7018 O   0  0  0  0  0  0  0  0  0  0  0  0 
    1.3729    5.3193   -2.9431 O   0  0  0  0  0  0  0  0  0  0  0  0 
   -0.5423    6.1029   -2.0693 O   0  0  0  0  0  0  0  0  0  0  0  0 
    1.0618    1.5819   -0.2228 S   0  0  0  0  0  0  0  0  0  0  0  0 
    3.6363   -1.0791    0.1217 H   0  0  0  0  0  0  0  0  0  0  0  0 
    1.9382   -1.0851    0.6529 H   0  0  0  0  0  0  0  0  0  0  0  0 
    3.0661    0.1294    1.2874 H   0  0  0  0  0  0  0  0  0  0  0  0 
    1.6985    0.4018   -2.8142 H   0  0  0  0  0  0  0  0  0  0  0  0 
    1.2933   -1.0036   -1.8369 H   0  0  0  0  0  0  0  0  0  0  0  0 
    2.0514    3.0373   -1.9099 H   0  0  0  0  0  0  0  0  0  0  0  0 
    0.4461    2.4903   -2.4154 H   0  0  0  0  0  0  0  0  0  0  0  0 
    3.3126    1.1318   -0.9764 H   0  0  0  0  0  0  0  0  0  0  0  0 
    1.0779    4.5210   -0.2174 H   0  0  0  0  0  0  0  0  0  0  0  0 
   -1.4916    3.4096   -1.0232 H   0  0  0  0  0  0  0  0  0  0  0  0 
   -0.9263    3.7506    0.4744 H   0  0  0  0  0  0  0  0  0  0  0  0 
    2.0363   -1.8423   -3.8631 H   0  0  0  0  0  0  0  0  0  0  0  0 
   -1.1206    5.7616   -1.3413 H   0  0  0  0  0  0  0  0  0  0  0  0 
  1 15  1  0  0  0  0 
  1 16  1  0  0  0  0 
  2 18  1  0  0  0  0 
  2  4  1  0  0  0  0 
  3  5  1  0  0  0  0 
  3 13  1  0  0  0  0 
  4 21  1  6  0  0  0 
  4 13  1  0  0  0  0 
  4  1  1  0  0  0  0 
  5  8  1  0  0  0  0 
  5 22  1  1  0  0  0 
  6  9  2  0  0  0  0 
  6  2  1  0  0  0  0 
  7 12  1  0  0  0  0 
  7  5  1  0  0  0  0 
  8 24  1  0  0  0  0 
 10  6  1  0  0  0  0 
 11  7  2  0  0  0  0 
 12 26  1  0  0  0  0 
 14  1  1  0  0  0  0 
 17  2  1  0  0  0  0 
 19  3  1  0  0  0  0 
 20  3  1  0  0  0  0 
 23  8  1  0  0  0  0 
 25 10  1  0  0  0  0 
M  END 
>  <HBA> 
6 
 
>  <HBD> 
3 
 
>  <TPSA> 
125.92 
 
>  <cid> 
30836 
 
>  <dipole> 
5.91 
 
>  <excitation_energy_1> 
5.133 
 
>  <excitation_energy_2> 
5.358 
 
>  <excitation_energy_3> 
5.447 
 
>  <excitation_energy_4> 
5.465 
 
>  <homo_energy> 
-6.531 
 
>  <homo_lumo_gap> 
6.468 
 
>  <logP> 
0.695 
 
>  <lumo_energy> 
-0.063 
 
>  <melting_point> 
190.31 
 
>  <molecular_refractivity> 
49.6 
 
>  <oscillator_strength_1> 
0.0076 
 
>  <oscillator_strength_2> 
0.0066 
 
>  <oscillator_strength_3> 
0.0076 
 
>  <oscillator_strength_4> 
0.0032 
 
>  <open_babel_can_smiles> 
OC(=O)C[C@@H](SC[C@@H](C(=O)O)N)C 
 
>  <mulliken_charges> 
26 
1   -0.470037 
2   -0.399863 
3   -0.425193 
4   -0.230627 
5   -0.097675 
6   0.608433 
7   0.611495 
8   -0.767419 
9   -0.433846 
10   -0.561378 
11   -0.461152 
12   -0.577091 
13   0.063603 
14   0.188848 
15   0.152958 
16   0.169961 
17   0.18356 
18   0.169447 
19   0.20733 
20   0.167048 
21   0.191744 
22   0.196969 
23   0.326314 
24   0.341044 
25   0.411348 
26   0.43418 
 
>  <lowdin_charges> 
26 
1   -0.451406 
2   -0.3311 
3   -0.385035 
4   -0.206628 
5   -0.112706 
6   0.195353 
7   0.173771 
8   -0.542157 
9   -0.235043 
10   -0.350554 
11   -0.254195 
12   -0.350273 
13   0.061356 
14   0.174061 
15   0.153923 
16   0.165913 
17   0.172927 
18   0.165732 
19   0.181573 
20   0.154862 
21   0.169717 
22   0.178038 
23   0.272319 
24   0.280018 
25   0.35747 
26   0.362063 
 
$$$$ 
 
