PCCDB-ID:  16398 
public computational chemistry database (PCCDB) project, http://pccdb.org 
 
 20 21  0  0  1  0  0  0  0  0999 V2000 
    1.0942   -0.7321    0.4622 C   0  0  0  0  0  0  0  0  0  0  0  0 
    3.0245    0.0413   -4.3156 C   0  0  0  0  0  0  0  0  0  0  0  0 
    3.4478    1.0898   -3.4965 C   0  0  0  0  0  0  0  0  0  0  0  0 
    2.3818   -1.0586   -3.7460 C   0  0  0  0  0  0  0  0  0  0  0  0 
    3.2336    1.0378   -2.1195 C   0  0  0  0  0  0  0  0  0  0  0  0 
    2.1640   -1.1100   -2.3687 C   0  0  0  0  0  0  0  0  0  0  0  0 
    3.5699   -0.1074    0.8388 C   0  0  0  0  0  0  0  0  0  0  0  0 
    2.5916   -0.0642   -1.5386 C   0  0  0  0  0  0  0  0  0  0  0  0 
    2.3842   -0.1177   -0.0474 C   0  0  1  0  0  0  0  0  0  0  0  0 
    2.7828    1.0742    0.6616 O   0  0  0  0  0  0  0  0  0  0  0  0 
    1.0281   -1.7974    0.2165 H   0  0  0  0  0  0  0  0  0  0  0  0 
    0.2276   -0.2275    0.0214 H   0  0  0  0  0  0  0  0  0  0  0  0 
    1.0391   -0.6279    1.5495 H   0  0  0  0  0  0  0  0  0  0  0  0 
    3.1901    0.0829   -5.3888 H   0  0  0  0  0  0  0  0  0  0  0  0 
    3.9420    1.9549   -3.9312 H   0  0  0  0  0  0  0  0  0  0  0  0 
    2.0468   -1.8804   -4.3736 H   0  0  0  0  0  0  0  0  0  0  0  0 
    3.5469    1.8550   -1.4782 H   0  0  0  0  0  0  0  0  0  0  0  0 
    1.6616   -1.9741   -1.9437 H   0  0  0  0  0  0  0  0  0  0  0  0 
    4.5658   -0.0769    0.3965 H   0  0  0  0  0  0  0  0  0  0  0  0 
    3.5106   -0.5648    1.8277 H   0  0  0  0  0  0  0  0  0  0  0  0 
  1 13  1  0  0  0  0 
  2  4  2  0  0  0  0 
  2  3  1  0  0  0  0 
  3  5  2  0  0  0  0 
  4  6  1  0  0  0  0 
  5  8  1  0  0  0  0 
  5 17  1  0  0  0  0 
  6 18  1  0  0  0  0 
  6  8  2  0  0  0  0 
  7 20  1  0  0  0  0 
  8  9  1  0  0  0  0 
  9  1  1  1  0  0  0 
  9 10  1  0  0  0  0 
  9  7  1  0  0  0  0 
 10  7  1  0  0  0  0 
 11  1  1  0  0  0  0 
 12  1  1  0  0  0  0 
 14  2  1  0  0  0  0 
 15  3  1  0  0  0  0 
 16  4  1  0  0  0  0 
 19  7  1  0  0  0  0 
M  END 
>  <HBA> 
1 
 
>  <HBD> 
0 
 
>  <TPSA> 
12.53 
 
>  <cid> 
16398 
 
>  <dipole> 
1.76 
 
>  <excitation_energy_1> 
5.252 
 
>  <excitation_energy_2> 
5.793 
 
>  <excitation_energy_3> 
6.078 
 
>  <excitation_energy_4> 
6.222 
 
>  <homo_energy> 
-6.479 
 
>  <homo_lumo_gap> 
6.387 
 
>  <logP> 
1.932 
 
>  <lumo_energy> 
-0.093 
 
>  <melting_point> 
26.4 
 
>  <molecular_refractivity> 
39.88 
 
>  <oscillator_strength_1> 
0.0006 
 
>  <oscillator_strength_2> 
0.0868 
 
>  <oscillator_strength_3> 
0.0003 
 
>  <oscillator_strength_4> 
0.006 
 
>  <open_babel_can_smiles> 
C[C@]1(OC1)c1ccccc1 
 
>  <mulliken_charges> 
20 
1   -0.481606 
2   -0.126609 
3   -0.128553 
4   -0.136308 
5   -0.189243 
6   -0.182704 
7   -0.114642 
8   0.135601 
9   0.245594 
10   -0.46883 
11   0.153378 
12   0.166396 
13   0.159993 
14   0.128943 
15   0.130692 
16   0.129352 
17   0.154127 
18   0.124355 
19   0.153004 
20   0.147061 
 
>  <lowdin_charges> 
20 
1   -0.440277 
2   -0.156516 
3   -0.153974 
4   -0.156576 
5   -0.162308 
6   -0.167913 
7   -0.162506 
8   -0.013715 
9   0.108902 
10   -0.282601 
11   0.155251 
12   0.163689 
13   0.16163 
14   0.155672 
15   0.158724 
16   0.158374 
17   0.171308 
18   0.156871 
19   0.154859 
20   0.151104 
 
$$$$ 
 
