PCCDB-ID:  6848 
public computational chemistry database (PCCDB) project, http://pccdb.org 
 
 26 27  0  0  0  0  0  0  0  0999 V2000 
    1.3358    0.1806    1.0455 C   0  0  0  0  0  0  0  0  0  0  0  0 
    2.3671    1.2633   -0.8476 C   0  0  0  0  0  0  0  0  0  0  0  0 
    1.1644   -5.0594   -0.4716 C   0  0  0  0  0  0  0  0  0  0  0  0 
    0.2988   -3.9408   -0.4664 C   0  0  0  0  0  0  0  0  0  0  0  0 
    5.0065   -2.0904   -0.6387 C   0  0  0  0  0  0  0  0  0  0  0  0 
    2.5278   -4.8722   -0.5016 C   0  0  0  0  0  0  0  0  0  0  0  0 
    4.4946   -3.3644   -0.5975 C   0  0  0  0  0  0  0  0  0  0  0  0 
    0.8124   -2.6619   -0.4570 C   0  0  0  0  0  0  0  0  0  0  0  0 
    4.1537   -0.9656   -0.5385 C   0  0  0  0  0  0  0  0  0  0  0  0 
    3.0908   -3.5675   -0.5055 C   0  0  0  0  0  0  0  0  0  0  0  0 
    2.2146   -2.4345   -0.4469 C   0  0  0  0  0  0  0  0  0  0  0  0 
    2.7822   -1.1119   -0.4200 C   0  0  0  0  0  0  0  0  0  0  0  0 
    1.9005    0.0001   -0.2951 N   0  0  0  0  0  0  0  0  0  0  0  0 
    2.0774    0.5824    1.7592 H   0  0  0  0  0  0  0  0  0  0  0  0 
    0.9697   -0.7710    1.4352 H   0  0  0  0  0  0  0  0  0  0  0  0 
    0.4947    0.8815    0.9943 H   0  0  0  0  0  0  0  0  0  0  0  0 
    1.5195    1.9558   -0.9036 H   0  0  0  0  0  0  0  0  0  0  0  0 
    2.7531    1.1062   -1.8584 H   0  0  0  0  0  0  0  0  0  0  0  0 
    3.1538    1.7517   -0.2432 H   0  0  0  0  0  0  0  0  0  0  0  0 
    0.7504   -6.0642   -0.4714 H   0  0  0  0  0  0  0  0  0  0  0  0 
   -0.7773   -4.0921   -0.4829 H   0  0  0  0  0  0  0  0  0  0  0  0 
    6.0787   -1.9337   -0.7253 H   0  0  0  0  0  0  0  0  0  0  0  0 
    3.2000   -5.7267   -0.5326 H   0  0  0  0  0  0  0  0  0  0  0  0 
    5.1499   -4.2302   -0.6515 H   0  0  0  0  0  0  0  0  0  0  0  0 
    0.1492   -1.8045   -0.4906 H   0  0  0  0  0  0  0  0  0  0  0  0 
    4.5954    0.0254   -0.5335 H   0  0  0  0  0  0  0  0  0  0  0  0 
  1 15  1  0  0  0  0 
  1 14  1  0  0  0  0 
  2 13  1  0  0  0  0 
  2 19  1  0  0  0  0 
  3 20  1  0  0  0  0 
  3  4  2  0  0  0  0 
  4  8  1  0  0  0  0 
  5  7  2  0  0  0  0 
  5  9  1  0  0  0  0 
  6  3  1  0  0  0  0 
  7 10  1  0  0  0  0 
  8 11  2  0  0  0  0 
  9 26  1  0  0  0  0 
  9 12  2  0  0  0  0 
 10  6  2  0  0  0  0 
 10 11  1  0  0  0  0 
 11 12  1  0  0  0  0 
 12 13  1  0  0  0  0 
 13  1  1  0  0  0  0 
 16  1  1  0  0  0  0 
 17  2  1  0  0  0  0 
 18  2  1  0  0  0  0 
 21  4  1  0  0  0  0 
 22  5  1  0  0  0  0 
 23  6  1  0  0  0  0 
 24  7  1  0  0  0  0 
 25  8  1  0  0  0  0 
M  END 
>  <HBA> 
1 
 
>  <HBD> 
0 
 
>  <TPSA> 
3.24 
 
>  <cid> 
6848 
 
>  <dipole> 
0.97 
 
>  <excitation_energy_1> 
3.825 
 
>  <excitation_energy_2> 
4.246 
 
>  <excitation_energy_3> 
4.708 
 
>  <excitation_energy_4> 
4.904 
 
>  <homo_energy> 
-5.255 
 
>  <homo_lumo_gap> 
4.435 
 
>  <logP> 
2.906 
 
>  <lumo_energy> 
-0.819 
 
>  <melting_point> 
58.0 
 
>  <molecular_refractivity> 
58.16 
 
>  <oscillator_strength_1> 
0.0984 
 
>  <oscillator_strength_2> 
0.0169 
 
>  <oscillator_strength_3> 
0.012 
 
>  <oscillator_strength_4> 
0.0147 
 
>  <open_babel_can_smiles> 
CN(c1cccc2c1cccc2)C 
 
>  <mulliken_charges> 
26 
1   -0.308701 
2   -0.304856 
3   -0.132216 
4   -0.136924 
5   -0.144241 
6   -0.196922 
7   -0.188148 
8   -0.191916 
9   -0.190428 
10   0.125548 
11   0.094293 
12   0.231842 
13   -0.453814 
14   0.133231 
15   0.167083 
16   0.14921 
17   0.151952 
18   0.163871 
19   0.127772 
20   0.127082 
21   0.126333 
22   0.126762 
23   0.127124 
24   0.123941 
25   0.146821 
26   0.125301 
 
>  <lowdin_charges> 
26 
1   -0.353591 
2   -0.355608 
3   -0.159021 
4   -0.159191 
5   -0.15314 
6   -0.159222 
7   -0.171091 
8   -0.16055 
9   -0.196016 
10   0.002906 
11   -0.015067 
12   0.044242 
13   -0.151426 
14   0.13146 
15   0.161414 
16   0.149065 
17   0.153017 
18   0.158156 
19   0.12678 
20   0.156576 
21   0.154835 
22   0.155111 
23   0.157081 
24   0.156613 
25   0.167638 
26   0.159028 
 
$$$$ 
 
