PCCDB-ID:  16201 
public computational chemistry database (PCCDB) project, http://pccdb.org 
 
 38 38  0  0  0  0  0  0  0  0999 V2000 
    8.3405    0.5301    1.8066 C   0  0  0  0  0  0  0  0  0  0  0  0 
    5.5478    2.5191   -0.7124 C   0  0  0  0  0  0  0  0  0  0  0  0 
    3.7616   -4.2110   -1.5335 C   0  0  0  0  0  0  0  0  0  0  0  0 
    8.3926   -4.4351    0.4777 C   0  0  0  0  0  0  0  0  0  0  0  0 
    7.7757    0.5552    0.3842 C   0  0  0  0  0  0  0  0  0  0  0  0 
    5.6803    0.9992   -0.8373 C   0  0  0  0  0  0  0  0  0  0  0  0 
    6.5435   -6.8102   -1.8777 C   0  0  0  0  0  0  0  0  0  0  0  0 
    5.3240   -6.1535   -2.0320 C   0  0  0  0  0  0  0  0  0  0  0  0 
    7.5355   -6.2608   -1.0667 C   0  0  0  0  0  0  0  0  0  0  0  0 
    5.8553   -0.9376    0.6563 C   0  0  0  0  0  0  0  0  0  0  0  0 
    5.0733   -4.9399   -1.3808 C   0  0  0  0  0  0  0  0  0  0  0  0 
    7.3284   -5.0493   -0.3971 C   0  0  0  0  0  0  0  0  0  0  0  0 
    6.2070   -2.0431   -0.3480 C   0  0  0  0  0  0  0  0  0  0  0  0 
    6.0912   -4.4223   -0.5740 C   0  0  0  0  0  0  0  0  0  0  0  0 
    6.3152    0.3953    0.3437 N   0  0  0  0  0  0  0  0  0  0  0  0 
    6.7310   -1.9007   -1.4257 O   0  0  0  0  0  0  0  0  0  0  0  0 
    5.8216   -3.2542    0.1636 O   0  0  0  0  0  0  0  0  0  0  0  0 
    9.4191    0.7246    1.7891 H   0  0  0  0  0  0  0  0  0  0  0  0 
    8.1957   -0.4411    2.2934 H   0  0  0  0  0  0  0  0  0  0  0  0 
    7.8572    1.2931    2.4257 H   0  0  0  0  0  0  0  0  0  0  0  0 
    5.0363    2.9280   -1.5919 H   0  0  0  0  0  0  0  0  0  0  0  0 
    6.5231    3.0137   -0.6430 H   0  0  0  0  0  0  0  0  0  0  0  0 
    4.9732    2.7826    0.1817 H   0  0  0  0  0  0  0  0  0  0  0  0 
    3.0578   -4.7998   -2.1289 H   0  0  0  0  0  0  0  0  0  0  0  0 
    3.8992   -3.2449   -2.0349 H   0  0  0  0  0  0  0  0  0  0  0  0 
    3.3012   -4.0072   -0.5599 H   0  0  0  0  0  0  0  0  0  0  0  0 
    9.2559   -5.1016    0.5626 H   0  0  0  0  0  0  0  0  0  0  0  0 
    8.0165   -4.2316    1.4870 H   0  0  0  0  0  0  0  0  0  0  0  0 
    8.7434   -3.4829    0.0616 H   0  0  0  0  0  0  0  0  0  0  0  0 
    8.2832   -0.1976   -0.2415 H   0  0  0  0  0  0  0  0  0  0  0  0 
    8.0064    1.5279   -0.0606 H   0  0  0  0  0  0  0  0  0  0  0  0 
    6.2094    0.7350   -1.7660 H   0  0  0  0  0  0  0  0  0  0  0  0 
    4.6743    0.5710   -0.9252 H   0  0  0  0  0  0  0  0  0  0  0  0 
    6.7212   -7.7532   -2.3876 H   0  0  0  0  0  0  0  0  0  0  0  0 
    4.5513   -6.5828   -2.6650 H   0  0  0  0  0  0  0  0  0  0  0  0 
    8.4867   -6.7731   -0.9462 H   0  0  0  0  0  0  0  0  0  0  0  0 
    6.2381   -1.2541    1.6333 H   0  0  0  0  0  0  0  0  0  0  0  0 
    4.7620   -0.9376    0.7597 H   0  0  0  0  0  0  0  0  0  0  0  0 
  1 19  1  0  0  0  0 
  1 20  1  0  0  0  0 
  2 22  1  0  0  0  0 
  2 23  1  0  0  0  0 
  3 11  1  0  0  0  0 
  3 26  1  0  0  0  0 
  4 27  1  0  0  0  0 
  4 28  1  0  0  0  0 
  5  1  1  0  0  0  0 
  6  2  1  0  0  0  0 
  6 15  1  0  0  0  0 
  7  9  1  0  0  0  0 
  8  7  2  0  0  0  0 
  8 11  1  0  0  0  0 
  9 36  1  0  0  0  0 
  9 12  2  0  0  0  0 
 10 38  1  0  0  0  0 
 10 37  1  0  0  0  0 
 11 14  2  0  0  0  0 
 12  4  1  0  0  0  0 
 13 17  1  0  0  0  0 
 13 10  1  0  0  0  0 
 14 12  1  0  0  0  0 
 14 17  1  0  0  0  0 
 15  5  1  0  0  0  0 
 15 10  1  0  0  0  0 
 16 13  2  0  0  0  0 
 18  1  1  0  0  0  0 
 21  2  1  0  0  0  0 
 24  3  1  0  0  0  0 
 25  3  1  0  0  0  0 
 29  4  1  0  0  0  0 
 30  5  1  0  0  0  0 
 31  5  1  0  0  0  0 
 32  6  1  0  0  0  0 
 33  6  1  0  0  0  0 
 34  7  1  0  0  0  0 
 35  8  1  0  0  0  0 
M  END 
>  <HBA> 
3 
 
>  <HBD> 
0 
 
>  <TPSA> 
29.54 
 
>  <cid> 
16201 
 
>  <dipole> 
0.97 
 
>  <excitation_energy_1> 
4.58 
 
>  <excitation_energy_2> 
5.021 
 
>  <excitation_energy_3> 
5.066 
 
>  <excitation_energy_4> 
5.126 
 
>  <homo_energy> 
-5.614 
 
>  <homo_lumo_gap> 
5.636 
 
>  <logP> 
2.551 
 
>  <lumo_energy> 
0.022 
 
>  <melting_point> 
38.81 
 
>  <molecular_refractivity> 
70.0 
 
>  <oscillator_strength_1> 
0.0012 
 
>  <oscillator_strength_2> 
0.0134 
 
>  <oscillator_strength_3> 
0.0008 
 
>  <oscillator_strength_4> 
0.0051 
 
>  <open_babel_can_smiles> 
CCN(CC(=O)Oc1c(C)cccc1C)CC 
 
>  <mulliken_charges> 
38 
1   -0.446456 
2   -0.441064 
3   -0.533498 
4   -0.53946 
5   -0.130589 
6   -0.123953 
7   -0.108174 
8   -0.209033 
9   -0.208855 
10   -0.253267 
11   0.175393 
12   0.181679 
13   0.611064 
14   0.223466 
15   -0.36014 
16   -0.458887 
17   -0.534946 
18   0.142853 
19   0.140511 
20   0.154301 
21   0.139819 
22   0.145806 
23   0.149744 
24   0.15491 
25   0.171875 
26   0.16655 
27   0.155637 
28   0.164985 
29   0.175415 
30   0.141446 
31   0.141118 
32   0.148407 
33   0.128942 
34   0.128497 
35   0.12521 
36   0.125205 
37   0.177783 
38   0.177706 
 
>  <lowdin_charges> 
38 
1   -0.45031 
2   -0.451907 
3   -0.441851 
4   -0.442412 
5   -0.201599 
6   -0.196166 
7   -0.156038 
8   -0.167862 
9   -0.166515 
10   -0.231973 
11   -0.007636 
12   -0.006543 
13   0.189122 
14   0.084103 
15   -0.180905 
16   -0.243929 
17   -0.174067 
18   0.150731 
19   0.144223 
20   0.154958 
21   0.15097 
22   0.147238 
23   0.152145 
24   0.159675 
25   0.164862 
26   0.163023 
27   0.159256 
28   0.161495 
29   0.166319 
30   0.134636 
31   0.148055 
32   0.138442 
33   0.140632 
34   0.158381 
35   0.15771 
36   0.156491 
37   0.16892 
38   0.168325 
 
$$$$ 
 
