PCCDB-ID:  23624 
public computational chemistry database (PCCDB) project, http://pccdb.org 
 
 24 25  0  0  0  0  0  0  0  0999 V2000 
    0.9982   -0.2860    0.2139 C   0  0  0  0  0  0  0  0  0  0  0  0 
    3.2313   -1.2496   -0.5112 C   0  0  0  0  0  0  0  0  0  0  0  0 
    3.1770    1.0085    0.2928 C   0  0  0  0  0  0  0  0  0  0  0  0 
    4.6026   -1.1445   -0.7336 C   0  0  0  0  0  0  0  0  0  0  0  0 
    4.5503    1.1173    0.0711 C   0  0  0  0  0  0  0  0  0  0  0  0 
    7.2971   -0.2811   -2.0732 C   0  0  0  0  0  0  0  0  0  0  0  0 
    7.6629   -0.9788   -0.1160 C   0  0  0  0  0  0  0  0  0  0  0  0 
    2.4908   -0.1763    0.0032 C   0  0  0  0  0  0  0  0  0  0  0  0 
    5.2886    0.0456   -0.4447 C   0  0  0  0  0  0  0  0  0  0  0  0 
    6.7738    0.1765   -0.6752 C   0  0  0  0  0  0  0  0  0  0  0  0 
    7.7297   -1.5653   -1.4749 N   0  0  0  0  0  0  0  0  0  0  0  0 
    0.6924   -1.3244    0.3811 H   0  0  0  0  0  0  0  0  0  0  0  0 
    0.4423    0.0794   -0.6603 H   0  0  0  0  0  0  0  0  0  0  0  0 
    0.6694    0.3055    1.0756 H   0  0  0  0  0  0  0  0  0  0  0  0 
    2.7248   -2.1851   -0.7404 H   0  0  0  0  0  0  0  0  0  0  0  0 
    2.6318    1.8584    0.6986 H   0  0  0  0  0  0  0  0  0  0  0  0 
    5.1561   -1.9920   -1.1313 H   0  0  0  0  0  0  0  0  0  0  0  0 
    5.0574    2.0504    0.3087 H   0  0  0  0  0  0  0  0  0  0  0  0 
    8.1175    0.3591   -2.4329 H   0  0  0  0  0  0  0  0  0  0  0  0 
    6.5504   -0.3815   -2.8696 H   0  0  0  0  0  0  0  0  0  0  0  0 
    7.2049   -1.6318    0.6362 H   0  0  0  0  0  0  0  0  0  0  0  0 
    8.6235   -0.6067    0.2724 H   0  0  0  0  0  0  0  0  0  0  0  0 
    7.1035    1.1766   -0.3811 H   0  0  0  0  0  0  0  0  0  0  0  0 
    8.6481   -1.8958   -1.7642 H   0  0  0  0  0  0  0  0  0  0  0  0 
  1 12  1  0  0  0  0 
  1 14  1  0  0  0  0 
  2  8  1  0  0  0  0 
  3 16  1  0  0  0  0 
  4  2  2  0  0  0  0 
  4  9  1  0  0  0  0 
  5  3  1  0  0  0  0 
  5 18  1  0  0  0  0 
  6 11  1  0  0  0  0 
  6 10  1  0  0  0  0 
  7 22  1  0  0  0  0 
  7 21  1  0  0  0  0 
  8  1  1  0  0  0  0 
  8  3  2  0  0  0  0 
  9  5  2  0  0  0  0 
 10  9  1  0  0  0  0 
 10 23  1  0  0  0  0 
 10  7  1  0  0  0  0 
 11  7  1  0  0  0  0 
 13  1  1  0  0  0  0 
 15  2  1  0  0  0  0 
 17  4  1  0  0  0  0 
 19  6  1  0  0  0  0 
 20  6  1  0  0  0  0 
 24 11  1  0  0  0  0 
M  END 
>  <HBA> 
1 
 
>  <HBD> 
1 
 
>  <TPSA> 
12.03 
 
>  <cid> 
23624 
 
>  <dipole> 
1.19 
 
>  <excitation_energy_1> 
5.14 
 
>  <excitation_energy_2> 
5.297 
 
>  <excitation_energy_3> 
5.341 
 
>  <excitation_energy_4> 
5.493 
 
>  <homo_energy> 
-6.052 
 
>  <homo_lumo_gap> 
6.212 
 
>  <logP> 
2.011 
 
>  <lumo_energy> 
0.161 
 
>  <melting_point> 
60.42 
 
>  <molecular_refractivity> 
50.59 
 
>  <oscillator_strength_1> 
0.0048 
 
>  <oscillator_strength_2> 
0.0003 
 
>  <oscillator_strength_3> 
0.0063 
 
>  <oscillator_strength_4> 
0.0002 
 
>  <open_babel_can_smiles> 
Cc1ccc(cc1)C1CNC1 
 
>  <mulliken_charges> 
24 
1   -0.529271 
2   -0.182465 
3   -0.179283 
4   -0.19892 
5   -0.197841 
6   -0.118678 
7   -0.119373 
8   0.178244 
9   0.193823 
10   -0.230328 
11   -0.558484 
12   0.154833 
13   0.163191 
14   0.15492 
15   0.118938 
16   0.117137 
17   0.156572 
18   0.118679 
19   0.122868 
20   0.146001 
21   0.146114 
22   0.123075 
23   0.128345 
24   0.291904 
 
>  <lowdin_charges> 
24 
1   -0.442854 
2   -0.166886 
3   -0.170049 
4   -0.165634 
5   -0.168905 
6   -0.200804 
7   -0.20017 
8   -0.002482 
9   -0.007846 
10   -0.135032 
11   -0.382169 
12   0.155767 
13   0.160928 
14   0.157541 
15   0.152883 
16   0.153149 
17   0.170684 
18   0.151643 
19   0.130693 
20   0.143175 
21   0.143972 
22   0.129809 
23   0.144434 
24   0.248154 
 
$$$$ 
 
