PCCDB-ID:  55431 
public computational chemistry database (PCCDB) project, http://pccdb.org 
 
 25 28  0  0  0  0  0  0  0  0999 V2000 
    1.1905   -0.8825    0.1488 C   0  0  0  0  0  0  0  0  0  0  0  0 
    1.9421    4.6592    0.4532 C   0  0  0  0  0  0  0  0  0  0  0  0 
    0.9268   -2.2441    0.0856 C   0  0  0  0  0  0  0  0  0  0  0  0 
    2.9712    5.5321    0.3478 C   0  0  0  0  0  0  0  0  0  0  0  0 
    2.0315    2.0383    0.2326 C   0  0  0  0  0  0  0  0  0  0  0  0 
    4.8049    2.5553   -0.1941 C   0  0  0  0  0  0  0  0  0  0  0  0 
    3.1029   -2.7658   -0.3262 C   0  0  0  0  0  0  0  0  0  0  0  0 
    2.5122    3.3461    0.2538 C   0  0  0  0  0  0  0  0  0  0  0  0 
    2.5068   -0.4275   -0.0399 C   0  0  0  0  0  0  0  0  0  0  0  0 
    2.9182    0.9748    0.0005 C   0  0  0  0  0  0  0  0  0  0  0  0 
    3.4821   -1.4145   -0.2839 C   0  0  0  0  0  0  0  0  0  0  0  0 
    3.8903    3.5681    0.0390 C   0  0  0  0  0  0  0  0  0  0  0  0 
    4.2928    1.2595   -0.2088 C   0  0  0  0  0  0  0  0  0  0  0  0 
    4.8975   -1.0725   -0.4975 C   0  0  0  0  0  0  0  0  0  0  0  0 
    1.8548   -3.1908   -0.1474 N   0  0  0  0  0  0  0  0  0  0  0  0 
    5.7880   -1.8587   -0.7131 O   0  0  0  0  0  0  0  0  0  0  0  0 
    4.1707    4.9009    0.0959 O   0  0  0  0  0  0  0  0  0  0  0  0 
    5.2173    0.2705   -0.4412 O   0  0  0  0  0  0  0  0  0  0  0  0 
    0.3766   -0.1927    0.3428 H   0  0  0  0  0  0  0  0  0  0  0  0 
    0.9081    4.9075    0.6467 H   0  0  0  0  0  0  0  0  0  0  0  0 
   -0.0899   -2.6051    0.2301 H   0  0  0  0  0  0  0  0  0  0  0  0 
    3.0324    6.6074    0.4220 H   0  0  0  0  0  0  0  0  0  0  0  0 
    0.9769    1.8439    0.3951 H   0  0  0  0  0  0  0  0  0  0  0  0 
    5.8605    2.7354   -0.3580 H   0  0  0  0  0  0  0  0  0  0  0  0 
    3.8648   -3.5178   -0.5148 H   0  0  0  0  0  0  0  0  0  0  0  0 
  1 19  1  0  0  0  0 
  2 20  1  0  0  0  0 
  3  1  1  0  0  0  0 
  3 21  1  0  0  0  0 
  4 22  1  0  0  0  0 
  4  2  2  0  0  0  0 
  5  8  1  0  0  0  0 
  5 23  1  0  0  0  0 
  6 12  1  0  0  0  0 
  7 11  2  0  0  0  0 
  7 15  1  0  0  0  0 
  8  2  1  0  0  0  0 
  9 10  1  0  0  0  0 
  9  1  2  0  0  0  0 
 10  5  2  0  0  0  0 
 11  9  1  0  0  0  0 
 12 17  1  0  0  0  0 
 12  8  2  0  0  0  0 
 13  6  2  0  0  0  0 
 13 10  1  0  0  0  0 
 14 18  1  0  0  0  0 
 14 11  1  0  0  0  0 
 15  3  2  0  0  0  0 
 16 14  2  0  0  0  0 
 17  4  1  0  0  0  0 
 18 13  1  0  0  0  0 
 24  6  1  0  0  0  0 
 25  7  1  0  0  0  0 
M  END 
>  <HBA> 
4 
 
>  <HBD> 
0 
 
>  <TPSA> 
56.24 
 
>  <cid> 
55431 
 
>  <dipole> 
6.46 
 
>  <excitation_energy_1> 
3.792 
 
>  <excitation_energy_2> 
4.147 
 
>  <excitation_energy_3> 
4.24 
 
>  <excitation_energy_4> 
4.269 
 
>  <homo_energy> 
-6.308 
 
>  <homo_lumo_gap> 
4.381 
 
>  <logP> 
3.087 
 
>  <lumo_energy> 
-1.927 
 
>  <melting_point> 
187.73 
 
>  <molecular_refractivity> 
67.56 
 
>  <oscillator_strength_1> 
0.0901 
 
>  <oscillator_strength_2> 
0.0149 
 
>  <oscillator_strength_3> 
0.0007 
 
>  <oscillator_strength_4> 
0.1374 
 
>  <open_babel_can_smiles> 
O=c1oc2cc3occc3cc2c2c1cncc2 
 
>  <mulliken_charges> 
25 
1   -0.198903 
2   -0.21155 
3   0.04631 
4   0.083244 
5   -0.284043 
6   -0.248568 
7   0.016292 
8   0.133546 
9   0.141428 
10   0.09087 
11   -0.043748 
12   0.339018 
13   0.300488 
14   0.575264 
15   -0.413593 
16   -0.452842 
17   -0.478238 
18   -0.525315 
19   0.144515 
20   0.155948 
21   0.152818 
22   0.171302 
23   0.148442 
24   0.174172 
25   0.183142 
 
>  <lowdin_charges> 
25 
1   -0.183463 
2   -0.205139 
3   -0.068038 
4   -0.04496 
5   -0.144176 
6   -0.186526 
7   -0.05579 
8   -0.033125 
9   0.036894 
10   -0.04714 
11   -0.080151 
12   0.100544 
13   0.109895 
14   0.206144 
15   -0.145899 
16   -0.233195 
17   -0.108893 
18   -0.133179 
19   0.167743 
20   0.176309 
21   0.161887 
22   0.176681 
23   0.164977 
24   0.187766 
25   0.180834 
 
$$$$ 
 
