PCCDB-ID:  66896 
public computational chemistry database (PCCDB) project, http://pccdb.org 
 
 28 28  0  0  0  0  0  0  0  0999 V2000 
   -0.5740   -0.0717    0.5911 C   0  0  0  0  0  0  0  0  0  0  0  0 
    7.3149    1.5870   -2.7082 C   0  0  0  0  0  0  0  0  0  0  0  0 
    1.8335   -0.7106    1.0786 C   0  0  0  0  0  0  0  0  0  0  0  0 
    1.3795    0.6160   -0.8710 C   0  0  0  0  0  0  0  0  0  0  0  0 
    3.1936   -0.6931    0.7743 C   0  0  0  0  0  0  0  0  0  0  0  0 
    2.7318    0.6413   -1.1874 C   0  0  0  0  0  0  0  0  0  0  0  0 
    7.6216   -0.4379   -1.2260 C   0  0  0  0  0  0  0  0  0  0  0  0 
    0.9007   -0.0577    0.2657 C   0  0  0  0  0  0  0  0  0  0  0  0 
    3.6582   -0.0105   -0.3555 C   0  0  0  0  0  0  0  0  0  0  0  0 
    8.1540   -0.1267    0.1891 C   0  0  0  0  0  0  0  0  0  0  0  0 
    5.0560   -0.0504   -0.5826 N   0  0  0  0  0  0  0  0  0  0  0  0 
    5.4698    0.7099   -1.5172 N   0  0  0  0  0  0  0  0  0  0  0  0 
    6.7622    0.6018   -1.7931 N   0  0  0  0  0  0  0  0  0  0  0  0 
    9.3320    0.0100    0.4186 O   0  0  0  0  0  0  0  0  0  0  0  0 
    7.2108   -0.0336    1.1347 O   0  0  0  0  0  0  0  0  0  0  0  0 
   -0.7876   -0.7151    1.4503 H   0  0  0  0  0  0  0  0  0  0  0  0 
   -1.1686   -0.4354   -0.2559 H   0  0  0  0  0  0  0  0  0  0  0  0 
   -0.9408    0.9347    0.8309 H   0  0  0  0  0  0  0  0  0  0  0  0 
    8.0506    2.2227   -2.2011 H   0  0  0  0  0  0  0  0  0  0  0  0 
    6.4917    2.2047   -3.0685 H   0  0  0  0  0  0  0  0  0  0  0  0 
    7.8022    1.0921   -3.5565 H   0  0  0  0  0  0  0  0  0  0  0  0 
    1.4927   -1.2453    1.9619 H   0  0  0  0  0  0  0  0  0  0  0  0 
    0.6733    1.1240   -1.5245 H   0  0  0  0  0  0  0  0  0  0  0  0 
    3.9081   -1.2076    1.4108 H   0  0  0  0  0  0  0  0  0  0  0  0 
    3.0822    1.1595   -2.0731 H   0  0  0  0  0  0  0  0  0  0  0  0 
    7.0399   -1.3682   -1.1991 H   0  0  0  0  0  0  0  0  0  0  0  0 
    8.4817   -0.5575   -1.8855 H   0  0  0  0  0  0  0  0  0  0  0  0 
    6.3214   -0.1720    0.7098 H   0  0  0  0  0  0  0  0  0  0  0  0 
  1 18  1  0  0  0  0 
  1 16  1  0  0  0  0 
  2 19  1  0  0  0  0 
  2 13  1  0  0  0  0 
  3 22  1  0  0  0  0 
  4  8  1  0  0  0  0 
  5  3  1  0  0  0  0 
  5 24  1  0  0  0  0 
  6  4  2  0  0  0  0 
  6  9  1  0  0  0  0 
  7 26  1  0  0  0  0 
  7 10  1  0  0  0  0 
  8  1  1  0  0  0  0 
  8  3  2  0  0  0  0 
  9  5  2  0  0  0  0 
 10 14  2  0  0  0  0 
 10 15  1  0  0  0  0 
 11  9  1  0  0  0  0 
 12 11  1  0  0  0  0 
 13 12  1  0  0  0  0 
 13  7  1  0  0  0  0 
 17  1  1  0  0  0  0 
 20  2  1  0  0  0  0 
 21  2  1  0  0  0  0 
 23  4  1  0  0  0  0 
 25  6  1  0  0  0  0 
 27  7  1  0  0  0  0 
 28 15  1  0  0  0  0 
M  RAD  2  11   2  12   2 
M  END 
>  <HBA> 
5 
 
>  <HBD> 
1 
 
>  <TPSA> 
65.26 
 
>  <cid> 
66896 
 
>  <dipole> 
4.86 
 
>  <excitation_energy_1> 
3.867 
 
>  <excitation_energy_2> 
4.293 
 
>  <excitation_energy_3> 
4.442 
 
>  <excitation_energy_4> 
5.015 
 
>  <homo_energy> 
-5.883 
 
>  <homo_lumo_gap> 
4.283 
 
>  <logP> 
2.01 
 
>  <lumo_energy> 
-1.6 
 
>  <melting_point> 
109.52 
 
>  <molecular_refractivity> 
56.07 
 
>  <oscillator_strength_1> 
0.4631 
 
>  <oscillator_strength_2> 
0.086 
 
>  <oscillator_strength_3> 
0.0027 
 
>  <oscillator_strength_4> 
0.0166 
 
>  <open_babel_can_smiles> 
CN(CC(=O)O)[N][N]c1ccc(cc1)C 
 
>  <mulliken_charges> 
28 
1   -0.532023 
2   -0.305758 
3   -0.192723 
4   -0.193266 
5   -0.159293 
6   -0.137794 
7   -0.265878 
8   0.185533 
9   0.306805 
10   0.595749 
11   -0.455638 
12   -0.01823 
13   -0.197584 
14   -0.444587 
15   -0.582839 
16   0.157367 
17   0.162898 
18   0.165881 
19   0.185465 
20   0.192951 
21   0.169552 
22   0.128433 
23   0.126699 
24   0.138301 
25   0.144455 
26   0.197464 
27   0.186285 
28   0.441774 
 
>  <lowdin_charges> 
28 
1   -0.442962 
2   -0.352361 
3   -0.163779 
4   -0.160023 
5   -0.164252 
6   -0.166539 
7   -0.250271 
8   0.001403 
9   0.020033 
10   0.175189 
11   -0.185986 
12   -0.01995 
13   -0.025502 
14   -0.247224 
15   -0.359557 
16   0.158567 
17   0.161965 
18   0.161917 
19   0.167001 
20   0.179273 
21   0.159661 
22   0.158106 
23   0.157886 
24   0.164939 
25   0.167472 
26   0.178834 
27   0.179472 
28   0.346689 
 
$$$$ 
 
