PCCDB-ID:  69702 
public computational chemistry database (PCCDB) project, http://pccdb.org 
 
 27 27  0  0  0  0  0  0  0  0999 V2000 
    0.7354    1.4675   -1.6027 C   0  0  0  0  0  0  0  0  0  0  0  0 
    1.6307    0.3826   -0.9840 C   0  0  0  0  0  0  0  0  0  0  0  0 
   -0.5737    1.6327   -0.8149 C   0  0  0  0  0  0  0  0  0  0  0  0 
    0.8782   -0.9507   -0.8341 C   0  0  0  0  0  0  0  0  0  0  0  0 
   -1.3127    0.2915   -0.6720 C   0  0  0  0  0  0  0  0  0  0  0  0 
   -0.2343   -0.5770    1.4744 C   0  0  0  0  0  0  0  0  0  0  0  0 
    0.3675   -1.7744    2.2152 C   0  0  0  0  0  0  0  0  0  0  0  0 
   -0.4408   -0.8156   -0.0366 C   0  0  0  0  0  0  0  0  0  0  0  0 
    0.4872   -1.5433    3.7175 C   0  0  0  0  0  0  0  0  0  0  0  0 
    0.1608   -0.5355    4.2909 O   0  0  0  0  0  0  0  0  0  0  0  0 
    1.0109   -2.5867    4.4241 O   0  0  0  0  0  0  0  0  0  0  0  0 
    0.4979    1.1879   -2.6402 H   0  0  0  0  0  0  0  0  0  0  0  0 
    1.2743    2.4222   -1.6522 H   0  0  0  0  0  0  0  0  0  0  0  0 
    1.9887    0.7233   -0.0023 H   0  0  0  0  0  0  0  0  0  0  0  0 
    2.5262    0.2329   -1.6006 H   0  0  0  0  0  0  0  0  0  0  0  0 
   -1.2256    2.3620   -1.3124 H   0  0  0  0  0  0  0  0  0  0  0  0 
   -0.3525    2.0466    0.1788 H   0  0  0  0  0  0  0  0  0  0  0  0 
    1.5341   -1.7041   -0.3783 H   0  0  0  0  0  0  0  0  0  0  0  0 
    0.6345   -1.3309   -1.8367 H   0  0  0  0  0  0  0  0  0  0  0  0 
   -1.6266   -0.0435   -1.6715 H   0  0  0  0  0  0  0  0  0  0  0  0 
   -2.2317    0.4243   -0.0860 H   0  0  0  0  0  0  0  0  0  0  0  0 
    0.3974    0.2990    1.6560 H   0  0  0  0  0  0  0  0  0  0  0  0 
   -1.2009   -0.3423    1.9359 H   0  0  0  0  0  0  0  0  0  0  0  0 
    1.3679   -2.0198    1.8308 H   0  0  0  0  0  0  0  0  0  0  0  0 
   -0.2461   -2.6741    2.0537 H   0  0  0  0  0  0  0  0  0  0  0  0 
   -0.9896   -1.7647   -0.1387 H   0  0  0  0  0  0  0  0  0  0  0  0 
    1.2220   -3.3203    3.8230 H   0  0  0  0  0  0  0  0  0  0  0  0 
  1  2  1  0  0  0  0 
  1  3  1  0  0  0  0 
  2  4  1  0  0  0  0 
  2 14  1  0  0  0  0 
  3  5  1  0  0  0  0 
  3 17  1  0  0  0  0 
  4 18  1  0  0  0  0 
  4  8  1  0  0  0  0 
  5 21  1  0  0  0  0 
  5  8  1  0  0  0  0 
  6 22  1  0  0  0  0 
  6 23  1  0  0  0  0 
  6  7  1  0  0  0  0 
  7  9  1  0  0  0  0 
  8  6  1  0  0  0  0 
  9 10  2  0  0  0  0 
  9 11  1  0  0  0  0 
 12  1  1  0  0  0  0 
 13  1  1  0  0  0  0 
 15  2  1  0  0  0  0 
 16  3  1  0  0  0  0 
 19  4  1  0  0  0  0 
 20  5  1  0  0  0  0 
 24  7  1  0  0  0  0 
 25  7  1  0  0  0  0 
 26  8  1  0  0  0  0 
 27 11  1  0  0  0  0 
M  END 
>  <HBA> 
2 
 
>  <HBD> 
1 
 
>  <TPSA> 
37.3 
 
>  <cid> 
69702 
 
>  <dipole> 
4.14 
 
>  <excitation_energy_1> 
5.743 
 
>  <excitation_energy_2> 
6.381 
 
>  <excitation_energy_3> 
7.045 
 
>  <excitation_energy_4> 
7.105 
 
>  <homo_energy> 
-7.344 
 
>  <homo_lumo_gap> 
7.682 
 
>  <logP> 
2.432 
 
>  <lumo_energy> 
0.337 
 
>  <melting_point> 
71.18 
 
>  <molecular_refractivity> 
45.03 
 
>  <oscillator_strength_1> 
0.0003 
 
>  <oscillator_strength_2> 
0.0155 
 
>  <oscillator_strength_3> 
0.0004 
 
>  <oscillator_strength_4> 
0.0017 
 
>  <open_babel_can_smiles> 
OC(=O)CCC1CCCCC1 
 
>  <mulliken_charges> 
27 
1   -0.254924 
2   -0.261238 
3   -0.263005 
4   -0.268797 
5   -0.266586 
6   -0.254329 
7   -0.413553 
8   -0.08011 
9   0.608498 
10   -0.437269 
11   -0.569838 
12   0.126515 
13   0.131709 
14   0.133151 
15   0.131339 
16   0.132185 
17   0.138199 
18   0.122465 
19   0.1299 
20   0.126566 
21   0.130714 
22   0.157648 
23   0.153739 
24   0.166076 
25   0.161848 
26   0.111762 
27   0.407336 
 
>  <lowdin_charges> 
27 
1   -0.276395 
2   -0.280302 
3   -0.281331 
4   -0.282769 
5   -0.27786 
6   -0.275111 
7   -0.323447 
8   -0.130258 
9   0.195883 
10   -0.236759 
11   -0.362904 
12   0.135514 
13   0.143944 
14   0.138545 
15   0.144554 
16   0.146151 
17   0.141049 
18   0.138017 
19   0.140506 
20   0.138643 
21   0.143118 
22   0.154018 
23   0.155553 
24   0.159931 
25   0.1596 
26   0.134482 
27   0.357628 
 
$$$$ 
 
