PCCDB-ID:  66644 
public computational chemistry database (PCCDB) project, http://pccdb.org 
 
 18 18  0  0  0  0  0  0  0  0999 V2000 
   -1.0190   -0.1065   -0.9894 C   0  0  0  0  0  0  0  0  0  0  0  0 
   -0.7310   -1.2269   -0.2110 C   0  0  0  0  0  0  0  0  0  0  0  0 
   -0.1969    1.0167   -0.9232 C   0  0  0  0  0  0  0  0  0  0  0  0 
    0.3748   -1.2155    0.6371 C   0  0  0  0  0  0  0  0  0  0  0  0 
    0.9262    1.0574   -0.0805 C   0  0  0  0  0  0  0  0  0  0  0  0 
    1.1876   -0.0849    0.7039 C   0  0  0  0  0  0  0  0  0  0  0  0 
    1.7821    2.2745    0.0252 C   0  0  0  0  0  0  0  0  0  0  0  0 
    2.1050    3.1117   -0.8955 N   0  0  0  0  0  0  0  0  0  0  0  0 
    2.2839   -0.0487    1.5427 O   0  0  0  0  0  0  0  0  0  0  0  0 
    2.2622    2.6110    1.2564 O   0  0  0  0  0  0  0  0  0  0  0  0 
    1.5468    2.7985   -2.1561 O   0  0  0  0  0  0  0  0  0  0  0  0 
   -1.8830   -0.1035   -1.6468 H   0  0  0  0  0  0  0  0  0  0  0  0 
   -1.3616   -2.1101   -0.2585 H   0  0  0  0  0  0  0  0  0  0  0  0 
   -0.4168    1.8844   -1.5302 H   0  0  0  0  0  0  0  0  0  0  0  0 
    0.6103   -2.0831    1.2511 H   0  0  0  0  0  0  0  0  0  0  0  0 
    2.3067   -0.8538    2.0829 H   0  0  0  0  0  0  0  0  0  0  0  0 
    2.3724    1.7920    1.7722 H   0  0  0  0  0  0  0  0  0  0  0  0 
    1.9348    3.4952   -2.7068 H   0  0  0  0  0  0  0  0  0  0  0  0 
  1  3  2  0  0  0  0 
  1  2  1  0  0  0  0 
  2  4  2  0  0  0  0 
  3  5  1  0  0  0  0 
  4  6  1  0  0  0  0 
  4 15  1  0  0  0  0 
  5  7  1  0  0  0  0 
  5  6  2  0  0  0  0 
  6  9  1  0  0  0  0 
  7 10  1  0  0  0  0 
  8  7  2  0  0  0  0 
  9 16  1  0  0  0  0 
 10 17  1  0  0  0  0 
 11  8  1  0  0  0  0 
 12  1  1  0  0  0  0 
 13  2  1  0  0  0  0 
 14  3  1  0  0  0  0 
 18 11  1  0  0  0  0 
M  END 
>  <HBA> 
4 
 
>  <HBD> 
3 
 
>  <TPSA> 
69.56 
 
>  <cid> 
66644 
 
>  <dipole> 
4.16 
 
>  <excitation_energy_1> 
4.472 
 
>  <excitation_energy_2> 
4.78 
 
>  <excitation_energy_3> 
5.064 
 
>  <excitation_energy_4> 
5.172 
 
>  <homo_energy> 
-5.823 
 
>  <homo_lumo_gap> 
4.974 
 
>  <logP> 
0.902 
 
>  <lumo_energy> 
-0.849 
 
>  <melting_point> 
160.94 
 
>  <molecular_refractivity> 
37.38 
 
>  <oscillator_strength_1> 
0.1142 
 
>  <oscillator_strength_2> 
0.0025 
 
>  <oscillator_strength_3> 
0.013 
 
>  <oscillator_strength_4> 
0.0678 
 
>  <open_babel_can_smiles> 
O/N=C(\c1ccccc1O)/O 
 
>  <mulliken_charges> 
18 
1   -0.136519 
2   -0.129627 
3   -0.160296 
4   -0.185594 
5   0.079946 
6   0.296426 
7   0.443905 
8   -0.242475 
9   -0.676106 
10   -0.619029 
11   -0.52022 
12   0.135969 
13   0.138868 
14   0.172112 
15   0.124725 
16   0.421497 
17   0.437071 
18   0.419346 
 
>  <lowdin_charges> 
18 
1   -0.172329 
2   -0.137284 
3   -0.125952 
4   -0.209896 
5   -0.061205 
6   0.10261 
7   0.107149 
8   -0.094704 
9   -0.388299 
10   -0.381245 
11   -0.387206 
12   0.162604 
13   0.163353 
14   0.181576 
15   0.157186 
16   0.366713 
17   0.359222 
18   0.357709 
 
$$$$ 
 
