PCCDB-ID:  7378 
public computational chemistry database (PCCDB) project, http://pccdb.org 
 
 30 30  0  0  0  0  0  0  0  0999 V2000 
    1.0370    0.0685   -0.4659 C   0  0  0  0  0  0  0  0  0  0  0  0 
    5.3402    2.6350    0.2462 C   0  0  0  0  0  0  0  0  0  0  0  0 
    5.2011   -3.1813   -1.4093 C   0  0  0  0  0  0  0  0  0  0  0  0 
    6.9267   -2.2903    0.1629 C   0  0  0  0  0  0  0  0  0  0  0  0 
    4.8639   -3.3559    1.0862 C   0  0  0  0  0  0  0  0  0  0  0  0 
    3.2186    1.2959   -0.0827 C   0  0  0  0  0  0  0  0  0  0  0  0 
    3.2662   -1.1031   -0.2396 C   0  0  0  0  0  0  0  0  0  0  0  0 
    5.3065    0.1104    0.0997 C   0  0  0  0  0  0  0  0  0  0  0  0 
    2.5341    0.0868   -0.2533 C   0  0  0  0  0  0  0  0  0  0  0  0 
    4.6038    1.3235    0.0902 C   0  0  0  0  0  0  0  0  0  0  0  0 
    4.6592   -1.1199   -0.0641 C   0  0  0  0  0  0  0  0  0  0  0  0 
    5.4119   -2.4652   -0.0540 C   0  0  0  0  0  0  0  0  0  0  0  0 
    0.5650    0.9737   -0.0696 H   0  0  0  0  0  0  0  0  0  0  0  0 
    0.5718   -0.7957    0.0214 H   0  0  0  0  0  0  0  0  0  0  0  0 
    0.7853    0.0111   -1.5336 H   0  0  0  0  0  0  0  0  0  0  0  0 
    4.6779    3.4255    0.6147 H   0  0  0  0  0  0  0  0  0  0  0  0 
    5.7541    2.9773   -0.7120 H   0  0  0  0  0  0  0  0  0  0  0  0 
    6.1795    2.5442    0.9449 H   0  0  0  0  0  0  0  0  0  0  0  0 
    5.7298   -4.1425   -1.4206 H   0  0  0  0  0  0  0  0  0  0  0  0 
    5.5839   -2.5727   -2.2366 H   0  0  0  0  0  0  0  0  0  0  0  0 
    4.1421   -3.3799   -1.6043 H   0  0  0  0  0  0  0  0  0  0  0  0 
    7.4162   -3.2709    0.1572 H   0  0  0  0  0  0  0  0  0  0  0  0 
    7.1490   -1.8154    1.1253 H   0  0  0  0  0  0  0  0  0  0  0  0 
    7.3854   -1.6884   -0.6297 H   0  0  0  0  0  0  0  0  0  0  0  0 
    5.3923   -4.3172    1.1079 H   0  0  0  0  0  0  0  0  0  0  0  0 
    3.7965   -3.5666    0.9625 H   0  0  0  0  0  0  0  0  0  0  0  0 
    4.9982   -2.8721    2.0603 H   0  0  0  0  0  0  0  0  0  0  0  0 
    2.6600    2.2304   -0.0824 H   0  0  0  0  0  0  0  0  0  0  0  0 
    2.7285   -2.0403   -0.3632 H   0  0  0  0  0  0  0  0  0  0  0  0 
    6.3812    0.1443    0.2468 H   0  0  0  0  0  0  0  0  0  0  0  0 
  1  9  1  0  0  0  0 
  1 13  1  0  0  0  0 
  1 14  1  0  0  0  0 
  2 16  1  0  0  0  0 
  2 18  1  0  0  0  0 
  3 12  1  0  0  0  0 
  4 23  1  0  0  0  0 
  5 25  1  0  0  0  0 
  5 27  1  0  0  0  0 
  6 28  1  0  0  0  0 
  6 10  2  0  0  0  0 
  7 11  1  0  0  0  0 
  8 30  1  0  0  0  0 
  9  7  2  0  0  0  0 
  9  6  1  0  0  0  0 
 10  8  1  0  0  0  0 
 10  2  1  0  0  0  0 
 11 12  1  0  0  0  0 
 11  8  2  0  0  0  0 
 12  4  1  0  0  0  0 
 12  5  1  0  0  0  0 
 15  1  1  0  0  0  0 
 17  2  1  0  0  0  0 
 19  3  1  0  0  0  0 
 20  3  1  0  0  0  0 
 21  3  1  0  0  0  0 
 22  4  1  0  0  0  0 
 24  4  1  0  0  0  0 
 26  5  1  0  0  0  0 
 29  7  1  0  0  0  0 
M  END 
>  <HBA> 
0 
 
>  <HBD> 
0 
 
>  <TPSA> 
0.0 
 
>  <cid> 
7378 
 
>  <dipole> 
0.07 
 
>  <excitation_energy_1> 
5.12 
 
>  <excitation_energy_2> 
5.677 
 
>  <excitation_energy_3> 
5.764 
 
>  <excitation_energy_4> 
5.863 
 
>  <homo_energy> 
-6.136 
 
>  <homo_lumo_gap> 
6.354 
 
>  <logP> 
3.601 
 
>  <lumo_energy> 
0.218 
 
>  <melting_point> 
21.78 
 
>  <molecular_refractivity> 
55.64 
 
>  <oscillator_strength_1> 
0.0001 
 
>  <oscillator_strength_2> 
0.0025 
 
>  <oscillator_strength_3> 
0.001 
 
>  <oscillator_strength_4> 
0.0042 
 
>  <open_babel_can_smiles> 
Cc1cc(C)cc(c1)C(C)(C)C 
 
>  <mulliken_charges> 
30 
1   -0.530088 
2   -0.52966 
3   -0.437591 
4   -0.455104 
5   -0.438092 
6   -0.243376 
7   -0.250409 
8   -0.26022 
9   0.188299 
10   0.191238 
11   0.189851 
12   0.018227 
13   0.153734 
14   0.155086 
15   0.162769 
16   0.153478 
17   0.162466 
18   0.154884 
19   0.136096 
20   0.146086 
21   0.142327 
22   0.138988 
23   0.144636 
24   0.144642 
25   0.136042 
26   0.142211 
27   0.146451 
28   0.109163 
29   0.11286 
30   0.115005 
 
>  <lowdin_charges> 
30 
1   -0.442352 
2   -0.443168 
3   -0.438315 
4   -0.444923 
5   -0.436832 
6   -0.185307 
7   -0.182891 
8   -0.187011 
9   0.003739 
10   0.002506 
11   0.003681 
12   0.017646 
13   0.156527 
14   0.157688 
15   0.158728 
16   0.1569 
17   0.160043 
18   0.157212 
19   0.145259 
20   0.151854 
21   0.146907 
22   0.148958 
23   0.148975 
24   0.150182 
25   0.145253 
26   0.146522 
27   0.150828 
28   0.149235 
29   0.149444 
30   0.152712 
 
$$$$ 
 
