PCCDB-ID:  65549 
public computational chemistry database (PCCDB) project, http://pccdb.org 
 
 29 29  0  0  0  0  0  0  0  0999 V2000 
    1.4193    1.9515   -1.0729 C   0  0  0  0  0  0  0  0  0  0  0  0 
    7.2549   -3.1281    3.2450 C   0  0  0  0  0  0  0  0  0  0  0  0 
    2.9261    1.6992   -0.9862 C   0  0  0  0  0  0  0  0  0  0  0  0 
    6.0260   -2.9076    2.3567 C   0  0  0  0  0  0  0  0  0  0  0  0 
    6.6474    1.1436    0.7774 C   0  0  0  0  0  0  0  0  0  0  0  0 
    5.3812    0.0160   -0.5499 C   0  0  0  0  0  0  0  0  0  0  0  0 
    6.1884   -0.9151    0.1052 C   0  0  0  0  0  0  0  0  0  0  0  0 
    4.2842   -0.2131   -1.5338 C   0  0  0  0  0  0  0  0  0  0  0  0 
    6.3281   -2.3839    0.0457 C   0  0  0  0  0  0  0  0  0  0  0  0 
    3.2601    0.5040   -1.7420 N   0  0  0  0  0  0  0  0  0  0  0  0 
    6.3142   -3.2508    0.9718 N   0  0  0  0  0  0  0  0  0  0  0  0 
    5.6895    1.2856   -0.1082 N   0  0  0  0  0  0  0  0  0  0  0  0 
    6.9775   -0.1653    0.9565 N   0  0  0  0  0  0  0  0  0  0  0  0 
    4.3856   -1.3565   -2.2735 O   0  0  0  0  0  0  0  0  0  0  0  0 
    6.5339   -2.8077   -1.2436 O   0  0  0  0  0  0  0  0  0  0  0  0 
    1.1480    2.8702   -0.5386 H   0  0  0  0  0  0  0  0  0  0  0  0 
    0.8603    1.1185   -0.6320 H   0  0  0  0  0  0  0  0  0  0  0  0 
    1.1050    2.0479   -2.1173 H   0  0  0  0  0  0  0  0  0  0  0  0 
    7.0041   -2.9563    4.2972 H   0  0  0  0  0  0  0  0  0  0  0  0 
    8.0749   -2.4486    2.9767 H   0  0  0  0  0  0  0  0  0  0  0  0 
    7.6290   -4.1509    3.1370 H   0  0  0  0  0  0  0  0  0  0  0  0 
    3.2380    1.6399    0.0657 H   0  0  0  0  0  0  0  0  0  0  0  0 
    3.4674    2.5565   -1.4092 H   0  0  0  0  0  0  0  0  0  0  0  0 
    5.6473   -1.8820    2.4745 H   0  0  0  0  0  0  0  0  0  0  0  0 
    5.2278   -3.5822    2.6901 H   0  0  0  0  0  0  0  0  0  0  0  0 
    7.1393    1.9445    1.3129 H   0  0  0  0  0  0  0  0  0  0  0  0 
    7.7083   -0.5323    1.5510 H   0  0  0  0  0  0  0  0  0  0  0  0 
    5.2634   -1.7646   -2.1665 H   0  0  0  0  0  0  0  0  0  0  0  0 
    6.5039   -3.7837   -1.2117 H   0  0  0  0  0  0  0  0  0  0  0  0 
  1  3  1  0  0  0  0 
  1 17  1  0  0  0  0 
  1 16  1  0  0  0  0 
  2 19  1  0  0  0  0 
  3 22  1  0  0  0  0 
  4 24  1  0  0  0  0 
  4 25  1  0  0  0  0 
  4  2  1  0  0  0  0 
  5 13  1  0  0  0  0 
  5 26  1  0  0  0  0 
  6 12  1  0  0  0  0 
  6  7  2  0  0  0  0 
  7 13  1  0  0  0  0 
  8  6  1  0  0  0  0 
  9  7  1  0  0  0  0 
  9 11  2  0  0  0  0 
 10  8  2  0  0  0  0 
 10  3  1  0  0  0  0 
 11  4  1  0  0  0  0 
 12  5  2  0  0  0  0 
 13 27  1  0  0  0  0 
 14 28  1  0  0  0  0 
 14  8  1  0  0  0  0 
 15 29  1  0  0  0  0 
 15  9  1  0  0  0  0 
 18  1  1  0  0  0  0 
 20  2  1  0  0  0  0 
 21  2  1  0  0  0  0 
 23  3  1  0  0  0  0 
M  END 
>  <HBA> 
5 
 
>  <HBD> 
3 
 
>  <TPSA> 
86.88 
 
>  <cid> 
65549 
 
>  <dipole> 
7.48 
 
>  <excitation_energy_1> 
4.047 
 
>  <excitation_energy_2> 
4.437 
 
>  <excitation_energy_3> 
5.083 
 
>  <excitation_energy_4> 
5.241 
 
>  <homo_energy> 
-6.093 
 
>  <homo_lumo_gap> 
4.947 
 
>  <logP> 
0.691 
 
>  <lumo_energy> 
-1.146 
 
>  <melting_point> 
189.92 
 
>  <molecular_refractivity> 
54.19 
 
>  <oscillator_strength_1> 
0.0002 
 
>  <oscillator_strength_2> 
0.1742 
 
>  <oscillator_strength_3> 
0.0222 
 
>  <oscillator_strength_4> 
0.0134 
 
>  <open_babel_can_smiles> 
CC/N=C(\c1[nH]cnc1/C(=N\CC)/O)/O 
 
>  <mulliken_charges> 
29 
1   -0.433018 
2   -0.442076 
3   -0.119758 
4   -0.162128 
5   0.228177 
6   0.123163 
7   0.254131 
8   0.464905 
9   0.42193 
10   -0.42833 
11   -0.431315 
12   -0.465593 
13   -0.604461 
14   -0.629083 
15   -0.604972 
16   0.125201 
17   0.141882 
18   0.150893 
19   0.155298 
20   0.125662 
21   0.170959 
22   0.129836 
23   0.14811 
24   0.14009 
25   0.165669 
26   0.173887 
27   0.349633 
28   0.430959 
29   0.420344 
 
>  <lowdin_charges> 
29 
1   -0.448614 
2   -0.444166 
3   -0.194477 
4   -0.199602 
5   -0.077437 
6   -0.025812 
7   -0.036548 
8   0.121679 
9   0.123802 
10   -0.191316 
11   -0.21445 
12   -0.160461 
13   -0.163753 
14   -0.386376 
15   -0.366376 
16   0.14167 
17   0.148766 
18   0.151667 
19   0.156517 
20   0.136594 
21   0.161977 
22   0.132372 
23   0.149027 
24   0.134097 
25   0.158851 
26   0.177949 
27   0.301726 
28   0.34891 
29   0.363781 
 
$$$$ 
 
