PCCDB-ID:  10714 
public computational chemistry database (PCCDB) project, http://pccdb.org 
 
 24 24  0  0  0  0  0  0  0  0999 V2000 
    1.0044    0.0539    0.0169 C   0  0  0  0  0  0  0  0  0  0  0  0 
    2.5286   -2.4899   -0.1415 C   0  0  0  0  0  0  0  0  0  0  0  0 
    5.2647    2.7015   -0.3266 C   0  0  0  0  0  0  0  0  0  0  0  0 
    3.2063    1.2644   -0.1814 C   0  0  0  0  0  0  0  0  0  0  0  0 
    4.6119   -1.0844   -0.3635 C   0  0  0  0  0  0  0  0  0  0  0  0 
    2.5065    0.0553   -0.1307 C   0  0  0  0  0  0  0  0  0  0  0  0 
    3.2274   -1.1534   -0.2137 C   0  0  0  0  0  0  0  0  0  0  0  0 
    4.5975    1.3467   -0.3074 C   0  0  0  0  0  0  0  0  0  0  0  0 
    5.3087    0.1338   -0.4185 C   0  0  0  0  0  0  0  0  0  0  0  0 
    6.8006    0.1266   -0.5542 C   0  0  0  0  0  0  0  0  0  0  0  0 
    7.5411    0.9572   -0.0815 O   0  0  0  0  0  0  0  0  0  0  0  0 
    7.3299   -0.9138   -1.2636 O   0  0  0  0  0  0  0  0  0  0  0  0 
    0.6106    1.0730    0.0676 H   0  0  0  0  0  0  0  0  0  0  0  0 
    0.6891   -0.4731    0.9267 H   0  0  0  0  0  0  0  0  0  0  0  0 
    0.5160   -0.4535   -0.8250 H   0  0  0  0  0  0  0  0  0  0  0  0 
    3.2431   -3.3151   -0.2178 H   0  0  0  0  0  0  0  0  0  0  0  0 
    1.7944   -2.6086   -0.9487 H   0  0  0  0  0  0  0  0  0  0  0  0 
    1.9810   -2.6109    0.8020 H   0  0  0  0  0  0  0  0  0  0  0  0 
    4.5128    3.4940   -0.3938 H   0  0  0  0  0  0  0  0  0  0  0  0 
    5.9570    2.8065   -1.1678 H   0  0  0  0  0  0  0  0  0  0  0  0 
    5.8610    2.8587    0.5772 H   0  0  0  0  0  0  0  0  0  0  0  0 
    2.6411    2.1919   -0.1162 H   0  0  0  0  0  0  0  0  0  0  0  0 
    5.1699   -2.0187   -0.3926 H   0  0  0  0  0  0  0  0  0  0  0  0 
    6.6145   -1.4030   -1.7015 H   0  0  0  0  0  0  0  0  0  0  0  0 
  1 13  1  0  0  0  0 
  1 14  1  0  0  0  0 
  2 18  1  0  0  0  0 
  3  8  1  0  0  0  0 
  3 21  1  0  0  0  0 
  4  6  1  0  0  0  0 
  4 22  1  0  0  0  0 
  5  7  1  0  0  0  0 
  6  1  1  0  0  0  0 
  7  2  1  0  0  0  0 
  7  6  2  0  0  0  0 
  8  4  2  0  0  0  0 
  9  5  2  0  0  0  0 
  9  8  1  0  0  0  0 
 10  9  1  0  0  0  0 
 10 11  2  0  0  0  0 
 12 10  1  0  0  0  0 
 15  1  1  0  0  0  0 
 16  2  1  0  0  0  0 
 17  2  1  0  0  0  0 
 19  3  1  0  0  0  0 
 20  3  1  0  0  0  0 
 23  5  1  0  0  0  0 
 24 12  1  0  0  0  0 
M  END 
>  <HBA> 
2 
 
>  <HBD> 
1 
 
>  <TPSA> 
37.3 
 
>  <cid> 
10714 
 
>  <dipole> 
5.16 
 
>  <excitation_energy_1> 
4.706 
 
>  <excitation_energy_2> 
4.799 
 
>  <excitation_energy_3> 
5.277 
 
>  <excitation_energy_4> 
5.851 
 
>  <homo_energy> 
-6.596 
 
>  <homo_lumo_gap> 
5.489 
 
>  <logP> 
2.31 
 
>  <lumo_energy> 
-1.108 
 
>  <melting_point> 
109.16 
 
>  <molecular_refractivity> 
48.3 
 
>  <oscillator_strength_1> 
0.0473 
 
>  <oscillator_strength_2> 
0.0091 
 
>  <oscillator_strength_3> 
0.1125 
 
>  <oscillator_strength_4> 
0.1143 
 
>  <open_babel_can_smiles> 
Cc1cc(C(=O)O)c(cc1C)C 
 
>  <mulliken_charges> 
24 
1   -0.536414 
2   -0.535493 
3   -0.512264 
4   -0.256162 
5   -0.2702 
6   0.150823 
7   0.134798 
8   0.151556 
9   0.01244 
10   0.540044 
11   -0.450864 
12   -0.57289 
13   0.161782 
14   0.165911 
15   0.164446 
16   0.157504 
17   0.163055 
18   0.16582 
19   0.143173 
20   0.169756 
21   0.190095 
22   0.124852 
23   0.130761 
24   0.407474 
 
>  <lowdin_charges> 
24 
1   -0.442089 
2   -0.442058 
3   -0.441613 
4   -0.1736 
5   -0.176726 
6   0.008315 
7   -0.011221 
8   0.023677 
9   -0.070812 
10   0.197152 
11   -0.241328 
12   -0.363698 
13   0.159962 
14   0.16304 
15   0.162777 
16   0.159061 
17   0.161104 
18   0.161877 
19   0.151658 
20   0.168138 
21   0.177974 
22   0.156278 
23   0.155014 
24   0.357117 
 
$$$$ 
 
