PCCDB-ID:  10707 
public computational chemistry database (PCCDB) project, http://pccdb.org 
 
 16 16  0  0  0  0  0  0  0  0999 V2000 
   -1.3536   -0.0487   -0.0453 C   0  0  0  0  0  0  0  0  0  0  0  0 
   -0.5956   -1.2146    0.0611 C   0  0  0  0  0  0  0  0  0  0  0  0 
   -0.7215    1.1917   -0.1419 C   0  0  0  0  0  0  0  0  0  0  0  0 
    0.7982   -1.1471    0.0568 C   0  0  0  0  0  0  0  0  0  0  0  0 
    0.6674    1.2590   -0.1351 C   0  0  0  0  0  0  0  0  0  0  0  0 
    1.4274    0.0884   -0.0499 C   0  0  0  0  0  0  0  0  0  0  0  0 
    1.2782    2.6011   -0.1060 N   0  0  0  0  0  0  0  0  0  0  0  0 
    2.8962    0.0898   -0.1824 N   0  0  0  0  0  0  0  0  0  0  0  0 
    0.7495    3.4641   -0.8010 O   0  0  0  0  0  0  0  0  0  0  0  0 
    2.2269    2.7648    0.6524 O   0  0  0  0  0  0  0  0  0  0  0  0 
    3.5136   -0.7252    0.4973 O   0  0  0  0  0  0  0  0  0  0  0  0 
    3.3809    0.8622   -1.0013 O   0  0  0  0  0  0  0  0  0  0  0  0 
   -2.4379   -0.0978   -0.0443 H   0  0  0  0  0  0  0  0  0  0  0  0 
   -1.0841   -2.1809    0.1377 H   0  0  0  0  0  0  0  0  0  0  0  0 
   -1.2867    2.1142   -0.2072 H   0  0  0  0  0  0  0  0  0  0  0  0 
    1.4108   -2.0389    0.1200 H   0  0  0  0  0  0  0  0  0  0  0  0 
  1 13  1  0  0  0  0 
  1  2  2  0  0  0  0 
  2 14  1  0  0  0  0 
  3  5  2  0  0  0  0 
  3  1  1  0  0  0  0 
  4  2  1  0  0  0  0 
  4 16  1  0  0  0  0 
  5  7  1  0  0  0  0 
  5  6  1  0  0  0  0 
  6  4  2  0  0  0  0 
  7 10  2  0  0  0  0 
  8  6  1  0  0  0  0 
  8 11  2  0  0  0  0 
  9  7  2  0  0  0  0 
 12  8  2  0  0  0  0 
 15  3  1  0  0  0  0 
M  END 
>  <HBA> 
0 
 
>  <HBD> 
0 
 
>  <TPSA> 
91.64 
 
>  <cid> 
10707 
 
>  <dipole> 
6.67 
 
>  <excitation_energy_1> 
3.65 
 
>  <excitation_energy_2> 
3.789 
 
>  <excitation_energy_3> 
4.213 
 
>  <excitation_energy_4> 
4.223 
 
>  <homo_energy> 
-7.935 
 
>  <homo_lumo_gap> 
4.901 
 
>  <logP> 
2.549 
 
>  <lumo_energy> 
-3.034 
 
>  <melting_point> 
81.91 
 
>  <molecular_refractivity> 
44.09 
 
>  <oscillator_strength_1> 
0.0149 
 
>  <oscillator_strength_2> 
0.0219 
 
>  <oscillator_strength_3> 
0.0005 
 
>  <oscillator_strength_4> 
0.0022 
 
>  <open_babel_can_smiles> 
O=N(=O)c1ccccc1N(=O)=O 
 
>  <mulliken_charges> 
16 
1   -0.123258 
2   -0.123448 
3   -0.144207 
4   -0.144692 
5   0.272074 
6   0.273081 
7   0.366793 
8   0.366616 
9   -0.365844 
10   -0.364018 
11   -0.366176 
12   -0.364338 
13   0.165965 
14   0.165912 
15   0.192619 
16   0.192921 
 
>  <lowdin_charges> 
16 
1   -0.126892 
2   -0.129488 
3   -0.130121 
4   -0.131064 
5   0.024541 
6   0.026298 
7   0.309948 
8   0.31143 
9   -0.227332 
10   -0.217198 
11   -0.228124 
12   -0.218521 
13   0.174795 
14   0.176718 
15   0.192283 
16   0.192729 
 
$$$$ 
 
