PCCDB-ID:  23372 
public computational chemistry database (PCCDB) project, http://pccdb.org 
 
 17 16  0  0  0  0  0  0  0  0999 V2000 
    0.9799    0.1348    0.3032 C   0  0  0  0  0  0  0  0  0  0  0  0 
    0.1341    0.2264   -0.9659 C   0  0  0  0  0  0  0  0  0  0  0  0 
    3.2332   -0.4043    1.1623 C   0  0  0  0  0  0  0  0  0  0  0  0 
    4.3312   -1.4579    0.9410 C   0  0  0  0  0  0  0  0  0  0  0  0 
    2.3332   -0.3377    0.0069 N   0  0  0  0  0  0  0  0  0  0  0  0 
    5.3323   -1.5157    1.6121 O   0  0  0  0  0  0  0  0  0  0  0  0 
    4.0465   -2.3240   -0.0462 O   0  0  0  0  0  0  0  0  0  0  0  0 
    0.7627    1.4360   -2.2106 S   0  0  0  0  0  0  0  0  0  0  0  0 
    0.5081   -0.5876    0.9826 H   0  0  0  0  0  0  0  0  0  0  0  0 
    0.9761    1.1106    0.8200 H   0  0  0  0  0  0  0  0  0  0  0  0 
   -0.9026    0.4699   -0.7194 H   0  0  0  0  0  0  0  0  0  0  0  0 
    0.1409   -0.7354   -1.4875 H   0  0  0  0  0  0  0  0  0  0  0  0 
    3.7123    0.5474    1.4273 H   0  0  0  0  0  0  0  0  0  0  0  0 
    2.6588   -0.7269    2.0396 H   0  0  0  0  0  0  0  0  0  0  0  0 
    2.7332    0.2727   -0.7069 H   0  0  0  0  0  0  0  0  0  0  0  0 
    3.1839   -2.0122   -0.4171 H   0  0  0  0  0  0  0  0  0  0  0  0 
    0.5142    2.5489   -1.4849 H   0  0  0  0  0  0  0  0  0  0  0  0 
  1 10  1  0  0  0  0 
  1  9  1  0  0  0  0 
  2 11  1  0  0  0  0 
  2  1  1  0  0  0  0 
  3 13  1  0  0  0  0 
  3 14  1  0  0  0  0 
  4  3  1  0  0  0  0 
  4  6  2  0  0  0  0 
  5  1  1  0  0  0  0 
  5  3  1  0  0  0  0 
  7  4  1  0  0  0  0 
  8 17  1  0  0  0  0 
  8  2  1  0  0  0  0 
 12  2  1  0  0  0  0 
 15  5  1  0  0  0  0 
 16  7  1  0  0  0  0 
M  END 
>  <HBA> 
4 
 
>  <HBD> 
3 
 
>  <TPSA> 
88.13 
 
>  <cid> 
23372 
 
>  <dipole> 
5.81 
 
>  <excitation_energy_1> 
5.414 
 
>  <excitation_energy_2> 
5.609 
 
>  <excitation_energy_3> 
5.983 
 
>  <excitation_energy_4> 
6.046 
 
>  <homo_energy> 
-6.893 
 
>  <homo_lumo_gap> 
7.067 
 
>  <logP> 
-0.019 
 
>  <lumo_energy> 
0.174 
 
>  <melting_point> 
99.36 
 
>  <molecular_refractivity> 
33.84 
 
>  <oscillator_strength_1> 
0.01 
 
>  <oscillator_strength_2> 
0.0005 
 
>  <oscillator_strength_3> 
0.0249 
 
>  <oscillator_strength_4> 
0.0284 
 
>  <open_babel_can_smiles> 
SCCNCC(=O)O 
 
>  <mulliken_charges> 
17 
1   -0.10525 
2   -0.430709 
3   -0.235367 
4   0.588227 
5   -0.611423 
6   -0.456841 
7   -0.572377 
8   -0.080073 
9   0.16085 
10   0.135509 
11   0.188835 
12   0.195539 
13   0.175927 
14   0.184701 
15   0.340151 
16   0.420897 
17   0.101406 
 
>  <lowdin_charges> 
17 
1   -0.204163 
2   -0.376096 
3   -0.248791 
4   0.174951 
5   -0.368259 
6   -0.252095 
7   -0.357292 
8   -0.078576 
9   0.155631 
10   0.130898 
11   0.169116 
12   0.176474 
13   0.161868 
14   0.173942 
15   0.273343 
16   0.352534 
17   0.116513 
 
$$$$ 
 
