PCCDB-ID:  8168 
public computational chemistry database (PCCDB) project, http://pccdb.org 
 
 46 45  0  0  0  0  0  0  0  0999 V2000 
    3.7808    8.2202   -2.9767 C   0  0  0  0  0  0  0  0  0  0  0  0 
   12.8785    7.3017    4.9125 C   0  0  0  0  0  0  0  0  0  0  0  0 
   14.8695    7.6361    3.6246 C   0  0  0  0  0  0  0  0  0  0  0  0 
    3.6084    7.3819   -1.7058 C   0  0  0  0  0  0  0  0  0  0  0  0 
    4.6253    6.2385   -1.5906 C   0  0  0  0  0  0  0  0  0  0  0  0 
    4.4360    5.3970   -0.3193 C   0  0  0  0  0  0  0  0  0  0  0  0 
    5.3101    4.1337   -0.1858 C   0  0  0  0  0  0  0  0  0  0  0  0 
    6.7745    4.3276    0.2567 C   0  0  0  0  0  0  0  0  0  0  0  0 
    7.7507    4.8443   -0.8129 C   0  0  0  0  0  0  0  0  0  0  0  0 
    9.2302    4.7842   -0.3946 C   0  0  0  0  0  0  0  0  0  0  0  0 
    9.6107    5.7209    0.7609 C   0  0  0  0  0  0  0  0  0  0  0  0 
   11.1020    5.6671    1.1180 C   0  0  0  0  0  0  0  0  0  0  0  0 
   11.4894    6.6165    2.2597 C   0  0  0  0  0  0  0  0  0  0  0  0 
   12.9813    6.5413    2.6035 C   0  0  0  0  0  0  0  0  0  0  0  0 
   13.4165    7.5418    3.5800 N   0  0  0  0  0  0  0  0  0  0  0  0 
    3.6660    7.6035   -3.8768 H   0  0  0  0  0  0  0  0  0  0  0  0 
    4.7763    8.6797   -3.0173 H   0  0  0  0  0  0  0  0  0  0  0  0 
    3.0402    9.0265   -3.0293 H   0  0  0  0  0  0  0  0  0  0  0  0 
   13.2165    8.0936    5.5897 H   0  0  0  0  0  0  0  0  0  0  0  0 
   13.1962    6.3285    5.3398 H   0  0  0  0  0  0  0  0  0  0  0  0 
   11.7854    7.3240    4.8959 H   0  0  0  0  0  0  0  0  0  0  0  0 
   15.3613    6.7011    3.9622 H   0  0  0  0  0  0  0  0  0  0  0  0 
   15.1659    8.4371    4.3111 H   0  0  0  0  0  0  0  0  0  0  0  0 
   15.2567    7.8813    2.6295 H   0  0  0  0  0  0  0  0  0  0  0  0 
    2.5914    6.9651   -1.6771 H   0  0  0  0  0  0  0  0  0  0  0  0 
    3.6935    8.0329   -0.8238 H   0  0  0  0  0  0  0  0  0  0  0  0 
    5.6379    6.6597   -1.6261 H   0  0  0  0  0  0  0  0  0  0  0  0 
    4.5361    5.5862   -2.4724 H   0  0  0  0  0  0  0  0  0  0  0  0 
    3.3831    5.0811   -0.2830 H   0  0  0  0  0  0  0  0  0  0  0  0 
    4.5852    6.0333    0.5662 H   0  0  0  0  0  0  0  0  0  0  0  0 
    5.2851    3.5711   -1.1313 H   0  0  0  0  0  0  0  0  0  0  0  0 
    4.8311    3.4835    0.5590 H   0  0  0  0  0  0  0  0  0  0  0  0 
    7.1492    3.3539    0.6063 H   0  0  0  0  0  0  0  0  0  0  0  0 
    6.7934    4.9871    1.1356 H   0  0  0  0  0  0  0  0  0  0  0  0 
    7.5039    5.8769   -1.0905 H   0  0  0  0  0  0  0  0  0  0  0  0 
    7.6205    4.2441   -1.7249 H   0  0  0  0  0  0  0  0  0  0  0  0 
    9.8527    5.0308   -1.2666 H   0  0  0  0  0  0  0  0  0  0  0  0 
    9.4867    3.7493   -0.1220 H   0  0  0  0  0  0  0  0  0  0  0  0 
    9.0211    5.4726    1.6540 H   0  0  0  0  0  0  0  0  0  0  0  0 
    9.3390    6.7533    0.4939 H   0  0  0  0  0  0  0  0  0  0  0  0 
   11.6979    5.9077    0.2249 H   0  0  0  0  0  0  0  0  0  0  0  0 
   11.3703    4.6359    1.3924 H   0  0  0  0  0  0  0  0  0  0  0  0 
   10.8807    6.3759    3.1414 H   0  0  0  0  0  0  0  0  0  0  0  0 
   11.2487    7.6523    1.9862 H   0  0  0  0  0  0  0  0  0  0  0  0 
   13.5556    6.7158    1.6843 H   0  0  0  0  0  0  0  0  0  0  0  0 
   13.2336    5.5121    2.9374 H   0  0  0  0  0  0  0  0  0  0  0  0 
  1  4  1  0  0  0  0 
  2 20  1  0  0  0  0 
  2 19  1  0  0  0  0 
  3 22  1  0  0  0  0 
  3 23  1  0  0  0  0 
  4 25  1  0  0  0  0 
  4  5  1  0  0  0  0 
  4 26  1  0  0  0  0 
  5  6  1  0  0  0  0 
  6 29  1  0  0  0  0 
  6  7  1  0  0  0  0 
  6 30  1  0  0  0  0 
  7  8  1  0  0  0  0 
  7 32  1  0  0  0  0 
  8 33  1  0  0  0  0 
  8 34  1  0  0  0  0 
  9 10  1  0  0  0  0 
  9  8  1  0  0  0  0 
 10 38  1  0  0  0  0 
 10 11  1  0  0  0  0 
 11 12  1  0  0  0  0 
 11 39  1  0  0  0  0 
 12 42  1  0  0  0  0 
 12 13  1  0  0  0  0 
 13 14  1  0  0  0  0 
 13 43  1  0  0  0  0 
 14 46  1  0  0  0  0 
 14 15  1  0  0  0  0 
 15  3  1  0  0  0  0 
 15  2  1  0  0  0  0 
 16  1  1  0  0  0  0 
 17  1  1  0  0  0  0 
 18  1  1  0  0  0  0 
 21  2  1  0  0  0  0 
 24  3  1  0  0  0  0 
 27  5  1  0  0  0  0 
 28  5  1  0  0  0  0 
 31  7  1  0  0  0  0 
 35  9  1  0  0  0  0 
 36  9  1  0  0  0  0 
 37 10  1  0  0  0  0 
 40 11  1  0  0  0  0 
 41 12  1  0  0  0  0 
 44 13  1  0  0  0  0 
 45 14  1  0  0  0  0 
M  END 
>  <HBA> 
1 
 
>  <HBD> 
0 
 
>  <TPSA> 
3.24 
 
>  <cid> 
8168 
 
>  <dipole> 
0.54 
 
>  <excitation_energy_1> 
5.342 
 
>  <excitation_energy_2> 
5.632 
 
>  <excitation_energy_3> 
5.775 
 
>  <excitation_energy_4> 
5.86 
 
>  <homo_energy> 
-5.608 
 
>  <homo_lumo_gap> 
7.973 
 
>  <logP> 
4.469 
 
>  <lumo_energy> 
2.365 
 
>  <melting_point> 
-29.24 
 
>  <molecular_refractivity> 
72.31 
 
>  <oscillator_strength_1> 
0.023 
 
>  <oscillator_strength_2> 
0.0069 
 
>  <oscillator_strength_3> 
0.0042 
 
>  <oscillator_strength_4> 
0.0441 
 
>  <open_babel_can_smiles> 
CCCCCCCCCCCCN(C)C 
 
>  <mulliken_charges> 
46 
1   -0.442031 
2   -0.299743 
3   -0.292074 
4   -0.247016 
5   -0.248995 
6   -0.252352 
7   -0.260696 
8   -0.25375 
9   -0.256394 
10   -0.256712 
11   -0.253011 
12   -0.257561 
13   -0.264315 
14   -0.106698 
15   -0.367969 
16   0.140864 
17   0.140748 
18   0.141074 
19   0.146394 
20   0.113612 
21   0.153287 
22   0.114538 
23   0.1457 
24   0.146964 
25   0.129104 
26   0.129742 
27   0.13571 
28   0.124989 
29   0.126453 
30   0.12551 
31   0.125572 
32   0.12718 
33   0.125339 
34   0.131129 
35   0.135527 
36   0.125716 
37   0.126174 
38   0.125318 
39   0.132633 
40   0.127016 
41   0.127332 
42   0.12854 
43   0.131245 
44   0.142002 
45   0.130869 
46   0.103035 
 
>  <lowdin_charges> 
46 
1   -0.444794 
2   -0.35732 
3   -0.356542 
4   -0.271926 
5   -0.278102 
6   -0.275032 
7   -0.277825 
8   -0.278 
9   -0.278007 
10   -0.274972 
11   -0.275424 
12   -0.272666 
13   -0.280018 
14   -0.198094 
15   -0.183814 
16   0.146153 
17   0.145245 
18   0.149363 
19   0.150511 
20   0.117859 
21   0.148595 
22   0.118688 
23   0.149085 
24   0.148051 
25   0.137004 
26   0.138783 
27   0.138807 
28   0.1369 
29   0.138302 
30   0.137523 
31   0.137337 
32   0.144187 
33   0.138884 
34   0.138944 
35   0.138428 
36   0.139887 
37   0.140207 
38   0.13528 
39   0.139604 
40   0.136497 
41   0.137581 
42   0.136931 
43   0.139641 
44   0.145149 
45   0.141707 
46   0.111403 
 
$$$$ 
 
