PCCDB-ID:  55995 
public computational chemistry database (PCCDB) project, http://pccdb.org 
 
 27 26  0  0  0  0  0  0  0  0999 V2000 
    2.0182   -1.5359    0.5345 C   0  0  0  0  0  0  0  0  0  0  0  0 
    1.3245    0.2617   -3.5318 C   0  0  0  0  0  0  0  0  0  0  0  0 
    5.1028    0.4238    1.5018 C   0  0  0  0  0  0  0  0  0  0  0  0 
    2.0584   -0.3787   -2.3337 C   0  0  0  0  0  0  0  0  0  0  0  0 
    3.7358    0.4090    2.2157 C   0  0  0  0  0  0  0  0  0  0  0  0 
   -0.1360    0.1483   -3.4433 C   0  0  0  0  0  0  0  0  0  0  0  0 
    6.2112    0.0714    2.3919 C   0  0  0  0  0  0  0  0  0  0  0  0 
    1.7434    0.3178   -1.0041 C   0  0  0  0  0  0  0  0  0  0  0  0 
    2.5853    0.7094    1.2449 C   0  0  0  0  0  0  0  0  0  0  0  0 
   -1.2897    0.0489   -3.3593 N   0  0  0  0  0  0  0  0  0  0  0  0 
    7.0786   -0.2132    3.1094 N   0  0  0  0  0  0  0  0  0  0  0  0 
    2.5170   -0.2260    0.1169 N   0  0  0  0  0  0  0  0  0  0  0  0 
    2.6476   -1.9461    1.3286 H   0  0  0  0  0  0  0  0  0  0  0  0 
    2.0540   -2.2412   -0.2998 H   0  0  0  0  0  0  0  0  0  0  0  0 
    0.9768   -1.4945    0.9066 H   0  0  0  0  0  0  0  0  0  0  0  0 
    1.6481   -0.2138   -4.4653 H   0  0  0  0  0  0  0  0  0  0  0  0 
    1.5827    1.3255   -3.6149 H   0  0  0  0  0  0  0  0  0  0  0  0 
    5.2980    1.4184    1.0799 H   0  0  0  0  0  0  0  0  0  0  0  0 
    5.0787   -0.2743    0.6577 H   0  0  0  0  0  0  0  0  0  0  0  0 
    3.1365   -0.3172   -2.5190 H   0  0  0  0  0  0  0  0  0  0  0  0 
    1.7984   -1.4415   -2.2927 H   0  0  0  0  0  0  0  0  0  0  0  0 
    3.7248    1.1621    3.0120 H   0  0  0  0  0  0  0  0  0  0  0  0 
    3.5938   -0.5593    2.7076 H   0  0  0  0  0  0  0  0  0  0  0  0 
    0.6545    0.2778   -0.8103 H   0  0  0  0  0  0  0  0  0  0  0  0 
    2.0051    1.3782   -1.1056 H   0  0  0  0  0  0  0  0  0  0  0  0 
    2.7364    1.7153    0.8345 H   0  0  0  0  0  0  0  0  0  0  0  0 
    1.6360    0.7403    1.8140 H   0  0  0  0  0  0  0  0  0  0  0  0 
  1 15  1  0  0  0  0 
  1 13  1  0  0  0  0 
  2  6  1  0  0  0  0 
  2  4  1  0  0  0  0 
  3  5  1  0  0  0  0 
  3  7  1  0  0  0  0 
  4 21  1  0  0  0  0 
  4  8  1  0  0  0  0 
  5 23  1  0  0  0  0 
  5 22  1  0  0  0  0 
  6 10  3  0  0  0  0 
  7 11  3  0  0  0  0 
  8 24  1  0  0  0  0 
  8 12  1  0  0  0  0 
  9 27  1  0  0  0  0 
  9  5  1  0  0  0  0 
 12  1  1  0  0  0  0 
 12  9  1  0  0  0  0 
 14  1  1  0  0  0  0 
 16  2  1  0  0  0  0 
 17  2  1  0  0  0  0 
 18  3  1  0  0  0  0 
 19  3  1  0  0  0  0 
 20  4  1  0  0  0  0 
 25  8  1  0  0  0  0 
 26  9  1  0  0  0  0 
M  END 
>  <HBA> 
3 
 
>  <HBD> 
0 
 
>  <TPSA> 
50.82 
 
>  <cid> 
55995 
 
>  <dipole> 
2.4 
 
>  <excitation_energy_1> 
5.353 
 
>  <excitation_energy_2> 
5.729 
 
>  <excitation_energy_3> 
5.893 
 
>  <excitation_energy_4> 
5.992 
 
>  <homo_energy> 
-6.389 
 
>  <homo_lumo_gap> 
7.059 
 
>  <logP> 
1.526 
 
>  <lumo_energy> 
0.669 
 
>  <melting_point> 
41.88 
 
>  <molecular_refractivity> 
47.77 
 
>  <oscillator_strength_1> 
0.0021 
 
>  <oscillator_strength_2> 
0.0339 
 
>  <oscillator_strength_3> 
0.0046 
 
>  <oscillator_strength_4> 
0.0759 
 
>  <open_babel_can_smiles> 
CN(CCCC#N)CCCC#N 
 
>  <mulliken_charges> 
27 
1   -0.317759 
2   -0.353892 
3   -0.334521 
4   -0.268987 
5   -0.281008 
6   0.354073 
7   0.345547 
8   -0.118454 
9   -0.122312 
10   -0.46889 
11   -0.47542 
12   -0.390105 
13   0.15893 
14   0.158689 
15   0.133569 
16   0.198638 
17   0.192591 
18   0.184331 
19   0.208487 
20   0.159647 
21   0.162212 
22   0.161314 
23   0.164041 
24   0.143998 
25   0.135874 
26   0.139397 
27   0.130008 
 
>  <lowdin_charges> 
27 
1   -0.361901 
2   -0.271315 
3   -0.277484 
4   -0.268204 
5   -0.273471 
6   -0.022596 
7   -0.01811 
8   -0.198554 
9   -0.199969 
10   -0.127405 
11   -0.133619 
12   -0.189128 
13   0.155747 
14   0.154913 
15   0.12841 
16   0.1858 
17   0.177697 
18   0.176317 
19   0.18777 
20   0.155586 
21   0.153865 
22   0.160472 
23   0.155375 
24   0.132391 
25   0.142851 
26   0.144554 
27   0.130011 
 
$$$$ 
 
