PCCDB-ID:  28643 
public computational chemistry database (PCCDB) project, http://pccdb.org 
 
 16 15  0  0  0  0  0  0  0  0999 V2000 
    1.2703    0.2208    1.7266 C   0  0  0  0  0  0  0  0  0  0  0  0 
    6.4381   -0.6094    2.6127 C   0  0  0  0  0  0  0  0  0  0  0  0 
    5.4753   -0.1362    1.5229 C   0  0  0  0  0  0  0  0  0  0  0  0 
    2.6646   -0.2482    1.3580 C   0  0  0  0  0  0  0  0  0  0  0  0 
    5.8661   -1.7160    3.3792 N   0  0  0  0  0  0  0  0  0  0  0  0 
    2.8788   -1.1264    0.5555 O   0  0  0  0  0  0  0  0  0  0  0  0 
    3.9717    0.6685    2.2162 S   0  0  0  0  0  0  0  0  0  0  0  0 
    0.8452    0.7578    0.8708 H   0  0  0  0  0  0  0  0  0  0  0  0 
    1.2618    0.8796    2.5984 H   0  0  0  0  0  0  0  0  0  0  0  0 
    0.6437   -0.6561    1.9157 H   0  0  0  0  0  0  0  0  0  0  0  0 
    6.7547    0.2575    3.2216 H   0  0  0  0  0  0  0  0  0  0  0  0 
    7.3395   -0.9800    2.1071 H   0  0  0  0  0  0  0  0  0  0  0  0 
    5.1116   -0.9796    0.9285 H   0  0  0  0  0  0  0  0  0  0  0  0 
    5.9650    0.5875    0.8654 H   0  0  0  0  0  0  0  0  0  0  0  0 
    5.0507   -1.3837    3.8929 H   0  0  0  0  0  0  0  0  0  0  0  0 
    6.5359   -2.0309    4.0787 H   0  0  0  0  0  0  0  0  0  0  0  0 
  1 10  1  0  0  0  0 
  1  9  1  0  0  0  0 
  2 11  1  0  0  0  0 
  2  5  1  0  0  0  0 
  3  7  1  0  0  0  0 
  3  2  1  0  0  0  0 
  4  1  1  0  0  0  0 
  4  7  1  0  0  0  0 
  5 15  1  0  0  0  0 
  5 16  1  0  0  0  0 
  6  4  2  0  0  0  0 
  8  1  1  0  0  0  0 
 12  2  1  0  0  0  0 
 13  3  1  0  0  0  0 
 14  3  1  0  0  0  0 
M  END 
>  <HBA> 
3 
 
>  <HBD> 
1 
 
>  <TPSA> 
68.39 
 
>  <cid> 
28643 
 
>  <dipole> 
2.22 
 
>  <excitation_energy_1> 
4.823 
 
>  <excitation_energy_2> 
5.237 
 
>  <excitation_energy_3> 
5.612 
 
>  <excitation_energy_4> 
5.666 
 
>  <homo_energy> 
-6.368 
 
>  <homo_lumo_gap> 
5.935 
 
>  <logP> 
0.925 
 
>  <lumo_energy> 
-0.433 
 
>  <melting_point> 
59.38 
 
>  <molecular_refractivity> 
31.84 
 
>  <oscillator_strength_1> 
0.0 
 
>  <oscillator_strength_2> 
0.0104 
 
>  <oscillator_strength_3> 
0.045 
 
>  <oscillator_strength_4> 
0.0052 
 
>  <open_babel_can_smiles> 
CC(=O)SCCN 
 
>  <mulliken_charges> 
16 
1   -0.513102 
2   -0.134836 
3   -0.431656 
4   0.273069 
5   -0.711447 
6   -0.406661 
7   0.075616 
8   0.19406 
9   0.17325 
10   0.192309 
11   0.125065 
12   0.151873 
13   0.227651 
14   0.176889 
15   0.30967 
16   0.29825 
 
>  <lowdin_charges> 
16 
1   -0.46384 
2   -0.205745 
3   -0.381944 
4   0.048961 
5   -0.559362 
6   -0.230089 
7   0.103359 
8   0.185001 
9   0.171376 
10   0.182631 
11   0.122881 
12   0.151115 
13   0.191143 
14   0.167664 
15   0.259101 
16   0.257748 
 
$$$$ 
 
