PCCDB-ID:  14921 
public computational chemistry database (PCCDB) project, http://pccdb.org 
 
 23 23  0  0  0  0  0  0  0  0999 V2000 
    0.9383    0.0241   -0.2613 C   0  0  0  0  0  0  0  0  0  0  0  0 
    5.3006    2.5970   -0.1215 C   0  0  0  0  0  0  0  0  0  0  0  0 
    6.7778   -2.4845    0.3499 C   0  0  0  0  0  0  0  0  0  0  0  0 
    3.1596    1.2427   -0.1608 C   0  0  0  0  0  0  0  0  0  0  0  0 
    3.1614   -1.1535   -0.0083 C   0  0  0  0  0  0  0  0  0  0  0  0 
    5.2463    0.0731    0.0623 C   0  0  0  0  0  0  0  0  0  0  0  0 
    2.4449    0.0371   -0.1372 C   0  0  0  0  0  0  0  0  0  0  0  0 
    4.5557    1.2826   -0.0662 C   0  0  0  0  0  0  0  0  0  0  0  0 
    5.2612   -2.4664    0.2348 C   0  0  0  0  0  0  0  0  0  0  0  0 
    4.5593   -1.1483    0.0924 C   0  0  0  0  0  0  0  0  0  0  0  0 
    4.6292   -3.5122    0.2550 O   0  0  0  0  0  0  0  0  0  0  0  0 
    0.5139    1.0206   -0.1024 H   0  0  0  0  0  0  0  0  0  0  0  0 
    0.4837   -0.6580    0.4657 H   0  0  0  0  0  0  0  0  0  0  0  0 
    0.6256   -0.3130   -1.2581 H   0  0  0  0  0  0  0  0  0  0  0  0 
    4.6448    3.4391    0.1220 H   0  0  0  0  0  0  0  0  0  0  0  0 
    5.7108    2.7808   -1.1233 H   0  0  0  0  0  0  0  0  0  0  0  0 
    6.1426    2.6116    0.5796 H   0  0  0  0  0  0  0  0  0  0  0  0 
    7.1185   -1.8910    1.2065 H   0  0  0  0  0  0  0  0  0  0  0  0 
    7.2445   -2.0600   -0.5472 H   0  0  0  0  0  0  0  0  0  0  0  0 
    7.1058   -3.5182    0.4715 H   0  0  0  0  0  0  0  0  0  0  0  0 
    2.6113    2.1788   -0.2524 H   0  0  0  0  0  0  0  0  0  0  0  0 
    2.6513   -2.1119    0.0213 H   0  0  0  0  0  0  0  0  0  0  0  0 
    6.3296    0.0929    0.1432 H   0  0  0  0  0  0  0  0  0  0  0  0 
  1  7  1  0  0  0  0 
  1 12  1  0  0  0  0 
  1 13  1  0  0  0  0 
  2  8  1  0  0  0  0 
  2 15  1  0  0  0  0 
  2 17  1  0  0  0  0 
  3 20  1  0  0  0  0 
  3 18  1  0  0  0  0 
  4  7  2  0  0  0  0 
  4  8  1  0  0  0  0 
  5 22  1  0  0  0  0 
  5 10  2  0  0  0  0 
  6 10  1  0  0  0  0 
  6 23  1  0  0  0  0 
  7  5  1  0  0  0  0 
  8  6  2  0  0  0  0 
  9 11  2  0  0  0  0 
  9  3  1  0  0  0  0 
 10  9  1  0  0  0  0 
 14  1  1  0  0  0  0 
 16  2  1  0  0  0  0 
 19  3  1  0  0  0  0 
 21  4  1  0  0  0  0 
M  END 
>  <HBA> 
1 
 
>  <HBD> 
0 
 
>  <TPSA> 
17.07 
 
>  <cid> 
14921 
 
>  <dipole> 
3.21 
 
>  <excitation_energy_1> 
3.755 
 
>  <excitation_energy_2> 
4.404 
 
>  <excitation_energy_3> 
5.005 
 
>  <excitation_energy_4> 
5.585 
 
>  <homo_energy> 
-6.558 
 
>  <homo_lumo_gap> 
5.222 
 
>  <logP> 
2.506 
 
>  <lumo_energy> 
-1.336 
 
>  <melting_point> 
47.89 
 
>  <molecular_refractivity> 
46.57 
 
>  <oscillator_strength_1> 
0.0001 
 
>  <oscillator_strength_2> 
0.0264 
 
>  <oscillator_strength_3> 
0.1948 
 
>  <oscillator_strength_4> 
0.0001 
 
>  <open_babel_can_smiles> 
Cc1cc(C)cc(c1)C(=O)C 
 
>  <mulliken_charges> 
23 
1   -0.529272 
2   -0.530619 
3   -0.541928 
4   -0.230362 
5   -0.222298 
6   -0.244916 
7   0.184239 
8   0.185164 
9   0.407803 
10   0.085445 
11   -0.454713 
12   0.154197 
13   0.165626 
14   0.168666 
15   0.158137 
16   0.167481 
17   0.159506 
18   0.169062 
19   0.170301 
20   0.179859 
21   0.119935 
22   0.154679 
23   0.124009 
 
>  <lowdin_charges> 
23 
1   -0.442557 
2   -0.442648 
3   -0.477227 
4   -0.164038 
5   -0.144177 
6   -0.164422 
7   0.004065 
8   0.001 
9   0.164392 
10   -0.049214 
11   -0.245459 
12   0.156001 
13   0.164215 
14   0.163664 
15   0.159219 
16   0.162412 
17   0.159943 
18   0.169272 
19   0.170155 
20   0.173241 
21   0.153971 
22   0.172951 
23   0.155239 
 
$$$$ 
 
