PCCDB-ID:  69601 
public computational chemistry database (PCCDB) project, http://pccdb.org 
 
 17 17  0  0  0  0  0  0  0  0999 V2000 
    0.9785   -0.0801   -0.0227 C   0  0  0  0  0  0  0  0  0  0  0  0 
    2.4370   -0.0677   -0.0758 C   0  0  0  0  0  0  0  0  0  0  0  0 
    7.8882   -0.0224   -0.2529 C   0  0  0  0  0  0  0  0  0  0  0  0 
    7.1971   -1.2362   -0.2356 C   0  0  0  0  0  0  0  0  0  0  0  0 
    7.1768    1.1794   -0.2260 C   0  0  0  0  0  0  0  0  0  0  0  0 
    3.6486   -0.0578   -0.1174 C   0  0  0  0  0  0  0  0  0  0  0  0 
    5.8050   -1.2522   -0.1920 C   0  0  0  0  0  0  0  0  0  0  0  0 
    5.7847    1.1715   -0.1821 C   0  0  0  0  0  0  0  0  0  0  0  0 
    5.0778   -0.0465   -0.1643 C   0  0  0  0  0  0  0  0  0  0  0  0 
    0.6078   -0.9429    0.5440 H   0  0  0  0  0  0  0  0  0  0  0  0 
    0.5423   -0.1323   -1.0282 H   0  0  0  0  0  0  0  0  0  0  0  0 
    0.5906    0.8256    0.4593 H   0  0  0  0  0  0  0  0  0  0  0  0 
    8.9743   -0.0132   -0.2875 H   0  0  0  0  0  0  0  0  0  0  0  0 
    7.7446   -2.1748   -0.2557 H   0  0  0  0  0  0  0  0  0  0  0  0 
    7.7081    2.1273   -0.2384 H   0  0  0  0  0  0  0  0  0  0  0  0 
    5.2659   -2.1945   -0.1768 H   0  0  0  0  0  0  0  0  0  0  0  0 
    5.2295    2.1042   -0.1594 H   0  0  0  0  0  0  0  0  0  0  0  0 
  1 12  1  0  0  0  0 
  1 10  1  0  0  0  0 
  2  1  1  0  0  0  0 
  3  4  2  0  0  0  0 
  3  5  1  0  0  0  0 
  4  7  1  0  0  0  0 
  5  8  2  0  0  0  0 
  6  2  3  0  0  0  0 
  7 16  1  0  0  0  0 
  7  9  2  0  0  0  0 
  8  9  1  0  0  0  0 
  8 17  1  0  0  0  0 
  9  6  1  0  0  0  0 
 11  1  1  0  0  0  0 
 13  3  1  0  0  0  0 
 14  4  1  0  0  0  0 
 15  5  1  0  0  0  0 
M  END 
>  <HBA> 
0 
 
>  <HBD> 
0 
 
>  <TPSA> 
0.0 
 
>  <cid> 
69601 
 
>  <dipole> 
0.42 
 
>  <excitation_energy_1> 
4.896 
 
>  <excitation_energy_2> 
4.992 
 
>  <excitation_energy_3> 
5.106 
 
>  <excitation_energy_4> 
5.605 
 
>  <homo_energy> 
-5.962 
 
>  <homo_lumo_gap> 
5.396 
 
>  <logP> 
2.058 
 
>  <lumo_energy> 
-0.566 
 
>  <melting_point> 
23.17 
 
>  <molecular_refractivity> 
39.18 
 
>  <oscillator_strength_1> 
0.0008 
 
>  <oscillator_strength_2> 
0.3953 
 
>  <oscillator_strength_3> 
0.0001 
 
>  <oscillator_strength_4> 
0.0028 
 
>  <open_babel_can_smiles> 
CC#Cc1ccccc1 
 
>  <mulliken_charges> 
17 
1   -0.571497 
2   -0.119306 
3   -0.125 
4   -0.133332 
5   -0.133173 
6   0.13643 
7   -0.137014 
8   -0.137086 
9   0.007581 
10   0.181171 
11   0.181194 
12   0.181124 
13   0.130643 
14   0.131604 
15   0.131578 
16   0.137538 
17   0.137544 
 
>  <lowdin_charges> 
17 
1   -0.4241 
2   -0.06743 
3   -0.152966 
4   -0.155836 
5   -0.155714 
6   -0.081196 
7   -0.148481 
8   -0.148583 
9   0.007553 
10   0.174986 
11   0.173676 
12   0.174734 
13   0.156403 
14   0.159276 
15   0.159181 
16   0.164203 
17   0.164293 
 
$$$$ 
 
