PCCDB-ID:  11039 
public computational chemistry database (PCCDB) project, http://pccdb.org 
 
 17 16  0  0  0  0  0  0  0  0999 V2000 
    0.6512    0.1369   -0.6774 C   0  0  0  0  0  0  0  0  0  0  0  0 
    3.0665    0.5428   -1.3586 C   0  0  0  0  0  0  0  0  0  0  0  0 
    2.8431    0.8795    3.3026 C   0  0  0  0  0  0  0  0  0  0  0  0 
    2.1264    0.0532   -0.2445 C   0  0  0  0  0  0  0  0  0  0  0  0 
    2.3294    0.9021    1.0021 C   0  0  0  0  0  0  0  0  0  0  0  0 
    2.2115    2.1089    1.0442 O   0  0  0  0  0  0  0  0  0  0  0  0 
    2.6519    0.1496    2.0793 O   0  0  0  0  0  0  0  0  0  0  0  0 
    0.4895   -0.4542   -1.5855 H   0  0  0  0  0  0  0  0  0  0  0  0 
    0.3739    1.1755   -0.8850 H   0  0  0  0  0  0  0  0  0  0  0  0 
   -0.0179   -0.2473    0.1008 H   0  0  0  0  0  0  0  0  0  0  0  0 
    2.9070   -0.0394   -2.2728 H   0  0  0  0  0  0  0  0  0  0  0  0 
    4.1186    0.4395   -1.0702 H   0  0  0  0  0  0  0  0  0  0  0  0 
    2.8763    1.5979   -1.5791 H   0  0  0  0  0  0  0  0  0  0  0  0 
    3.0823    0.1296    4.0574 H   0  0  0  0  0  0  0  0  0  0  0  0 
    1.9334    1.4223    3.5730 H   0  0  0  0  0  0  0  0  0  0  0  0 
    3.6625    1.5959    3.1987 H   0  0  0  0  0  0  0  0  0  0  0  0 
    2.3689   -0.9836    0.0111 H   0  0  0  0  0  0  0  0  0  0  0  0 
  1  4  1  0  0  0  0 
  1 10  1  0  0  0  0 
  2 12  1  0  0  0  0 
  2  4  1  0  0  0  0 
  3 15  1  0  0  0  0 
  3 14  1  0  0  0  0 
  4 17  1  0  0  0  0 
  4  5  1  0  0  0  0 
  5  6  2  0  0  0  0 
  5  7  1  0  0  0  0 
  7  3  1  0  0  0  0 
  8  1  1  0  0  0  0 
  9  1  1  0  0  0  0 
 11  2  1  0  0  0  0 
 13  2  1  0  0  0  0 
 16  3  1  0  0  0  0 
M  END 
>  <HBA> 
2 
 
>  <HBD> 
0 
 
>  <TPSA> 
26.3 
 
>  <cid> 
11039 
 
>  <dipole> 
1.59 
 
>  <excitation_energy_1> 
5.778 
 
>  <excitation_energy_2> 
6.896 
 
>  <excitation_energy_3> 
7.381 
 
>  <excitation_energy_4> 
7.666 
 
>  <homo_energy> 
-7.233 
 
>  <homo_lumo_gap> 
7.646 
 
>  <logP> 
0.815 
 
>  <lumo_energy> 
0.414 
 
>  <melting_point> 
-13.46 
 
>  <molecular_refractivity> 
27.43 
 
>  <oscillator_strength_1> 
0.0015 
 
>  <oscillator_strength_2> 
0.0049 
 
>  <oscillator_strength_3> 
0.0016 
 
>  <oscillator_strength_4> 
0.0048 
 
>  <open_babel_can_smiles> 
COC(=O)C(C)C 
 
>  <mulliken_charges> 
17 
1   -0.450443 
2   -0.449059 
3   -0.219465 
4   -0.153025 
5   0.618739 
6   -0.486534 
7   -0.448503 
8   0.148554 
9   0.168208 
10   0.151439 
11   0.146379 
12   0.150328 
13   0.169624 
14   0.163246 
15   0.170051 
16   0.170026 
17   0.150434 
 
>  <lowdin_charges> 
17 
1   -0.438383 
2   -0.436213 
3   -0.281772 
4   -0.140985 
5   0.19314 
6   -0.269996 
7   -0.191546 
8   0.153196 
9   0.159846 
10   0.154436 
11   0.152245 
12   0.151717 
13   0.160525 
14   0.160872 
15   0.159783 
16   0.15972 
17   0.153414 
 
$$$$ 
 
