PCCDB-ID:  21181 
public computational chemistry database (PCCDB) project, http://pccdb.org 
 
 34 35  0  0  1  0  0  0  0  0999 V2000 
    0.7728    3.7129    0.7529 C   0  0  0  0  0  0  0  0  0  0  0  0 
    2.7472    0.5448    1.3366 C   0  0  0  0  0  0  0  0  0  0  0  0 
    0.6945    9.3800   -0.7731 C   0  0  0  0  0  0  0  0  0  0  0  0 
    1.9426    7.5041   -3.4558 C   0  0  0  0  0  0  0  0  0  0  0  0 
    1.8204    6.3399   -4.2016 C   0  0  0  0  0  0  0  0  0  0  0  0 
    2.9159    3.0700   -0.4956 C   0  0  0  0  0  0  0  0  0  0  0  0 
    2.4957    6.2481   -1.4386 C   0  0  0  0  0  0  0  0  0  0  0  0 
    2.3306    2.9599   -2.9948 C   0  0  0  0  0  0  0  0  0  0  0  0 
    1.7032    2.5679    0.3449 C   0  0  1  0  0  0  0  0  0  0  0  0 
    2.5660    3.6579   -1.8355 C   0  0  0  0  0  0  0  0  0  0  0  0 
    2.2700    7.4651   -2.0786 C   0  0  0  0  0  0  0  0  0  0  0  0 
    2.3884    5.0527   -2.1695 C   0  0  0  0  0  0  0  0  0  0  0  0 
    2.0465    5.1227   -3.5489 C   0  0  0  0  0  0  0  0  0  0  0  0 
    2.0824    1.8237    1.5502 N   0  0  0  0  0  0  0  0  0  0  0  0 
    2.0144    3.8311   -4.0239 N   0  0  0  0  0  0  0  0  0  0  0  0 
    2.4485    8.9993   -1.1604 S   0  0  0  0  0  0  0  0  0  0  0  0 
    0.4211    4.2729   -0.1187 H   0  0  0  0  0  0  0  0  0  0  0  0 
    1.2951    4.4180    1.4141 H   0  0  0  0  0  0  0  0  0  0  0  0 
   -0.0901    3.3201    1.2988 H   0  0  0  0  0  0  0  0  0  0  0  0 
    2.9330    0.0722    2.3074 H   0  0  0  0  0  0  0  0  0  0  0  0 
    3.7100    0.5849    0.7953 H   0  0  0  0  0  0  0  0  0  0  0  0 
    2.0789   -0.1161    0.7711 H   0  0  0  0  0  0  0  0  0  0  0  0 
    0.6920   10.3210   -0.2153 H   0  0  0  0  0  0  0  0  0  0  0  0 
    0.2507    8.5950   -0.1552 H   0  0  0  0  0  0  0  0  0  0  0  0 
    0.1083    9.5062   -1.6873 H   0  0  0  0  0  0  0  0  0  0  0  0 
    1.7930    8.4680   -3.9325 H   0  0  0  0  0  0  0  0  0  0  0  0 
    1.5685    6.3776   -5.2584 H   0  0  0  0  0  0  0  0  0  0  0  0 
    3.6033    2.2287   -0.6455 H   0  0  0  0  0  0  0  0  0  0  0  0 
    3.4665    3.8112    0.1014 H   0  0  0  0  0  0  0  0  0  0  0  0 
    2.7539    6.2349   -0.3840 H   0  0  0  0  0  0  0  0  0  0  0  0 
    2.3704    1.8942   -3.1771 H   0  0  0  0  0  0  0  0  0  0  0  0 
    1.1360    1.8667   -0.2844 H   0  0  0  0  0  0  0  0  0  0  0  0 
    2.6555    2.4180    2.1481 H   0  0  0  0  0  0  0  0  0  0  0  0 
    1.8155    3.5615   -4.9744 H   0  0  0  0  0  0  0  0  0  0  0  0 
  1 19  1  0  0  0  0 
  1 18  1  0  0  0  0 
  2 14  1  0  0  0  0 
  2 20  1  0  0  0  0 
  3 23  1  0  0  0  0 
  3 24  1  0  0  0  0 
  4 11  2  0  0  0  0 
  5 13  2  0  0  0  0 
  5  4  1  0  0  0  0 
  6 29  1  0  0  0  0 
  6  9  1  0  0  0  0 
  7 30  1  0  0  0  0 
  8 10  2  0  0  0  0 
  9 32  1  6  0  0  0 
  9  1  1  0  0  0  0 
  9 14  1  0  0  0  0 
 10  6  1  0  0  0  0 
 11  7  1  0  0  0  0 
 11 16  1  0  0  0  0 
 12 10  1  0  0  0  0 
 12  7  2  0  0  0  0 
 13 12  1  0  0  0  0 
 14 33  1  0  0  0  0 
 15 13  1  0  0  0  0 
 15  8  1  0  0  0  0 
 16  3  1  0  0  0  0 
 17  1  1  0  0  0  0 
 21  2  1  0  0  0  0 
 22  2  1  0  0  0  0 
 25  3  1  0  0  0  0 
 26  4  1  0  0  0  0 
 27  5  1  0  0  0  0 
 28  6  1  0  0  0  0 
 31  8  1  0  0  0  0 
 34 15  1  0  0  0  0 
M  END 
>  <HBA> 
2 
 
>  <HBD> 
2 
 
>  <TPSA> 
53.12 
 
>  <cid> 
21181 
 
>  <dipole> 
3.55 
 
>  <excitation_energy_1> 
4.342 
 
>  <excitation_energy_2> 
4.452 
 
>  <excitation_energy_3> 
4.66 
 
>  <excitation_energy_4> 
4.693 
 
>  <homo_energy> 
-5.325 
 
>  <homo_lumo_gap> 
5.012 
 
>  <logP> 
3.431 
 
>  <lumo_energy> 
-0.313 
 
>  <melting_point> 
138.77 
 
>  <molecular_refractivity> 
72.21 
 
>  <oscillator_strength_1> 
0.0406 
 
>  <oscillator_strength_2> 
0.0148 
 
>  <oscillator_strength_3> 
0.0011 
 
>  <oscillator_strength_4> 
0.0015 
 
>  <open_babel_can_smiles> 
CN[C@H](Cc1c[nH]c2c1cc(SC)cc2)C 
 
>  <mulliken_charges> 
34 
1   -0.447559 
2   -0.302176 
3   -0.573581 
4   -0.164964 
5   -0.151567 
6   -0.360666 
7   -0.227023 
8   -0.004989 
9   0.049414 
10   0.080314 
11   -0.10102 
12   0.086627 
13   0.313665 
14   -0.534209 
15   -0.689857 
16   0.065433 
17   0.156541 
18   0.129965 
19   0.154131 
20   0.149283 
21   0.121996 
22   0.147835 
23   0.175964 
24   0.179733 
25   0.177411 
26   0.13901 
27   0.12459 
28   0.143469 
29   0.133282 
30   0.143158 
31   0.147286 
32   0.123167 
33   0.287521 
34   0.327817 
 
>  <lowdin_charges> 
34 
1   -0.452563 
2   -0.362008 
3   -0.545071 
4   -0.163137 
5   -0.183501 
6   -0.291388 
7   -0.156824 
8   -0.135824 
9   -0.0621 
10   -0.057517 
11   -0.146156 
12   -0.037818 
13   0.032665 
14   -0.36096 
15   -0.195405 
16   0.115731 
17   0.159053 
18   0.143292 
19   0.157439 
20   0.151119 
21   0.119308 
22   0.148259 
23   0.171135 
24   0.164219 
25   0.161972 
26   0.164534 
27   0.155721 
28   0.152452 
29   0.147196 
30   0.163987 
31   0.162118 
32   0.137662 
33   0.251623 
34   0.290789 
 
$$$$ 
 
