PCCDB-ID:  66286 
public computational chemistry database (PCCDB) project, http://pccdb.org 
 
 20 20  0  0  0  0  0  0  0  0999 V2000 
    0.9516   -0.8324   -0.1086 C   0  0  0  0  0  0  0  0  0  0  0  0 
    4.7183   -1.4326    0.0823 C   0  0  0  0  0  0  0  0  0  0  0  0 
    5.2229   -0.1339    0.1104 C   0  0  0  0  0  0  0  0  0  0  0  0 
    3.3401   -1.6375    0.0094 C   0  0  0  0  0  0  0  0  0  0  0  0 
    4.3395    0.9444    0.0631 C   0  0  0  0  0  0  0  0  0  0  0  0 
    2.0303    1.9498   -0.1079 C   0  0  0  0  0  0  0  0  0  0  0  0 
    1.6749    2.2173   -1.5632 C   0  0  0  0  0  0  0  0  0  0  0  0 
    2.4391   -0.5671   -0.0409 C   0  0  0  0  0  0  0  0  0  0  0  0 
    2.9552    0.7475   -0.0096 C   0  0  0  0  0  0  0  0  0  0  0  0 
    0.5614    2.1271   -2.0305 O   0  0  0  0  0  0  0  0  0  0  0  0 
    0.7531   -1.9040   -0.2045 H   0  0  0  0  0  0  0  0  0  0  0  0 
    0.4780   -0.3225   -0.9544 H   0  0  0  0  0  0  0  0  0  0  0  0 
    0.4399   -0.4820    0.7978 H   0  0  0  0  0  0  0  0  0  0  0  0 
    5.3918   -2.2847    0.1191 H   0  0  0  0  0  0  0  0  0  0  0  0 
    6.2934    0.0417    0.1718 H   0  0  0  0  0  0  0  0  0  0  0  0 
    2.9496   -2.6524   -0.0094 H   0  0  0  0  0  0  0  0  0  0  0  0 
    4.7290    1.9598    0.0916 H   0  0  0  0  0  0  0  0  0  0  0  0 
    1.1026    1.8132    0.4547 H   0  0  0  0  0  0  0  0  0  0  0  0 
    2.5447    2.8388    0.2810 H   0  0  0  0  0  0  0  0  0  0  0  0 
    2.5435    2.4855   -2.2057 H   0  0  0  0  0  0  0  0  0  0  0  0 
  1  8  1  0  0  0  0 
  1 13  1  0  0  0  0 
  2  3  1  0  0  0  0 
  2 14  1  0  0  0  0 
  3 15  1  0  0  0  0 
  4  2  2  0  0  0  0 
  5 17  1  0  0  0  0 
  5  3  2  0  0  0  0 
  6  9  1  0  0  0  0 
  6 19  1  0  0  0  0 
  6 18  1  0  0  0  0 
  7  6  1  0  0  0  0 
  8  9  2  0  0  0  0 
  8  4  1  0  0  0  0 
  9  5  1  0  0  0  0 
 10  7  2  0  0  0  0 
 11  1  1  0  0  0  0 
 12  1  1  0  0  0  0 
 16  4  1  0  0  0  0 
 20  7  1  0  0  0  0 
M  END 
>  <HBA> 
1 
 
>  <HBD> 
0 
 
>  <TPSA> 
17.07 
 
>  <cid> 
66286 
 
>  <dipole> 
2.33 
 
>  <excitation_energy_1> 
4.116 
 
>  <excitation_energy_2> 
4.889 
 
>  <excitation_energy_3> 
5.191 
 
>  <excitation_energy_4> 
5.427 
 
>  <homo_energy> 
-6.438 
 
>  <homo_lumo_gap> 
5.573 
 
>  <logP> 
1.736 
 
>  <lumo_energy> 
-0.865 
 
>  <melting_point> 
43.05 
 
>  <molecular_refractivity> 
41.38 
 
>  <oscillator_strength_1> 
0.0128 
 
>  <oscillator_strength_2> 
0.0155 
 
>  <oscillator_strength_3> 
0.0353 
 
>  <oscillator_strength_4> 
0.0055 
 
>  <open_babel_can_smiles> 
O=CCc1ccccc1C 
 
>  <mulliken_charges> 
20 
1   -0.547114 
2   -0.123309 
3   -0.128846 
4   -0.183836 
5   -0.182324 
6   -0.416179 
7   0.265276 
8   0.143106 
9   0.091143 
10   -0.38221 
11   0.155748 
12   0.18561 
13   0.162865 
14   0.131095 
15   0.130801 
16   0.126107 
17   0.123918 
18   0.171315 
19   0.164204 
20   0.112631 
 
>  <lowdin_charges> 
20 
1   -0.448893 
2   -0.155193 
3   -0.157201 
4   -0.163403 
5   -0.16594 
6   -0.30727 
7   0.059579 
8   0.000175 
9   -0.016786 
10   -0.218699 
11   0.156932 
12   0.172453 
13   0.161073 
14   0.159641 
15   0.156955 
16   0.15547 
17   0.153266 
18   0.168601 
19   0.168306 
20   0.120932 
 
$$$$ 
 
