PCCDB-ID:  10276 
public computational chemistry database (PCCDB) project, http://pccdb.org 
 
 27 27  0  0  0  0  0  0  0  0999 V2000 
    1.6685    0.5525   -0.7118 C   0  0  0  0  0  0  0  0  0  0  0  0 
    5.9456   -4.4858    2.6262 C   0  0  0  0  0  0  0  0  0  0  0  0 
    1.4931   -4.4140   -0.4892 C   0  0  0  0  0  0  0  0  0  0  0  0 
    4.9595   -1.9823    1.7639 C   0  0  0  0  0  0  0  0  0  0  0  0 
    2.6869   -1.9374    0.1685 C   0  0  0  0  0  0  0  0  0  0  0  0 
    4.4621   -0.7391    1.3285 C   0  0  0  0  0  0  0  0  0  0  0  0 
    3.3126   -0.7349    0.5233 C   0  0  0  0  0  0  0  0  0  0  0  0 
    4.3586   -3.1832    1.4260 C   0  0  0  0  0  0  0  0  0  0  0  0 
    3.1980   -3.1580    0.6117 C   0  0  0  0  0  0  0  0  0  0  0  0 
    5.2332    0.4670    1.7861 C   0  0  0  0  0  0  0  0  0  0  0  0 
    6.2156    0.3696    2.4921 O   0  0  0  0  0  0  0  0  0  0  0  0 
    4.8046    1.6828    1.3877 O   0  0  0  0  0  0  0  0  0  0  0  0 
    2.8324    0.4884    0.1029 O   0  0  0  0  0  0  0  0  0  0  0  0 
    4.7858   -4.4185    1.8101 O   0  0  0  0  0  0  0  0  0  0  0  0 
    2.6585   -4.3667    0.3183 O   0  0  0  0  0  0  0  0  0  0  0  0 
    1.4968    1.6130   -0.9015 H   0  0  0  0  0  0  0  0  0  0  0  0 
    0.7995    0.1292   -0.1942 H   0  0  0  0  0  0  0  0  0  0  0  0 
    1.8222    0.0314   -1.6643 H   0  0  0  0  0  0  0  0  0  0  0  0 
    6.1150   -5.5476    2.8132 H   0  0  0  0  0  0  0  0  0  0  0  0 
    5.7974   -3.9657    3.5816 H   0  0  0  0  0  0  0  0  0  0  0  0 
    6.8211   -4.0601    2.1185 H   0  0  0  0  0  0  0  0  0  0  0  0 
    1.2446   -5.4717   -0.5890 H   0  0  0  0  0  0  0  0  0  0  0  0 
    1.6750   -3.9887   -1.4852 H   0  0  0  0  0  0  0  0  0  0  0  0 
    0.6537   -3.8872   -0.0164 H   0  0  0  0  0  0  0  0  0  0  0  0 
    5.8465   -1.9485    2.3837 H   0  0  0  0  0  0  0  0  0  0  0  0 
    1.8018   -1.9257   -0.4509 H   0  0  0  0  0  0  0  0  0  0  0  0 
    4.0078    1.5815    0.8298 H   0  0  0  0  0  0  0  0  0  0  0  0 
  1 17  1  0  0  0  0 
  1 13  1  0  0  0  0 
  2 19  1  0  0  0  0 
  2 20  1  0  0  0  0 
  3 24  1  0  0  0  0 
  3 15  1  0  0  0  0 
  4 25  1  0  0  0  0 
  5  7  2  0  0  0  0 
  5  9  1  0  0  0  0 
  6  4  2  0  0  0  0 
  6 10  1  0  0  0  0 
  7  6  1  0  0  0  0 
  8  4  1  0  0  0  0 
  8 14  1  0  0  0  0 
  9  8  2  0  0  0  0 
 10 11  2  0  0  0  0 
 12 10  1  0  0  0  0 
 13  7  1  0  0  0  0 
 14  2  1  0  0  0  0 
 15  9  1  0  0  0  0 
 16  1  1  0  0  0  0 
 18  1  1  0  0  0  0 
 21  2  1  0  0  0  0 
 22  3  1  0  0  0  0 
 23  3  1  0  0  0  0 
 26  5  1  0  0  0  0 
 27 12  1  0  0  0  0 
M  END 
>  <HBA> 
5 
 
>  <HBD> 
1 
 
>  <TPSA> 
64.99 
 
>  <cid> 
10276 
 
>  <dipole> 
6.98 
 
>  <excitation_energy_1> 
4.251 
 
>  <excitation_energy_2> 
4.828 
 
>  <excitation_energy_3> 
4.915 
 
>  <excitation_energy_4> 
5.044 
 
>  <homo_energy> 
-5.627 
 
>  <homo_lumo_gap> 
4.781 
 
>  <logP> 
1.411 
 
>  <lumo_energy> 
-0.846 
 
>  <melting_point> 
112.97 
 
>  <molecular_refractivity> 
52.88 
 
>  <oscillator_strength_1> 
0.1521 
 
>  <oscillator_strength_2> 
0.0001 
 
>  <oscillator_strength_3> 
0.0 
 
>  <oscillator_strength_4> 
0.1089 
 
>  <open_babel_can_smiles> 
COc1cc(C(=O)O)c(cc1OC)OC 
 
>  <mulliken_charges> 
27 
1   -0.215429 
2   -0.218674 
3   -0.217806 
4   -0.269928 
5   -0.280861 
6   -0.007284 
7   0.34126 
8   0.353808 
9   0.354034 
10   0.573381 
11   -0.474431 
12   -0.605387 
13   -0.569449 
14   -0.507757 
15   -0.490787 
16   0.181535 
17   0.163934 
18   0.163859 
19   0.170119 
20   0.15833 
21   0.158279 
22   0.179616 
23   0.153477 
24   0.153532 
25   0.178237 
26   0.139725 
27   0.434664 
 
>  <lowdin_charges> 
27 
1   -0.274239 
2   -0.274943 
3   -0.275046 
4   -0.173775 
5   -0.25751 
6   -0.09753 
7   0.09961 
8   0.065585 
9   0.10126 
10   0.191793 
11   -0.2691 
12   -0.365934 
13   -0.215106 
14   -0.19062 
15   -0.172833 
16   0.168099 
17   0.15311 
18   0.151992 
19   0.161774 
20   0.148293 
21   0.149292 
22   0.166937 
23   0.145372 
24   0.1471 
25   0.188821 
26   0.170401 
27   0.357196 
 
$$$$ 
 
