PCCDB-ID:  7817 
public computational chemistry database (PCCDB) project, http://pccdb.org 
 
 14 14  0  0  0  0  0  0  0  0999 V2000 
    1.3891   -0.2932    0.0142 C   0  0  0  0  0  0  0  0  0  0  0  0 
   -1.3951    0.2559    0.0100 C   0  0  0  0  0  0  0  0  0  0  0  0 
    0.7687    1.0910   -0.0048 C   0  0  0  0  0  0  0  0  0  0  0  0 
   -0.7747   -1.1284   -0.0023 C   0  0  0  0  0  0  0  0  0  0  0  0 
    0.4613   -1.4049   -0.0004 N   0  0  0  0  0  0  0  0  0  0  0  0 
   -0.4673    1.3675   -0.0086 N   0  0  0  0  0  0  0  0  0  0  0  0 
    1.6459    2.1330   -0.0192 O   0  0  0  0  0  0  0  0  0  0  0  0 
   -1.6519   -2.1704   -0.0115 O   0  0  0  0  0  0  0  0  0  0  0  0 
    2.0332   -0.3798    0.9042 H   0  0  0  0  0  0  0  0  0  0  0  0 
    2.0680   -0.3882   -0.8485 H   0  0  0  0  0  0  0  0  0  0  0  0 
   -2.0391    0.3458    0.8997 H   0  0  0  0  0  0  0  0  0  0  0  0 
   -2.0741    0.3477   -0.8530 H   0  0  0  0  0  0  0  0  0  0  0  0 
    2.5533    1.7895   -0.0155 H   0  0  0  0  0  0  0  0  0  0  0  0 
   -2.5590   -1.8270   -0.0278 H   0  0  0  0  0  0  0  0  0  0  0  0 
  1  9  1  0  0  0  0 
  2 11  1  0  0  0  0 
  3  1  1  0  0  0  0 
  4  5  2  0  0  0  0 
  4  2  1  0  0  0  0 
  5  1  1  0  0  0  0 
  6  3  2  0  0  0  0 
  6  2  1  0  0  0  0 
  7 13  1  0  0  0  0 
  7  3  1  0  0  0  0 
  8  4  1  0  0  0  0 
 10  1  1  0  0  0  0 
 12  2  1  0  0  0  0 
 14  8  1  0  0  0  0 
M  END 
>  <HBA> 
4 
 
>  <HBD> 
2 
 
>  <TPSA> 
58.2 
 
>  <cid> 
7817 
 
>  <dipole> 
0.04 
 
>  <excitation_energy_1> 
5.451 
 
>  <excitation_energy_2> 
5.675 
 
>  <excitation_energy_3> 
5.771 
 
>  <excitation_energy_4> 
5.841 
 
>  <homo_energy> 
-6.531 
 
>  <homo_lumo_gap> 
6.855 
 
>  <logP> 
-1.11 
 
>  <lumo_energy> 
0.324 
 
>  <melting_point> 
94.48 
 
>  <molecular_refractivity> 
33.06 
 
>  <oscillator_strength_1> 
0.0023 
 
>  <oscillator_strength_2> 
0.0056 
 
>  <oscillator_strength_3> 
0.0 
 
>  <oscillator_strength_4> 
0.0 
 
>  <open_babel_can_smiles> 
OC1=NCC(=NC1)O 
 
>  <mulliken_charges> 
14 
1   -0.245268 
2   -0.245274 
3   0.50407 
4   0.504053 
5   -0.426744 
6   -0.426747 
7   -0.584706 
8   -0.584698 
9   0.170768 
10   0.169251 
11   0.171319 
12   0.168691 
13   0.412649 
14   0.412636 
 
>  <lowdin_charges> 
14 
1   -0.236936 
2   -0.236926 
3   0.114182 
4   0.114183 
5   -0.203322 
6   -0.203336 
7   -0.354714 
8   -0.354726 
9   0.161453 
10   0.160888 
11   0.161724 
12   0.160614 
13   0.358458 
14   0.358458 
 
$$$$ 
 
