PCCDB-ID:  73271 
public computational chemistry database (PCCDB) project, http://pccdb.org 
 
 18 18  0  0  0  0  0  0  0  0999 V2000 
   -0.2113    1.3155    0.1491 C   0  0  0  0  0  0  0  0  0  0  0  0 
   -2.5739    0.4027    0.0472 C   0  0  0  0  0  0  0  0  0  0  0  0 
   -1.0747    0.2368    0.0355 C   0  0  0  0  0  0  0  0  0  0  0  0 
    1.1654    1.0188    0.1581 C   0  0  0  0  0  0  0  0  0  0  0  0 
   -3.3560   -0.3094   -1.0767 C   0  0  0  0  0  0  0  0  0  0  0  0 
    0.7248   -1.1743   -0.0502 C   0  0  0  0  0  0  0  0  0  0  0  0 
   -0.6073   -1.0267   -0.0683 N   0  0  0  0  0  0  0  0  0  0  0  0 
    1.6389   -0.2171    0.0652 N   0  0  0  0  0  0  0  0  0  0  0  0 
    2.1077    1.9723    0.2635 O   0  0  0  0  0  0  0  0  0  0  0  0 
   -4.3282    0.1937   -1.5834 O   0  0  0  0  0  0  0  0  0  0  0  0 
   -2.9315   -1.5406   -1.3987 O   0  0  0  0  0  0  0  0  0  0  0  0 
    1.2092   -2.4190   -0.1520 O   0  0  0  0  0  0  0  0  0  0  0  0 
   -0.5843    2.3312    0.2275 H   0  0  0  0  0  0  0  0  0  0  0  0 
   -2.8545    1.4565    0.0169 H   0  0  0  0  0  0  0  0  0  0  0  0 
   -2.9559   -0.0107    0.9923 H   0  0  0  0  0  0  0  0  0  0  0  0 
    1.6831    2.8436    0.3192 H   0  0  0  0  0  0  0  0  0  0  0  0 
   -2.0844   -1.7222   -0.9215 H   0  0  0  0  0  0  0  0  0  0  0  0 
    0.4488   -3.0220   -0.2182 H   0  0  0  0  0  0  0  0  0  0  0  0 
  1  4  1  0  0  0  0 
  1 13  1  0  0  0  0 
  2 15  1  0  0  0  0 
  3  2  1  0  0  0  0 
  3  1  2  0  0  0  0 
  4  9  1  0  0  0  0 
  5  2  1  0  0  0  0 
  6  8  2  0  0  0  0 
  7  6  2  0  0  0  0 
  7  3  1  0  0  0  0 
  8  4  2  0  0  0  0 
  9 16  1  0  0  0  0 
 10  5  2  0  0  0  0 
 11  5  1  0  0  0  0 
 11 17  1  0  0  0  0 
 12  6  1  0  0  0  0 
 14  2  1  0  0  0  0 
 18 12  1  0  0  0  0 
M  END 
>  <HBA> 
4 
 
>  <HBD> 
3 
 
>  <TPSA> 
103.02 
 
>  <cid> 
73271 
 
>  <dipole> 
3.91 
 
>  <excitation_energy_1> 
5.089 
 
>  <excitation_energy_2> 
5.155 
 
>  <excitation_energy_3> 
5.337 
 
>  <excitation_energy_4> 
5.668 
 
>  <homo_energy> 
-7.217 
 
>  <homo_lumo_gap> 
5.766 
 
>  <logP> 
-1.31 
 
>  <lumo_energy> 
-1.45 
 
>  <melting_point> 
249.08 
 
>  <molecular_refractivity> 
39.23 
 
>  <oscillator_strength_1> 
0.0666 
 
>  <oscillator_strength_2> 
0.0551 
 
>  <oscillator_strength_3> 
0.0176 
 
>  <oscillator_strength_4> 
0.0009 
 
>  <open_babel_can_smiles> 
OC(=O)CC1=CC(=[N]=[C](=N1)O)O 
 
>  <mulliken_charges> 
18 
1   -0.259625 
2   -0.465608 
3   0.368055 
4   0.53459 
5   0.597241 
6   0.653788 
7   -0.608592 
8   -0.467334 
9   -0.579129 
10   -0.442869 
11   -0.57642 
12   -0.569558 
13   0.147306 
14   0.189898 
15   0.208085 
16   0.42135 
17   0.426956 
18   0.421865 
 
>  <lowdin_charges> 
18 
1   -0.269087 
2   -0.318767 
3   0.092384 
4   0.168534 
5   0.192712 
6   0.176561 
7   -0.250388 
8   -0.169631 
9   -0.321226 
10   -0.245313 
11   -0.361343 
12   -0.32194 
13   0.170686 
14   0.179236 
15   0.192405 
16   0.367342 
17   0.349016 
18   0.368819 
 
$$$$ 
 
