PCCDB-ID:  19421 
public computational chemistry database (PCCDB) project, http://pccdb.org 
 
 19 18  0  0  0  0  0  0  0  0999 V2000 
    0.9293    0.1930    0.1684 C   0  0  0  0  0  0  0  0  0  0  0  0 
    4.1882    3.5116    0.9234 C   0  0  0  0  0  0  0  0  0  0  0  0 
    3.1263    1.4531   -0.2156 C   0  0  0  0  0  0  0  0  0  0  0  0 
    2.4926   -2.2696    0.4226 C   0  0  0  0  0  0  0  0  0  0  0  0 
    4.5612   -1.0366    0.0763 C   0  0  0  0  0  0  0  0  0  0  0  0 
    2.4200    0.1513    0.0435 C   0  0  0  0  0  0  0  0  0  0  0  0 
    3.1384    2.4222    0.9912 C   0  0  0  0  0  0  0  0  0  0  0  0 
    3.1289   -1.0070    0.1745 C   0  0  0  0  0  0  0  0  0  0  0  0 
    1.9805   -3.2954    0.6182 N   0  0  0  0  0  0  0  0  0  0  0  0 
    5.7216   -1.0435   -0.0064 N   0  0  0  0  0  0  0  0  0  0  0  0 
    2.3592    2.3211    1.9149 O   0  0  0  0  0  0  0  0  0  0  0  0 
    0.6714    0.8351    1.0189 H   0  0  0  0  0  0  0  0  0  0  0  0 
    0.4897   -0.7955    0.3141 H   0  0  0  0  0  0  0  0  0  0  0  0 
    0.4881    0.6496   -0.7271 H   0  0  0  0  0  0  0  0  0  0  0  0 
    5.1854    3.0684    1.0412 H   0  0  0  0  0  0  0  0  0  0  0  0 
    4.0188    4.2375    1.7207 H   0  0  0  0  0  0  0  0  0  0  0  0 
    4.1731    4.0128   -0.0520 H   0  0  0  0  0  0  0  0  0  0  0  0 
    2.6151    1.9910   -1.0287 H   0  0  0  0  0  0  0  0  0  0  0  0 
    4.1565    1.2948   -0.5490 H   0  0  0  0  0  0  0  0  0  0  0  0 
  1 13  1  0  0  0  0 
  1 12  1  0  0  0  0 
  2  7  1  0  0  0  0 
  2 15  1  0  0  0  0 
  2 16  1  0  0  0  0 
  3  6  1  0  0  0  0 
  3  7  1  0  0  0  0 
  4  9  3  0  0  0  0 
  5  8  1  0  0  0  0 
  6  1  1  0  0  0  0 
  6  8  2  0  0  0  0 
  7 11  2  0  0  0  0 
  8  4  1  0  0  0  0 
 10  5  3  0  0  0  0 
 14  1  1  0  0  0  0 
 17  2  1  0  0  0  0 
 18  3  1  0  0  0  0 
 19  3  1  0  0  0  0 
M  END 
>  <HBA> 
3 
 
>  <HBD> 
0 
 
>  <TPSA> 
64.65 
 
>  <cid> 
19421 
 
>  <dipole> 
5.98 
 
>  <excitation_energy_1> 
4.398 
 
>  <excitation_energy_2> 
4.444 
 
>  <excitation_energy_3> 
5.46 
 
>  <excitation_energy_4> 
5.762 
 
>  <homo_energy> 
-7.35 
 
>  <homo_lumo_gap> 
5.031 
 
>  <logP> 
1.329 
 
>  <lumo_energy> 
-2.318 
 
>  <melting_point> 
77.93 
 
>  <molecular_refractivity> 
39.79 
 
>  <oscillator_strength_1> 
0.0993 
 
>  <oscillator_strength_2> 
0.022 
 
>  <oscillator_strength_3> 
0.2989 
 
>  <oscillator_strength_4> 
0.0008 
 
>  <open_babel_can_smiles> 
N#CC(=C(CC(=O)C)C)C#N 
 
>  <mulliken_charges> 
19 
1   -0.544942 
2   -0.532185 
3   -0.471704 
4   0.299081 
5   0.295414 
6   0.235254 
7   0.46615 
8   0.072965 
9   -0.47251 
10   -0.477276 
11   -0.416323 
12   0.221664 
13   0.194846 
14   0.173377 
15   0.195229 
16   0.192549 
17   0.174403 
18   0.194038 
19   0.199968 
 
>  <lowdin_charges> 
19 
1   -0.448946 
2   -0.470944 
3   -0.318563 
4   -0.005024 
5   -0.008104 
6   0.096496 
7   0.176512 
8   -0.06025 
9   -0.096271 
10   -0.102972 
11   -0.218948 
12   0.196316 
13   0.180126 
14   0.17269 
15   0.184259 
16   0.180972 
17   0.172516 
18   0.186241 
19   0.183895 
 
$$$$ 
 
