PCCDB-ID:  49925 
public computational chemistry database (PCCDB) project, http://pccdb.org 
 
 35 35  0  0  1  0  0  0  0  0999 V2000 
    0.8899   -0.8099    2.5553 C   0  0  0  0  0  0  0  0  0  0  0  0 
    8.7480   -2.6704    2.2582 C   0  0  0  0  0  0  0  0  0  0  0  0 
    4.6452   -2.2894   -0.8914 C   0  0  0  0  0  0  0  0  0  0  0  0 
    2.4108   -0.9081    2.4057 C   0  0  0  0  0  0  0  0  0  0  0  0 
    7.2252   -2.5626    2.1213 C   0  0  0  0  0  0  0  0  0  0  0  0 
    2.8556   -2.1989    1.6861 C   0  0  0  0  0  0  0  0  0  0  0  0 
    4.3538   -2.3315    1.6229 C   0  0  0  0  0  0  0  0  0  0  0  0 
    5.1500   -2.3635    0.5358 C   0  0  0  0  0  0  0  0  0  0  0  0 
    7.3446   -1.3052   -0.0500 C   0  0  0  0  0  0  0  0  0  0  0  0 
    7.1382   -3.7503   -0.0919 C   0  0  0  0  0  0  0  0  0  0  0  0 
    8.8332   -2.6423   -1.2184 C   0  0  0  0  0  0  0  0  0  0  0  0 
    6.6859   -2.4929    0.6513 C   0  0  1  0  0  0  0  0  0  0  0  0 
    8.3080   -1.3646   -0.8780 N   0  0  0  0  0  0  0  0  0  0  0  0 
    8.0991   -3.8243   -0.9217 N   0  0  0  0  0  0  0  0  0  0  0  0 
    6.8694   -0.0889    0.2912 O   0  0  0  0  0  0  0  0  0  0  0  0 
    6.4654   -4.8805    0.2092 O   0  0  0  0  0  0  0  0  0  0  0  0 
    9.8952   -2.7223   -1.7913 O   0  0  0  0  0  0  0  0  0  0  0  0 
    0.6028    0.1145    3.0678 H   0  0  0  0  0  0  0  0  0  0  0  0 
    0.4933   -1.6513    3.1363 H   0  0  0  0  0  0  0  0  0  0  0  0 
    0.3930   -0.8173    1.5778 H   0  0  0  0  0  0  0  0  0  0  0  0 
    9.0132   -2.7233    3.3191 H   0  0  0  0  0  0  0  0  0  0  0  0 
    9.2598   -1.8036    1.8291 H   0  0  0  0  0  0  0  0  0  0  0  0 
    9.1395   -3.5691    1.7718 H   0  0  0  0  0  0  0  0  0  0  0  0 
    3.5598   -2.1958   -0.9455 H   0  0  0  0  0  0  0  0  0  0  0  0 
    4.9314   -3.1841   -1.4574 H   0  0  0  0  0  0  0  0  0  0  0  0 
    5.0806   -1.4319   -1.4184 H   0  0  0  0  0  0  0  0  0  0  0  0 
    2.8829   -0.8647    3.3970 H   0  0  0  0  0  0  0  0  0  0  0  0 
    2.7859   -0.0394    1.8483 H   0  0  0  0  0  0  0  0  0  0  0  0 
    6.8770   -1.6698    2.6539 H   0  0  0  0  0  0  0  0  0  0  0  0 
    6.7580   -3.4233    2.6143 H   0  0  0  0  0  0  0  0  0  0  0  0 
    2.3991   -2.2364    0.6922 H   0  0  0  0  0  0  0  0  0  0  0  0 
    2.4549   -3.0596    2.2427 H   0  0  0  0  0  0  0  0  0  0  0  0 
    4.8200   -2.3869    2.6049 H   0  0  0  0  0  0  0  0  0  0  0  0 
    6.0790   -0.2072    0.8485 H   0  0  0  0  0  0  0  0  0  0  0  0 
    5.7024   -4.6498    0.7697 H   0  0  0  0  0  0  0  0  0  0  0  0 
  1 18  1  0  0  0  0 
  1 19  1  0  0  0  0 
  2 21  1  0  0  0  0 
  3  8  1  0  0  0  0 
  4  1  1  0  0  0  0 
  4 27  1  0  0  0  0 
  5  2  1  0  0  0  0 
  5 30  1  0  0  0  0 
  5 29  1  0  0  0  0 
  6 32  1  0  0  0  0 
  6  4  1  0  0  0  0 
  7  6  1  0  0  0  0 
  7 33  1  0  0  0  0 
  8  7  2  0  0  0  0 
  9 15  1  0  0  0  0 
  9 12  1  0  0  0  0 
 10 16  1  0  0  0  0 
 10 12  1  0  0  0  0 
 11 14  1  0  0  0  0 
 11 13  2  0  0  0  0 
 12  8  1  6  0  0  0 
 12  5  1  0  0  0  0 
 13  9  2  0  0  0  0 
 14 10  2  0  0  0  0 
 15 34  1  0  0  0  0 
 16 35  1  0  0  0  0 
 17 11  2  0  0  0  0 
 20  1  1  0  0  0  0 
 22  2  1  0  0  0  0 
 23  2  1  0  0  0  0 
 24  3  1  0  0  0  0 
 25  3  1  0  0  0  0 
 26  3  1  0  0  0  0 
 28  4  1  0  0  0  0 
 31  6  1  0  0  0  0 
M  END 
>  <HBA> 
5 
 
>  <HBD> 
2 
 
>  <TPSA> 
75.27 
 
>  <cid> 
49925 
 
>  <dipole> 
10.62 
 
>  <excitation_energy_1> 
4.015 
 
>  <excitation_energy_2> 
4.233 
 
>  <excitation_energy_3> 
5.141 
 
>  <excitation_energy_4> 
5.505 
 
>  <homo_energy> 
-6.778 
 
>  <homo_lumo_gap> 
5.372 
 
>  <logP> 
2.153 
 
>  <lumo_energy> 
-1.407 
 
>  <melting_point> 
152.79 
 
>  <molecular_refractivity> 
71.37 
 
>  <oscillator_strength_1> 
0.0004 
 
>  <oscillator_strength_2> 
0.0002 
 
>  <oscillator_strength_3> 
0.0401 
 
>  <oscillator_strength_4> 
0.0004 
 
>  <open_babel_can_smiles> 
CCC/C=C(/[C@@]1(CC)C(=N[C](=[N]=C1O)=O)O)\C 
 
>  <mulliken_charges> 
35 
1   -0.443888 
2   -0.475919 
3   -0.535287 
4   -0.25372 
5   -0.270984 
6   -0.299165 
7   -0.176767 
8   0.065835 
9   0.542881 
10   0.542063 
11   0.616845 
12   -0.160866 
13   -0.471564 
14   -0.471272 
15   -0.580349 
16   -0.579631 
17   -0.431363 
18   0.154411 
19   0.148504 
20   0.149543 
21   0.158809 
22   0.183209 
23   0.183233 
24   0.169367 
25   0.188996 
26   0.188651 
27   0.13886 
28   0.140271 
29   0.150914 
30   0.151246 
31   0.15121 
32   0.15273 
33   0.143361 
34   0.414694 
35   0.415143 
 
>  <lowdin_charges> 
35 
1   -0.444703 
2   -0.453767 
3   -0.455194 
4   -0.2699 
5   -0.269646 
6   -0.276418 
7   -0.179677 
8   -0.049172 
9   0.142808 
10   0.142724 
11   0.170968 
12   -0.061403 
13   -0.18472 
14   -0.184722 
15   -0.331112 
16   -0.330738 
17   -0.209927 
18   0.156835 
19   0.151114 
20   0.150481 
21   0.160285 
22   0.168408 
23   0.168206 
24   0.163573 
25   0.174915 
26   0.175016 
27   0.142075 
28   0.14376 
29   0.150647 
30   0.151186 
31   0.151125 
32   0.156324 
33   0.159464 
34   0.360081 
35   0.361103 
 
$$$$ 
 
