PCCDB-ID:  21025 
public computational chemistry database (PCCDB) project, http://pccdb.org 
 
 42 42  0  0  0  0  0  0  0  0999 V2000 
    3.6726    0.5892   -0.8813 C   0  0  0  0  0  0  0  0  0  0  0  0 
    1.3526   -0.4096   -1.0531 C   0  0  0  0  0  0  0  0  0  0  0  0 
    3.9321   -0.8596    5.9638 C   0  0  0  0  0  0  0  0  0  0  0  0 
    5.5721    0.3356    4.4528 C   0  0  0  0  0  0  0  0  0  0  0  0 
    4.7230   -4.8890    0.9494 C   0  0  0  0  0  0  0  0  0  0  0  0 
    2.7971   -6.3247    0.8642 C   0  0  0  0  0  0  0  0  0  0  0  0 
    2.5944   -2.0321    1.1016 C   0  0  0  0  0  0  0  0  0  0  0  0 
    3.3978   -2.1638    3.3613 C   0  0  0  0  0  0  0  0  0  0  0  0 
    2.7252   -4.3116    2.1966 C   0  0  0  0  0  0  0  0  0  0  0  0 
    2.3882    0.2195   -0.1093 C   0  0  0  0  0  0  0  0  0  0  0  0 
    4.0942   -0.0646    4.6597 C   0  0  0  0  0  0  0  0  0  0  0  0 
    2.9279   -2.8087    2.2178 C   0  0  0  0  0  0  0  0  0  0  0  0 
    2.7184   -0.6428    1.1039 C   0  0  0  0  0  0  0  0  0  0  0  0 
    3.5395   -0.7715    3.4241 C   0  0  0  0  0  0  0  0  0  0  0  0 
    3.1981   -0.0294    2.2786 C   0  0  0  0  0  0  0  0  0  0  0  0 
    3.2681   -4.9540    0.9983 N   0  0  0  0  0  0  0  0  0  0  0  0 
    3.3241    1.3421    2.2358 O   0  0  0  0  0  0  0  0  0  0  0  0 
    3.4412    1.2595   -1.7185 H   0  0  0  0  0  0  0  0  0  0  0  0 
    4.1511   -0.3094   -1.2899 H   0  0  0  0  0  0  0  0  0  0  0  0 
    4.3918    1.0947   -0.2300 H   0  0  0  0  0  0  0  0  0  0  0  0 
    1.0762    0.3080   -1.8341 H   0  0  0  0  0  0  0  0  0  0  0  0 
    0.4403   -0.6978   -0.5188 H   0  0  0  0  0  0  0  0  0  0  0  0 
    1.7446   -1.3010   -1.5570 H   0  0  0  0  0  0  0  0  0  0  0  0 
    4.2357   -0.2437    6.8176 H   0  0  0  0  0  0  0  0  0  0  0  0 
    4.5616   -1.7567    5.9706 H   0  0  0  0  0  0  0  0  0  0  0  0 
    2.8940   -1.1716    6.1193 H   0  0  0  0  0  0  0  0  0  0  0  0 
    5.9504    0.9018    5.3126 H   0  0  0  0  0  0  0  0  0  0  0  0 
    5.7056    0.9476    3.5540 H   0  0  0  0  0  0  0  0  0  0  0  0 
    6.1922   -0.5602    4.3349 H   0  0  0  0  0  0  0  0  0  0  0  0 
    5.0774   -5.3069    0.0007 H   0  0  0  0  0  0  0  0  0  0  0  0 
    5.2073   -5.4507    1.7737 H   0  0  0  0  0  0  0  0  0  0  0  0 
    5.0492   -3.8471    1.0092 H   0  0  0  0  0  0  0  0  0  0  0  0 
    3.1665   -6.7491   -0.0760 H   0  0  0  0  0  0  0  0  0  0  0  0 
    1.7019   -6.3413    0.8381 H   0  0  0  0  0  0  0  0  0  0  0  0 
    3.1304   -6.9874    1.6883 H   0  0  0  0  0  0  0  0  0  0  0  0 
    2.2364   -2.5419    0.2130 H   0  0  0  0  0  0  0  0  0  0  0  0 
    3.6549   -2.7636    4.2298 H   0  0  0  0  0  0  0  0  0  0  0  0 
    1.6488   -4.5323    2.2143 H   0  0  0  0  0  0  0  0  0  0  0  0 
    3.1455   -4.7510    3.1249 H   0  0  0  0  0  0  0  0  0  0  0  0 
    1.9626    1.1555    0.2726 H   0  0  0  0  0  0  0  0  0  0  0  0 
    3.5139    0.8632    4.8103 H   0  0  0  0  0  0  0  0  0  0  0  0 
    3.5579    1.6688    3.1167 H   0  0  0  0  0  0  0  0  0  0  0  0 
  1 20  1  0  0  0  0 
  1 10  1  0  0  0  0 
  2 22  1  0  0  0  0 
  2 10  1  0  0  0  0 
  3 25  1  0  0  0  0 
  3 26  1  0  0  0  0 
  3 24  1  0  0  0  0 
  4 11  1  0  0  0  0 
  4 27  1  0  0  0  0 
  5 16  1  0  0  0  0 
  5 32  1  0  0  0  0 
  5 31  1  0  0  0  0 
  6 16  1  0  0  0  0 
  6 35  1  0  0  0  0 
  7 13  2  0  0  0  0 
  7 12  1  0  0  0  0 
  8 14  1  0  0  0  0 
  8 37  1  0  0  0  0 
  9 38  1  0  0  0  0 
  9 12  1  0  0  0  0 
  9 39  1  0  0  0  0 
 10 40  1  0  0  0  0 
 10 13  1  0  0  0  0 
 11 41  1  0  0  0  0 
 11  3  1  0  0  0  0 
 12  8  2  0  0  0  0 
 13 15  1  0  0  0  0 
 14 11  1  0  0  0  0 
 15 14  2  0  0  0  0 
 16  9  1  0  0  0  0 
 17 15  1  0  0  0  0 
 17 42  1  0  0  0  0 
 18  1  1  0  0  0  0 
 19  1  1  0  0  0  0 
 21  2  1  0  0  0  0 
 23  2  1  0  0  0  0 
 28  4  1  0  0  0  0 
 29  4  1  0  0  0  0 
 30  5  1  0  0  0  0 
 33  6  1  0  0  0  0 
 34  6  1  0  0  0  0 
 36  7  1  0  0  0  0 
M  END 
>  <HBA> 
2 
 
>  <HBD> 
1 
 
>  <TPSA> 
23.47 
 
>  <cid> 
21025 
 
>  <dipole> 
1.9 
 
>  <excitation_energy_1> 
4.826 
 
>  <excitation_energy_2> 
4.933 
 
>  <excitation_energy_3> 
4.991 
 
>  <excitation_energy_4> 
5.187 
 
>  <homo_energy> 
-5.548 
 
>  <homo_lumo_gap> 
5.799 
 
>  <logP> 
3.701 
 
>  <lumo_energy> 
0.25 
 
>  <melting_point> 
56.46 
 
>  <molecular_refractivity> 
75.1 
 
>  <oscillator_strength_1> 
0.0252 
 
>  <oscillator_strength_2> 
0.0056 
 
>  <oscillator_strength_3> 
0.0106 
 
>  <oscillator_strength_4> 
0.0046 
 
>  <open_babel_can_smiles> 
CN(Cc1cc(C(C)C)c(c(c1)C(C)C)O)C 
 
>  <mulliken_charges> 
42 
1   -0.438665 
2   -0.45201 
3   -0.449689 
4   -0.437525 
5   -0.300831 
6   -0.291737 
7   -0.257264 
8   -0.284398 
9   -0.195917 
10   -0.13636 
11   -0.198903 
12   0.163621 
13   0.147946 
14   0.18094 
15   0.19605 
16   -0.361785 
17   -0.657245 
18   0.135245 
19   0.13941 
20   0.157159 
21   0.139292 
22   0.145802 
23   0.145127 
24   0.144061 
25   0.150669 
26   0.155001 
27   0.142753 
28   0.148841 
29   0.15492 
30   0.145264 
31   0.112074 
32   0.163713 
33   0.147547 
34   0.147149 
35   0.115166 
36   0.134319 
37   0.115521 
38   0.145607 
39   0.10999 
40   0.147193 
41   0.118136 
42   0.413814 
 
>  <lowdin_charges> 
42 
1   -0.44329 
2   -0.445924 
3   -0.442051 
4   -0.448177 
5   -0.360077 
6   -0.355217 
7   -0.164516 
8   -0.178582 
9   -0.193426 
10   -0.118652 
11   -0.12405 
12   -0.031421 
13   -0.028098 
14   -0.053908 
15   0.08559 
16   -0.18097 
17   -0.390618 
18   0.145504 
19   0.146201 
20   0.156851 
21   0.150034 
22   0.150793 
23   0.147206 
24   0.152442 
25   0.150517 
26   0.154519 
27   0.149019 
28   0.150924 
29   0.155637 
30   0.148572 
31   0.118902 
32   0.157272 
33   0.149554 
34   0.146402 
35   0.119748 
36   0.164703 
37   0.154168 
38   0.147934 
39   0.11857 
40   0.153416 
41   0.131283 
42   0.353215 
 
$$$$ 
 
