PCCDB-ID:  41751 
public computational chemistry database (PCCDB) project, http://pccdb.org 
 
 34 33  0  0  0  0  0  0  0  0999 V2000 
    1.8374    3.0033   -0.5340 C   0  0  0  0  0  0  0  0  0  0  0  0 
    6.1214    5.5568    4.7085 C   0  0  0  0  0  0  0  0  0  0  0  0 
    4.0728    4.2148    4.1617 C   0  0  0  0  0  0  0  0  0  0  0  0 
    2.9924    3.7962   -1.1607 C   0  0  0  0  0  0  0  0  0  0  0  0 
    4.3260    3.0275   -1.2934 C   0  0  0  0  0  0  0  0  0  0  0  0 
    5.2957    3.1141   -0.1000 C   0  0  0  0  0  0  0  0  0  0  0  0 
    4.8182    2.4748    1.2131 C   0  0  0  0  0  0  0  0  0  0  0  0 
    5.9018    2.4314    2.3089 C   0  0  0  0  0  0  0  0  0  0  0  0 
    6.2868    3.7928    2.9322 C   0  0  0  0  0  0  0  0  0  0  0  0 
    5.6043    4.1725    4.2819 C   0  0  0  0  0  0  0  0  0  0  0  0 
    5.9257    3.2405    5.3825 N   0  0  0  0  0  0  0  0  0  0  0  0 
    0.9207    3.6040   -0.5035 H   0  0  0  0  0  0  0  0  0  0  0  0 
    2.0573    2.6836    0.4894 H   0  0  0  0  0  0  0  0  0  0  0  0 
    1.6231    2.1018   -1.1213 H   0  0  0  0  0  0  0  0  0  0  0  0 
    5.8852    6.3168    3.9549 H   0  0  0  0  0  0  0  0  0  0  0  0 
    7.2114    5.5450    4.8392 H   0  0  0  0  0  0  0  0  0  0  0  0 
    5.6717    5.8545    5.6611 H   0  0  0  0  0  0  0  0  0  0  0  0 
    3.7564    4.9205    3.3852 H   0  0  0  0  0  0  0  0  0  0  0  0 
    3.6325    4.5235    5.1152 H   0  0  0  0  0  0  0  0  0  0  0  0 
    3.6610    3.2306    3.9089 H   0  0  0  0  0  0  0  0  0  0  0  0 
    3.1604    4.7217   -0.5909 H   0  0  0  0  0  0  0  0  0  0  0  0 
    2.6752    4.1182   -2.1616 H   0  0  0  0  0  0  0  0  0  0  0  0 
    4.8622    3.4157   -2.1700 H   0  0  0  0  0  0  0  0  0  0  0  0 
    4.1140    1.9712   -1.5167 H   0  0  0  0  0  0  0  0  0  0  0  0 
    5.5422    4.1719    0.0709 H   0  0  0  0  0  0  0  0  0  0  0  0 
    6.2389    2.6306   -0.3949 H   0  0  0  0  0  0  0  0  0  0  0  0 
    4.4924    1.4456    1.0037 H   0  0  0  0  0  0  0  0  0  0  0  0 
    3.9352    3.0045    1.5887 H   0  0  0  0  0  0  0  0  0  0  0  0 
    6.7994    1.9674    1.8776 H   0  0  0  0  0  0  0  0  0  0  0  0 
    5.5793    1.7446    3.1042 H   0  0  0  0  0  0  0  0  0  0  0  0 
    6.1018    4.5954    2.2050 H   0  0  0  0  0  0  0  0  0  0  0  0 
    7.3706    3.8089    3.1153 H   0  0  0  0  0  0  0  0  0  0  0  0 
    6.9390    3.1480    5.4643 H   0  0  0  0  0  0  0  0  0  0  0  0 
    5.5743    2.3083    5.1647 H   0  0  0  0  0  0  0  0  0  0  0  0 
  1 12  1  0  0  0  0 
  1 13  1  0  0  0  0 
  2 16  1  0  0  0  0 
  2 17  1  0  0  0  0 
  3 10  1  0  0  0  0 
  3 19  1  0  0  0  0 
  4 21  1  0  0  0  0 
  4  1  1  0  0  0  0 
  5  4  1  0  0  0  0 
  5  6  1  0  0  0  0 
  6 25  1  0  0  0  0 
  6  7  1  0  0  0  0 
  7 28  1  0  0  0  0 
  7  8  1  0  0  0  0 
  8  9  1  0  0  0  0 
  8 30  1  0  0  0  0 
  9 32  1  0  0  0  0 
  9 10  1  0  0  0  0 
 10  2  1  0  0  0  0 
 10 11  1  0  0  0  0 
 11 33  1  0  0  0  0 
 14  1  1  0  0  0  0 
 15  2  1  0  0  0  0 
 18  3  1  0  0  0  0 
 20  3  1  0  0  0  0 
 22  4  1  0  0  0  0 
 23  5  1  0  0  0  0 
 24  5  1  0  0  0  0 
 26  6  1  0  0  0  0 
 27  7  1  0  0  0  0 
 29  8  1  0  0  0  0 
 31  9  1  0  0  0  0 
 34 11  1  0  0  0  0 
M  END 
>  <HBA> 
1 
 
>  <HBD> 
1 
 
>  <TPSA> 
26.02 
 
>  <cid> 
41751 
 
>  <dipole> 
1.34 
 
>  <excitation_energy_1> 
5.61 
 
>  <excitation_energy_2> 
6.227 
 
>  <excitation_energy_3> 
6.304 
 
>  <excitation_energy_4> 
6.428 
 
>  <homo_energy> 
-6.212 
 
>  <homo_lumo_gap> 
8.041 
 
>  <logP> 
3.784 
 
>  <lumo_energy> 
1.829 
 
>  <melting_point> 
36.05 
 
>  <molecular_refractivity> 
52.93 
 
>  <oscillator_strength_1> 
0.031 
 
>  <oscillator_strength_2> 
0.0018 
 
>  <oscillator_strength_3> 
0.0004 
 
>  <oscillator_strength_4> 
0.0057 
 
>  <open_babel_can_smiles> 
CCCCCCCC(N)(C)C 
 
>  <mulliken_charges> 
34 
1   -0.446371 
2   -0.432422 
3   -0.440758 
4   -0.24792 
5   -0.254173 
6   -0.255346 
7   -0.262327 
8   -0.266536 
9   -0.253811 
10   0.180172 
11   -0.713907 
12   0.140198 
13   0.149123 
14   0.140806 
15   0.135909 
16   0.130028 
17   0.154476 
18   0.13711 
19   0.155021 
20   0.137687 
21   0.129458 
22   0.131753 
23   0.128328 
24   0.126836 
25   0.131199 
26   0.124988 
27   0.125765 
28   0.144694 
29   0.129895 
30   0.113643 
31   0.130037 
32   0.11705 
33   0.286373 
34   0.293024 
 
>  <lowdin_charges> 
34 
1   -0.447623 
2   -0.442457 
3   -0.447765 
4   -0.275063 
5   -0.276958 
6   -0.275289 
7   -0.281493 
8   -0.283242 
9   -0.293983 
10   0.065165 
11   -0.545698 
12   0.148292 
13   0.147121 
14   0.145816 
15   0.147579 
16   0.141435 
17   0.156319 
18   0.148448 
19   0.157065 
20   0.145677 
21   0.138552 
22   0.141809 
23   0.143538 
24   0.1364 
25   0.135573 
26   0.138348 
27   0.138646 
28   0.144117 
29   0.14252 
30   0.134184 
31   0.142878 
32   0.135452 
33   0.246573 
34   0.248063 
 
$$$$ 
 
