PCCDB-ID:  8704 
public computational chemistry database (PCCDB) project, http://pccdb.org 
 
 20 20  0  0  0  0  0  0  0  0999 V2000 
   -0.6510   -1.2321    0.0633 C   0  0  0  0  0  0  0  0  0  0  0  0 
    0.8852   -1.1326    0.1519 C   0  0  0  0  0  0  0  0  0  0  0  0 
   -2.4124    0.5755    0.4837 C   0  0  0  0  0  0  0  0  0  0  0  0 
    2.4145    0.8895   -0.0233 C   0  0  0  0  0  0  0  0  0  0  0  0 
    0.0017    1.0215    0.1022 C   0  0  0  0  0  0  0  0  0  0  0  0 
   -1.0499    0.1498    0.3009 N   0  0  0  0  0  0  0  0  0  0  0  0 
    1.1231    0.2618   -0.2282 N   0  0  0  0  0  0  0  0  0  0  0  0 
   -2.9649    0.1428    1.7128 O   0  0  0  0  0  0  0  0  0  0  0  0 
    2.6965    1.1841    1.3311 O   0  0  0  0  0  0  0  0  0  0  0  0 
   -0.0225    2.2423    0.2156 O   0  0  0  0  0  0  0  0  0  0  0  0 
   -1.0775   -1.8987    0.8174 H   0  0  0  0  0  0  0  0  0  0  0  0 
   -0.9779   -1.5717   -0.9310 H   0  0  0  0  0  0  0  0  0  0  0  0 
    1.3887   -1.8237   -0.5303 H   0  0  0  0  0  0  0  0  0  0  0  0 
    1.2390   -1.3234    1.1751 H   0  0  0  0  0  0  0  0  0  0  0  0 
   -3.0558    0.1338   -0.2854 H   0  0  0  0  0  0  0  0  0  0  0  0 
   -2.4123    1.6661    0.3805 H   0  0  0  0  0  0  0  0  0  0  0  0 
    2.4356    1.7935   -0.6400 H   0  0  0  0  0  0  0  0  0  0  0  0 
    3.1887    0.1981   -0.3630 H   0  0  0  0  0  0  0  0  0  0  0  0 
   -2.4769    0.5940    2.4207 H   0  0  0  0  0  0  0  0  0  0  0  0 
    2.1205    1.9325    1.5626 H   0  0  0  0  0  0  0  0  0  0  0  0 
  1  2  1  0  0  0  0 
  1  6  1  0  0  0  0 
  1 11  1  0  0  0  0 
  2 14  1  0  0  0  0 
  3  8  1  0  0  0  0 
  4  9  1  0  0  0  0 
  5 10  2  0  0  0  0 
  5  6  1  0  0  0  0 
  6  3  1  0  0  0  0 
  7  4  1  0  0  0  0 
  7  5  1  0  0  0  0 
  7  2  1  0  0  0  0 
  8 19  1  0  0  0  0 
  9 20  1  0  0  0  0 
 12  1  1  0  0  0  0 
 13  2  1  0  0  0  0 
 15  3  1  0  0  0  0 
 16  3  1  0  0  0  0 
 17  4  1  0  0  0  0 
 18  4  1  0  0  0  0 
M  END 
>  <HBA> 
5 
 
>  <HBD> 
2 
 
>  <TPSA> 
64.01 
 
>  <cid> 
8704 
 
>  <dipole> 
2.32 
 
>  <excitation_energy_1> 
6.049 
 
>  <excitation_energy_2> 
6.241 
 
>  <excitation_energy_3> 
6.391 
 
>  <excitation_energy_4> 
6.505 
 
>  <homo_energy> 
-6.607 
 
>  <homo_lumo_gap> 
7.717 
 
>  <logP> 
-1.501 
 
>  <lumo_energy> 
1.11 
 
>  <melting_point> 
70.91 
 
>  <molecular_refractivity> 
40.57 
 
>  <oscillator_strength_1> 
0.0652 
 
>  <oscillator_strength_2> 
0.0307 
 
>  <oscillator_strength_3> 
0.0033 
 
>  <oscillator_strength_4> 
0.059 
 
>  <open_babel_can_smiles> 
OCN1CCN(C1=O)CO 
 
>  <mulliken_charges> 
20 
1   -0.130972 
2   -0.147674 
3   0.063105 
4   0.061214 
5   0.773036 
6   -0.478723 
7   -0.462129 
8   -0.599946 
9   -0.613474 
10   -0.563403 
11   0.173649 
12   0.15355 
13   0.159362 
14   0.167052 
15   0.152739 
16   0.173959 
17   0.16499 
18   0.153983 
19   0.392413 
20   0.407269 
 
>  <lowdin_charges> 
20 
1   -0.192648 
2   -0.195193 
3   -0.072356 
4   -0.079354 
5   0.16853 
6   -0.131421 
7   -0.149408 
8   -0.461657 
9   -0.468081 
10   -0.340331 
11   0.16277 
12   0.143191 
13   0.156049 
14   0.147792 
15   0.148896 
16   0.156844 
17   0.153668 
18   0.154487 
19   0.34636 
20   0.351861 
 
$$$$ 
 
