PCCDB-ID:  33333 
public computational chemistry database (PCCDB) project, http://pccdb.org 
 
 25 24  0  0  0  0  0  0  0  0999 V2000 
    1.1916   -1.7434    0.7608 C   0  0  0  0  0  0  0  0  0  0  0  0 
    5.2574   -1.4229    3.6790 C   0  0  0  0  0  0  0  0  0  0  0  0 
    5.6194   -1.3940   -0.2303 C   0  0  0  0  0  0  0  0  0  0  0  0 
    5.6663    0.5144    1.4062 C   0  0  0  0  0  0  0  0  0  0  0  0 
    2.7020   -2.0045    0.7689 C   0  0  0  0  0  0  0  0  0  0  0  0 
    3.5082   -0.7256    1.0375 C   0  0  0  0  0  0  0  0  0  0  0  0 
    5.4139   -1.8693    2.2302 C   0  0  0  0  0  0  0  0  0  0  0  0 
    5.0589   -0.8739    1.1040 C   0  0  0  0  0  0  0  0  0  0  0  0 
    5.8065   -2.9945    1.9797 O   0  0  0  0  0  0  0  0  0  0  0  0 
    0.6304   -2.6637    0.5645 H   0  0  0  0  0  0  0  0  0  0  0  0 
    0.9182   -1.0150   -0.0127 H   0  0  0  0  0  0  0  0  0  0  0  0 
    0.8508   -1.3448    1.7246 H   0  0  0  0  0  0  0  0  0  0  0  0 
    4.3234   -0.8776    3.8515 H   0  0  0  0  0  0  0  0  0  0  0  0 
    6.0783   -0.7478    3.9516 H   0  0  0  0  0  0  0  0  0  0  0  0 
    5.3003   -2.3011    4.3262 H   0  0  0  0  0  0  0  0  0  0  0  0 
    5.3057   -0.7402   -1.0528 H   0  0  0  0  0  0  0  0  0  0  0  0 
    5.2859   -2.4118   -0.4415 H   0  0  0  0  0  0  0  0  0  0  0  0 
    6.7144   -1.4128   -0.2086 H   0  0  0  0  0  0  0  0  0  0  0  0 
    5.4462    1.2043    0.5831 H   0  0  0  0  0  0  0  0  0  0  0  0 
    6.7569    0.4606    1.5087 H   0  0  0  0  0  0  0  0  0  0  0  0 
    5.2587    0.9548    2.3223 H   0  0  0  0  0  0  0  0  0  0  0  0 
    2.9993   -2.4368   -0.1944 H   0  0  0  0  0  0  0  0  0  0  0  0 
    2.9382   -2.7638    1.5258 H   0  0  0  0  0  0  0  0  0  0  0  0 
    3.1516   -0.2720    1.9736 H   0  0  0  0  0  0  0  0  0  0  0  0 
    3.2884    0.0091    0.2492 H   0  0  0  0  0  0  0  0  0  0  0  0 
  1  5  1  0  0  0  0 
  1 12  1  0  0  0  0 
  2 13  1  0  0  0  0 
  2 14  1  0  0  0  0 
  2 15  1  0  0  0  0 
  3 18  1  0  0  0  0 
  3  8  1  0  0  0  0 
  4 20  1  0  0  0  0 
  4 21  1  0  0  0  0 
  5  6  1  0  0  0  0 
  5 23  1  0  0  0  0 
  6  8  1  0  0  0  0 
  6 24  1  0  0  0  0 
  7  2  1  0  0  0  0 
  8  4  1  0  0  0  0 
  8  7  1  0  0  0  0 
  9  7  2  0  0  0  0 
 10  1  1  0  0  0  0 
 11  1  1  0  0  0  0 
 16  3  1  0  0  0  0 
 17  3  1  0  0  0  0 
 19  4  1  0  0  0  0 
 22  5  1  0  0  0  0 
 25  6  1  0  0  0  0 
M  END 
>  <HBA> 
1 
 
>  <HBD> 
0 
 
>  <TPSA> 
17.07 
 
>  <cid> 
33333 
 
>  <dipole> 
2.57 
 
>  <excitation_energy_1> 
4.299 
 
>  <excitation_energy_2> 
6.015 
 
>  <excitation_energy_3> 
6.522 
 
>  <excitation_energy_4> 
6.574 
 
>  <homo_energy> 
-6.438 
 
>  <homo_lumo_gap> 
6.174 
 
>  <logP> 
2.402 
 
>  <lumo_energy> 
-0.264 
 
>  <melting_point> 
12.19 
 
>  <molecular_refractivity> 
40.51 
 
>  <oscillator_strength_1> 
0.0003 
 
>  <oscillator_strength_2> 
0.0137 
 
>  <oscillator_strength_3> 
0.0596 
 
>  <oscillator_strength_4> 
0.009 
 
>  <open_babel_can_smiles> 
CCCC(C(=O)C)(C)C 
 
>  <mulliken_charges> 
25 
1   -0.443636 
2   -0.539996 
3   -0.44488 
4   -0.462875 
5   -0.259425 
6   -0.263398 
7   0.464357 
8   0.009513 
9   -0.449388 
10   0.146598 
11   0.142095 
12   0.140136 
13   0.164288 
14   0.175416 
15   0.17826 
16   0.131188 
17   0.169052 
18   0.14587 
19   0.150558 
20   0.148957 
21   0.144945 
22   0.144337 
23   0.145805 
24   0.127014 
25   0.135207 
 
>  <lowdin_charges> 
25 
1   -0.444479 
2   -0.478407 
3   -0.438946 
4   -0.441857 
5   -0.278449 
6   -0.272718 
7   0.163214 
8   -0.019726 
9   -0.236525 
10   0.152196 
11   0.147256 
12   0.145293 
13   0.163725 
14   0.174694 
15   0.173323 
16   0.145743 
17   0.162023 
18   0.151357 
19   0.155242 
20   0.149408 
21   0.149959 
22   0.146762 
23   0.147353 
24   0.138317 
25   0.145241 
 
$$$$ 
 
