PCCDB-ID:  20082 
public computational chemistry database (PCCDB) project, http://pccdb.org 
 
 24 24  0  0  0  0  0  0  0  0999 V2000 
    0.9512   -0.1213   -0.0289 C   0  0  0  0  0  0  0  0  0  0  0  0 
    5.5996    0.8063    0.5399 C   0  0  0  0  0  0  0  0  0  0  0  0 
    5.5220   -0.6348    0.0074 C   0  0  0  0  0  0  0  0  0  0  0  0 
    4.3620    1.6852    0.3044 C   0  0  0  0  0  0  0  0  0  0  0  0 
    4.5348   -1.5249    0.7850 C   0  0  0  0  0  0  0  0  0  0  0  0 
    3.0145    1.1212    0.7902 C   0  0  0  0  0  0  0  0  0  0  0  0 
    3.0520   -1.4455    0.3657 C   0  0  0  0  0  0  0  0  0  0  0  0 
    2.4872   -0.0659   -0.0465 C   0  0  0  0  0  0  0  0  0  0  0  0 
    0.5129    0.7937   -0.4448 H   0  0  0  0  0  0  0  0  0  0  0  0 
    0.5759   -0.2353    0.9966 H   0  0  0  0  0  0  0  0  0  0  0  0 
    0.5756   -0.9698   -0.6139 H   0  0  0  0  0  0  0  0  0  0  0  0 
    6.4667    1.3098    0.0904 H   0  0  0  0  0  0  0  0  0  0  0  0 
    5.8048    0.7585    1.6200 H   0  0  0  0  0  0  0  0  0  0  0  0 
    6.5245   -1.0761    0.0861 H   0  0  0  0  0  0  0  0  0  0  0  0 
    5.2777   -0.6339   -1.0649 H   0  0  0  0  0  0  0  0  0  0  0  0 
    4.2733    1.8982   -0.7716 H   0  0  0  0  0  0  0  0  0  0  0  0 
    4.5369    2.6558    0.7887 H   0  0  0  0  0  0  0  0  0  0  0  0 
    4.6290   -1.2793    1.8521 H   0  0  0  0  0  0  0  0  0  0  0  0 
    4.8466   -2.5743    0.7001 H   0  0  0  0  0  0  0  0  0  0  0  0 
    2.2778    1.9346    0.7384 H   0  0  0  0  0  0  0  0  0  0  0  0 
    3.0754    0.8411    1.8526 H   0  0  0  0  0  0  0  0  0  0  0  0 
    2.4468   -1.8381    1.1960 H   0  0  0  0  0  0  0  0  0  0  0  0 
    2.8800   -2.1342   -0.4734 H   0  0  0  0  0  0  0  0  0  0  0  0 
    2.7909    0.1227   -1.0875 H   0  0  0  0  0  0  0  0  0  0  0  0 
  1 10  1  0  0  0  0 
  2 13  1  0  0  0  0 
  3 14  1  0  0  0  0 
  3  2  1  0  0  0  0 
  3  5  1  0  0  0  0 
  4  2  1  0  0  0  0 
  4 17  1  0  0  0  0 
  4  6  1  0  0  0  0 
  5 18  1  0  0  0  0 
  6 21  1  0  0  0  0 
  7  5  1  0  0  0  0 
  7 22  1  0  0  0  0 
  8  1  1  0  0  0  0 
  8  7  1  0  0  0  0 
  8  6  1  0  0  0  0 
  9  1  1  0  0  0  0 
 11  1  1  0  0  0  0 
 12  2  1  0  0  0  0 
 15  3  1  0  0  0  0 
 16  4  1  0  0  0  0 
 19  5  1  0  0  0  0 
 20  6  1  0  0  0  0 
 23  7  1  0  0  0  0 
 24  8  1  0  0  0  0 
M  END 
>  <HBA> 
0 
 
>  <HBD> 
0 
 
>  <TPSA> 
0.0 
 
>  <cid> 
20082 
 
>  <dipole> 
0.09 
 
>  <excitation_energy_1> 
7.52 
 
>  <excitation_energy_2> 
7.548 
 
>  <excitation_energy_3> 
7.661 
 
>  <excitation_energy_4> 
7.816 
 
>  <homo_energy> 
-8.038 
 
>  <homo_lumo_gap> 
10.262 
 
>  <logP> 
2.977 
 
>  <lumo_energy> 
2.223 
 
>  <melting_point> 
-5.31 
 
>  <molecular_refractivity> 
38.46 
 
>  <oscillator_strength_1> 
0.0038 
 
>  <oscillator_strength_2> 
0.004 
 
>  <oscillator_strength_3> 
0.0085 
 
>  <oscillator_strength_4> 
0.0015 
 
>  <open_babel_can_smiles> 
CC1CCCCCC1 
 
>  <mulliken_charges> 
24 
1   -0.452762 
2   -0.254092 
3   -0.253216 
4   -0.25945 
5   -0.263658 
6   -0.257554 
7   -0.259381 
8   -0.059805 
9   0.137893 
10   0.139235 
11   0.138533 
12   0.126478 
13   0.125938 
14   0.128128 
15   0.127983 
16   0.126498 
17   0.126727 
18   0.128931 
19   0.129079 
20   0.126948 
21   0.1257 
22   0.125774 
23   0.127214 
24   0.11886 
 
>  <lowdin_charges> 
24 
1   -0.444516 
2   -0.276012 
3   -0.27766 
4   -0.274862 
5   -0.279036 
6   -0.279195 
7   -0.281741 
8   -0.126283 
9   0.146164 
10   0.144053 
11   0.147458 
12   0.14207 
13   0.13408 
14   0.142687 
15   0.13634 
16   0.134423 
17   0.141324 
18   0.135768 
19   0.14253 
20   0.143425 
21   0.136636 
22   0.140614 
23   0.140077 
24   0.131654 
 
$$$$ 
 
