PCCDB-ID:  24245 
public computational chemistry database (PCCDB) project, http://pccdb.org 
 
 18 17  0  0  0  0  0  0  0  0999 V2000 
    0.9815    0.1355   -0.2662 C   0  0  0  0  0  0  0  0  0  0  0  0 
    6.8206   -1.1145    0.9353 C   0  0  0  0  0  0  0  0  0  0  0  0 
    3.1934    0.2291    0.9112 C   0  0  0  0  0  0  0  0  0  0  0  0 
    4.7231    0.2415    0.7122 C   0  0  0  0  0  0  0  0  0  0  0  0 
    3.1565   -0.2913   -1.3654 N   0  0  0  0  0  0  0  0  0  0  0  0 
    4.5378   -2.0525    1.1103 N   0  0  0  0  0  0  0  0  0  0  0  0 
    2.4374    0.0457   -0.2480 N   0  0  0  0  0  0  0  0  0  0  0  0 
    5.3685   -0.9755    0.9395 N   0  0  0  0  0  0  0  0  0  0  0  0 
    2.7074    0.4842    1.9897 O   0  0  0  0  0  0  0  0  0  0  0  0 
    5.3111    1.2764    0.4938 O   0  0  0  0  0  0  0  0  0  0  0  0 
    2.4763   -0.4757   -2.3514 O   0  0  0  0  0  0  0  0  0  0  0  0 
    5.1204   -3.1020    1.2771 O   0  0  0  0  0  0  0  0  0  0  0  0 
    0.6614    0.4046    0.7392 H   0  0  0  0  0  0  0  0  0  0  0  0 
    0.5589   -0.8285   -0.5612 H   0  0  0  0  0  0  0  0  0  0  0  0 
    0.6718    0.8942   -0.9891 H   0  0  0  0  0  0  0  0  0  0  0  0 
    7.2399   -0.1223    0.7769 H   0  0  0  0  0  0  0  0  0  0  0  0 
    7.1218   -1.7945    0.1342 H   0  0  0  0  0  0  0  0  0  0  0  0 
    7.1497   -1.5270    1.8923 H   0  0  0  0  0  0  0  0  0  0  0  0 
  1  7  1  0  0  0  0 
  1 13  1  0  0  0  0 
  2  8  1  0  0  0  0 
  2 18  1  0  0  0  0 
  3  9  2  0  0  0  0 
  4  3  1  0  0  0  0 
  4  8  1  0  0  0  0 
  5  7  1  0  0  0  0 
  6 12  1  0  0  0  0 
  7  3  1  0  0  0  0 
  8  6  1  0  0  0  0 
 10  4  2  0  0  0  0 
 11  5  1  0  0  0  0 
 14  1  1  0  0  0  0 
 15  1  1  0  0  0  0 
 16  2  1  0  0  0  0 
 17  2  1  0  0  0  0 
M  RAD  4   5   2   6   2  11   2  12   2 
M  END 
>  <HBA> 
8 
 
>  <HBD> 
0 
 
>  <TPSA> 
99.48 
 
>  <cid> 
24245 
 
>  <dipole> 
0.1 
 
>  <excitation_energy_1> 
2.959 
 
>  <excitation_energy_2> 
2.974 
 
>  <excitation_energy_3> 
3.94 
 
>  <excitation_energy_4> 
3.963 
 
>  <homo_energy> 
-7.295 
 
>  <homo_lumo_gap> 
4.697 
 
>  <logP> 
-0.734 
 
>  <lumo_energy> 
-2.599 
 
>  <melting_point> 
60.92 
 
>  <molecular_refractivity> 
37.01 
 
>  <oscillator_strength_1> 
0.0009 
 
>  <oscillator_strength_2> 
0.0005 
 
>  <oscillator_strength_3> 
0.0001 
 
>  <oscillator_strength_4> 
0.0012 
 
>  <open_babel_can_smiles> 
[O][N]N(C(=O)C(=O)N([N][O])C)C 
 
>  <mulliken_charges> 
18 
1   -0.337183 
2   -0.336921 
3   0.566087 
4   0.566181 
5   0.193724 
6   0.193529 
7   -0.27338 
8   -0.273541 
9   -0.435735 
10   -0.435622 
11   -0.322654 
12   -0.322659 
13   0.212589 
14   0.198862 
15   0.197735 
16   0.212497 
17   0.198809 
18   0.197681 
 
>  <lowdin_charges> 
18 
1   -0.365093 
2   -0.365179 
3   0.158288 
4   0.160265 
5   0.082747 
6   0.081571 
7   -0.024924 
8   -0.024876 
9   -0.213176 
10   -0.213623 
11   -0.188702 
12   -0.188334 
13   0.191362 
14   0.17913 
15   0.179988 
16   0.191504 
17   0.179996 
18   0.179055 
 
$$$$ 
 
