PCCDB-ID:  69718 
public computational chemistry database (PCCDB) project, http://pccdb.org 
 
 24 24  0  0  0  0  0  0  0  0999 V2000 
    1.8273    0.6836   -0.7336 C   0  0  0  0  0  0  0  0  0  0  0  0 
    4.4595    3.8619    4.1350 C   0  0  0  0  0  0  0  0  0  0  0  0 
    3.8290   -0.6612    2.0051 C   0  0  0  0  0  0  0  0  0  0  0  0 
    4.5201    1.1054    3.5170 C   0  0  0  0  0  0  0  0  0  0  0  0 
    3.1580    1.6302    1.5675 C   0  0  0  0  0  0  0  0  0  0  0  0 
    5.2003   -1.2695    4.0310 C   0  0  0  0  0  0  0  0  0  0  0  0 
    4.5013   -0.2509    3.1495 C   0  0  0  0  0  0  0  0  0  0  0  0 
    3.1502    0.2826    1.2151 C   0  0  0  0  0  0  0  0  0  0  0  0 
    3.8490    2.0347    2.7224 C   0  0  0  0  0  0  0  0  0  0  0  0 
    6.3878   -0.7773    4.6429 O   0  0  0  0  0  0  0  0  0  0  0  0 
    2.5202   -0.2194    0.1127 O   0  0  0  0  0  0  0  0  0  0  0  0 
    3.7984    3.3762    2.9775 O   0  0  0  0  0  0  0  0  0  0  0  0 
    1.4077    0.0775   -1.5387 H   0  0  0  0  0  0  0  0  0  0  0  0 
    2.5032    1.4366   -1.1602 H   0  0  0  0  0  0  0  0  0  0  0  0 
    1.0136    1.1930   -0.2007 H   0  0  0  0  0  0  0  0  0  0  0  0 
    4.2849    4.9395    4.1489 H   0  0  0  0  0  0  0  0  0  0  0  0 
    5.5396    3.6695    4.0942 H   0  0  0  0  0  0  0  0  0  0  0  0 
    4.0510    3.4149    5.0506 H   0  0  0  0  0  0  0  0  0  0  0  0 
    3.8132   -1.7030    1.6989 H   0  0  0  0  0  0  0  0  0  0  0  0 
    5.0632    1.3969    4.4072 H   0  0  0  0  0  0  0  0  0  0  0  0 
    2.6549    2.3899    0.9829 H   0  0  0  0  0  0  0  0  0  0  0  0 
    5.3974   -2.1857    3.4526 H   0  0  0  0  0  0  0  0  0  0  0  0 
    4.5513   -1.5526    4.8684 H   0  0  0  0  0  0  0  0  0  0  0  0 
    6.9655   -0.4618    3.9297 H   0  0  0  0  0  0  0  0  0  0  0  0 
  1 15  1  0  0  0  0 
  1 11  1  0  0  0  0 
  2 16  1  0  0  0  0 
  2 18  1  0  0  0  0 
  3  7  2  0  0  0  0 
  4 20  1  0  0  0  0 
  5  9  1  0  0  0  0 
  6 10  1  0  0  0  0 
  6 23  1  0  0  0  0 
  7  4  1  0  0  0  0 
  7  6  1  0  0  0  0 
  8  5  2  0  0  0  0 
  8  3  1  0  0  0  0 
  9 12  1  0  0  0  0 
  9  4  2  0  0  0  0 
 11  8  1  0  0  0  0 
 12  2  1  0  0  0  0 
 13  1  1  0  0  0  0 
 14  1  1  0  0  0  0 
 17  2  1  0  0  0  0 
 19  3  1  0  0  0  0 
 21  5  1  0  0  0  0 
 22  6  1  0  0  0  0 
 24 10  1  0  0  0  0 
M  END 
>  <HBA> 
3 
 
>  <HBD> 
1 
 
>  <TPSA> 
38.69 
 
>  <cid> 
69718 
 
>  <dipole> 
1.69 
 
>  <excitation_energy_1> 
4.868 
 
>  <excitation_energy_2> 
5.378 
 
>  <excitation_energy_3> 
5.503 
 
>  <excitation_energy_4> 
5.651 
 
>  <homo_energy> 
-5.698 
 
>  <homo_lumo_gap> 
5.802 
 
>  <logP> 
1.196 
 
>  <lumo_energy> 
0.103 
 
>  <melting_point> 
37.99 
 
>  <molecular_refractivity> 
45.55 
 
>  <oscillator_strength_1> 
0.0354 
 
>  <oscillator_strength_2> 
0.0041 
 
>  <oscillator_strength_3> 
0.0094 
 
>  <oscillator_strength_4> 
0.0122 
 
>  <open_babel_can_smiles> 
OCc1cc(OC)cc(c1)OC 
 
>  <mulliken_charges> 
24 
1   -0.213425 
2   -0.212726 
3   -0.240455 
4   -0.257788 
5   -0.257166 
6   -0.092018 
7   0.096957 
8   0.388543 
9   0.384794 
10   -0.610915 
11   -0.512361 
12   -0.512311 
13   0.168345 
14   0.152685 
15   0.15343 
16   0.167053 
17   0.151765 
18   0.154958 
19   0.127036 
20   0.140711 
21   0.137472 
22   0.132285 
23   0.164351 
24   0.388778 
 
>  <lowdin_charges> 
24 
1   -0.281724 
2   -0.273855 
3   -0.214817 
4   -0.245801 
5   -0.245976 
6   -0.132305 
7   -0.01474 
8   0.111893 
9   0.113911 
10   -0.463493 
11   -0.197587 
12   -0.201102 
13   0.16318 
14   0.147023 
15   0.147131 
16   0.159328 
17   0.143109 
18   0.147198 
19   0.161607 
20   0.168449 
21   0.171609 
22   0.134657 
23   0.15887 
24   0.343434 
 
$$$$ 
 
