PCCDB-ID:  9487 
public computational chemistry database (PCCDB) project, http://pccdb.org 
 
 35 36  0  0  0  0  0  0  0  0999 V2000 
   -0.0182    0.4755    2.9423 C   0  0  0  0  0  0  0  0  0  0  0  0 
    2.6097   -4.7638   -4.2867 C   0  0  0  0  0  0  0  0  0  0  0  0 
   -0.5900    0.1788    1.7059 C   0  0  0  0  0  0  0  0  0  0  0  0 
    1.3731    0.5529    3.0605 C   0  0  0  0  0  0  0  0  0  0  0  0 
    2.0808   -5.3671   -3.1416 C   0  0  0  0  0  0  0  0  0  0  0  0 
    3.1632   -3.4877   -4.1965 C   0  0  0  0  0  0  0  0  0  0  0  0 
    0.2288   -0.0441    0.5952 C   0  0  0  0  0  0  0  0  0  0  0  0 
    2.1889    0.3328    1.9520 C   0  0  0  0  0  0  0  0  0  0  0  0 
    2.1090   -4.6958   -1.9210 C   0  0  0  0  0  0  0  0  0  0  0  0 
    3.1891   -2.8156   -2.9704 C   0  0  0  0  0  0  0  0  0  0  0  0 
    2.5057   -0.2134   -0.5083 C   0  0  0  0  0  0  0  0  0  0  0  0 
    2.6636   -2.7075   -0.4634 C   0  0  0  0  0  0  0  0  0  0  0  0 
    1.6223    0.0286    0.7040 C   0  0  0  0  0  0  0  0  0  0  0  0 
    2.6618   -3.4105   -1.8201 C   0  0  0  0  0  0  0  0  0  0  0  0 
    4.6676   -1.3031   -0.0484 C   0  0  0  0  0  0  0  0  0  0  0  0 
    5.1365   -0.1742    0.3642 N   0  0  0  0  0  0  0  0  0  0  0  0 
    5.3782   -2.5104   -0.1253 N   0  0  0  0  0  0  0  0  0  0  0  0 
    3.3387   -1.4187   -0.4249 N   0  0  0  0  0  0  0  0  0  0  0  0 
   -0.6506    0.6492    3.8092 H   0  0  0  0  0  0  0  0  0  0  0  0 
    2.5889   -5.2866   -5.2390 H   0  0  0  0  0  0  0  0  0  0  0  0 
   -1.6706    0.1193    1.6026 H   0  0  0  0  0  0  0  0  0  0  0  0 
    1.8230    0.7907    4.0213 H   0  0  0  0  0  0  0  0  0  0  0  0 
    1.6473   -6.3621   -3.2011 H   0  0  0  0  0  0  0  0  0  0  0  0 
    3.5762   -3.0088   -5.0807 H   0  0  0  0  0  0  0  0  0  0  0  0 
   -0.2217   -0.2698   -0.3698 H   0  0  0  0  0  0  0  0  0  0  0  0 
    3.2703    0.4015    2.0310 H   0  0  0  0  0  0  0  0  0  0  0  0 
    1.6949   -5.1717   -1.0339 H   0  0  0  0  0  0  0  0  0  0  0  0 
    3.6182   -1.8199   -2.9016 H   0  0  0  0  0  0  0  0  0  0  0  0 
    3.1908    0.6245   -0.6514 H   0  0  0  0  0  0  0  0  0  0  0  0 
    1.8766   -0.3013   -1.4034 H   0  0  0  0  0  0  0  0  0  0  0  0 
    3.1104   -3.3714    0.2851 H   0  0  0  0  0  0  0  0  0  0  0  0 
    1.6274   -2.5468   -0.1407 H   0  0  0  0  0  0  0  0  0  0  0  0 
    6.1477   -0.2278    0.4907 H   0  0  0  0  0  0  0  0  0  0  0  0 
    6.3749   -2.3947    0.0069 H   0  0  0  0  0  0  0  0  0  0  0  0 
    5.1709   -3.0876   -0.9344 H   0  0  0  0  0  0  0  0  0  0  0  0 
  1  4  1  0  0  0  0 
  1 19  1  0  0  0  0 
  2  6  2  0  0  0  0 
  2  5  1  0  0  0  0 
  3  1  2  0  0  0  0 
  4 22  1  0  0  0  0 
  5  9  2  0  0  0  0 
  6 10  1  0  0  0  0 
  7 13  2  0  0  0  0 
  7  3  1  0  0  0  0 
  8 26  1  0  0  0  0 
  8  4  2  0  0  0  0 
  9 14  1  0  0  0  0 
  9 27  1  0  0  0  0 
 10 28  1  0  0  0  0 
 10 14  2  0  0  0  0 
 11 18  1  0  0  0  0 
 11 13  1  0  0  0  0 
 12 18  1  0  0  0  0 
 12 32  1  0  0  0  0 
 12 31  1  0  0  0  0 
 13  8  1  0  0  0  0 
 14 12  1  0  0  0  0 
 15 16  1  0  0  0  0 
 16 33  1  0  0  0  0 
 17 15  2  0  0  0  0 
 17 34  1  0  0  0  0 
 18 15  1  0  0  0  0 
 20  2  1  0  0  0  0 
 21  3  1  0  0  0  0 
 23  5  1  0  0  0  0 
 24  6  1  0  0  0  0 
 25  7  1  0  0  0  0 
 29 11  1  0  0  0  0 
 30 11  1  0  0  0  0 
 35 17  1  0  0  0  0 
M  RAD  1  16   2 
M  END 
>  <HBA> 
3 
 
>  <HBD> 
2 
 
>  <TPSA> 
53.11 
 
>  <cid> 
9487 
 
>  <dipole> 
3.01 
 
>  <excitation_energy_1> 
4.676 
 
>  <excitation_energy_2> 
4.799 
 
>  <excitation_energy_3> 
4.937 
 
>  <excitation_energy_4> 
5.075 
 
>  <homo_energy> 
-5.66 
 
>  <homo_lumo_gap> 
5.437 
 
>  <logP> 
3.382 
 
>  <lumo_energy> 
-0.223 
 
>  <melting_point> 
124.4 
 
>  <molecular_refractivity> 
74.7 
 
>  <oscillator_strength_1> 
0.0067 
 
>  <oscillator_strength_2> 
0.0012 
 
>  <oscillator_strength_3> 
0.0089 
 
>  <oscillator_strength_4> 
0.0045 
 
>  <open_babel_can_smiles> 
[NH]C(=[NH2])N(Cc1ccccc1)Cc1ccccc1 
 
>  <mulliken_charges> 
35 
1   -0.129301 
2   -0.129351 
3   -0.128766 
4   -0.131731 
5   -0.130811 
6   -0.130533 
7   -0.19203 
8   -0.177279 
9   -0.174567 
10   -0.187399 
11   -0.234185 
12   -0.224683 
13   0.150885 
14   0.126665 
15   0.60041 
16   -0.669616 
17   -0.764482 
18   -0.420995 
19   0.125009 
20   0.130345 
21   0.124799 
22   0.127099 
23   0.131852 
24   0.131507 
25   0.120254 
26   0.173141 
27   0.12611 
28   0.143055 
29   0.199106 
30   0.140877 
31   0.183484 
32   0.175677 
33   0.262814 
34   0.320338 
35   0.332304 
 
>  <lowdin_charges> 
35 
1   -0.160904 
2   -0.161345 
3   -0.157958 
4   -0.156394 
5   -0.150307 
6   -0.154478 
7   -0.174893 
8   -0.154238 
9   -0.16745 
10   -0.178272 
11   -0.196916 
12   -0.206296 
13   -0.018313 
14   -0.023727 
15   0.129389 
16   -0.498741 
17   -0.504099 
18   -0.119161 
19   0.156079 
20   0.158174 
21   0.15328 
22   0.15597 
23   0.157597 
24   0.158897 
25   0.151702 
26   0.175914 
27   0.156747 
28   0.162817 
29   0.184155 
30   0.144765 
31   0.169892 
32   0.167032 
33   0.243302 
34   0.275071 
35   0.282708 
 
$$$$ 
 
