PCCDB-ID:  18615 
public computational chemistry database (PCCDB) project, http://pccdb.org 
 
 17 16  0  0  0  0  0  0  0  0999 V2000 
    1.1473    0.0664    0.1137 C   0  0  0  0  0  0  0  0  0  0  0  0 
    0.7816   -1.1857    0.9531 C   0  0  0  0  0  0  0  0  0  0  0  0 
    2.6279    0.1868   -0.2661 C   0  0  0  0  0  0  0  0  0  0  0  0 
    0.8192   -1.0116    2.4719 C   0  0  0  0  0  0  0  0  0  0  0  0 
    3.4853    0.3576    0.9219 N   0  0  0  0  0  0  0  0  0  0  0  0 
   -0.1611   -1.1996    3.2672 N   0  0  0  0  0  0  0  0  0  0  0  0 
    2.0040   -0.6458    2.9968 O   0  0  0  0  0  0  0  0  0  0  0  0 
    0.8202    0.9768    0.6345 H   0  0  0  0  0  0  0  0  0  0  0  0 
    0.5784    0.0364   -0.8239 H   0  0  0  0  0  0  0  0  0  0  0  0 
    1.4571   -2.0099    0.6787 H   0  0  0  0  0  0  0  0  0  0  0  0 
   -0.2275   -1.5110    0.6825 H   0  0  0  0  0  0  0  0  0  0  0  0 
    2.7536    1.0031   -0.9943 H   0  0  0  0  0  0  0  0  0  0  0  0 
    2.9437   -0.7372   -0.7652 H   0  0  0  0  0  0  0  0  0  0  0  0 
    3.4193    1.3144    1.2689 H   0  0  0  0  0  0  0  0  0  0  0  0 
    4.4641    0.1992    0.6907 H   0  0  0  0  0  0  0  0  0  0  0  0 
   -0.9852   -1.4819    2.7344 H   0  0  0  0  0  0  0  0  0  0  0  0 
    2.6600   -0.4527    2.2739 H   0  0  0  0  0  0  0  0  0  0  0  0 
  1  8  1  0  0  0  0 
  1  2  1  0  0  0  0 
  2  4  1  0  0  0  0 
  3  1  1  0  0  0  0 
  3  5  1  0  0  0  0 
  4  7  1  0  0  0  0 
  4  6  2  0  0  0  0 
  5 14  1  0  0  0  0 
  9  1  1  0  0  0  0 
 10  2  1  0  0  0  0 
 11  2  1  0  0  0  0 
 12  3  1  0  0  0  0 
 13  3  1  0  0  0  0 
 15  5  1  0  0  0  0 
 16  6  1  0  0  0  0 
 17  7  1  0  0  0  0 
M  END 
>  <HBA> 
3 
 
>  <HBD> 
2 
 
>  <TPSA> 
69.11 
 
>  <cid> 
18615 
 
>  <dipole> 
6.63 
 
>  <excitation_energy_1> 
5.723 
 
>  <excitation_energy_2> 
5.763 
 
>  <excitation_energy_3> 
6.079 
 
>  <excitation_energy_4> 
6.255 
 
>  <homo_energy> 
-6.346 
 
>  <homo_lumo_gap> 
7.606 
 
>  <logP> 
0.611 
 
>  <lumo_energy> 
1.26 
 
>  <melting_point> 
104.65 
 
>  <molecular_refractivity> 
26.96 
 
>  <oscillator_strength_1> 
0.003 
 
>  <oscillator_strength_2> 
0.0017 
 
>  <oscillator_strength_3> 
0.002 
 
>  <oscillator_strength_4> 
0.0189 
 
>  <open_babel_can_smiles> 
NCCCC(=N)O 
 
>  <mulliken_charges> 
17 
1   -0.269563 
2   -0.354361 
3   -0.141293 
4   0.472669 
5   -0.756632 
6   -0.597282 
7   -0.617483 
8   0.154603 
9   0.14851 
10   0.1554 
11   0.145833 
12   0.138322 
13   0.153008 
14   0.326796 
15   0.323998 
16   0.267332 
17   0.450143 
 
>  <lowdin_charges> 
17 
1   -0.28524 
2   -0.312791 
3   -0.207621 
4   0.121019 
5   -0.529203 
6   -0.422829 
7   -0.396959 
8   0.152162 
9   0.154676 
10   0.156753 
11   0.155066 
12   0.135531 
13   0.148124 
14   0.269032 
15   0.269198 
16   0.246284 
17   0.346796 
 
$$$$ 
 
