PCCDB-ID:  72719 
public computational chemistry database (PCCDB) project, http://pccdb.org 
 
 31 30  0  0  0  0  0  0  0  0999 V2000 
    0.7568   -1.6119   -2.8335 C   0  0  0  0  0  0  0  0  0  0  0  0 
    1.6209   -2.3695   -0.6734 C   0  0  0  0  0  0  0  0  0  0  0  0 
    2.7401   -0.5776   -1.8597 C   0  0  0  0  0  0  0  0  0  0  0  0 
    0.1118   -2.9453   -3.1569 C   0  0  0  0  0  0  0  0  0  0  0  0 
    2.8157   -3.0354   -0.0330 C   0  0  0  0  0  0  0  0  0  0  0  0 
    3.4092   -0.1683   -3.1490 C   0  0  0  0  0  0  0  0  0  0  0  0 
    1.8406   -3.5735   -4.5024 N   0  0  0  0  0  0  0  0  0  0  0  0 
    2.9498   -4.8491   -1.4591 N   0  0  0  0  0  0  0  0  0  0  0  0 
    3.0082    2.0729   -2.8392 N   0  0  0  0  0  0  0  0  0  0  0  0 
    0.6177   -3.8575   -3.8888 N   0  0  0  0  0  0  0  0  0  0  0  0 
    3.3729   -4.1397   -0.3383 N   0  0  0  0  0  0  0  0  0  0  0  0 
    3.5678    1.0113   -3.6122 N   0  0  0  0  0  0  0  0  0  0  0  0 
    1.9432   -1.7993   -1.9891 N   0  0  0  0  0  0  0  0  0  0  0  0 
   -1.0910   -3.2404   -2.5510 O   0  0  0  0  0  0  0  0  0  0  0  0 
    3.3339   -2.3092    1.0095 O   0  0  0  0  0  0  0  0  0  0  0  0 
    3.9099   -1.2098   -3.8622 O   0  0  0  0  0  0  0  0  0  0  0  0 
    0.0211   -0.9200   -2.3750 H   0  0  0  0  0  0  0  0  0  0  0  0 
    1.0872   -1.1559   -3.7743 H   0  0  0  0  0  0  0  0  0  0  0  0 
    1.2225   -1.6142    0.0256 H   0  0  0  0  0  0  0  0  0  0  0  0 
    0.8347   -3.1196   -0.8151 H   0  0  0  0  0  0  0  0  0  0  0  0 
    2.1384    0.2781   -1.5086 H   0  0  0  0  0  0  0  0  0  0  0  0 
    3.5146   -0.7620   -1.1055 H   0  0  0  0  0  0  0  0  0  0  0  0 
    2.2348   -4.4617   -4.7945 H   0  0  0  0  0  0  0  0  0  0  0  0 
    2.5015   -3.1121   -3.8730 H   0  0  0  0  0  0  0  0  0  0  0  0 
    1.9699   -4.7044   -1.7115 H   0  0  0  0  0  0  0  0  0  0  0  0 
    3.1067   -5.8346   -1.2734 H   0  0  0  0  0  0  0  0  0  0  0  0 
    3.5486    2.1861   -1.9792 H   0  0  0  0  0  0  0  0  0  0  0  0 
    3.1869    2.9130   -3.3847 H   0  0  0  0  0  0  0  0  0  0  0  0 
   -1.4920   -2.4117   -2.2490 H   0  0  0  0  0  0  0  0  0  0  0  0 
    4.0944   -2.8238    1.3372 H   0  0  0  0  0  0  0  0  0  0  0  0 
    4.2806   -0.8235   -4.6778 H   0  0  0  0  0  0  0  0  0  0  0  0 
  1 17  1  0  0  0  0 
  1 13  1  0  0  0  0 
  2  5  1  0  0  0  0 
  2 19  1  0  0  0  0 
  3 21  1  0  0  0  0 
  3 22  1  0  0  0  0 
  4  1  1  0  0  0  0 
  4 14  1  0  0  0  0 
  5 15  1  0  0  0  0 
  6  3  1  0  0  0  0 
  7 10  1  0  0  0  0 
  7 24  1  0  0  0  0 
  8 26  1  0  0  0  0 
  8 11  1  0  0  0  0 
  9 27  1  0  0  0  0 
 10  4  2  0  0  0  0 
 11  5  2  0  0  0  0 
 12  6  2  0  0  0  0 
 12  9  1  0  0  0  0 
 13  3  1  0  0  0  0 
 13  2  1  0  0  0  0 
 14 29  1  0  0  0  0 
 15 30  1  0  0  0  0 
 16  6  1  0  0  0  0 
 18  1  1  0  0  0  0 
 20  2  1  0  0  0  0 
 23  7  1  0  0  0  0 
 25  8  1  0  0  0  0 
 28  9  1  0  0  0  0 
 31 16  1  0  0  0  0 
M  END 
>  <HBA> 
10 
 
>  <HBD> 
6 
 
>  <TPSA> 
168.6 
 
>  <cid> 
72719 
 
>  <dipole> 
3.78 
 
>  <excitation_energy_1> 
4.658 
 
>  <excitation_energy_2> 
4.737 
 
>  <excitation_energy_3> 
4.992 
 
>  <excitation_energy_4> 
5.043 
 
>  <homo_energy> 
-5.38 
 
>  <homo_lumo_gap> 
5.391 
 
>  <logP> 
-1.468 
 
>  <lumo_energy> 
0.011 
 
>  <melting_point> 
284.53 
 
>  <molecular_refractivity> 
50.98 
 
>  <oscillator_strength_1> 
0.0056 
 
>  <oscillator_strength_2> 
0.0007 
 
>  <oscillator_strength_3> 
0.0441 
 
>  <oscillator_strength_4> 
0.0202 
 
>  <open_babel_can_smiles> 
N/N=C(\CN(C/C(=N\N)/O)C/C(=N\N)/O)/O 
 
>  <mulliken_charges> 
31 
1   -0.216821 
2   -0.226136 
3   -0.209537 
4   0.448779 
5   0.503013 
6   0.524589 
7   -0.608975 
8   -0.58009 
9   -0.588677 
10   -0.30808 
11   -0.350953 
12   -0.39366 
13   -0.393391 
14   -0.598614 
15   -0.610949 
16   -0.586692 
17   0.111361 
18   0.201551 
19   0.148223 
20   0.181576 
21   0.162598 
22   0.194268 
23   0.321816 
24   0.368131 
25   0.323312 
26   0.325316 
27   0.310209 
28   0.326846 
29   0.402494 
30   0.406832 
31   0.41166 
 
>  <lowdin_charges> 
31 
1   -0.230576 
2   -0.22484 
3   -0.227238 
4   0.062118 
5   0.077866 
6   0.099786 
7   -0.458235 
8   -0.438323 
9   -0.463794 
10   -0.138525 
11   -0.164872 
12   -0.197889 
13   -0.172324 
14   -0.387637 
15   -0.389038 
16   -0.355405 
17   0.125825 
18   0.17759 
19   0.146611 
20   0.168972 
21   0.151545 
22   0.179347 
23   0.268146 
24   0.270801 
25   0.254893 
26   0.268733 
27   0.256303 
28   0.268243 
29   0.352021 
30   0.358008 
31   0.361887 
 
$$$$ 
 
