PCCDB-ID:  55145 
public computational chemistry database (PCCDB) project, http://pccdb.org 
 
 21 20  0  0  1  0  0  0  0  0999 V2000 
    3.9025   -0.9138   -0.3674 C   0  0  0  0  0  0  0  0  0  0  0  0 
    5.1230   -0.5749    0.0548 C   0  0  0  0  0  0  0  0  0  0  0  0 
    6.4240    2.4894    0.5470 C   0  0  0  0  0  0  0  0  0  0  0  0 
    6.8614    1.2134    1.2712 C   0  0  0  0  0  0  0  0  0  0  0  0 
    7.5919    3.4383    0.1932 C   0  0  1  0  0  0  0  0  0  0  0  0 
    8.5010    2.7815   -0.8686 C   0  0  0  0  0  0  0  0  0  0  0  0 
    7.0630    4.6996   -0.3607 N   0  0  0  0  0  0  0  0  0  0  0  0 
    9.2798    1.8918   -0.6096 O   0  0  0  0  0  0  0  0  0  0  0  0 
    8.3146    3.2583   -2.1070 O   0  0  0  0  0  0  0  0  0  0  0  0 
    5.4609    0.0896    1.6655 S   0  0  0  0  0  0  0  0  0  0  0  0 
    3.7670   -1.4112   -1.3237 H   0  0  0  0  0  0  0  0  0  0  0  0 
    3.0118   -0.7296    0.2269 H   0  0  0  0  0  0  0  0  0  0  0  0 
    6.0037   -0.7657   -0.5580 H   0  0  0  0  0  0  0  0  0  0  0  0 
    5.7204    3.0372    1.1883 H   0  0  0  0  0  0  0  0  0  0  0  0 
    5.8807    2.2319   -0.3707 H   0  0  0  0  0  0  0  0  0  0  0  0 
    7.3155    1.4535    2.2385 H   0  0  0  0  0  0  0  0  0  0  0  0 
    7.6103    0.6658    0.6939 H   0  0  0  0  0  0  0  0  0  0  0  0 
    8.2085    3.5917    1.0889 H   0  0  0  0  0  0  0  0  0  0  0  0 
    6.1456    4.9176    0.0211 H   0  0  0  0  0  0  0  0  0  0  0  0 
    7.6763    5.4818   -0.1412 H   0  0  0  0  0  0  0  0  0  0  0  0 
    7.6555    3.9917   -1.9958 H   0  0  0  0  0  0  0  0  0  0  0  0 
  1  2  2  0  0  0  0 
  1 12  1  0  0  0  0 
  2 10  1  0  0  0  0 
  3 14  1  0  0  0  0 
  3  4  1  0  0  0  0 
  4 10  1  0  0  0  0 
  4 16  1  0  0  0  0 
  5  3  1  0  0  0  0 
  5 18  1  1  0  0  0 
  6  8  2  0  0  0  0 
  6  5  1  0  0  0  0 
  7 20  1  0  0  0  0 
  7 19  1  0  0  0  0 
  7  5  1  0  0  0  0 
  9 21  1  0  0  0  0 
  9  6  1  0  0  0  0 
 11  1  1  0  0  0  0 
 13  2  1  0  0  0  0 
 15  3  1  0  0  0  0 
 17  4  1  0  0  0  0 
M  END 
>  <HBA> 
4 
 
>  <HBD> 
2 
 
>  <TPSA> 
88.62 
 
>  <cid> 
55145 
 
>  <dipole> 
4.78 
 
>  <excitation_energy_1> 
4.953 
 
>  <excitation_energy_2> 
5.016 
 
>  <excitation_energy_3> 
5.26 
 
>  <excitation_energy_4> 
5.485 
 
>  <homo_energy> 
-5.927 
 
>  <homo_lumo_gap> 
6.003 
 
>  <logP> 
1.365 
 
>  <lumo_energy> 
0.076 
 
>  <melting_point> 
93.22 
 
>  <molecular_refractivity> 
42.55 
 
>  <oscillator_strength_1> 
0.0527 
 
>  <oscillator_strength_2> 
0.0307 
 
>  <oscillator_strength_3> 
0.0083 
 
>  <oscillator_strength_4> 
0.0625 
 
>  <open_babel_can_smiles> 
C=CSCC[C@@H](C(=O)O)N 
 
>  <mulliken_charges> 
21 
1   -0.323635 
2   -0.24253 
3   -0.27301 
4   -0.441778 
5   -0.068047 
6   0.6033 
7   -0.779592 
8   -0.467052 
9   -0.575444 
10   0.129263 
11   0.152792 
12   0.155623 
13   0.170187 
14   0.152052 
15   0.170011 
16   0.175789 
17   0.214526 
18   0.160425 
19   0.325107 
20   0.327554 
21   0.43446 
 
>  <lowdin_charges> 
21 
1   -0.340377 
2   -0.274455 
3   -0.281324 
4   -0.381554 
5   -0.106448 
6   0.17248 
7   -0.549982 
8   -0.261134 
9   -0.353102 
10   0.152801 
11   0.166153 
12   0.166008 
13   0.168816 
14   0.15318 
15   0.159455 
16   0.168351 
17   0.181405 
18   0.154415 
19   0.271562 
20   0.27372 
21   0.360033 
 
$$$$ 
 
