PCCDB-ID:  72279 
public computational chemistry database (PCCDB) project, http://pccdb.org 
 
 28 30  0  0  0  0  0  0  0  0999 V2000 
   -1.4194   -0.1915    0.3152 C   0  0  0  0  0  0  0  0  0  0  0  0 
   -0.5190   -1.2261    0.5744 C   0  0  0  0  0  0  0  0  0  0  0  0 
   -0.9436    1.0398   -0.1416 C   0  0  0  0  0  0  0  0  0  0  0  0 
    0.8476   -1.0326    0.3847 C   0  0  0  0  0  0  0  0  0  0  0  0 
    0.4211    1.2375   -0.3330 C   0  0  0  0  0  0  0  0  0  0  0  0 
    6.8416   -2.0363   -0.7765 C   0  0  0  0  0  0  0  0  0  0  0  0 
    5.4636   -1.9912   -0.6115 C   0  0  0  0  0  0  0  0  0  0  0  0 
    6.9531    0.3824   -0.7503 C   0  0  0  0  0  0  0  0  0  0  0  0 
    3.4204    1.6174   -0.2874 C   0  0  0  0  0  0  0  0  0  0  0  0 
    1.3367    0.2056   -0.0648 C   0  0  0  0  0  0  0  0  0  0  0  0 
    7.5932   -0.8483   -0.8462 C   0  0  0  0  0  0  0  0  0  0  0  0 
    5.5648    0.4409   -0.5845 C   0  0  0  0  0  0  0  0  0  0  0  0 
    4.8594    1.7417   -0.4752 C   0  0  0  0  0  0  0  0  0  0  0  0 
    4.8309   -0.7504   -0.5145 C   0  0  0  0  0  0  0  0  0  0  0  0 
    2.7861    0.4156   -0.2451 C   0  0  0  0  0  0  0  0  0  0  0  0 
    8.9504   -0.8526   -1.0076 O   0  0  0  0  0  0  0  0  0  0  0  0 
    5.4467    2.8219   -0.5283 O   0  0  0  0  0  0  0  0  0  0  0  0 
    3.4654   -0.7601   -0.3551 O   0  0  0  0  0  0  0  0  0  0  0  0 
   -2.4849   -0.3440    0.4633 H   0  0  0  0  0  0  0  0  0  0  0  0 
   -0.8806   -2.1879    0.9274 H   0  0  0  0  0  0  0  0  0  0  0  0 
   -1.6378    1.8469   -0.3582 H   0  0  0  0  0  0  0  0  0  0  0  0 
    1.5441   -1.8375    0.5900 H   0  0  0  0  0  0  0  0  0  0  0  0 
    0.7745    2.1901   -0.7141 H   0  0  0  0  0  0  0  0  0  0  0  0 
    7.3422   -2.9996   -0.8530 H   0  0  0  0  0  0  0  0  0  0  0  0 
    4.8728   -2.8997   -0.5574 H   0  0  0  0  0  0  0  0  0  0  0  0 
    7.5137    1.3092   -0.8019 H   0  0  0  0  0  0  0  0  0  0  0  0 
    2.8588    2.5346   -0.1619 H   0  0  0  0  0  0  0  0  0  0  0  0 
    9.2637   -1.7686   -1.0602 H   0  0  0  0  0  0  0  0  0  0  0  0 
  1 19  1  0  0  0  0 
  1  2  2  0  0  0  0 
  2 20  1  0  0  0  0 
  3  1  1  0  0  0  0 
  4  2  1  0  0  0  0 
  4 22  1  0  0  0  0 
  5  3  2  0  0  0  0 
  5 10  1  0  0  0  0 
  6  7  1  0  0  0  0 
  7 25  1  0  0  0  0 
  7 14  2  0  0  0  0 
  8 12  2  0  0  0  0 
  9 15  2  0  0  0  0 
  9 27  1  0  0  0  0 
 10  4  2  0  0  0  0 
 11  6  2  0  0  0  0 
 11  8  1  0  0  0  0 
 12 14  1  0  0  0  0 
 12 13  1  0  0  0  0 
 13  9  1  0  0  0  0 
 14 18  1  0  0  0  0 
 15 10  1  0  0  0  0 
 16 11  1  0  0  0  0 
 17 13  2  0  0  0  0 
 18 15  1  0  0  0  0 
 21  3  1  0  0  0  0 
 23  5  1  0  0  0  0 
 24  6  1  0  0  0  0 
 26  8  1  0  0  0  0 
 28 16  1  0  0  0  0 
M  END 
>  <HBA> 
3 
 
>  <HBD> 
1 
 
>  <TPSA> 
50.44 
 
>  <cid> 
72279 
 
>  <dipole> 
5.39 
 
>  <excitation_energy_1> 
3.514 
 
>  <excitation_energy_2> 
3.764 
 
>  <excitation_energy_3> 
4.258 
 
>  <excitation_energy_4> 
4.547 
 
>  <homo_energy> 
-6.008 
 
>  <homo_lumo_gap> 
4.242 
 
>  <logP> 
3.166 
 
>  <lumo_energy> 
-1.766 
 
>  <melting_point> 
161.57 
 
>  <molecular_refractivity> 
69.94 
 
>  <oscillator_strength_1> 
0.0008 
 
>  <oscillator_strength_2> 
0.0723 
 
>  <oscillator_strength_3> 
0.3991 
 
>  <oscillator_strength_4> 
0.1941 
 
>  <open_babel_can_smiles> 
Oc1ccc2c(c1)c(=O)cc(o2)c1ccccc1 
 
>  <mulliken_charges> 
28 
1   -0.119379 
2   -0.133526 
3   -0.137971 
4   -0.158601 
5   -0.164266 
6   -0.191055 
7   -0.186503 
8   -0.223083 
9   -0.272406 
10   0.073035 
11   0.362732 
12   0.057108 
13   0.426881 
14   0.301047 
15   0.330598 
16   -0.639914 
17   -0.518999 
18   -0.543659 
19   0.138268 
20   0.137947 
21   0.139991 
22   0.150844 
23   0.147734 
24   0.130706 
25   0.151169 
26   0.176864 
27   0.155638 
28   0.4088 
 
>  <lowdin_charges> 
28 
1   -0.143358 
2   -0.151673 
3   -0.152991 
4   -0.148278 
5   -0.146196 
6   -0.190599 
7   -0.164902 
8   -0.156516 
9   -0.24177 
10   -0.017074 
11   0.101169 
12   -0.051792 
13   0.137534 
14   0.089773 
15   0.125438 
16   -0.373171 
17   -0.2833 
18   -0.115107 
19   0.160515 
20   0.161715 
21   0.163966 
22   0.170007 
23   0.166272 
24   0.159795 
25   0.173041 
26   0.189521 
27   0.18065 
28   0.357331 
 
$$$$ 
 
