PCCDB-ID:  17861 
public computational chemistry database (PCCDB) project, http://pccdb.org 
 
 21 21  0  0  0  0  0  0  0  0999 V2000 
    0.3517    1.6262   -1.8106 C   0  0  0  0  0  0  0  0  0  0  0  0 
   -3.1061   -1.2784   -0.7842 C   0  0  0  0  0  0  0  0  0  0  0  0 
   -0.2445    0.3807   -1.6226 C   0  0  0  0  0  0  0  0  0  0  0  0 
   -1.6754   -1.1834   -0.2071 C   0  0  0  0  0  0  0  0  0  0  0  0 
    0.1810    2.6006   -0.8266 C   0  0  0  0  0  0  0  0  0  0  0  0 
   -4.0800   -0.2604   -0.2018 C   0  0  0  0  0  0  0  0  0  0  0  0 
   -1.0887    1.1971    0.4538 C   0  0  0  0  0  0  0  0  0  0  0  0 
   -0.9902    0.1397   -0.4635 C   0  0  0  0  0  0  0  0  0  0  0  0 
   -0.5265    2.4006    0.2922 N   0  0  0  0  0  0  0  0  0  0  0  0 
   -4.1107   -0.4330    1.2146 O   0  0  0  0  0  0  0  0  0  0  0  0 
    0.9418    1.8383   -2.6977 H   0  0  0  0  0  0  0  0  0  0  0  0 
   -3.4922   -2.2866   -0.5882 H   0  0  0  0  0  0  0  0  0  0  0  0 
   -3.0831   -1.1474   -1.8744 H   0  0  0  0  0  0  0  0  0  0  0  0 
   -0.1264   -0.4046   -2.3668 H   0  0  0  0  0  0  0  0  0  0  0  0 
   -1.0751   -1.9938   -0.6391 H   0  0  0  0  0  0  0  0  0  0  0  0 
   -1.7294   -1.3654    0.8709 H   0  0  0  0  0  0  0  0  0  0  0  0 
    0.6335    3.5849   -0.9389 H   0  0  0  0  0  0  0  0  0  0  0  0 
   -5.0783   -0.4198   -0.6398 H   0  0  0  0  0  0  0  0  0  0  0  0 
   -3.7612    0.7594   -0.4649 H   0  0  0  0  0  0  0  0  0  0  0  0 
   -1.6609    1.0526    1.3697 H   0  0  0  0  0  0  0  0  0  0  0  0 
   -4.6752    0.2605    1.5877 H   0  0  0  0  0  0  0  0  0  0  0  0 
  1  3  2  0  0  0  0 
  1  5  1  0  0  0  0 
  2 12  1  0  0  0  0 
  2  4  1  0  0  0  0 
  2  6  1  0  0  0  0 
  3  8  1  0  0  0  0 
  4 16  1  0  0  0  0 
  5  9  2  0  0  0  0 
  6 10  1  0  0  0  0 
  7 20  1  0  0  0  0 
  8  4  1  0  0  0  0 
  8  7  2  0  0  0  0 
  9  7  1  0  0  0  0 
 10 21  1  0  0  0  0 
 11  1  1  0  0  0  0 
 13  2  1  0  0  0  0 
 14  3  1  0  0  0  0 
 15  4  1  0  0  0  0 
 17  5  1  0  0  0  0 
 18  6  1  0  0  0  0 
 19  6  1  0  0  0  0 
M  END 
>  <HBA> 
2 
 
>  <HBD> 
1 
 
>  <TPSA> 
33.12 
 
>  <cid> 
17861 
 
>  <dipole> 
2.34 
 
>  <excitation_energy_1> 
4.813 
 
>  <excitation_energy_2> 
5.129 
 
>  <excitation_energy_3> 
5.348 
 
>  <excitation_energy_4> 
6.036 
 
>  <homo_energy> 
-6.68 
 
>  <homo_lumo_gap> 
6.196 
 
>  <logP> 
1.006 
 
>  <lumo_energy> 
-0.484 
 
>  <melting_point> 
39.95 
 
>  <molecular_refractivity> 
39.98 
 
>  <oscillator_strength_1> 
0.0045 
 
>  <oscillator_strength_2> 
0.0001 
 
>  <oscillator_strength_3> 
0.0551 
 
>  <oscillator_strength_4> 
0.0651 
 
>  <open_babel_can_smiles> 
OCCCc1cccnc1 
 
>  <mulliken_charges> 
21 
1   -0.137427 
2   -0.264491 
3   -0.15364 
4   -0.348462 
5   0.03443 
6   -0.036857 
7   -0.012663 
8   0.144414 
9   -0.410948 
10   -0.61889 
11   0.134018 
12   0.14902 
13   0.135181 
14   0.134147 
15   0.140526 
16   0.173931 
17   0.137828 
18   0.123588 
19   0.133775 
20   0.146453 
21   0.396067 
 
>  <lowdin_charges> 
21 
1   -0.175574 
2   -0.275588 
3   -0.143356 
4   -0.275894 
5   -0.09653 
6   -0.135173 
7   -0.104398 
8   -0.019011 
9   -0.149362 
10   -0.479062 
11   0.162508 
12   0.151121 
13   0.144629 
14   0.158998 
15   0.152089 
16   0.163625 
17   0.154106 
18   0.129347 
19   0.131243 
20   0.15808 
21   0.348202 
 
$$$$ 
 
