PCCDB-ID:  25919 
public computational chemistry database (PCCDB) project, http://pccdb.org 
 
 16 15  0  0  0  0  0  0  0  0999 V2000 
    3.6830    3.1948   -1.4194 C   0  0  0  0  0  0  0  0  0  0  0  0 
    4.4032    2.9677   -0.3213 C   0  0  0  0  0  0  0  0  0  0  0  0 
    6.1900   -0.3420    2.0312 C   0  0  0  0  0  0  0  0  0  0  0  0 
    7.4836   -0.3945    2.7087 C   0  0  0  0  0  0  0  0  0  0  0  0 
    3.8488    2.3117    0.9069 C   0  0  0  0  0  0  0  0  0  0  0  0 
    5.6769    1.0857    1.8209 C   0  0  0  0  0  0  0  0  0  0  0  0 
    8.5091   -0.4732    3.2438 N   0  0  0  0  0  0  0  0  0  0  0  0 
    6.2370    2.0933    2.1782 O   0  0  0  0  0  0  0  0  0  0  0  0 
    4.4982    1.0308    1.1760 O   0  0  0  0  0  0  0  0  0  0  0  0 
    4.1047    3.6978   -2.2851 H   0  0  0  0  0  0  0  0  0  0  0  0 
    2.6397    2.8941   -1.4932 H   0  0  0  0  0  0  0  0  0  0  0  0 
    5.4448    3.2774   -0.2653 H   0  0  0  0  0  0  0  0  0  0  0  0 
    5.4438   -0.9027    2.6071 H   0  0  0  0  0  0  0  0  0  0  0  0 
    6.2580   -0.8378    1.0555 H   0  0  0  0  0  0  0  0  0  0  0  0 
    2.7943    2.0571    0.7848 H   0  0  0  0  0  0  0  0  0  0  0  0 
    3.9784    2.9446    1.7896 H   0  0  0  0  0  0  0  0  0  0  0  0 
  1  2  2  0  0  0  0 
  2 12  1  0  0  0  0 
  2  5  1  0  0  0  0 
  3 13  1  0  0  0  0 
  3  4  1  0  0  0  0 
  4  7  3  0  0  0  0 
  5  9  1  0  0  0  0 
  5 16  1  0  0  0  0 
  6  3  1  0  0  0  0 
  6  8  2  0  0  0  0 
  9  6  1  0  0  0  0 
 10  1  1  0  0  0  0 
 11  1  1  0  0  0  0 
 14  3  1  0  0  0  0 
 15  5  1  0  0  0  0 
M  END 
>  <HBA> 
3 
 
>  <HBD> 
0 
 
>  <TPSA> 
50.09 
 
>  <cid> 
25919 
 
>  <dipole> 
5.45 
 
>  <excitation_energy_1> 
5.847 
 
>  <excitation_energy_2> 
6.47 
 
>  <excitation_energy_3> 
6.798 
 
>  <excitation_energy_4> 
6.963 
 
>  <homo_energy> 
-7.679 
 
>  <homo_lumo_gap> 
7.304 
 
>  <logP> 
0.629 
 
>  <lumo_energy> 
-0.376 
 
>  <melting_point> 
-0.82 
 
>  <molecular_refractivity> 
31.52 
 
>  <oscillator_strength_1> 
0.0006 
 
>  <oscillator_strength_2> 
0.0086 
 
>  <oscillator_strength_3> 
0.0533 
 
>  <oscillator_strength_4> 
0.0918 
 
>  <open_babel_can_smiles> 
C=CCOC(=O)CC#N 
 
>  <mulliken_charges> 
16 
1   -0.326915 
2   -0.064973 
3   -0.445475 
4   0.387663 
5   -0.101256 
6   0.636684 
7   -0.4576 
8   -0.447729 
9   -0.455949 
10   0.156601 
11   0.146969 
12   0.163942 
13   0.229371 
14   0.230332 
15   0.164533 
16   0.183803 
 
>  <lowdin_charges> 
16 
1   -0.311517 
2   -0.16047 
3   -0.299181 
4   -0.007532 
5   -0.123055 
6   0.201436 
7   -0.104158 
8   -0.239063 
9   -0.190794 
10   0.167778 
11   0.15789 
12   0.167339 
13   0.206806 
14   0.205719 
15   0.160066 
16   0.168737 
 
$$$$ 
 
