PCCDB-ID:  61178 
public computational chemistry database (PCCDB) project, http://pccdb.org 
 
 29 28  0  0  0  0  0  0  0  0999 V2000 
    1.8271   -0.4883    1.7882 C   0  0  0  0  0  0  0  0  0  0  0  0 
    3.1826   -0.2888    1.1024 C   0  0  0  0  0  0  0  0  0  0  0  0 
    3.0730    0.4027   -0.2625 C   0  0  0  0  0  0  0  0  0  0  0  0 
    4.4253    0.6089   -0.9568 C   0  0  0  0  0  0  0  0  0  0  0  0 
    4.3120    1.3084   -2.3179 C   0  0  0  0  0  0  0  0  0  0  0  0 
    5.6702    1.5205   -3.0014 C   0  0  0  0  0  0  0  0  0  0  0  0 
    5.5947    2.1799   -4.3891 C   0  0  0  0  0  0  0  0  0  0  0  0 
    5.0874    3.6178   -4.4025 C   0  0  0  0  0  0  0  0  0  0  0  0 
    5.7474    5.7668   -3.5560 N   0  0  0  0  0  0  0  0  0  0  0  0 
    4.7341    6.1556   -4.1040 O   0  0  0  0  0  0  0  0  0  0  0  0 
    6.5662    6.3890   -2.9225 O   0  0  0  0  0  0  0  0  0  0  0  0 
    6.0544    4.3928   -3.6473 O   0  0  0  0  0  0  0  0  0  0  0  0 
    1.9387   -0.9826    2.7599 H   0  0  0  0  0  0  0  0  0  0  0  0 
    1.1595   -1.1061    1.1748 H   0  0  0  0  0  0  0  0  0  0  0  0 
    1.3241    0.4716    1.9586 H   0  0  0  0  0  0  0  0  0  0  0  0 
    3.6760   -1.2631    0.9766 H   0  0  0  0  0  0  0  0  0  0  0  0 
    3.8399    0.3024    1.7556 H   0  0  0  0  0  0  0  0  0  0  0  0 
    2.5780    1.3771   -0.1352 H   0  0  0  0  0  0  0  0  0  0  0  0 
    2.4145   -0.1886   -0.9164 H   0  0  0  0  0  0  0  0  0  0  0  0 
    4.9190   -0.3653   -1.0892 H   0  0  0  0  0  0  0  0  0  0  0  0 
    5.0846    1.1971   -0.3018 H   0  0  0  0  0  0  0  0  0  0  0  0 
    3.8053    2.2736   -2.1764 H   0  0  0  0  0  0  0  0  0  0  0  0 
    3.6612    0.7156   -2.9784 H   0  0  0  0  0  0  0  0  0  0  0  0 
    6.1658    0.5472   -3.1169 H   0  0  0  0  0  0  0  0  0  0  0  0 
    6.3207    2.1196   -2.3518 H   0  0  0  0  0  0  0  0  0  0  0  0 
    4.9228    1.6036   -5.0404 H   0  0  0  0  0  0  0  0  0  0  0  0 
    6.5835    2.1583   -4.8634 H   0  0  0  0  0  0  0  0  0  0  0  0 
    4.1043    3.7220   -3.9353 H   0  0  0  0  0  0  0  0  0  0  0  0 
    5.0309    4.0147   -5.4203 H   0  0  0  0  0  0  0  0  0  0  0  0 
  1 15  1  0  0  0  0 
  1 13  1  0  0  0  0 
  2 17  1  0  0  0  0 
  2  1  1  0  0  0  0 
  3 18  1  0  0  0  0 
  3  2  1  0  0  0  0 
  4 21  1  0  0  0  0 
  4  3  1  0  0  0  0 
  5 22  1  0  0  0  0 
  5  4  1  0  0  0  0 
  6 25  1  0  0  0  0 
  6  5  1  0  0  0  0 
  7  6  1  0  0  0  0 
  8  7  1  0  0  0  0 
  8 28  1  0  0  0  0 
  8 12  1  0  0  0  0 
  9 11  2  0  0  0  0 
 10  9  2  0  0  0  0 
 12  9  1  0  0  0  0 
 14  1  1  0  0  0  0 
 16  2  1  0  0  0  0 
 19  3  1  0  0  0  0 
 20  4  1  0  0  0  0 
 23  5  1  0  0  0  0 
 24  6  1  0  0  0  0 
 26  7  1  0  0  0  0 
 27  7  1  0  0  0  0 
 29  8  1  0  0  0  0 
M  END 
>  <HBA> 
0 
 
>  <HBD> 
0 
 
>  <TPSA> 
55.05 
 
>  <cid> 
61178 
 
>  <dipole> 
3.47 
 
>  <excitation_energy_1> 
4.699 
 
>  <excitation_energy_2> 
5.633 
 
>  <excitation_energy_3> 
5.856 
 
>  <excitation_energy_4> 
6.17 
 
>  <homo_energy> 
-8.384 
 
>  <homo_lumo_gap> 
6.719 
 
>  <logP> 
3.078 
 
>  <lumo_energy> 
-1.665 
 
>  <melting_point> 
-3.74 
 
>  <molecular_refractivity> 
49.76 
 
>  <oscillator_strength_1> 
0.0 
 
>  <oscillator_strength_2> 
0.0004 
 
>  <oscillator_strength_3> 
0.013 
 
>  <oscillator_strength_4> 
0.0555 
 
>  <open_babel_can_smiles> 
CCCCCCCCON(=O)=O 
 
>  <mulliken_charges> 
29 
1   -0.441679 
2   -0.247614 
3   -0.247151 
4   -0.253874 
5   -0.260526 
6   -0.260942 
7   -0.294162 
8   -0.039516 
9   0.751017 
10   -0.372089 
11   -0.358509 
12   -0.38025 
13   0.142891 
14   0.141114 
15   0.1422 
16   0.130479 
17   0.131991 
18   0.12803 
19   0.126478 
20   0.128928 
21   0.132808 
22   0.132167 
23   0.127705 
24   0.1374 
25   0.156273 
26   0.148659 
27   0.157593 
28   0.171731 
29   0.168847 
 
>  <lowdin_charges> 
29 
1   -0.445341 
2   -0.273352 
3   -0.275826 
4   -0.274737 
5   -0.278899 
6   -0.280058 
7   -0.282385 
8   -0.138465 
9   0.378141 
10   -0.223903 
11   -0.20157 
12   -0.184354 
13   0.149565 
14   0.147518 
15   0.146624 
16   0.138641 
17   0.141141 
18   0.137583 
19   0.138646 
20   0.138187 
21   0.142 
22   0.138079 
23   0.138841 
24   0.146134 
25   0.152965 
26   0.156402 
27   0.156542 
28   0.155166 
29   0.156716 
 
$$$$ 
 
