PCCDB-ID:  6715 
public computational chemistry database (PCCDB) project, http://pccdb.org 
 
 32 34  0  0  1  0  0  0  0  0999 V2000 
    1.0572   -0.2836   -0.1010 C   0  0  0  0  0  0  0  0  0  0  0  0 
    4.5206    4.8959    0.6659 C   0  0  0  0  0  0  0  0  0  0  0  0 
    4.5877   -1.2611    0.6555 C   0  0  0  0  0  0  0  0  0  0  0  0 
    3.0802   -1.2326    0.9036 C   0  0  0  0  0  0  0  0  0  0  0  0 
    6.5960    0.2241    1.0538 C   0  0  0  0  0  0  0  0  0  0  0  0 
    8.4357    3.2774    1.3472 C   0  0  0  0  0  0  0  0  0  0  0  0 
    5.2072    0.1078    0.8397 C   0  0  0  0  0  0  0  0  0  0  0  0 
    7.1060    1.4945    1.2033 C   0  0  0  0  0  0  0  0  0  0  0  0 
    4.3948    1.2442    0.7707 C   0  0  0  0  0  0  0  0  0  0  0  0 
    6.3088    2.6369    1.1708 C   0  0  0  0  0  0  0  0  0  0  0  0 
    4.9414    2.5386    0.9632 C   0  0  0  0  0  0  0  0  0  0  0  0 
    2.8929    1.1530    0.5352 C   0  0  1  0  0  0  0  0  0  0  0  0 
    2.4956   -0.1576    0.1024 N   0  0  0  0  0  0  0  0  0  0  0  0 
    2.1752    1.5191    1.7345 O   0  0  0  0  0  0  0  0  0  0  0  0 
    4.0495    3.5815    0.9728 O   0  0  0  0  0  0  0  0  0  0  0  0 
    8.4077    1.8563    1.4745 O   0  0  0  0  0  0  0  0  0  0  0  0 
    7.0890    3.7507    1.4438 O   0  0  0  0  0  0  0  0  0  0  0  0 
    0.8504   -1.2289   -0.6154 H   0  0  0  0  0  0  0  0  0  0  0  0 
    0.7106    0.5350   -0.7418 H   0  0  0  0  0  0  0  0  0  0  0  0 
    0.4733   -0.2531    0.8319 H   0  0  0  0  0  0  0  0  0  0  0  0 
    3.6270    5.5199    0.6009 H   0  0  0  0  0  0  0  0  0  0  0  0 
    5.0463    4.9060   -0.2958 H   0  0  0  0  0  0  0  0  0  0  0  0 
    5.1856    5.2768    1.4452 H   0  0  0  0  0  0  0  0  0  0  0  0 
    4.7678   -1.6090   -0.3715 H   0  0  0  0  0  0  0  0  0  0  0  0 
    5.0704   -1.9822    1.3271 H   0  0  0  0  0  0  0  0  0  0  0  0 
    2.8637   -1.1145    1.9791 H   0  0  0  0  0  0  0  0  0  0  0  0 
    2.6343   -2.1799    0.5814 H   0  0  0  0  0  0  0  0  0  0  0  0 
    7.2360   -0.6502    1.1076 H   0  0  0  0  0  0  0  0  0  0  0  0 
    8.8529    3.5510    0.3657 H   0  0  0  0  0  0  0  0  0  0  0  0 
    9.0267    3.7056    2.1600 H   0  0  0  0  0  0  0  0  0  0  0  0 
    2.6124    1.8609   -0.2584 H   0  0  0  0  0  0  0  0  0  0  0  0 
    2.4042    2.4474    1.9079 H   0  0  0  0  0  0  0  0  0  0  0  0 
  1 13  1  0  0  0  0 
  1 20  1  0  0  0  0 
  2 15  1  0  0  0  0 
  2 23  1  0  0  0  0 
  3  7  1  0  0  0  0 
  3  4  1  0  0  0  0 
  3 25  1  0  0  0  0 
  4 26  1  0  0  0  0 
  5 28  1  0  0  0  0 
  5  8  2  0  0  0  0 
  6 17  1  0  0  0  0 
  6 16  1  0  0  0  0 
  6 30  1  0  0  0  0 
  7  5  1  0  0  0  0 
  8 16  1  0  0  0  0 
  9  7  2  0  0  0  0 
  9 11  1  0  0  0  0 
 10  8  1  0  0  0  0 
 10 17  1  0  0  0  0 
 11 15  1  0  0  0  0 
 11 10  2  0  0  0  0 
 12 31  1  6  0  0  0 
 12  9  1  0  0  0  0 
 12 14  1  0  0  0  0 
 13 12  1  0  0  0  0 
 13  4  1  0  0  0  0 
 14 32  1  0  0  0  0 
 18  1  1  0  0  0  0 
 19  1  1  0  0  0  0 
 21  2  1  0  0  0  0 
 22  2  1  0  0  0  0 
 24  3  1  0  0  0  0 
 27  4  1  0  0  0  0 
 29  6  1  0  0  0  0 
M  END 
>  <HBA> 
5 
 
>  <HBD> 
1 
 
>  <TPSA> 
51.16 
 
>  <cid> 
6715 
 
>  <dipole> 
2.81 
 
>  <excitation_energy_1> 
4.738 
 
>  <excitation_energy_2> 
5.014 
 
>  <excitation_energy_3> 
5.051 
 
>  <excitation_energy_4> 
5.075 
 
>  <homo_energy> 
-5.497 
 
>  <homo_lumo_gap> 
5.685 
 
>  <logP> 
0.841 
 
>  <lumo_energy> 
0.188 
 
>  <melting_point> 
96.06 
 
>  <molecular_refractivity> 
64.4 
 
>  <oscillator_strength_1> 
0.0374 
 
>  <oscillator_strength_2> 
0.0025 
 
>  <oscillator_strength_3> 
0.0062 
 
>  <oscillator_strength_4> 
0.006 
 
>  <open_babel_can_smiles> 
COc1c2c(CCN([C@H]2O)C)cc2c1OCO2 
 
>  <mulliken_charges> 
32 
1   -0.287091 
2   -0.216154 
3   -0.334367 
4   -0.138717 
5   -0.253094 
6   0.191566 
7   0.106576 
8   0.344297 
9   0.026759 
10   0.282777 
11   0.274495 
12   0.210905 
13   -0.410918 
14   -0.648951 
15   -0.550373 
16   -0.531875 
17   -0.54827 
18   0.139287 
19   0.142368 
20   0.149094 
21   0.165223 
22   0.156636 
23   0.176336 
24   0.158011 
25   0.141212 
26   0.144421 
27   0.132462 
28   0.135314 
29   0.147532 
30   0.16665 
31   0.126447 
32   0.401441 
 
>  <lowdin_charges> 
32 
1   -0.353488 
2   -0.275935 
3   -0.275935 
4   -0.195734 
5   -0.206755 
6   0.015428 
7   0.003345 
8   0.08177 
9   -0.061138 
10   0.025869 
11   0.071029 
12   0.049966 
13   -0.175726 
14   -0.491672 
15   -0.215705 
16   -0.207225 
17   -0.220904 
18   0.144564 
19   0.150226 
20   0.139156 
21   0.16046 
22   0.150204 
23   0.159547 
24   0.156109 
25   0.152828 
26   0.132467 
27   0.145831 
28   0.168566 
29   0.136051 
30   0.158923 
31   0.136107 
32   0.341773 
 
$$$$ 
 
