PCCDB-ID:  46464 
public computational chemistry database (PCCDB) project, http://pccdb.org 
 
 34 35  0  0  1  0  0  0  0  0999 V2000 
    0.8090   -0.1844    0.5703 C   0  0  0  0  0  0  0  0  0  0  0  0 
    4.4541   -0.3060    1.5970 C   0  0  0  0  0  0  0  0  0  0  0  0 
    4.0115   -0.8467   -5.5664 C   0  0  0  0  0  0  0  0  0  0  0  0 
    3.2868   -2.8357   -1.9196 C   0  0  0  0  0  0  0  0  0  0  0  0 
    2.0705    2.1253   -1.2116 C   0  0  0  0  0  0  0  0  0  0  0  0 
    2.8597    1.4483   -2.3356 C   0  0  0  0  0  0  0  0  0  0  0  0 
    2.9137   -2.0824   -0.8161 C   0  0  0  0  0  0  0  0  0  0  0  0 
    3.5267   -2.2194   -3.1513 C   0  0  0  0  0  0  0  0  0  0  0  0 
    2.5410    1.6134    0.1516 C   0  0  0  0  0  0  0  0  0  0  0  0 
    2.9922   -0.0504   -2.1456 C   0  0  0  0  0  0  0  0  0  0  0  0 
    2.7645   -0.6873   -0.9163 C   0  0  0  0  0  0  0  0  0  0  0  0 
    3.3859   -0.8358   -3.2542 C   0  0  0  0  0  0  0  0  0  0  0  0 
    2.3112    0.0919    0.3322 C   0  0  2  0  0  0  0  0  0  0  0  0 
    3.0032   -0.4542    1.5234 N   0  0  0  0  0  0  0  0  0  0  0  0 
    3.6138   -0.1323   -4.4099 O   0  0  0  0  0  0  0  0  0  0  0  0 
    0.1982    0.1526   -0.2717 H   0  0  0  0  0  0  0  0  0  0  0  0 
    0.4623    0.3399    1.4716 H   0  0  0  0  0  0  0  0  0  0  0  0 
    0.6394   -1.2554    0.7109 H   0  0  0  0  0  0  0  0  0  0  0  0 
    4.8050   -0.7919    2.5141 H   0  0  0  0  0  0  0  0  0  0  0  0 
    4.8288    0.7320    1.6033 H   0  0  0  0  0  0  0  0  0  0  0  0 
    4.9151   -0.8230    0.7500 H   0  0  0  0  0  0  0  0  0  0  0  0 
    4.1394   -0.0990   -6.3518 H   0  0  0  0  0  0  0  0  0  0  0  0 
    3.2478   -1.5720   -5.8782 H   0  0  0  0  0  0  0  0  0  0  0  0 
    4.9623   -1.3737   -5.4101 H   0  0  0  0  0  0  0  0  0  0  0  0 
    3.3999   -3.9133   -1.8313 H   0  0  0  0  0  0  0  0  0  0  0  0 
    0.9983    1.9288   -1.3399 H   0  0  0  0  0  0  0  0  0  0  0  0 
    2.1945    3.2136   -1.2744 H   0  0  0  0  0  0  0  0  0  0  0  0 
    3.8665    1.8900   -2.3960 H   0  0  0  0  0  0  0  0  0  0  0  0 
    2.3984    1.6533   -3.3077 H   0  0  0  0  0  0  0  0  0  0  0  0 
    2.7491   -2.5540    0.1468 H   0  0  0  0  0  0  0  0  0  0  0  0 
    3.8203   -2.8175   -4.0063 H   0  0  0  0  0  0  0  0  0  0  0  0 
    2.0320    2.1452    0.9673 H   0  0  0  0  0  0  0  0  0  0  0  0 
    3.6115    1.8343    0.2503 H   0  0  0  0  0  0  0  0  0  0  0  0 
    2.5776   -0.0430    2.3522 H   0  0  0  0  0  0  0  0  0  0  0  0 
  1 18  1  0  0  0  0 
  1 17  1  0  0  0  0 
  2 20  1  0  0  0  0 
  2 19  1  0  0  0  0 
  3 24  1  0  0  0  0 
  3 15  1  0  0  0  0 
  4 25  1  0  0  0  0 
  4  7  2  0  0  0  0 
  5  9  1  0  0  0  0 
  6 10  1  0  0  0  0 
  6  5  1  0  0  0  0 
  7 30  1  0  0  0  0 
  8  4  1  0  0  0  0 
  9 33  1  0  0  0  0 
  9 13  1  0  0  0  0 
  9 32  1  0  0  0  0 
 10 11  2  0  0  0  0 
 11  7  1  0  0  0  0 
 11 13  1  0  0  0  0 
 12  8  2  0  0  0  0 
 12 10  1  0  0  0  0 
 13  1  1  1  0  0  0 
 13 14  1  0  0  0  0 
 14  2  1  0  0  0  0 
 14 34  1  0  0  0  0 
 15 12  1  0  0  0  0 
 16  1  1  0  0  0  0 
 21  2  1  0  0  0  0 
 22  3  1  0  0  0  0 
 23  3  1  0  0  0  0 
 26  5  1  0  0  0  0 
 27  5  1  0  0  0  0 
 28  6  1  0  0  0  0 
 29  6  1  0  0  0  0 
 31  8  1  0  0  0  0 
M  END 
>  <HBA> 
2 
 
>  <HBD> 
1 
 
>  <TPSA> 
21.26 
 
>  <cid> 
46464 
 
>  <dipole> 
0.88 
 
>  <excitation_energy_1> 
4.943 
 
>  <excitation_energy_2> 
5.044 
 
>  <excitation_energy_3> 
5.225 
 
>  <excitation_energy_4> 
5.29 
 
>  <homo_energy> 
-5.589 
 
>  <homo_lumo_gap> 
5.872 
 
>  <logP> 
2.857 
 
>  <lumo_energy> 
0.283 
 
>  <melting_point> 
72.15 
 
>  <molecular_refractivity> 
62.66 
 
>  <oscillator_strength_1> 
0.0331 
 
>  <oscillator_strength_2> 
0.0033 
 
>  <oscillator_strength_3> 
0.0007 
 
>  <oscillator_strength_4> 
0.0013 
 
>  <open_babel_can_smiles> 
CN[C@@]1(C)CCCc2c1cccc2OC 
 
>  <mulliken_charges> 
34 
1   -0.449332 
2   -0.307421 
3   -0.211471 
4   -0.141409 
5   -0.274413 
6   -0.324026 
7   -0.177758 
8   -0.196538 
9   -0.281281 
10   0.044393 
11   0.081506 
12   0.320413 
13   0.145256 
14   -0.557938 
15   -0.511865 
16   0.150561 
17   0.12822 
18   0.159526 
19   0.144336 
20   0.122646 
21   0.163231 
22   0.165962 
23   0.150365 
24   0.150418 
25   0.122923 
26   0.137781 
27   0.130039 
28   0.148033 
29   0.156072 
30   0.142827 
31   0.125312 
32   0.118157 
33   0.137097 
34   0.288381 
 
>  <lowdin_charges> 
34 
1   -0.442768 
2   -0.366728 
3   -0.279229 
4   -0.152116 
5   -0.273326 
6   -0.272609 
7   -0.179797 
8   -0.219121 
9   -0.289775 
10   -0.040817 
11   -0.013331 
12   0.092597 
13   0.064729 
14   -0.36023 
15   -0.20278 
16   0.154248 
17   0.141497 
18   0.157541 
19   0.14973 
20   0.120752 
21   0.156887 
22   0.161435 
23   0.145129 
24   0.143998 
25   0.152776 
26   0.139036 
27   0.142613 
28   0.15028 
29   0.158262 
30   0.166351 
31   0.160309 
32   0.139631 
33   0.142712 
34   0.252115 
 
$$$$ 
 
