PCCDB-ID:  67510 
public computational chemistry database (PCCDB) project, http://pccdb.org 
 
 16 17  0  0  1  0  0  0  0  0999 V2000 
    0.7315    1.2811    0.3698 C   0  0  0  0  0  0  0  0  0  0  0  0 
    1.4132    0.0052   -0.1831 C   0  0  0  0  0  0  0  0  0  0  0  0 
   -0.7177    1.2362   -0.1734 C   0  0  0  0  0  0  0  0  0  0  0  0 
   -0.6802   -1.1679    0.8145 C   0  0  0  0  0  0  0  0  0  0  0  0 
    0.2831   -1.0057   -0.3385 C   0  0  1  0  0  0  0  0  0  0  0  0 
   -1.0299   -0.2474   -0.3317 C   0  0  2  0  0  0  0  0  0  0  0  0 
    1.2590    2.1961    0.0809 H   0  0  0  0  0  0  0  0  0  0  0  0 
    0.7231    1.2588    1.4654 H   0  0  0  0  0  0  0  0  0  0  0  0 
    2.2246   -0.3453    0.4674 H   0  0  0  0  0  0  0  0  0  0  0  0 
    1.8532    0.2039   -1.1696 H   0  0  0  0  0  0  0  0  0  0  0  0 
   -0.7726    1.7201   -1.1578 H   0  0  0  0  0  0  0  0  0  0  0  0 
   -1.4220    1.7618    0.4839 H   0  0  0  0  0  0  0  0  0  0  0  0 
   -0.4306   -0.7463    1.7863 H   0  0  0  0  0  0  0  0  0  0  0  0 
   -1.2229   -2.1075    0.8760 H   0  0  0  0  0  0  0  0  0  0  0  0 
    0.4359   -1.8546   -1.0005 H   0  0  0  0  0  0  0  0  0  0  0  0 
   -1.8466   -0.5366   -0.9888 H   0  0  0  0  0  0  0  0  0  0  0  0 
  1  8  1  0  0  0  0 
  2  1  1  0  0  0  0 
  2  9  1  0  0  0  0 
  3  1  1  0  0  0  0 
  3 12  1  0  0  0  0 
  4 14  1  0  0  0  0 
  4 13  1  0  0  0  0 
  5 15  1  6  0  0  0 
  5  6  1  0  0  0  0 
  5  2  1  0  0  0  0 
  5  4  1  0  0  0  0 
  6 16  1  6  0  0  0 
  6  3  1  0  0  0  0 
  6  4  1  0  0  0  0 
  7  1  1  0  0  0  0 
 10  2  1  0  0  0  0 
 11  3  1  0  0  0  0 
M  END 
>  <HBA> 
0 
 
>  <HBD> 
0 
 
>  <TPSA> 
0.0 
 
>  <cid> 
67510 
 
>  <dipole> 
0.18 
 
>  <excitation_energy_1> 
6.594 
 
>  <excitation_energy_2> 
6.91 
 
>  <excitation_energy_3> 
7.072 
 
>  <excitation_energy_4> 
7.174 
 
>  <homo_energy> 
-7.083 
 
>  <homo_lumo_gap> 
9.578 
 
>  <logP> 
1.806 
 
>  <lumo_energy> 
2.495 
 
>  <melting_point> 
18.59 
 
>  <molecular_refractivity> 
26.73 
 
>  <oscillator_strength_1> 
0.0084 
 
>  <oscillator_strength_2> 
0.0005 
 
>  <oscillator_strength_3> 
0.0201 
 
>  <oscillator_strength_4> 
0.0001 
 
>  <open_babel_can_smiles> 
C1C[C@@H]2[C@H](C1)C2 
 
>  <mulliken_charges> 
16 
1   -0.307531 
2   -0.246994 
3   -0.24714 
4   -0.319024 
5   -0.120982 
6   -0.121001 
7   0.137526 
8   0.140924 
9   0.134062 
10   0.133064 
11   0.133089 
12   0.134105 
13   0.143532 
14   0.143758 
15   0.131292 
16   0.131322 
 
>  <lowdin_charges> 
16 
1   -0.283952 
2   -0.272328 
3   -0.273146 
4   -0.322509 
5   -0.163007 
6   -0.163399 
7   0.148267 
8   0.140838 
9   0.144304 
10   0.142808 
11   0.142757 
12   0.144776 
13   0.153018 
14   0.159125 
15   0.151084 
16   0.151363 
 
$$$$ 
 
