PCCDB-ID:  48714 
public computational chemistry database (PCCDB) project, http://pccdb.org 
 
 29 30  0  0  1  0  0  0  0  0999 V2000 
    1.2668    1.3833    0.9465 C   0  0  0  0  0  0  0  0  0  0  0  0 
    2.0273    3.5031   -1.3872 C   0  0  0  0  0  0  0  0  0  0  0  0 
    1.0223    2.6419   -3.4280 C   0  0  0  0  0  0  0  0  0  0  0  0 
    1.5915   -0.0804   -2.9393 C   0  0  0  0  0  0  0  0  0  0  0  0 
    2.9440    0.4749   -3.6204 C   0  0  0  0  0  0  0  0  0  0  0  0 
    2.1128    0.7474   -0.1650 C   0  0  1  0  0  0  0  0  0  0  0  0 
    1.7425    0.8185   -1.6648 C   0  0  2  0  0  0  0  0  0  0  0  0 
    3.3820    1.7726   -2.7648 C   0  0  1  0  0  0  0  0  0  0  0  0 
    3.6263    1.3016   -0.3677 C   0  0  0  0  0  0  0  0  0  0  0  0 
    1.9999    2.2525   -2.2952 C   0  0  0  0  0  0  0  0  0  0  0  0 
    4.1963    1.5686   -1.4890 N   0  0  0  0  0  0  0  0  0  0  0  0 
    4.3747    1.4205    0.7620 O   0  0  0  0  0  0  0  0  0  0  0  0 
    0.3151    0.8471    1.0243 H   0  0  0  0  0  0  0  0  0  0  0  0 
    1.0475    2.4357    0.7643 H   0  0  0  0  0  0  0  0  0  0  0  0 
    1.7554    1.3100    1.9289 H   0  0  0  0  0  0  0  0  0  0  0  0 
    1.0105    3.7812   -1.0851 H   0  0  0  0  0  0  0  0  0  0  0  0 
    2.4296    4.3444   -1.9646 H   0  0  0  0  0  0  0  0  0  0  0  0 
    2.6387    3.4282   -0.4883 H   0  0  0  0  0  0  0  0  0  0  0  0 
   -0.0007    2.7115   -3.0381 H   0  0  0  0  0  0  0  0  0  0  0  0 
    1.0061    1.9563   -4.2754 H   0  0  0  0  0  0  0  0  0  0  0  0 
    1.2878    3.6296   -3.8232 H   0  0  0  0  0  0  0  0  0  0  0  0 
    1.6888   -1.1451   -2.7054 H   0  0  0  0  0  0  0  0  0  0  0  0 
    0.6917    0.0519   -3.5480 H   0  0  0  0  0  0  0  0  0  0  0  0 
    2.8233    0.7598   -4.6710 H   0  0  0  0  0  0  0  0  0  0  0  0 
    3.7250   -0.2921   -3.5776 H   0  0  0  0  0  0  0  0  0  0  0  0 
    2.2538   -0.3126    0.1045 H   0  0  0  0  0  0  0  0  0  0  0  0 
    2.7223    0.3898   -1.7302 H   0  0  0  0  0  0  0  0  0  0  0  0 
    3.9754    2.4529   -3.3878 H   0  0  0  0  0  0  0  0  0  0  0  0 
    3.8692    1.0627    1.5087 H   0  0  0  0  0  0  0  0  0  0  0  0 
  1 13  1  0  0  0  0 
  1 15  1  0  0  0  0 
  2 16  1  0  0  0  0 
  2 18  1  0  0  0  0 
  3 19  1  0  0  0  0 
  3 10  1  0  0  0  0 
  4 22  1  0  0  0  0 
  4  7  1  0  0  0  0 
  5 25  1  0  0  0  0 
  5  4  1  0  0  0  0 
  5  8  1  0  0  0  0 
  6 26  1  1  0  0  0 
  6  1  1  0  0  0  0 
  7 27  1  6  0  0  0 
  7  6  1  0  0  0  0 
  8 28  1  6  0  0  0 
  8 10  1  0  0  0  0 
  8 11  1  0  0  0  0 
  9  6  1  0  0  0  0 
  9 12  1  0  0  0  0 
 10  7  1  0  0  0  0 
 10  2  1  0  0  0  0 
 11  9  2  0  0  0  0 
 12 29  1  0  0  0  0 
 14  1  1  0  0  0  0 
 17  2  1  0  0  0  0 
 20  3  1  0  0  0  0 
 21  3  1  0  0  0  0 
 23  4  1  0  0  0  0 
 24  5  1  0  0  0  0 
M  END 
>  <HBA> 
2 
 
>  <HBD> 
1 
 
>  <TPSA> 
29.1 
 
>  <cid> 
48714 
 
>  <dipole> 
3.05 
 
>  <excitation_energy_1> 
5.175 
 
>  <excitation_energy_2> 
5.219 
 
>  <excitation_energy_3> 
5.488 
 
>  <excitation_energy_4> 
5.599 
 
>  <homo_energy> 
-6.136 
 
>  <homo_lumo_gap> 
6.607 
 
>  <logP> 
1.886 
 
>  <lumo_energy> 
0.471 
 
>  <melting_point> 
83.19 
 
>  <molecular_refractivity> 
52.61 
 
>  <oscillator_strength_1> 
0.002 
 
>  <oscillator_strength_2> 
0.0032 
 
>  <oscillator_strength_3> 
0.0004 
 
>  <oscillator_strength_4> 
0.0068 
 
>  <open_babel_can_smiles> 
OC1=N[C@H]2CC[C@H]([C@@H]1C)C2(C)C 
 
>  <mulliken_charges> 
29 
1   -0.457292 
2   -0.472669 
3   -0.466165 
4   -0.312873 
5   -0.305711 
6   -0.213066 
7   -0.137171 
8   -0.028328 
9   0.440367 
10   0.112759 
11   -0.415865 
12   -0.587259 
13   0.162476 
14   0.17157 
15   0.123437 
16   0.139651 
17   0.14545 
18   0.16246 
19   0.14394 
20   0.147652 
21   0.141101 
22   0.14207 
23   0.142667 
24   0.142345 
25   0.153431 
26   0.1543 
27   0.236999 
28   0.124501 
29   0.409225 
 
>  <lowdin_charges> 
29 
1   -0.451037 
2   -0.448971 
3   -0.44534 
4   -0.276202 
5   -0.305678 
6   -0.156161 
7   -0.20511 
8   -0.067612 
9   0.104964 
10   -0.006434 
11   -0.241336 
12   -0.353472 
13   0.162065 
14   0.163049 
15   0.13831 
16   0.145308 
17   0.153606 
18   0.157506 
19   0.149751 
20   0.152873 
21   0.149445 
22   0.147441 
23   0.142595 
24   0.146514 
25   0.15465 
26   0.154654 
27   0.236337 
28   0.141807 
29   0.356478 
 
$$$$ 
 
