PCCDB-ID:  12585 
public computational chemistry database (PCCDB) project, http://pccdb.org 
 
 15 14  0  0  0  0  0  0  0  0999 V2000 
    0.8895   -0.1461   -0.0993 C   0  0  0  0  0  0  0  0  0  0  0  0 
    5.3735    0.7198    1.6256 C   0  0  0  0  0  0  0  0  0  0  0  0 
    2.3878   -0.2498   -0.1400 C   0  0  0  0  0  0  0  0  0  0  0  0 
    4.6861   -0.4435    0.8899 C   0  0  0  0  0  0  0  0  0  0  0  0 
    3.1843   -0.3524    0.9273 C   0  0  0  0  0  0  0  0  0  0  0  0 
    0.5402    0.7804   -0.5754 H   0  0  0  0  0  0  0  0  0  0  0  0 
    0.5138   -0.1601    0.9296 H   0  0  0  0  0  0  0  0  0  0  0  0 
    0.4161   -0.9744   -0.6442 H   0  0  0  0  0  0  0  0  0  0  0  0 
    6.4638    0.6087    1.6080 H   0  0  0  0  0  0  0  0  0  0  0  0 
    5.0591    0.7643    2.6754 H   0  0  0  0  0  0  0  0  0  0  0  0 
    5.1203    1.6799    1.1623 H   0  0  0  0  0  0  0  0  0  0  0  0 
    2.8423   -0.2407   -1.1331 H   0  0  0  0  0  0  0  0  0  0  0  0 
    5.0077   -1.3891    1.3524 H   0  0  0  0  0  0  0  0  0  0  0  0 
    5.0274   -0.4759   -0.1528 H   0  0  0  0  0  0  0  0  0  0  0  0 
    2.7318   -0.3564    1.9223 H   0  0  0  0  0  0  0  0  0  0  0  0 
  1  7  1  0  0  0  0 
  2 10  1  0  0  0  0 
  3  1  1  0  0  0  0 
  3  5  2  0  0  0  0 
  4  5  1  0  0  0  0 
  4 13  1  0  0  0  0 
  4  2  1  0  0  0  0 
  5 15  1  0  0  0  0 
  6  1  1  0  0  0  0 
  8  1  1  0  0  0  0 
  9  2  1  0  0  0  0 
 11  2  1  0  0  0  0 
 12  3  1  0  0  0  0 
 14  4  1  0  0  0  0 
M  END 
>  <HBA> 
0 
 
>  <HBD> 
0 
 
>  <TPSA> 
0.0 
 
>  <cid> 
12585 
 
>  <dipole> 
0.04 
 
>  <excitation_energy_1> 
6.142 
 
>  <excitation_energy_2> 
6.416 
 
>  <excitation_energy_3> 
6.54 
 
>  <excitation_energy_4> 
6.804 
 
>  <homo_energy> 
-6.403 
 
>  <homo_lumo_gap> 
7.317 
 
>  <logP> 
1.972 
 
>  <lumo_energy> 
0.914 
 
>  <melting_point> 
-16.11 
 
>  <molecular_refractivity> 
25.68 
 
>  <oscillator_strength_1> 
0.0281 
 
>  <oscillator_strength_2> 
0.0623 
 
>  <oscillator_strength_3> 
0.0004 
 
>  <oscillator_strength_4> 
0.1903 
 
>  <open_babel_can_smiles> 
CC/C=C/C 
 
>  <mulliken_charges> 
15 
1   -0.485618 
2   -0.438777 
3   -0.09268 
4   -0.294936 
5   -0.08095 
6   0.15261 
7   0.150474 
8   0.152711 
9   0.141675 
10   0.142459 
11   0.149115 
12   0.115545 
13   0.140056 
14   0.136981 
15   0.111335 
 
>  <lowdin_charges> 
15 
1   -0.439553 
2   -0.439419 
3   -0.167704 
4   -0.267002 
5   -0.169539 
6   0.155344 
7   0.152661 
8   0.156074 
9   0.146755 
10   0.145658 
11   0.149924 
12   0.144127 
13   0.14645 
14   0.143695 
15   0.14253 
 
$$$$ 
 
