PCCDB-ID:  41124 
public computational chemistry database (PCCDB) project, http://pccdb.org 
 
 26 26  0  0  1  0  0  0  0  0999 V2000 
    2.3737    1.4848    0.2286 C   0  0  0  0  0  0  0  0  0  0  0  0 
    1.3008   -0.7677    0.4690 C   0  0  0  0  0  0  0  0  0  0  0  0 
    4.9056    0.5939   -2.9227 C   0  0  0  0  0  0  0  0  0  0  0  0 
    3.3109   -1.9403   -1.5279 C   0  0  0  0  0  0  0  0  0  0  0  0 
    4.6729   -2.3248   -0.9338 C   0  0  0  0  0  0  0  0  0  0  0  0 
    2.6079   -0.0332    0.1280 C   0  0  0  0  0  0  0  0  0  0  0  0 
    4.6159    0.1135   -1.4883 C   0  0  1  0  0  0  0  0  0  0  0  0 
    3.1697   -0.4107   -1.2712 C   0  0  1  0  0  0  0  0  0  0  0  0 
    5.5303   -1.0765   -1.1443 C   0  0  0  0  0  0  0  0  0  0  0  0 
    6.7397   -1.0224   -1.0785 O   0  0  0  0  0  0  0  0  0  0  0  0 
    2.0301    1.7598    1.2323 H   0  0  0  0  0  0  0  0  0  0  0  0 
    1.6025    1.8035   -0.4850 H   0  0  0  0  0  0  0  0  0  0  0  0 
    3.2778    2.0666    0.0204 H   0  0  0  0  0  0  0  0  0  0  0  0 
    0.8846   -0.3920    1.4109 H   0  0  0  0  0  0  0  0  0  0  0  0 
    1.4408   -1.8469    0.5846 H   0  0  0  0  0  0  0  0  0  0  0  0 
    0.5456   -0.6089   -0.3120 H   0  0  0  0  0  0  0  0  0  0  0  0 
    4.3275    1.4962   -3.1505 H   0  0  0  0  0  0  0  0  0  0  0  0 
    4.6420   -0.1691   -3.6651 H   0  0  0  0  0  0  0  0  0  0  0  0 
    5.9698    0.8227   -3.0369 H   0  0  0  0  0  0  0  0  0  0  0  0 
    2.4814   -2.5265   -1.1264 H   0  0  0  0  0  0  0  0  0  0  0  0 
    3.3252   -2.1183   -2.6105 H   0  0  0  0  0  0  0  0  0  0  0  0 
    5.1468   -3.2052   -1.3783 H   0  0  0  0  0  0  0  0  0  0  0  0 
    4.6042   -2.5103    0.1478 H   0  0  0  0  0  0  0  0  0  0  0  0 
    3.3567   -0.3079    0.8880 H   0  0  0  0  0  0  0  0  0  0  0  0 
    4.8692    0.9312   -0.8040 H   0  0  0  0  0  0  0  0  0  0  0  0 
    2.4894    0.0228   -2.0174 H   0  0  0  0  0  0  0  0  0  0  0  0 
  1 11  1  0  0  0  0 
  2 15  1  0  0  0  0 
  2 14  1  0  0  0  0 
  3  7  1  0  0  0  0 
  4  8  1  0  0  0  0 
  4 20  1  0  0  0  0 
  4  5  1  0  0  0  0 
  5 23  1  0  0  0  0 
  6  1  1  0  0  0  0 
  6  2  1  0  0  0  0 
  6 24  1  0  0  0  0 
  7  8  1  0  0  0  0 
  7  9  1  0  0  0  0 
  7 25  1  1  0  0  0 
  8 26  1  6  0  0  0 
  8  6  1  0  0  0  0 
  9 10  2  0  0  0  0 
  9  5  1  0  0  0  0 
 12  1  1  0  0  0  0 
 13  1  1  0  0  0  0 
 16  2  1  0  0  0  0 
 17  3  1  0  0  0  0 
 18  3  1  0  0  0  0 
 19  3  1  0  0  0  0 
 21  4  1  0  0  0  0 
 22  5  1  0  0  0  0 
M  END 
>  <HBA> 
1 
 
>  <HBD> 
0 
 
>  <TPSA> 
17.07 
 
>  <cid> 
41124 
 
>  <dipole> 
2.86 
 
>  <excitation_energy_1> 
4.129 
 
>  <excitation_energy_2> 
5.978 
 
>  <excitation_energy_3> 
6.319 
 
>  <excitation_energy_4> 
6.425 
 
>  <homo_energy> 
-6.335 
 
>  <homo_lumo_gap> 
5.929 
 
>  <logP> 
2.258 
 
>  <lumo_energy> 
-0.405 
 
>  <melting_point> 
15.41 
 
>  <molecular_refractivity> 
43.46 
 
>  <oscillator_strength_1> 
0.0002 
 
>  <oscillator_strength_2> 
0.0108 
 
>  <oscillator_strength_3> 
0.0082 
 
>  <oscillator_strength_4> 
0.0069 
 
>  <open_babel_can_smiles> 
CC([C@@H]1CCC(=O)[C@H]1C)C 
 
>  <mulliken_charges> 
26 
1   -0.449943 
2   -0.450658 
3   -0.455828 
4   -0.296819 
5   -0.356648 
6   -0.075187 
7   -0.167908 
8   -0.094079 
9   0.447913 
10   -0.456134 
11   0.144579 
12   0.140879 
13   0.146918 
14   0.143632 
15   0.14499 
16   0.141297 
17   0.150026 
18   0.145595 
19   0.170269 
20   0.146272 
21   0.143639 
22   0.169507 
23   0.170816 
24   0.120513 
25   0.156236 
26   0.120124 
 
>  <lowdin_charges> 
26 
1   -0.446943 
2   -0.445271 
3   -0.43625 
4   -0.284856 
5   -0.314333 
6   -0.12476 
7   -0.163859 
8   -0.13487 
9   0.15565 
10   -0.231237 
11   0.149961 
12   0.147257 
13   0.149259 
14   0.151059 
15   0.146509 
16   0.147746 
17   0.153168 
18   0.149083 
19   0.16197 
20   0.152684 
21   0.144811 
22   0.168943 
23   0.166543 
24   0.135148 
25   0.161687 
26   0.140902 
 
$$$$ 
 
