PCCDB-ID:  28639 
public computational chemistry database (PCCDB) project, http://pccdb.org 
 
 22 22  0  0  1  0  0  0  0  0999 V2000 
    1.3085    1.0809   -1.3666 C   0  0  0  0  0  0  0  0  0  0  0  0 
    5.9436    0.0258   -3.0737 C   0  0  0  0  0  0  0  0  0  0  0  0 
    7.3386    0.3415   -0.9586 C   0  0  0  0  0  0  0  0  0  0  0  0 
    2.7881    1.0512   -0.9713 C   0  0  0  0  0  0  0  0  0  0  0  0 
    3.4276   -0.3339   -1.1549 C   0  0  0  0  0  0  0  0  0  0  0  0 
    4.8727   -0.3693   -0.7093 C   0  0  2  0  0  0  0  0  0  0  0  0 
    6.0571   -0.1838   -1.5772 C   0  0  0  0  0  0  0  0  0  0  0  0 
    5.6722   -1.4963   -1.1084 O   0  0  0  0  0  0  0  0  0  0  0  0 
    0.8755    2.0764   -1.2172 H   0  0  0  0  0  0  0  0  0  0  0  0 
    0.7250    0.3697   -0.7693 H   0  0  0  0  0  0  0  0  0  0  0  0 
    1.1746    0.8138   -2.4220 H   0  0  0  0  0  0  0  0  0  0  0  0 
    5.9779    1.0939   -3.3212 H   0  0  0  0  0  0  0  0  0  0  0  0 
    5.0212   -0.3959   -3.4783 H   0  0  0  0  0  0  0  0  0  0  0  0 
    6.7847   -0.4610   -3.5820 H   0  0  0  0  0  0  0  0  0  0  0  0 
    7.4252    1.4263   -1.0964 H   0  0  0  0  0  0  0  0  0  0  0  0 
    8.2114   -0.1274   -1.4289 H   0  0  0  0  0  0  0  0  0  0  0  0 
    7.3716    0.1229    0.1129 H   0  0  0  0  0  0  0  0  0  0  0  0 
    2.8923    1.3640    0.0773 H   0  0  0  0  0  0  0  0  0  0  0  0 
    3.3437    1.7895   -1.5656 H   0  0  0  0  0  0  0  0  0  0  0  0 
    3.3451   -0.6538   -2.1994 H   0  0  0  0  0  0  0  0  0  0  0  0 
    2.8705   -1.0755   -0.5641 H   0  0  0  0  0  0  0  0  0  0  0  0 
    5.0086   -0.0991    0.3434 H   0  0  0  0  0  0  0  0  0  0  0  0 
  1  9  1  0  0  0  0 
  1  4  1  0  0  0  0 
  1 10  1  0  0  0  0 
  2  7  1  0  0  0  0 
  3 17  1  0  0  0  0 
  4 18  1  0  0  0  0 
  5  4  1  0  0  0  0 
  5  6  1  0  0  0  0 
  5 21  1  0  0  0  0 
  6 22  1  1  0  0  0 
  7  8  1  0  0  0  0 
  7  3  1  0  0  0  0 
  7  6  1  0  0  0  0 
  8  6  1  0  0  0  0 
 11  1  1  0  0  0  0 
 12  2  1  0  0  0  0 
 13  2  1  0  0  0  0 
 14  2  1  0  0  0  0 
 15  3  1  0  0  0  0 
 16  3  1  0  0  0  0 
 19  4  1  0  0  0  0 
 20  5  1  0  0  0  0 
M  END 
>  <HBA> 
1 
 
>  <HBD> 
0 
 
>  <TPSA> 
12.53 
 
>  <cid> 
28639 
 
>  <dipole> 
1.99 
 
>  <excitation_energy_1> 
6.566 
 
>  <excitation_energy_2> 
6.978 
 
>  <excitation_energy_3> 
7.039 
 
>  <excitation_energy_4> 
7.152 
 
>  <homo_energy> 
-6.871 
 
>  <homo_lumo_gap> 
9.146 
 
>  <logP> 
1.964 
 
>  <lumo_energy> 
2.275 
 
>  <melting_point> 
-2.58 
 
>  <molecular_refractivity> 
34.77 
 
>  <oscillator_strength_1> 
0.0087 
 
>  <oscillator_strength_2> 
0.0027 
 
>  <oscillator_strength_3> 
0.0216 
 
>  <oscillator_strength_4> 
0.005 
 
>  <open_babel_can_smiles> 
CCC[C@H]1OC1(C)C 
 
>  <mulliken_charges> 
22 
1   -0.441571 
2   -0.478489 
3   -0.474684 
4   -0.256858 
5   -0.27816 
6   0.072038 
7   0.318013 
8   -0.490122 
9   0.144407 
10   0.145094 
11   0.144098 
12   0.146325 
13   0.158873 
14   0.155238 
15   0.145405 
16   0.153061 
17   0.157392 
18   0.134684 
19   0.136607 
20   0.141824 
21   0.143563 
22   0.123264 
 
>  <lowdin_charges> 
22 
1   -0.443213 
2   -0.447232 
3   -0.442385 
4   -0.272034 
5   -0.281199 
6   -0.028226 
7   0.107117 
8   -0.29906 
9   0.150394 
10   0.149571 
11   0.146397 
12   0.153042 
13   0.160235 
14   0.159376 
15   0.152127 
16   0.15682 
17   0.158324 
18   0.139351 
19   0.142682 
20   0.147975 
21   0.151471 
22   0.138467 
 
$$$$ 
 
