PCCDB-ID:  65055 
public computational chemistry database (PCCDB) project, http://pccdb.org 
 
 33 34  0  0  0  0  0  0  0  0999 V2000 
    1.9464   -1.4677   -5.4164 C   0  0  0  0  0  0  0  0  0  0  0  0 
    0.6443    5.2583   -1.5398 C   0  0  0  0  0  0  0  0  0  0  0  0 
    3.1806   -1.8662   -4.8981 C   0  0  0  0  0  0  0  0  0  0  0  0 
    0.8945   -1.1832   -4.5444 C   0  0  0  0  0  0  0  0  0  0  0  0 
    1.9882    5.2519   -1.9157 C   0  0  0  0  0  0  0  0  0  0  0  0 
    0.0246    4.0592   -1.1806 C   0  0  0  0  0  0  0  0  0  0  0  0 
    3.3577   -1.9769   -3.5189 C   0  0  0  0  0  0  0  0  0  0  0  0 
    1.0772   -1.2947   -3.1646 C   0  0  0  0  0  0  0  0  0  0  0  0 
    2.7043    4.0537   -1.9315 C   0  0  0  0  0  0  0  0  0  0  0  0 
    0.7412    2.8625   -1.2027 C   0  0  0  0  0  0  0  0  0  0  0  0 
    2.5183   -1.7907   -1.1338 C   0  0  0  0  0  0  0  0  0  0  0  0 
    3.2693   -0.6064   -0.4862 C   0  0  0  0  0  0  0  0  0  0  0  0 
    2.8651    1.5430   -1.6424 C   0  0  0  0  0  0  0  0  0  0  0  0 
    2.3115   -1.6883   -2.6299 C   0  0  0  0  0  0  0  0  0  0  0  0 
    2.0907    2.8447   -1.5820 C   0  0  0  0  0  0  0  0  0  0  0  0 
    2.5238    0.6556   -0.5268 N   0  0  0  0  0  0  0  0  0  0  0  0 
    1.8052   -1.3845   -6.4907 H   0  0  0  0  0  0  0  0  0  0  0  0 
    0.0851    6.1901   -1.5229 H   0  0  0  0  0  0  0  0  0  0  0  0 
    4.0042   -2.0975   -5.5688 H   0  0  0  0  0  0  0  0  0  0  0  0 
   -0.0713   -0.8759   -4.9372 H   0  0  0  0  0  0  0  0  0  0  0  0 
    2.4825    6.1802   -2.1909 H   0  0  0  0  0  0  0  0  0  0  0  0 
   -1.0214    4.0557   -0.8838 H   0  0  0  0  0  0  0  0  0  0  0  0 
    4.3209   -2.2950   -3.1245 H   0  0  0  0  0  0  0  0  0  0  0  0 
    0.2554   -1.0682   -2.4899 H   0  0  0  0  0  0  0  0  0  0  0  0 
    3.7539    4.0564   -2.2187 H   0  0  0  0  0  0  0  0  0  0  0  0 
    0.2661    1.9284   -0.9187 H   0  0  0  0  0  0  0  0  0  0  0  0 
    1.5488   -1.8867   -0.6322 H   0  0  0  0  0  0  0  0  0  0  0  0 
    3.0898   -2.7022   -0.9092 H   0  0  0  0  0  0  0  0  0  0  0  0 
    4.2696   -0.5103   -0.9459 H   0  0  0  0  0  0  0  0  0  0  0  0 
    3.4340   -0.8635    0.5672 H   0  0  0  0  0  0  0  0  0  0  0  0 
    3.9484    1.7672   -1.6884 H   0  0  0  0  0  0  0  0  0  0  0  0 
    2.6253    1.0166   -2.5738 H   0  0  0  0  0  0  0  0  0  0  0  0 
    2.6783    1.1652    0.3399 H   0  0  0  0  0  0  0  0  0  0  0  0 
  1  3  2  0  0  0  0 
  1  4  1  0  0  0  0 
  2 18  1  0  0  0  0 
  2  6  2  0  0  0  0 
  3  7  1  0  0  0  0 
  4  8  2  0  0  0  0 
  5  2  1  0  0  0  0 
  6 22  1  0  0  0  0 
  7 23  1  0  0  0  0 
  7 14  2  0  0  0  0 
  8 14  1  0  0  0  0 
  8 24  1  0  0  0  0 
  9  5  2  0  0  0  0 
  9 15  1  0  0  0  0 
 10  6  1  0  0  0  0 
 10 26  1  0  0  0  0 
 11 28  1  0  0  0  0 
 11 27  1  0  0  0  0 
 11 12  1  0  0  0  0 
 12 30  1  0  0  0  0 
 13 15  1  0  0  0  0 
 13 16  1  0  0  0  0 
 14 11  1  0  0  0  0 
 15 10  2  0  0  0  0 
 16 12  1  0  0  0  0 
 16 33  1  0  0  0  0 
 17  1  1  0  0  0  0 
 19  3  1  0  0  0  0 
 20  4  1  0  0  0  0 
 21  5  1  0  0  0  0 
 25  9  1  0  0  0  0 
 29 12  1  0  0  0  0 
 31 13  1  0  0  0  0 
 32 13  1  0  0  0  0 
M  END 
>  <HBA> 
1 
 
>  <HBD> 
1 
 
>  <TPSA> 
12.03 
 
>  <cid> 
65055 
 
>  <dipole> 
1.03 
 
>  <excitation_energy_1> 
5.025 
 
>  <excitation_energy_2> 
5.092 
 
>  <excitation_energy_3> 
5.159 
 
>  <excitation_energy_4> 
5.16 
 
>  <homo_energy> 
-5.875 
 
>  <homo_lumo_gap> 
5.94 
 
>  <logP> 
3.41 
 
>  <lumo_energy> 
0.065 
 
>  <melting_point> 
63.39 
 
>  <molecular_refractivity> 
68.31 
 
>  <oscillator_strength_1> 
0.0205 
 
>  <oscillator_strength_2> 
0.0085 
 
>  <oscillator_strength_3> 
0.0001 
 
>  <oscillator_strength_4> 
0.0123 
 
>  <open_babel_can_smiles> 
c1ccc(cc1)CNCCc1ccccc1 
 
>  <mulliken_charges> 
33 
1   -0.132482 
2   -0.1298 
3   -0.12765 
4   -0.126316 
5   -0.12856 
6   -0.131336 
7   -0.181657 
8   -0.182156 
9   -0.185273 
10   -0.166165 
11   -0.325704 
12   -0.127732 
13   -0.194441 
14   0.165711 
15   0.124975 
16   -0.557176 
17   0.127127 
18   0.125094 
19   0.126861 
20   0.128911 
21   0.125556 
22   0.125669 
23   0.120265 
24   0.13054 
25   0.120318 
26   0.141452 
27   0.146704 
28   0.136527 
29   0.121956 
30   0.132833 
31   0.115363 
32   0.181857 
33   0.298727 
 
>  <lowdin_charges> 
33 
1   -0.160169 
2   -0.162488 
3   -0.15748 
4   -0.155541 
5   -0.157984 
6   -0.154624 
7   -0.169733 
8   -0.167679 
9   -0.166442 
10   -0.162806 
11   -0.278669 
12   -0.196743 
13   -0.201321 
14   -0.003588 
15   -0.013183 
16   -0.364689 
17   0.154711 
18   0.155684 
19   0.157093 
20   0.157143 
21   0.15595 
22   0.153831 
23   0.152343 
24   0.15907 
25   0.15145 
26   0.164641 
27   0.152984 
28   0.149825 
29   0.124149 
30   0.142741 
31   0.1195 
32   0.165184 
33   0.25684 
 
$$$$ 
 
