PCCDB-ID:  34151 
public computational chemistry database (PCCDB) project, http://pccdb.org 
 
 22 23  0  0  1  0  0  0  0  0999 V2000 
    1.1813    0.0716    0.0231 C   0  0  0  0  0  0  0  0  0  0  0  0 
    2.5357    0.0724   -2.6802 C   0  0  0  0  0  0  0  0  0  0  0  0 
    3.9490    1.8943   -0.1518 C   0  0  0  0  0  0  0  0  0  0  0  0 
    3.9517   -1.7433   -0.1454 C   0  0  0  0  0  0  0  0  0  0  0  0 
    2.7107    0.0751    0.0266 C   0  0  1  0  0  0  0  0  0  0  0  0 
    3.4255    0.0728   -1.4400 C   0  0  2  0  0  0  0  0  0  0  0  0 
    3.1880    1.2984    0.6842 N   0  0  0  0  0  0  0  0  0  0  0  0 
    3.1931   -1.1433    0.6898 N   0  0  0  0  0  0  0  0  0  0  0  0 
    4.2379    1.2859   -1.3549 N   0  0  0  0  0  0  0  0  0  0  0  0 
    4.2363   -1.1411   -1.3529 N   0  0  0  0  0  0  0  0  0  0  0  0 
    4.5284    3.0924    0.0526 O   0  0  0  0  0  0  0  0  0  0  0  0 
    4.5326   -2.9398    0.0634 O   0  0  0  0  0  0  0  0  0  0  0  0 
    0.7805    0.9631   -0.4711 H   0  0  0  0  0  0  0  0  0  0  0  0 
    0.8375    0.0728    1.0611 H   0  0  0  0  0  0  0  0  0  0  0  0 
    0.7846   -0.8237   -0.4676 H   0  0  0  0  0  0  0  0  0  0  0  0 
    1.8965    0.9600   -2.7042 H   0  0  0  0  0  0  0  0  0  0  0  0 
    1.8946   -0.8138   -2.7027 H   0  0  0  0  0  0  0  0  0  0  0  0 
    3.1455    0.0710   -3.5939 H   0  0  0  0  0  0  0  0  0  0  0  0 
    4.4117    1.8593   -2.1702 H   0  0  0  0  0  0  0  0  0  0  0  0 
    4.4044   -1.7192   -2.1661 H   0  0  0  0  0  0  0  0  0  0  0  0 
    4.2302    3.3789    0.9336 H   0  0  0  0  0  0  0  0  0  0  0  0 
    4.2367   -3.2224    0.9465 H   0  0  0  0  0  0  0  0  0  0  0  0 
  1 14  1  0  0  0  0 
  3 11  1  0  0  0  0 
  3  7  2  0  0  0  0 
  4 12  1  0  0  0  0 
  4  8  2  0  0  0  0 
  5  1  1  6  0  0  0 
  5  7  1  0  0  0  0 
  5  8  1  0  0  0  0 
  6  2  1  6  0  0  0 
  6  9  1  0  0  0  0 
  6 10  1  0  0  0  0 
  6  5  1  0  0  0  0 
  9  3  1  0  0  0  0 
 10  4  1  0  0  0  0 
 11 21  1  0  0  0  0 
 12 22  1  0  0  0  0 
 13  1  1  0  0  0  0 
 15  1  1  0  0  0  0 
 16  2  1  0  0  0  0 
 17  2  1  0  0  0  0 
 18  2  1  0  0  0  0 
 19  9  1  0  0  0  0 
 20 10  1  0  0  0  0 
M  END 
>  <HBA> 
6 
 
>  <HBD> 
4 
 
>  <TPSA> 
82.26 
 
>  <cid> 
34151 
 
>  <dipole> 
3.32 
 
>  <excitation_energy_1> 
5.247 
 
>  <excitation_energy_2> 
5.531 
 
>  <excitation_energy_3> 
5.703 
 
>  <excitation_energy_4> 
5.736 
 
>  <homo_energy> 
-5.861 
 
>  <homo_lumo_gap> 
7.222 
 
>  <logP> 
0.36 
 
>  <lumo_energy> 
1.361 
 
>  <melting_point> 
212.8 
 
>  <molecular_refractivity> 
54.85 
 
>  <oscillator_strength_1> 
0.0004 
 
>  <oscillator_strength_2> 
0.0034 
 
>  <oscillator_strength_3> 
0.0045 
 
>  <oscillator_strength_4> 
0.0008 
 
>  <open_babel_can_smiles> 
OC1=N[C@]2([C@](N1)(C)NC(=N2)O)C 
 
>  <mulliken_charges> 
22 
1   -0.432979 
2   -0.481983 
3   0.67213 
4   0.671884 
5   0.235258 
6   0.316328 
7   -0.479136 
8   -0.478855 
9   -0.602981 
10   -0.60311 
11   -0.613577 
12   -0.613493 
13   0.134105 
14   0.173696 
15   0.134005 
16   0.166167 
17   0.166067 
18   0.148043 
19   0.320779 
20   0.320821 
21   0.423425 
22   0.423405 
 
>  <lowdin_charges> 
22 
1   -0.447179 
2   -0.456598 
3   0.153584 
4   0.153526 
5   0.118542 
6   0.1062 
7   -0.280443 
8   -0.280283 
9   -0.301883 
10   -0.302044 
11   -0.359732 
12   -0.359677 
13   0.147496 
14   0.16967 
15   0.147406 
16   0.163466 
17   0.163413 
18   0.153151 
19   0.283502 
20   0.283505 
21   0.372214 
22   0.372164 
 
$$$$ 
 
