PCCDB-ID:  29887 
public computational chemistry database (PCCDB) project, http://pccdb.org 
 
 34 35  0  0  0  0  0  0  0  0999 V2000 
    1.4173    3.2310    1.1292 C   0  0  0  0  0  0  0  0  0  0  0  0 
    1.7617    1.9470    1.9008 C   0  0  0  0  0  0  0  0  0  0  0  0 
    0.0471    3.1184    0.4423 C   0  0  0  0  0  0  0  0  0  0  0  0 
   -3.3696    0.5082    5.6286 C   0  0  0  0  0  0  0  0  0  0  0  0 
   -2.5938   -0.3614    4.8700 C   0  0  0  0  0  0  0  0  0  0  0  0 
   -4.0258    1.5879    5.0336 C   0  0  0  0  0  0  0  0  0  0  0  0 
    1.6955    0.7103    0.9905 C   0  0  0  0  0  0  0  0  0  0  0  0 
   -0.0251    1.8797   -0.4656 C   0  0  0  0  0  0  0  0  0  0  0  0 
   -3.1078    0.9266    2.8831 C   0  0  0  0  0  0  0  0  0  0  0  0 
   -2.4423   -0.1510    3.4867 C   0  0  0  0  0  0  0  0  0  0  0  0 
   -3.8927    1.7851    3.6560 C   0  0  0  0  0  0  0  0  0  0  0  0 
    0.3468    0.5916    0.2713 C   0  0  0  0  0  0  0  0  0  0  0  0 
   -0.9296   -0.8303    1.7901 C   0  0  0  0  0  0  0  0  0  0  0  0 
   -1.6790   -1.0994    2.7843 N   0  0  0  0  0  0  0  0  0  0  0  0 
   -4.5145    2.8167    2.9986 O   0  0  0  0  0  0  0  0  0  0  0  0 
   -0.2476   -1.8313    1.1807 O   0  0  0  0  0  0  0  0  0  0  0  0 
   -0.7231    0.3738    1.2486 O   0  0  0  0  0  0  0  0  0  0  0  0 
    2.1921    3.4176    0.3700 H   0  0  0  0  0  0  0  0  0  0  0  0 
    1.4297    4.0935    1.8070 H   0  0  0  0  0  0  0  0  0  0  0  0 
    1.0542    1.8217    2.7304 H   0  0  0  0  0  0  0  0  0  0  0  0 
    2.7612    2.0230    2.3462 H   0  0  0  0  0  0  0  0  0  0  0  0 
   -0.1603    4.0189   -0.1488 H   0  0  0  0  0  0  0  0  0  0  0  0 
   -0.7391    3.0519    1.2045 H   0  0  0  0  0  0  0  0  0  0  0  0 
   -3.4748    0.3439    6.6979 H   0  0  0  0  0  0  0  0  0  0  0  0 
   -2.0924   -1.2098    5.3240 H   0  0  0  0  0  0  0  0  0  0  0  0 
   -4.6378    2.2629    5.6291 H   0  0  0  0  0  0  0  0  0  0  0  0 
    1.8935   -0.2087    1.5534 H   0  0  0  0  0  0  0  0  0  0  0  0 
    2.4733    0.7773    0.2161 H   0  0  0  0  0  0  0  0  0  0  0  0 
    0.6805    1.9912   -1.3009 H   0  0  0  0  0  0  0  0  0  0  0  0 
   -1.0243    1.7716   -0.9031 H   0  0  0  0  0  0  0  0  0  0  0  0 
   -3.0309    1.1058    1.8181 H   0  0  0  0  0  0  0  0  0  0  0  0 
    0.3503   -0.2572   -0.4163 H   0  0  0  0  0  0  0  0  0  0  0  0 
   -5.0326    3.3245    3.6418 H   0  0  0  0  0  0  0  0  0  0  0  0 
   -0.4946   -2.6324    1.6765 H   0  0  0  0  0  0  0  0  0  0  0  0 
  1 19  1  0  0  0  0 
  1  2  1  0  0  0  0 
  2 21  1  0  0  0  0 
  2 20  1  0  0  0  0 
  3  1  1  0  0  0  0 
  3 23  1  0  0  0  0 
  4 24  1  0  0  0  0 
  5 25  1  0  0  0  0 
  5  4  2  0  0  0  0 
  6  4  1  0  0  0  0 
  6 26  1  0  0  0  0 
  7 27  1  0  0  0  0 
  7  2  1  0  0  0  0 
  8 12  1  0  0  0  0 
  8  3  1  0  0  0  0 
  9 10  2  0  0  0  0 
  9 11  1  0  0  0  0 
 10  5  1  0  0  0  0 
 11  6  2  0  0  0  0 
 12  7  1  0  0  0  0 
 12 17  1  0  0  0  0 
 13 14  2  0  0  0  0 
 14 10  1  0  0  0  0 
 15 33  1  0  0  0  0 
 15 11  1  0  0  0  0 
 16 34  1  0  0  0  0 
 16 13  1  0  0  0  0 
 17 13  1  0  0  0  0 
 18  1  1  0  0  0  0 
 22  3  1  0  0  0  0 
 28  7  1  0  0  0  0 
 29  8  1  0  0  0  0 
 30  8  1  0  0  0  0 
 31  9  1  0  0  0  0 
 32 12  1  0  0  0  0 
M  END 
>  <HBA> 
4 
 
>  <HBD> 
2 
 
>  <TPSA> 
58.56 
 
>  <cid> 
29887 
 
>  <dipole> 
1.68 
 
>  <excitation_energy_1> 
4.701 
 
>  <excitation_energy_2> 
4.947 
 
>  <excitation_energy_3> 
5.066 
 
>  <excitation_energy_4> 
5.144 
 
>  <homo_energy> 
-5.44 
 
>  <homo_lumo_gap> 
5.472 
 
>  <logP> 
3.346 
 
>  <lumo_energy> 
0.033 
 
>  <melting_point> 
120.21 
 
>  <molecular_refractivity> 
66.17 
 
>  <oscillator_strength_1> 
0.104 
 
>  <oscillator_strength_2> 
0.0016 
 
>  <oscillator_strength_3> 
0.1146 
 
>  <oscillator_strength_4> 
0.0994 
 
>  <open_babel_can_smiles> 
Oc1cccc(c1)/N=C(\OC1CCCCC1)/O 
 
>  <mulliken_charges> 
34 
1   -0.260974 
2   -0.26331 
3   -0.266926 
4   -0.139532 
5   -0.160155 
6   -0.200652 
7   -0.284212 
8   -0.279019 
9   -0.192417 
10   0.268052 
11   0.342928 
12   0.121436 
13   0.739907 
14   -0.590695 
15   -0.649359 
16   -0.60271 
17   -0.486332 
18   0.124213 
19   0.135921 
20   0.153829 
21   0.133364 
22   0.133475 
23   0.162818 
24   0.124745 
25   0.121121 
26   0.109146 
27   0.152353 
28   0.135947 
29   0.136235 
30   0.149407 
31   0.14237 
32   0.160331 
33   0.403779 
34   0.424915 
 
>  <lowdin_charges> 
34 
1   -0.279152 
2   -0.280653 
3   -0.282184 
4   -0.143623 
5   -0.193993 
6   -0.232721 
7   -0.291285 
8   -0.282972 
9   -0.213023 
10   0.063021 
11   0.103934 
12   0.007645 
13   0.204725 
14   -0.24684 
15   -0.387227 
16   -0.364834 
17   -0.18373 
18   0.135827 
19   0.146978 
20   0.150697 
21   0.145312 
22   0.146382 
23   0.154855 
24   0.154356 
25   0.160017 
26   0.150829 
27   0.154596 
28   0.14859 
29   0.147857 
30   0.15348 
31   0.168174 
32   0.155518 
33   0.356493 
34   0.372948 
 
$$$$ 
 
