PCCDB-ID:  19890 
public computational chemistry database (PCCDB) project, http://pccdb.org 
 
 17 18  0  0  0  0  0  0  0  0999 V2000 
    2.4398    0.7067    0.0171 C   0  0  0  0  0  0  0  0  0  0  0  0 
    2.4119   -0.6971   -0.0081 C   0  0  0  0  0  0  0  0  0  0  0  0 
    1.2521    1.4240    0.0160 C   0  0  0  0  0  0  0  0  0  0  0  0 
    1.2030   -1.3842   -0.0342 C   0  0  0  0  0  0  0  0  0  0  0  0 
   -1.2678    1.4073   -0.0137 C   0  0  0  0  0  0  0  0  0  0  0  0 
   -2.4115    0.6761   -0.0413 C   0  0  0  0  0  0  0  0  0  0  0  0 
    0.0138    0.7548   -0.0100 C   0  0  0  0  0  0  0  0  0  0  0  0 
    0.0147   -0.6525   -0.0353 C   0  0  0  0  0  0  0  0  0  0  0  0 
   -2.3912   -0.7669   -0.0682 C   0  0  0  0  0  0  0  0  0  0  0  0 
   -1.1539   -1.3624   -0.0610 O   0  0  0  0  0  0  0  0  0  0  0  0 
   -3.7281   -1.7353   -0.1062 S   0  0  0  0  0  0  0  0  0  0  0  0 
    3.3910    1.2296    0.0375 H   0  0  0  0  0  0  0  0  0  0  0  0 
    3.3430   -1.2563   -0.0068 H   0  0  0  0  0  0  0  0  0  0  0  0 
    1.2619    2.5107    0.0370 H   0  0  0  0  0  0  0  0  0  0  0  0 
    1.1564   -2.4678   -0.0529 H   0  0  0  0  0  0  0  0  0  0  0  0 
   -1.3061    2.4937    0.0058 H   0  0  0  0  0  0  0  0  0  0  0  0 
   -3.3888    1.1427   -0.0446 H   0  0  0  0  0  0  0  0  0  0  0  0 
  1 12  1  0  0  0  0 
  2 13  1  0  0  0  0 
  2  1  2  0  0  0  0 
  3  1  1  0  0  0  0 
  3 14  1  0  0  0  0 
  4  2  1  0  0  0  0 
  5  7  1  0  0  0  0 
  5 16  1  0  0  0  0 
  6  5  2  0  0  0  0 
  7  3  2  0  0  0  0 
  8  4  2  0  0  0  0 
  8  7  1  0  0  0  0 
  9 10  1  0  0  0  0 
  9  6  1  0  0  0  0 
 10  8  1  0  0  0  0 
 11  9  2  0  0  0  0 
 15  4  1  0  0  0  0 
 17  6  1  0  0  0  0 
M  END 
>  <HBA> 
2 
 
>  <HBD> 
0 
 
>  <TPSA> 
45.23 
 
>  <cid> 
19890 
 
>  <dipole> 
5.8 
 
>  <excitation_energy_1> 
2.484 
 
>  <excitation_energy_2> 
3.501 
 
>  <excitation_energy_3> 
4.1 
 
>  <excitation_energy_4> 
4.206 
 
>  <homo_energy> 
-5.897 
 
>  <homo_lumo_gap> 
3.557 
 
>  <logP> 
3.162 
 
>  <lumo_energy> 
-2.34 
 
>  <melting_point> 
90.07 
 
>  <molecular_refractivity> 
47.05 
 
>  <oscillator_strength_1> 
0.0 
 
>  <oscillator_strength_2> 
0.2876 
 
>  <oscillator_strength_3> 
0.0001 
 
>  <oscillator_strength_4> 
0.0184 
 
>  <open_babel_can_smiles> 
S=c1ccc2c(o1)cccc2 
 
>  <mulliken_charges> 
17 
1   -0.128273 
2   -0.13221 
3   -0.196488 
4   -0.16324 
5   -0.115142 
6   -0.176437 
7   0.131344 
8   0.305808 
9   0.206067 
10   -0.473295 
11   -0.199741 
12   0.144023 
13   0.149038 
14   0.1455 
15   0.164979 
16   0.159202 
17   0.178866 
 
>  <lowdin_charges> 
17 
1   -0.159522 
2   -0.133904 
3   -0.142337 
4   -0.165341 
5   -0.110651 
6   -0.170433 
7   -0.032038 
8   0.114574 
9   0.001402 
10   -0.099052 
11   -0.137099 
12   0.166109 
13   0.168555 
14   0.163395 
15   0.177856 
16   0.170548 
17   0.187938 
 
$$$$ 
 
