PCCDB-ID:  36502 
public computational chemistry database (PCCDB) project, http://pccdb.org 
 
 21 20  0  0  0  0  0  0  0  0999 V2000 
    1.8290    1.4139    1.1231 C   0  0  0  0  0  0  0  0  0  0  0  0 
    2.5540    0.2428    0.4376 C   0  0  0  0  0  0  0  0  0  0  0  0 
    2.8891    0.5277   -1.0014 C   0  0  0  0  0  0  0  0  0  0  0  0 
    4.1209    0.5620   -1.5168 C   0  0  0  0  0  0  0  0  0  0  0  0 
    4.4428    0.8614   -2.9572 C   0  0  0  0  0  0  0  0  0  0  0  0 
    5.1803   -0.2702   -3.6682 C   0  0  0  0  0  0  0  0  0  0  0  0 
    7.2547   -1.4010   -3.5119 C   0  0  0  0  0  0  0  0  0  0  0  0 
    6.9921   -2.1292   -4.4377 O   0  0  0  0  0  0  0  0  0  0  0  0 
    6.4665   -0.4348   -3.0175 O   0  0  0  0  0  0  0  0  0  0  0  0 
    1.5704    1.1645    2.1584 H   0  0  0  0  0  0  0  0  0  0  0  0 
    0.8995    1.6652    0.5981 H   0  0  0  0  0  0  0  0  0  0  0  0 
    2.4576    2.3111    1.1343 H   0  0  0  0  0  0  0  0  0  0  0  0 
    1.9108   -0.6485    0.4915 H   0  0  0  0  0  0  0  0  0  0  0  0 
    3.4709   -0.0016    0.9887 H   0  0  0  0  0  0  0  0  0  0  0  0 
    2.0379    0.7395   -1.6538 H   0  0  0  0  0  0  0  0  0  0  0  0 
    4.9755    0.3573   -0.8712 H   0  0  0  0  0  0  0  0  0  0  0  0 
    5.0629    1.7667   -3.0282 H   0  0  0  0  0  0  0  0  0  0  0  0 
    3.5202    1.0626   -3.5166 H   0  0  0  0  0  0  0  0  0  0  0  0 
    5.3510   -0.0414   -4.7251 H   0  0  0  0  0  0  0  0  0  0  0  0 
    4.6319   -1.2151   -3.6064 H   0  0  0  0  0  0  0  0  0  0  0  0 
    8.1931   -1.4270   -2.9362 H   0  0  0  0  0  0  0  0  0  0  0  0 
  1 12  1  0  0  0  0 
  1 10  1  0  0  0  0 
  2 13  1  0  0  0  0 
  2 14  1  0  0  0  0 
  2  1  1  0  0  0  0 
  3  2  1  0  0  0  0 
  4  3  2  0  0  0  0 
  4 16  1  0  0  0  0 
  5  4  1  0  0  0  0 
  6 20  1  0  0  0  0 
  6  9  1  0  0  0  0 
  6  5  1  0  0  0  0 
  7  9  1  0  0  0  0 
  7 21  1  0  0  0  0 
  8  7  2  0  0  0  0 
 11  1  1  0  0  0  0 
 15  3  1  0  0  0  0 
 17  5  1  0  0  0  0 
 18  5  1  0  0  0  0 
 19  6  1  0  0  0  0 
M  END 
>  <HBA> 
2 
 
>  <HBD> 
0 
 
>  <TPSA> 
26.3 
 
>  <cid> 
36502 
 
>  <dipole> 
2.21 
 
>  <excitation_energy_1> 
5.781 
 
>  <excitation_energy_2> 
5.99 
 
>  <excitation_energy_3> 
6.228 
 
>  <excitation_energy_4> 
6.55 
 
>  <homo_energy> 
-6.702 
 
>  <homo_lumo_gap> 
6.904 
 
>  <logP> 
2.152 
 
>  <lumo_energy> 
0.201 
 
>  <melting_point> 
-32.67 
 
>  <molecular_refractivity> 
36.96 
 
>  <oscillator_strength_1> 
0.0012 
 
>  <oscillator_strength_2> 
0.0029 
 
>  <oscillator_strength_3> 
0.1055 
 
>  <oscillator_strength_4> 
0.0171 
 
>  <open_babel_can_smiles> 
CC/C=C/CCOC=O 
 
>  <mulliken_charges> 
21 
1   -0.440053 
2   -0.296023 
3   -0.087863 
4   -0.095314 
5   -0.334594 
6   -0.042289 
7   0.391221 
8   -0.419875 
9   -0.417701 
10   0.144891 
11   0.143623 
12   0.150689 
13   0.143512 
14   0.140606 
15   0.115269 
16   0.132498 
17   0.158286 
18   0.148203 
19   0.161613 
20   0.1671 
21   0.136203 
 
>  <lowdin_charges> 
21 
1   -0.441763 
2   -0.268848 
3   -0.163246 
4   -0.175775 
5   -0.27783 
6   -0.123411 
7   0.086189 
8   -0.250073 
9   -0.189608 
10   0.14951 
11   0.147768 
12   0.151152 
13   0.148859 
14   0.147146 
15   0.144815 
16   0.153945 
17   0.157463 
18   0.156302 
19   0.152947 
20   0.156106 
21   0.138351 
 
$$$$ 
 
