PCCDB-ID:  61924 
public computational chemistry database (PCCDB) project, http://pccdb.org 
 
 31 30  0  0  0  0  0  0  0  0999 V2000 
    2.2051   -1.2255   -0.4446 C   0  0  0  0  0  0  0  0  0  0  0  0 
    2.5360   -0.0097    1.7551 C   0  0  0  0  0  0  0  0  0  0  0  0 
    1.5723    2.4051   -1.8638 C   0  0  0  0  0  0  0  0  0  0  0  0 
    2.1595    3.2364    0.4581 C   0  0  0  0  0  0  0  0  0  0  0  0 
    5.2399    0.9214   -1.7824 C   0  0  0  0  0  0  0  0  0  0  0  0 
    5.3407    1.7689    0.6047 C   0  0  0  0  0  0  0  0  0  0  0  0 
    2.2515    0.1510    0.2456 C   0  0  0  0  0  0  0  0  0  0  0  0 
    2.6495    2.4272   -0.7628 C   0  0  0  0  0  0  0  0  0  0  0  0 
    4.5869    0.8579   -0.3888 C   0  0  0  0  0  0  0  0  0  0  0  0 
    3.1388    1.0769   -0.4656 N   0  0  0  0  0  0  0  0  0  0  0  0 
    1.4686   -1.8802    0.0374 H   0  0  0  0  0  0  0  0  0  0  0  0 
    3.1755   -1.7344   -0.3951 H   0  0  0  0  0  0  0  0  0  0  0  0 
    1.9371   -1.1140   -1.4999 H   0  0  0  0  0  0  0  0  0  0  0  0 
    1.7854   -0.6616    2.2189 H   0  0  0  0  0  0  0  0  0  0  0  0 
    2.5110    0.9549    2.2716 H   0  0  0  0  0  0  0  0  0  0  0  0 
    3.5171   -0.4655    1.9341 H   0  0  0  0  0  0  0  0  0  0  0  0 
    1.2776    3.4240   -2.1435 H   0  0  0  0  0  0  0  0  0  0  0  0 
    0.6665    1.8828   -1.5321 H   0  0  0  0  0  0  0  0  0  0  0  0 
    1.9486    1.8929   -2.7549 H   0  0  0  0  0  0  0  0  0  0  0  0 
    1.8759    4.2522    0.1559 H   0  0  0  0  0  0  0  0  0  0  0  0 
    2.9378    3.3165    1.2233 H   0  0  0  0  0  0  0  0  0  0  0  0 
    1.2773    2.7759    0.9187 H   0  0  0  0  0  0  0  0  0  0  0  0 
    6.3066    0.6716   -1.7266 H   0  0  0  0  0  0  0  0  0  0  0  0 
    5.1618    1.9246   -2.2191 H   0  0  0  0  0  0  0  0  0  0  0  0 
    4.7514    0.2188   -2.4649 H   0  0  0  0  0  0  0  0  0  0  0  0 
    6.4008    1.4906    0.6513 H   0  0  0  0  0  0  0  0  0  0  0  0 
    4.9254    1.6886    1.6140 H   0  0  0  0  0  0  0  0  0  0  0  0 
    5.2939    2.8214    0.3007 H   0  0  0  0  0  0  0  0  0  0  0  0 
    1.2451    0.5767    0.1573 H   0  0  0  0  0  0  0  0  0  0  0  0 
    3.5067    2.9697   -1.1785 H   0  0  0  0  0  0  0  0  0  0  0  0 
    4.7139   -0.1712   -0.0330 H   0  0  0  0  0  0  0  0  0  0  0  0 
  1 12  1  0  0  0  0 
  1 11  1  0  0  0  0 
  1  7  1  0  0  0  0 
  2 16  1  0  0  0  0 
  2 14  1  0  0  0  0 
  2 15  1  0  0  0  0 
  3 18  1  0  0  0  0 
  3  8  1  0  0  0  0 
  4 22  1  0  0  0  0 
  4 21  1  0  0  0  0 
  5 23  1  0  0  0  0 
  5  9  1  0  0  0  0 
  6 26  1  0  0  0  0 
  6 27  1  0  0  0  0 
  7  2  1  0  0  0  0 
  8 10  1  0  0  0  0 
  8  4  1  0  0  0  0 
  9 31  1  0  0  0  0 
  9  6  1  0  0  0  0 
 10  9  1  0  0  0  0 
 10  7  1  0  0  0  0 
 13  1  1  0  0  0  0 
 17  3  1  0  0  0  0 
 19  3  1  0  0  0  0 
 20  4  1  0  0  0  0 
 24  5  1  0  0  0  0 
 25  5  1  0  0  0  0 
 28  6  1  0  0  0  0 
 29  7  1  0  0  0  0 
 30  8  1  0  0  0  0 
M  END 
>  <HBA> 
1 
 
>  <HBD> 
0 
 
>  <TPSA> 
3.24 
 
>  <cid> 
61924 
 
>  <dipole> 
0.31 
 
>  <excitation_energy_1> 
4.483 
 
>  <excitation_energy_2> 
4.853 
 
>  <excitation_energy_3> 
4.853 
 
>  <excitation_energy_4> 
5.034 
 
>  <homo_energy> 
-4.947 
 
>  <homo_lumo_gap> 
6.928 
 
>  <logP> 
2.514 
 
>  <lumo_energy> 
1.981 
 
>  <melting_point> 
-25.92 
 
>  <molecular_refractivity> 
48.27 
 
>  <oscillator_strength_1> 
0.0256 
 
>  <oscillator_strength_2> 
0.0 
 
>  <oscillator_strength_3> 
0.0 
 
>  <oscillator_strength_4> 
0.0012 
 
>  <open_babel_can_smiles> 
CC(N(C(C)C)C(C)C)C 
 
>  <mulliken_charges> 
31 
1   -0.435316 
2   -0.447662 
3   -0.435452 
4   -0.447702 
5   -0.435217 
6   -0.448003 
7   0.040312 
8   0.039853 
9   0.040348 
10   -0.37898 
11   0.132584 
12   0.13876 
13   0.147151 
14   0.135775 
15   0.146538 
16   0.140235 
17   0.13268 
18   0.13893 
19   0.147165 
20   0.135744 
21   0.146593 
22   0.140255 
23   0.132526 
24   0.138868 
25   0.147054 
26   0.135842 
27   0.146699 
28   0.140367 
29   0.127998 
30   0.128057 
31   0.128 
 
>  <lowdin_charges> 
31 
1   -0.451671 
2   -0.462124 
3   -0.45182 
4   -0.461336 
5   -0.450822 
6   -0.457047 
7   -0.049972 
8   -0.052272 
9   -0.049829 
10   -0.189253 
11   0.14648 
12   0.144552 
13   0.15046 
14   0.149137 
15   0.149978 
16   0.145627 
17   0.144604 
18   0.145178 
19   0.152297 
20   0.14715 
21   0.150781 
22   0.146587 
23   0.143647 
24   0.144262 
25   0.153027 
26   0.146501 
27   0.149371 
28   0.144686 
29   0.140147 
30   0.141917 
31   0.139758 
 
$$$$ 
 
