PCCDB-ID:  14083 
public computational chemistry database (PCCDB) project, http://pccdb.org 
 
 18 18  0  0  0  0  0  0  0  0999 V2000 
    0.9211   -0.1650   -0.1823 C   0  0  0  0  0  0  0  0  0  0  0  0 
    5.0638   -2.6595    0.0837 C   0  0  0  0  0  0  0  0  0  0  0  0 
    4.5048    1.1248    0.1904 C   0  0  0  0  0  0  0  0  0  0  0  0 
    3.1167    1.1286    0.0667 C   0  0  0  0  0  0  0  0  0  0  0  0 
    5.1629   -0.1036    0.1986 C   0  0  0  0  0  0  0  0  0  0  0  0 
    2.4046   -0.0579   -0.0450 C   0  0  0  0  0  0  0  0  0  0  0  0 
    4.4577   -1.2943    0.0866 C   0  0  0  0  0  0  0  0  0  0  0  0 
    3.0825   -1.2610   -0.0355 N   0  3  0  0  0  0  0  0  0  0  0  0 
    2.4269   -2.3610   -0.1398 O   0  5  0  0  0  0  0  0  0  0  0  0 
    0.4641    0.8281   -0.1792 H   0  0  0  0  0  0  0  0  0  0  0  0 
    0.5012   -0.7650    0.6328 H   0  0  0  0  0  0  0  0  0  0  0  0 
    0.6570   -0.6876   -1.1086 H   0  0  0  0  0  0  0  0  0  0  0  0 
    6.1503   -2.5955    0.1850 H   0  0  0  0  0  0  0  0  0  0  0  0 
    4.8122   -3.1909   -0.8411 H   0  0  0  0  0  0  0  0  0  0  0  0 
    4.6538   -3.2644    0.9002 H   0  0  0  0  0  0  0  0  0  0  0  0 
    5.0587    2.0538    0.2767 H   0  0  0  0  0  0  0  0  0  0  0  0 
    2.5602    2.0608    0.0562 H   0  0  0  0  0  0  0  0  0  0  0  0 
    6.2432   -0.1570    0.2928 H   0  0  0  0  0  0  0  0  0  0  0  0 
  1 10  1  0  0  0  0 
  1  6  1  0  0  0  0 
  1 11  1  0  0  0  0 
  2  7  1  0  0  0  0 
  2 13  1  0  0  0  0 
  2 15  1  0  0  0  0 
  3  5  1  0  0  0  0 
  3 16  1  0  0  0  0 
  4  3  2  0  0  0  0 
  5 18  1  0  0  0  0 
  6  8  2  0  0  0  0 
  6  4  1  0  0  0  0 
  7  5  2  0  0  0  0 
  8  7  1  0  0  0  0 
  9  8  1  0  0  0  0 
 12  1  1  0  0  0  0 
 14  2  1  0  0  0  0 
 17  4  1  0  0  0  0 
M  CHG  2   8   1   9  -1 
M  END 
>  <HBA> 
1 
 
>  <HBD> 
0 
 
>  <TPSA> 
25.46 
 
>  <cid> 
14083 
 
>  <dipole> 
3.1 
 
>  <excitation_energy_1> 
4.258 
 
>  <excitation_energy_2> 
4.374 
 
>  <excitation_energy_3> 
4.865 
 
>  <excitation_energy_4> 
5.086 
 
>  <homo_energy> 
-5.6 
 
>  <homo_lumo_gap> 
4.833 
 
>  <logP> 
1.732 
 
>  <lumo_energy> 
-0.767 
 
>  <melting_point> 
27.5 
 
>  <molecular_refractivity> 
37.54 
 
>  <oscillator_strength_1> 
0.0 
 
>  <oscillator_strength_2> 
0.0209 
 
>  <oscillator_strength_3> 
0.1517 
 
>  <oscillator_strength_4> 
0.0 
 
>  <open_babel_can_smiles> 
[O-][n+]1c(C)cccc1C 
 
>  <mulliken_charges> 
18 
1   -0.493588 
2   -0.493665 
3   -0.098486 
4   -0.216334 
5   -0.21642 
6   0.348836 
7   0.348773 
8   -0.109314 
9   -0.530932 
10   0.147705 
11   0.184614 
12   0.184533 
13   0.147727 
14   0.184551 
15   0.184583 
16   0.140942 
17   0.14322 
18   0.143253 
 
>  <lowdin_charges> 
18 
1   -0.437113 
2   -0.435872 
3   -0.164572 
4   -0.17004 
5   -0.16735 
6   0.029181 
7   0.030432 
8   0.200152 
9   -0.402962 
10   0.15603 
11   0.177346 
12   0.176531 
13   0.154673 
14   0.176546 
15   0.177278 
16   0.16556 
17   0.168204 
18   0.165975 
 
$$$$ 
 
