PCCDB-ID:  23492 
public computational chemistry database (PCCDB) project, http://pccdb.org 
 
 27 28  0  0  0  0  0  0  0  0999 V2000 
    0.8937   -0.2086   -0.0783 C   0  0  0  0  0  0  0  0  0  0  0  0 
    5.1692   -3.2213    0.0088 C   0  0  0  0  0  0  0  0  0  0  0  0 
    3.8190   -3.6258   -0.0094 C   0  0  0  0  0  0  0  0  0  0  0  0 
    5.5141   -1.8751    0.0155 C   0  0  0  0  0  0  0  0  0  0  0  0 
    2.7881   -2.6924   -0.0243 C   0  0  0  0  0  0  0  0  0  0  0  0 
    5.6692    1.4617    0.0293 C   0  0  0  0  0  0  0  0  0  0  0  0 
    6.3289    1.5682    1.4148 C   0  0  0  0  0  0  0  0  0  0  0  0 
    3.1626    0.9024   -0.0301 C   0  0  0  0  0  0  0  0  0  0  0  0 
    4.4853    0.5378   -0.0058 C   0  0  0  0  0  0  0  0  0  0  0  0 
    4.4969   -0.9052    0.0021 C   0  0  0  0  0  0  0  0  0  0  0  0 
    3.1407   -1.3378   -0.0171 C   0  0  0  0  0  0  0  0  0  0  0  0 
    7.4539    2.5105    1.3697 N   0  0  0  0  0  0  0  0  0  0  0  0 
    2.3400   -0.2127   -0.0347 N   0  0  0  0  0  0  0  0  0  0  0  0 
    0.5409    0.8251   -0.0799 H   0  0  0  0  0  0  0  0  0  0  0  0 
    0.4712   -0.7188    0.7959 H   0  0  0  0  0  0  0  0  0  0  0  0 
    0.5230   -0.7046   -0.9838 H   0  0  0  0  0  0  0  0  0  0  0  0 
    5.9503   -3.9768    0.0186 H   0  0  0  0  0  0  0  0  0  0  0  0 
    3.5786   -4.6856   -0.0137 H   0  0  0  0  0  0  0  0  0  0  0  0 
    6.5596   -1.5767    0.0279 H   0  0  0  0  0  0  0  0  0  0  0  0 
    1.7485   -3.0084   -0.0404 H   0  0  0  0  0  0  0  0  0  0  0  0 
    6.4263    1.1236   -0.6949 H   0  0  0  0  0  0  0  0  0  0  0  0 
    5.3765    2.4702   -0.2851 H   0  0  0  0  0  0  0  0  0  0  0  0 
    6.5996    0.5563    1.7658 H   0  0  0  0  0  0  0  0  0  0  0  0 
    5.5915    1.9567    2.1275 H   0  0  0  0  0  0  0  0  0  0  0  0 
    2.7251    1.8926   -0.0457 H   0  0  0  0  0  0  0  0  0  0  0  0 
    8.2011    2.1182    0.7967 H   0  0  0  0  0  0  0  0  0  0  0  0 
    7.8489    2.6181    2.3028 H   0  0  0  0  0  0  0  0  0  0  0  0 
  1 13  1  0  0  0  0 
  1 15  1  0  0  0  0 
  2  4  1  0  0  0  0 
  2 17  1  0  0  0  0 
  3  2  2  0  0  0  0 
  4 19  1  0  0  0  0 
  5 11  2  0  0  0  0 
  5  3  1  0  0  0  0 
  6  7  1  0  0  0  0 
  7 23  1  0  0  0  0 
  7 24  1  0  0  0  0 
  8  9  2  0  0  0  0 
  9 10  1  0  0  0  0 
  9  6  1  0  0  0  0 
 10  4  2  0  0  0  0 
 11 10  1  0  0  0  0 
 12  7  1  0  0  0  0 
 12 27  1  0  0  0  0 
 13  8  1  0  0  0  0 
 13 11  1  0  0  0  0 
 14  1  1  0  0  0  0 
 16  1  1  0  0  0  0 
 18  3  1  0  0  0  0 
 20  5  1  0  0  0  0 
 21  6  1  0  0  0  0 
 22  6  1  0  0  0  0 
 25  8  1  0  0  0  0 
 26 12  1  0  0  0  0 
M  END 
>  <HBA> 
2 
 
>  <HBD> 
1 
 
>  <TPSA> 
30.95 
 
>  <cid> 
23492 
 
>  <dipole> 
1.57 
 
>  <excitation_energy_1> 
4.381 
 
>  <excitation_energy_2> 
4.72 
 
>  <excitation_energy_3> 
4.759 
 
>  <excitation_energy_4> 
4.933 
 
>  <homo_energy> 
-5.159 
 
>  <homo_lumo_gap> 
5.119 
 
>  <logP> 
2.38 
 
>  <lumo_energy> 
-0.041 
 
>  <melting_point> 
109.24 
 
>  <molecular_refractivity> 
55.68 
 
>  <oscillator_strength_1> 
0.0836 
 
>  <oscillator_strength_2> 
0.0103 
 
>  <oscillator_strength_3> 
0.019 
 
>  <oscillator_strength_4> 
0.0105 
 
>  <open_babel_can_smiles> 
NCCc1cn(c2c1cccc2)C 
 
>  <mulliken_charges> 
27 
1   -0.320688 
2   -0.13982 
3   -0.152252 
4   -0.213077 
5   -0.168125 
6   -0.33755 
7   -0.131922 
8   -0.020019 
9   0.066262 
10   0.073433 
11   0.30142 
12   -0.716133 
13   -0.498733 
14   0.168254 
15   0.169787 
16   0.170004 
17   0.117334 
18   0.119918 
19   0.118511 
20   0.120815 
21   0.133443 
22   0.15016 
23   0.121382 
24   0.139628 
25   0.143199 
26   0.290194 
27   0.294575 
 
>  <lowdin_charges> 
27 
1   -0.344561 
2   -0.178788 
3   -0.16452 
4   -0.164309 
5   -0.189082 
6   -0.271692 
7   -0.205057 
8   -0.14084 
9   -0.063313 
10   -0.033574 
11   0.022579 
12   -0.561697 
13   -0.028082 
14   0.164996 
15   0.158756 
16   0.158296 
17   0.154056 
18   0.152625 
19   0.151842 
20   0.15417 
21   0.144476 
22   0.154862 
23   0.119983 
24   0.1436 
25   0.160652 
26   0.251114 
27   0.253508 
 
$$$$ 
 
