PCCDB-ID:  67475 
public computational chemistry database (PCCDB) project, http://pccdb.org 
 
 21 23  0  0  0  0  0  0  0  0999 V2000 
    3.2775    0.1483    0.0003 C   0  0  0  0  0  0  0  0  0  0  0  0 
    2.6805    1.4302    0.0004 C   0  0  0  0  0  0  0  0  0  0  0  0 
    2.4925   -0.9861    0.0002 C   0  0  0  0  0  0  0  0  0  0  0  0 
    1.3078    1.5609    0.0001 C   0  0  0  0  0  0  0  0  0  0  0  0 
    0.2466   -2.0651   -0.0003 C   0  0  0  0  0  0  0  0  0  0  0  0 
   -1.1246   -1.9866   -0.0004 C   0  0  0  0  0  0  0  0  0  0  0  0 
   -3.0916   -0.2139   -0.0005 C   0  0  0  0  0  0  0  0  0  0  0  0 
   -3.0002    1.1405   -0.0004 C   0  0  0  0  0  0  0  0  0  0  0  0 
    1.0772   -0.8982   -0.0001 C   0  0  0  0  0  0  0  0  0  0  0  0 
   -1.7363   -0.7039   -0.0004 C   0  0  0  0  0  0  0  0  0  0  0  0 
    0.4847    0.4088   -0.0001 C   0  0  0  0  0  0  0  0  0  0  0  0 
   -0.9287    0.4306   -0.0003 C   0  0  0  0  0  0  0  0  0  0  0  0 
   -1.6944    1.5632   -0.0003 O   0  0  0  0  0  0  0  0  0  0  0  0 
    4.3604    0.0595    0.0002 H   0  0  0  0  0  0  0  0  0  0  0  0 
    3.3091    2.3165    0.0007 H   0  0  0  0  0  0  0  0  0  0  0  0 
    2.9533   -1.9712    0.0003 H   0  0  0  0  0  0  0  0  0  0  0  0 
    0.8414    2.5415   -0.0001 H   0  0  0  0  0  0  0  0  0  0  0  0 
    0.7339   -3.0369   -0.0004 H   0  0  0  0  0  0  0  0  0  0  0  0 
   -1.7328   -2.8867   -0.0002 H   0  0  0  0  0  0  0  0  0  0  0  0 
   -4.0034   -0.7951   -0.0005 H   0  0  0  0  0  0  0  0  0  0  0  0 
   -3.7372    1.9293   -0.0005 H   0  0  0  0  0  0  0  0  0  0  0  0 
  1  2  1  0  0  0  0 
  2 15  1  0  0  0  0 
  3  1  2  0  0  0  0 
  3 16  1  0  0  0  0 
  4  2  2  0  0  0  0 
  5  9  2  0  0  0  0 
  6  5  1  0  0  0  0 
  6 19  1  0  0  0  0 
  7 10  1  0  0  0  0 
  7  8  2  0  0  0  0 
  8 13  1  0  0  0  0 
  9  3  1  0  0  0  0 
 10  6  2  0  0  0  0 
 10 12  1  0  0  0  0 
 11  9  1  0  0  0  0 
 11  4  1  0  0  0  0 
 12 13  1  0  0  0  0 
 12 11  2  0  0  0  0 
 14  1  1  0  0  0  0 
 17  4  1  0  0  0  0 
 18  5  1  0  0  0  0 
 20  7  1  0  0  0  0 
 21  8  1  0  0  0  0 
M  END 
>  <HBA> 
1 
 
>  <HBD> 
0 
 
>  <TPSA> 
13.14 
 
>  <cid> 
67475 
 
>  <dipole> 
0.7 
 
>  <excitation_energy_1> 
4.105 
 
>  <excitation_energy_2> 
4.289 
 
>  <excitation_energy_3> 
5.156 
 
>  <excitation_energy_4> 
5.184 
 
>  <homo_energy> 
-5.611 
 
>  <homo_lumo_gap> 
4.781 
 
>  <logP> 
3.586 
 
>  <lumo_energy> 
-0.83 
 
>  <melting_point> 
92.22 
 
>  <molecular_refractivity> 
53.72 
 
>  <oscillator_strength_1> 
0.0095 
 
>  <oscillator_strength_2> 
0.0182 
 
>  <oscillator_strength_3> 
0.7609 
 
>  <oscillator_strength_4> 
0.3091 
 
>  <open_babel_can_smiles> 
c1ccc2c(c1)c1occc1cc2 
 
>  <mulliken_charges> 
21 
1   -0.127356 
2   -0.144344 
3   -0.208612 
4   -0.170375 
5   -0.193962 
6   -0.208102 
7   -0.229201 
8   0.085084 
9   0.134611 
10   0.14631 
11   0.093544 
12   0.197307 
13   -0.475483 
14   0.129102 
15   0.130922 
16   0.130072 
17   0.144029 
18   0.128015 
19   0.132847 
20   0.146454 
21   0.159139 
 
>  <lowdin_charges> 
21 
1   -0.159163 
2   -0.155972 
3   -0.15409 
4   -0.155458 
5   -0.166252 
6   -0.159363 
7   -0.209504 
8   -0.062135 
9   -0.000577 
10   -0.034386 
11   -0.013955 
12   0.072828 
13   -0.10767 
14   0.156524 
15   0.159638 
16   0.157389 
17   0.165882 
18   0.158131 
19   0.161479 
20   0.172468 
21   0.174185 
 
$$$$ 
 
