PCCDB-ID:  12104 
public computational chemistry database (PCCDB) project, http://pccdb.org 
 
 16 16  0  0  0  0  0  0  0  0999 V2000 
    0.9063    0.0727    0.0570 C   0  0  0  0  0  0  0  0  0  0  0  0 
    4.5480    1.2274   -0.1800 C   0  0  0  0  0  0  0  0  0  0  0  0 
    3.1547    1.2438   -0.0775 C   0  0  0  0  0  0  0  0  0  0  0  0 
    5.2313    0.0197   -0.2721 C   0  0  0  0  0  0  0  0  0  0  0  0 
    3.1025   -1.1573   -0.1567 C   0  0  0  0  0  0  0  0  0  0  0  0 
    5.1876   -2.4377   -0.3554 C   0  0  0  0  0  0  0  0  0  0  0  0 
    2.4125    0.0560   -0.0631 C   0  0  0  0  0  0  0  0  0  0  0  0 
    4.5013   -1.1811   -0.2605 C   0  0  0  0  0  0  0  0  0  0  0  0 
    5.7445   -3.4563   -0.4319 N   0  0  0  0  0  0  0  0  0  0  0  0 
    0.5161    1.0946    0.0327 H   0  0  0  0  0  0  0  0  0  0  0  0 
    0.5773   -0.3877    0.9968 H   0  0  0  0  0  0  0  0  0  0  0  0 
    0.4341   -0.4871   -0.7588 H   0  0  0  0  0  0  0  0  0  0  0  0 
    5.1009    2.1623   -0.1876 H   0  0  0  0  0  0  0  0  0  0  0  0 
    2.6340    2.1957   -0.0083 H   0  0  0  0  0  0  0  0  0  0  0  0 
    6.3129   -0.0072   -0.3537 H   0  0  0  0  0  0  0  0  0  0  0  0 
    2.5563   -2.0965   -0.1501 H   0  0  0  0  0  0  0  0  0  0  0  0 
  1 11  1  0  0  0  0 
  2  3  2  0  0  0  0 
  3  7  1  0  0  0  0 
  3 14  1  0  0  0  0 
  4  8  2  0  0  0  0 
  4  2  1  0  0  0  0 
  5 16  1  0  0  0  0 
  5  7  2  0  0  0  0 
  6  8  1  0  0  0  0 
  7  1  1  0  0  0  0 
  8  5  1  0  0  0  0 
  9  6  3  0  0  0  0 
 10  1  1  0  0  0  0 
 12  1  1  0  0  0  0 
 13  2  1  0  0  0  0 
 15  4  1  0  0  0  0 
M  END 
>  <HBA> 
1 
 
>  <HBD> 
0 
 
>  <TPSA> 
23.79 
 
>  <cid> 
12104 
 
>  <dipole> 
4.79 
 
>  <excitation_energy_1> 
4.945 
 
>  <excitation_energy_2> 
5.48 
 
>  <excitation_energy_3> 
6.27 
 
>  <excitation_energy_4> 
6.317 
 
>  <homo_energy> 
-7.094 
 
>  <homo_lumo_gap> 
5.791 
 
>  <logP> 
1.867 
 
>  <lumo_energy> 
-1.303 
 
>  <melting_point> 
45.89 
 
>  <molecular_refractivity> 
36.12 
 
>  <oscillator_strength_1> 
0.0153 
 
>  <oscillator_strength_2> 
0.1693 
 
>  <oscillator_strength_3> 
0.0001 
 
>  <oscillator_strength_4> 
0.4569 
 
>  <open_babel_can_smiles> 
N#Cc1cccc(c1)C 
 
>  <mulliken_charges> 
16 
1   -0.531648 
2   -0.130161 
3   -0.168602 
4   -0.139446 
5   -0.187092 
6   0.238019 
7   0.171957 
8   0.131026 
9   -0.47951 
10   0.160939 
11   0.172997 
12   0.170948 
13   0.144973 
14   0.136304 
15   0.157696 
16   0.151599 
 
>  <lowdin_charges> 
16 
1   -0.442402 
2   -0.148446 
3   -0.15122 
4   -0.136522 
5   -0.142248 
6   -0.012779 
7   0.008141 
8   -0.018288 
9   -0.120386 
10   0.159654 
11   0.166922 
12   0.166903 
13   0.166281 
14   0.161668 
15   0.171713 
16   0.171007 
 
$$$$ 
 
