PCCDB-ID:  28002 
public computational chemistry database (PCCDB) project, http://pccdb.org 
 
 23 24  0  0  0  0  0  0  0  0999 V2000 
   -2.5211   -1.0200   -0.3049 C   0  0  0  0  0  0  0  0  0  0  0  0 
   -2.6562    0.3835   -0.2716 C   0  0  0  0  0  0  0  0  0  0  0  0 
   -1.2676   -1.5786   -0.2111 C   0  0  0  0  0  0  0  0  0  0  0  0 
   -1.5537    1.2046   -0.1532 C   0  0  0  0  0  0  0  0  0  0  0  0 
    1.1683   -1.3681    0.0238 C   0  0  0  0  0  0  0  0  0  0  0  0 
   -0.1133   -0.7639   -0.0828 C   0  0  0  0  0  0  0  0  0  0  0  0 
   -0.2399    0.6671   -0.0562 C   0  0  0  0  0  0  0  0  0  0  0  0 
    2.2817   -0.5910    0.1608 C   0  0  0  0  0  0  0  0  0  0  0  0 
    0.9547    1.4785    0.0873 C   0  0  0  0  0  0  0  0  0  0  0  0 
    2.1759    0.8265    0.1977 C   0  0  0  0  0  0  0  0  0  0  0  0 
    0.8746    2.9904    0.1010 C   0  0  0  0  0  0  0  0  0  0  0  0 
    3.5739   -1.0503    0.2816 O   0  0  0  0  0  0  0  0  0  0  0  0 
    3.3530    1.5161    0.3433 O   0  0  0  0  0  0  0  0  0  0  0  0 
   -0.1002    3.6135   -0.2630 O   0  0  0  0  0  0  0  0  0  0  0  0 
    1.9428    3.6759    0.5598 O   0  0  0  0  0  0  0  0  0  0  0  0 
   -3.3988   -1.6529   -0.4024 H   0  0  0  0  0  0  0  0  0  0  0  0 
   -3.6442    0.8305   -0.3415 H   0  0  0  0  0  0  0  0  0  0  0  0 
   -1.1394   -2.6584   -0.2314 H   0  0  0  0  0  0  0  0  0  0  0  0 
   -1.6746    2.2773   -0.1437 H   0  0  0  0  0  0  0  0  0  0  0  0 
    1.2508   -2.4530   -0.0022 H   0  0  0  0  0  0  0  0  0  0  0  0 
    3.5880   -2.0184    0.2423 H   0  0  0  0  0  0  0  0  0  0  0  0 
    4.0753    0.8693    0.4410 H   0  0  0  0  0  0  0  0  0  0  0  0 
    2.6976    3.0828    0.7367 H   0  0  0  0  0  0  0  0  0  0  0  0 
  1  2  2  0  0  0  0 
  1  3  1  0  0  0  0 
  2  4  1  0  0  0  0 
  3  6  2  0  0  0  0 
  4 19  1  0  0  0  0 
  4  7  2  0  0  0  0 
  5  8  2  0  0  0  0 
  6  7  1  0  0  0  0 
  6  5  1  0  0  0  0 
  7  9  1  0  0  0  0 
  8 10  1  0  0  0  0 
  8 12  1  0  0  0  0 
  9 11  1  0  0  0  0 
  9 10  2  0  0  0  0 
 10 13  1  0  0  0  0 
 11 15  1  0  0  0  0 
 13 22  1  0  0  0  0 
 14 11  2  0  0  0  0 
 15 23  1  0  0  0  0 
 16  1  1  0  0  0  0 
 17  2  1  0  0  0  0 
 18  3  1  0  0  0  0 
 20  5  1  0  0  0  0 
 21 12  1  0  0  0  0 
M  END 
>  <HBA> 
4 
 
>  <HBD> 
3 
 
>  <TPSA> 
77.76 
 
>  <cid> 
28002 
 
>  <dipole> 
7.41 
 
>  <excitation_energy_1> 
3.884 
 
>  <excitation_energy_2> 
4.077 
 
>  <excitation_energy_3> 
4.332 
 
>  <excitation_energy_4> 
4.749 
 
>  <homo_energy> 
-6.019 
 
>  <homo_lumo_gap> 
4.414 
 
>  <logP> 
1.949 
 
>  <lumo_energy> 
-1.605 
 
>  <melting_point> 
221.93 
 
>  <molecular_refractivity> 
54.95 
 
>  <oscillator_strength_1> 
0.0824 
 
>  <oscillator_strength_2> 
0.0657 
 
>  <oscillator_strength_3> 
0.0032 
 
>  <oscillator_strength_4> 
0.0002 
 
>  <open_babel_can_smiles> 
OC(=O)c1c(O)c(O)cc2c1cccc2 
 
>  <mulliken_charges> 
23 
1   -0.130675 
2   -0.137918 
3   -0.201568 
4   -0.194015 
5   -0.264563 
6   0.140106 
7   0.05098 
8   0.339309 
9   -0.036969 
10   0.262929 
11   0.581861 
12   -0.690339 
13   -0.698399 
14   -0.46187 
15   -0.597039 
16   0.131608 
17   0.134895 
18   0.125601 
19   0.194813 
20   0.13273 
21   0.426972 
22   0.450329 
23   0.441224 
 
>  <lowdin_charges> 
23 
1   -0.156515 
2   -0.153786 
3   -0.162326 
4   -0.155336 
5   -0.189075 
6   0.000845 
7   0.007563 
8   0.062683 
9   -0.084382 
10   0.087369 
11   0.203225 
12   -0.39427 
13   -0.381647 
14   -0.255648 
15   -0.362742 
16   0.160228 
17   0.160706 
18   0.153362 
19   0.190431 
20   0.159197 
21   0.370215 
22   0.37772 
23   0.362183 
 
$$$$ 
 
