PCCDB-ID:  17608 
public computational chemistry database (PCCDB) project, http://pccdb.org 
 
 18 18  0  0  0  0  0  0  0  0999 V2000 
   -1.5780    0.2296    0.1049 C   0  0  0  0  0  0  0  0  0  0  0  0 
   -0.7430    1.2755    0.5036 C   0  0  0  0  0  0  0  0  0  0  0  0 
   -1.0245   -0.9478   -0.4081 C   0  0  0  0  0  0  0  0  0  0  0  0 
    0.6358    1.1404    0.3872 C   0  0  0  0  0  0  0  0  0  0  0  0 
    0.3536   -1.0889   -0.5264 C   0  0  0  0  0  0  0  0  0  0  0  0 
    2.6630   -0.0753   -0.2079 C   0  0  0  0  0  0  0  0  0  0  0  0 
    3.1474   -2.3190   -1.1677 C   0  0  0  0  0  0  0  0  0  0  0  0 
    4.9378   -0.7861   -0.6070 C   0  0  0  0  0  0  0  0  0  0  0  0 
    1.2127   -0.0410   -0.1286 C   0  0  0  0  0  0  0  0  0  0  0  0 
    3.5260   -1.0390   -0.6498 C   0  0  0  0  0  0  0  0  0  0  0  0 
    2.8618   -3.3650   -1.5905 N   0  0  0  0  0  0  0  0  0  0  0  0 
    6.0814   -0.5751   -0.5711 N   0  0  0  0  0  0  0  0  0  0  0  0 
   -2.6562    0.3301    0.1925 H   0  0  0  0  0  0  0  0  0  0  0  0 
   -1.1654    2.1926    0.9034 H   0  0  0  0  0  0  0  0  0  0  0  0 
   -1.6723   -1.7624   -0.7183 H   0  0  0  0  0  0  0  0  0  0  0  0 
    1.2855    1.9547    0.6981 H   0  0  0  0  0  0  0  0  0  0  0  0 
    0.7577   -2.0104   -0.9261 H   0  0  0  0  0  0  0  0  0  0  0  0 
    3.1514    0.8292    0.1480 H   0  0  0  0  0  0  0  0  0  0  0  0 
  1 13  1  0  0  0  0 
  1  2  2  0  0  0  0 
  2 14  1  0  0  0  0 
  3  1  1  0  0  0  0 
  4  2  1  0  0  0  0 
  4 16  1  0  0  0  0 
  5  3  2  0  0  0  0 
  5  9  1  0  0  0  0 
  6  9  1  0  0  0  0 
  6 18  1  0  0  0  0 
  7 10  1  0  0  0  0 
  8 12  3  0  0  0  0 
  9  4  2  0  0  0  0 
 10  8  1  0  0  0  0 
 10  6  2  0  0  0  0 
 11  7  3  0  0  0  0 
 15  3  1  0  0  0  0 
 17  5  1  0  0  0  0 
M  END 
>  <HBA> 
2 
 
>  <HBD> 
0 
 
>  <TPSA> 
47.58 
 
>  <cid> 
17608 
 
>  <dipole> 
6.67 
 
>  <excitation_energy_1> 
4.03 
 
>  <excitation_energy_2> 
4.102 
 
>  <excitation_energy_3> 
5.358 
 
>  <excitation_energy_4> 
5.423 
 
>  <homo_energy> 
-7.067 
 
>  <homo_lumo_gap> 
4.161 
 
>  <logP> 
2.117 
 
>  <lumo_energy> 
-2.906 
 
>  <melting_point> 
96.73 
 
>  <molecular_refractivity> 
45.65 
 
>  <oscillator_strength_1> 
0.4653 
 
>  <oscillator_strength_2> 
0.2126 
 
>  <oscillator_strength_3> 
0.0001 
 
>  <oscillator_strength_4> 
0.0277 
 
>  <open_babel_can_smiles> 
N#CC(=Cc1ccccc1)C#N 
 
>  <mulliken_charges> 
18 
1   -0.115786 
2   -0.13079 
3   -0.133427 
4   -0.177256 
5   -0.178795 
6   -0.164819 
7   0.317027 
8   0.286668 
9   0.167455 
10   0.120319 
11   -0.492022 
12   -0.460834 
13   0.15043 
14   0.149146 
15   0.1536 
16   0.14927 
17   0.18131 
18   0.178504 
 
>  <lowdin_charges> 
18 
1   -0.125786 
2   -0.151693 
3   -0.147044 
4   -0.138315 
5   -0.139136 
6   -0.070822 
7   -0.001051 
8   -0.007419 
9   -0.015642 
10   -0.047931 
11   -0.098579 
12   -0.097685 
13   0.166002 
14   0.167964 
15   0.170525 
16   0.166573 
17   0.185122 
18   0.184916 
 
$$$$ 
 
