PCCDB-ID:  12219 
public computational chemistry database (PCCDB) project, http://pccdb.org 
 
 13 12  0  0  0  0  0  0  0  0999 V2000 
    0.8919   -0.0707   -0.0965 C   0  0  0  0  0  0  0  0  0  0  0  0 
    4.3615    1.0072    0.9607 C   0  0  0  0  0  0  0  0  0  0  0  0 
    2.4181   -0.0327   -0.0751 C   0  0  0  0  0  0  0  0  0  0  0  0 
    2.9075    0.9064    0.9309 N   0  0  0  0  0  0  0  0  0  0  0  0 
    0.5291   -0.8087   -0.8203 H   0  0  0  0  0  0  0  0  0  0  0  0 
    0.4759    0.9044   -0.3816 H   0  0  0  0  0  0  0  0  0  0  0  0 
    0.5003   -0.3279    0.8930 H   0  0  0  0  0  0  0  0  0  0  0  0 
    4.6624    1.7675    1.6893 H   0  0  0  0  0  0  0  0  0  0  0  0 
    4.8236    1.2588   -0.0134 H   0  0  0  0  0  0  0  0  0  0  0  0 
    4.7847    0.0491    1.2865 H   0  0  0  0  0  0  0  0  0  0  0  0 
    2.7998    0.1925   -1.0917 H   0  0  0  0  0  0  0  0  0  0  0  0 
    2.8076   -1.0269    0.1835 H   0  0  0  0  0  0  0  0  0  0  0  0 
    2.5143    1.8268    0.7375 H   0  0  0  0  0  0  0  0  0  0  0  0 
  1  3  1  0  0  0  0 
  1  7  1  0  0  0  0 
  2 10  1  0  0  0  0 
  2  8  1  0  0  0  0 
  3 12  1  0  0  0  0 
  3  4  1  0  0  0  0 
  4  2  1  0  0  0  0 
  5  1  1  0  0  0  0 
  6  1  1  0  0  0  0 
  9  2  1  0  0  0  0 
 11  3  1  0  0  0  0 
 13  4  1  0  0  0  0 
M  END 
>  <HBA> 
1 
 
>  <HBD> 
1 
 
>  <TPSA> 
12.03 
 
>  <cid> 
12219 
 
>  <dipole> 
0.96 
 
>  <excitation_energy_1> 
5.424 
 
>  <excitation_energy_2> 
5.986 
 
>  <excitation_energy_3> 
6.1 
 
>  <excitation_energy_4> 
6.423 
 
>  <homo_energy> 
-5.85 
 
>  <homo_lumo_gap> 
8.253 
 
>  <logP> 
0.617 
 
>  <lumo_energy> 
2.403 
 
>  <melting_point> 
2.61 
 
>  <molecular_refractivity> 
19.34 
 
>  <oscillator_strength_1> 
0.0029 
 
>  <oscillator_strength_2> 
0.0259 
 
>  <oscillator_strength_3> 
0.0142 
 
>  <oscillator_strength_4> 
0.0894 
 
>  <open_babel_can_smiles> 
CNCC 
 
>  <mulliken_charges> 
13 
1   -0.449645 
2   -0.29882 
3   -0.107996 
4   -0.531656 
5   0.143272 
6   0.136925 
7   0.159382 
8   0.146611 
9   0.117038 
10   0.150292 
11   0.106883 
12   0.138582 
13   0.289132 
 
>  <lowdin_charges> 
13 
1   -0.44884 
2   -0.360986 
3   -0.196391 
4   -0.364204 
5   0.153214 
6   0.143986 
7   0.155948 
8   0.15063 
9   0.118995 
10   0.147487 
11   0.111762 
12   0.139529 
13   0.248869 
 
$$$$ 
 
