PCCDB-ID:  70723 
public computational chemistry database (PCCDB) project, http://pccdb.org 
 
 18 18  0  0  0  0  0  0  0  0999 V2000 
   -0.4296   -1.4967   -0.4452 C   0  0  0  0  0  0  0  0  0  0  0  0 
    0.8304   -1.3571    0.4353 C   0  0  0  0  0  0  0  0  0  0  0  0 
   -1.5373   -0.5337   -0.0847 C   0  0  0  0  0  0  0  0  0  0  0  0 
    1.7504   -0.1761    0.0717 C   0  0  0  0  0  0  0  0  0  0  0  0 
   -1.4181    0.7448    0.3127 C   0  0  0  0  0  0  0  0  0  0  0  0 
    1.0276    1.0864   -0.4487 C   0  0  0  0  0  0  0  0  0  0  0  0 
   -0.1667    1.5445    0.3786 C   0  0  0  0  0  0  0  0  0  0  0  0 
   -0.1337    2.5808    1.0280 O   0  0  0  0  0  0  0  0  0  0  0  0 
   -0.8238   -2.5150   -0.3477 H   0  0  0  0  0  0  0  0  0  0  0  0 
   -0.1619   -1.3901   -1.5086 H   0  0  0  0  0  0  0  0  0  0  0  0 
    1.4111   -2.2859    0.3784 H   0  0  0  0  0  0  0  0  0  0  0  0 
    0.5015   -1.2633    1.4773 H   0  0  0  0  0  0  0  0  0  0  0  0 
   -2.5422   -0.9559   -0.0920 H   0  0  0  0  0  0  0  0  0  0  0  0 
    2.4585   -0.4887   -0.7062 H   0  0  0  0  0  0  0  0  0  0  0  0 
    2.3524    0.0901    0.9485 H   0  0  0  0  0  0  0  0  0  0  0  0 
   -2.3003    1.2905    0.6409 H   0  0  0  0  0  0  0  0  0  0  0  0 
    0.6733    0.8951   -1.4708 H   0  0  0  0  0  0  0  0  0  0  0  0 
    1.7311    1.9229   -0.4929 H   0  0  0  0  0  0  0  0  0  0  0  0 
  1  9  1  0  0  0  0 
  1  3  1  0  0  0  0 
  1  2  1  0  0  0  0 
  2 12  1  0  0  0  0 
  3  5  2  0  0  0  0 
  4  2  1  0  0  0  0 
  4 15  1  0  0  0  0 
  5  7  1  0  0  0  0 
  5 16  1  0  0  0  0 
  6  4  1  0  0  0  0 
  6  7  1  0  0  0  0 
  7  8  2  0  0  0  0 
 10  1  1  0  0  0  0 
 11  2  1  0  0  0  0 
 13  3  1  0  0  0  0 
 14  4  1  0  0  0  0 
 17  6  1  0  0  0  0 
 18  6  1  0  0  0  0 
M  END 
>  <HBA> 
1 
 
>  <HBD> 
0 
 
>  <TPSA> 
17.07 
 
>  <cid> 
70723 
 
>  <dipole> 
3.7 
 
>  <excitation_energy_1> 
3.643 
 
>  <excitation_energy_2> 
5.658 
 
>  <excitation_energy_3> 
5.955 
 
>  <excitation_energy_4> 
6.421 
 
>  <homo_energy> 
-6.433 
 
>  <homo_lumo_gap> 
5.17 
 
>  <logP> 
1.686 
 
>  <lumo_energy> 
-1.263 
 
>  <melting_point> 
26.53 
 
>  <molecular_refractivity> 
33.38 
 
>  <oscillator_strength_1> 
0.0008 
 
>  <oscillator_strength_2> 
0.2334 
 
>  <oscillator_strength_3> 
0.0348 
 
>  <oscillator_strength_4> 
0.0098 
 
>  <open_babel_can_smiles> 
O=C1CCCCC=C1 
 
>  <mulliken_charges> 
18 
1   -0.311969 
2   -0.267061 
3   -0.103601 
4   -0.266019 
5   -0.170616 
6   -0.356207 
7   0.438034 
8   -0.466196 
9   0.149641 
10   0.159618 
11   0.140732 
12   0.151245 
13   0.144005 
14   0.142217 
15   0.153151 
16   0.148097 
17   0.1505 
18   0.16443 
 
>  <lowdin_charges> 
18 
1   -0.280816 
2   -0.278418 
3   -0.126091 
4   -0.274505 
5   -0.20449 
6   -0.306704 
7   0.148525 
8   -0.244443 
9   0.155856 
10   0.156888 
11   0.149855 
12   0.148896 
13   0.160705 
14   0.148307 
15   0.153303 
16   0.171036 
17   0.155104 
18   0.166991 
 
$$$$ 
 
