PCCDB-ID:  19991 
public computational chemistry database (PCCDB) project, http://pccdb.org 
 
 30 31  0  0  0  0  0  0  0  0999 V2000 
   -2.4197   -1.0194   -0.2368 C   0  0  0  0  0  0  0  0  0  0  0  0 
    7.2358    5.7238   -0.1162 C   0  0  0  0  0  0  0  0  0  0  0  0 
   -2.0156   -0.7977   -1.5574 C   0  0  0  0  0  0  0  0  0  0  0  0 
   -1.6892   -0.4686    0.8169 C   0  0  0  0  0  0  0  0  0  0  0  0 
    6.5465    5.1247   -1.1712 C   0  0  0  0  0  0  0  0  0  0  0  0 
    6.7615    5.5898    1.1928 C   0  0  0  0  0  0  0  0  0  0  0  0 
   -0.8870   -0.0293   -1.8189 C   0  0  0  0  0  0  0  0  0  0  0  0 
   -0.5605    0.3080    0.5557 C   0  0  0  0  0  0  0  0  0  0  0  0 
    5.3879    4.3889   -0.9227 C   0  0  0  0  0  0  0  0  0  0  0  0 
    5.6046    4.8602    1.4414 C   0  0  0  0  0  0  0  0  0  0  0  0 
    1.7935    2.0866   -0.0579 C   0  0  0  0  0  0  0  0  0  0  0  0 
    2.9331    2.7396   -0.3321 C   0  0  0  0  0  0  0  0  0  0  0  0 
   -0.1470    0.5373   -0.7667 C   0  0  0  0  0  0  0  0  0  0  0  0 
    4.9035    4.2478    0.3880 C   0  0  0  0  0  0  0  0  0  0  0  0 
    1.0585    1.3477   -1.1283 C   0  0  0  0  0  0  0  0  0  0  0  0 
    3.6657    3.4815    0.7378 C   0  0  0  0  0  0  0  0  0  0  0  0 
    1.4404    1.4120   -2.2938 O   0  0  0  0  0  0  0  0  0  0  0  0 
    3.2551    3.4556    1.8950 O   0  0  0  0  0  0  0  0  0  0  0  0 
   -3.3009   -1.6212   -0.0307 H   0  0  0  0  0  0  0  0  0  0  0  0 
    8.1396    6.2945   -0.3122 H   0  0  0  0  0  0  0  0  0  0  0  0 
   -2.5819   -1.2269   -2.3794 H   0  0  0  0  0  0  0  0  0  0  0  0 
   -1.9970   -0.6429    1.8441 H   0  0  0  0  0  0  0  0  0  0  0  0 
    6.9101    5.2286   -2.1896 H   0  0  0  0  0  0  0  0  0  0  0  0 
    7.2955    6.0566    2.0159 H   0  0  0  0  0  0  0  0  0  0  0  0 
   -0.5523    0.1517   -2.8348 H   0  0  0  0  0  0  0  0  0  0  0  0 
   -0.0040    0.7189    1.3910 H   0  0  0  0  0  0  0  0  0  0  0  0 
    4.8673    3.9372   -1.7599 H   0  0  0  0  0  0  0  0  0  0  0  0 
    5.2169    4.7453    2.4480 H   0  0  0  0  0  0  0  0  0  0  0  0 
    1.4150    2.1168    0.9580 H   0  0  0  0  0  0  0  0  0  0  0  0 
    3.3079    2.7127   -1.3494 H   0  0  0  0  0  0  0  0  0  0  0  0 
  1 19  1  0  0  0  0 
  1  4  2  0  0  0  0 
  2  6  2  0  0  0  0 
  3  1  1  0  0  0  0 
  4 22  1  0  0  0  0 
  5  9  2  0  0  0  0 
  5  2  1  0  0  0  0 
  6 10  1  0  0  0  0 
  6 24  1  0  0  0  0 
  7  3  2  0  0  0  0 
  7 13  1  0  0  0  0 
  8  4  1  0  0  0  0 
  8 26  1  0  0  0  0 
  9 14  1  0  0  0  0 
 10 28  1  0  0  0  0 
 11 29  1  0  0  0  0 
 12 11  2  0  0  0  0 
 12 16  1  0  0  0  0 
 13  8  2  0  0  0  0 
 14 16  1  0  0  0  0 
 14 10  2  0  0  0  0 
 15 13  1  0  0  0  0 
 15 11  1  0  0  0  0 
 16 18  2  0  0  0  0 
 17 15  2  0  0  0  0 
 20  2  1  0  0  0  0 
 21  3  1  0  0  0  0 
 23  5  1  0  0  0  0 
 25  7  1  0  0  0  0 
 27  9  1  0  0  0  0 
 30 12  1  0  0  0  0 
M  END 
>  <HBA> 
2 
 
>  <HBD> 
0 
 
>  <TPSA> 
34.14 
 
>  <cid> 
19991 
 
>  <dipole> 
0.14 
 
>  <excitation_energy_1> 
2.964 
 
>  <excitation_energy_2> 
3.049 
 
>  <excitation_energy_3> 
3.706 
 
>  <excitation_energy_4> 
3.708 
 
>  <homo_energy> 
-6.963 
 
>  <homo_lumo_gap> 
4.237 
 
>  <logP> 
3.308 
 
>  <lumo_energy> 
-2.727 
 
>  <melting_point> 
108.79 
 
>  <molecular_refractivity> 
70.69 
 
>  <oscillator_strength_1> 
0.0001 
 
>  <oscillator_strength_2> 
0.0 
 
>  <oscillator_strength_3> 
0.009 
 
>  <oscillator_strength_4> 
0.0 
 
>  <open_babel_can_smiles> 
O=C(c1ccccc1)/C=C/C(=O)c1ccccc1 
 
>  <mulliken_charges> 
30 
1   -0.116 
2   -0.115937 
3   -0.133906 
4   -0.137571 
5   -0.137664 
6   -0.133754 
7   -0.152144 
8   -0.173664 
9   -0.173527 
10   -0.152152 
11   -0.160557 
12   -0.161272 
13   0.067006 
14   0.065718 
15   0.376911 
16   0.377899 
17   -0.478697 
18   -0.479388 
19   0.139886 
20   0.139921 
21   0.140136 
22   0.140087 
23   0.140108 
24   0.140131 
25   0.165447 
26   0.148511 
27   0.148843 
28   0.16575 
29   0.175079 
30   0.1748 
 
>  <lowdin_charges> 
30 
1   -0.135266 
2   -0.13504 
3   -0.155103 
4   -0.155279 
5   -0.155483 
6   -0.15507 
7   -0.12544 
8   -0.147319 
9   -0.147081 
10   -0.125473 
11   -0.148699 
12   -0.14879 
13   -0.045929 
14   -0.046083 
15   0.154085 
16   0.154273 
17   -0.249072 
18   -0.249395 
19   0.162719 
20   0.162599 
21   0.163752 
22   0.161708 
23   0.161827 
24   0.163754 
25   0.176969 
26   0.166713 
27   0.166589 
28   0.177253 
29   0.176314 
30   0.175968 
 
$$$$ 
 
