PCCDB-ID:  73268 
public computational chemistry database (PCCDB) project, http://pccdb.org 
 
 13 13  0  0  0  0  0  0  0  0999 V2000 
   -0.6446    1.1877   -0.0023 C   0  0  0  0  0  0  0  0  0  0  0  0 
   -1.3809    0.0210   -0.0008 C   0  0  0  0  0  0  0  0  0  0  0  0 
   -0.6469   -1.1876   -0.0005 C   0  0  0  0  0  0  0  0  0  0  0  0 
    1.2748   -0.0159   -0.0026 C   0  0  0  0  0  0  0  0  0  0  0  0 
    0.7013    1.1871   -0.0035 N   0  0  0  0  0  0  0  0  0  0  0  0 
    0.6722   -1.2093   -0.0014 N   0  0  0  0  0  0  0  0  0  0  0  0 
   -2.7522   -0.0967    0.0016 O   0  0  0  0  0  0  0  0  0  0  0  0 
   -1.2875   -2.3698    0.0005 O   0  0  0  0  0  0  0  0  0  0  0  0 
    2.6214   -0.0558   -0.0032 O   0  0  0  0  0  0  0  0  0  0  0  0 
   -1.1341    2.1621   -0.0029 H   0  0  0  0  0  0  0  0  0  0  0  0 
   -3.1604    0.7828   -0.0063 H   0  0  0  0  0  0  0  0  0  0  0  0 
   -2.2444   -2.1889    0.0009 H   0  0  0  0  0  0  0  0  0  0  0  0 
    2.9139    0.8723   -0.0051 H   0  0  0  0  0  0  0  0  0  0  0  0 
  1  2  2  0  0  0  0 
  2  3  1  0  0  0  0 
  2  7  1  0  0  0  0 
  3  8  1  0  0  0  0 
  4  6  1  0  0  0  0 
  5  4  2  0  0  0  0 
  5  1  1  0  0  0  0 
  6  3  2  0  0  0  0 
  8 12  1  0  0  0  0 
  9  4  1  0  0  0  0 
 10  1  1  0  0  0  0 
 11  7  1  0  0  0  0 
 13  9  1  0  0  0  0 
M  END 
>  <HBA> 
3 
 
>  <HBD> 
3 
 
>  <TPSA> 
85.95 
 
>  <cid> 
73268 
 
>  <dipole> 
4.92 
 
>  <excitation_energy_1> 
4.834 
 
>  <excitation_energy_2> 
4.899 
 
>  <excitation_energy_3> 
4.963 
 
>  <excitation_energy_4> 
5.844 
 
>  <homo_energy> 
-6.231 
 
>  <homo_lumo_gap> 
5.426 
 
>  <logP> 
-1.231 
 
>  <lumo_energy> 
-0.805 
 
>  <melting_point> 
208.72 
 
>  <molecular_refractivity> 
29.71 
 
>  <oscillator_strength_1> 
0.0966 
 
>  <oscillator_strength_2> 
0.0049 
 
>  <oscillator_strength_3> 
0.0 
 
>  <oscillator_strength_4> 
0.0002 
 
>  <open_babel_can_smiles> 
Oc1ncc(c(n1)O)O 
 
>  <mulliken_charges> 
13 
1   0.004051 
2   0.274455 
3   0.506507 
4   0.625073 
5   -0.487934 
6   -0.480501 
7   -0.680293 
8   -0.59191 
9   -0.584848 
10   0.142551 
11   0.421534 
12   0.434423 
13   0.41689 
 
>  <lowdin_charges> 
13 
1   -0.110332 
2   0.007333 
3   0.138677 
4   0.155272 
5   -0.218317 
6   -0.16408 
7   -0.39917 
8   -0.32853 
9   -0.341174 
10   0.159181 
11   0.368616 
12   0.369258 
13   0.363266 
 
$$$$ 
 
