PCCDB-ID:  56320 
public computational chemistry database (PCCDB) project, http://pccdb.org 
 
 35 35  0  0  0  0  0  0  0  0999 V2000 
    6.1770    0.4844    2.5249 C   0  0  0  0  0  0  0  0  0  0  0  0 
    5.0424    3.6411    0.5169 C   0  0  0  0  0  0  0  0  0  0  0  0 
    2.2955   -1.7714   -1.6985 C   0  0  0  0  0  0  0  0  0  0  0  0 
    2.6487   -0.7165   -3.8949 C   0  0  0  0  0  0  0  0  0  0  0  0 
    9.1465    0.9150    0.1581 C   0  0  0  0  0  0  0  0  0  0  0  0 
    8.5175    1.2652   -1.0362 C   0  0  0  0  0  0  0  0  0  0  0  0 
    8.3835    0.6635    1.2993 C   0  0  0  0  0  0  0  0  0  0  0  0 
    7.1268    1.3661   -1.0813 C   0  0  0  0  0  0  0  0  0  0  0  0 
    4.1612    0.0803   -0.4587 C   0  0  0  0  0  0  0  0  0  0  0  0 
    6.9865    0.7580    1.2792 C   0  0  0  0  0  0  0  0  0  0  0  0 
    4.2328    2.4028    0.1747 C   0  0  0  0  0  0  0  0  0  0  0  0 
    6.3667    1.1223    0.0670 C   0  0  0  0  0  0  0  0  0  0  0  0 
    3.8752    0.1540   -1.9774 C   0  0  0  0  0  0  0  0  0  0  0  0 
    3.0223   -0.7902   -2.4886 N   0  0  0  0  0  0  0  0  0  0  0  0 
    4.9319    1.2201    0.0073 N   0  0  0  0  0  0  0  0  0  0  0  0 
    3.0140    2.4341    0.0514 O   0  0  0  0  0  0  0  0  0  0  0  0 
    4.4069    1.0070   -2.6800 O   0  0  0  0  0  0  0  0  0  0  0  0 
    6.8276    0.1833    3.3516 H   0  0  0  0  0  0  0  0  0  0  0  0 
    5.4427   -0.3141    2.3665 H   0  0  0  0  0  0  0  0  0  0  0  0 
    5.6120    1.3675    2.8464 H   0  0  0  0  0  0  0  0  0  0  0  0 
    5.6079    3.9753   -0.3600 H   0  0  0  0  0  0  0  0  0  0  0  0 
    5.7634    3.4643    1.3206 H   0  0  0  0  0  0  0  0  0  0  0  0 
    4.3444    4.4263    0.8104 H   0  0  0  0  0  0  0  0  0  0  0  0 
    2.2729   -2.7253   -2.2389 H   0  0  0  0  0  0  0  0  0  0  0  0 
    1.2568   -1.4584   -1.5177 H   0  0  0  0  0  0  0  0  0  0  0  0 
    2.7765   -1.9482   -0.7370 H   0  0  0  0  0  0  0  0  0  0  0  0 
    1.5826   -0.4736   -4.0004 H   0  0  0  0  0  0  0  0  0  0  0  0 
    2.8363   -1.6783   -4.3885 H   0  0  0  0  0  0  0  0  0  0  0  0 
    3.2436    0.0628   -4.3684 H   0  0  0  0  0  0  0  0  0  0  0  0 
   10.2295    0.8362    0.2049 H   0  0  0  0  0  0  0  0  0  0  0  0 
    9.1035    1.4581   -1.9307 H   0  0  0  0  0  0  0  0  0  0  0  0 
    8.8787    0.3860    2.2269 H   0  0  0  0  0  0  0  0  0  0  0  0 
    6.6024    1.6162   -1.9974 H   0  0  0  0  0  0  0  0  0  0  0  0 
    4.7195   -0.8339   -0.2309 H   0  0  0  0  0  0  0  0  0  0  0  0 
    3.2170    0.0622    0.0911 H   0  0  0  0  0  0  0  0  0  0  0  0 
  1 20  1  0  0  0  0 
  1 18  1  0  0  0  0 
  2 23  1  0  0  0  0 
  2 22  1  0  0  0  0 
  3 25  1  0  0  0  0 
  3 26  1  0  0  0  0 
  4 14  1  0  0  0  0 
  5 30  1  0  0  0  0 
  5  7  2  0  0  0  0 
  6  5  1  0  0  0  0 
  7 32  1  0  0  0  0 
  8  6  2  0  0  0  0 
  8 12  1  0  0  0  0 
  9 34  1  0  0  0  0 
  9 15  1  0  0  0  0 
  9 35  1  0  0  0  0 
 10  7  1  0  0  0  0 
 10  1  1  0  0  0  0 
 11  2  1  0  0  0  0 
 12 10  2  0  0  0  0 
 13  9  1  0  0  0  0 
 14 13  1  0  0  0  0 
 14  3  1  0  0  0  0 
 15 12  1  0  0  0  0 
 15 11  1  0  0  0  0 
 16 11  2  0  0  0  0 
 17 13  2  0  0  0  0 
 19  1  1  0  0  0  0 
 21  2  1  0  0  0  0 
 24  3  1  0  0  0  0 
 27  4  1  0  0  0  0 
 28  4  1  0  0  0  0 
 29  4  1  0  0  0  0 
 31  6  1  0  0  0  0 
 33  8  1  0  0  0  0 
M  END 
>  <HBA> 
4 
 
>  <HBD> 
0 
 
>  <TPSA> 
40.62 
 
>  <cid> 
56320 
 
>  <dipole> 
3.88 
 
>  <excitation_energy_1> 
5.168 
 
>  <excitation_energy_2> 
5.211 
 
>  <excitation_energy_3> 
5.478 
 
>  <excitation_energy_4> 
5.487 
 
>  <homo_energy> 
-6.299 
 
>  <homo_lumo_gap> 
6.074 
 
>  <logP> 
1.436 
 
>  <lumo_energy> 
-0.226 
 
>  <melting_point> 
60.26 
 
>  <molecular_refractivity> 
68.14 
 
>  <oscillator_strength_1> 
0.0025 
 
>  <oscillator_strength_2> 
0.0017 
 
>  <oscillator_strength_3> 
0.0201 
 
>  <oscillator_strength_4> 
0.0149 
 
>  <open_babel_can_smiles> 
CC(=O)N(c1ccccc1C)CC(=O)N(C)C 
 
>  <mulliken_charges> 
35 
1   -0.527488 
2   -0.543891 
3   -0.317895 
4   -0.321765 
5   -0.110349 
6   -0.152617 
7   -0.209718 
8   -0.133916 
9   -0.2581 
10   0.183924 
11   0.586155 
12   0.141095 
13   0.626895 
14   -0.411264 
15   -0.483519 
16   -0.513621 
17   -0.517266 
18   0.154672 
19   0.161313 
20   0.168921 
21   0.184364 
22   0.166589 
23   0.179072 
24   0.160886 
25   0.167162 
26   0.172462 
27   0.155916 
28   0.14975 
29   0.20672 
30   0.13015 
31   0.134508 
32   0.125282 
33   0.182845 
34   0.169109 
35   0.193616 
 
>  <lowdin_charges> 
35 
1   -0.442984 
2   -0.472511 
3   -0.350112 
4   -0.35388 
5   -0.149612 
6   -0.160912 
7   -0.169728 
8   -0.159697 
9   -0.232755 
10   -0.008111 
11   0.16952 
12   0.024341 
13   0.161404 
14   -0.105909 
15   -0.08697 
16   -0.309597 
17   -0.313174 
18   0.15803 
19   0.160878 
20   0.164148 
21   0.178468 
22   0.167658 
23   0.175384 
24   0.155505 
25   0.151524 
26   0.164508 
27   0.148281 
28   0.148196 
29   0.186914 
30   0.15657 
31   0.160615 
32   0.156075 
33   0.184689 
34   0.165254 
35   0.177991 
 
$$$$ 
 
