PCCDB-ID:  65442 
public computational chemistry database (PCCDB) project, http://pccdb.org 
 
 23 22  0  0  1  0  0  0  0  0999 V2000 
    3.4449   -1.1756    0.9651 C   0  0  0  0  0  0  0  0  0  0  0  0 
    3.8232   -0.3451    3.3081 C   0  0  0  0  0  0  0  0  0  0  0  0 
    7.2799    3.5063   -1.3655 C   0  0  0  0  0  0  0  0  0  0  0  0 
    5.2218    2.2482   -0.6165 C   0  0  0  0  0  0  0  0  0  0  0  0 
    3.9160   -0.2473    1.8081 C   0  0  0  0  0  0  0  0  0  0  0  0 
    6.7423    2.2197   -0.7179 C   0  0  2  0  0  0  0  0  0  0  0  0 
    4.5867    0.9825    1.2979 C   0  0  0  0  0  0  0  0  0  0  0  0 
    8.6911    3.5083   -1.3349 O   0  0  0  0  0  0  0  0  0  0  0  0 
    7.3848    2.0533    0.5456 O   0  0  0  0  0  0  0  0  0  0  0  0 
    5.0068    1.8631    2.0357 O   0  0  0  0  0  0  0  0  0  0  0  0 
    4.6777    1.0373   -0.0472 O   0  0  0  0  0  0  0  0  0  0  0  0 
    2.9595   -2.0734    1.3379 H   0  0  0  0  0  0  0  0  0  0  0  0 
    3.5328   -1.0680   -0.1099 H   0  0  0  0  0  0  0  0  0  0  0  0 
    3.3243   -1.2712    3.6063 H   0  0  0  0  0  0  0  0  0  0  0  0 
    3.2686    0.5039    3.7231 H   0  0  0  0  0  0  0  0  0  0  0  0 
    4.8189   -0.3183    3.7647 H   0  0  0  0  0  0  0  0  0  0  0  0 
    6.8646    4.3813   -0.8326 H   0  0  0  0  0  0  0  0  0  0  0  0 
    6.9738    3.5762   -2.4158 H   0  0  0  0  0  0  0  0  0  0  0  0 
    4.7798    2.3100   -1.6143 H   0  0  0  0  0  0  0  0  0  0  0  0 
    4.8859    3.1023   -0.0199 H   0  0  0  0  0  0  0  0  0  0  0  0 
    7.0506    1.3646   -1.3329 H   0  0  0  0  0  0  0  0  0  0  0  0 
    8.9161    3.2015   -0.4377 H   0  0  0  0  0  0  0  0  0  0  0  0 
    6.7615    2.3195    1.2472 H   0  0  0  0  0  0  0  0  0  0  0  0 
  1 12  1  0  0  0  0 
  1  5  2  0  0  0  0 
  2 14  1  0  0  0  0 
  2 15  1  0  0  0  0 
  2 16  1  0  0  0  0 
  3  8  1  0  0  0  0 
  3 17  1  0  0  0  0 
  3  6  1  0  0  0  0 
  4 11  1  0  0  0  0 
  4 20  1  0  0  0  0 
  5  2  1  0  0  0  0 
  6 21  1  6  0  0  0 
  6  4  1  0  0  0  0 
  6  9  1  0  0  0  0 
  7  5  1  0  0  0  0 
  7 10  2  0  0  0  0 
  8 22  1  0  0  0  0 
  9 23  1  0  0  0  0 
 11  7  1  0  0  0  0 
 13  1  1  0  0  0  0 
 18  3  1  0  0  0  0 
 19  4  1  0  0  0  0 
M  END 
>  <HBA> 
4 
 
>  <HBD> 
2 
 
>  <TPSA> 
66.76 
 
>  <cid> 
65442 
 
>  <dipole> 
3.84 
 
>  <excitation_energy_1> 
4.842 
 
>  <excitation_energy_2> 
4.913 
 
>  <excitation_energy_3> 
5.634 
 
>  <excitation_energy_4> 
5.733 
 
>  <homo_energy> 
-6.885 
 
>  <homo_lumo_gap> 
5.366 
 
>  <logP> 
-0.541 
 
>  <lumo_energy> 
-1.518 
 
>  <melting_point> 
5.27 
 
>  <molecular_refractivity> 
38.9 
 
>  <oscillator_strength_1> 
0.0082 
 
>  <oscillator_strength_2> 
0.0012 
 
>  <oscillator_strength_3> 
0.0192 
 
>  <oscillator_strength_4> 
0.2065 
 
>  <open_babel_can_smiles> 
CC(=C)C(=O)OC[C@@H](CO)O 
 
>  <mulliken_charges> 
23 
1   -0.362288 
2   -0.501488 
3   -0.019237 
4   -0.098607 
5   0.128476 
6   0.108878 
7   0.616164 
8   -0.623998 
9   -0.662511 
10   -0.512797 
11   -0.468143 
12   0.155259 
13   0.176617 
14   0.151741 
15   0.174931 
16   0.176882 
17   0.111528 
18   0.135601 
19   0.164726 
20   0.168769 
21   0.150245 
22   0.405905 
23   0.423348 
 
>  <lowdin_charges> 
23 
1   -0.288274 
2   -0.435073 
3   -0.148444 
4   -0.150901 
5   -0.028016 
6   -0.028071 
7   0.210054 
8   -0.464326 
9   -0.478555 
10   -0.286409 
11   -0.180152 
12   0.167196 
13   0.175543 
14   0.158404 
15   0.170565 
16   0.170235 
17   0.123157 
18   0.143457 
19   0.163793 
20   0.159121 
21   0.149479 
22   0.345353 
23   0.351865 
 
$$$$ 
 
