PCCDB-ID:  23905 
public computational chemistry database (PCCDB) project, http://pccdb.org 
 
 17 17  0  0  0  0  0  0  0  0999 V2000 
   -0.2924    1.3139   -0.4315 C   0  0  0  0  0  0  0  0  0  0  0  0 
   -1.0057    0.1238   -0.4077 C   0  0  0  0  0  0  0  0  0  0  0  0 
    1.0350    1.2953    0.0014 C   0  0  0  0  0  0  0  0  0  0  0  0 
   -1.1752   -2.2745    0.0519 C   0  0  0  0  0  0  0  0  0  0  0  0 
    0.3903   -3.9902    0.9435 C   0  0  0  0  0  0  0  0  0  0  0  0 
   -1.8807   -4.5670    0.3224 C   0  0  0  0  0  0  0  0  0  0  0  0 
    0.9655   -0.9483    0.4587 C   0  0  0  0  0  0  0  0  0  0  0  0 
   -0.3828   -1.0561    0.0464 C   0  0  0  0  0  0  0  0  0  0  0  0 
   -0.8726   -3.5510    0.4310 C   0  0  0  0  0  0  0  0  0  0  0  0 
    1.4067   -4.3717    1.3621 N   0  0  0  0  0  0  0  0  0  0  0  0 
   -2.7022   -5.3856    0.2320 N   0  0  0  0  0  0  0  0  0  0  0  0 
    1.6567    0.1910    0.4379 N   0  0  0  0  0  0  0  0  0  0  0  0 
   -0.7485    2.2364   -0.7766 H   0  0  0  0  0  0  0  0  0  0  0  0 
   -2.0419    0.0946   -0.7359 H   0  0  0  0  0  0  0  0  0  0  0  0 
    1.6297    2.2067   -0.0013 H   0  0  0  0  0  0  0  0  0  0  0  0 
   -2.1928   -2.1458   -0.3110 H   0  0  0  0  0  0  0  0  0  0  0  0 
    1.5081   -1.8166    0.8180 H   0  0  0  0  0  0  0  0  0  0  0  0 
  1  2  2  0  0  0  0 
  1  3  1  0  0  0  0 
  2  8  1  0  0  0  0 
  3 12  2  0  0  0  0 
  4  9  2  0  0  0  0 
  5 10  3  0  0  0  0 
  6  9  1  0  0  0  0 
  7 17  1  0  0  0  0 
  8  4  1  0  0  0  0 
  8  7  2  0  0  0  0 
  9  5  1  0  0  0  0 
 11  6  3  0  0  0  0 
 12  7  1  0  0  0  0 
 13  1  1  0  0  0  0 
 14  2  1  0  0  0  0 
 15  3  1  0  0  0  0 
 16  4  1  0  0  0  0 
M  END 
>  <HBA> 
3 
 
>  <HBD> 
0 
 
>  <TPSA> 
60.47 
 
>  <cid> 
23905 
 
>  <dipole> 
6.5 
 
>  <excitation_energy_1> 
3.534 
 
>  <excitation_energy_2> 
4.084 
 
>  <excitation_energy_3> 
4.586 
 
>  <excitation_energy_4> 
4.82 
 
>  <homo_energy> 
-7.38 
 
>  <homo_lumo_gap> 
4.218 
 
>  <logP> 
1.512 
 
>  <lumo_energy> 
-3.162 
 
>  <melting_point> 
112.24 
 
>  <molecular_refractivity> 
43.44 
 
>  <oscillator_strength_1> 
0.0 
 
>  <oscillator_strength_2> 
0.5722 
 
>  <oscillator_strength_3> 
0.0688 
 
>  <oscillator_strength_4> 
0.0039 
 
>  <open_babel_can_smiles> 
N#CC(=Cc1cccnc1)C#N 
 
>  <mulliken_charges> 
17 
1   -0.140985 
2   -0.143407 
3   0.052886 
4   -0.168995 
5   0.317215 
6   0.289621 
7   -0.000177 
8   0.149795 
9   0.129701 
10   -0.482359 
11   -0.455816 
12   -0.402278 
13   0.157189 
14   0.161771 
15   0.163343 
16   0.181363 
17   0.191133 
 
>  <lowdin_charges> 
17 
1   -0.169464 
2   -0.111484 
3   -0.063566 
4   -0.072032 
5   -0.003458 
6   -0.005701 
7   -0.070233 
8   -0.035338 
9   -0.040576 
10   -0.086122 
11   -0.09058 
12   -0.132149 
13   0.174614 
14   0.169239 
15   0.168066 
16   0.18462 
17   0.184164 
 
$$$$ 
 
