PCCDB-ID:  14455 
public computational chemistry database (PCCDB) project, http://pccdb.org 
 
 23 22  0  0  0  0  0  0  0  0999 V2000 
    1.3181    1.8506   -2.4928 C   0  0  0  0  0  0  0  0  0  0  0  0 
    5.0816    1.0936    0.8176 C   0  0  0  0  0  0  0  0  0  0  0  0 
    5.3897    0.0768   -1.4601 C   0  0  0  0  0  0  0  0  0  0  0  0 
    2.8418    1.7519   -2.3620 C   0  0  0  0  0  0  0  0  0  0  0  0 
    3.2839    1.4139   -0.9308 C   0  0  0  0  0  0  0  0  0  0  0  0 
    5.5445    2.5553   -1.1666 C   0  0  0  0  0  0  0  0  0  0  0  0 
    4.8158    1.2811   -0.6959 C   0  0  0  0  0  0  0  0  0  0  0  0 
    6.4610    2.5727   -1.9497 O   0  0  0  0  0  0  0  0  0  0  0  0 
    5.1068    3.7311   -0.6287 O   0  0  0  0  0  0  0  0  0  0  0  0 
    1.0243    2.0938   -3.5197 H   0  0  0  0  0  0  0  0  0  0  0  0 
    0.9110    2.6303   -1.8372 H   0  0  0  0  0  0  0  0  0  0  0  0 
    0.8336    0.9044   -2.2222 H   0  0  0  0  0  0  0  0  0  0  0  0 
    4.5883    0.1816    1.1722 H   0  0  0  0  0  0  0  0  0  0  0  0 
    4.6990    1.9281    1.4182 H   0  0  0  0  0  0  0  0  0  0  0  0 
    6.1538    0.9999    1.0201 H   0  0  0  0  0  0  0  0  0  0  0  0 
    4.8749   -0.8406   -1.1518 H   0  0  0  0  0  0  0  0  0  0  0  0 
    6.4574   -0.0379   -1.2541 H   0  0  0  0  0  0  0  0  0  0  0  0 
    5.2811    0.1931   -2.5410 H   0  0  0  0  0  0  0  0  0  0  0  0 
    3.2970    2.7017   -2.6725 H   0  0  0  0  0  0  0  0  0  0  0  0 
    3.2172    0.9901   -3.0556 H   0  0  0  0  0  0  0  0  0  0  0  0 
    2.8215    0.4671   -0.6188 H   0  0  0  0  0  0  0  0  0  0  0  0 
    2.8675    2.1720   -0.2471 H   0  0  0  0  0  0  0  0  0  0  0  0 
    4.3652    3.5656   -0.0241 H   0  0  0  0  0  0  0  0  0  0  0  0 
  1  4  1  0  0  0  0 
  1 12  1  0  0  0  0 
  1 11  1  0  0  0  0 
  2 15  1  0  0  0  0 
  2 13  1  0  0  0  0 
  2 14  1  0  0  0  0 
  3 17  1  0  0  0  0 
  3 16  1  0  0  0  0 
  3  7  1  0  0  0  0 
  4  5  1  0  0  0  0 
  5  7  1  0  0  0  0 
  5 21  1  0  0  0  0 
  5 22  1  0  0  0  0 
  6  7  1  0  0  0  0 
  6  9  1  0  0  0  0 
  7  2  1  0  0  0  0 
  8  6  2  0  0  0  0 
  9 23  1  0  0  0  0 
 10  1  1  0  0  0  0 
 18  3  1  0  0  0  0 
 19  4  1  0  0  0  0 
 20  4  1  0  0  0  0 
M  END 
>  <HBA> 
2 
 
>  <HBD> 
1 
 
>  <TPSA> 
37.3 
 
>  <cid> 
14455 
 
>  <dipole> 
4.17 
 
>  <excitation_energy_1> 
5.616 
 
>  <excitation_energy_2> 
6.434 
 
>  <excitation_energy_3> 
7.191 
 
>  <excitation_energy_4> 
7.292 
 
>  <homo_energy> 
-7.151 
 
>  <homo_lumo_gap> 
7.519 
 
>  <logP> 
1.897 
 
>  <lumo_energy> 
0.367 
 
>  <melting_point> 
68.62 
 
>  <molecular_refractivity> 
37.27 
 
>  <oscillator_strength_1> 
0.0023 
 
>  <oscillator_strength_2> 
0.0113 
 
>  <oscillator_strength_3> 
0.0216 
 
>  <oscillator_strength_4> 
0.0121 
 
>  <open_babel_can_smiles> 
CCCC(C(=O)O)(C)C 
 
>  <mulliken_charges> 
23 
1   -0.444506 
2   -0.452421 
3   -0.440847 
4   -0.263764 
5   -0.26697 
6   0.61562 
7   -0.039063 
8   -0.44726 
9   -0.582069 
10   0.151311 
11   0.141869 
12   0.144364 
13   0.157375 
14   0.130936 
15   0.1672 
16   0.134518 
17   0.162378 
18   0.165581 
19   0.154032 
20   0.148421 
21   0.143088 
22   0.110174 
23   0.410033 
 
>  <lowdin_charges> 
23 
1   -0.443336 
2   -0.439837 
3   -0.43405 
4   -0.280792 
5   -0.277353 
6   0.190006 
7   -0.02892 
8   -0.236199 
9   -0.361051 
10   0.153818 
11   0.147406 
12   0.147759 
13   0.15785 
14   0.143181 
15   0.160013 
16   0.147167 
17   0.160745 
18   0.159823 
19   0.150249 
20   0.149797 
21   0.148935 
22   0.130141 
23   0.35465 
 
$$$$ 
 
