PCCDB-ID:  22573 
public computational chemistry database (PCCDB) project, http://pccdb.org 
 
 22 22  0  0  0  0  0  0  0  0999 V2000 
   -0.7120    1.1979    0.2002 C   0  0  0  0  0  0  0  0  0  0  0  0 
   -0.7015   -1.2151   -0.1486 C   0  0  0  0  0  0  0  0  0  0  0  0 
   -1.3799   -0.0034    0.0485 C   0  0  0  0  0  0  0  0  0  0  0  0 
    0.6958    1.2124    0.1488 C   0  0  0  0  0  0  0  0  0  0  0  0 
    0.6878   -1.2299   -0.2104 C   0  0  0  0  0  0  0  0  0  0  0  0 
    1.3917    0.0004   -0.0587 C   0  0  0  0  0  0  0  0  0  0  0  0 
    1.5009    2.4469    0.3169 C   0  0  0  0  0  0  0  0  0  0  0  0 
    1.4245   -2.3734   -0.4531 N   0  0  0  0  0  0  0  0  0  0  0  0 
    2.7283   -0.0885   -0.1084 O   0  0  0  0  0  0  0  0  0  0  0  0 
    2.7277    2.4454    0.2800 O   0  0  0  0  0  0  0  0  0  0  0  0 
    0.8789    3.6210    0.5156 O   0  0  0  0  0  0  0  0  0  0  0  0 
   -3.5270    0.0564   -1.4980 O   0  0  0  0  0  0  0  0  0  0  0  0 
   -3.6377   -1.3039    0.5868 O   0  0  0  0  0  0  0  0  0  0  0  0 
   -3.6010    1.2426    0.7154 O   0  0  0  0  0  0  0  0  0  0  0  0 
   -3.1570   -0.0062    0.1089 S   0  0  0  0  0  0  0  0  0  0  0  0 
   -1.3048    2.0908    0.3703 H   0  0  0  0  0  0  0  0  0  0  0  0 
   -1.2630   -2.1395   -0.2402 H   0  0  0  0  0  0  0  0  0  0  0  0 
    0.9900   -3.2530   -0.2102 H   0  0  0  0  0  0  0  0  0  0  0  0 
    2.4044   -2.3125   -0.2094 H   0  0  0  0  0  0  0  0  0  0  0  0 
    3.0825    0.8343    0.0250 H   0  0  0  0  0  0  0  0  0  0  0  0 
   -0.0859    3.5172    0.5268 H   0  0  0  0  0  0  0  0  0  0  0  0 
   -4.1635   -0.6661   -1.6595 H   0  0  0  0  0  0  0  0  0  0  0  0 
  1 16  1  0  0  0  0 
  2  3  1  0  0  0  0 
  3 15  1  0  0  0  0 
  3  1  2  0  0  0  0 
  4  1  1  0  0  0  0 
  4  7  1  0  0  0  0 
  5  2  2  0  0  0  0 
  5  6  1  0  0  0  0 
  6  4  2  0  0  0  0 
  7 11  1  0  0  0  0 
  8  5  1  0  0  0  0 
  8 18  1  0  0  0  0 
  8 19  1  0  0  0  0 
  9  6  1  0  0  0  0 
  9 20  1  0  0  0  0 
 10  7  2  0  0  0  0 
 11 21  1  0  0  0  0 
 12 15  1  0  0  0  0 
 15 13  1  0  0  0  0 
 15 14  1  0  0  0  0 
 17  2  1  0  0  0  0 
 22 12  1  0  0  0  0 
M  RAD  2  13   2  14   2 
M  END 
>  <HBA> 
7 
 
>  <HBD> 
4 
 
>  <TPSA> 
146.3 
 
>  <cid> 
22573 
 
>  <dipole> 
3.35 
 
>  <excitation_energy_1> 
3.714 
 
>  <excitation_energy_2> 
4.581 
 
>  <excitation_energy_3> 
5.005 
 
>  <excitation_energy_4> 
5.114 
 
>  <homo_energy> 
-6.174 
 
>  <homo_lumo_gap> 
4.261 
 
>  <logP> 
1.581 
 
>  <lumo_energy> 
-1.913 
 
>  <melting_point> 
272.27 
 
>  <molecular_refractivity> 
49.69 
 
>  <oscillator_strength_1> 
0.0669 
 
>  <oscillator_strength_2> 
0.04 
 
>  <oscillator_strength_3> 
0.0006 
 
>  <oscillator_strength_4> 
0.0637 
 
>  <open_babel_can_smiles> 
OC(=O)c1cc(cc(c1O)N)S(O)([O])[O] 
 
>  <mulliken_charges> 
22 
1   -0.242595 
2   -0.195394 
3   -0.161575 
4   0.037643 
5   0.314214 
6   0.279145 
7   0.604835 
8   -0.794678 
9   -0.660198 
10   -0.512313 
11   -0.565591 
12   -0.635509 
13   -0.531201 
14   -0.494072 
15   1.197229 
16   0.168283 
17   0.16989 
18   0.333165 
19   0.355551 
20   0.457823 
21   0.4351 
22   0.440246 
 
>  <lowdin_charges> 
22 
1   -0.162876 
2   -0.167215 
3   -0.192181 
4   -0.106466 
5   0.045655 
6   0.116947 
7   0.211783 
8   -0.467065 
9   -0.364213 
10   -0.276924 
11   -0.320309 
12   -0.585345 
13   -0.58463 
14   -0.562253 
15   1.352025 
16   0.176995 
17   0.181783 
18   0.285865 
19   0.294172 
20   0.376846 
21   0.365252 
22   0.382154 
 
$$$$ 
 
