PCCDB-ID:  66135 
public computational chemistry database (PCCDB) project, http://pccdb.org 
 
 23 24  0  0  0  0  0  0  0  0999 V2000 
    1.0785    0.4769   -0.0680 C   0  0  0  0  0  0  0  0  0  0  0  0 
    2.5575    0.0802   -0.0311 C   0  0  0  0  0  0  0  0  0  0  0  0 
    2.4293   -4.9168    1.6101 C   0  0  0  0  0  0  0  0  0  0  0  0 
    2.0068   -4.3861    0.3911 C   0  0  0  0  0  0  0  0  0  0  0  0 
    2.9767   -4.0787    2.5936 C   0  0  0  0  0  0  0  0  0  0  0  0 
    2.1151   -3.0158    0.1192 C   0  0  0  0  0  0  0  0  0  0  0  0 
    3.6277   -1.5836    3.1688 C   0  0  0  0  0  0  0  0  0  0  0  0 
    3.0922   -2.7212    2.3395 C   0  0  0  0  0  0  0  0  0  0  0  0 
    2.6601   -2.1996    1.1059 C   0  0  0  0  0  0  0  0  0  0  0  0 
    3.4498   -0.3600    2.2577 C   0  0  0  0  0  0  0  0  0  0  0  0 
    2.8843   -0.8132    1.0712 N   0  0  0  0  0  0  0  0  0  0  0  0 
    3.7419    0.7976    2.4969 O   0  0  0  0  0  0  0  0  0  0  0  0 
    0.8880    1.1415   -0.9182 H   0  0  0  0  0  0  0  0  0  0  0  0 
    0.8028    1.0060    0.8495 H   0  0  0  0  0  0  0  0  0  0  0  0 
    0.4292   -0.3995   -0.1678 H   0  0  0  0  0  0  0  0  0  0  0  0 
    3.1837    0.9660    0.1033 H   0  0  0  0  0  0  0  0  0  0  0  0 
    2.8559   -0.4054   -0.9679 H   0  0  0  0  0  0  0  0  0  0  0  0 
    2.3344   -5.9819    1.8001 H   0  0  0  0  0  0  0  0  0  0  0  0 
    1.5840   -5.0425   -0.3647 H   0  0  0  0  0  0  0  0  0  0  0  0 
    3.3084   -4.4923    3.5429 H   0  0  0  0  0  0  0  0  0  0  0  0 
    1.7816   -2.6122   -0.8317 H   0  0  0  0  0  0  0  0  0  0  0  0 
    4.6866   -1.6872    3.4347 H   0  0  0  0  0  0  0  0  0  0  0  0 
    3.0799   -1.4213    4.1050 H   0  0  0  0  0  0  0  0  0  0  0  0 
  1  2  1  0  0  0  0 
  1 14  1  0  0  0  0 
  2 16  1  0  0  0  0 
  2 11  1  0  0  0  0 
  3 18  1  0  0  0  0 
  3  5  2  0  0  0  0 
  4  3  1  0  0  0  0 
  5 20  1  0  0  0  0 
  6  4  2  0  0  0  0 
  6  9  1  0  0  0  0 
  7 22  1  0  0  0  0 
  7 23  1  0  0  0  0 
  8  5  1  0  0  0  0 
  8  7  1  0  0  0  0 
  9  8  2  0  0  0  0 
 10 12  2  0  0  0  0 
 10  7  1  0  0  0  0 
 11  9  1  0  0  0  0 
 11 10  1  0  0  0  0 
 13  1  1  0  0  0  0 
 15  1  1  0  0  0  0 
 17  2  1  0  0  0  0 
 19  4  1  0  0  0  0 
 21  6  1  0  0  0  0 
M  END 
>  <HBA> 
2 
 
>  <HBD> 
0 
 
>  <TPSA> 
20.31 
 
>  <cid> 
66135 
 
>  <dipole> 
2.63 
 
>  <excitation_energy_1> 
4.59 
 
>  <excitation_energy_2> 
5.05 
 
>  <excitation_energy_3> 
5.265 
 
>  <excitation_energy_4> 
5.314 
 
>  <homo_energy> 
-5.744 
 
>  <homo_lumo_gap> 
5.423 
 
>  <logP> 
1.661 
 
>  <lumo_energy> 
-0.321 
 
>  <melting_point> 
60.81 
 
>  <molecular_refractivity> 
51.44 
 
>  <oscillator_strength_1> 
0.0141 
 
>  <oscillator_strength_2> 
0.192 
 
>  <oscillator_strength_3> 
0.0094 
 
>  <oscillator_strength_4> 
0.0012 
 
>  <open_babel_can_smiles> 
CCN1C(=O)Cc2c1cccc2 
 
>  <mulliken_charges> 
23 
1   -0.448383 
2   -0.15543 
3   -0.133949 
4   -0.141676 
5   -0.210028 
6   -0.18123 
7   -0.450367 
8   0.102543 
9   0.349603 
10   0.592776 
11   -0.540601 
12   -0.509917 
13   0.151623 
14   0.169479 
15   0.155398 
16   0.186863 
17   0.151919 
18   0.12792 
19   0.131095 
20   0.130752 
21   0.13387 
22   0.194077 
23   0.19366 
 
>  <lowdin_charges> 
23 
1   -0.452189 
2   -0.195595 
3   -0.172692 
4   -0.148448 
5   -0.15385 
6   -0.198507 
7   -0.2986 
8   -0.032475 
9   0.049704 
10   0.159893 
11   -0.072328 
12   -0.286396 
13   0.157387 
14   0.162326 
15   0.153989 
16   0.174164 
17   0.150554 
18   0.156696 
19   0.160577 
20   0.159239 
21   0.161298 
22   0.182068 
23   0.183185 
 
$$$$ 
 
