PCCDB-ID:  29905 
public computational chemistry database (PCCDB) project, http://pccdb.org 
 
 22 23  0  0  1  0  0  0  0  0999 V2000 
    1.9515    1.0774   -0.2150 C   0  0  0  0  0  0  0  0  0  0  0  0 
    2.2172   -0.2914   -0.1124 C   0  0  0  0  0  0  0  0  0  0  0  0 
    0.6330    1.5475   -0.1447 C   0  0  0  0  0  0  0  0  0  0  0  0 
    1.1850   -1.2215    0.0548 C   0  0  0  0  0  0  0  0  0  0  0  0 
   -1.8933    0.8040    0.1789 C   0  0  0  0  0  0  0  0  0  0  0  0 
   -3.4550   -1.0132    1.1342 C   0  0  0  0  0  0  0  0  0  0  0  0 
   -0.4009    0.6342    0.0189 C   0  0  0  0  0  0  0  0  0  0  0  0 
   -2.3936   -0.6642    0.0986 C   0  0  2  0  0  0  0  0  0  0  0  0 
   -0.1152   -0.7307    0.1153 C   0  0  0  0  0  0  0  0  0  0  0  0 
   -3.9795   -2.3640    0.9404 N   0  0  0  0  0  0  0  0  0  0  0  0 
   -1.2242   -1.5091    0.2794 O   0  0  0  0  0  0  0  0  0  0  0  0 
    2.7696    1.7794   -0.3477 H   0  0  0  0  0  0  0  0  0  0  0  0 
    3.2435   -0.6448   -0.1683 H   0  0  0  0  0  0  0  0  0  0  0  0 
    0.4252    2.6123   -0.2191 H   0  0  0  0  0  0  0  0  0  0  0  0 
    1.3791   -2.2863    0.1304 H   0  0  0  0  0  0  0  0  0  0  0  0 
   -2.3519    1.4297   -0.5943 H   0  0  0  0  0  0  0  0  0  0  0  0 
   -2.1448    1.2538    1.1508 H   0  0  0  0  0  0  0  0  0  0  0  0 
   -4.2212   -0.2145    1.0991 H   0  0  0  0  0  0  0  0  0  0  0  0 
   -2.9878   -0.9633    2.1250 H   0  0  0  0  0  0  0  0  0  0  0  0 
   -2.7783   -0.8768   -0.9098 H   0  0  0  0  0  0  0  0  0  0  0  0 
   -4.5586   -2.3963    0.1024 H   0  0  0  0  0  0  0  0  0  0  0  0 
   -4.5867   -2.6148    1.7177 H   0  0  0  0  0  0  0  0  0  0  0  0 
  1  3  2  0  0  0  0 
  1  2  1  0  0  0  0 
  2  4  2  0  0  0  0 
  3  7  1  0  0  0  0 
  4  9  1  0  0  0  0 
  4 15  1  0  0  0  0 
  5 17  1  0  0  0  0 
  6 19  1  0  0  0  0 
  7  9  2  0  0  0  0 
  7  5  1  0  0  0  0 
  8 20  1  6  0  0  0 
  8  5  1  0  0  0  0 
  8 11  1  0  0  0  0 
  8  6  1  0  0  0  0 
  9 11  1  0  0  0  0 
 10  6  1  0  0  0  0 
 10 22  1  0  0  0  0 
 12  1  1  0  0  0  0 
 13  2  1  0  0  0  0 
 14  3  1  0  0  0  0 
 16  5  1  0  0  0  0 
 18  6  1  0  0  0  0 
 21 10  1  0  0  0  0 
M  END 
>  <HBA> 
2 
 
>  <HBD> 
1 
 
>  <TPSA> 
35.25 
 
>  <cid> 
29905 
 
>  <dipole> 
2.86 
 
>  <excitation_energy_1> 
4.758 
 
>  <excitation_energy_2> 
5.137 
 
>  <excitation_energy_3> 
5.372 
 
>  <excitation_energy_4> 
5.555 
 
>  <homo_energy> 
-5.54 
 
>  <homo_lumo_gap> 
5.644 
 
>  <logP> 
1.649 
 
>  <lumo_energy> 
0.103 
 
>  <melting_point> 
89.42 
 
>  <molecular_refractivity> 
43.3 
 
>  <oscillator_strength_1> 
0.0545 
 
>  <oscillator_strength_2> 
0.0197 
 
>  <oscillator_strength_3> 
0.0023 
 
>  <oscillator_strength_4> 
0.0502 
 
>  <open_babel_can_smiles> 
NC[C@H]1Cc2c(O1)cccc2 
 
>  <mulliken_charges> 
22 
1   -0.139833 
2   -0.137982 
3   -0.202156 
4   -0.189005 
5   -0.378829 
6   -0.153334 
7   0.099255 
8   0.154054 
9   0.356248 
10   -0.706507 
11   -0.524375 
12   0.121991 
13   0.126866 
14   0.123329 
15   0.138043 
16   0.157436 
17   0.157714 
18   0.116243 
19   0.154016 
20   0.132869 
21   0.293528 
22   0.300429 
 
>  <lowdin_charges> 
22 
1   -0.182484 
2   -0.147883 
3   -0.156077 
4   -0.188856 
5   -0.28842 
6   -0.213906 
7   -0.049655 
8   0.014568 
9   0.093909 
10   -0.550184 
11   -0.202078 
12   0.156213 
13   0.156191 
14   0.153682 
15   0.16503 
16   0.160786 
17   0.154783 
18   0.122841 
19   0.152161 
20   0.137254 
21   0.252882 
22   0.259243 
 
$$$$ 
 
