PCCDB-ID:  48782 
public computational chemistry database (PCCDB) project, http://pccdb.org 
 
 26 26  0  0  1  0  0  0  0  0999 V2000 
    1.1716   -0.4041    0.7529 C   0  0  0  0  0  0  0  0  0  0  0  0 
    6.3800   -0.1741   -1.6133 C   0  0  0  0  0  0  0  0  0  0  0  0 
    2.4154   -0.1021   -0.0877 C   0  0  0  0  0  0  0  0  0  0  0  0 
    4.1098   -0.8420   -1.8591 C   0  0  0  0  0  0  0  0  0  0  0  0 
    1.7245   -1.6177   -1.9955 C   0  0  0  0  0  0  0  0  0  0  0  0 
    3.1814   -2.5197   -0.2228 C   0  0  0  0  0  0  0  0  0  0  0  0 
    1.3585   -3.7059   -1.0385 C   0  0  0  0  0  0  0  0  0  0  0  0 
    2.8604   -1.2622   -1.0389 C   0  0  2  0  0  0  0  0  0  0  0  0 
    1.0618   -2.7009   -2.0053 N   0  0  0  0  0  0  0  0  0  0  0  0 
    2.5007   -3.5982   -0.2113 N   0  0  0  0  0  0  0  0  0  0  0  0 
    1.3774   -0.6775   -2.9094 O   0  0  0  0  0  0  0  0  0  0  0  0 
    4.2582   -2.4427    0.5739 O   0  0  0  0  0  0  0  0  0  0  0  0 
    0.6272   -4.6649   -0.9411 O   0  0  0  0  0  0  0  0  0  0  0  0 
    5.1367   -0.4311   -0.9664 O   0  0  0  0  0  0  0  0  0  0  0  0 
    0.9360    0.4566    1.3869 H   0  0  0  0  0  0  0  0  0  0  0  0 
    1.3293   -1.2673    1.4077 H   0  0  0  0  0  0  0  0  0  0  0  0 
    0.2959   -0.6108    0.1288 H   0  0  0  0  0  0  0  0  0  0  0  0 
    7.0852    0.1227   -0.8351 H   0  0  0  0  0  0  0  0  0  0  0  0 
    6.2763    0.6415   -2.3415 H   0  0  0  0  0  0  0  0  0  0  0  0 
    6.7536   -1.0705   -2.1265 H   0  0  0  0  0  0  0  0  0  0  0  0 
    3.2590    0.1427    0.5637 H   0  0  0  0  0  0  0  0  0  0  0  0 
    2.2417    0.7957   -0.6986 H   0  0  0  0  0  0  0  0  0  0  0  0 
    3.8742   -0.0089   -2.5396 H   0  0  0  0  0  0  0  0  0  0  0  0 
    4.4522   -1.6854   -2.4780 H   0  0  0  0  0  0  0  0  0  0  0  0 
    1.8570    0.1490   -2.7444 H   0  0  0  0  0  0  0  0  0  0  0  0 
    4.7850   -1.6545    0.3185 H   0  0  0  0  0  0  0  0  0  0  0  0 
  1 15  1  0  0  0  0 
  1 16  1  0  0  0  0 
  2 14  1  0  0  0  0 
  2 18  1  0  0  0  0 
  3 21  1  0  0  0  0 
  3  1  1  0  0  0  0 
  4 14  1  0  0  0  0 
  5  8  1  0  0  0  0 
  6 10  2  0  0  0  0 
  6 12  1  0  0  0  0 
  7 13  2  0  0  0  0 
  7 10  1  0  0  0  0 
  8  4  1  6  0  0  0 
  8  6  1  0  0  0  0 
  8  3  1  0  0  0  0 
  9  5  2  0  0  0  0 
  9  7  2  0  0  0  0 
 11 25  1  0  0  0  0 
 11  5  1  0  0  0  0 
 17  1  1  0  0  0  0 
 19  2  1  0  0  0  0 
 20  2  1  0  0  0  0 
 22  3  1  0  0  0  0 
 23  4  1  0  0  0  0 
 24  4  1  0  0  0  0 
 26 12  1  0  0  0  0 
M  END 
>  <HBA> 
6 
 
>  <HBD> 
2 
 
>  <TPSA> 
84.5 
 
>  <cid> 
48782 
 
>  <dipole> 
10.84 
 
>  <excitation_energy_1> 
3.996 
 
>  <excitation_energy_2> 
4.175 
 
>  <excitation_energy_3> 
5.208 
 
>  <excitation_energy_4> 
5.482 
 
>  <homo_energy> 
-6.825 
 
>  <homo_lumo_gap> 
5.385 
 
>  <logP> 
0.053 
 
>  <lumo_energy> 
-1.439 
 
>  <melting_point> 
133.29 
 
>  <molecular_refractivity> 
53.7 
 
>  <oscillator_strength_1> 
0.0003 
 
>  <oscillator_strength_2> 
0.0001 
 
>  <oscillator_strength_3> 
0.0015 
 
>  <oscillator_strength_4> 
0.0457 
 
>  <open_babel_can_smiles> 
COC[C@]1(CC)C(=N[C](=[N]=C1O)=O)O 
 
>  <mulliken_charges> 
26 
1   -0.471572 
2   -0.211202 
3   -0.259119 
4   -0.023748 
5   0.547106 
6   0.542917 
7   0.616766 
8   -0.177224 
9   -0.467215 
10   -0.47034 
11   -0.580415 
12   -0.597174 
13   -0.431797 
14   -0.495145 
15   0.160574 
16   0.18373 
17   0.176537 
18   0.182528 
19   0.156274 
20   0.162071 
21   0.173078 
22   0.129041 
23   0.129538 
24   0.170964 
25   0.414377 
26   0.439451 
 
>  <lowdin_charges> 
26 
1   -0.454606 
2   -0.27954 
3   -0.269216 
4   -0.134708 
5   0.143173 
6   0.146548 
7   0.171931 
8   -0.069903 
9   -0.180579 
10   -0.189056 
11   -0.335124 
12   -0.341083 
13   -0.210527 
14   -0.272391 
15   0.162742 
16   0.16861 
17   0.164414 
18   0.170343 
19   0.148676 
20   0.151146 
21   0.162994 
22   0.14016 
23   0.13625 
24   0.154918 
25   0.354978 
26   0.359851 
 
$$$$ 
 
