PCCDB-ID:  11176 
public computational chemistry database (PCCDB) project, http://pccdb.org 
 
 26 25  0  0  0  0  0  0  0  0999 V2000 
    7.2563   -1.9351    1.7677 C   0  0  0  0  0  0  0  0  0  0  0  0 
    1.8633    1.9021    3.4411 C   0  0  0  0  0  0  0  0  0  0  0  0 
    2.0288    4.4160    3.1849 C   0  0  0  0  0  0  0  0  0  0  0  0 
    6.4243   -0.8202    2.4112 C   0  0  0  0  0  0  0  0  0  0  0  0 
    6.6461    0.5216    1.7210 C   0  0  0  0  0  0  0  0  0  0  0  0 
    4.0546    2.9810    2.7425 C   0  0  0  0  0  0  0  0  0  0  0  0 
    2.5211    3.0561    2.6704 C   0  0  0  0  0  0  0  0  0  0  0  0 
    4.6503    1.7987    1.9999 C   0  0  0  0  0  0  0  0  0  0  0  0 
    4.0853    1.1432    1.1492 O   0  0  0  0  0  0  0  0  0  0  0  0 
    5.9302    1.5873    2.3879 O   0  0  0  0  0  0  0  0  0  0  0  0 
    7.0862   -2.8911    2.2739 H   0  0  0  0  0  0  0  0  0  0  0  0 
    8.3300   -1.7169    1.8219 H   0  0  0  0  0  0  0  0  0  0  0  0 
    6.9954   -2.0679    0.7110 H   0  0  0  0  0  0  0  0  0  0  0  0 
    0.7710    1.9568    3.3666 H   0  0  0  0  0  0  0  0  0  0  0  0 
    2.1255    1.9417    4.5069 H   0  0  0  0  0  0  0  0  0  0  0  0 
    2.1775    0.9316    3.0448 H   0  0  0  0  0  0  0  0  0  0  0  0 
    0.9383    4.4923    3.1059 H   0  0  0  0  0  0  0  0  0  0  0  0 
    2.4648    5.2453    2.6147 H   0  0  0  0  0  0  0  0  0  0  0  0 
    2.2949    4.5605    4.2403 H   0  0  0  0  0  0  0  0  0  0  0  0 
    6.6825   -0.7200    3.4730 H   0  0  0  0  0  0  0  0  0  0  0  0 
    5.3585   -1.0696    2.3581 H   0  0  0  0  0  0  0  0  0  0  0  0 
    6.3298    0.4808    0.6751 H   0  0  0  0  0  0  0  0  0  0  0  0 
    7.6967    0.8229    1.7704 H   0  0  0  0  0  0  0  0  0  0  0  0 
    4.4041    2.9540    3.7822 H   0  0  0  0  0  0  0  0  0  0  0  0 
    4.5012    3.8843    2.3017 H   0  0  0  0  0  0  0  0  0  0  0  0 
    2.2407    2.9592    1.6139 H   0  0  0  0  0  0  0  0  0  0  0  0 
  1 12  1  0  0  0  0 
  1 11  1  0  0  0  0 
  1  4  1  0  0  0  0 
  2 15  1  0  0  0  0 
  3 19  1  0  0  0  0 
  4 20  1  0  0  0  0 
  5 23  1  0  0  0  0 
  5 10  1  0  0  0  0 
  5  4  1  0  0  0  0 
  6 24  1  0  0  0  0 
  7  6  1  0  0  0  0 
  7  3  1  0  0  0  0 
  7  2  1  0  0  0  0 
  8 10  1  0  0  0  0 
  8  6  1  0  0  0  0 
  9  8  2  0  0  0  0 
 13  1  1  0  0  0  0 
 14  2  1  0  0  0  0 
 16  2  1  0  0  0  0 
 17  3  1  0  0  0  0 
 18  3  1  0  0  0  0 
 21  4  1  0  0  0  0 
 22  5  1  0  0  0  0 
 25  6  1  0  0  0  0 
 26  7  1  0  0  0  0 
M  END 
>  <HBA> 
2 
 
>  <HBD> 
0 
 
>  <TPSA> 
26.3 
 
>  <cid> 
11176 
 
>  <dipole> 
1.48 
 
>  <excitation_energy_1> 
5.818 
 
>  <excitation_energy_2> 
6.986 
 
>  <excitation_energy_3> 
7.353 
 
>  <excitation_energy_4> 
7.495 
 
>  <homo_energy> 
-7.271 
 
>  <homo_lumo_gap> 
7.712 
 
>  <logP> 
1.986 
 
>  <lumo_energy> 
0.441 
 
>  <melting_point> 
-15.45 
 
>  <molecular_refractivity> 
41.85 
 
>  <oscillator_strength_1> 
0.0007 
 
>  <oscillator_strength_2> 
0.0246 
 
>  <oscillator_strength_3> 
0.0189 
 
>  <oscillator_strength_4> 
0.0487 
 
>  <open_babel_can_smiles> 
CCCOC(=O)CC(C)C 
 
>  <mulliken_charges> 
26 
1   -0.453628 
2   -0.451677 
3   -0.446898 
4   -0.271816 
5   -0.039699 
6   -0.35503 
7   -0.061349 
8   0.623682 
9   -0.484504 
10   -0.468378 
11   0.152836 
12   0.144233 
13   0.152207 
14   0.142224 
15   0.133008 
16   0.162025 
17   0.144823 
18   0.139397 
19   0.138574 
20   0.144516 
21   0.161917 
22   0.16588 
23   0.147115 
24   0.162468 
25   0.169388 
26   0.148687 
 
>  <lowdin_charges> 
26 
1   -0.440999 
2   -0.444268 
3   -0.441779 
4   -0.281424 
5   -0.13087 
6   -0.302708 
7   -0.115294 
8   0.202012 
9   -0.272888 
10   -0.196311 
11   0.156043 
12   0.145998 
13   0.150258 
14   0.148011 
15   0.140556 
16   0.157819 
17   0.148894 
18   0.147804 
19   0.143845 
20   0.145541 
21   0.154486 
22   0.155048 
23   0.1482 
24   0.162536 
25   0.170463 
26   0.149025 
 
$$$$ 
 
