PCCDB-ID:  70248 
public computational chemistry database (PCCDB) project, http://pccdb.org 
 
 26 25  0  0  0  0  0  0  0  0999 V2000 
   -1.4870    3.9570   -4.2577 C   0  0  0  0  0  0  0  0  0  0  0  0 
    1.4994    4.1377    0.5665 C   0  0  0  0  0  0  0  0  0  0  0  0 
   -2.5823    4.0487   -3.1886 C   0  0  0  0  0  0  0  0  0  0  0  0 
    1.1545    3.8272   -0.8959 C   0  0  0  0  0  0  0  0  0  0  0  0 
   -2.4154    2.8044   -1.1166 C   0  0  0  0  0  0  0  0  0  0  0  0 
   -0.9313    2.6527   -0.8086 C   0  0  0  0  0  0  0  0  0  0  0  0 
   -1.3358    5.1559   -5.0866 N   0  0  0  0  0  0  0  0  0  0  0  0 
    0.9897    5.4173    1.0623 N   0  0  0  0  0  0  0  0  0  0  0  0 
   -2.7347    2.8121   -2.4933 O   0  0  0  0  0  0  0  0  0  0  0  0 
   -0.2523    3.8583   -1.1347 O   0  0  0  0  0  0  0  0  0  0  0  0 
   -1.7017    3.1055   -4.9142 H   0  0  0  0  0  0  0  0  0  0  0  0 
   -0.5313    3.7525   -3.7649 H   0  0  0  0  0  0  0  0  0  0  0  0 
    2.5904    4.1214    0.6848 H   0  0  0  0  0  0  0  0  0  0  0  0 
    1.1087    3.3435    1.2161 H   0  0  0  0  0  0  0  0  0  0  0  0 
   -3.5454    4.2787   -3.6704 H   0  0  0  0  0  0  0  0  0  0  0  0 
   -2.3531    4.8643   -2.4898 H   0  0  0  0  0  0  0  0  0  0  0  0 
    1.5733    2.8551   -1.2034 H   0  0  0  0  0  0  0  0  0  0  0  0 
    1.5812    4.5979   -1.5497 H   0  0  0  0  0  0  0  0  0  0  0  0 
   -2.7972    3.7078   -0.6156 H   0  0  0  0  0  0  0  0  0  0  0  0 
   -2.9383    1.9393   -0.6909 H   0  0  0  0  0  0  0  0  0  0  0  0 
   -0.5189    1.8143   -1.3915 H   0  0  0  0  0  0  0  0  0  0  0  0 
   -0.8188    2.4108    0.2611 H   0  0  0  0  0  0  0  0  0  0  0  0 
   -1.1249    5.9598   -4.4960 H   0  0  0  0  0  0  0  0  0  0  0  0 
   -2.2171    5.3715   -5.5523 H   0  0  0  0  0  0  0  0  0  0  0  0 
    0.0001    5.4766    0.8217 H   0  0  0  0  0  0  0  0  0  0  0  0 
    1.4388    6.1794    0.5539 H   0  0  0  0  0  0  0  0  0  0  0  0 
  1 12  1  0  0  0  0 
  1  3  1  0  0  0  0 
  2 13  1  0  0  0  0 
  2  8  1  0  0  0  0 
  2 14  1  0  0  0  0 
  3  9  1  0  0  0  0 
  3 16  1  0  0  0  0 
  4  2  1  0  0  0  0 
  5  6  1  0  0  0  0 
  5 20  1  0  0  0  0 
  5 19  1  0  0  0  0 
  6 22  1  0  0  0  0 
  7 23  1  0  0  0  0 
  7  1  1  0  0  0  0 
  9  5  1  0  0  0  0 
 10  4  1  0  0  0  0 
 10  6  1  0  0  0  0 
 11  1  1  0  0  0  0 
 15  3  1  0  0  0  0 
 17  4  1  0  0  0  0 
 18  4  1  0  0  0  0 
 21  6  1  0  0  0  0 
 24  7  1  0  0  0  0 
 25  8  1  0  0  0  0 
 26  8  1  0  0  0  0 
M  END 
>  <HBA> 
4 
 
>  <HBD> 
2 
 
>  <TPSA> 
70.5 
 
>  <cid> 
70248 
 
>  <dipole> 
0.74 
 
>  <excitation_energy_1> 
5.51 
 
>  <excitation_energy_2> 
5.722 
 
>  <excitation_energy_3> 
5.975 
 
>  <excitation_energy_4> 
6.096 
 
>  <homo_energy> 
-6.065 
 
>  <homo_lumo_gap> 
8.003 
 
>  <logP> 
0.338 
 
>  <lumo_energy> 
1.937 
 
>  <melting_point> 
64.04 
 
>  <molecular_refractivity> 
38.54 
 
>  <oscillator_strength_1> 
0.0313 
 
>  <oscillator_strength_2> 
0.0297 
 
>  <oscillator_strength_3> 
0.0128 
 
>  <oscillator_strength_4> 
0.0042 
 
>  <open_babel_can_smiles> 
NCCOCCOCCN 
 
>  <mulliken_charges> 
26 
1   -0.157689 
2   -0.163747 
3   -0.024909 
4   -0.031538 
5   -0.042856 
6   -0.029711 
7   -0.709545 
8   -0.699955 
9   -0.473056 
10   -0.478408 
11   0.148219 
12   0.155615 
13   0.142815 
14   0.147969 
15   0.118467 
16   0.126475 
17   0.122833 
18   0.13813 
19   0.131782 
20   0.144589 
21   0.137054 
22   0.121957 
23   0.292168 
24   0.292039 
25   0.300923 
26   0.290376 
 
>  <lowdin_charges> 
26 
1   -0.223197 
2   -0.223972 
3   -0.151816 
4   -0.151974 
5   -0.136874 
6   -0.148753 
7   -0.551223 
8   -0.550704 
9   -0.274809 
10   -0.282617 
11   0.147218 
12   0.149868 
13   0.146737 
14   0.145379 
15   0.129442 
16   0.134604 
17   0.13306 
18   0.144591 
19   0.135928 
20   0.15233 
21   0.138194 
22   0.129904 
23   0.252071 
24   0.251016 
25   0.253211 
26   0.252386 
 
$$$$ 
 
