PCCDB-ID:  68112 
public computational chemistry database (PCCDB) project, http://pccdb.org 
 
 28 30  0  0  0  0  0  0  0  0999 V2000 
   -1.4299   -0.2297    0.2745 C   0  0  0  0  0  0  0  0  0  0  0  0 
   -0.5206   -1.2596    0.5198 C   0  0  0  0  0  0  0  0  0  0  0  0 
   -0.9631    1.0166   -0.1502 C   0  0  0  0  0  0  0  0  0  0  0  0 
    6.8087   -2.0488   -0.7154 C   0  0  0  0  0  0  0  0  0  0  0  0 
    0.8458   -1.0472    0.3481 C   0  0  0  0  0  0  0  0  0  0  0  0 
    0.4009    1.2332   -0.3237 C   0  0  0  0  0  0  0  0  0  0  0  0 
    7.5802   -0.8865   -0.7782 C   0  0  0  0  0  0  0  0  0  0  0  0 
    5.4311   -1.9795   -0.5670 C   0  0  0  0  0  0  0  0  0  0  0  0 
    3.4007    1.6355   -0.2606 C   0  0  0  0  0  0  0  0  0  0  0  0 
    1.3253    0.2057   -0.0691 C   0  0  0  0  0  0  0  0  0  0  0  0 
    6.9772    0.3707   -0.6921 C   0  0  0  0  0  0  0  0  0  0  0  0 
    4.8469    1.7769   -0.4343 C   0  0  0  0  0  0  0  0  0  0  0  0 
    4.8376   -0.7177   -0.4806 C   0  0  0  0  0  0  0  0  0  0  0  0 
    2.7733    0.4370   -0.2306 C   0  0  0  0  0  0  0  0  0  0  0  0 
    5.5697    0.4827   -0.5399 C   0  0  0  0  0  0  0  0  0  0  0  0 
    7.7113    1.5078   -0.7514 O   0  0  0  0  0  0  0  0  0  0  0  0 
    5.3848    2.8803   -0.4759 O   0  0  0  0  0  0  0  0  0  0  0  0 
    3.4738   -0.7298   -0.3390 O   0  0  0  0  0  0  0  0  0  0  0  0 
   -2.4950   -0.3971    0.4080 H   0  0  0  0  0  0  0  0  0  0  0  0 
   -0.8747   -2.2331    0.8477 H   0  0  0  0  0  0  0  0  0  0  0  0 
   -1.6641    1.8209   -0.3555 H   0  0  0  0  0  0  0  0  0  0  0  0 
    7.2957   -3.0172   -0.7848 H   0  0  0  0  0  0  0  0  0  0  0  0 
    1.5489   -1.8490    0.5425 H   0  0  0  0  0  0  0  0  0  0  0  0 
    0.7476    2.1981   -0.6792 H   0  0  0  0  0  0  0  0  0  0  0  0 
    8.6599   -0.9535   -0.8948 H   0  0  0  0  0  0  0  0  0  0  0  0 
    4.8082   -2.8654   -0.5175 H   0  0  0  0  0  0  0  0  0  0  0  0 
    2.8407    2.5543   -0.1405 H   0  0  0  0  0  0  0  0  0  0  0  0 
    8.6455    1.2628   -0.8511 H   0  0  0  0  0  0  0  0  0  0  0  0 
  1 19  1  0  0  0  0 
  1  2  2  0  0  0  0 
  2 20  1  0  0  0  0 
  3  1  1  0  0  0  0 
  4  8  1  0  0  0  0 
  5  2  1  0  0  0  0 
  5 23  1  0  0  0  0 
  6  3  2  0  0  0  0 
  6 10  1  0  0  0  0 
  7  4  2  0  0  0  0 
  7 11  1  0  0  0  0 
  8 26  1  0  0  0  0 
  8 13  2  0  0  0  0 
  9 14  2  0  0  0  0 
  9 27  1  0  0  0  0 
 10  5  2  0  0  0  0 
 11 15  2  0  0  0  0 
 12  9  1  0  0  0  0 
 13 18  1  0  0  0  0 
 14 10  1  0  0  0  0 
 15 13  1  0  0  0  0 
 15 12  1  0  0  0  0 
 16 11  1  0  0  0  0 
 17 12  2  0  0  0  0 
 18 14  1  0  0  0  0 
 21  3  1  0  0  0  0 
 22  4  1  0  0  0  0 
 24  6  1  0  0  0  0 
 25  7  1  0  0  0  0 
 28 16  1  0  0  0  0 
M  END 
>  <HBA> 
3 
 
>  <HBD> 
1 
 
>  <TPSA> 
50.44 
 
>  <cid> 
68112 
 
>  <dipole> 
4.0 
 
>  <excitation_energy_1> 
3.424 
 
>  <excitation_energy_2> 
3.876 
 
>  <excitation_energy_3> 
4.433 
 
>  <excitation_energy_4> 
4.491 
 
>  <homo_energy> 
-6.044 
 
>  <homo_lumo_gap> 
4.441 
 
>  <logP> 
3.166 
 
>  <lumo_energy> 
-1.603 
 
>  <melting_point> 
161.57 
 
>  <molecular_refractivity> 
69.94 
 
>  <oscillator_strength_1> 
0.0006 
 
>  <oscillator_strength_2> 
0.0851 
 
>  <oscillator_strength_3> 
0.0005 
 
>  <oscillator_strength_4> 
0.3515 
 
>  <open_babel_can_smiles> 
Oc1cccc2c1c(=O)cc(o2)c1ccccc1 
 
>  <mulliken_charges> 
28 
1   -0.119698 
2   -0.1335 
3   -0.138084 
4   -0.132442 
5   -0.160056 
6   -0.164715 
7   -0.195303 
8   -0.188455 
9   -0.271797 
10   0.075315 
11   0.298404 
12   0.438761 
13   0.295826 
14   0.331921 
15   0.019157 
16   -0.595998 
17   -0.50258 
18   -0.543961 
19   0.137415 
20   0.137351 
21   0.139206 
22   0.142675 
23   0.15141 
24   0.147289 
25   0.123329 
26   0.144631 
27   0.155295 
28   0.408602 
 
>  <lowdin_charges> 
28 
1   -0.144246 
2   -0.151684 
3   -0.153281 
4   -0.125284 
5   -0.149119 
6   -0.146129 
7   -0.224151 
8   -0.203134 
9   -0.235632 
10   -0.016486 
11   0.127303 
12   0.137851 
13   0.119764 
14   0.12074 
15   -0.091476 
16   -0.332175 
17   -0.268333 
18   -0.115581 
19   0.160125 
20   0.161288 
21   0.163582 
22   0.165538 
23   0.170153 
24   0.165907 
25   0.154989 
26   0.171379 
27   0.180853 
28   0.357238 
 
$$$$ 
 
