PCCDB-ID:  31241 
public computational chemistry database (PCCDB) project, http://pccdb.org 
 
 25 24  0  0  1  0  0  0  0  0999 V2000 
    3.8063   -0.9969   -0.0676 C   0  0  0  0  0  0  0  0  0  0  0  0 
    5.9594    4.8151    2.8453 C   0  0  0  0  0  0  0  0  0  0  0  0 
    3.0371    0.1992   -0.6411 C   0  0  0  0  0  0  0  0  0  0  0  0 
    5.8436    3.7900    1.7117 C   0  0  0  0  0  0  0  0  0  0  0  0 
    3.0065    1.4396    0.2696 C   0  0  0  0  0  0  0  0  0  0  0  0 
    4.3798    2.1002    0.4707 C   0  0  0  0  0  0  0  0  0  0  0  0 
    3.5272    4.4223    0.8933 C   0  0  0  0  0  0  0  0  0  0  0  0 
    4.4066    3.3120    1.4455 C   0  0  2  0  0  0  0  0  0  0  0  0 
    3.9404    5.4303    0.3599 O   0  0  0  0  0  0  0  0  0  0  0  0 
    3.7371   -1.8629   -0.7355 H   0  0  0  0  0  0  0  0  0  0  0  0 
    3.4005   -1.2960    0.9071 H   0  0  0  0  0  0  0  0  0  0  0  0 
    4.8707   -0.7758    0.0696 H   0  0  0  0  0  0  0  0  0  0  0  0 
    7.0057    5.0957    3.0103 H   0  0  0  0  0  0  0  0  0  0  0  0 
    5.5722    4.4111    3.7893 H   0  0  0  0  0  0  0  0  0  0  0  0 
    5.4036    5.7281    2.6110 H   0  0  0  0  0  0  0  0  0  0  0  0 
    2.0018   -0.1076   -0.8405 H   0  0  0  0  0  0  0  0  0  0  0  0 
    3.4627    0.4775   -1.6156 H   0  0  0  0  0  0  0  0  0  0  0  0 
    6.4585    2.9120    1.9491 H   0  0  0  0  0  0  0  0  0  0  0  0 
    6.2473    4.2193    0.7872 H   0  0  0  0  0  0  0  0  0  0  0  0 
    2.5916    1.1573    1.2490 H   0  0  0  0  0  0  0  0  0  0  0  0 
    2.3047    2.1652   -0.1614 H   0  0  0  0  0  0  0  0  0  0  0  0 
    4.7792    2.4224   -0.5014 H   0  0  0  0  0  0  0  0  0  0  0  0 
    5.0876    1.3601    0.8638 H   0  0  0  0  0  0  0  0  0  0  0  0 
    2.4306    4.2512    0.9806 H   0  0  0  0  0  0  0  0  0  0  0  0 
    3.9449    2.9825    2.3907 H   0  0  0  0  0  0  0  0  0  0  0  0 
  1 12  1  0  0  0  0 
  1 11  1  0  0  0  0 
  2 13  1  0  0  0  0 
  2 14  1  0  0  0  0 
  3  1  1  0  0  0  0 
  3  5  1  0  0  0  0 
  4 18  1  0  0  0  0 
  4  2  1  0  0  0  0 
  5  6  1  0  0  0  0 
  5 20  1  0  0  0  0 
  6 23  1  0  0  0  0 
  6  8  1  0  0  0  0 
  7 24  1  0  0  0  0 
  7  8  1  0  0  0  0 
  8  4  1  0  0  0  0 
  8 25  1  1  0  0  0 
  9  7  2  0  0  0  0 
 10  1  1  0  0  0  0 
 15  2  1  0  0  0  0 
 16  3  1  0  0  0  0 
 17  3  1  0  0  0  0 
 19  4  1  0  0  0  0 
 21  5  1  0  0  0  0 
 22  6  1  0  0  0  0 
M  END 
>  <HBA> 
1 
 
>  <HBD> 
0 
 
>  <TPSA> 
17.07 
 
>  <cid> 
31241 
 
>  <dipole> 
2.62 
 
>  <excitation_energy_1> 
4.144 
 
>  <excitation_energy_2> 
6.309 
 
>  <excitation_energy_3> 
6.641 
 
>  <excitation_energy_4> 
6.684 
 
>  <homo_energy> 
-6.716 
 
>  <homo_lumo_gap> 
6.087 
 
>  <logP> 
2.402 
 
>  <lumo_energy> 
-0.629 
 
>  <melting_point> 
3.83 
 
>  <molecular_refractivity> 
40.77 
 
>  <oscillator_strength_1> 
0.0002 
 
>  <oscillator_strength_2> 
0.0112 
 
>  <oscillator_strength_3> 
0.0102 
 
>  <oscillator_strength_4> 
0.0074 
 
>  <open_babel_can_smiles> 
CCCC[C@H](C=O)CC 
 
>  <mulliken_charges> 
25 
1   -0.445445 
2   -0.455854 
3   -0.250313 
4   -0.2503 
5   -0.263377 
6   -0.271928 
7   0.247935 
8   -0.151293 
9   -0.391008 
10   0.146374 
11   0.142033 
12   0.147102 
13   0.145073 
14   0.135532 
15   0.164819 
16   0.135225 
17   0.134958 
18   0.129171 
19   0.154528 
20   0.129542 
21   0.136155 
22   0.146099 
23   0.146038 
24   0.107735 
25   0.131198 
 
>  <lowdin_charges> 
25 
1   -0.44625 
2   -0.447293 
3   -0.271177 
4   -0.272266 
5   -0.281997 
6   -0.271873 
7   0.057701 
8   -0.163506 
9   -0.221548 
10   0.152596 
11   0.146284 
12   0.145717 
13   0.151018 
14   0.142945 
15   0.157719 
16   0.143306 
17   0.141126 
18   0.142437 
19   0.154059 
20   0.138228 
21   0.144235 
22   0.147128 
23   0.14961 
24   0.114386 
25   0.147416 
 
$$$$ 
 
