PCCDB-ID:  23885 
public computational chemistry database (PCCDB) project, http://pccdb.org 
 
 25 24  0  0  0  0  0  0  0  0999 V2000 
    2.1985    1.3309   -0.6329 C   0  0  0  0  0  0  0  0  0  0  0  0 
    5.5682    0.1165    0.2049 C   0  0  0  0  0  0  0  0  0  0  0  0 
    1.3245   -4.0861    1.1053 C   0  0  0  0  0  0  0  0  0  0  0  0 
    2.7127   -0.0940   -0.3967 C   0  0  0  0  0  0  0  0  0  0  0  0 
    2.2878   -0.6460    2.0127 C   0  0  0  0  0  0  0  0  0  0  0  0 
    2.0944   -2.1464    2.2014 C   0  0  0  0  0  0  0  0  0  0  0  0 
    4.5682   -0.2447    1.2971 C   0  0  0  0  0  0  0  0  0  0  0  0 
    3.2396   -0.3083    0.9544 N   0  0  0  0  0  0  0  0  0  0  0  0 
    4.9473   -0.4801    2.4430 O   0  0  0  0  0  0  0  0  0  0  0  0 
    1.4710   -2.6835    1.0455 O   0  0  0  0  0  0  0  0  0  0  0  0 
    1.7849    1.4243   -1.6439 H   0  0  0  0  0  0  0  0  0  0  0  0 
    3.0016    2.0679   -0.5220 H   0  0  0  0  0  0  0  0  0  0  0  0 
    1.4065    1.5897    0.0788 H   0  0  0  0  0  0  0  0  0  0  0  0 
    5.2757    1.0020   -0.3683 H   0  0  0  0  0  0  0  0  0  0  0  0 
    5.6945   -0.7131   -0.5015 H   0  0  0  0  0  0  0  0  0  0  0  0 
    6.5265    0.3021    0.6918 H   0  0  0  0  0  0  0  0  0  0  0  0 
    0.8386   -4.4018    0.1781 H   0  0  0  0  0  0  0  0  0  0  0  0 
    0.6988   -4.3941    1.9587 H   0  0  0  0  0  0  0  0  0  0  0  0 
    2.2984   -4.5942    1.1911 H   0  0  0  0  0  0  0  0  0  0  0  0 
    3.4906   -0.3373   -1.1246 H   0  0  0  0  0  0  0  0  0  0  0  0 
    1.9101   -0.8207   -0.5490 H   0  0  0  0  0  0  0  0  0  0  0  0 
    2.6570   -0.2238    2.9501 H   0  0  0  0  0  0  0  0  0  0  0  0 
    1.3240   -0.1833    1.7750 H   0  0  0  0  0  0  0  0  0  0  0  0 
    1.4673   -2.3257    3.0925 H   0  0  0  0  0  0  0  0  0  0  0  0 
    3.0706   -2.6231    2.3763 H   0  0  0  0  0  0  0  0  0  0  0  0 
  1 12  1  0  0  0  0 
  1  4  1  0  0  0  0 
  1 13  1  0  0  0  0 
  2 16  1  0  0  0  0 
  2  7  1  0  0  0  0 
  3 19  1  0  0  0  0 
  3 18  1  0  0  0  0 
  4  8  1  0  0  0  0 
  5  6  1  0  0  0  0 
  5 22  1  0  0  0  0 
  6 25  1  0  0  0  0 
  6 24  1  0  0  0  0 
  7  9  2  0  0  0  0 
  8  7  1  0  0  0  0 
  8  5  1  0  0  0  0 
 10  3  1  0  0  0  0 
 10  6  1  0  0  0  0 
 11  1  1  0  0  0  0 
 14  2  1  0  0  0  0 
 15  2  1  0  0  0  0 
 17  3  1  0  0  0  0 
 20  4  1  0  0  0  0 
 21  4  1  0  0  0  0 
 23  5  1  0  0  0  0 
M  END 
>  <HBA> 
3 
 
>  <HBD> 
0 
 
>  <TPSA> 
29.54 
 
>  <cid> 
23885 
 
>  <dipole> 
2.87 
 
>  <excitation_energy_1> 
5.562 
 
>  <excitation_energy_2> 
5.8 
 
>  <excitation_energy_3> 
6.126 
 
>  <excitation_energy_4> 
6.161 
 
>  <homo_energy> 
-6.221 
 
>  <homo_lumo_gap> 
7.2 
 
>  <logP> 
0.501 
 
>  <lumo_energy> 
0.98 
 
>  <melting_point> 
-12.15 
 
>  <molecular_refractivity> 
39.94 
 
>  <oscillator_strength_1> 
0.0021 
 
>  <oscillator_strength_2> 
0.0129 
 
>  <oscillator_strength_3> 
0.05 
 
>  <oscillator_strength_4> 
0.0391 
 
>  <open_babel_can_smiles> 
COCCN(C(=O)C)CC 
 
>  <mulliken_charges> 
25 
1   -0.443094 
2   -0.548585 
3   -0.191224 
4   -0.157227 
5   -0.166056 
6   -0.012518 
7   0.57712 
8   -0.395339 
9   -0.523291 
10   -0.464542 
11   0.147102 
12   0.151701 
13   0.154189 
14   0.162635 
15   0.171188 
16   0.184981 
17   0.156282 
18   0.131384 
19   0.134622 
20   0.151678 
21   0.182487 
22   0.179764 
23   0.148255 
24   0.118867 
25   0.14962 
 
>  <lowdin_charges> 
25 
1   -0.45499 
2   -0.474996 
3   -0.279334 
4   -0.202799 
5   -0.204465 
6   -0.13612 
7   0.157588 
8   -0.104646 
9   -0.327075 
10   -0.278448 
11   0.153321 
12   0.151288 
13   0.153687 
14   0.162576 
15   0.168952 
16   0.177503 
17   0.154489 
18   0.133127 
19   0.134145 
20   0.154361 
21   0.165365 
22   0.173387 
23   0.151134 
24   0.129432 
25   0.142518 
 
$$$$ 
 
