PCCDB-ID:  36655 
public computational chemistry database (PCCDB) project, http://pccdb.org 
 
 33 33  0  0  0  0  0  0  0  0999 V2000 
   12.6215    4.2818    4.5174 C   0  0  0  0  0  0  0  0  0  0  0  0 
    7.1816   -2.7564    3.7799 C   0  0  0  0  0  0  0  0  0  0  0  0 
   11.1930    3.9297    4.0907 C   0  0  0  0  0  0  0  0  0  0  0  0 
   10.5837    2.8009    4.9322 C   0  0  0  0  0  0  0  0  0  0  0  0 
    9.3737   -0.3565   -1.2130 C   0  0  0  0  0  0  0  0  0  0  0  0 
    9.5668    0.9665   -0.8151 C   0  0  0  0  0  0  0  0  0  0  0  0 
    9.0927   -1.3343   -0.2592 C   0  0  0  0  0  0  0  0  0  0  0  0 
    9.4961    1.3029    0.5358 C   0  0  0  0  0  0  0  0  0  0  0  0 
    9.1522    2.4371    4.5502 C   0  0  0  0  0  0  0  0  0  0  0  0 
    8.9938   -1.0025    1.0946 C   0  0  0  0  0  0  0  0  0  0  0  0 
    9.2213    0.3272    1.5027 C   0  0  0  0  0  0  0  0  0  0  0  0 
    8.6148   -2.1114    2.0332 C   0  0  0  0  0  0  0  0  0  0  0  0 
    9.3013    0.6714    2.9564 C   0  0  0  0  0  0  0  0  0  0  0  0 
    9.1347   -3.2067    2.0295 O   0  0  0  0  0  0  0  0  0  0  0  0 
    9.5926   -0.1184    3.8323 O   0  0  0  0  0  0  0  0  0  0  0  0 
    7.5611   -1.7754    2.8019 O   0  0  0  0  0  0  0  0  0  0  0  0 
    9.0476    1.9813    3.1779 O   0  0  0  0  0  0  0  0  0  0  0  0 
   13.0334    5.0893    3.9018 H   0  0  0  0  0  0  0  0  0  0  0  0 
   13.2882    3.4163    4.4221 H   0  0  0  0  0  0  0  0  0  0  0  0 
   12.6540    4.6102    5.5636 H   0  0  0  0  0  0  0  0  0  0  0  0 
    7.9927   -2.9016    4.4983 H   0  0  0  0  0  0  0  0  0  0  0  0 
    6.9477   -3.7099    3.2998 H   0  0  0  0  0  0  0  0  0  0  0  0 
    6.3005   -2.3479    4.2757 H   0  0  0  0  0  0  0  0  0  0  0  0 
   11.1872    3.6368    3.0332 H   0  0  0  0  0  0  0  0  0  0  0  0 
   10.5557    4.8225    4.1654 H   0  0  0  0  0  0  0  0  0  0  0  0 
   10.5706    3.0967    5.9914 H   0  0  0  0  0  0  0  0  0  0  0  0 
   11.2061    1.9001    4.8697 H   0  0  0  0  0  0  0  0  0  0  0  0 
    9.4390   -0.6283   -2.2628 H   0  0  0  0  0  0  0  0  0  0  0  0 
    9.7861    1.7340   -1.5520 H   0  0  0  0  0  0  0  0  0  0  0  0 
    8.9374   -2.3670   -0.5549 H   0  0  0  0  0  0  0  0  0  0  0  0 
    9.6721    2.3238    0.8554 H   0  0  0  0  0  0  0  0  0  0  0  0 
    8.4965    3.3117    4.5880 H   0  0  0  0  0  0  0  0  0  0  0  0 
    8.7585    1.6564    5.2052 H   0  0  0  0  0  0  0  0  0  0  0  0 
  1 20  1  0  0  0  0 
  2 23  1  0  0  0  0 
  2 21  1  0  0  0  0 
  3 25  1  0  0  0  0 
  3  1  1  0  0  0  0 
  3  4  1  0  0  0  0 
  4 26  1  0  0  0  0 
  5  6  2  0  0  0  0 
  5  7  1  0  0  0  0 
  6  8  1  0  0  0  0 
  7 10  2  0  0  0  0 
  8 31  1  0  0  0  0 
  8 11  2  0  0  0  0 
  9 32  1  0  0  0  0 
  9  4  1  0  0  0  0 
  9 33  1  0  0  0  0 
 10 11  1  0  0  0  0 
 10 12  1  0  0  0  0 
 11 13  1  0  0  0  0 
 12 16  1  0  0  0  0 
 13 17  1  0  0  0  0 
 13 15  2  0  0  0  0 
 14 12  2  0  0  0  0 
 16  2  1  0  0  0  0 
 17  9  1  0  0  0  0 
 18  1  1  0  0  0  0 
 19  1  1  0  0  0  0 
 22  2  1  0  0  0  0 
 24  3  1  0  0  0  0 
 27  4  1  0  0  0  0 
 28  5  1  0  0  0  0 
 29  6  1  0  0  0  0 
 30  7  1  0  0  0  0 
M  END 
>  <HBA> 
4 
 
>  <HBD> 
0 
 
>  <TPSA> 
52.6 
 
>  <cid> 
36655 
 
>  <dipole> 
3.21 
 
>  <excitation_energy_1> 
4.668 
 
>  <excitation_energy_2> 
4.77 
 
>  <excitation_energy_3> 
4.995 
 
>  <excitation_energy_4> 
5.381 
 
>  <homo_energy> 
-6.947 
 
>  <homo_lumo_gap> 
5.521 
 
>  <logP> 
2.43 
 
>  <lumo_energy> 
-1.426 
 
>  <melting_point> 
54.22 
 
>  <molecular_refractivity> 
63.42 
 
>  <oscillator_strength_1> 
0.0354 
 
>  <oscillator_strength_2> 
0.0195 
 
>  <oscillator_strength_3> 
0.0163 
 
>  <oscillator_strength_4> 
0.0978 
 
>  <open_babel_can_smiles> 
CCCCOC(=O)c1ccccc1C(=O)OC 
 
>  <mulliken_charges> 
33 
1   -0.442806 
2   -0.218242 
3   -0.249766 
4   -0.277426 
5   -0.123214 
6   -0.1245 
7   -0.163492 
8   -0.175389 
9   -0.049013 
10   0.069218 
11   0.054584 
12   0.549238 
13   0.584073 
14   -0.478083 
15   -0.490215 
16   -0.440738 
17   -0.472912 
18   0.144645 
19   0.147384 
20   0.142679 
21   0.178934 
22   0.169396 
23   0.161439 
24   0.143677 
25   0.129939 
26   0.137617 
27   0.164575 
28   0.143559 
29   0.141489 
30   0.160356 
31   0.162827 
32   0.149928 
33   0.17024 
 
>  <lowdin_charges> 
33 
1   -0.444108 
2   -0.279207 
3   -0.27342 
4   -0.286206 
5   -0.138877 
6   -0.14976 
7   -0.136174 
8   -0.138964 
9   -0.131077 
10   -0.008812 
11   -0.03002 
12   0.199148 
13   0.203289 
14   -0.256501 
15   -0.264203 
16   -0.180568 
17   -0.192337 
18   0.151952 
19   0.149934 
20   0.145631 
21   0.164941 
22   0.158929 
23   0.159926 
24   0.142108 
25   0.139171 
26   0.148332 
27   0.157808 
28   0.163587 
29   0.164978 
30   0.173336 
31   0.172382 
32   0.152228 
33   0.162553 
 
$$$$ 
 
