PCCDB-ID:  32100 
public computational chemistry database (PCCDB) project, http://pccdb.org 
 
 35 36  0  0  0  0  0  0  0  0999 V2000 
   -1.7170   -1.9518   -0.4964 C   0  0  0  0  0  0  0  0  0  0  0  0 
   -0.9827   -2.8159    0.3178 C   0  0  0  0  0  0  0  0  0  0  0  0 
   -1.0521   -1.1546   -1.4297 C   0  0  0  0  0  0  0  0  0  0  0  0 
    0.4061   -2.8800    0.1977 C   0  0  0  0  0  0  0  0  0  0  0  0 
    0.3369   -1.2222   -1.5450 C   0  0  0  0  0  0  0  0  0  0  0  0 
    2.5971   -2.1265   -0.8364 C   0  0  0  0  0  0  0  0  0  0  0  0 
    6.8919   -2.2197    0.2198 C   0  0  0  0  0  0  0  0  0  0  0  0 
    6.7770    0.2900    0.1503 C   0  0  0  0  0  0  0  0  0  0  0  0 
    3.2680   -1.1180    0.1176 C   0  0  0  0  0  0  0  0  0  0  0  0 
    5.3968   -2.2261    0.5555 C   0  0  0  0  0  0  0  0  0  0  0  0 
    5.2873    0.1808    0.4906 C   0  0  0  0  0  0  0  0  0  0  0  0 
    7.6424   -0.8741    2.1543 C   0  0  0  0  0  0  0  0  0  0  0  0 
    1.0870   -2.0844   -0.7337 C   0  0  0  0  0  0  0  0  0  0  0  0 
    7.5848   -0.9169    0.6745 C   0  0  0  0  0  0  0  0  0  0  0  0 
    7.6382   -0.8436    3.3140 N   0  0  0  0  0  0  0  0  0  0  0  0 
    4.7245   -1.0660   -0.0344 N   0  0  0  0  0  0  0  0  0  0  0  0 
    8.9456   -0.8660    0.2487 O   0  0  0  0  0  0  0  0  0  0  0  0 
   -2.7990   -1.9037   -0.4077 H   0  0  0  0  0  0  0  0  0  0  0  0 
   -1.4913   -3.4445    1.0443 H   0  0  0  0  0  0  0  0  0  0  0  0 
   -1.6153   -0.4830   -2.0727 H   0  0  0  0  0  0  0  0  0  0  0  0 
    0.9703   -3.5604    0.8325 H   0  0  0  0  0  0  0  0  0  0  0  0 
    0.8473   -0.6015   -2.2788 H   0  0  0  0  0  0  0  0  0  0  0  0 
    2.9470   -3.1424   -0.6179 H   0  0  0  0  0  0  0  0  0  0  0  0 
    2.9189   -1.8912   -1.8575 H   0  0  0  0  0  0  0  0  0  0  0  0 
    7.0109   -2.2849   -0.8698 H   0  0  0  0  0  0  0  0  0  0  0  0 
    7.3970   -3.0814    0.6677 H   0  0  0  0  0  0  0  0  0  0  0  0 
    7.2021    1.2179    0.5461 H   0  0  0  0  0  0  0  0  0  0  0  0 
    6.8908    0.3028   -0.9418 H   0  0  0  0  0  0  0  0  0  0  0  0 
    2.9694   -1.3387    1.1606 H   0  0  0  0  0  0  0  0  0  0  0  0 
    2.8745   -0.1211   -0.1119 H   0  0  0  0  0  0  0  0  0  0  0  0 
    5.2624   -2.2584    1.6550 H   0  0  0  0  0  0  0  0  0  0  0  0 
    4.9517   -3.1410    0.1540 H   0  0  0  0  0  0  0  0  0  0  0  0 
    4.7542    1.0217    0.0337 H   0  0  0  0  0  0  0  0  0  0  0  0 
    5.1518    0.2695    1.5865 H   0  0  0  0  0  0  0  0  0  0  0  0 
    8.9351   -0.8898   -0.7223 H   0  0  0  0  0  0  0  0  0  0  0  0 
  1 18  1  0  0  0  0 
  1  2  2  0  0  0  0 
  2 19  1  0  0  0  0 
  3  1  1  0  0  0  0 
  4  2  1  0  0  0  0 
  4 21  1  0  0  0  0 
  5  3  2  0  0  0  0 
  5 13  1  0  0  0  0 
  6 13  1  0  0  0  0 
  6 23  1  0  0  0  0 
  6  9  1  0  0  0  0 
  7 10  1  0  0  0  0 
  7 26  1  0  0  0  0 
  7 14  1  0  0  0  0 
  8 11  1  0  0  0  0 
  8 27  1  0  0  0  0 
  8 14  1  0  0  0  0 
  9 29  1  0  0  0  0 
 10 31  1  0  0  0  0 
 11 34  1  0  0  0  0 
 12 15  3  0  0  0  0 
 13  4  2  0  0  0  0 
 14 12  1  0  0  0  0 
 16  9  1  0  0  0  0 
 16 11  1  0  0  0  0 
 16 10  1  0  0  0  0 
 17 14  1  0  0  0  0 
 20  3  1  0  0  0  0 
 22  5  1  0  0  0  0 
 24  6  1  0  0  0  0 
 25  7  1  0  0  0  0 
 28  8  1  0  0  0  0 
 30  9  1  0  0  0  0 
 32 10  1  0  0  0  0 
 33 11  1  0  0  0  0 
 35 17  1  0  0  0  0 
M  END 
>  <HBA> 
3 
 
>  <HBD> 
1 
 
>  <TPSA> 
47.26 
 
>  <cid> 
32100 
 
>  <dipole> 
4.53 
 
>  <excitation_energy_1> 
5.262 
 
>  <excitation_energy_2> 
5.317 
 
>  <excitation_energy_3> 
5.398 
 
>  <excitation_energy_4> 
5.432 
 
>  <homo_energy> 
-6.144 
 
>  <homo_lumo_gap> 
6.101 
 
>  <logP> 
1.517 
 
>  <lumo_energy> 
-0.044 
 
>  <melting_point> 
91.26 
 
>  <molecular_refractivity> 
70.7 
 
>  <oscillator_strength_1> 
0.0083 
 
>  <oscillator_strength_2> 
0.0058 
 
>  <oscillator_strength_3> 
0.018 
 
>  <oscillator_strength_4> 
0.0008 
 
>  <open_babel_can_smiles> 
N#CC1(O)CCN(CC1)CCc1ccccc1 
 
>  <mulliken_charges> 
35 
1   -0.13094 
2   -0.127689 
3   -0.127671 
4   -0.178778 
5   -0.180388 
6   -0.35747 
7   -0.282501 
8   -0.283441 
9   -0.108299 
10   -0.145098 
11   -0.138693 
12   0.364666 
13   0.165261 
14   0.247825 
15   -0.478258 
16   -0.400833 
17   -0.630174 
18   0.12945 
19   0.130146 
20   0.129279 
21   0.122767 
22   0.122664 
23   0.145291 
24   0.151446 
25   0.141653 
26   0.1662 
27   0.16635 
28   0.141179 
29   0.125367 
30   0.142361 
31   0.139318 
32   0.151661 
33   0.148677 
34   0.140458 
35   0.398211 
 
>  <lowdin_charges> 
35 
1   -0.158001 
2   -0.155302 
3   -0.156136 
4   -0.168901 
5   -0.168977 
6   -0.27662 
7   -0.284114 
8   -0.284137 
9   -0.194841 
10   -0.20335 
11   -0.201707 
12   -0.013239 
13   -0.002048 
14   0.115412 
15   -0.115989 
16   -0.195244 
17   -0.431203 
18   0.155741 
19   0.159084 
20   0.158812 
21   0.155468 
22   0.155197 
23   0.147538 
24   0.153308 
25   0.148171 
26   0.165441 
27   0.165038 
28   0.147798 
29   0.124853 
30   0.147865 
31   0.128316 
32   0.153819 
33   0.153636 
34   0.129175 
35   0.345135 
 
$$$$ 
 
