PCCDB-ID:  53175 
public computational chemistry database (PCCDB) project, http://pccdb.org 
 
 16 16  0  0  0  0  0  0  0  0999 V2000 
   -0.7859    1.1444   -0.0044 C   0  0  0  0  0  0  0  0  0  0  0  0 
   -1.5207   -0.0308    0.1227 C   0  0  0  0  0  0  0  0  0  0  0  0 
    0.5952    1.1171   -0.1899 C   0  0  0  0  0  0  0  0  0  0  0  0 
    0.5110   -1.3210   -0.1203 C   0  0  0  0  0  0  0  0  0  0  0  0 
    3.6541   -0.7208   -0.5919 C   0  0  0  0  0  0  0  0  0  0  0  0 
   -0.8778   -1.2822    0.0673 C   0  0  0  0  0  0  0  0  0  0  0  0 
    1.2347   -0.1276   -0.2464 C   0  0  0  0  0  0  0  0  0  0  0  0 
   -1.5992   -2.4603    0.2543 N   0  0  0  0  0  0  0  0  0  0  0  0 
    2.6061   -0.1711   -0.4327 N   0  0  0  0  0  0  0  0  0  0  0  0 
    5.0983   -1.3524   -0.8083 S   0  0  0  0  0  0  0  0  0  0  0  0 
   -1.3002    2.1003    0.0404 H   0  0  0  0  0  0  0  0  0  0  0  0 
   -2.5965    0.0111    0.2734 H   0  0  0  0  0  0  0  0  0  0  0  0 
    1.1761    2.0266   -0.2912 H   0  0  0  0  0  0  0  0  0  0  0  0 
    1.0356   -2.2712   -0.1623 H   0  0  0  0  0  0  0  0  0  0  0  0 
   -2.5842   -2.4043    0.0285 H   0  0  0  0  0  0  0  0  0  0  0  0 
   -1.1738   -3.2963   -0.1260 H   0  0  0  0  0  0  0  0  0  0  0  0 
  1 11  1  0  0  0  0 
  1  2  2  0  0  0  0 
  2 12  1  0  0  0  0 
  3  1  1  0  0  0  0 
  4  6  2  0  0  0  0 
  5  9  2  0  0  0  0 
  6  2  1  0  0  0  0 
  6  8  1  0  0  0  0 
  7  3  2  0  0  0  0 
  7  4  1  0  0  0  0 
  9  7  1  0  0  0  0 
 10  5  2  0  0  0  0 
 13  3  1  0  0  0  0 
 14  4  1  0  0  0  0 
 15  8  1  0  0  0  0 
 16  8  1  0  0  0  0 
M  END 
>  <HBA> 
3 
 
>  <HBD> 
1 
 
>  <TPSA> 
70.47 
 
>  <cid> 
53175 
 
>  <dipole> 
4.57 
 
>  <excitation_energy_1> 
4.165 
 
>  <excitation_energy_2> 
4.421 
 
>  <excitation_energy_3> 
4.597 
 
>  <excitation_energy_4> 
4.661 
 
>  <homo_energy> 
-5.829 
 
>  <homo_lumo_gap> 
4.757 
 
>  <logP> 
2.584 
 
>  <lumo_energy> 
-1.072 
 
>  <melting_point> 
110.26 
 
>  <molecular_refractivity> 
45.53 
 
>  <oscillator_strength_1> 
0.1264 
 
>  <oscillator_strength_2> 
0.0007 
 
>  <oscillator_strength_3> 
0.1832 
 
>  <oscillator_strength_4> 
0.0128 
 
>  <open_babel_can_smiles> 
S=C=Nc1cccc(c1)N 
 
>  <mulliken_charges> 
16 
1   -0.142872 
2   -0.165713 
3   -0.146887 
4   -0.18773 
5   0.167474 
6   0.313555 
7   0.273766 
8   -0.790576 
9   -0.407319 
10   -0.112385 
11   0.138411 
12   0.125019 
13   0.144218 
14   0.139447 
15   0.32537 
16   0.326222 
 
>  <lowdin_charges> 
16 
1   -0.137533 
2   -0.195181 
3   -0.189148 
4   -0.208034 
5   -0.043469 
6   0.068799 
7   0.069564 
8   -0.481033 
9   -0.065492 
10   -0.030915 
11   0.163407 
12   0.155568 
13   0.170223 
14   0.165615 
15   0.277632 
16   0.279996 
 
$$$$ 
 
