PCCDB-ID:  52811 
public computational chemistry database (PCCDB) project, http://pccdb.org 
 
 31 31  0  0  0  0  0  0  0  0999 V2000 
    3.5434   -0.4347   -0.8879 C   0  0  0  0  0  0  0  0  0  0  0  0 
    2.2184    0.1714   -2.8145 C   0  0  0  0  0  0  0  0  0  0  0  0 
    4.1295   -1.4690   -1.6060 C   0  0  0  0  0  0  0  0  0  0  0  0 
    2.8025   -0.8649   -3.5391 C   0  0  0  0  0  0  0  0  0  0  0  0 
    1.9129    1.4958   -0.6790 C   0  0  0  0  0  0  0  0  0  0  0  0 
    0.6463    0.9914    0.0674 C   0  0  0  0  0  0  0  0  0  0  0  0 
    4.3802   -2.7907   -3.7156 C   0  0  0  0  0  0  0  0  0  0  0  0 
    2.5784    0.3993   -1.4787 C   0  0  0  0  0  0  0  0  0  0  0  0 
    3.7610   -1.6924   -2.9414 C   0  0  0  0  0  0  0  0  0  0  0  0 
   -0.0223    2.1047    0.8396 C   0  0  0  0  0  0  0  0  0  0  0  0 
   -2.1516    3.8213   -1.4069 C   0  0  0  0  0  0  0  0  0  0  0  0 
   -2.7365    3.4768   -2.4966 N   0  0  0  0  0  0  0  0  0  0  0  0 
   -2.3336    4.9497   -0.6291 N   0  0  0  0  0  0  0  0  0  0  0  0 
   -0.8078    2.9978    0.3769 N   0  0  0  0  0  0  0  0  0  0  0  0 
   -1.1011    2.9979   -0.9697 N   0  0  0  0  0  0  0  0  0  0  0  0 
    5.2190   -3.5568   -3.2809 O   0  0  0  0  0  0  0  0  0  0  0  0 
    0.3221    2.2535    2.1576 O   0  0  0  0  0  0  0  0  0  0  0  0 
    3.8393   -0.2595    0.1444 H   0  0  0  0  0  0  0  0  0  0  0  0 
    1.4821    0.8157   -3.2894 H   0  0  0  0  0  0  0  0  0  0  0  0 
    4.8792   -2.1148   -1.1590 H   0  0  0  0  0  0  0  0  0  0  0  0 
    2.5208   -1.0308   -4.5769 H   0  0  0  0  0  0  0  0  0  0  0  0 
    2.6114    1.9053    0.0598 H   0  0  0  0  0  0  0  0  0  0  0  0 
    1.6205    2.3220   -1.3360 H   0  0  0  0  0  0  0  0  0  0  0  0 
    0.9193    0.1713    0.7442 H   0  0  0  0  0  0  0  0  0  0  0  0 
   -0.0519    0.5537   -0.6568 H   0  0  0  0  0  0  0  0  0  0  0  0 
    4.0177   -2.8801   -4.7641 H   0  0  0  0  0  0  0  0  0  0  0  0 
   -3.4079    4.1867   -2.7921 H   0  0  0  0  0  0  0  0  0  0  0  0 
   -3.2518    5.3666   -0.6917 H   0  0  0  0  0  0  0  0  0  0  0  0 
   -1.9750    4.8604    0.3160 H   0  0  0  0  0  0  0  0  0  0  0  0 
   -1.1005    2.1164   -1.4776 H   0  0  0  0  0  0  0  0  0  0  0  0 
    0.7108    1.4251    2.4746 H   0  0  0  0  0  0  0  0  0  0  0  0 
  1 18  1  0  0  0  0 
  2  8  2  0  0  0  0 
  3 20  1  0  0  0  0 
  3  1  2  0  0  0  0 
  4  9  2  0  0  0  0 
  4  2  1  0  0  0  0 
  5 22  1  0  0  0  0 
  5  6  1  0  0  0  0 
  6 24  1  0  0  0  0 
  6 10  1  0  0  0  0 
  7 16  2  0  0  0  0 
  7  9  1  0  0  0  0 
  8  1  1  0  0  0  0 
  8  5  1  0  0  0  0 
  9  3  1  0  0  0  0 
 10 17  1  0  0  0  0 
 11 15  1  0  0  0  0 
 11 13  2  0  0  0  0 
 12 11  1  0  0  0  0 
 13 29  1  0  0  0  0 
 14 10  2  0  0  0  0 
 15 14  1  0  0  0  0 
 17 31  1  0  0  0  0 
 19  2  1  0  0  0  0 
 21  4  1  0  0  0  0 
 23  5  1  0  0  0  0 
 25  6  1  0  0  0  0 
 26  7  1  0  0  0  0 
 27 12  1  0  0  0  0 
 28 13  1  0  0  0  0 
 30 15  1  0  0  0  0 
M  RAD  1  12   2 
M  END 
>  <HBA> 
6 
 
>  <HBD> 
3 
 
>  <TPSA> 
110.57 
 
>  <cid> 
52811 
 
>  <dipole> 
2.64 
 
>  <excitation_energy_1> 
3.379 
 
>  <excitation_energy_2> 
3.674 
 
>  <excitation_energy_3> 
4.406 
 
>  <excitation_energy_4> 
4.516 
 
>  <homo_energy> 
-5.595 
 
>  <homo_lumo_gap> 
3.75 
 
>  <logP> 
1.528 
 
>  <lumo_energy> 
-1.845 
 
>  <melting_point> 
214.86 
 
>  <molecular_refractivity> 
63.32 
 
>  <oscillator_strength_1> 
0.0241 
 
>  <oscillator_strength_2> 
0.0001 
 
>  <oscillator_strength_3> 
0.015 
 
>  <oscillator_strength_4> 
0.0003 
 
>  <open_babel_can_smiles> 
O=Cc1ccc(cc1)CC/C(=N\NC(=[NH2])[NH])/O 
 
>  <mulliken_charges> 
31 
1   -0.181075 
2   -0.188754 
3   -0.156414 
4   -0.177117 
5   -0.360384 
6   -0.364925 
7   0.193615 
8   0.180647 
9   0.095406 
10   0.487449 
11   0.61195 
12   -0.667029 
13   -0.751363 
14   -0.306607 
15   -0.458274 
16   -0.406379 
17   -0.587352 
18   0.130824 
19   0.145313 
20   0.165371 
21   0.145778 
22   0.16204 
23   0.186754 
24   0.147157 
25   0.168287 
26   0.104493 
27   0.270172 
28   0.322803 
29   0.353316 
30   0.326 
31   0.408299 
 
>  <lowdin_charges> 
31 
1   -0.164017 
2   -0.166705 
3   -0.123447 
4   -0.13562 
5   -0.272965 
6   -0.302074 
7   0.047071 
8   0.013354 
9   -0.057336 
10   0.095522 
11   0.128321 
12   -0.491984 
13   -0.492105 
14   -0.136947 
15   -0.221151 
16   -0.226533 
17   -0.372464 
18   0.156564 
19   0.165164 
20   0.177933 
21   0.163351 
22   0.160214 
23   0.170007 
24   0.154952 
25   0.162618 
26   0.117037 
27   0.251112 
28   0.27981 
29   0.29074 
30   0.272142 
31   0.357436 
 
$$$$ 
 
