PCCDB-ID:  52348 
public computational chemistry database (PCCDB) project, http://pccdb.org 
 
 38 37  0  0  0  0  0  0  0  0999 V2000 
    4.5841   -0.9328    1.7035 C   0  0  0  0  0  0  0  0  0  0  0  0 
    3.3744   -5.9530   -4.5577 C   0  0  0  0  0  0  0  0  0  0  0  0 
    3.6839   -1.3749    0.5437 C   0  0  0  0  0  0  0  0  0  0  0  0 
    3.6582   -4.4528   -4.4309 C   0  0  0  0  0  0  0  0  0  0  0  0 
    3.9054   -0.5991   -0.7649 C   0  0  0  0  0  0  0  0  0  0  0  0 
    4.4703   -4.0988   -3.1778 C   0  0  0  0  0  0  0  0  0  0  0  0 
    7.1227   -4.0374    0.0014 C   0  0  0  0  0  0  0  0  0  0  0  0 
    7.6689   -2.7756   -0.6967 C   0  0  0  0  0  0  0  0  0  0  0  0 
    7.7421   -4.2784    1.3064 C   0  0  0  0  0  0  0  0  0  0  0  0 
    5.2616   -0.8352   -1.4478 C   0  0  0  0  0  0  0  0  0  0  0  0 
    4.7420   -2.5953   -3.0549 C   0  0  0  0  0  0  0  0  0  0  0  0 
    6.9393   -2.4966   -2.0175 C   0  0  0  0  0  0  0  0  0  0  0  0 
    8.2409   -4.4550    2.3400 N   0  0  0  0  0  0  0  0  0  0  0  0 
    5.5045   -2.2309   -1.8503 N   0  0  0  0  0  0  0  0  0  0  0  0 
    4.3467   -1.4865    2.6186 H   0  0  0  0  0  0  0  0  0  0  0  0 
    4.4563    0.1357    1.9186 H   0  0  0  0  0  0  0  0  0  0  0  0 
    5.6461   -1.1018    1.4909 H   0  0  0  0  0  0  0  0  0  0  0  0 
    2.7949   -6.1748   -5.4609 H   0  0  0  0  0  0  0  0  0  0  0  0 
    2.8045   -6.3227   -3.6966 H   0  0  0  0  0  0  0  0  0  0  0  0 
    4.3060   -6.5297   -4.6098 H   0  0  0  0  0  0  0  0  0  0  0  0 
    2.6346   -1.2529    0.8437 H   0  0  0  0  0  0  0  0  0  0  0  0 
    3.8266   -2.4450    0.3497 H   0  0  0  0  0  0  0  0  0  0  0  0 
    2.7077   -3.9008   -4.4155 H   0  0  0  0  0  0  0  0  0  0  0  0 
    4.1965   -4.1051   -5.3241 H   0  0  0  0  0  0  0  0  0  0  0  0 
    3.8209    0.4799   -0.5704 H   0  0  0  0  0  0  0  0  0  0  0  0 
    3.0927   -0.8379   -1.4632 H   0  0  0  0  0  0  0  0  0  0  0  0 
    5.4156   -4.6591   -3.1964 H   0  0  0  0  0  0  0  0  0  0  0  0 
    3.9347   -4.4299   -2.2781 H   0  0  0  0  0  0  0  0  0  0  0  0 
    7.2866   -4.9212   -0.6290 H   0  0  0  0  0  0  0  0  0  0  0  0 
    6.0394   -3.9356    0.1283 H   0  0  0  0  0  0  0  0  0  0  0  0 
    8.7390   -2.8994   -0.9011 H   0  0  0  0  0  0  0  0  0  0  0  0 
    7.5808   -1.9216   -0.0158 H   0  0  0  0  0  0  0  0  0  0  0  0 
    6.0572   -0.5439   -0.7546 H   0  0  0  0  0  0  0  0  0  0  0  0 
    5.3529   -0.1558   -2.3178 H   0  0  0  0  0  0  0  0  0  0  0  0 
    3.7771   -2.0802   -3.0128 H   0  0  0  0  0  0  0  0  0  0  0  0 
    5.2460   -2.2258   -3.9699 H   0  0  0  0  0  0  0  0  0  0  0  0 
    7.0518   -3.3751   -2.6623 H   0  0  0  0  0  0  0  0  0  0  0  0 
    7.4446   -1.6632   -2.5414 H   0  0  0  0  0  0  0  0  0  0  0  0 
  1 16  1  0  0  0  0 
  1 15  1  0  0  0  0 
  2  4  1  0  0  0  0 
  2 19  1  0  0  0  0 
  3 21  1  0  0  0  0 
  3  1  1  0  0  0  0 
  4 23  1  0  0  0  0 
  4  6  1  0  0  0  0 
  5 25  1  0  0  0  0 
  5  3  1  0  0  0  0 
  6 11  1  0  0  0  0 
  6 28  1  0  0  0  0 
  7 30  1  0  0  0  0 
  7  9  1  0  0  0  0 
  8 32  1  0  0  0  0 
  8  7  1  0  0  0  0 
  9 13  3  0  0  0  0 
 10  5  1  0  0  0  0 
 10 33  1  0  0  0  0 
 11 35  1  0  0  0  0 
 11 14  1  0  0  0  0 
 12 14  1  0  0  0  0 
 12  8  1  0  0  0  0 
 14 10  1  0  0  0  0 
 17  1  1  0  0  0  0 
 18  2  1  0  0  0  0 
 20  2  1  0  0  0  0 
 22  3  1  0  0  0  0 
 24  4  1  0  0  0  0 
 26  5  1  0  0  0  0 
 27  6  1  0  0  0  0 
 29  7  1  0  0  0  0 
 31  8  1  0  0  0  0 
 34 10  1  0  0  0  0 
 36 11  1  0  0  0  0 
 37 12  1  0  0  0  0 
 38 12  1  0  0  0  0 
M  END 
>  <HBA> 
2 
 
>  <HBD> 
0 
 
>  <TPSA> 
27.03 
 
>  <cid> 
52348 
 
>  <dipole> 
4.89 
 
>  <excitation_energy_1> 
5.438 
 
>  <excitation_energy_2> 
5.563 
 
>  <excitation_energy_3> 
5.644 
 
>  <excitation_energy_4> 
5.757 
 
>  <homo_energy> 
-6.038 
 
>  <homo_lumo_gap> 
7.135 
 
>  <logP> 
3.192 
 
>  <lumo_energy> 
1.097 
 
>  <melting_point> 
5.99 
 
>  <molecular_refractivity> 
62.44 
 
>  <oscillator_strength_1> 
0.0292 
 
>  <oscillator_strength_2> 
0.0732 
 
>  <oscillator_strength_3> 
0.0221 
 
>  <oscillator_strength_4> 
0.0344 
 
>  <open_babel_can_smiles> 
CCCCN(CCCC)CCCC#N 
 
>  <mulliken_charges> 
38 
1   -0.450606 
2   -0.441574 
3   -0.247349 
4   -0.252789 
5   -0.263258 
6   -0.252485 
7   -0.340465 
8   -0.271997 
9   0.344786 
10   -0.132165 
11   -0.12875 
12   -0.135114 
13   -0.478298 
14   -0.389092 
15   0.150139 
16   0.14072 
17   0.145353 
18   0.144995 
19   0.144575 
20   0.142258 
21   0.131201 
22   0.145654 
23   0.133189 
24   0.133209 
25   0.13114 
26   0.134447 
27   0.127797 
28   0.139941 
29   0.18363 
30   0.214815 
31   0.155117 
32   0.163301 
33   0.140197 
34   0.115283 
35   0.141259 
36   0.114002 
37   0.140856 
38   0.126077 
 
>  <lowdin_charges> 
38 
1   -0.44493 
2   -0.444698 
3   -0.273164 
4   -0.272956 
5   -0.281625 
6   -0.281866 
7   -0.276458 
8   -0.271372 
9   -0.01778 
10   -0.204985 
11   -0.202534 
12   -0.202959 
13   -0.136649 
14   -0.192437 
15   0.154435 
16   0.144373 
17   0.14345 
18   0.151408 
19   0.14874 
20   0.146821 
21   0.141144 
22   0.142352 
23   0.139891 
24   0.140509 
25   0.142368 
26   0.142345 
27   0.136109 
28   0.144912 
29   0.176435 
30   0.186284 
31   0.154437 
32   0.154266 
33   0.14586 
34   0.123456 
35   0.146657 
36   0.120861 
37   0.146785 
38   0.130516 
 
$$$$ 
 
