PCCDB-ID:  21919 
public computational chemistry database (PCCDB) project, http://pccdb.org 
 
 15 14  0  0  0  0  0  0  0  0999 V2000 
    3.1629    0.0519    1.2510 C   0  0  0  0  0  0  0  0  0  0  0  0 
    2.5697    0.6591   -1.2001 C   0  0  0  0  0  0  0  0  0  0  0  0 
    2.2454   -0.1441    0.0646 C   0  0  0  0  0  0  0  0  0  0  0  0 
    1.3651    0.7208   -2.1207 C   0  0  0  0  0  0  0  0  0  0  0  0 
    0.1618    1.4793   -1.5235 C   0  0  0  0  0  0  0  0  0  0  0  0 
    1.2937   -0.8999    0.0847 O   0  0  0  0  0  0  0  0  0  0  0  0 
    1.3290    0.2617   -3.2368 O   0  0  0  0  0  0  0  0  0  0  0  0 
   -0.9490    1.3381   -2.2566 O   0  0  0  0  0  0  0  0  0  0  0  0 
    0.2457    2.1450   -0.5136 O   0  0  0  0  0  0  0  0  0  0  0  0 
    4.2167   -0.0057    0.9534 H   0  0  0  0  0  0  0  0  0  0  0  0 
    2.9464   -0.6972    2.0151 H   0  0  0  0  0  0  0  0  0  0  0  0 
    2.9983    1.0531    1.6698 H   0  0  0  0  0  0  0  0  0  0  0  0 
    3.3900    0.1694   -1.7374 H   0  0  0  0  0  0  0  0  0  0  0  0 
    2.8936    1.6710   -0.9293 H   0  0  0  0  0  0  0  0  0  0  0  0 
   -1.6471    1.8507   -1.8059 H   0  0  0  0  0  0  0  0  0  0  0  0 
  1 12  1  0  0  0  0 
  1 11  1  0  0  0  0 
  2 14  1  0  0  0  0 
  2  3  1  0  0  0  0 
  3  6  2  0  0  0  0 
  3  1  1  0  0  0  0 
  4  5  1  0  0  0  0 
  4  2  1  0  0  0  0 
  5  9  2  0  0  0  0 
  7  4  2  0  0  0  0 
  8 15  1  0  0  0  0 
  8  5  1  0  0  0  0 
 10  1  1  0  0  0  0 
 13  2  1  0  0  0  0 
M  END 
>  <HBA> 
4 
 
>  <HBD> 
1 
 
>  <TPSA> 
71.44 
 
>  <cid> 
21919 
 
>  <dipole> 
2.88 
 
>  <excitation_energy_1> 
3.277 
 
>  <excitation_energy_2> 
4.003 
 
>  <excitation_energy_3> 
4.492 
 
>  <excitation_energy_4> 
5.081 
 
>  <homo_energy> 
-7.018 
 
>  <homo_lumo_gap> 
4.816 
 
>  <logP> 
-0.381 
 
>  <lumo_energy> 
-2.201 
 
>  <melting_point> 
94.04 
 
>  <molecular_refractivity> 
28.32 
 
>  <oscillator_strength_1> 
0.0002 
 
>  <oscillator_strength_2> 
0.0009 
 
>  <oscillator_strength_3> 
0.0002 
 
>  <oscillator_strength_4> 
0.0004 
 
>  <open_babel_can_smiles> 
CC(=O)CC(=O)C(=O)O 
 
>  <mulliken_charges> 
15 
1   -0.534153 
2   -0.441504 
3   0.46874 
4   0.425127 
5   0.542833 
6   -0.429701 
7   -0.394468 
8   -0.535556 
9   -0.457667 
10   0.169592 
11   0.187475 
12   0.189445 
13   0.199252 
14   0.191401 
15   0.419183 
 
>  <lowdin_charges> 
15 
1   -0.470485 
2   -0.336816 
3   0.177104 
4   0.147898 
5   0.165223 
6   -0.227126 
7   -0.165632 
8   -0.313073 
9   -0.249727 
10   0.168495 
11   0.178346 
12   0.181462 
13   0.188955 
14   0.184295 
15   0.371082 
 
$$$$ 
 
