PCCDB-ID:  51110 
public computational chemistry database (PCCDB) project, http://pccdb.org 
 
 19 18  0  0  0  0  0  0  0  0999 V2000 
    2.3783    0.4388   -1.6233 C   0  0  0  0  0  0  0  0  0  0  0  0 
   -0.9401   -1.4402    2.3408 C   0  0  0  0  0  0  0  0  0  0  0  0 
    2.6739   -0.3254    0.7835 C   0  0  0  0  0  0  0  0  0  0  0  0 
    1.2506   -1.9714    1.6539 C   0  0  0  0  0  0  0  0  0  0  0  0 
    1.3744   -0.7627    1.2293 N   0  0  0  0  0  0  0  0  0  0  0  0 
    3.5153   -1.5761   -1.1716 N   0  0  0  0  0  0  0  0  0  0  0  0 
    2.9072   -0.5207   -0.6659 N   0  0  0  0  0  0  0  0  0  0  0  0 
    2.1420   -2.9627    1.6760 O   0  0  0  0  0  0  0  0  0  0  0  0 
    3.8672   -2.4496   -0.3593 O   0  0  0  0  0  0  0  0  0  0  0  0 
    0.1059   -2.4058    2.1915 O   0  0  0  0  0  0  0  0  0  0  0  0 
    1.2907    0.5035   -1.5166 H   0  0  0  0  0  0  0  0  0  0  0  0 
    2.6346    0.0910   -2.6250 H   0  0  0  0  0  0  0  0  0  0  0  0 
    2.8147    1.4287   -1.4505 H   0  0  0  0  0  0  0  0  0  0  0  0 
   -1.7534   -1.9751    2.8334 H   0  0  0  0  0  0  0  0  0  0  0  0 
   -1.2622   -1.0642    1.3658 H   0  0  0  0  0  0  0  0  0  0  0  0 
   -0.6055   -0.5971    2.9513 H   0  0  0  0  0  0  0  0  0  0  0  0 
    3.5177   -0.8080    1.2921 H   0  0  0  0  0  0  0  0  0  0  0  0 
    2.7484    0.7544    0.9416 H   0  0  0  0  0  0  0  0  0  0  0  0 
    2.8721   -2.7754    1.0301 H   0  0  0  0  0  0  0  0  0  0  0  0 
  1 11  1  0  0  0  0 
  1 13  1  0  0  0  0 
  1  7  1  0  0  0  0 
  2 14  1  0  0  0  0 
  2 16  1  0  0  0  0 
  3 18  1  0  0  0  0 
  3  5  1  0  0  0  0 
  3 17  1  0  0  0  0 
  4  8  1  0  0  0  0 
  4 10  1  0  0  0  0 
  5  4  2  0  0  0  0 
  6  7  1  0  0  0  0 
  6  9  1  0  0  0  0 
  7  3  1  0  0  0  0 
 10  2  1  0  0  0  0 
 12  1  1  0  0  0  0 
 15  2  1  0  0  0  0 
 19  8  1  0  0  0  0 
M  RAD  2   6   2   9   2 
M  END 
>  <HBA> 
6 
 
>  <HBD> 
1 
 
>  <TPSA> 
71.0 
 
>  <cid> 
51110 
 
>  <dipole> 
4.34 
 
>  <excitation_energy_1> 
3.503 
 
>  <excitation_energy_2> 
4.722 
 
>  <excitation_energy_3> 
4.908 
 
>  <excitation_energy_4> 
5.955 
 
>  <homo_energy> 
-6.618 
 
>  <homo_lumo_gap> 
5.132 
 
>  <logP> 
0.304 
 
>  <lumo_energy> 
-1.486 
 
>  <melting_point> 
46.41 
 
>  <molecular_refractivity> 
33.45 
 
>  <oscillator_strength_1> 
0.0008 
 
>  <oscillator_strength_2> 
0.0176 
 
>  <oscillator_strength_3> 
0.0054 
 
>  <oscillator_strength_4> 
0.0849 
 
>  <open_babel_can_smiles> 
CN([N][O])C/N=C(/OC)\O 
 
>  <mulliken_charges> 
19 
1   -0.314279 
2   -0.200875 
3   -0.083202 
4   0.690988 
5   -0.476211 
6   0.165362 
7   -0.171872 
8   -0.603719 
9   -0.418913 
10   -0.440151 
11   0.192164 
12   0.196081 
13   0.17254 
14   0.16461 
15   0.164142 
16   0.165808 
17   0.172446 
18   0.166432 
19   0.45865 
 
>  <lowdin_charges> 
19 
1   -0.350391 
2   -0.273268 
3   -0.147486 
4   0.198428 
5   -0.30977 
6   0.069872 
7   -0.021618 
8   -0.358142 
9   -0.300147 
10   -0.168269 
11   0.169551 
12   0.179005 
13   0.161211 
14   0.160918 
15   0.155863 
16   0.157979 
17   0.155107 
18   0.158711 
19   0.362447 
 
$$$$ 
 
