PCCDB-ID:  20365 
public computational chemistry database (PCCDB) project, http://pccdb.org 
 
 21 21  0  0  0  0  0  0  0  0999 V2000 
    0.8000    1.3323   -0.2517 C   0  0  0  0  0  0  0  0  0  0  0  0 
    1.4953    0.0478    0.2181 C   0  0  0  0  0  0  0  0  0  0  0  0 
   -0.6636    1.3741    0.2072 C   0  0  0  0  0  0  0  0  0  0  0  0 
    0.7242   -1.2149   -0.2363 C   0  0  0  0  0  0  0  0  0  0  0  0 
   -1.4396    0.1136   -0.2451 C   0  0  0  0  0  0  0  0  0  0  0  0 
   -2.6918   -2.0184    1.3374 C   0  0  0  0  0  0  0  0  0  0  0  0 
   -0.6180   -3.2897    1.3469 C   0  0  0  0  0  0  0  0  0  0  0  0 
   -0.7194   -1.1370    0.1803 C   0  0  0  0  0  0  0  0  0  0  0  0 
   -1.3187   -2.1086    0.9252 C   0  0  0  0  0  0  0  0  0  0  0  0 
   -3.8035   -1.9455    1.6721 N   0  0  0  0  0  0  0  0  0  0  0  0 
   -0.0500   -4.2454    1.6891 N   0  0  0  0  0  0  0  0  0  0  0  0 
    0.8400    1.3877   -1.3494 H   0  0  0  0  0  0  0  0  0  0  0  0 
    1.3373    2.2105    0.1257 H   0  0  0  0  0  0  0  0  0  0  0  0 
    1.5687    0.0449    1.3136 H   0  0  0  0  0  0  0  0  0  0  0  0 
    2.5195   -0.0043   -0.1684 H   0  0  0  0  0  0  0  0  0  0  0  0 
   -1.1699    2.2623   -0.1872 H   0  0  0  0  0  0  0  0  0  0  0  0 
   -0.7069    1.4439    1.3022 H   0  0  0  0  0  0  0  0  0  0  0  0 
    1.2022   -2.1216    0.1440 H   0  0  0  0  0  0  0  0  0  0  0  0 
    0.7557   -1.2664   -1.3354 H   0  0  0  0  0  0  0  0  0  0  0  0 
   -1.4963    0.1133   -1.3444 H   0  0  0  0  0  0  0  0  0  0  0  0 
   -2.4658    0.1320    0.1315 H   0  0  0  0  0  0  0  0  0  0  0  0 
  1 13  1  0  0  0  0 
  1  3  1  0  0  0  0 
  1  2  1  0  0  0  0 
  2 14  1  0  0  0  0 
  3 17  1  0  0  0  0 
  4 18  1  0  0  0  0 
  4  8  1  0  0  0  0 
  4  2  1  0  0  0  0 
  5 21  1  0  0  0  0 
  5  8  1  0  0  0  0 
  5  3  1  0  0  0  0 
  6 10  3  0  0  0  0 
  7 11  3  0  0  0  0 
  8  9  2  0  0  0  0 
  9  6  1  0  0  0  0 
  9  7  1  0  0  0  0 
 12  1  1  0  0  0  0 
 15  2  1  0  0  0  0 
 16  3  1  0  0  0  0 
 19  4  1  0  0  0  0 
 20  5  1  0  0  0  0 
M  END 
>  <HBA> 
2 
 
>  <HBD> 
0 
 
>  <TPSA> 
47.58 
 
>  <cid> 
20365 
 
>  <dipole> 
6.31 
 
>  <excitation_energy_1> 
5.225 
 
>  <excitation_energy_2> 
5.796 
 
>  <excitation_energy_3> 
5.941 
 
>  <excitation_energy_4> 
6.069 
 
>  <homo_energy> 
-7.516 
 
>  <homo_lumo_gap> 
5.369 
 
>  <logP> 
2.294 
 
>  <lumo_energy> 
-2.147 
 
>  <melting_point> 
78.46 
 
>  <molecular_refractivity> 
42.29 
 
>  <oscillator_strength_1> 
0.4654 
 
>  <oscillator_strength_2> 
0.0006 
 
>  <oscillator_strength_3> 
0.0001 
 
>  <oscillator_strength_4> 
0.0009 
 
>  <open_babel_can_smiles> 
N#CC(=C1CCCCC1)C#N 
 
>  <mulliken_charges> 
21 
1   -0.264983 
2   -0.267316 
3   -0.266969 
4   -0.353251 
5   -0.353711 
6   0.298492 
7   0.298528 
8   0.211471 
9   0.050617 
10   -0.478033 
11   -0.47803 
12   0.138021 
13   0.150281 
14   0.152817 
15   0.154045 
16   0.153957 
17   0.152715 
18   0.183283 
19   0.167275 
20   0.167451 
21   0.183339 
 
>  <lowdin_charges> 
21 
1   -0.278279 
2   -0.268759 
3   -0.270491 
4   -0.278161 
5   -0.277058 
6   -0.006747 
7   -0.005611 
8   0.08455 
9   -0.067886 
10   -0.103296 
11   -0.103333 
12   0.1402 
13   0.155293 
14   0.147901 
15   0.155384 
16   0.156949 
17   0.147891 
18   0.173422 
19   0.162976 
20   0.163038 
21   0.172016 
 
$$$$ 
 
