PCCDB-ID:  47258 
public computational chemistry database (PCCDB) project, http://pccdb.org 
 
 33 33  0  0  1  0  0  0  0  0999 V2000 
    2.9623   -1.6562    1.3724 C   0  0  0  0  0  0  0  0  0  0  0  0 
    4.2466   -1.2378    0.6491 C   0  0  0  0  0  0  0  0  0  0  0  0 
    4.0345   -0.9678   -0.8457 C   0  0  0  0  0  0  0  0  0  0  0  0 
   10.0561   -1.7661   -3.5303 C   0  0  0  0  0  0  0  0  0  0  0  0 
    9.7560   -0.8006   -2.5668 C   0  0  0  0  0  0  0  0  0  0  0  0 
    9.1544   -2.0071   -4.5678 C   0  0  0  0  0  0  0  0  0  0  0  0 
    8.5603   -0.0861   -2.6412 C   0  0  0  0  0  0  0  0  0  0  0  0 
    7.9569   -1.2925   -4.6389 C   0  0  0  0  0  0  0  0  0  0  0  0 
    5.3160   -0.5357   -1.5699 C   0  0  0  0  0  0  0  0  0  0  0  0 
    7.6402   -0.3271   -3.6712 C   0  0  0  0  0  0  0  0  0  0  0  0 
    5.1179   -0.3010   -3.0733 C   0  0  1  0  0  0  0  0  0  0  0  0 
    6.3275    0.4335   -3.7286 C   0  0  2  0  0  0  0  0  0  0  0  0 
    4.7379   -1.5474   -3.7374 N   0  0  0  0  0  0  0  0  0  0  0  0 
    5.9147    0.6820   -5.0767 O   0  0  0  0  0  0  0  0  0  0  0  0 
    3.1436   -1.8445    2.4369 H   0  0  0  0  0  0  0  0  0  0  0  0 
    2.5439   -2.5722    0.9375 H   0  0  0  0  0  0  0  0  0  0  0  0 
    2.1944   -0.8762    1.2978 H   0  0  0  0  0  0  0  0  0  0  0  0 
    5.0071   -2.0225    0.7717 H   0  0  0  0  0  0  0  0  0  0  0  0 
    4.6594   -0.3386    1.1297 H   0  0  0  0  0  0  0  0  0  0  0  0 
    3.2710   -0.1850   -0.9684 H   0  0  0  0  0  0  0  0  0  0  0  0 
    3.6337   -1.8633   -1.3350 H   0  0  0  0  0  0  0  0  0  0  0  0 
   10.9897   -2.3198   -3.4772 H   0  0  0  0  0  0  0  0  0  0  0  0 
   10.4577   -0.5963   -1.7623 H   0  0  0  0  0  0  0  0  0  0  0  0 
    9.3843   -2.7502   -5.3272 H   0  0  0  0  0  0  0  0  0  0  0  0 
    8.3393    0.6730   -1.8941 H   0  0  0  0  0  0  0  0  0  0  0  0 
    7.2655   -1.4666   -5.4577 H   0  0  0  0  0  0  0  0  0  0  0  0 
    6.0968   -1.2965   -1.4248 H   0  0  0  0  0  0  0  0  0  0  0  0 
    5.7009    0.3861   -1.1095 H   0  0  0  0  0  0  0  0  0  0  0  0 
    4.2750    0.3913   -3.2084 H   0  0  0  0  0  0  0  0  0  0  0  0 
    6.4560    1.3899   -3.1952 H   0  0  0  0  0  0  0  0  0  0  0  0 
    5.5054   -2.2171   -3.6737 H   0  0  0  0  0  0  0  0  0  0  0  0 
    4.6012   -1.3594   -4.7294 H   0  0  0  0  0  0  0  0  0  0  0  0 
    6.6685    1.0709   -5.5475 H   0  0  0  0  0  0  0  0  0  0  0  0 
  1 15  1  0  0  0  0 
  2 18  1  0  0  0  0 
  2 19  1  0  0  0  0 
  2  1  1  0  0  0  0 
  3  2  1  0  0  0  0 
  4 22  1  0  0  0  0 
  4  5  2  0  0  0  0 
  5 23  1  0  0  0  0 
  6  4  1  0  0  0  0 
  7  5  1  0  0  0  0 
  7 25  1  0  0  0  0 
  8  6  2  0  0  0  0 
  8 10  1  0  0  0  0 
  9 27  1  0  0  0  0 
  9 28  1  0  0  0  0 
  9  3  1  0  0  0  0 
 10  7  2  0  0  0  0 
 11 29  1  6  0  0  0 
 11  9  1  0  0  0  0 
 12 10  1  0  0  0  0 
 12 30  1  1  0  0  0 
 12 11  1  0  0  0  0 
 13 31  1  0  0  0  0 
 13 11  1  0  0  0  0 
 14 12  1  0  0  0  0 
 16  1  1  0  0  0  0 
 17  1  1  0  0  0  0 
 20  3  1  0  0  0  0 
 21  3  1  0  0  0  0 
 24  6  1  0  0  0  0 
 26  8  1  0  0  0  0 
 32 13  1  0  0  0  0 
 33 14  1  0  0  0  0 
M  END 
>  <HBA> 
2 
 
>  <HBD> 
2 
 
>  <TPSA> 
46.25 
 
>  <cid> 
47258 
 
>  <dipole> 
2.56 
 
>  <excitation_energy_1> 
5.088 
 
>  <excitation_energy_2> 
5.141 
 
>  <excitation_energy_3> 
5.449 
 
>  <excitation_energy_4> 
5.571 
 
>  <homo_energy> 
-6.104 
 
>  <homo_lumo_gap> 
5.891 
 
>  <logP> 
2.938 
 
>  <lumo_energy> 
-0.212 
 
>  <melting_point> 
76.7 
 
>  <molecular_refractivity> 
59.31 
 
>  <oscillator_strength_1> 
0.0546 
 
>  <oscillator_strength_2> 
0.0035 
 
>  <oscillator_strength_3> 
0.0386 
 
>  <oscillator_strength_4> 
0.0052 
 
>  <open_babel_can_smiles> 
CCCC[C@@H]([C@@H](c1ccccc1)O)N 
 
>  <mulliken_charges> 
33 
1   -0.440432 
2   -0.248155 
3   -0.242378 
4   -0.128719 
5   -0.130541 
6   -0.128657 
7   -0.180412 
8   -0.197306 
9   -0.268094 
10   0.116482 
11   0.019056 
12   0.064684 
13   -0.718532 
14   -0.639464 
15   0.138308 
16   0.142921 
17   0.140173 
18   0.12816 
19   0.123974 
20   0.12218 
21   0.157998 
22   0.131428 
23   0.132067 
24   0.131827 
25   0.129138 
26   0.135695 
27   0.133753 
28   0.120897 
29   0.141471 
30   0.113357 
31   0.294107 
32   0.312528 
33   0.392488 
 
>  <lowdin_charges> 
33 
1   -0.443437 
2   -0.273837 
3   -0.275502 
4   -0.157539 
5   -0.155553 
6   -0.156009 
7   -0.164925 
8   -0.177516 
9   -0.281437 
10   -0.029739 
11   -0.071152 
12   -0.021295 
13   -0.54292 
14   -0.465796 
15   0.145848 
16   0.147433 
17   0.146212 
18   0.13811 
19   0.135625 
20   0.136868 
21   0.15411 
22   0.15845 
23   0.159443 
24   0.158924 
25   0.157113 
26   0.161036 
27   0.143023 
28   0.137312 
29   0.147615 
30   0.131524 
31   0.252598 
32   0.259423 
33   0.345989 
 
$$$$ 
 
