PCCDB-ID:  18503 
public computational chemistry database (PCCDB) project, http://pccdb.org 
 
 22 23  0  0  0  0  0  0  0  0999 V2000 
    2.3432   -0.6915   -0.0829 C   0  0  0  0  0  0  0  0  0  0  0  0 
   -2.5325    0.6775    0.1800 C   0  0  0  0  0  0  0  0  0  0  0  0 
    1.1570   -1.3810   -0.1839 C   0  0  0  0  0  0  0  0  0  0  0  0 
   -1.3521    1.3806    0.2826 C   0  0  0  0  0  0  0  0  0  0  0  0 
    2.3460    0.6999    0.1411 C   0  0  0  0  0  0  0  0  0  0  0  0 
   -2.5285   -0.7128   -0.0455 C   0  0  0  0  0  0  0  0  0  0  0  0 
    0.6136    3.7843    0.6531 C   0  0  0  0  0  0  0  0  0  0  0  0 
   -2.0276   -3.7103   -0.5387 C   0  0  0  0  0  0  0  0  0  0  0  0 
   -0.0807   -0.6989   -0.0643 C   0  0  0  0  0  0  0  0  0  0  0  0 
   -0.1044    0.7175    0.1644 C   0  0  0  0  0  0  0  0  0  0  0  0 
    1.1578    1.3959    0.2622 C   0  0  0  0  0  0  0  0  0  0  0  0 
   -1.3289   -1.3902   -0.1665 C   0  0  0  0  0  0  0  0  0  0  0  0 
    1.2377    2.7680    0.4814 N   0  0  0  0  0  0  0  0  0  0  0  0 
   -1.2830   -2.7683   -0.3918 N   0  0  0  0  0  0  0  0  0  0  0  0 
    0.1222    4.8429    0.8294 O   0  0  0  0  0  0  0  0  0  0  0  0 
   -2.6360   -4.7060   -0.6958 O   0  0  0  0  0  0  0  0  0  0  0  0 
    3.2894   -1.2163   -0.1751 H   0  0  0  0  0  0  0  0  0  0  0  0 
   -3.4824    1.1954    0.2738 H   0  0  0  0  0  0  0  0  0  0  0  0 
    1.1475   -2.4513   -0.3567 H   0  0  0  0  0  0  0  0  0  0  0  0 
   -1.3906    2.4501    0.4565 H   0  0  0  0  0  0  0  0  0  0  0  0 
    3.2794    1.2470    0.2205 H   0  0  0  0  0  0  0  0  0  0  0  0 
   -3.4651   -1.2566   -0.1258 H   0  0  0  0  0  0  0  0  0  0  0  0 
  1  5  1  0  0  0  0 
  2 18  1  0  0  0  0 
  2  4  1  0  0  0  0 
  3  1  2  0  0  0  0 
  3  9  1  0  0  0  0 
  4 20  1  0  0  0  0 
  5 21  1  0  0  0  0 
  5 11  2  0  0  0  0 
  6  2  2  0  0  0  0 
  7 15  2  0  0  0  0 
  8 14  2  0  0  0  0 
  9 10  1  0  0  0  0 
 10 11  1  0  0  0  0 
 10  4  2  0  0  0  0 
 11 13  1  0  0  0  0 
 12  9  2  0  0  0  0 
 12  6  1  0  0  0  0 
 13  7  2  0  0  0  0 
 14 12  1  0  0  0  0 
 16  8  2  0  0  0  0 
 17  1  1  0  0  0  0 
 19  3  1  0  0  0  0 
 22  6  1  0  0  0  0 
M  END 
>  <HBA> 
4 
 
>  <HBD> 
0 
 
>  <TPSA> 
58.86 
 
>  <cid> 
18503 
 
>  <dipole> 
0.61 
 
>  <excitation_energy_1> 
3.802 
 
>  <excitation_energy_2> 
4.21 
 
>  <excitation_energy_3> 
4.719 
 
>  <excitation_energy_4> 
4.855 
 
>  <homo_energy> 
-5.951 
 
>  <homo_lumo_gap> 
4.207 
 
>  <logP> 
2.774 
 
>  <lumo_energy> 
-1.744 
 
>  <melting_point> 
165.96 
 
>  <molecular_refractivity> 
59.51 
 
>  <oscillator_strength_1> 
0.2233 
 
>  <oscillator_strength_2> 
0.008 
 
>  <oscillator_strength_3> 
0.0085 
 
>  <oscillator_strength_4> 
0.0007 
 
>  <open_babel_can_smiles> 
O=C=Nc1cccc2c1cccc2N=C=O 
 
>  <mulliken_charges> 
22 
1   -0.14467 
2   -0.1527 
3   -0.160809 
4   -0.191363 
5   -0.137424 
6   -0.147532 
7   0.587706 
8   0.591417 
9   0.080302 
10   0.132273 
11   0.201872 
12   0.240405 
13   -0.483069 
14   -0.500911 
15   -0.412608 
16   -0.390982 
17   0.142626 
18   0.14623 
19   0.155035 
20   0.150152 
21   0.150333 
22   0.143717 
 
>  <lowdin_charges> 
22 
1   -0.149159 
2   -0.14453 
3   -0.152433 
4   -0.163457 
5   -0.159573 
6   -0.173511 
7   0.180539 
8   0.194314 
9   -0.005095 
10   -0.008646 
11   0.064583 
12   0.068713 
13   -0.133465 
14   -0.143095 
15   -0.150612 
16   -0.1361 
17   0.165815 
18   0.167338 
19   0.170969 
20   0.167796 
21   0.172436 
22   0.167171 
 
$$$$ 
 
