PCCDB-ID:  40637 
public computational chemistry database (PCCDB) project, http://pccdb.org 
 
 27 27  0  0  1  0  0  0  0  0999 V2000 
    0.8139    1.4663    0.5643 C   0  0  0  0  0  0  0  0  0  0  0  0 
    5.7400    2.7575    1.7669 C   0  0  0  0  0  0  0  0  0  0  0  0 
    6.3380    2.4742   -3.2938 C   0  0  0  0  0  0  0  0  0  0  0  0 
    5.2192    3.1356   -2.7872 C   0  0  0  0  0  0  0  0  0  0  0  0 
    6.8456    1.3585   -2.6232 C   0  0  0  0  0  0  0  0  0  0  0  0 
    4.6087    2.6879   -1.6138 C   0  0  0  0  0  0  0  0  0  0  0  0 
    6.2348    0.9086   -1.4540 C   0  0  0  0  0  0  0  0  0  0  0  0 
    2.1201    0.8169    0.1767 C   0  0  0  0  0  0  0  0  0  0  0  0 
    5.1123    1.5714   -0.9404 C   0  0  0  0  0  0  0  0  0  0  0  0 
    4.4941    1.0561    0.3440 C   0  0  1  0  0  0  0  0  0  0  0  0 
    5.4860    0.5163    2.5218 N   0  0  0  0  0  0  0  0  0  0  0  0 
    5.2881    1.3993    1.5096 N   0  0  0  0  0  0  0  0  0  0  0  0 
    2.2448   -0.2474   -0.3786 O   0  0  0  0  0  0  0  0  0  0  0  0 
    5.0124   -0.5970    2.3595 O   0  0  0  0  0  0  0  0  0  0  0  0 
    3.1728    1.6010    0.5615 O   0  0  0  0  0  0  0  0  0  0  0  0 
   -0.0100    0.9304    0.0920 H   0  0  0  0  0  0  0  0  0  0  0  0 
    0.8008    2.5198    0.2701 H   0  0  0  0  0  0  0  0  0  0  0  0 
    0.6965    1.4260    1.6530 H   0  0  0  0  0  0  0  0  0  0  0  0 
    4.8881    3.4440    1.8220 H   0  0  0  0  0  0  0  0  0  0  0  0 
    6.4229    3.0942    0.9820 H   0  0  0  0  0  0  0  0  0  0  0  0 
    6.2586    2.7455    2.7271 H   0  0  0  0  0  0  0  0  0  0  0  0 
    6.8105    2.8220   -4.2084 H   0  0  0  0  0  0  0  0  0  0  0  0 
    4.8171    4.0021   -3.3053 H   0  0  0  0  0  0  0  0  0  0  0  0 
    7.7118    0.8330   -3.0156 H   0  0  0  0  0  0  0  0  0  0  0  0 
    3.7358    3.2004   -1.2229 H   0  0  0  0  0  0  0  0  0  0  0  0 
    6.6265    0.0357   -0.9370 H   0  0  0  0  0  0  0  0  0  0  0  0 
    4.4182   -0.0322    0.3335 H   0  0  0  0  0  0  0  0  0  0  0  0 
  1 18  1  0  0  0  0 
  2 19  1  0  0  0  0 
  2 21  1  0  0  0  0 
  3  4  2  0  0  0  0 
  3  5  1  0  0  0  0 
  4  6  1  0  0  0  0 
  5  7  2  0  0  0  0 
  6 25  1  0  0  0  0 
  6  9  2  0  0  0  0 
  7  9  1  0  0  0  0 
  7 26  1  0  0  0  0 
  8 15  1  0  0  0  0 
  8  1  1  0  0  0  0 
  9 10  1  0  0  0  0 
 10 27  1  6  0  0  0 
 10 15  1  0  0  0  0 
 10 12  1  0  0  0  0 
 12  2  1  0  0  0  0 
 12 11  1  0  0  0  0 
 13  8  2  0  0  0  0 
 14 11  2  0  0  0  0 
 16  1  1  0  0  0  0 
 17  1  1  0  0  0  0 
 20  2  1  0  0  0  0 
 22  3  1  0  0  0  0 
 23  4  1  0  0  0  0 
 24  5  1  0  0  0  0 
M  END 
>  <HBA> 
5 
 
>  <HBD> 
0 
 
>  <TPSA> 
58.97 
 
>  <cid> 
40637 
 
>  <dipole> 
4.67 
 
>  <excitation_energy_1> 
3.243 
 
>  <excitation_energy_2> 
4.972 
 
>  <excitation_energy_3> 
5.072 
 
>  <excitation_energy_4> 
5.172 
 
>  <homo_energy> 
-6.275 
 
>  <homo_lumo_gap> 
5.012 
 
>  <logP> 
1.861 
 
>  <lumo_energy> 
-1.263 
 
>  <melting_point> 
39.29 
 
>  <molecular_refractivity> 
54.75 
 
>  <oscillator_strength_1> 
0.0015 
 
>  <oscillator_strength_2> 
0.0119 
 
>  <oscillator_strength_3> 
0.008 
 
>  <oscillator_strength_4> 
0.0538 
 
>  <open_babel_can_smiles> 
O=NN([C@H](c1ccccc1)OC(=O)C)C 
 
>  <mulliken_charges> 
27 
1   -0.527823 
2   -0.315341 
3   -0.124116 
4   -0.129689 
5   -0.133237 
6   -0.173778 
7   -0.165664 
8   0.613207 
9   0.1216 
10   0.164254 
11   0.16862 
12   -0.237975 
13   -0.445533 
14   -0.353352 
15   -0.478907 
16   0.18839 
17   0.178557 
18   0.191586 
19   0.175174 
20   0.180607 
21   0.189728 
22   0.135711 
23   0.135224 
24   0.13863 
25   0.139322 
26   0.14507 
27   0.219733 
 
>  <lowdin_charges> 
27 
1   -0.460741 
2   -0.358123 
3   -0.152441 
4   -0.152338 
5   -0.150404 
6   -0.163967 
7   -0.155425 
8   0.207118 
9   -0.023936 
10   0.045208 
11   0.063561 
12   -0.048647 
13   -0.241795 
14   -0.243462 
15   -0.20525 
16   0.180101 
17   0.173981 
18   0.181934 
19   0.161656 
20   0.166789 
21   0.176506 
22   0.161071 
23   0.160907 
24   0.162683 
25   0.163414 
26   0.165467 
27   0.18613 
 
$$$$ 
 
