PCCDB-ID:  13128 
public computational chemistry database (PCCDB) project, http://pccdb.org 
 
 18 17  0  0  0  0  0  0  0  0999 V2000 
    0.9433   -0.1345    0.0143 C   0  0  0  0  0  0  0  0  0  0  0  0 
    3.0301   -0.9207   -1.1631 C   0  0  0  0  0  0  0  0  0  0  0  0 
    2.9421    1.3896   -0.1226 C   0  0  0  0  0  0  0  0  0  0  0  0 
    2.4826   -0.0803   -0.0011 C   0  0  0  0  0  0  0  0  0  0  0  0 
    4.4001    1.4781   -0.1850 N   0  0  0  0  0  0  0  0  0  0  0  0 
    3.0730   -0.6022    1.2551 N   0  0  0  0  0  0  0  0  0  0  0  0 
    0.5127    0.2628   -0.9133 H   0  0  0  0  0  0  0  0  0  0  0  0 
    0.5369    0.4517    0.8490 H   0  0  0  0  0  0  0  0  0  0  0  0 
    0.5949   -1.1685    0.1283 H   0  0  0  0  0  0  0  0  0  0  0  0 
    2.6485   -0.5486   -2.1203 H   0  0  0  0  0  0  0  0  0  0  0  0 
    2.7177   -1.9688   -1.0634 H   0  0  0  0  0  0  0  0  0  0  0  0 
    4.1206   -0.8738   -1.1893 H   0  0  0  0  0  0  0  0  0  0  0  0 
    2.4940    1.9485    0.7238 H   0  0  0  0  0  0  0  0  0  0  0  0 
    2.5198    1.8218   -1.0393 H   0  0  0  0  0  0  0  0  0  0  0  0 
    4.7699    0.9757    0.6217 H   0  0  0  0  0  0  0  0  0  0  0  0 
    4.6956    2.4487   -0.1022 H   0  0  0  0  0  0  0  0  0  0  0  0 
    2.9224   -1.6093    1.3106 H   0  0  0  0  0  0  0  0  0  0  0  0 
    2.5762   -0.2012    2.0520 H   0  0  0  0  0  0  0  0  0  0  0  0 
  1  9  1  0  0  0  0 
  1  8  1  0  0  0  0 
  2 11  1  0  0  0  0 
  2  4  1  0  0  0  0 
  3  4  1  0  0  0  0 
  3 13  1  0  0  0  0 
  4  1  1  0  0  0  0 
  4  6  1  0  0  0  0 
  5  3  1  0  0  0  0 
  5 16  1  0  0  0  0 
  5 15  1  0  0  0  0 
  6 17  1  0  0  0  0 
  6 18  1  0  0  0  0 
  7  1  1  0  0  0  0 
 10  2  1  0  0  0  0 
 12  2  1  0  0  0  0 
 14  3  1  0  0  0  0 
M  END 
>  <HBA> 
2 
 
>  <HBD> 
2 
 
>  <TPSA> 
52.04 
 
>  <cid> 
13128 
 
>  <dipole> 
1.94 
 
>  <excitation_energy_1> 
5.398 
 
>  <excitation_energy_2> 
5.808 
 
>  <excitation_energy_3> 
6.015 
 
>  <excitation_energy_4> 
6.313 
 
>  <homo_energy> 
-5.927 
 
>  <homo_lumo_gap> 
7.766 
 
>  <logP> 
1.083 
 
>  <lumo_energy> 
1.84 
 
>  <melting_point> 
94.29 
 
>  <molecular_refractivity> 
26.79 
 
>  <oscillator_strength_1> 
0.0015 
 
>  <oscillator_strength_2> 
0.0321 
 
>  <oscillator_strength_3> 
0.0159 
 
>  <oscillator_strength_4> 
0.008 
 
>  <open_babel_can_smiles> 
NCC(N)(C)C 
 
>  <mulliken_charges> 
18 
1   -0.446308 
2   -0.434095 
3   -0.1079 
4   0.177027 
5   -0.726762 
6   -0.724014 
7   0.141236 
8   0.130781 
9   0.135137 
10   0.139145 
11   0.122373 
12   0.178891 
13   0.095775 
14   0.131205 
15   0.314662 
16   0.289871 
17   0.294169 
18   0.288808 
 
>  <lowdin_charges> 
18 
1   -0.458065 
2   -0.441882 
3   -0.2085 
4   0.059698 
5   -0.561655 
6   -0.549944 
7   0.149997 
8   0.143465 
9   0.145314 
10   0.151001 
11   0.13813 
12   0.166554 
13   0.111893 
14   0.140217 
15   0.260933 
16   0.250847 
17   0.251938 
18   0.250058 
 
$$$$ 
 
