PCCDB-ID:  72162 
public computational chemistry database (PCCDB) project, http://pccdb.org 
 
 31 31  0  0  0  0  0  0  0  0999 V2000 
    2.7292   -0.6682    0.5348 C   0  0  0  0  0  0  0  0  0  0  0  0 
    1.4337   -0.2470    1.2636 C   0  0  0  0  0  0  0  0  0  0  0  0 
    1.3486    5.4281    1.9062 C   0  0  0  0  0  0  0  0  0  0  0  0 
    2.5529    6.0455    2.2263 C   0  0  0  0  0  0  0  0  0  0  0  0 
    1.2532    4.0458    1.7575 C   0  0  0  0  0  0  0  0  0  0  0  0 
    3.8694   -1.0151    1.5154 C   0  0  0  0  0  0  0  0  0  0  0  0 
    1.1937    1.2577    1.3128 C   0  0  0  0  0  0  0  0  0  0  0  0 
    4.9102    3.1068    2.3290 C   0  0  0  0  0  0  0  0  0  0  0  0 
    3.6493    3.8487    2.2391 C   0  0  0  0  0  0  0  0  0  0  0  0 
    3.6930    5.2575    2.3894 C   0  0  0  0  0  0  0  0  0  0  0  0 
    2.3913    3.2463    1.9358 C   0  0  0  0  0  0  0  0  0  0  0  0 
    5.1667   -1.2777    0.7561 C   0  0  0  0  0  0  0  0  0  0  0  0 
    5.0484    1.8938    2.2181 O   0  0  0  0  0  0  0  0  0  0  0  0 
    4.8961    5.8173    2.6975 O   0  0  0  0  0  0  0  0  0  0  0  0 
    5.3504   -2.2834    0.1073 O   0  0  0  0  0  0  0  0  0  0  0  0 
    6.0982   -0.3016    0.7927 O   0  0  0  0  0  0  0  0  0  0  0  0 
    2.3676    1.9032    1.8311 O   0  0  0  0  0  0  0  0  0  0  0  0 
    3.0575    0.1413   -0.1294 H   0  0  0  0  0  0  0  0  0  0  0  0 
    2.5471   -1.5398   -0.1020 H   0  0  0  0  0  0  0  0  0  0  0  0 
    1.4318   -0.6451    2.2859 H   0  0  0  0  0  0  0  0  0  0  0  0 
    0.5541   -0.6768    0.7667 H   0  0  0  0  0  0  0  0  0  0  0  0 
    0.4584    6.0366    1.7721 H   0  0  0  0  0  0  0  0  0  0  0  0 
    2.6123    7.1246    2.3463 H   0  0  0  0  0  0  0  0  0  0  0  0 
    0.2977    3.6025    1.5116 H   0  0  0  0  0  0  0  0  0  0  0  0 
    3.6108   -1.9360    2.0494 H   0  0  0  0  0  0  0  0  0  0  0  0 
    3.9865   -0.2103    2.2431 H   0  0  0  0  0  0  0  0  0  0  0  0 
    0.3310    1.4821    1.9537 H   0  0  0  0  0  0  0  0  0  0  0  0 
    0.9925    1.6549    0.3084 H   0  0  0  0  0  0  0  0  0  0  0  0 
    5.7972    3.7407    2.4962 H   0  0  0  0  0  0  0  0  0  0  0  0 
    4.7951    6.7810    2.7401 H   0  0  0  0  0  0  0  0  0  0  0  0 
    5.8107    0.4424    1.3616 H   0  0  0  0  0  0  0  0  0  0  0  0 
  1  2  1  0  0  0  0 
  1  6  1  0  0  0  0 
  2  7  1  0  0  0  0 
  2 20  1  0  0  0  0 
  3  4  1  0  0  0  0 
  4 23  1  0  0  0  0 
  4 10  2  0  0  0  0 
  5  3  2  0  0  0  0 
  5 11  1  0  0  0  0 
  6 25  1  0  0  0  0 
  6 26  1  0  0  0  0 
  7 17  1  0  0  0  0 
  7 27  1  0  0  0  0 
  8 29  1  0  0  0  0 
  9  8  1  0  0  0  0 
  9 10  1  0  0  0  0 
 10 14  1  0  0  0  0 
 11  9  2  0  0  0  0 
 12 16  1  0  0  0  0 
 12  6  1  0  0  0  0 
 13  8  2  0  0  0  0 
 14 30  1  0  0  0  0 
 15 12  2  0  0  0  0 
 16 31  1  0  0  0  0 
 17 11  1  0  0  0  0 
 18  1  1  0  0  0  0 
 19  1  1  0  0  0  0 
 21  2  1  0  0  0  0 
 22  3  1  0  0  0  0 
 24  5  1  0  0  0  0 
 28  7  1  0  0  0  0 
M  END 
>  <HBA> 
5 
 
>  <HBD> 
2 
 
>  <TPSA> 
83.83 
 
>  <cid> 
72162 
 
>  <dipole> 
10.56 
 
>  <excitation_energy_1> 
3.568 
 
>  <excitation_energy_2> 
3.9 
 
>  <excitation_energy_3> 
4.024 
 
>  <excitation_energy_4> 
4.726 
 
>  <homo_energy> 
-6.384 
 
>  <homo_lumo_gap> 
4.389 
 
>  <logP> 
1.838 
 
>  <lumo_energy> 
-1.995 
 
>  <melting_point> 
158.67 
 
>  <molecular_refractivity> 
61.34 
 
>  <oscillator_strength_1> 
0.0006 
 
>  <oscillator_strength_2> 
0.0701 
 
>  <oscillator_strength_3> 
0.0028 
 
>  <oscillator_strength_4> 
0.2099 
 
>  <open_babel_can_smiles> 
O=Cc1c(OCCCCC(=O)O)cccc1O 
 
>  <mulliken_charges> 
31 
1   -0.259973 
2   -0.288272 
3   -0.129428 
4   -0.195487 
5   -0.198874 
6   -0.376644 
7   -0.050485 
8   0.202155 
9   -0.00266 
10   0.307757 
11   0.348504 
12   0.569931 
13   -0.437151 
14   -0.634825 
15   -0.465245 
16   -0.599832 
17   -0.487381 
18   0.150062 
19   0.163146 
20   0.155998 
21   0.146545 
22   0.149489 
23   0.129605 
24   0.146402 
25   0.158861 
26   0.181695 
27   0.147137 
28   0.150389 
29   0.150574 
30   0.420328 
31   0.44768 
 
>  <lowdin_charges> 
31 
1   -0.269993 
2   -0.281842 
3   -0.109058 
4   -0.232848 
5   -0.232871 
6   -0.32273 
7   -0.12786 
8   0.05743 
9   -0.113968 
10   0.128831 
11   0.140853 
12   0.189966 
13   -0.259373 
14   -0.359963 
15   -0.270888 
16   -0.368992 
17   -0.166804 
18   0.150186 
19   0.1582 
20   0.152705 
21   0.156251 
22   0.168611 
23   0.158167 
24   0.170449 
25   0.161347 
26   0.166276 
27   0.144175 
28   0.142827 
29   0.147396 
30   0.36424 
31   0.359277 
 
$$$$ 
 
