PCCDB-ID:  54677 
public computational chemistry database (PCCDB) project, http://pccdb.org 
 
 30 33  0  0  1  0  0  0  0  0999 V2000 
    2.5673   -0.7721    0.4035 C   0  0  0  0  0  0  0  0  0  0  0  0 
    1.4625   -1.6546    0.4212 C   0  0  0  0  0  0  0  0  0  0  0  0 
    2.4305    0.6010    0.1974 C   0  0  0  0  0  0  0  0  0  0  0  0 
   -2.3087   -2.0648    2.7854 C   0  0  0  0  0  0  0  0  0  0  0  0 
   -1.0713   -2.8765    2.4059 C   0  0  0  0  0  0  0  0  0  0  0  0 
   -2.4736    0.1968   -0.2504 C   0  0  0  0  0  0  0  0  0  0  0  0 
   -0.7871    2.2568   -0.3197 C   0  0  0  0  0  0  0  0  0  0  0  0 
   -1.1696    0.9457   -0.1947 C   0  0  0  0  0  0  0  0  0  0  0  0 
    0.1739   -1.1711    0.2230 C   0  0  0  0  0  0  0  0  0  0  0  0 
    1.1317    1.0886    0.0019 C   0  0  0  0  0  0  0  0  0  0  0  0 
   -2.3664   -1.1249    0.5495 C   0  0  1  0  0  0  0  0  0  0  0  0 
    0.0333    0.2044    0.0114 C   0  0  0  0  0  0  0  0  0  0  0  0 
   -1.1111   -1.9858    0.1842 C   0  0  2  0  0  0  0  0  0  0  0  0 
   -2.4463   -0.8407    1.9890 N   0  0  0  0  0  0  0  0  0  0  0  0 
    0.6010    2.3473   -0.2093 N   0  0  0  0  0  0  0  0  0  0  0  0 
   -1.0579   -3.1583    1.0052 O   0  0  0  0  0  0  0  0  0  0  0  0 
    3.5631   -1.1787    0.5594 H   0  0  0  0  0  0  0  0  0  0  0  0 
    1.6201   -2.7150    0.5954 H   0  0  0  0  0  0  0  0  0  0  0  0 
    3.2993    1.2537    0.1937 H   0  0  0  0  0  0  0  0  0  0  0  0 
   -2.2838   -1.7982    3.8493 H   0  0  0  0  0  0  0  0  0  0  0  0 
   -3.2054   -2.6764    2.6180 H   0  0  0  0  0  0  0  0  0  0  0  0 
   -1.0612   -3.8529    2.9031 H   0  0  0  0  0  0  0  0  0  0  0  0 
   -0.1583   -2.3325    2.6937 H   0  0  0  0  0  0  0  0  0  0  0  0 
   -2.7302   -0.0426   -1.2929 H   0  0  0  0  0  0  0  0  0  0  0  0 
   -3.3097    0.7751    0.1588 H   0  0  0  0  0  0  0  0  0  0  0  0 
   -1.3745    3.1505   -0.4824 H   0  0  0  0  0  0  0  0  0  0  0  0 
   -3.2412   -1.7442    0.3107 H   0  0  0  0  0  0  0  0  0  0  0  0 
   -1.2496   -2.3845   -0.8302 H   0  0  0  0  0  0  0  0  0  0  0  0 
   -1.6975   -0.1921    2.2355 H   0  0  0  0  0  0  0  0  0  0  0  0 
    1.1242    3.2078   -0.2496 H   0  0  0  0  0  0  0  0  0  0  0  0 
  1  2  1  0  0  0  0 
  1 17  1  0  0  0  0 
  2 18  1  0  0  0  0 
  3  1  2  0  0  0  0 
  4 20  1  0  0  0  0 
  5 23  1  0  0  0  0 
  5  4  1  0  0  0  0 
  5 22  1  0  0  0  0 
  6  8  1  0  0  0  0 
  6 25  1  0  0  0  0 
  6 11  1  0  0  0  0 
  7 15  1  0  0  0  0 
  7  8  2  0  0  0  0 
  8 12  1  0  0  0  0 
  9  2  2  0  0  0  0 
 10 12  2  0  0  0  0 
 10  3  1  0  0  0  0 
 11 27  1  6  0  0  0 
 11 14  1  0  0  0  0 
 12  9  1  0  0  0  0 
 13 28  1  6  0  0  0 
 13  9  1  0  0  0  0 
 13 11  1  0  0  0  0 
 13 16  1  0  0  0  0 
 14 29  1  0  0  0  0 
 14  4  1  0  0  0  0 
 15 10  1  0  0  0  0 
 16  5  1  0  0  0  0 
 19  3  1  0  0  0  0 
 21  4  1  0  0  0  0 
 24  6  1  0  0  0  0 
 26  7  1  0  0  0  0 
 30 15  1  0  0  0  0 
M  END 
>  <HBA> 
2 
 
>  <HBD> 
2 
 
>  <TPSA> 
37.05 
 
>  <cid> 
54677 
 
>  <dipole> 
3.08 
 
>  <excitation_energy_1> 
4.385 
 
>  <excitation_energy_2> 
4.614 
 
>  <excitation_energy_3> 
4.683 
 
>  <excitation_energy_4> 
4.759 
 
>  <homo_energy> 
-5.29 
 
>  <homo_lumo_gap> 
5.083 
 
>  <logP> 
2.082 
 
>  <lumo_energy> 
-0.207 
 
>  <melting_point> 
166.0 
 
>  <molecular_refractivity> 
66.23 
 
>  <oscillator_strength_1> 
0.0633 
 
>  <oscillator_strength_2> 
0.0337 
 
>  <oscillator_strength_3> 
0.0017 
 
>  <oscillator_strength_4> 
0.0105 
 
>  <open_babel_can_smiles> 
C1CN[C@@H]2[C@H](O1)c1cccc3c1c(C2)c[nH]3 
 
>  <mulliken_charges> 
30 
1   -0.149081 
2   -0.215222 
3   -0.167968 
4   -0.153329 
5   -0.038293 
6   -0.350035 
7   -0.028654 
8   0.084686 
9   0.088833 
10   0.333568 
11   -0.017244 
12   -0.003857 
13   0.067443 
14   -0.543361 
15   -0.705933 
16   -0.486322 
17   0.122485 
18   0.133048 
19   0.120507 
20   0.135873 
21   0.145867 
22   0.138169 
23   0.126827 
24   0.149918 
25   0.158159 
26   0.148434 
27   0.134941 
28   0.145056 
29   0.299809 
30   0.325677 
 
>  <lowdin_charges> 
30 
1   -0.161129 
2   -0.179893 
3   -0.192057 
4   -0.220545 
5   -0.151903 
6   -0.273511 
7   -0.137649 
8   -0.067271 
9   -0.030457 
10   0.031175 
11   -0.07747 
12   -0.049057 
13   -0.015218 
14   -0.3603 
15   -0.207151 
16   -0.275223 
17   0.155145 
18   0.159954 
19   0.156068 
20   0.145972 
21   0.145452 
22   0.148505 
23   0.131343 
24   0.153175 
25   0.161987 
26   0.1648 
27   0.1464 
28   0.153015 
29   0.255368 
30   0.290478 
 
$$$$ 
 
