PCCDB-ID:  25667 
public computational chemistry database (PCCDB) project, http://pccdb.org 
 
 28 29  0  0  1  0  0  0  0  0999 V2000 
    1.0185   -0.0294   -0.0014 C   0  0  0  0  0  0  0  0  0  0  0  0 
    7.5678    3.7882    0.0044 C   0  0  0  0  0  0  0  0  0  0  0  0 
    3.2524   -1.2376   -0.0054 C   0  0  0  0  0  0  0  0  0  0  0  0 
    7.5226    1.2783   -0.4337 C   0  0  0  0  0  0  0  0  0  0  0  0 
    4.6449   -1.2253   -0.0179 C   0  0  0  0  0  0  0  0  0  0  0  0 
    6.8846   -0.0515   -0.0129 C   0  0  0  0  0  0  0  0  0  0  0  0 
    3.2543    1.1575   -0.0412 C   0  0  0  0  0  0  0  0  0  0  0  0 
    5.3730    2.5246   -0.1234 C   0  0  0  0  0  0  0  0  0  0  0  0 
    2.5302   -0.0384   -0.0164 C   0  0  0  0  0  0  0  0  0  0  0  0 
    6.8543    2.4613    0.2822 C   0  0  2  0  0  0  0  0  0  0  0  0 
    5.3661   -0.0256   -0.0418 C   0  0  0  0  0  0  0  0  0  0  0  0 
    4.6540    1.1872   -0.0576 C   0  0  0  0  0  0  0  0  0  0  0  0 
    0.6143   -1.0461    0.0371 H   0  0  0  0  0  0  0  0  0  0  0  0 
    0.6095    0.4569   -0.8961 H   0  0  0  0  0  0  0  0  0  0  0  0 
    0.6278    0.5170    0.8663 H   0  0  0  0  0  0  0  0  0  0  0  0 
    8.6114    3.7549    0.3390 H   0  0  0  0  0  0  0  0  0  0  0  0 
    7.0766    4.6217    0.5211 H   0  0  0  0  0  0  0  0  0  0  0  0 
    7.5687    4.0169   -1.0693 H   0  0  0  0  0  0  0  0  0  0  0  0 
    2.7205   -2.1864    0.0132 H   0  0  0  0  0  0  0  0  0  0  0  0 
    7.4227    1.4152   -1.5208 H   0  0  0  0  0  0  0  0  0  0  0  0 
    8.5985    1.2577   -0.2171 H   0  0  0  0  0  0  0  0  0  0  0  0 
    5.1883   -2.1686   -0.0074 H   0  0  0  0  0  0  0  0  0  0  0  0 
    7.2172   -0.2956    1.0079 H   0  0  0  0  0  0  0  0  0  0  0  0 
    7.2521   -0.8680   -0.6481 H   0  0  0  0  0  0  0  0  0  0  0  0 
    2.7127    2.1032   -0.0490 H   0  0  0  0  0  0  0  0  0  0  0  0 
    5.3124    2.9113   -1.1538 H   0  0  0  0  0  0  0  0  0  0  0  0 
    4.8438    3.2577    0.5000 H   0  0  0  0  0  0  0  0  0  0  0  0 
    6.9027    2.2663    1.3653 H   0  0  0  0  0  0  0  0  0  0  0  0 
  1 13  1  0  0  0  0 
  1 15  1  0  0  0  0 
  2 10  1  0  0  0  0 
  2 16  1  0  0  0  0 
  2 17  1  0  0  0  0 
  3 19  1  0  0  0  0 
  4 21  1  0  0  0  0 
  4  6  1  0  0  0  0 
  4 10  1  0  0  0  0 
  5 22  1  0  0  0  0 
  5  3  2  0  0  0  0 
  6 23  1  0  0  0  0 
  7  9  2  0  0  0  0 
  8 12  1  0  0  0  0 
  8 10  1  0  0  0  0 
  8 27  1  0  0  0  0 
  9  3  1  0  0  0  0 
  9  1  1  0  0  0  0 
 10 28  1  1  0  0  0 
 11  5  1  0  0  0  0 
 11  6  1  0  0  0  0 
 12 11  2  0  0  0  0 
 12  7  1  0  0  0  0 
 14  1  1  0  0  0  0 
 18  2  1  0  0  0  0 
 20  4  1  0  0  0  0 
 24  6  1  0  0  0  0 
 25  7  1  0  0  0  0 
 26  8  1  0  0  0  0 
M  END 
>  <HBA> 
0 
 
>  <HBD> 
0 
 
>  <TPSA> 
0.0 
 
>  <cid> 
25667 
 
>  <dipole> 
0.34 
 
>  <excitation_energy_1> 
5.025 
 
>  <excitation_energy_2> 
5.549 
 
>  <excitation_energy_3> 
5.733 
 
>  <excitation_energy_4> 
5.93 
 
>  <homo_energy> 
-6.008 
 
>  <homo_lumo_gap> 
6.139 
 
>  <logP> 
3.12 
 
>  <lumo_energy> 
0.131 
 
>  <melting_point> 
37.41 
 
>  <molecular_refractivity> 
53.65 
 
>  <oscillator_strength_1> 
0.021 
 
>  <oscillator_strength_2> 
0.0258 
 
>  <oscillator_strength_3> 
0.0047 
 
>  <oscillator_strength_4> 
0.0156 
 
>  <open_babel_can_smiles> 
C[C@@H]1CCc2c(C1)cc(cc2)C 
 
>  <mulliken_charges> 
28 
1   -0.530604 
2   -0.446305 
3   -0.184785 
4   -0.262163 
5   -0.187685 
6   -0.34628 
7   -0.246534 
8   -0.338566 
9   0.184086 
10   -0.079269 
11   0.11965 
12   0.124827 
13   0.152236 
14   0.159594 
15   0.15925 
16   0.140878 
17   0.140528 
18   0.138971 
19   0.115747 
20   0.132282 
21   0.128575 
22   0.115964 
23   0.148322 
24   0.14252 
25   0.108821 
26   0.144582 
27   0.140401 
28   0.124956 
 
>  <lowdin_charges> 
28 
1   -0.443191 
2   -0.441465 
3   -0.173449 
4   -0.272429 
5   -0.164259 
6   -0.276381 
7   -0.175435 
8   -0.276296 
9   -0.001846 
10   -0.121787 
11   -0.019864 
12   -0.01356 
13   0.154472 
14   0.159366 
15   0.159435 
16   0.147399 
17   0.149331 
18   0.144351 
19   0.151801 
20   0.137937 
21   0.141303 
22   0.151792 
23   0.149072 
24   0.151651 
25   0.14884 
26   0.147814 
27   0.150772 
28   0.134625 
 
$$$$ 
 
