PCCDB-ID:  55152 
public computational chemistry database (PCCDB) project, http://pccdb.org 
 
 34 35  0  0  0  0  0  0  0  0999 V2000 
    3.6213   -1.1689    0.7130 C   0  0  0  0  0  0  0  0  0  0  0  0 
    6.7364   -0.2479   -1.1566 C   0  0  0  0  0  0  0  0  0  0  0  0 
    4.9368   -1.9330    0.8780 C   0  0  0  0  0  0  0  0  0  0  0  0 
    7.1371   -1.0139    0.1074 C   0  0  0  0  0  0  0  0  0  0  0  0 
    9.9286    4.4560    2.4453 C   0  0  0  0  0  0  0  0  0  0  0  0 
   10.2103    4.3729    3.8128 C   0  0  0  0  0  0  0  0  0  0  0  0 
    9.1018    3.5025    1.8560 C   0  0  0  0  0  0  0  0  0  0  0  0 
    9.6830    3.3384    4.5860 C   0  0  0  0  0  0  0  0  0  0  0  0 
    7.6410    1.4617    2.0682 C   0  0  0  0  0  0  0  0  0  0  0  0 
    7.9653    0.1711    4.1336 C   0  0  0  0  0  0  0  0  0  0  0  0 
    8.5661    2.4480    2.6093 C   0  0  0  0  0  0  0  0  0  0  0  0 
    7.3160    0.3661    2.7804 C   0  0  0  0  0  0  0  0  0  0  0  0 
    8.8762    2.3726    3.9841 C   0  0  0  0  0  0  0  0  0  0  0  0 
    6.2332   -0.6092    2.4282 C   0  0  0  0  0  0  0  0  0  0  0  0 
    6.0915   -1.0548    1.1340 N   0  0  0  0  0  0  0  0  0  0  0  0 
    5.4579   -0.9724    3.3171 O   0  0  0  0  0  0  0  0  0  0  0  0 
    8.3323    1.4034    4.7731 O   0  0  0  0  0  0  0  0  0  0  0  0 
    2.8007   -1.8705    0.5221 H   0  0  0  0  0  0  0  0  0  0  0  0 
    3.6707   -0.4631   -0.1234 H   0  0  0  0  0  0  0  0  0  0  0  0 
    3.3909   -0.6147    1.6265 H   0  0  0  0  0  0  0  0  0  0  0  0 
    5.8608   -0.6967   -1.6379 H   0  0  0  0  0  0  0  0  0  0  0  0 
    7.5594   -0.2620   -1.8804 H   0  0  0  0  0  0  0  0  0  0  0  0 
    6.4949    0.7961   -0.9301 H   0  0  0  0  0  0  0  0  0  0  0  0 
    5.1601   -2.5068   -0.0272 H   0  0  0  0  0  0  0  0  0  0  0  0 
    4.8497   -2.6361    1.7121 H   0  0  0  0  0  0  0  0  0  0  0  0 
    8.0331   -0.5743    0.5462 H   0  0  0  0  0  0  0  0  0  0  0  0 
    7.3917   -2.0493   -0.1623 H   0  0  0  0  0  0  0  0  0  0  0  0 
   10.3431    5.2627    1.8483 H   0  0  0  0  0  0  0  0  0  0  0  0 
   10.8479    5.1171    4.2823 H   0  0  0  0  0  0  0  0  0  0  0  0 
    8.8594    3.5673    0.7975 H   0  0  0  0  0  0  0  0  0  0  0  0 
    9.8863    3.2622    5.6494 H   0  0  0  0  0  0  0  0  0  0  0  0 
    7.1816    1.6671    1.1046 H   0  0  0  0  0  0  0  0  0  0  0  0 
    8.8675   -0.4571    4.0412 H   0  0  0  0  0  0  0  0  0  0  0  0 
    7.2672   -0.3193    4.8124 H   0  0  0  0  0  0  0  0  0  0  0  0 
  1  3  1  0  0  0  0 
  1 20  1  0  0  0  0 
  2 23  1  0  0  0  0 
  2  4  1  0  0  0  0 
  3 15  1  0  0  0  0 
  3 25  1  0  0  0  0 
  4 26  1  0  0  0  0 
  4 15  1  0  0  0  0 
  5  6  1  0  0  0  0 
  6 29  1  0  0  0  0 
  6  8  2  0  0  0  0 
  7  5  2  0  0  0  0 
  7 11  1  0  0  0  0 
  8 31  1  0  0  0  0 
  9 11  1  0  0  0  0 
  9 12  2  0  0  0  0 
 10 17  1  0  0  0  0 
 10 34  1  0  0  0  0 
 11 13  2  0  0  0  0 
 12 10  1  0  0  0  0 
 13  8  1  0  0  0  0 
 13 17  1  0  0  0  0 
 14 12  1  0  0  0  0 
 14 16  2  0  0  0  0 
 15 14  1  0  0  0  0 
 18  1  1  0  0  0  0 
 19  1  1  0  0  0  0 
 21  2  1  0  0  0  0 
 22  2  1  0  0  0  0 
 24  3  1  0  0  0  0 
 27  4  1  0  0  0  0 
 28  5  1  0  0  0  0 
 30  7  1  0  0  0  0 
 32  9  1  0  0  0  0 
 33 10  1  0  0  0  0 
M  END 
>  <HBA> 
3 
 
>  <HBD> 
0 
 
>  <TPSA> 
29.54 
 
>  <cid> 
55152 
 
>  <dipole> 
4.11 
 
>  <excitation_energy_1> 
3.703 
 
>  <excitation_energy_2> 
4.382 
 
>  <excitation_energy_3> 
4.521 
 
>  <excitation_energy_4> 
4.605 
 
>  <homo_energy> 
-5.679 
 
>  <homo_lumo_gap> 
4.357 
 
>  <logP> 
2.331 
 
>  <lumo_energy> 
-1.322 
 
>  <melting_point> 
79.65 
 
>  <molecular_refractivity> 
68.04 
 
>  <oscillator_strength_1> 
0.1768 
 
>  <oscillator_strength_2> 
0.0653 
 
>  <oscillator_strength_3> 
0.0605 
 
>  <oscillator_strength_4> 
0.0303 
 
>  <open_babel_can_smiles> 
CCN(C(=O)C1=Cc2c(OC1)cccc2)CC 
 
>  <mulliken_charges> 
34 
1   -0.445885 
2   -0.449238 
3   -0.136588 
4   -0.15394 
5   -0.135544 
6   -0.132902 
7   -0.20466 
8   -0.177768 
9   -0.163871 
10   -0.093108 
11   0.117329 
12   -0.00318 
13   0.32058 
14   0.537908 
15   -0.412273 
16   -0.526484 
17   -0.523495 
18   0.143695 
19   0.14271 
20   0.181717 
21   0.157286 
22   0.15092 
23   0.157864 
24   0.136373 
25   0.176125 
26   0.165714 
27   0.149251 
28   0.128663 
29   0.133725 
30   0.127684 
31   0.1418 
32   0.146927 
33   0.144741 
34   0.197926 
 
>  <lowdin_charges> 
34 
1   -0.452168 
2   -0.453652 
3   -0.193503 
4   -0.198297 
5   -0.177797 
6   -0.142639 
7   -0.148624 
8   -0.182371 
9   -0.14643 
10   -0.120358 
11   -0.047806 
12   -0.058678 
13   0.107047 
14   0.157111 
15   -0.105516 
16   -0.316414 
17   -0.195231 
18   0.153732 
19   0.147385 
20   0.167941 
21   0.154961 
22   0.156978 
23   0.150481 
24   0.1449 
25   0.164418 
26   0.162373 
27   0.143022 
28   0.15968 
29   0.16176 
30   0.155015 
31   0.167089 
32   0.163475 
33   0.141335 
34   0.18078 
 
$$$$ 
 
