PCCDB-ID:  61041 
public computational chemistry database (PCCDB) project, http://pccdb.org 
 
 25 25  0  0  0  0  0  0  0  0999 V2000 
    0.8079    0.1517   -0.0438 C   0  0  0  0  0  0  0  0  0  0  0  0 
    4.8794   -1.6982   -1.3498 C   0  0  0  0  0  0  0  0  0  0  0  0 
    5.1390   -2.2897    1.0873 C   0  0  0  0  0  0  0  0  0  0  0  0 
    4.3845    1.2565   -0.1711 C   0  0  0  0  0  0  0  0  0  0  0  0 
    3.0581    1.1736   -0.3544 C   0  0  0  0  0  0  0  0  0  0  0  0 
    5.1330    0.1017    0.4221 C   0  0  0  0  0  0  0  0  0  0  0  0 
    2.2161   -2.4704    0.3449 C   0  0  0  0  0  0  0  0  0  0  0  0 
    2.3090   -0.0430   -0.0276 C   0  0  0  0  0  0  0  0  0  0  0  0 
    2.9756   -1.2182    0.1983 C   0  0  0  0  0  0  0  0  0  0  0  0 
    4.5145   -1.2830    0.0958 C   0  0  0  0  0  0  0  0  0  0  0  0 
    2.6725   -3.6000    0.2268 O   0  0  0  0  0  0  0  0  0  0  0  0 
    0.5435    1.0168    0.5771 H   0  0  0  0  0  0  0  0  0  0  0  0 
    0.2276   -0.7007    0.3060 H   0  0  0  0  0  0  0  0  0  0  0  0 
    0.4743    0.3861   -1.0638 H   0  0  0  0  0  0  0  0  0  0  0  0 
    5.9691   -1.7698   -1.4626 H   0  0  0  0  0  0  0  0  0  0  0  0 
    4.5092   -0.9687   -2.0788 H   0  0  0  0  0  0  0  0  0  0  0  0 
    4.4465   -2.6748   -1.5834 H   0  0  0  0  0  0  0  0  0  0  0  0 
    6.2325   -2.2153    1.0375 H   0  0  0  0  0  0  0  0  0  0  0  0 
    4.8464   -3.3144    0.8612 H   0  0  0  0  0  0  0  0  0  0  0  0 
    4.8373   -2.0645    2.1175 H   0  0  0  0  0  0  0  0  0  0  0  0 
    4.9177    2.1787   -0.3932 H   0  0  0  0  0  0  0  0  0  0  0  0 
    2.4934    2.0250   -0.7290 H   0  0  0  0  0  0  0  0  0  0  0  0 
    5.1583    0.2399    1.5165 H   0  0  0  0  0  0  0  0  0  0  0  0 
    6.1813    0.1069    0.0981 H   0  0  0  0  0  0  0  0  0  0  0  0 
    1.1372   -2.3571    0.5647 H   0  0  0  0  0  0  0  0  0  0  0  0 
  1  8  1  0  0  0  0 
  1 13  1  0  0  0  0 
  1 12  1  0  0  0  0 
  2 10  1  0  0  0  0 
  3 20  1  0  0  0  0 
  4  6  1  0  0  0  0 
  5  4  2  0  0  0  0 
  5  8  1  0  0  0  0 
  6 23  1  0  0  0  0 
  7 25  1  0  0  0  0 
  8  9  2  0  0  0  0 
  9  7  1  0  0  0  0 
 10  9  1  0  0  0  0 
 10  6  1  0  0  0  0 
 10  3  1  0  0  0  0 
 11  7  2  0  0  0  0 
 14  1  1  0  0  0  0 
 15  2  1  0  0  0  0 
 16  2  1  0  0  0  0 
 17  2  1  0  0  0  0 
 18  3  1  0  0  0  0 
 19  3  1  0  0  0  0 
 21  4  1  0  0  0  0 
 22  5  1  0  0  0  0 
 24  6  1  0  0  0  0 
M  END 
>  <HBA> 
1 
 
>  <HBD> 
0 
 
>  <TPSA> 
17.07 
 
>  <cid> 
61041 
 
>  <dipole> 
3.71 
 
>  <excitation_energy_1> 
3.303 
 
>  <excitation_energy_2> 
4.04 
 
>  <excitation_energy_3> 
5.551 
 
>  <excitation_energy_4> 
5.592 
 
>  <homo_energy> 
-6.133 
 
>  <homo_lumo_gap> 
4.362 
 
>  <logP> 
2.488 
 
>  <lumo_energy> 
-1.771 
 
>  <melting_point> 
70.19 
 
>  <molecular_refractivity> 
47.06 
 
>  <oscillator_strength_1> 
0.0002 
 
>  <oscillator_strength_2> 
0.2263 
 
>  <oscillator_strength_3> 
0.0068 
 
>  <oscillator_strength_4> 
0.0045 
 
>  <open_babel_can_smiles> 
O=CC1=C(C)C=CCC1(C)C 
 
>  <mulliken_charges> 
25 
1   -0.53375 
2   -0.451247 
3   -0.465624 
4   -0.110972 
5   -0.143621 
6   -0.313251 
7   0.188501 
8   0.118207 
9   0.02585 
10   0.035089 
11   -0.426648 
12   0.167246 
13   0.171198 
14   0.172067 
15   0.135065 
16   0.143064 
17   0.170841 
18   0.13046 
19   0.189454 
20   0.133428 
21   0.138635 
22   0.128484 
23   0.15468 
24   0.144127 
25   0.098718 
 
>  <lowdin_charges> 
25 
1   -0.447865 
2   -0.443184 
3   -0.444265 
4   -0.128015 
5   -0.185866 
6   -0.271336 
7   0.033729 
8   0.027692 
9   -0.066783 
10   0.023233 
11   -0.250969 
12   0.164863 
13   0.162855 
14   0.166919 
15   0.143322 
16   0.150327 
17   0.163385 
18   0.142155 
19   0.170646 
20   0.14382 
21   0.160468 
22   0.15847 
23   0.155511 
24   0.152346 
25   0.118543 
 
$$$$ 
 
