PCCDB-ID:  10422 
public computational chemistry database (PCCDB) project, http://pccdb.org 
 
 11 11  0  0  0  0  0  0  0  0999 V2000 
    0.3503    1.0890    0.0908 C   0  0  0  0  0  0  0  0  0  0  0  0 
   -0.9990    0.3543   -0.1036 C   0  0  0  0  0  0  0  0  0  0  0  0 
    0.9982   -0.3131   -0.0213 C   0  0  0  0  0  0  0  0  0  0  0  0 
   -0.3263   -0.9130    0.2755 N   0  0  0  0  0  0  0  0  0  0  0  0 
    0.4529    1.5188    1.0905 H   0  0  0  0  0  0  0  0  0  0  0  0 
    0.6300    1.8348   -0.6572 H   0  0  0  0  0  0  0  0  0  0  0  0 
   -1.3395    0.3943   -1.1507 H   0  0  0  0  0  0  0  0  0  0  0  0 
   -1.8359    0.6367    0.5464 H   0  0  0  0  0  0  0  0  0  0  0  0 
    1.7859   -0.5735    0.6960 H   0  0  0  0  0  0  0  0  0  0  0  0 
    1.3711   -0.5115   -1.0390 H   0  0  0  0  0  0  0  0  0  0  0  0 
   -0.5733   -1.7215   -0.2925 H   0  0  0  0  0  0  0  0  0  0  0  0 
  1  5  1  0  0  0  0 
  2  1  1  0  0  0  0 
  2  4  1  0  0  0  0 
  2  8  1  0  0  0  0 
  3  1  1  0  0  0  0 
  3  4  1  0  0  0  0 
  3  9  1  0  0  0  0 
  6  1  1  0  0  0  0 
  7  2  1  0  0  0  0 
 10  3  1  0  0  0  0 
 11  4  1  0  0  0  0 
M  END 
>  <HBA> 
1 
 
>  <HBD> 
1 
 
>  <TPSA> 
12.03 
 
>  <cid> 
10422 
 
>  <dipole> 
1.31 
 
>  <excitation_energy_1> 
5.413 
 
>  <excitation_energy_2> 
5.921 
 
>  <excitation_energy_3> 
6.031 
 
>  <excitation_energy_4> 
6.329 
 
>  <homo_energy> 
-5.94 
 
>  <homo_lumo_gap> 
8.207 
 
>  <logP> 
0.308 
 
>  <lumo_energy> 
2.267 
 
>  <melting_point> 
25.19 
 
>  <molecular_refractivity> 
21.14 
 
>  <oscillator_strength_1> 
0.0011 
 
>  <oscillator_strength_2> 
0.0128 
 
>  <oscillator_strength_3> 
0.001 
 
>  <oscillator_strength_4> 
0.0466 
 
>  <open_babel_can_smiles> 
C1CCN1 
 
>  <mulliken_charges> 
11 
1   -0.303493 
2   -0.122324 
3   -0.122308 
4   -0.554723 
5   0.153404 
6   0.140519 
7   0.119824 
8   0.139554 
9   0.139581 
10   0.119852 
11   0.290114 
 
>  <lowdin_charges> 
11 
1   -0.292159 
2   -0.199477 
3   -0.199755 
4   -0.384315 
5   0.153073 
6   0.14709 
7   0.124051 
8   0.139784 
9   0.139949 
10   0.124604 
11   0.247153 
 
$$$$ 
 
