PCCDB-ID:  8833 
public computational chemistry database (PCCDB) project, http://pccdb.org 
 
 36 35  0  0  1  0  0  0  0  0999 V2000 
    1.9014    4.5530    4.0239 C   0  0  0  0  0  0  0  0  0  0  0  0 
    2.4756    2.3501    5.0273 C   0  0  0  0  0  0  0  0  0  0  0  0 
    7.2091    1.3478    0.0552 C   0  0  0  0  0  0  0  0  0  0  0  0 
   10.6825    5.6454    3.8891 C   0  0  0  0  0  0  0  0  0  0  0  0 
    4.6473    2.6966    2.7046 C   0  0  0  0  0  0  0  0  0  0  0  0 
    3.1244    2.9186    2.5989 C   0  0  0  0  0  0  0  0  0  0  0  0 
    5.2747    2.3129    1.3570 C   0  0  0  0  0  0  0  0  0  0  0  0 
    7.6350    3.1940    1.7701 C   0  0  0  0  0  0  0  0  0  0  0  0 
    9.1126    2.8739    1.9860 C   0  0  0  0  0  0  0  0  0  0  0  0 
    2.4674    3.3486    3.8943 C   0  0  0  0  0  0  0  0  0  0  0  0 
    6.7788    1.9662    1.3966 C   0  0  2  0  0  0  0  0  0  0  0  0 
    9.8836    4.3817    3.6661 C   0  0  0  0  0  0  0  0  0  0  0  0 
    9.3381    3.7357    4.5346 O   0  0  0  0  0  0  0  0  0  0  0  0 
    9.8551    4.0623    2.3505 O   0  0  0  0  0  0  0  0  0  0  0  0 
    1.4274    4.8671    4.9509 H   0  0  0  0  0  0  0  0  0  0  0  0 
    1.8897    5.2708    3.2069 H   0  0  0  0  0  0  0  0  0  0  0  0 
    1.9266    2.7241    5.8969 H   0  0  0  0  0  0  0  0  0  0  0  0 
    3.4973    2.1138    5.3519 H   0  0  0  0  0  0  0  0  0  0  0  0 
    2.0184    1.4000    4.7173 H   0  0  0  0  0  0  0  0  0  0  0  0 
    6.5838    0.4826   -0.1937 H   0  0  0  0  0  0  0  0  0  0  0  0 
    8.2492    1.0041    0.0684 H   0  0  0  0  0  0  0  0  0  0  0  0 
    7.1089    2.0751   -0.7613 H   0  0  0  0  0  0  0  0  0  0  0  0 
   10.7505    5.8483    4.9583 H   0  0  0  0  0  0  0  0  0  0  0  0 
   10.1967    6.4872    3.3839 H   0  0  0  0  0  0  0  0  0  0  0  0 
   11.6844    5.5428    3.4606 H   0  0  0  0  0  0  0  0  0  0  0  0 
    4.8583    1.9038    3.4353 H   0  0  0  0  0  0  0  0  0  0  0  0 
    5.1064    3.6112    3.0998 H   0  0  0  0  0  0  0  0  0  0  0  0 
    2.6597    1.9829    2.2497 H   0  0  0  0  0  0  0  0  0  0  0  0 
    2.9274    3.6716    1.8251 H   0  0  0  0  0  0  0  0  0  0  0  0 
    5.1124    3.1251    0.6318 H   0  0  0  0  0  0  0  0  0  0  0  0 
    4.7341    1.4419    0.9586 H   0  0  0  0  0  0  0  0  0  0  0  0 
    7.5453    3.9576    0.9845 H   0  0  0  0  0  0  0  0  0  0  0  0 
    7.2571    3.6372    2.6971 H   0  0  0  0  0  0  0  0  0  0  0  0 
    9.5976    2.5275    1.0711 H   0  0  0  0  0  0  0  0  0  0  0  0 
    9.2388    2.1236    2.7716 H   0  0  0  0  0  0  0  0  0  0  0  0 
    6.9215    1.2060    2.1811 H   0  0  0  0  0  0  0  0  0  0  0  0 
  1 15  1  0  0  0  0 
  2 18  1  0  0  0  0 
  2 17  1  0  0  0  0 
  3 21  1  0  0  0  0 
  3 11  1  0  0  0  0 
  4 23  1  0  0  0  0 
  5 27  1  0  0  0  0 
  5 26  1  0  0  0  0 
  6  5  1  0  0  0  0 
  6 10  1  0  0  0  0 
  7 11  1  0  0  0  0 
  7  5  1  0  0  0  0 
  8  9  1  0  0  0  0 
  8 33  1  0  0  0  0 
  9 14  1  0  0  0  0 
  9 35  1  0  0  0  0 
 10  1  2  0  0  0  0 
 10  2  1  0  0  0  0 
 11  8  1  0  0  0  0 
 11 36  1  1  0  0  0 
 12  4  1  0  0  0  0 
 12 13  2  0  0  0  0 
 14 12  1  0  0  0  0 
 16  1  1  0  0  0  0 
 19  2  1  0  0  0  0 
 20  3  1  0  0  0  0 
 22  3  1  0  0  0  0 
 24  4  1  0  0  0  0 
 25  4  1  0  0  0  0 
 28  6  1  0  0  0  0 
 29  6  1  0  0  0  0 
 30  7  1  0  0  0  0 
 31  7  1  0  0  0  0 
 32  8  1  0  0  0  0 
 34  9  1  0  0  0  0 
M  END 
>  <HBA> 
2 
 
>  <HBD> 
0 
 
>  <TPSA> 
26.3 
 
>  <cid> 
8833 
 
>  <dipole> 
1.67 
 
>  <excitation_energy_1> 
5.813 
 
>  <excitation_energy_2> 
6.08 
 
>  <excitation_energy_3> 
6.315 
 
>  <excitation_energy_4> 
6.436 
 
>  <homo_energy> 
-6.482 
 
>  <homo_lumo_gap> 
6.925 
 
>  <logP> 
3.322 
 
>  <lumo_energy> 
0.444 
 
>  <melting_point> 
-35.28 
 
>  <molecular_refractivity> 
60.61 
 
>  <oscillator_strength_1> 
0.001 
 
>  <oscillator_strength_2> 
0.0221 
 
>  <oscillator_strength_3> 
0.0146 
 
>  <oscillator_strength_4> 
0.1034 
 
>  <open_babel_can_smiles> 
C[C@@H](CCOC(=O)C)CCCC(=C)C 
 
>  <mulliken_charges> 
36 
1   -0.401496 
2   -0.51425 
3   -0.455173 
4   -0.522449 
5   -0.266219 
6   -0.327794 
7   -0.252564 
8   -0.282178 
9   -0.049578 
10   0.238408 
11   -0.079927 
12   0.60122 
13   -0.471078 
14   -0.457381 
15   0.129406 
16   0.128968 
17   0.152633 
18   0.160548 
19   0.149481 
20   0.144542 
21   0.143161 
22   0.142134 
23   0.181483 
24   0.181405 
25   0.180117 
26   0.135507 
27   0.146152 
28   0.133672 
29   0.135844 
30   0.126654 
31   0.127257 
32   0.135732 
33   0.163743 
34   0.151249 
35   0.165807 
36   0.124963 
 
>  <lowdin_charges> 
36 
1   -0.367242 
2   -0.442161 
3   -0.447435 
4   -0.464715 
5   -0.278487 
6   -0.272449 
7   -0.275431 
8   -0.290645 
9   -0.135488 
10   0.009871 
11   -0.123564 
12   0.203163 
13   -0.270074 
14   -0.200311 
15   0.152791 
16   0.152725 
17   0.157384 
18   0.15707 
19   0.153701 
20   0.151051 
21   0.146323 
22   0.147742 
23   0.173545 
24   0.178626 
25   0.176071 
26   0.142088 
27   0.146336 
28   0.143549 
29   0.146856 
30   0.138767 
31   0.141185 
32   0.144317 
33   0.158176 
34   0.151665 
35   0.157313 
36   0.137688 
 
$$$$ 
 
