PCCDB-ID:  33640 
public computational chemistry database (PCCDB) project, http://pccdb.org 
 
 19 19  0  0  1  0  0  0  0  0999 V2000 
    0.7652    1.0521   -0.7428 C   0  0  0  0  0  0  0  0  0  0  0  0 
    2.2487    0.7295   -0.5391 C   0  0  0  0  0  0  0  0  0  0  0  0 
    2.4375    0.0807   -5.1103 C   0  0  0  0  0  0  0  0  0  0  0  0 
    2.0690   -0.6861   -3.9543 C   0  0  0  0  0  0  0  0  0  0  0  0 
    3.2678    1.0603   -4.6641 C   0  0  0  0  0  0  0  0  0  0  0  0 
    2.7672   -0.4206   -1.4221 C   0  0  1  0  0  0  0  0  0  0  0  0 
    2.6980   -0.1167   -2.8877 C   0  0  0  0  0  0  0  0  0  0  0  0 
    4.0930   -0.7999   -1.0327 O   0  0  0  0  0  0  0  0  0  0  0  0 
    3.4370    0.9615   -3.3120 O   0  0  0  0  0  0  0  0  0  0  0  0 
    0.4493    1.8645   -0.0795 H   0  0  0  0  0  0  0  0  0  0  0  0 
    0.1355    0.1809   -0.5235 H   0  0  0  0  0  0  0  0  0  0  0  0 
    0.5586    1.3606   -1.7734 H   0  0  0  0  0  0  0  0  0  0  0  0 
    2.4375    0.4423    0.5019 H   0  0  0  0  0  0  0  0  0  0  0  0 
    2.8559    1.6230   -0.7387 H   0  0  0  0  0  0  0  0  0  0  0  0 
    2.1253   -0.0817   -6.1326 H   0  0  0  0  0  0  0  0  0  0  0  0 
    1.4261   -1.5550   -3.9238 H   0  0  0  0  0  0  0  0  0  0  0  0 
    3.8011    1.8660   -5.1453 H   0  0  0  0  0  0  0  0  0  0  0  0 
    2.1544   -1.3116   -1.2451 H   0  0  0  0  0  0  0  0  0  0  0  0 
    4.6807   -0.0728   -1.2953 H   0  0  0  0  0  0  0  0  0  0  0  0 
  1  2  1  0  0  0  0 
  1 11  1  0  0  0  0 
  1 10  1  0  0  0  0 
  2 13  1  0  0  0  0 
  3  5  2  0  0  0  0 
  3  4  1  0  0  0  0 
  4 16  1  0  0  0  0 
  4  7  2  0  0  0  0 
  5  9  1  0  0  0  0 
  6 18  1  1  0  0  0 
  6  8  1  0  0  0  0 
  6  2  1  0  0  0  0 
  7  6  1  0  0  0  0 
  9  7  1  0  0  0  0 
 12  1  1  0  0  0  0 
 14  2  1  0  0  0  0 
 15  3  1  0  0  0  0 
 17  5  1  0  0  0  0 
 19  8  1  0  0  0  0 
M  END 
>  <HBA> 
2 
 
>  <HBD> 
1 
 
>  <TPSA> 
33.37 
 
>  <cid> 
33640 
 
>  <dipole> 
1.7 
 
>  <excitation_energy_1> 
5.642 
 
>  <excitation_energy_2> 
5.792 
 
>  <excitation_energy_3> 
6.091 
 
>  <excitation_energy_4> 
6.126 
 
>  <homo_energy> 
-6.074 
 
>  <homo_lumo_gap> 
6.365 
 
>  <logP> 
1.723 
 
>  <lumo_energy> 
0.291 
 
>  <melting_point> 
23.67 
 
>  <molecular_refractivity> 
34.45 
 
>  <oscillator_strength_1> 
0.004 
 
>  <oscillator_strength_2> 
0.2211 
 
>  <oscillator_strength_3> 
0.0103 
 
>  <oscillator_strength_4> 
0.0183 
 
>  <open_babel_can_smiles> 
CC[C@@H](c1ccco1)O 
 
>  <mulliken_charges> 
19 
1   -0.453628 
2   -0.269149 
3   -0.183536 
4   -0.207037 
5   0.084516 
6   0.058576 
7   0.341428 
8   -0.620212 
9   -0.458815 
10   0.147701 
11   0.142506 
12   0.156939 
13   0.148951 
14   0.136718 
15   0.142528 
16   0.141119 
17   0.154434 
18   0.144931 
19   0.392031 
 
>  <lowdin_charges> 
19 
1   -0.448359 
2   -0.287388 
3   -0.201496 
4   -0.213008 
5   -0.081576 
6   -0.004361 
7   0.051163 
8   -0.459464 
9   -0.115429 
10   0.154669 
11   0.147756 
12   0.153114 
13   0.150752 
14   0.144578 
15   0.168884 
16   0.169683 
17   0.171585 
18   0.155088 
19   0.343811 
 
$$$$ 
 
