PCCDB-ID:  23618 
public computational chemistry database (PCCDB) project, http://pccdb.org 
 
 20 20  0  0  1  0  0  0  0  0999 V2000 
    1.5581    0.9727   -0.0636 C   0  0  0  0  0  0  0  0  0  0  0  0 
    3.7444   -0.8354   -4.3499 C   0  0  0  0  0  0  0  0  0  0  0  0 
    3.2278   -1.8629   -3.5605 C   0  0  0  0  0  0  0  0  0  0  0  0 
    3.9197    0.4380   -3.8027 C   0  0  0  0  0  0  0  0  0  0  0  0 
    2.8884   -1.6167   -2.2293 C   0  0  0  0  0  0  0  0  0  0  0  0 
    3.5731    0.6873   -2.4756 C   0  0  0  0  0  0  0  0  0  0  0  0 
    2.6379   -0.0931   -0.2391 C   0  0  1  0  0  0  0  0  0  0  0  0 
    3.0505   -0.3405   -1.6783 C   0  0  0  0  0  0  0  0  0  0  0  0 
    3.8772    0.3040    0.5725 N   0  0  0  0  0  0  0  0  0  0  0  0 
    4.2495    1.4732    0.5088 O   0  0  0  0  0  0  0  0  0  0  0  0 
    4.4257   -0.5816    1.2179 O   0  0  0  0  0  0  0  0  0  0  0  0 
    0.6578    0.6531   -0.5971 H   0  0  0  0  0  0  0  0  0  0  0  0 
    1.8831    1.9330   -0.4689 H   0  0  0  0  0  0  0  0  0  0  0  0 
    1.3077    1.1067    0.9937 H   0  0  0  0  0  0  0  0  0  0  0  0 
    4.0130   -1.0253   -5.3854 H   0  0  0  0  0  0  0  0  0  0  0  0 
    3.0935   -2.8578   -3.9761 H   0  0  0  0  0  0  0  0  0  0  0  0 
    4.3283    1.2403   -4.4108 H   0  0  0  0  0  0  0  0  0  0  0  0 
    2.4928   -2.4218   -1.6149 H   0  0  0  0  0  0  0  0  0  0  0  0 
    3.7274    1.6743   -2.0511 H   0  0  0  0  0  0  0  0  0  0  0  0 
    2.3361   -1.0350    0.2203 H   0  0  0  0  0  0  0  0  0  0  0  0 
  1 14  1  0  0  0  0 
  2  4  2  0  0  0  0 
  2  3  1  0  0  0  0 
  3  5  2  0  0  0  0 
  4  6  1  0  0  0  0 
  5  8  1  0  0  0  0 
  5 18  1  0  0  0  0 
  6 19  1  0  0  0  0 
  6  8  2  0  0  0  0 
  7  1  1  0  0  0  0 
  7 20  1  1  0  0  0 
  7  9  1  0  0  0  0 
  8  7  1  0  0  0  0 
  9 11  2  0  0  0  0 
 10  9  2  0  0  0  0 
 12  1  1  0  0  0  0 
 13  1  1  0  0  0  0 
 15  2  1  0  0  0  0 
 16  3  1  0  0  0  0 
 17  4  1  0  0  0  0 
M  END 
>  <HBA> 
0 
 
>  <HBD> 
0 
 
>  <TPSA> 
45.82 
 
>  <cid> 
23618 
 
>  <dipole> 
3.79 
 
>  <excitation_energy_1> 
4.05 
 
>  <excitation_energy_2> 
4.173 
 
>  <excitation_energy_3> 
4.456 
 
>  <excitation_energy_4> 
4.753 
 
>  <homo_energy> 
-7.023 
 
>  <homo_lumo_gap> 
5.276 
 
>  <logP> 
2.547 
 
>  <lumo_energy> 
-1.747 
 
>  <melting_point> 
37.24 
 
>  <molecular_refractivity> 
44.32 
 
>  <oscillator_strength_1> 
0.0105 
 
>  <oscillator_strength_2> 
0.0052 
 
>  <oscillator_strength_3> 
0.0017 
 
>  <oscillator_strength_4> 
0.0064 
 
>  <open_babel_can_smiles> 
C[C@@H](c1ccccc1)N(=O)=O 
 
>  <mulliken_charges> 
20 
1   -0.448417 
2   -0.12369 
3   -0.128249 
4   -0.12874 
5   -0.179658 
6   -0.172937 
7   -0.103279 
8   0.161518 
9   0.467636 
10   -0.37768 
11   -0.372868 
12   0.166958 
13   0.184308 
14   0.166446 
15   0.137529 
16   0.138035 
17   0.13951 
18   0.136634 
19   0.159496 
20   0.177449 
 
>  <lowdin_charges> 
20 
1   -0.442686 
2   -0.14667 
3   -0.15155 
4   -0.150825 
5   -0.159128 
6   -0.155963 
7   -0.073993 
8   -0.017326 
9   0.294772 
10   -0.247158 
11   -0.237616 
12   0.16767 
13   0.171034 
14   0.161587 
15   0.160424 
16   0.161561 
17   0.163672 
18   0.161558 
19   0.169926 
20   0.17071 
 
$$$$ 
 
