PCCDB-ID:  70777 
public computational chemistry database (PCCDB) project, http://pccdb.org 
 
 20 20  0  0  0  0  0  0  0  0999 V2000 
    4.3475   -1.4235   -1.3934 C   0  0  0  0  0  0  0  0  0  0  0  0 
    1.0094   -2.4595    0.5960 C   0  0  0  0  0  0  0  0  0  0  0  0 
    3.0546   -3.7343    0.5721 C   0  0  0  0  0  0  0  0  0  0  0  0 
    0.2736   -3.6347    0.4817 C   0  0  0  0  0  0  0  0  0  0  0  0 
    2.3179   -4.9144    0.4867 C   0  0  0  0  0  0  0  0  0  0  0  0 
    3.9686   -0.8551   -0.0428 C   0  0  0  0  0  0  0  0  0  0  0  0 
    2.4137   -2.4849    0.6184 C   0  0  0  0  0  0  0  0  0  0  0  0 
    0.9205   -4.8767    0.4298 C   0  0  0  0  0  0  0  0  0  0  0  0 
    3.1140   -1.2827    0.7916 N   0  0  0  0  0  0  0  0  0  0  0  0 
    4.6214    0.2926    0.3001 O   0  0  0  0  0  0  0  0  0  0  0  0 
    0.0375   -6.4269    0.2656 S   0  0  0  0  0  0  0  0  0  0  0  0 
    5.4047   -1.7167   -1.4092 H   0  0  0  0  0  0  0  0  0  0  0  0 
    4.2015   -0.6633   -2.1715 H   0  0  0  0  0  0  0  0  0  0  0  0 
    3.7429   -2.2967   -1.6402 H   0  0  0  0  0  0  0  0  0  0  0  0 
    0.5034   -1.5009    0.6604 H   0  0  0  0  0  0  0  0  0  0  0  0 
    4.1379   -3.7796    0.6422 H   0  0  0  0  0  0  0  0  0  0  0  0 
   -0.8110   -3.5805    0.4389 H   0  0  0  0  0  0  0  0  0  0  0  0 
    2.8370   -5.8691    0.4745 H   0  0  0  0  0  0  0  0  0  0  0  0 
    5.2215    0.5462   -0.4179 H   0  0  0  0  0  0  0  0  0  0  0  0 
   -1.1682   -5.9724    0.6646 H   0  0  0  0  0  0  0  0  0  0  0  0 
  1  6  1  0  0  0  0 
  2  7  2  0  0  0  0 
  2 15  1  0  0  0  0 
  3  7  1  0  0  0  0 
  3 16  1  0  0  0  0 
  4  2  1  0  0  0  0 
  5  3  2  0  0  0  0 
  6 10  1  0  0  0  0 
  6  9  2  0  0  0  0 
  7  9  1  0  0  0  0 
  8  4  2  0  0  0  0 
  8  5  1  0  0  0  0 
 11  8  1  0  0  0  0 
 11 20  1  0  0  0  0 
 12  1  1  0  0  0  0 
 13  1  1  0  0  0  0 
 14  1  1  0  0  0  0 
 17  4  1  0  0  0  0 
 18  5  1  0  0  0  0 
 19 10  1  0  0  0  0 
M  END 
>  <HBA> 
3 
 
>  <HBD> 
2 
 
>  <TPSA> 
67.9 
 
>  <cid> 
70777 
 
>  <dipole> 
3.62 
 
>  <excitation_energy_1> 
4.359 
 
>  <excitation_energy_2> 
4.405 
 
>  <excitation_energy_3> 
4.625 
 
>  <excitation_energy_4> 
4.716 
 
>  <homo_energy> 
-5.445 
 
>  <homo_lumo_gap> 
5.178 
 
>  <logP> 
2.007 
 
>  <lumo_energy> 
-0.267 
 
>  <melting_point> 
84.37 
 
>  <molecular_refractivity> 
48.01 
 
>  <oscillator_strength_1> 
0.0197 
 
>  <oscillator_strength_2> 
0.2048 
 
>  <oscillator_strength_3> 
0.0245 
 
>  <oscillator_strength_4> 
0.0369 
 
>  <open_babel_can_smiles> 
C/C(=N\c1ccc(cc1)S)/O 
 
>  <mulliken_charges> 
20 
1   -0.556238 
2   -0.136499 
3   -0.14568 
4   -0.161403 
5   -0.166554 
6   0.482739 
7   0.231325 
8   -0.062383 
9   -0.466166 
10   -0.56836 
11   -0.040835 
12   0.176833 
13   0.172336 
14   0.199297 
15   0.13792 
16   0.12888 
17   0.128947 
18   0.141557 
19   0.408612 
20   0.095672 
 
>  <lowdin_charges> 
20 
1   -0.483578 
2   -0.164967 
3   -0.178488 
4   -0.164091 
5   -0.163753 
6   0.147489 
7   0.04142 
8   -0.126594 
9   -0.171024 
10   -0.359957 
11   -0.021829 
12   0.16931 
13   0.169286 
14   0.185135 
15   0.166012 
16   0.157321 
17   0.156473 
18   0.164802 
19   0.357539 
20   0.119495 
 
$$$$ 
 
