PCCDB-ID:  69269 
public computational chemistry database (PCCDB) project, http://pccdb.org 
 
 22 22  0  0  0  0  0  0  0  0999 V2000 
    2.2585   -1.5823   -0.2299 C   0  0  0  0  0  0  0  0  0  0  0  0 
    1.4799    0.7959   -0.3448 C   0  0  0  0  0  0  0  0  0  0  0  0 
    4.0248    1.7230    2.9222 C   0  0  0  0  0  0  0  0  0  0  0  0 
    3.2206    1.4194    1.8269 C   0  0  0  0  0  0  0  0  0  0  0  0 
    4.8112    0.7523    3.5395 C   0  0  0  0  0  0  0  0  0  0  0  0 
    3.9604   -0.8785    1.9222 C   0  0  0  0  0  0  0  0  0  0  0  0 
    3.1755    0.1092    1.2893 C   0  0  0  0  0  0  0  0  0  0  0  0 
    4.7500   -0.5347    3.0128 C   0  0  0  0  0  0  0  0  0  0  0  0 
    2.4003   -0.1958    0.1847 N   0  0  0  0  0  0  0  0  0  0  0  0 
    5.5576   -1.5965    3.6416 N   0  0  0  0  0  0  0  0  0  0  0  0 
    6.2482   -1.2904    4.6135 O   0  0  0  0  0  0  0  0  0  0  0  0 
    5.4981   -2.7295    3.1618 O   0  0  0  0  0  0  0  0  0  0  0  0 
    1.6370   -1.6247   -1.1259 H   0  0  0  0  0  0  0  0  0  0  0  0 
    1.7906   -2.2100    0.5442 H   0  0  0  0  0  0  0  0  0  0  0  0 
    3.2321   -2.0211   -0.4797 H   0  0  0  0  0  0  0  0  0  0  0  0 
    0.9809    0.3852   -1.2241 H   0  0  0  0  0  0  0  0  0  0  0  0 
    2.0124    1.7017   -0.6604 H   0  0  0  0  0  0  0  0  0  0  0  0 
    0.7068    1.0901    0.3825 H   0  0  0  0  0  0  0  0  0  0  0  0 
    4.0352    2.7408    3.3015 H   0  0  0  0  0  0  0  0  0  0  0  0 
    2.6219    2.2082    1.3881 H   0  0  0  0  0  0  0  0  0  0  0  0 
    5.4417    0.9669    4.3917 H   0  0  0  0  0  0  0  0  0  0  0  0 
    3.9733   -1.9054    1.5881 H   0  0  0  0  0  0  0  0  0  0  0  0 
  1  9  1  0  0  0  0 
  1 14  1  0  0  0  0 
  2  9  1  0  0  0  0 
  2 18  1  0  0  0  0 
  3 19  1  0  0  0  0 
  3  5  2  0  0  0  0 
  4  3  1  0  0  0  0 
  5 21  1  0  0  0  0 
  6  8  2  0  0  0  0 
  7  4  2  0  0  0  0 
  7  6  1  0  0  0  0 
  8  5  1  0  0  0  0 
  8 10  1  0  0  0  0 
  9  7  1  0  0  0  0 
 10 11  2  0  0  0  0 
 12 10  2  0  0  0  0 
 13  1  1  0  0  0  0 
 15  1  1  0  0  0  0 
 16  2  1  0  0  0  0 
 17  2  1  0  0  0  0 
 20  4  1  0  0  0  0 
 22  6  1  0  0  0  0 
M  END 
>  <HBA> 
1 
 
>  <HBD> 
0 
 
>  <TPSA> 
49.06 
 
>  <cid> 
69269 
 
>  <dipole> 
6.16 
 
>  <excitation_energy_1> 
2.76 
 
>  <excitation_energy_2> 
3.743 
 
>  <excitation_energy_3> 
4.285 
 
>  <excitation_energy_4> 
4.464 
 
>  <homo_energy> 
-5.657 
 
>  <homo_lumo_gap> 
3.527 
 
>  <logP> 
2.184 
 
>  <lumo_energy> 
-2.131 
 
>  <melting_point> 
52.46 
 
>  <molecular_refractivity> 
49.47 
 
>  <oscillator_strength_1> 
0.0226 
 
>  <oscillator_strength_2> 
0.0 
 
>  <oscillator_strength_3> 
0.0003 
 
>  <oscillator_strength_4> 
0.0756 
 
>  <open_babel_can_smiles> 
CN(c1cccc(c1)N(=O)=O)C 
 
>  <mulliken_charges> 
22 
1   -0.314365 
2   -0.314802 
3   -0.144493 
4   -0.175186 
5   -0.168028 
6   -0.240705 
7   0.374925 
8   0.276708 
9   -0.479569 
10   0.380825 
11   -0.395133 
12   -0.402858 
13   0.159953 
14   0.161398 
15   0.171583 
16   0.161403 
17   0.16581 
18   0.157411 
19   0.141281 
20   0.136223 
21   0.172042 
22   0.175577 
 
>  <lowdin_charges> 
22 
1   -0.351194 
2   -0.351859 
3   -0.139449 
4   -0.19049 
5   -0.172949 
6   -0.195569 
7   0.064721 
8   0.01079 
9   -0.113143 
10   0.308652 
11   -0.247902 
12   -0.252304 
13   0.16076 
14   0.149332 
15   0.157448 
16   0.161974 
17   0.154528 
18   0.14635 
19   0.16354 
20   0.166626 
21   0.184253 
22   0.185885 
 
$$$$ 
 
