PCCDB-ID:  16523 
public computational chemistry database (PCCDB) project, http://pccdb.org 
 
 20 20  0  0  0  0  0  0  0  0999 V2000 
    2.6411   -1.4430    1.4659 C   0  0  0  0  0  0  0  0  0  0  0  0 
    2.0745    4.5946    1.9476 C   0  0  0  0  0  0  0  0  0  0  0  0 
    2.5717    3.3503    1.5941 C   0  0  0  0  0  0  0  0  0  0  0  0 
    0.2722    3.4877    3.1289 C   0  0  0  0  0  0  0  0  0  0  0  0 
    0.9102    4.6595    2.7246 C   0  0  0  0  0  0  0  0  0  0  0  0 
    1.9565    2.1487    1.9822 C   0  0  0  0  0  0  0  0  0  0  0  0 
    0.7810    2.2363    2.7669 C   0  0  0  0  0  0  0  0  0  0  0  0 
    2.6246    0.9036    1.5178 C   0  0  0  0  0  0  0  0  0  0  0  0 
    0.3518    5.8377    3.1190 O   0  0  0  0  0  0  0  0  0  0  0  0 
    0.1456    1.1042    3.1684 O   0  0  0  0  0  0  0  0  0  0  0  0 
    3.6409    0.9017    0.8435 O   0  0  0  0  0  0  0  0  0  0  0  0 
    2.0102   -0.2325    1.9053 O   0  0  0  0  0  0  0  0  0  0  0  0 
    3.6635   -1.5081    1.8483 H   0  0  0  0  0  0  0  0  0  0  0  0 
    2.6705   -1.4901    0.3738 H   0  0  0  0  0  0  0  0  0  0  0  0 
    2.0284   -2.2505    1.8685 H   0  0  0  0  0  0  0  0  0  0  0  0 
    2.5780    5.5047    1.6296 H   0  0  0  0  0  0  0  0  0  0  0  0 
    3.4719    3.2689    0.9947 H   0  0  0  0  0  0  0  0  0  0  0  0 
   -0.6302    3.5645    3.7303 H   0  0  0  0  0  0  0  0  0  0  0  0 
    0.8857    6.5704    2.7738 H   0  0  0  0  0  0  0  0  0  0  0  0 
   -0.6300    1.3610    3.6926 H   0  0  0  0  0  0  0  0  0  0  0  0 
  1 13  1  0  0  0  0 
  1 15  1  0  0  0  0 
  1 12  1  0  0  0  0 
  2  5  1  0  0  0  0 
  3  2  2  0  0  0  0 
  3  6  1  0  0  0  0 
  4 18  1  0  0  0  0 
  5  9  1  0  0  0  0 
  5  4  2  0  0  0  0 
  6  7  2  0  0  0  0 
  7  4  1  0  0  0  0 
  7 10  1  0  0  0  0 
  8 12  1  0  0  0  0 
  8  6  1  0  0  0  0 
 10 20  1  0  0  0  0 
 11  8  2  0  0  0  0 
 14  1  1  0  0  0  0 
 16  2  1  0  0  0  0 
 17  3  1  0  0  0  0 
 19  9  1  0  0  0  0 
M  END 
>  <HBA> 
4 
 
>  <HBD> 
2 
 
>  <TPSA> 
66.76 
 
>  <cid> 
16523 
 
>  <dipole> 
2.61 
 
>  <excitation_energy_1> 
4.669 
 
>  <excitation_energy_2> 
5.04 
 
>  <excitation_energy_3> 
5.174 
 
>  <excitation_energy_4> 
5.344 
 
>  <homo_energy> 
-6.153 
 
>  <homo_lumo_gap> 
5.372 
 
>  <logP> 
0.884 
 
>  <lumo_energy> 
-0.781 
 
>  <melting_point> 
111.21 
 
>  <molecular_refractivity> 
41.77 
 
>  <oscillator_strength_1> 
0.0822 
 
>  <oscillator_strength_2> 
0.0001 
 
>  <oscillator_strength_3> 
0.2238 
 
>  <oscillator_strength_4> 
0.0011 
 
>  <open_babel_can_smiles> 
COC(=O)c1ccc(cc1O)O 
 
>  <mulliken_charges> 
20 
1   -0.213931 
2   -0.203873 
3   -0.17618 
4   -0.247818 
5   0.364915 
6   0.031244 
7   0.31152 
8   0.598698 
9   -0.637892 
10   -0.617571 
11   -0.506621 
12   -0.44973 
13   0.167008 
14   0.166632 
15   0.161037 
16   0.124816 
17   0.170838 
18   0.132475 
19   0.413641 
20   0.410793 
 
>  <lowdin_charges> 
20 
1   -0.275258 
2   -0.236986 
3   -0.10695 
4   -0.24844 
5   0.124618 
6   -0.09719 
7   0.128046 
8   0.194847 
9   -0.367903 
10   -0.349733 
11   -0.288075 
12   -0.175928 
13   0.156579 
14   0.155191 
15   0.159474 
16   0.157863 
17   0.182261 
18   0.164838 
19   0.363307 
20   0.359439 
 
$$$$ 
 
