PCCDB-ID:  33818 
public computational chemistry database (PCCDB) project, http://pccdb.org 
 
 40 40  0  0  1  0  0  0  0  0999 V2000 
    1.0027   -1.3348    1.9361 C   0  0  0  0  0  0  0  0  0  0  0  0 
   12.3098   -8.5791    0.2192 C   0  0  0  0  0  0  0  0  0  0  0  0 
   11.7279   -2.5236   -0.5484 C   0  0  0  0  0  0  0  0  0  0  0  0 
    2.5295   -1.4529    1.8822 C   0  0  0  0  0  0  0  0  0  0  0  0 
   12.2089   -7.3320    1.1040 C   0  0  0  0  0  0  0  0  0  0  0  0 
    3.0961   -1.2247    0.4738 C   0  0  0  0  0  0  0  0  0  0  0  0 
    4.6307   -1.2575    0.3824 C   0  0  0  0  0  0  0  0  0  0  0  0 
    5.2594   -2.6184    0.7071 C   0  0  0  0  0  0  0  0  0  0  0  0 
    6.7734   -2.6467    0.4775 C   0  0  0  0  0  0  0  0  0  0  0  0 
   10.8457   -3.6039    0.0141 C   0  0  1  0  0  0  0  0  0  0  0  0 
   10.4808   -5.7355    0.8498 C   0  0  0  0  0  0  0  0  0  0  0  0 
    8.5602   -4.1738    0.6599 C   0  0  0  0  0  0  0  0  0  0  0  0 
   10.8230   -6.9069    1.2210 N   0  0  0  0  0  0  0  0  0  0  0  0 
    7.3143   -3.9518    0.8246 N   0  0  0  0  0  0  0  0  0  0  0  0 
   11.3372   -4.7525    0.3276 N   0  0  0  0  0  0  0  0  0  0  0  0 
    9.5134   -3.2705    0.1626 N   0  0  0  0  0  0  0  0  0  0  0  0 
    9.1232   -5.3914    0.9708 N   0  0  0  0  0  0  0  0  0  0  0  0 
    0.6231   -1.5076    2.9496 H   0  0  0  0  0  0  0  0  0  0  0  0 
    0.5256   -2.0671    1.2731 H   0  0  0  0  0  0  0  0  0  0  0  0 
    0.6697   -0.3382    1.6205 H   0  0  0  0  0  0  0  0  0  0  0  0 
   13.3410   -8.9509    0.1906 H   0  0  0  0  0  0  0  0  0  0  0  0 
   11.9987   -8.3527   -0.8070 H   0  0  0  0  0  0  0  0  0  0  0  0 
   11.6617   -9.3762    0.5990 H   0  0  0  0  0  0  0  0  0  0  0  0 
   12.7504   -2.8958   -0.6118 H   0  0  0  0  0  0  0  0  0  0  0  0 
   11.7093   -1.6315    0.0900 H   0  0  0  0  0  0  0  0  0  0  0  0 
   11.3913   -2.2253   -1.5490 H   0  0  0  0  0  0  0  0  0  0  0  0 
    2.8275   -2.4441    2.2478 H   0  0  0  0  0  0  0  0  0  0  0  0 
    2.9783   -0.7248    2.5735 H   0  0  0  0  0  0  0  0  0  0  0  0 
   12.8640   -6.5406    0.7182 H   0  0  0  0  0  0  0  0  0  0  0  0 
   12.5614   -7.5873    2.1137 H   0  0  0  0  0  0  0  0  0  0  0  0 
    2.7430   -0.2507    0.1056 H   0  0  0  0  0  0  0  0  0  0  0  0 
    2.6778   -1.9771   -0.2113 H   0  0  0  0  0  0  0  0  0  0  0  0 
    5.0490   -0.4916    1.0532 H   0  0  0  0  0  0  0  0  0  0  0  0 
    4.9262   -0.9622   -0.6354 H   0  0  0  0  0  0  0  0  0  0  0  0 
    4.8015   -3.4023    0.0890 H   0  0  0  0  0  0  0  0  0  0  0  0 
    5.0703   -2.8981    1.7501 H   0  0  0  0  0  0  0  0  0  0  0  0 
    7.2370   -1.8457    1.0834 H   0  0  0  0  0  0  0  0  0  0  0  0 
    6.9714   -2.3915   -0.5810 H   0  0  0  0  0  0  0  0  0  0  0  0 
    9.1931   -2.3517   -0.1052 H   0  0  0  0  0  0  0  0  0  0  0  0 
    8.5023   -6.0956    1.3475 H   0  0  0  0  0  0  0  0  0  0  0  0 
  1 18  1  0  0  0  0 
  2 23  1  0  0  0  0 
  2  5  1  0  0  0  0 
  3 25  1  0  0  0  0 
  4  1  1  0  0  0  0 
  4 27  1  0  0  0  0 
  4 28  1  0  0  0  0 
  5 13  1  0  0  0  0 
  5 30  1  0  0  0  0 
  6  4  1  0  0  0  0 
  7  6  1  0  0  0  0 
  7  8  1  0  0  0  0 
  7 33  1  0  0  0  0 
  8 36  1  0  0  0  0 
  9  8  1  0  0  0  0 
  9 14  1  0  0  0  0 
  9 37  1  0  0  0  0 
 10  3  1  1  0  0  0 
 10 16  1  0  0  0  0 
 10 15  1  0  0  0  0 
 11 17  1  0  0  0  0 
 11 13  1  0  0  0  0 
 12 14  2  0  0  0  0 
 12 17  1  0  0  0  0 
 15 11  2  0  0  0  0 
 16 12  1  0  0  0  0 
 17 40  1  0  0  0  0 
 19  1  1  0  0  0  0 
 20  1  1  0  0  0  0 
 21  2  1  0  0  0  0 
 22  2  1  0  0  0  0 
 24  3  1  0  0  0  0 
 26  3  1  0  0  0  0 
 29  5  1  0  0  0  0 
 31  6  1  0  0  0  0 
 32  6  1  0  0  0  0 
 34  7  1  0  0  0  0 
 35  8  1  0  0  0  0 
 38  9  1  0  0  0  0 
 39 16  1  0  0  0  0 
M  RAD  2  10   2  13   2 
M  END 
>  <HBA> 
5 
 
>  <HBD> 
2 
 
>  <TPSA> 
62.73 
 
>  <cid> 
33818 
 
>  <dipole> 
4.7 
 
>  <excitation_energy_1> 
4.378 
 
>  <excitation_energy_2> 
4.635 
 
>  <excitation_energy_3> 
4.905 
 
>  <excitation_energy_4> 
4.962 
 
>  <homo_energy> 
-5.829 
 
>  <homo_lumo_gap> 
5.083 
 
>  <logP> 
2.75 
 
>  <lumo_energy> 
-0.746 
 
>  <melting_point> 
120.8 
 
>  <molecular_refractivity> 
72.25 
 
>  <oscillator_strength_1> 
0.0292 
 
>  <oscillator_strength_2> 
0.0028 
 
>  <oscillator_strength_3> 
0.1184 
 
>  <oscillator_strength_4> 
0.0006 
 
>  <open_babel_can_smiles> 
CCCCCC/N=C/1\N[C](C)N=C(N1)[N]CC 
 
>  <mulliken_charges> 
40 
1   -0.441643 
2   -0.432522 
3   -0.538052 
4   -0.249458 
5   -0.138388 
6   -0.24584 
7   -0.262331 
8   -0.251783 
9   -0.155105 
10   0.522986 
11   0.656659 
12   0.763503 
13   -0.495839 
14   -0.507432 
15   -0.505442 
16   -0.701856 
17   -0.694902 
18   0.141989 
19   0.142094 
20   0.140042 
21   0.131868 
22   0.141717 
23   0.150427 
24   0.203388 
25   0.17516 
26   0.175416 
27   0.140035 
28   0.128015 
29   0.147343 
30   0.134063 
31   0.125373 
32   0.128191 
33   0.124301 
34   0.122404 
35   0.140762 
36   0.148656 
37   0.120825 
38   0.116556 
39   0.349222 
40   0.3496 
 
>  <lowdin_charges> 
40 
1   -0.44435 
2   -0.444881 
3   -0.450511 
4   -0.275501 
5   -0.198122 
6   -0.275003 
7   -0.27825 
8   -0.276765 
9   -0.204426 
10   0.126313 
11   0.115358 
12   0.132173 
13   -0.233979 
14   -0.265602 
15   -0.214579 
16   -0.251177 
17   -0.236795 
18   0.148707 
19   0.147886 
20   0.144909 
21   0.144494 
22   0.146032 
23   0.152565 
24   0.186592 
25   0.170458 
26   0.169872 
27   0.142185 
28   0.138933 
29   0.14096 
30   0.140039 
31   0.13905 
32   0.139407 
33   0.136895 
34   0.136508 
35   0.147386 
36   0.148034 
37   0.12614 
38   0.12079 
39   0.29926 
40   0.308992 
 
$$$$ 
 
