PCCDB-ID:  72885 
public computational chemistry database (PCCDB) project, http://pccdb.org 
 
 17 16  0  0  0  0  0  0  0  0999 V2000 
    2.0159    0.4637   -0.7523 C   0  0  0  0  0  0  0  0  0  0  0  0 
    6.1763   -3.4619    0.9143 C   0  0  0  0  0  0  0  0  0  0  0  0 
    2.5536   -0.2254    0.2543 C   0  0  0  0  0  0  0  0  0  0  0  0 
    4.6983   -3.3078    0.5640 C   0  0  0  0  0  0  0  0  0  0  0  0 
    2.9019   -1.6874    0.2015 C   0  0  0  0  0  0  0  0  0  0  0  0 
    4.3021   -1.9006    0.5705 N   0  0  0  0  0  0  0  0  0  0  0  0 
    1.7737    1.5192   -0.6607 H   0  0  0  0  0  0  0  0  0  0  0  0 
    1.7893   -0.0052   -1.7082 H   0  0  0  0  0  0  0  0  0  0  0  0 
    6.4612   -4.5192    0.9485 H   0  0  0  0  0  0  0  0  0  0  0  0 
    6.3896   -3.0095    1.8882 H   0  0  0  0  0  0  0  0  0  0  0  0 
    6.8132   -2.9714    0.1669 H   0  0  0  0  0  0  0  0  0  0  0  0 
    2.7831    0.2712    1.1970 H   0  0  0  0  0  0  0  0  0  0  0  0 
    4.0856   -3.8276    1.3130 H   0  0  0  0  0  0  0  0  0  0  0  0 
    4.4916   -3.8056   -0.4045 H   0  0  0  0  0  0  0  0  0  0  0  0 
    2.6401   -2.0996   -0.7927 H   0  0  0  0  0  0  0  0  0  0  0  0 
    2.2884   -2.2348    0.9336 H   0  0  0  0  0  0  0  0  0  0  0  0 
    4.8905   -1.3856   -0.0844 H   0  0  0  0  0  0  0  0  0  0  0  0 
  1  7  1  0  0  0  0 
  1  3  2  0  0  0  0 
  2  9  1  0  0  0  0 
  2 10  1  0  0  0  0 
  3 12  1  0  0  0  0 
  4  6  1  0  0  0  0 
  4  2  1  0  0  0  0 
  4 13  1  0  0  0  0 
  5  3  1  0  0  0  0 
  5  6  1  0  0  0  0 
  5 16  1  0  0  0  0 
  8  1  1  0  0  0  0 
 11  2  1  0  0  0  0 
 14  4  1  0  0  0  0 
 15  5  1  0  0  0  0 
 17  6  1  0  0  0  0 
M  END 
>  <HBA> 
1 
 
>  <HBD> 
1 
 
>  <TPSA> 
12.03 
 
>  <cid> 
72885 
 
>  <dipole> 
0.85 
 
>  <excitation_energy_1> 
5.315 
 
>  <excitation_energy_2> 
5.694 
 
>  <excitation_energy_3> 
6.105 
 
>  <excitation_energy_4> 
6.218 
 
>  <homo_energy> 
-5.968 
 
>  <homo_lumo_gap> 
6.512 
 
>  <logP> 
1.173 
 
>  <lumo_energy> 
0.544 
 
>  <melting_point> 
-19.32 
 
>  <molecular_refractivity> 
28.48 
 
>  <oscillator_strength_1> 
0.0055 
 
>  <oscillator_strength_2> 
0.0076 
 
>  <oscillator_strength_3> 
0.0144 
 
>  <oscillator_strength_4> 
0.0266 
 
>  <open_babel_can_smiles> 
CCNCC=C 
 
>  <mulliken_charges> 
17 
1   -0.339647 
2   -0.4501 
3   -0.054242 
4   -0.105605 
5   -0.159214 
6   -0.549005 
7   0.14091 
8   0.135904 
9   0.143838 
10   0.159484 
11   0.138726 
12   0.137529 
13   0.139062 
14   0.109408 
15   0.114732 
16   0.147331 
17   0.290889 
 
>  <lowdin_charges> 
17 
1   -0.338141 
2   -0.447572 
3   -0.149897 
4   -0.198561 
5   -0.198259 
6   -0.367611 
7   0.157495 
8   0.153649 
9   0.151198 
10   0.156114 
11   0.146414 
12   0.156791 
13   0.14195 
14   0.114425 
15   0.11979 
16   0.149755 
17   0.252459 
 
$$$$ 
 
