PCCDB-ID:  58004 
public computational chemistry database (PCCDB) project, http://pccdb.org 
 
 30 30  0  0  1  0  0  0  0  0999 V2000 
    1.7976   -0.8694   -2.2140 C   0  0  0  0  0  0  0  0  0  0  0  0 
   -0.3817   -0.7377   -0.9984 C   0  0  0  0  0  0  0  0  0  0  0  0 
    1.6737    0.3691    0.0014 C   0  0  0  0  0  0  0  0  0  0  0  0 
    1.1464   -0.8230   -3.3799 C   0  0  0  0  0  0  0  0  0  0  0  0 
   -1.0349   -0.7008   -2.1629 C   0  0  0  0  0  0  0  0  0  0  0  0 
    1.4650    1.7577   -0.6146 C   0  0  0  0  0  0  0  0  0  0  0  0 
    1.1201   -0.7956   -0.8690 C   0  0  2  0  0  0  0  0  0  0  0  0 
   -0.3580   -0.7439   -3.5099 C   0  0  2  0  0  0  0  0  0  0  0  0 
    1.9447    2.9236    0.2840 C   0  0  1  0  0  0  0  0  0  0  0  0 
    1.0909    3.0033    1.5656 C   0  0  0  0  0  0  0  0  0  0  0  0 
   -0.9485   -1.8511   -4.2971 N   0  0  0  0  0  0  0  0  0  0  0  0 
    3.3716    2.8126    0.5664 N   0  0  0  0  0  0  0  0  0  0  0  0 
    1.5095    2.7462    2.6679 O   0  0  0  0  0  0  0  0  0  0  0  0 
   -0.2111    3.3610    1.3978 O   0  0  0  0  0  0  0  0  0  0  0  0 
    2.8843   -0.9560   -2.2027 H   0  0  0  0  0  0  0  0  0  0  0  0 
   -0.9439   -0.7243   -0.0645 H   0  0  0  0  0  0  0  0  0  0  0  0 
    1.1974    0.3157    0.9900 H   0  0  0  0  0  0  0  0  0  0  0  0 
    2.7470    0.2039    0.1592 H   0  0  0  0  0  0  0  0  0  0  0  0 
    1.7050   -0.8753   -4.3151 H   0  0  0  0  0  0  0  0  0  0  0  0 
   -2.1224   -0.6778   -2.1892 H   0  0  0  0  0  0  0  0  0  0  0  0 
    0.4020    1.8892   -0.8603 H   0  0  0  0  0  0  0  0  0  0  0  0 
    2.0165    1.8267   -1.5575 H   0  0  0  0  0  0  0  0  0  0  0  0 
    1.3729   -1.7148   -0.3121 H   0  0  0  0  0  0  0  0  0  0  0  0 
   -0.6217    0.1725   -4.0631 H   0  0  0  0  0  0  0  0  0  0  0  0 
    1.7881    3.8563   -0.2771 H   0  0  0  0  0  0  0  0  0  0  0  0 
   -0.6545   -2.7352   -3.8810 H   0  0  0  0  0  0  0  0  0  0  0  0 
   -0.5632   -1.8414   -5.2419 H   0  0  0  0  0  0  0  0  0  0  0  0 
    3.4889    2.1507    1.3339 H   0  0  0  0  0  0  0  0  0  0  0  0 
    3.7030    3.6989    0.9454 H   0  0  0  0  0  0  0  0  0  0  0  0 
   -0.3887    3.5313    0.4576 H   0  0  0  0  0  0  0  0  0  0  0  0 
  1 15  1  0  0  0  0 
  1  7  1  0  0  0  0 
  2  7  1  0  0  0  0 
  2 16  1  0  0  0  0 
  3 18  1  0  0  0  0 
  3 17  1  0  0  0  0 
  4  1  2  0  0  0  0 
  5  2  2  0  0  0  0 
  6  3  1  0  0  0  0 
  6  9  1  0  0  0  0 
  7 23  1  1  0  0  0 
  7  3  1  0  0  0  0 
  8 24  1  6  0  0  0 
  8  4  1  0  0  0  0 
  8  5  1  0  0  0  0 
  9 25  1  6  0  0  0 
  9 12  1  0  0  0  0 
  9 10  1  0  0  0  0 
 10 13  2  0  0  0  0 
 11 26  1  0  0  0  0 
 11  8  1  0  0  0  0 
 12 29  1  0  0  0  0 
 12 28  1  0  0  0  0 
 14 10  1  0  0  0  0 
 19  4  1  0  0  0  0 
 20  5  1  0  0  0  0 
 21  6  1  0  0  0  0 
 22  6  1  0  0  0  0 
 27 11  1  0  0  0  0 
 30 14  1  0  0  0  0 
M  END 
>  <HBA> 
4 
 
>  <HBD> 
3 
 
>  <TPSA> 
89.34 
 
>  <cid> 
58004 
 
>  <dipole> 
3.1 
 
>  <excitation_energy_1> 
5.416 
 
>  <excitation_energy_2> 
5.536 
 
>  <excitation_energy_3> 
5.678 
 
>  <excitation_energy_4> 
5.722 
 
>  <homo_energy> 
-6.357 
 
>  <homo_lumo_gap> 
6.509 
 
>  <logP> 
1.649 
 
>  <lumo_energy> 
0.152 
 
>  <melting_point> 
198.6 
 
>  <molecular_refractivity> 
54.31 
 
>  <oscillator_strength_1> 
0.033 
 
>  <oscillator_strength_2> 
0.0057 
 
>  <oscillator_strength_3> 
0.0043 
 
>  <oscillator_strength_4> 
0.0194 
 
>  <open_babel_can_smiles> 
N[C@H](C(=O)O)CC[C@@H]1C=C[C@H](C=C1)N 
 
>  <mulliken_charges> 
30 
1   -0.108527 
2   -0.112958 
3   -0.290727 
4   -0.125767 
5   -0.105242 
6   -0.247066 
7   -0.163119 
8   -0.061217 
9   -0.115665 
10   0.586072 
11   -0.702787 
12   -0.696221 
13   -0.450332 
14   -0.564951 
15   0.126602 
16   0.127839 
17   0.150711 
18   0.149905 
19   0.11651 
20   0.137029 
21   0.125234 
22   0.166248 
23   0.147563 
24   0.144771 
25   0.143248 
26   0.294535 
27   0.292963 
28   0.31638 
29   0.305646 
30   0.413326 
 
>  <lowdin_charges> 
30 
1   -0.164594 
2   -0.170099 
3   -0.277667 
4   -0.190713 
5   -0.168523 
6   -0.278358 
7   -0.123374 
8   -0.064944 
9   -0.114045 
10   0.174521 
11   -0.545477 
12   -0.53477 
13   -0.245876 
14   -0.354563 
15   0.151978 
16   0.154938 
17   0.14911 
18   0.149295 
19   0.149268 
20   0.158898 
21   0.137998 
22   0.161744 
23   0.156492 
24   0.148814 
25   0.150755 
26   0.254247 
27   0.251809 
28   0.264488 
29   0.261664 
30   0.356983 
 
$$$$ 
 
