PCCDB-ID:  61261 
public computational chemistry database (PCCDB) project, http://pccdb.org 
 
 17 17  0  0  0  0  0  0  0  0999 V2000 
    1.1802    0.0497   -0.7526 C   0  0  0  0  0  0  0  0  0  0  0  0 
    4.1775   -4.3562   -1.3632 C   0  0  0  0  0  0  0  0  0  0  0  0 
    4.7553   -3.2943   -2.0580 C   0  0  0  0  0  0  0  0  0  0  0  0 
    3.2081   -4.1102   -0.3914 C   0  0  0  0  0  0  0  0  0  0  0  0 
    4.3463   -1.9894   -1.7798 C   0  0  0  0  0  0  0  0  0  0  0  0 
    2.8152   -2.8003   -0.0989 C   0  0  0  0  0  0  0  0  0  0  0  0 
    3.3795   -1.7178   -0.8038 C   0  0  0  0  0  0  0  0  0  0  0  0 
    1.8818   -2.5281    0.8620 O   0  0  0  0  0  0  0  0  0  0  0  0 
    2.9832   -0.0174   -0.4203 S   0  0  0  0  0  0  0  0  0  0  0  0 
    0.8743    1.0812   -0.5567 H   0  0  0  0  0  0  0  0  0  0  0  0 
    0.6409   -0.6244   -0.0858 H   0  0  0  0  0  0  0  0  0  0  0  0 
    0.9679   -0.1955   -1.7963 H   0  0  0  0  0  0  0  0  0  0  0  0 
    4.4753   -5.3796   -1.5737 H   0  0  0  0  0  0  0  0  0  0  0  0 
    5.5077   -3.4775   -2.8192 H   0  0  0  0  0  0  0  0  0  0  0  0 
    2.7582   -4.9377    0.1554 H   0  0  0  0  0  0  0  0  0  0  0  0 
    4.7765   -1.1538   -2.3239 H   0  0  0  0  0  0  0  0  0  0  0  0 
    1.6094   -3.3619    1.2760 H   0  0  0  0  0  0  0  0  0  0  0  0 
  1 10  1  0  0  0  0 
  1  9  1  0  0  0  0 
  1 11  1  0  0  0  0 
  2  4  2  0  0  0  0 
  3  5  2  0  0  0  0 
  3  2  1  0  0  0  0 
  4  6  1  0  0  0  0 
  4 15  1  0  0  0  0 
  5  7  1  0  0  0  0 
  6  8  1  0  0  0  0 
  7  9  1  0  0  0  0 
  7  6  2  0  0  0  0 
  8 17  1  0  0  0  0 
 12  1  1  0  0  0  0 
 13  2  1  0  0  0  0 
 14  3  1  0  0  0  0 
 16  5  1  0  0  0  0 
M  END 
>  <HBA> 
2 
 
>  <HBD> 
1 
 
>  <TPSA> 
45.53 
 
>  <cid> 
61261 
 
>  <dipole> 
2.82 
 
>  <excitation_energy_1> 
4.422 
 
>  <excitation_energy_2> 
4.72 
 
>  <excitation_energy_3> 
4.957 
 
>  <excitation_energy_4> 
5.166 
 
>  <homo_energy> 
-5.69 
 
>  <homo_lumo_gap> 
5.372 
 
>  <logP> 
2.114 
 
>  <lumo_energy> 
-0.318 
 
>  <melting_point> 
57.11 
 
>  <molecular_refractivity> 
40.19 
 
>  <oscillator_strength_1> 
0.0746 
 
>  <oscillator_strength_2> 
0.0009 
 
>  <oscillator_strength_3> 
0.0008 
 
>  <oscillator_strength_4> 
0.0386 
 
>  <open_babel_can_smiles> 
CSc1ccccc1O 
 
>  <mulliken_charges> 
17 
1   -0.589702 
2   -0.136501 
3   -0.1235 
4   -0.183747 
5   -0.155647 
6   0.347698 
7   -0.13396 
8   -0.629923 
9   0.105663 
10   0.176865 
11   0.201914 
12   0.178332 
13   0.13387 
14   0.130607 
15   0.119326 
16   0.148717 
17   0.409987 
 
>  <lowdin_charges> 
17 
1   -0.545571 
2   -0.143113 
3   -0.17709 
4   -0.214114 
5   -0.147013 
6   0.102305 
7   -0.162232 
8   -0.36759 
9   0.142769 
10   0.171681 
11   0.173884 
12   0.162213 
13   0.159284 
14   0.160372 
15   0.154936 
16   0.170065 
17   0.359214 
 
$$$$ 
 
