PCCDB-ID:  39428 
public computational chemistry database (PCCDB) project, http://pccdb.org 
 
 16 15  0  0  0  0  0  0  0  0999 V2000 
    1.1741   -0.7866    1.4617 C   0  0  0  0  0  0  0  0  0  0  0  0 
    3.1190   -0.8716   -0.0453 C   0  0  0  0  0  0  0  0  0  0  0  0 
    5.1947   -0.5122   -1.3711 C   0  0  0  0  0  0  0  0  0  0  0  0 
    2.6942   -1.8212   -0.7951 N   0  0  0  0  0  0  0  0  0  0  0  0 
    5.0554   -1.2756   -2.3713 N   0  0  0  0  0  0  0  0  0  0  0  0 
    2.5055   -0.3363    1.0892 N   0  0  0  0  0  0  0  0  0  0  0  0 
    4.3466   -0.2570   -0.2895 N   0  0  0  0  0  0  0  0  0  0  0  0 
    6.3111    0.2573   -1.2120 O   0  0  0  0  0  0  0  0  0  0  0  0 
    0.8706   -0.2574    2.3680 H   0  0  0  0  0  0  0  0  0  0  0  0 
    1.1954   -1.8570    1.6898 H   0  0  0  0  0  0  0  0  0  0  0  0 
    0.4161   -0.6101    0.6828 H   0  0  0  0  0  0  0  0  0  0  0  0 
    1.7500   -2.1061   -0.5417 H   0  0  0  0  0  0  0  0  0  0  0  0 
    4.1781   -1.7942   -2.2946 H   0  0  0  0  0  0  0  0  0  0  0  0 
    2.6512    0.6607    1.1998 H   0  0  0  0  0  0  0  0  0  0  0  0 
    4.7725    0.2501    0.4741 H   0  0  0  0  0  0  0  0  0  0  0  0 
    6.8701    0.0322   -1.9762 H   0  0  0  0  0  0  0  0  0  0  0  0 
  1 10  1  0  0  0  0 
  1  9  1  0  0  0  0 
  2  6  1  0  0  0  0 
  3  8  1  0  0  0  0 
  3  7  1  0  0  0  0 
  4 12  1  0  0  0  0 
  4  2  2  0  0  0  0 
  5 13  1  0  0  0  0 
  5  3  2  0  0  0  0 
  6 14  1  0  0  0  0 
  6  1  1  0  0  0  0 
  7  2  1  0  0  0  0 
  7 15  1  0  0  0  0 
 11  1  1  0  0  0  0 
 16  8  1  0  0  0  0 
M  END 
>  <HBA> 
5 
 
>  <HBD> 
3 
 
>  <TPSA> 
93.5 
 
>  <cid> 
39428 
 
>  <dipole> 
4.99 
 
>  <excitation_energy_1> 
5.642 
 
>  <excitation_energy_2> 
5.708 
 
>  <excitation_energy_3> 
6.122 
 
>  <excitation_energy_4> 
6.178 
 
>  <homo_energy> 
-6.376 
 
>  <homo_lumo_gap> 
7.127 
 
>  <logP> 
0.391 
 
>  <lumo_energy> 
0.751 
 
>  <melting_point> 
160.69 
 
>  <molecular_refractivity> 
29.03 
 
>  <oscillator_strength_1> 
0.0017 
 
>  <oscillator_strength_2> 
0.0008 
 
>  <oscillator_strength_3> 
0.0024 
 
>  <oscillator_strength_4> 
0.0557 
 
>  <open_babel_can_smiles> 
CNC(=N)NC(=N)O 
 
>  <mulliken_charges> 
16 
1   -0.325554 
2   0.691964 
3   0.650735 
4   -0.670274 
5   -0.649162 
6   -0.610502 
7   -0.68738 
8   -0.619902 
9   0.166928 
10   0.179648 
11   0.157785 
12   0.291213 
13   0.338343 
14   0.32346 
15   0.342394 
16   0.420306 
 
>  <lowdin_charges> 
16 
1   -0.357827 
2   0.141371 
3   0.163866 
4   -0.462532 
5   -0.456778 
6   -0.317045 
7   -0.269796 
8   -0.392839 
9   0.164984 
10   0.161246 
11   0.143802 
12   0.259148 
13   0.281376 
14   0.276255 
15   0.296722 
16   0.368047 
 
$$$$ 
 
