PCCDB-ID:  69173 
public computational chemistry database (PCCDB) project, http://pccdb.org 
 
 36 38  0  0  0  0  0  0  0  0999 V2000 
   -1.0668   -0.3250    1.4118 C   0  0  0  0  0  0  0  0  0  0  0  0 
    9.1732    0.5241   -1.2199 C   0  0  0  0  0  0  0  0  0  0  0  0 
   -0.6197   -1.1844    0.4047 C   0  0  0  0  0  0  0  0  0  0  0  0 
   -0.2388    0.7232    1.8076 C   0  0  0  0  0  0  0  0  0  0  0  0 
    8.7763   -0.7041   -0.6846 C   0  0  0  0  0  0  0  0  0  0  0  0 
    8.2940    1.6011   -1.1341 C   0  0  0  0  0  0  0  0  0  0  0  0 
    0.6222   -1.0002   -0.1930 C   0  0  0  0  0  0  0  0  0  0  0  0 
    1.0168    0.9078    1.2264 C   0  0  0  0  0  0  0  0  0  0  0  0 
    7.5338   -0.8509   -0.0780 C   0  0  0  0  0  0  0  0  0  0  0  0 
    7.0373    1.4612   -0.5421 C   0  0  0  0  0  0  0  0  0  0  0  0 
    3.5137    1.4322   -0.1935 C   0  0  0  0  0  0  0  0  0  0  0  0 
    3.5717   -0.9203   -0.7208 C   0  0  0  0  0  0  0  0  0  0  0  0 
    4.5300    1.2030    0.9421 C   0  0  0  0  0  0  0  0  0  0  0  0 
    4.5965   -1.1472    0.4112 C   0  0  0  0  0  0  0  0  0  0  0  0 
    1.4784    0.0488    0.2086 C   0  0  0  0  0  0  0  0  0  0  0  0 
    6.6261    0.2283    0.0034 C   0  0  0  0  0  0  0  0  0  0  0  0 
    2.7114    0.2359   -0.4466 N   0  0  0  0  0  0  0  0  0  0  0  0 
    5.3953    0.0562    0.6662 N   0  0  0  0  0  0  0  0  0  0  0  0 
   -2.0395   -0.4691    1.8726 H   0  0  0  0  0  0  0  0  0  0  0  0 
   10.1466    0.6366   -1.6883 H   0  0  0  0  0  0  0  0  0  0  0  0 
   -1.2527   -2.0005    0.0650 H   0  0  0  0  0  0  0  0  0  0  0  0 
   -0.5601    1.4050    2.5912 H   0  0  0  0  0  0  0  0  0  0  0  0 
    9.4480   -1.5583   -0.7225 H   0  0  0  0  0  0  0  0  0  0  0  0 
    8.5749    2.5678   -1.5450 H   0  0  0  0  0  0  0  0  0  0  0  0 
    0.9191   -1.6544   -1.0064 H   0  0  0  0  0  0  0  0  0  0  0  0 
    1.6407    1.7181    1.5860 H   0  0  0  0  0  0  0  0  0  0  0  0 
    7.2768   -1.8051    0.3707 H   0  0  0  0  0  0  0  0  0  0  0  0 
    6.3761    2.3202   -0.5241 H   0  0  0  0  0  0  0  0  0  0  0  0 
    4.0583    1.6626   -1.1192 H   0  0  0  0  0  0  0  0  0  0  0  0 
    2.8575    2.2815    0.0126 H   0  0  0  0  0  0  0  0  0  0  0  0 
    2.9646   -1.8173   -0.8521 H   0  0  0  0  0  0  0  0  0  0  0  0 
    4.1094   -0.7409   -1.6620 H   0  0  0  0  0  0  0  0  0  0  0  0 
    3.9847    0.9846    1.8701 H   0  0  0  0  0  0  0  0  0  0  0  0 
    5.1392    2.0910    1.1279 H   0  0  0  0  0  0  0  0  0  0  0  0 
    5.2484   -1.9840    0.1556 H   0  0  0  0  0  0  0  0  0  0  0  0 
    4.0601   -1.4118    1.3328 H   0  0  0  0  0  0  0  0  0  0  0  0 
  1  4  1  0  0  0  0 
  1 19  1  0  0  0  0 
  2  6  2  0  0  0  0 
  2  5  1  0  0  0  0 
  3  1  2  0  0  0  0 
  4 22  1  0  0  0  0 
  5  9  2  0  0  0  0 
  6 10  1  0  0  0  0 
  7 15  2  0  0  0  0 
  7  3  1  0  0  0  0 
  8 26  1  0  0  0  0 
  8  4  2  0  0  0  0 
  9 16  1  0  0  0  0 
  9 27  1  0  0  0  0 
 10 28  1  0  0  0  0 
 10 16  2  0  0  0  0 
 11 30  1  0  0  0  0 
 11 13  1  0  0  0  0 
 12 17  1  0  0  0  0 
 12 14  1  0  0  0  0 
 13 34  1  0  0  0  0 
 13 33  1  0  0  0  0 
 14 18  1  0  0  0  0 
 14 36  1  0  0  0  0 
 15  8  1  0  0  0  0 
 16 18  1  0  0  0  0 
 17 11  1  0  0  0  0 
 17 15  1  0  0  0  0 
 18 13  1  0  0  0  0 
 20  2  1  0  0  0  0 
 21  3  1  0  0  0  0 
 23  5  1  0  0  0  0 
 24  6  1  0  0  0  0 
 25  7  1  0  0  0  0 
 29 11  1  0  0  0  0 
 31 12  1  0  0  0  0 
 32 12  1  0  0  0  0 
 35 14  1  0  0  0  0 
M  END 
>  <HBA> 
2 
 
>  <HBD> 
0 
 
>  <TPSA> 
6.48 
 
>  <cid> 
69173 
 
>  <dipole> 
0.15 
 
>  <excitation_energy_1> 
4.077 
 
>  <excitation_energy_2> 
4.117 
 
>  <excitation_energy_3> 
4.213 
 
>  <excitation_energy_4> 
4.406 
 
>  <homo_energy> 
-4.789 
 
>  <homo_lumo_gap> 
4.904 
 
>  <logP> 
3.143 
 
>  <lumo_energy> 
0.114 
 
>  <melting_point> 
70.48 
 
>  <molecular_refractivity> 
82.94 
 
>  <oscillator_strength_1> 
0.0085 
 
>  <oscillator_strength_2> 
0.0211 
 
>  <oscillator_strength_3> 
0.0004 
 
>  <oscillator_strength_4> 
0.2801 
 
>  <open_babel_can_smiles> 
c1ccc(cc1)N1CCN(CC1)c1ccccc1 
 
>  <mulliken_charges> 
36 
1   -0.136415 
2   -0.136316 
3   -0.134506 
4   -0.137806 
5   -0.134255 
6   -0.137628 
7   -0.179822 
8   -0.192121 
9   -0.18061 
10   -0.192866 
11   -0.159459 
12   -0.156151 
13   -0.159162 
14   -0.156239 
15   0.332406 
16   0.333696 
17   -0.47611 
18   -0.476296 
19   0.121512 
20   0.121477 
21   0.124933 
22   0.124697 
23   0.124865 
24   0.124601 
25   0.127517 
26   0.121205 
27   0.127492 
28   0.121119 
29   0.156397 
30   0.156182 
31   0.153981 
32   0.153646 
33   0.156476 
34   0.156006 
35   0.153979 
36   0.153573 
 
>  <lowdin_charges> 
36 
1   -0.18523 
2   -0.184369 
3   -0.149121 
4   -0.148142 
5   -0.149351 
6   -0.147369 
7   -0.196655 
8   -0.212692 
9   -0.196254 
10   -0.212771 
11   -0.21601 
12   -0.210109 
13   -0.216169 
14   -0.210317 
15   0.056471 
16   0.057163 
17   -0.135434 
18   -0.135354 
19   0.15464 
20   0.154521 
21   0.156545 
22   0.156171 
23   0.156304 
24   0.155093 
25   0.156819 
26   0.155668 
27   0.155975 
28   0.155365 
29   0.151035 
30   0.158615 
31   0.158877 
32   0.148585 
33   0.150871 
34   0.158362 
35   0.159217 
36   0.149051 
 
$$$$ 
 
