PCCDB-ID:  71632 
public computational chemistry database (PCCDB) project, http://pccdb.org 
 
 32 32  0  0  1  0  0  0  0  0999 V2000 
    5.1372    0.7122    2.0655 C   0  0  0  0  0  0  0  0  0  0  0  0 
    3.5907    1.7027   -1.9809 C   0  0  0  0  0  0  0  0  0  0  0  0 
    4.2938    1.2024    0.8905 C   0  0  0  0  0  0  0  0  0  0  0  0 
    1.0896   -0.9541   -3.2733 C   0  0  0  0  0  0  0  0  0  0  0  0 
    0.2746   -0.8799   -4.4056 C   0  0  0  0  0  0  0  0  0  0  0  0 
    3.0191   -0.5656   -4.6553 C   0  0  0  0  0  0  0  0  0  0  0  0 
    3.2418    0.4095   -1.2425 C   0  0  1  0  0  0  0  0  0  0  0  0 
    2.4715   -0.7903   -3.3865 C   0  0  0  0  0  0  0  0  0  0  0  0 
    0.8205   -0.6542   -5.6681 C   0  0  0  0  0  0  0  0  0  0  0  0 
    2.2145   -0.5003   -5.7906 C   0  0  0  0  0  0  0  0  0  0  0  0 
    3.3552   -0.8456   -2.1574 C   0  0  1  0  0  0  0  0  0  0  0  0 
    4.1802    0.1560   -0.1313 N   0  0  0  0  0  0  0  0  0  0  0  0 
    0.0757   -0.5813   -6.8136 O   0  0  0  0  0  0  0  0  0  0  0  0 
    2.7124   -0.2913   -7.0470 O   0  0  0  0  0  0  0  0  0  0  0  0 
    4.7108   -1.0240   -2.5346 O   0  0  0  0  0  0  0  0  0  0  0  0 
    5.2579    1.5037    2.8128 H   0  0  0  0  0  0  0  0  0  0  0  0 
    6.1305    0.4018    1.7244 H   0  0  0  0  0  0  0  0  0  0  0  0 
    4.6667   -0.1452    2.5639 H   0  0  0  0  0  0  0  0  0  0  0  0 
    2.9347    1.8250   -2.8469 H   0  0  0  0  0  0  0  0  0  0  0  0 
    4.6262    1.6770   -2.3352 H   0  0  0  0  0  0  0  0  0  0  0  0 
    3.4635    2.5799   -1.3394 H   0  0  0  0  0  0  0  0  0  0  0  0 
    4.7748    2.0770    0.4409 H   0  0  0  0  0  0  0  0  0  0  0  0 
    3.3044    1.5364    1.2552 H   0  0  0  0  0  0  0  0  0  0  0  0 
    0.6372   -1.1479   -2.3037 H   0  0  0  0  0  0  0  0  0  0  0  0 
   -0.8023   -1.0118   -4.3110 H   0  0  0  0  0  0  0  0  0  0  0  0 
    4.0965   -0.4586   -4.7486 H   0  0  0  0  0  0  0  0  0  0  0  0 
    2.1977    0.4801   -0.8866 H   0  0  0  0  0  0  0  0  0  0  0  0 
    3.0237   -1.7073   -1.5452 H   0  0  0  0  0  0  0  0  0  0  0  0 
    3.8809   -0.7023    0.3351 H   0  0  0  0  0  0  0  0  0  0  0  0 
   -0.8555   -0.7164   -6.5799 H   0  0  0  0  0  0  0  0  0  0  0  0 
    3.6779   -0.2283   -6.9807 H   0  0  0  0  0  0  0  0  0  0  0  0 
    5.2113   -0.7350   -1.7450 H   0  0  0  0  0  0  0  0  0  0  0  0 
  1 18  1  0  0  0  0 
  1 16  1  0  0  0  0 
  2 21  1  0  0  0  0 
  2  7  1  0  0  0  0 
  3 23  1  0  0  0  0 
  3  1  1  0  0  0  0 
  4 24  1  0  0  0  0 
  5 25  1  0  0  0  0 
  5  4  2  0  0  0  0 
  6  8  2  0  0  0  0 
  7 27  1  1  0  0  0 
  7 12  1  0  0  0  0 
  8  4  1  0  0  0  0 
  8 11  1  0  0  0  0 
  9  5  1  0  0  0  0 
 10  9  2  0  0  0  0 
 10  6  1  0  0  0  0 
 11 28  1  1  0  0  0 
 11  7  1  0  0  0  0 
 12 29  1  0  0  0  0 
 12  3  1  0  0  0  0 
 13 30  1  0  0  0  0 
 13  9  1  0  0  0  0 
 14 31  1  0  0  0  0 
 14 10  1  0  0  0  0 
 15 11  1  0  0  0  0 
 15 32  1  0  0  0  0 
 17  1  1  0  0  0  0 
 19  2  1  0  0  0  0 
 20  2  1  0  0  0  0 
 22  3  1  0  0  0  0 
 26  6  1  0  0  0  0 
M  END 
>  <HBA> 
4 
 
>  <HBD> 
4 
 
>  <TPSA> 
72.72 
 
>  <cid> 
71632 
 
>  <dipole> 
3.69 
 
>  <excitation_energy_1> 
4.763 
 
>  <excitation_energy_2> 
4.826 
 
>  <excitation_energy_3> 
5.057 
 
>  <excitation_energy_4> 
5.094 
 
>  <homo_energy> 
-5.361 
 
>  <homo_lumo_gap> 
5.706 
 
>  <logP> 
1.52 
 
>  <lumo_energy> 
0.346 
 
>  <melting_point> 
132.24 
 
>  <molecular_refractivity> 
58.65 
 
>  <oscillator_strength_1> 
0.0003 
 
>  <oscillator_strength_2> 
0.0568 
 
>  <oscillator_strength_3> 
0.0098 
 
>  <oscillator_strength_4> 
0.0006 
 
>  <open_babel_can_smiles> 
CCN[C@H]([C@@H](c1ccc(c(c1)O)O)O)C 
 
>  <mulliken_charges> 
32 
1   -0.45804 
2   -0.456562 
3   -0.107601 
4   -0.194818 
5   -0.201863 
6   -0.251941 
7   0.02881 
8   0.122665 
9   0.319235 
10   0.328274 
11   0.085706 
12   -0.58686 
13   -0.634174 
14   -0.636537 
15   -0.654176 
16   0.151023 
17   0.159675 
18   0.141287 
19   0.166163 
20   0.153291 
21   0.144492 
22   0.153432 
23   0.118087 
24   0.115466 
25   0.115234 
26   0.145116 
27   0.11204 
28   0.108951 
29   0.296562 
30   0.405149 
31   0.408021 
32   0.403892 
 
>  <lowdin_charges> 
32 
1   -0.449468 
2   -0.454795 
3   -0.199443 
4   -0.183119 
5   -0.204013 
6   -0.205225 
7   -0.077939 
8   -0.022086 
9   0.072815 
10   0.077915 
11   -0.001309 
12   -0.368135 
13   -0.370094 
14   -0.369477 
15   -0.469671 
16   0.157073 
17   0.155886 
18   0.146758 
19   0.165813 
20   0.154126 
21   0.151306 
22   0.148645 
23   0.121131 
24   0.152378 
25   0.150355 
26   0.166989 
27   0.122553 
28   0.125104 
29   0.252862 
30   0.355706 
31   0.356351 
32   0.341008 
 
$$$$ 
 
