PCCDB-ID:  10301 
public computational chemistry database (PCCDB) project, http://pccdb.org 
 
 18 19  0  0  0  0  0  0  0  0999 V2000 
    2.3803    0.7014    0.0169 C   0  0  0  0  0  0  0  0  0  0  0  0 
    2.3824   -0.6959   -0.0169 C   0  0  0  0  0  0  0  0  0  0  0  0 
    1.1724    1.3971    0.0245 C   0  0  0  0  0  0  0  0  0  0  0  0 
    1.1765   -1.3952   -0.0243 C   0  0  0  0  0  0  0  0  0  0  0  0 
   -2.3556    0.6641   -0.3609 C   0  0  0  0  0  0  0  0  0  0  0  0 
   -2.3534   -0.6728    0.3637 C   0  0  0  0  0  0  0  0  0  0  0  0 
   -0.0372    0.7018    0.0062 C   0  0  0  0  0  0  0  0  0  0  0  0 
   -0.0352   -0.7036   -0.0049 C   0  0  0  0  0  0  0  0  0  0  0  0 
   -1.2075    1.4257    0.0092 O   0  0  0  0  0  0  0  0  0  0  0  0 
   -1.2032   -1.4309   -0.0069 O   0  0  0  0  0  0  0  0  0  0  0  0 
    3.3168    1.2512    0.0299 H   0  0  0  0  0  0  0  0  0  0  0  0 
    3.3205   -1.2429   -0.0303 H   0  0  0  0  0  0  0  0  0  0  0  0 
    1.1401    2.4824    0.0387 H   0  0  0  0  0  0  0  0  0  0  0  0 
    1.1475   -2.4805   -0.0391 H   0  0  0  0  0  0  0  0  0  0  0  0 
   -3.2265    1.2655   -0.0865 H   0  0  0  0  0  0  0  0  0  0  0  0 
   -2.3609    0.4997   -1.4477 H   0  0  0  0  0  0  0  0  0  0  0  0 
   -3.2226   -1.2767    0.0896 H   0  0  0  0  0  0  0  0  0  0  0  0 
   -2.3587   -0.5084    1.4504 H   0  0  0  0  0  0  0  0  0  0  0  0 
  1  3  2  0  0  0  0 
  1 11  1  0  0  0  0 
  2  1  1  0  0  0  0 
  3 13  1  0  0  0  0 
  4  2  2  0  0  0  0 
  4  8  1  0  0  0  0 
  5 15  1  0  0  0  0 
  5  9  1  0  0  0  0 
  5  6  1  0  0  0  0 
  6 18  1  0  0  0  0 
  7  9  1  0  0  0  0 
  7  3  1  0  0  0  0 
  8  7  2  0  0  0  0 
 10  8  1  0  0  0  0 
 10  6  1  0  0  0  0 
 12  2  1  0  0  0  0 
 14  4  1  0  0  0  0 
 16  5  1  0  0  0  0 
 17  6  1  0  0  0  0 
M  END 
>  <HBA> 
2 
 
>  <HBD> 
0 
 
>  <TPSA> 
18.46 
 
>  <cid> 
10301 
 
>  <dipole> 
1.49 
 
>  <excitation_energy_1> 
4.894 
 
>  <excitation_energy_2> 
5.286 
 
>  <excitation_energy_3> 
5.616 
 
>  <excitation_energy_4> 
5.662 
 
>  <homo_energy> 
-5.649 
 
>  <homo_lumo_gap> 
5.837 
 
>  <logP> 
1.458 
 
>  <lumo_energy> 
0.188 
 
>  <melting_point> 
37.11 
 
>  <molecular_refractivity> 
37.31 
 
>  <oscillator_strength_1> 
0.0396 
 
>  <oscillator_strength_2> 
0.0082 
 
>  <oscillator_strength_3> 
0.0053 
 
>  <oscillator_strength_4> 
0.0045 
 
>  <open_babel_can_smiles> 
C1COc2c(O1)cccc2 
 
>  <mulliken_charges> 
18 
1   -0.137825 
2   -0.137976 
3   -0.189851 
4   -0.189836 
5   -0.059303 
6   -0.05931 
7   0.327992 
8   0.328069 
9   -0.522047 
10   -0.522055 
11   0.127142 
12   0.127142 
13   0.138231 
14   0.138242 
15   0.157849 
16   0.157844 
17   0.157844 
18   0.157847 
 
>  <lowdin_charges> 
18 
1   -0.166922 
2   -0.166901 
3   -0.173843 
4   -0.173841 
5   -0.139471 
6   -0.139477 
7   0.059693 
8   0.059686 
9   -0.209468 
10   -0.209455 
11   0.15833 
12   0.158314 
13   0.164787 
14   0.164785 
15   0.161092 
16   0.145796 
17   0.161097 
18   0.145798 
 
$$$$ 
 
