PCCDB-ID:  9268 
public computational chemistry database (PCCDB) project, http://pccdb.org 
 
 36 36  0  0  0  0  0  0  0  0999 V2000 
   -2.4778   -0.8950    0.3751 C   0  0  0  0  0  0  0  0  0  0  0  0 
   -2.5935    0.4644   -0.3771 C   0  0  0  0  0  0  0  0  0  0  0  0 
   -1.6971   -2.0129   -0.3785 C   0  0  0  0  0  0  0  0  0  0  0  0 
   -2.0123    1.6969    0.3786 C   0  0  0  0  0  0  0  0  0  0  0  0 
   -0.4642   -2.5927    0.3775 C   0  0  0  0  0  0  0  0  0  0  0  0 
   -0.8945    2.4770   -0.3758 C   0  0  0  0  0  0  0  0  0  0  0  0 
    0.8949   -2.4782   -0.3756 C   0  0  0  0  0  0  0  0  0  0  0  0 
    0.4645    2.5946    0.3768 C   0  0  0  0  0  0  0  0  0  0  0  0 
    2.0140   -1.6985    0.3775 C   0  0  0  0  0  0  0  0  0  0  0  0 
    1.6978    2.0137   -0.3777 C   0  0  0  0  0  0  0  0  0  0  0  0 
    2.5923   -0.4643   -0.3776 C   0  0  0  0  0  0  0  0  0  0  0  0 
    2.4758    0.8941    0.3763 C   0  0  0  0  0  0  0  0  0  0  0  0 
   -3.4826   -1.2588    0.6215 H   0  0  0  0  0  0  0  0  0  0  0  0 
   -1.9934   -0.7200    1.3434 H   0  0  0  0  0  0  0  0  0  0  0  0 
   -3.6455    0.6535   -0.6227 H   0  0  0  0  0  0  0  0  0  0  0  0 
   -2.0871    0.3753   -1.3460 H   0  0  0  0  0  0  0  0  0  0  0  0 
   -1.3622   -1.6178   -1.3453 H   0  0  0  0  0  0  0  0  0  0  0  0 
   -2.3855   -2.8294   -0.6279 H   0  0  0  0  0  0  0  0  0  0  0  0 
   -1.6166    1.3616    1.3450 H   0  0  0  0  0  0  0  0  0  0  0  0 
   -2.8282    2.3857    0.6287 H   0  0  0  0  0  0  0  0  0  0  0  0 
   -0.6531   -3.6442    0.6250 H   0  0  0  0  0  0  0  0  0  0  0  0 
   -0.3746   -2.0847    1.3455 H   0  0  0  0  0  0  0  0  0  0  0  0 
   -1.2587    3.4812   -0.6239 H   0  0  0  0  0  0  0  0  0  0  0  0 
   -0.7188    1.9911   -1.3432 H   0  0  0  0  0  0  0  0  0  0  0  0 
    0.7198   -1.9936   -1.3437 H   0  0  0  0  0  0  0  0  0  0  0  0 
    1.2577   -3.4833   -0.6222 H   0  0  0  0  0  0  0  0  0  0  0  0 
    0.3754    2.0892    1.3462 H   0  0  0  0  0  0  0  0  0  0  0  0 
    0.6527    3.6470    0.6214 H   0  0  0  0  0  0  0  0  0  0  0  0 
    2.8310   -2.3871    0.6245 H   0  0  0  0  0  0  0  0  0  0  0  0 
    1.6203   -1.3651    1.3453 H   0  0  0  0  0  0  0  0  0  0  0  0 
    2.3876    2.8294   -0.6255 H   0  0  0  0  0  0  0  0  0  0  0  0 
    1.3638    1.6196   -1.3452 H   0  0  0  0  0  0  0  0  0  0  0  0 
    2.0844   -0.3748   -1.3457 H   0  0  0  0  0  0  0  0  0  0  0  0 
    3.6442   -0.6517   -0.6249 H   0  0  0  0  0  0  0  0  0  0  0  0 
    1.9889    0.7181    1.3431 H   0  0  0  0  0  0  0  0  0  0  0  0 
    3.4803    1.2568    0.6256 H   0  0  0  0  0  0  0  0  0  0  0  0 
  1 13  1  0  0  0  0 
  1 14  1  0  0  0  0 
  2  1  1  0  0  0  0 
  2  4  1  0  0  0  0 
  3  1  1  0  0  0  0 
  3  5  1  0  0  0  0 
  4 20  1  0  0  0  0 
  4 19  1  0  0  0  0 
  5 21  1  0  0  0  0 
  5 22  1  0  0  0  0 
  6  8  1  0  0  0  0 
  6  4  1  0  0  0  0 
  7  5  1  0  0  0  0 
  7  9  1  0  0  0  0 
  8 28  1  0  0  0  0 
  8 27  1  0  0  0  0 
  9 29  1  0  0  0  0 
  9 30  1  0  0  0  0 
 10 12  1  0  0  0  0 
 10  8  1  0  0  0  0 
 11 12  1  0  0  0  0 
 11  9  1  0  0  0  0 
 12 36  1  0  0  0  0 
 12 35  1  0  0  0  0 
 15  2  1  0  0  0  0 
 16  2  1  0  0  0  0 
 17  3  1  0  0  0  0 
 18  3  1  0  0  0  0 
 23  6  1  0  0  0  0 
 24  6  1  0  0  0  0 
 25  7  1  0  0  0  0 
 26  7  1  0  0  0  0 
 31 10  1  0  0  0  0 
 32 10  1  0  0  0  0 
 33 11  1  0  0  0  0 
 34 11  1  0  0  0  0 
M  END 
>  <HBA> 
0 
 
>  <HBD> 
0 
 
>  <TPSA> 
0.0 
 
>  <cid> 
9268 
 
>  <dipole> 
0.0 
 
>  <excitation_energy_1> 
7.606 
 
>  <excitation_energy_2> 
7.606 
 
>  <excitation_energy_3> 
7.633 
 
>  <excitation_energy_4> 
7.633 
 
>  <homo_energy> 
-7.788 
 
>  <homo_lumo_gap> 
9.412 
 
>  <logP> 
4.681 
 
>  <lumo_energy> 
1.625 
 
>  <melting_point> 
-7.97 
 
>  <molecular_refractivity> 
57.68 
 
>  <oscillator_strength_1> 
0.003 
 
>  <oscillator_strength_2> 
0.003 
 
>  <oscillator_strength_3> 
0.0 
 
>  <oscillator_strength_4> 
0.0 
 
>  <open_babel_can_smiles> 
C1CCCCCCCCCCC1 
 
>  <mulliken_charges> 
36 
1   -0.270581 
2   -0.270311 
3   -0.27026 
4   -0.27025 
5   -0.27029 
6   -0.270582 
7   -0.270598 
8   -0.270311 
9   -0.27029 
10   -0.270286 
11   -0.270304 
12   -0.27058 
13   0.134285 
14   0.136124 
15   0.134277 
16   0.136097 
17   0.136083 
18   0.134289 
19   0.136076 
20   0.134297 
21   0.134301 
22   0.136075 
23   0.134303 
24   0.136105 
25   0.136123 
26   0.134288 
27   0.136106 
28   0.134267 
29   0.134264 
30   0.136111 
31   0.134271 
32   0.136106 
33   0.136082 
34   0.134299 
35   0.136094 
36   0.134319 
 
>  <lowdin_charges> 
36 
1   -0.281753 
2   -0.281108 
3   -0.28294 
4   -0.28295 
5   -0.281132 
6   -0.28178 
7   -0.281753 
8   -0.281089 
9   -0.282914 
10   -0.282926 
11   -0.281127 
12   -0.28179 
13   0.141972 
14   0.139725 
15   0.141214 
16   0.139636 
17   0.139838 
18   0.143423 
19   0.139838 
20   0.143428 
21   0.14123 
22   0.139633 
23   0.141989 
24   0.139724 
25   0.139727 
26   0.141971 
27   0.139639 
28   0.141204 
29   0.143408 
30   0.13984 
31   0.143415 
32   0.139841 
33   0.139634 
34   0.141223 
35   0.13972 
36   0.14199 
 
$$$$ 
 
