PCCDB-ID:  26086 
public computational chemistry database (PCCDB) project, http://pccdb.org 
 
 20 19  0  0  0  0  0  0  0  0999 V2000 
    1.6880    1.5877    1.2333 C   0  0  0  0  0  0  0  0  0  0  0  0 
    2.9996    1.9360   -0.8114 C   0  0  0  0  0  0  0  0  0  0  0  0 
    0.7163    0.5835    1.8565 C   0  0  0  0  0  0  0  0  0  0  0  0 
    3.3976    1.2984   -2.1370 C   0  0  0  0  0  0  0  0  0  0  0  0 
    3.3623    0.0013    0.4897 N   0  0  0  0  0  0  0  0  0  0  0  0 
    2.3782    0.9665    0.0941 N   0  0  0  0  0  0  0  0  0  0  0  0 
   -0.1590    0.0658    0.8732 O   0  0  0  0  0  0  0  0  0  0  0  0 
    3.9262    2.3442   -2.9489 O   0  0  0  0  0  0  0  0  0  0  0  0 
    2.4008    1.9688    1.9902 H   0  0  0  0  0  0  0  0  0  0  0  0 
    1.1138    2.4387    0.8518 H   0  0  0  0  0  0  0  0  0  0  0  0 
    2.2699    2.7275   -1.0113 H   0  0  0  0  0  0  0  0  0  0  0  0 
    3.8872    2.4120   -0.3588 H   0  0  0  0  0  0  0  0  0  0  0  0 
    0.1107    1.0765    2.6248 H   0  0  0  0  0  0  0  0  0  0  0  0 
    1.2793   -0.2238    2.3578 H   0  0  0  0  0  0  0  0  0  0  0  0 
    2.5076    0.8383   -2.5950 H   0  0  0  0  0  0  0  0  0  0  0  0 
    4.1353    0.5063   -1.9574 H   0  0  0  0  0  0  0  0  0  0  0  0 
    2.8764   -0.8505    0.7615 H   0  0  0  0  0  0  0  0  0  0  0  0 
    3.8658    0.3388    1.3199 H   0  0  0  0  0  0  0  0  0  0  0  0 
    0.3868    0.0085    0.0661 H   0  0  0  0  0  0  0  0  0  0  0  0 
    4.2628    1.9435   -3.7636 H   0  0  0  0  0  0  0  0  0  0  0  0 
  1  3  1  0  0  0  0 
  1  9  1  0  0  0  0 
  2 12  1  0  0  0  0 
  2  6  1  0  0  0  0 
  3 14  1  0  0  0  0 
  3 13  1  0  0  0  0 
  4 16  1  0  0  0  0 
  4  2  1  0  0  0  0 
  5 17  1  0  0  0  0 
  5 18  1  0  0  0  0 
  6  5  1  0  0  0  0 
  6  1  1  0  0  0  0 
  7  3  1  0  0  0  0 
  8  4  1  0  0  0  0 
 10  1  1  0  0  0  0 
 11  2  1  0  0  0  0 
 15  4  1  0  0  0  0 
 19  7  1  0  0  0  0 
 20  8  1  0  0  0  0 
M  END 
>  <HBA> 
4 
 
>  <HBD> 
3 
 
>  <TPSA> 
69.72 
 
>  <cid> 
26086 
 
>  <dipole> 
1.86 
 
>  <excitation_energy_1> 
5.987 
 
>  <excitation_energy_2> 
6.175 
 
>  <excitation_energy_3> 
6.351 
 
>  <excitation_energy_4> 
6.408 
 
>  <homo_energy> 
-6.517 
 
>  <homo_lumo_gap> 
8.15 
 
>  <logP> 
-1.153 
 
>  <lumo_energy> 
1.633 
 
>  <melting_point> 
68.89 
 
>  <molecular_refractivity> 
29.27 
 
>  <oscillator_strength_1> 
0.0219 
 
>  <oscillator_strength_2> 
0.0123 
 
>  <oscillator_strength_3> 
0.0194 
 
>  <oscillator_strength_4> 
0.0146 
 
>  <open_babel_can_smiles> 
OCCN(CCO)N 
 
>  <mulliken_charges> 
20 
1   -0.150763 
2   -0.100765 
3   -0.016544 
4   -0.033212 
5   -0.57768 
6   -0.338799 
7   -0.629527 
8   -0.625646 
9   0.115249 
10   0.156671 
11   0.153401 
12   0.128512 
13   0.145277 
14   0.104457 
15   0.119473 
16   0.148714 
17   0.322295 
18   0.286238 
19   0.398495 
20   0.394155 
 
>  <lowdin_charges> 
20 
1   -0.235181 
2   -0.20663 
3   -0.144162 
4   -0.141872 
5   -0.470329 
6   -0.139674 
7   -0.475336 
8   -0.4756 
9   0.125892 
10   0.156048 
11   0.154099 
12   0.131154 
13   0.150255 
14   0.117378 
15   0.127033 
16   0.14177 
17   0.262862 
18   0.238509 
19   0.337141 
20   0.346643 
 
$$$$ 
 
