PCCDB-ID:  31341 
public computational chemistry database (PCCDB) project, http://pccdb.org 
 
 31 33  0  0  1  0  0  0  0  0999 V2000 
    2.2706    0.6309    0.3016 C   0  0  0  0  0  0  0  0  0  0  0  0 
    2.2671   -0.6817    0.0616 C   0  0  0  0  0  0  0  0  0  0  0  0 
   -2.8824    1.6800   -2.0866 C   0  0  0  0  0  0  0  0  0  0  0  0 
   -3.2992    0.4358   -2.3624 C   0  0  0  0  0  0  0  0  0  0  0  0 
    1.0497    1.4336    0.6620 C   0  0  0  0  0  0  0  0  0  0  0  0 
   -1.8606    2.0134   -1.0175 C   0  0  0  0  0  0  0  0  0  0  0  0 
    1.0191   -1.5227    0.0599 C   0  0  0  0  0  0  0  0  0  0  0  0 
   -2.8461   -0.8095   -1.6231 C   0  0  0  0  0  0  0  0  0  0  0  0 
   -3.2523    0.0277    0.6950 C   0  0  0  0  0  0  0  0  0  0  0  0 
   -0.2811    0.6510    0.6680 C   0  0  1  0  0  0  0  0  0  0  0  0 
   -1.1534    0.7283   -0.5913 C   0  0  1  0  0  0  0  0  0  0  0  0 
   -0.1613   -0.8896    0.8193 C   0  0  1  0  0  0  0  0  0  0  0  0 
   -2.1652   -0.4060   -0.3102 C   0  0  2  0  0  0  0  0  0  0  0  0 
   -3.1310   -0.0622    1.8960 O   0  0  0  0  0  0  0  0  0  0  0  0 
   -1.3895   -1.4411    0.2775 O   0  0  0  0  0  0  0  0  0  0  0  0 
    3.2104    1.1807    0.2654 H   0  0  0  0  0  0  0  0  0  0  0  0 
    3.2019   -1.1858   -0.1793 H   0  0  0  0  0  0  0  0  0  0  0  0 
   -3.2841    2.5123   -2.6624 H   0  0  0  0  0  0  0  0  0  0  0  0 
   -4.0266    0.2873   -3.1589 H   0  0  0  0  0  0  0  0  0  0  0  0 
    0.9665    2.2979   -0.0143 H   0  0  0  0  0  0  0  0  0  0  0  0 
    1.2119    1.8766    1.6558 H   0  0  0  0  0  0  0  0  0  0  0  0 
   -2.3467    2.5095   -0.1624 H   0  0  0  0  0  0  0  0  0  0  0  0 
   -1.1384    2.7417   -1.4104 H   0  0  0  0  0  0  0  0  0  0  0  0 
    1.2247   -2.5171    0.4768 H   0  0  0  0  0  0  0  0  0  0  0  0 
    0.7022   -1.7062   -0.9769 H   0  0  0  0  0  0  0  0  0  0  0  0 
   -2.1360   -1.3910   -2.2262 H   0  0  0  0  0  0  0  0  0  0  0  0 
   -3.7041   -1.4721   -1.4412 H   0  0  0  0  0  0  0  0  0  0  0  0 
   -4.1877    0.4294    0.2471 H   0  0  0  0  0  0  0  0  0  0  0  0 
   -0.8820    1.0126    1.5093 H   0  0  0  0  0  0  0  0  0  0  0  0 
   -0.5536    0.3910   -1.4498 H   0  0  0  0  0  0  0  0  0  0  0  0 
   -0.1138   -1.1675    1.8769 H   0  0  0  0  0  0  0  0  0  0  0  0 
  1  5  1  0  0  0  0 
  2  1  2  0  0  0  0 
  3  6  1  0  0  0  0 
  4  3  2  0  0  0  0 
  4  8  1  0  0  0  0 
  5 10  1  0  0  0  0 
  5 21  1  0  0  0  0 
  6 11  1  0  0  0  0 
  6 22  1  0  0  0  0 
  7  2  1  0  0  0  0 
  7 24  1  0  0  0  0 
  7 12  1  0  0  0  0 
  8 27  1  0  0  0  0 
  8 13  1  0  0  0  0 
  9 14  2  0  0  0  0 
 10 12  1  0  0  0  0 
 10 29  1  1  0  0  0 
 11 30  1  6  0  0  0 
 11 13  1  0  0  0  0 
 11 10  1  0  0  0  0 
 12 31  1  1  0  0  0 
 13 15  1  0  0  0  0 
 13  9  1  1  0  0  0 
 15 12  1  0  0  0  0 
 16  1  1  0  0  0  0 
 17  2  1  0  0  0  0 
 18  3  1  0  0  0  0 
 19  4  1  0  0  0  0 
 20  5  1  0  0  0  0 
 23  6  1  0  0  0  0 
 25  7  1  0  0  0  0 
 26  8  1  0  0  0  0 
 28  9  1  0  0  0  0 
M  END 
>  <HBA> 
2 
 
>  <HBD> 
0 
 
>  <TPSA> 
26.3 
 
>  <cid> 
31341 
 
>  <dipole> 
3.13 
 
>  <excitation_energy_1> 
3.89 
 
>  <excitation_energy_2> 
5.061 
 
>  <excitation_energy_3> 
5.074 
 
>  <excitation_energy_4> 
5.283 
 
>  <homo_energy> 
-6.338 
 
>  <homo_lumo_gap> 
5.587 
 
>  <logP> 
2.255 
 
>  <lumo_energy> 
-0.751 
 
>  <melting_point> 
89.9 
 
>  <molecular_refractivity> 
58.64 
 
>  <oscillator_strength_1> 
0.0004 
 
>  <oscillator_strength_2> 
0.0023 
 
>  <oscillator_strength_3> 
0.0003 
 
>  <oscillator_strength_4> 
0.01 
 
>  <open_babel_can_smiles> 
O=C[C@]12CC=CC[C@H]2[C@H]2[C@@H](O1)CC=CC2 
 
>  <mulliken_charges> 
31 
1   -0.105265 
2   -0.11288 
3   -0.107138 
4   -0.119324 
5   -0.320613 
6   -0.323378 
7   -0.317066 
8   -0.340223 
9   0.237145 
10   -0.152199 
11   -0.141678 
12   0.157258 
13   0.286573 
14   -0.387184 
15   -0.552837 
16   0.121829 
17   0.122618 
18   0.129734 
19   0.131302 
20   0.146648 
21   0.153105 
22   0.155383 
23   0.151905 
24   0.150129 
25   0.153668 
26   0.167523 
27   0.154627 
28   0.114006 
29   0.153602 
30   0.148274 
31   0.144454 
 
>  <lowdin_charges> 
31 
1   -0.17725 
2   -0.178083 
3   -0.173439 
4   -0.176122 
5   -0.275465 
6   -0.282849 
7   -0.28795 
8   -0.282547 
9   0.035687 
10   -0.148798 
11   -0.13314 
12   0.011443 
13   0.079168 
14   -0.205679 
15   -0.26129 
16   0.152724 
17   0.153433 
18   0.15739 
19   0.157843 
20   0.152465 
21   0.155444 
22   0.154583 
23   0.156912 
24   0.155734 
25   0.153961 
26   0.166947 
27   0.156688 
28   0.125041 
29   0.158215 
30   0.151665 
31   0.14727 
 
$$$$ 
 
