PCCDB-ID:  38263 
public computational chemistry database (PCCDB) project, http://pccdb.org 
 
 14 13  0  0  1  0  0  0  0  0999 V2000 
    1.2593   -0.9535    0.2390 C   0  0  0  0  0  0  0  0  0  0  0  0 
    2.2258    0.1967    0.0972 C   0  0  1  0  0  0  0  0  0  0  0  0 
    1.7397    0.8547   -2.1023 C   0  0  0  0  0  0  0  0  0  0  0  0 
    1.4962   -0.2891   -2.6409 N   0  0  0  0  0  0  0  0  0  0  0  0 
    1.4187    2.1038   -2.6229 N   0  0  0  0  0  0  0  0  0  0  0  0 
    2.4047    0.9961   -0.8773 N   0  0  0  0  0  0  0  0  0  0  0  0 
    3.0136    0.4206    1.1835 O   0  0  0  0  0  0  0  0  0  0  0  0 
    0.5639   -0.9831   -0.5977 H   0  0  0  0  0  0  0  0  0  0  0  0 
    0.7185   -0.8736    1.1910 H   0  0  0  0  0  0  0  0  0  0  0  0 
    1.8121   -1.9010    0.2368 H   0  0  0  0  0  0  0  0  0  0  0  0 
    1.0575   -0.1664   -3.5581 H   0  0  0  0  0  0  0  0  0  0  0  0 
    1.2692    2.1497   -3.6223 H   0  0  0  0  0  0  0  0  0  0  0  0 
    1.9756    2.8639   -2.2536 H   0  0  0  0  0  0  0  0  0  0  0  0 
    2.7907   -0.2232    1.8739 H   0  0  0  0  0  0  0  0  0  0  0  0 
  1  9  1  0  0  0  0 
  2  6  1  1  0  0  0 
  2  1  1  0  0  0  0 
  2  7  1  0  0  0  0 
  3  6  2  3  0  0  0 
  4  3  1  0  0  0  0 
  5 13  1  0  0  0  0 
  5  3  1  0  0  0  0 
  7 14  1  0  0  0  0 
  8  1  1  0  0  0  0 
 10  1  1  0  0  0  0 
 11  4  1  0  0  0  0 
 12  5  1  0  0  0  0 
M  RAD  2   2   2   4   2 
M  END 
>  <HBA> 
4 
 
>  <HBD> 
2 
 
>  <TPSA> 
81.47 
 
>  <cid> 
38263 
 
>  <dipole> 
1.4 
 
>  <excitation_energy_1> 
5.195 
 
>  <excitation_energy_2> 
5.51 
 
>  <excitation_energy_3> 
5.559 
 
>  <excitation_energy_4> 
5.701 
 
>  <homo_energy> 
-6.182 
 
>  <homo_lumo_gap> 
6.025 
 
>  <logP> 
0.207 
 
>  <lumo_energy> 
-0.158 
 
>  <melting_point> 
123.18 
 
>  <molecular_refractivity> 
25.83 
 
>  <oscillator_strength_1> 
0.0384 
 
>  <oscillator_strength_2> 
0.0126 
 
>  <oscillator_strength_3> 
0.0043 
 
>  <oscillator_strength_4> 
0.0239 
 
>  <open_babel_can_smiles> 
C[C](/N=C(\[NH])/N)O 
 
>  <mulliken_charges> 
14 
1   -0.537018 
2   0.51252 
3   0.539509 
4   -0.633788 
5   -0.73666 
6   -0.461903 
7   -0.564168 
8   0.219433 
9   0.151375 
10   0.18478 
11   0.262438 
12   0.31703 
13   0.336334 
14   0.410118 
 
>  <lowdin_charges> 
14 
1   -0.481918 
2   0.17594 
3   0.128794 
4   -0.468947 
5   -0.491572 
6   -0.205852 
7   -0.352089 
8   0.197447 
9   0.157579 
10   0.178267 
11   0.243405 
12   0.272605 
13   0.287847 
14   0.358495 
 
$$$$ 
 
