PCCDB-ID:  39540 
public computational chemistry database (PCCDB) project, http://pccdb.org 
 
 24 25  0  0  1  0  0  0  0  0999 V2000 
    1.0752   -0.1338    0.6300 C   0  0  0  0  0  0  0  0  0  0  0  0 
    2.2463    2.5516    1.0841 C   0  0  0  0  0  0  0  0  0  0  0  0 
    5.6232   -0.2462    0.0320 C   0  0  0  0  0  0  0  0  0  0  0  0 
    5.4224    1.1068    0.7793 C   0  0  0  0  0  0  0  0  0  0  0  0 
    3.2058   -0.5828   -0.5882 C   0  0  0  0  0  0  0  0  0  0  0  0 
    4.5613    1.2973   -1.4685 C   0  0  0  0  0  0  0  0  0  0  0  0 
    2.4382    0.2679    0.1243 C   0  0  0  0  0  0  0  0  0  0  0  0 
    2.9532    1.6240    0.4172 C   0  0  0  0  0  0  0  0  0  0  0  0 
    4.5719   -0.2010   -1.1143 C   0  0  1  0  0  0  0  0  0  0  0  0 
    4.3709    1.9005   -0.0621 C   0  0  1  0  0  0  0  0  0  0  0  0 
    0.8460   -1.1692    0.3602 H   0  0  0  0  0  0  0  0  0  0  0  0 
    0.2879    0.5066    0.2114 H   0  0  0  0  0  0  0  0  0  0  0  0 
    1.0095   -0.0437    1.7219 H   0  0  0  0  0  0  0  0  0  0  0  0 
    1.2449    2.3663    1.4598 H   0  0  0  0  0  0  0  0  0  0  0  0 
    2.6577    3.5389    1.2777 H   0  0  0  0  0  0  0  0  0  0  0  0 
    5.4841   -1.1135    0.6847 H   0  0  0  0  0  0  0  0  0  0  0  0 
    6.6333   -0.3138   -0.3908 H   0  0  0  0  0  0  0  0  0  0  0  0 
    6.3626    1.6686    0.8188 H   0  0  0  0  0  0  0  0  0  0  0  0 
    5.0863    0.9719    1.8116 H   0  0  0  0  0  0  0  0  0  0  0  0 
    2.8509   -1.5951   -0.7774 H   0  0  0  0  0  0  0  0  0  0  0  0 
    3.7638    1.5687   -2.1680 H   0  0  0  0  0  0  0  0  0  0  0  0 
    5.5223    1.6076   -1.8987 H   0  0  0  0  0  0  0  0  0  0  0  0 
    4.8520   -0.8456   -1.9544 H   0  0  0  0  0  0  0  0  0  0  0  0 
    4.5622    2.9779   -0.0270 H   0  0  0  0  0  0  0  0  0  0  0  0 
  1 13  1  0  0  0  0 
  2 15  1  0  0  0  0 
  2 14  1  0  0  0  0 
  3 16  1  0  0  0  0 
  3  4  1  0  0  0  0 
  4 18  1  0  0  0  0 
  4 19  1  0  0  0  0 
  5  7  2  0  0  0  0 
  6  9  1  0  0  0  0 
  6 10  1  0  0  0  0 
  7  8  1  0  0  0  0 
  7  1  1  0  0  0  0 
  8  2  2  0  0  0  0 
  9 23  1  6  0  0  0 
  9  5  1  0  0  0  0 
  9  3  1  0  0  0  0 
 10 24  1  1  0  0  0 
 10  8  1  0  0  0  0 
 10  4  1  0  0  0  0 
 11  1  1  0  0  0  0 
 12  1  1  0  0  0  0 
 17  3  1  0  0  0  0 
 20  5  1  0  0  0  0 
 21  6  1  0  0  0  0 
 22  6  1  0  0  0  0 
M  END 
>  <HBA> 
0 
 
>  <HBD> 
0 
 
>  <TPSA> 
0.0 
 
>  <cid> 
39540 
 
>  <dipole> 
0.55 
 
>  <excitation_energy_1> 
5.065 
 
>  <excitation_energy_2> 
5.299 
 
>  <excitation_energy_3> 
5.664 
 
>  <excitation_energy_4> 
5.727 
 
>  <homo_energy> 
-5.725 
 
>  <homo_lumo_gap> 
5.415 
 
>  <logP> 
2.919 
 
>  <lumo_energy> 
-0.31 
 
>  <melting_point> 
11.97 
 
>  <molecular_refractivity> 
45.01 
 
>  <oscillator_strength_1> 
0.3811 
 
>  <oscillator_strength_2> 
0.0075 
 
>  <oscillator_strength_3> 
0.005 
 
>  <oscillator_strength_4> 
0.0213 
 
>  <open_babel_can_smiles> 
CC1=C[C@@H]2CC[C@H](C1=C)C2 
 
>  <mulliken_charges> 
24 
1   -0.529171 
2   -0.442495 
3   -0.261319 
4   -0.266948 
5   -0.189665 
6   -0.267455 
7   0.161033 
8   0.208211 
9   -0.140085 
10   -0.192061 
11   0.150051 
12   0.157982 
13   0.156296 
14   0.134818 
15   0.132811 
16   0.139007 
17   0.133288 
18   0.137169 
19   0.145993 
20   0.119552 
21   0.143126 
22   0.128666 
23   0.120749 
24   0.120447 
 
>  <lowdin_charges> 
24 
1   -0.438531 
2   -0.366779 
3   -0.279792 
4   -0.282357 
5   -0.174674 
6   -0.276912 
7   -0.015006 
8   0.001813 
9   -0.13425 
10   -0.126401 
11   0.154503 
12   0.158474 
13   0.154505 
14   0.156057 
15   0.154568 
16   0.147764 
17   0.141332 
18   0.147009 
19   0.149357 
20   0.150078 
21   0.149574 
22   0.141589 
23   0.145032 
24   0.143048 
 
$$$$ 
 
