PCCDB-ID:  6702 
public computational chemistry database (PCCDB) project, http://pccdb.org 
 
 29 31  0  0  0  0  0  0  0  0999 V2000 
    0.9097   -0.0926    0.0286 C   0  0  0  0  0  0  0  0  0  0  0  0 
    9.6461   -2.2889    0.0763 C   0  0  0  0  0  0  0  0  0  0  0  0 
    8.9942   -3.5280    0.0818 C   0  0  0  0  0  0  0  0  0  0  0  0 
    8.9031   -1.1123    0.0648 C   0  0  0  0  0  0  0  0  0  0  0  0 
    7.6033   -3.5876    0.0758 C   0  0  0  0  0  0  0  0  0  0  0  0 
    3.1124    1.1333    0.0512 C   0  0  0  0  0  0  0  0  0  0  0  0 
    4.5108    1.1799    0.0507 C   0  0  0  0  0  0  0  0  0  0  0  0 
    2.4167   -0.0659    0.0390 C   0  0  0  0  0  0  0  0  0  0  0  0 
    7.5043   -1.1652    0.0582 C   0  0  0  0  0  0  0  0  0  0  0  0 
    6.8478   -2.4085    0.0632 C   0  0  0  0  0  0  0  0  0  0  0  0 
    5.2367   -0.0024    0.0437 C   0  0  0  0  0  0  0  0  0  0  0  0 
    4.5766   -1.2617    0.0368 C   0  0  0  0  0  0  0  0  0  0  0  0 
    3.1478   -1.2934    0.0288 C   0  0  0  0  0  0  0  0  0  0  0  0 
    6.7256    0.1017    0.0480 C   0  0  0  0  0  0  0  0  0  0  0  0 
    5.3572   -2.5061    0.0544 C   0  0  0  0  0  0  0  0  0  0  0  0 
    2.4705   -2.4723   -0.0095 N   0  0  0  0  0  0  0  0  0  0  0  0 
    7.2905    1.1918    0.0460 O   0  0  0  0  0  0  0  0  0  0  0  0 
    4.8335   -3.6326    0.0642 O   0  0  0  0  0  0  0  0  0  0  0  0 
    0.5020    0.9214    0.0035 H   0  0  0  0  0  0  0  0  0  0  0  0 
    0.5010   -0.5876    0.9217 H   0  0  0  0  0  0  0  0  0  0  0  0 
    0.5196   -0.6306   -0.8465 H   0  0  0  0  0  0  0  0  0  0  0  0 
   10.7318   -2.2456    0.0810 H   0  0  0  0  0  0  0  0  0  0  0  0 
    9.5746   -4.4466    0.0905 H   0  0  0  0  0  0  0  0  0  0  0  0 
    9.3802   -0.1378    0.0601 H   0  0  0  0  0  0  0  0  0  0  0  0 
    7.0776   -4.5363    0.0797 H   0  0  0  0  0  0  0  0  0  0  0  0 
    2.5478    2.0629    0.0569 H   0  0  0  0  0  0  0  0  0  0  0  0 
    5.0471    2.1218    0.0549 H   0  0  0  0  0  0  0  0  0  0  0  0 
    1.4754   -2.4900    0.1419 H   0  0  0  0  0  0  0  0  0  0  0  0 
    3.0179   -3.3241    0.0654 H   0  0  0  0  0  0  0  0  0  0  0  0 
  1  8  1  0  0  0  0 
  1 20  1  0  0  0  0 
  2 22  1  0  0  0  0 
  2  3  1  0  0  0  0 
  3 23  1  0  0  0  0 
  4  2  2  0  0  0  0 
  5 25  1  0  0  0  0 
  5  3  2  0  0  0  0 
  6 26  1  0  0  0  0 
  7  6  1  0  0  0  0 
  7 27  1  0  0  0  0 
  8  6  2  0  0  0  0 
  9 10  2  0  0  0  0 
  9  4  1  0  0  0  0 
 10  5  1  0  0  0  0 
 11 14  1  0  0  0  0 
 11  7  2  0  0  0  0 
 12 11  1  0  0  0  0 
 12 15  1  0  0  0  0 
 13 12  2  0  0  0  0 
 13  8  1  0  0  0  0 
 14  9  1  0  0  0  0 
 15 10  1  0  0  0  0 
 15 18  2  0  0  0  0 
 16 13  1  0  0  0  0 
 16 29  1  0  0  0  0 
 16 28  1  0  0  0  0 
 17 14  2  0  0  0  0 
 19  1  1  0  0  0  0 
 21  1  1  0  0  0  0 
 24  4  1  0  0  0  0 
M  END 
>  <HBA> 
3 
 
>  <HBD> 
1 
 
>  <TPSA> 
60.16 
 
>  <cid> 
6702 
 
>  <dipole> 
2.61 
 
>  <excitation_energy_1> 
2.72 
 
>  <excitation_energy_2> 
3.003 
 
>  <excitation_energy_3> 
3.335 
 
>  <excitation_energy_4> 
3.591 
 
>  <homo_energy> 
-5.717 
 
>  <homo_lumo_gap> 
3.167 
 
>  <logP> 
2.934 
 
>  <lumo_energy> 
-2.55 
 
>  <melting_point> 
177.88 
 
>  <molecular_refractivity> 
69.12 
 
>  <oscillator_strength_1> 
0.1395 
 
>  <oscillator_strength_2> 
0.0014 
 
>  <oscillator_strength_3> 
0.0003 
 
>  <oscillator_strength_4> 
0.0023 
 
>  <open_babel_can_smiles> 
O=C1c2ccccc2C(=O)c2c1ccc(c2N)C 
 
>  <mulliken_charges> 
29 
1   -0.561853 
2   -0.127084 
3   -0.124937 
4   -0.172471 
5   -0.175748 
6   -0.200796 
7   -0.181432 
8   0.181091 
9   0.048549 
10   0.05582 
11   0.024034 
12   0.032532 
13   0.246037 
14   0.339507 
15   0.356981 
16   -0.835066 
17   -0.485224 
18   -0.545307 
19   0.169067 
20   0.16216 
21   0.168597 
22   0.142123 
23   0.141586 
24   0.165973 
25   0.164803 
26   0.133082 
27   0.160801 
28   0.332607 
29   0.384567 
 
>  <lowdin_charges> 
29 
1   -0.447496 
2   -0.139442 
3   -0.141733 
4   -0.128528 
5   -0.132173 
6   -0.141618 
7   -0.156772 
8   -0.025458 
9   -0.037426 
10   -0.030856 
11   -0.031037 
12   -0.089877 
13   0.086165 
14   0.153716 
15   0.155838 
16   -0.454356 
17   -0.247785 
18   -0.290415 
19   0.16564 
20   0.158112 
21   0.161874 
22   0.161727 
23   0.164 
24   0.178493 
25   0.178115 
26   0.160617 
27   0.178139 
28   0.283112 
29   0.309423 
 
$$$$ 
 
