PCCDB-ID:  7970 
public computational chemistry database (PCCDB) project, http://pccdb.org 
 
 14 14  0  0  0  0  0  0  0  0999 V2000 
    0.9908   -0.1012    0.1134 C   0  0  0  0  0  0  0  0  0  0  0  0 
    4.6202    1.0596   -0.1012 C   0  0  0  0  0  0  0  0  0  0  0  0 
    3.2279    1.1079   -0.0324 C   0  0  0  0  0  0  0  0  0  0  0  0 
    5.2428   -0.1873   -0.1001 C   0  0  0  0  0  0  0  0  0  0  0  0 
    3.2373   -1.2747    0.0291 C   0  0  0  0  0  0  0  0  0  0  0  0 
    2.4983   -0.0817    0.0353 C   0  0  0  0  0  0  0  0  0  0  0  0 
    4.5699   -1.3443   -0.0362 N   0  0  0  0  0  0  0  0  0  0  0  0 
    0.5778    0.9116    0.0719 H   0  0  0  0  0  0  0  0  0  0  0  0 
    0.6439   -0.5648    1.0451 H   0  0  0  0  0  0  0  0  0  0  0  0 
    0.5540   -0.6746   -0.7131 H   0  0  0  0  0  0  0  0  0  0  0  0 
    5.2106    1.9699   -0.1546 H   0  0  0  0  0  0  0  0  0  0  0  0 
    2.7095    2.0644   -0.0308 H   0  0  0  0  0  0  0  0  0  0  0  0 
    6.3275   -0.2657   -0.1532 H   0  0  0  0  0  0  0  0  0  0  0  0 
    2.7151   -2.2309    0.0802 H   0  0  0  0  0  0  0  0  0  0  0  0 
  1  9  1  0  0  0  0 
  2  4  2  0  0  0  0 
  2  3  1  0  0  0  0 
  3 12  1  0  0  0  0 
  3  6  2  0  0  0  0 
  4  7  1  0  0  0  0 
  5  6  1  0  0  0  0 
  5 14  1  0  0  0  0 
  6  1  1  0  0  0  0 
  7  5  2  0  0  0  0 
  8  1  1  0  0  0  0 
 10  1  1  0  0  0  0 
 11  2  1  0  0  0  0 
 13  4  1  0  0  0  0 
M  END 
>  <HBA> 
1 
 
>  <HBD> 
0 
 
>  <TPSA> 
12.89 
 
>  <cid> 
7970 
 
>  <dipole> 
2.36 
 
>  <excitation_energy_1> 
4.859 
 
>  <excitation_energy_2> 
5.139 
 
>  <excitation_energy_3> 
5.377 
 
>  <excitation_energy_4> 
6.087 
 
>  <homo_energy> 
-6.768 
 
>  <homo_lumo_gap> 
6.286 
 
>  <logP> 
1.39 
 
>  <lumo_energy> 
-0.482 
 
>  <melting_point> 
22.66 
 
>  <molecular_refractivity> 
29.2 
 
>  <oscillator_strength_1> 
0.0042 
 
>  <oscillator_strength_2> 
0.0001 
 
>  <oscillator_strength_3> 
0.0383 
 
>  <oscillator_strength_4> 
0.0553 
 
>  <open_babel_can_smiles> 
Cc1cccnc1 
 
>  <mulliken_charges> 
14 
1   -0.533507 
2   -0.135413 
3   -0.151386 
4   0.034362 
5   -0.003674 
6   0.158317 
7   -0.408191 
8   0.157413 
9   0.16912 
10   0.168515 
11   0.135478 
12   0.135035 
13   0.139381 
14   0.134549 
 
>  <lowdin_charges> 
14 
1   -0.442456 
2   -0.174908 
3   -0.142662 
4   -0.093071 
5   -0.100501 
6   -0.01646 
7   -0.146881 
8   0.15793 
9   0.164819 
10   0.165326 
11   0.163613 
12   0.159016 
13   0.153291 
14   0.152944 
 
$$$$ 
 
