PCCDB-ID:  20148 
public computational chemistry database (PCCDB) project, http://pccdb.org 
 
 27 27  0  0  1  0  0  0  0  0999 V2000 
   -0.6562    1.4327    0.1994 C   0  0  0  0  0  0  0  0  0  0  0  0 
    1.2273    0.6106   -1.0748 C   0  0  0  0  0  0  0  0  0  0  0  0 
   -1.1887    0.1533    0.2375 C   0  0  0  0  0  0  0  0  0  0  0  0 
    0.7032   -0.6788   -1.0423 C   0  0  0  0  0  0  0  0  0  0  0  0 
   -1.5761   -4.8679    0.7836 C   0  0  0  0  0  0  0  0  0  0  0  0 
   -0.5088   -3.2645   -0.9148 C   0  0  0  0  0  0  0  0  0  0  0  0 
    0.5606    1.6759   -0.4603 C   0  0  0  0  0  0  0  0  0  0  0  0 
   -1.4478   -4.4432   -0.6846 C   0  0  2  0  0  0  0  0  0  0  0  0 
   -0.5123   -0.9084   -0.3836 C   0  0  0  0  0  0  0  0  0  0  0  0 
    1.1746    3.0217   -0.5340 C   0  0  0  0  0  0  0  0  0  0  0  0 
   -2.5041   -5.9283    0.9023 O   0  0  0  0  0  0  0  0  0  0  0  0 
   -2.7478   -4.1602   -1.2088 O   0  0  0  0  0  0  0  0  0  0  0  0 
    0.4411    3.9769    0.0980 O   0  0  0  0  0  0  0  0  0  0  0  0 
    2.2228    3.2831   -1.0922 O   0  0  0  0  0  0  0  0  0  0  0  0 
   -1.1148   -2.1287   -0.2889 O   0  0  0  0  0  0  0  0  0  0  0  0 
   -1.1795    2.2516    0.6802 H   0  0  0  0  0  0  0  0  0  0  0  0 
    2.1666    0.8088   -1.5805 H   0  0  0  0  0  0  0  0  0  0  0  0 
   -2.1265   -0.0517    0.7439 H   0  0  0  0  0  0  0  0  0  0  0  0 
    1.2396   -1.4871   -1.5251 H   0  0  0  0  0  0  0  0  0  0  0  0 
   -1.8711   -3.9971    1.3922 H   0  0  0  0  0  0  0  0  0  0  0  0 
   -0.6146   -5.2315    1.1642 H   0  0  0  0  0  0  0  0  0  0  0  0 
   -0.3965   -3.0795   -1.9904 H   0  0  0  0  0  0  0  0  0  0  0  0 
    0.4811   -3.4588   -0.4801 H   0  0  0  0  0  0  0  0  0  0  0  0 
   -1.0782   -5.2984   -1.2616 H   0  0  0  0  0  0  0  0  0  0  0  0 
   -3.2530   -5.6716    0.3355 H   0  0  0  0  0  0  0  0  0  0  0  0 
   -2.9820   -3.2735   -0.8829 H   0  0  0  0  0  0  0  0  0  0  0  0 
    0.9385    4.8071   -0.0197 H   0  0  0  0  0  0  0  0  0  0  0  0 
  1  3  1  0  0  0  0 
  1 16  1  0  0  0  0 
  2  4  2  0  0  0  0 
  2  7  1  0  0  0  0 
  3 18  1  0  0  0  0 
  4  9  1  0  0  0  0 
  5 11  1  0  0  0  0 
  5 21  1  0  0  0  0 
  5 20  1  0  0  0  0 
  6  8  1  0  0  0  0 
  6 23  1  0  0  0  0 
  6 15  1  0  0  0  0 
  7  1  2  0  0  0  0 
  8 24  1  6  0  0  0 
  8  5  1  0  0  0  0 
  9 15  1  0  0  0  0 
  9  3  2  0  0  0  0 
 10  7  1  0  0  0  0 
 10 13  1  0  0  0  0 
 12 26  1  0  0  0  0 
 12  8  1  0  0  0  0 
 14 10  2  0  0  0  0 
 17  2  1  0  0  0  0 
 19  4  1  0  0  0  0 
 22  6  1  0  0  0  0 
 25 11  1  0  0  0  0 
 27 13  1  0  0  0  0 
M  END 
>  <HBA> 
5 
 
>  <HBD> 
3 
 
>  <TPSA> 
86.99 
 
>  <cid> 
20148 
 
>  <dipole> 
0.9 
 
>  <excitation_energy_1> 
4.927 
 
>  <excitation_energy_2> 
4.949 
 
>  <excitation_energy_3> 
4.961 
 
>  <excitation_energy_4> 
5.458 
 
>  <homo_energy> 
-6.602 
 
>  <homo_lumo_gap> 
5.361 
 
>  <logP> 
0.117 
 
>  <lumo_energy> 
-1.241 
 
>  <melting_point> 
136.66 
 
>  <molecular_refractivity> 
51.83 
 
>  <oscillator_strength_1> 
0.0145 
 
>  <oscillator_strength_2> 
0.3999 
 
>  <oscillator_strength_3> 
0.0012 
 
>  <oscillator_strength_4> 
0.004 
 
>  <open_babel_can_smiles> 
OC[C@H](COc1ccc(cc1)C(=O)O)O 
 
>  <mulliken_charges> 
27 
1   -0.163476 
2   -0.166888 
3   -0.181973 
4   -0.197022 
5   -0.02508 
6   -0.0633 
7   0.069755 
8   0.079373 
9   0.394332 
10   0.535954 
11   -0.622247 
12   -0.636451 
13   -0.586381 
14   -0.47912 
15   -0.541111 
16   0.165379 
17   0.169979 
18   0.143639 
19   0.146266 
20   0.128128 
21   0.139116 
22   0.163073 
23   0.152848 
24   0.15807 
25   0.39954 
26   0.405822 
27   0.411775 
 
>  <lowdin_charges> 
27 
1   -0.127215 
2   -0.113768 
3   -0.182721 
4   -0.211662 
5   -0.153611 
6   -0.140861 
7   -0.064934 
8   -0.02955 
9   0.116735 
10   0.192172 
11   -0.46676 
12   -0.46008 
13   -0.363427 
14   -0.277228 
15   -0.205356 
16   0.178102 
17   0.179958 
18   0.168839 
19   0.169169 
20   0.1311 
21   0.147003 
22   0.151841 
23   0.149551 
24   0.158609 
25   0.344321 
26   0.346249 
27   0.363524 
 
$$$$ 
 
