PCCDB-ID:  18199 
public computational chemistry database (PCCDB) project, http://pccdb.org 
 
  7  6  0  0  0  0  0  0  0  0999 V2000 
    1.0312   -0.0726    0.0381 C   0  0  0  0  0  0  0  0  0  0  0  0 
    2.8885    0.6860    1.1087 O   0  0  0  0  0  0  0  0  0  0  0  0 
    2.4400   -0.1212   -0.0309 O   0  0  0  0  0  0  0  0  0  0  0  0 
    0.6937   -0.6732   -0.8124 H   0  0  0  0  0  0  0  0  0  0  0  0 
    0.6606    0.9559   -0.0615 H   0  0  0  0  0  0  0  0  0  0  0  0 
    0.6606   -0.5104    0.9741 H   0  0  0  0  0  0  0  0  0  0  0  0 
    3.8482    0.5897    0.9785 H   0  0  0  0  0  0  0  0  0  0  0  0 
  1  6  1  0  0  0  0 
  3  1  1  0  0  0  0 
  3  2  1  0  0  0  0 
  4  1  1  0  0  0  0 
  5  1  1  0  0  0  0 
  7  2  1  0  0  0  0 
M  END 
>  <HBA> 
2 
 
>  <HBD> 
1 
 
>  <TPSA> 
29.46 
 
>  <cid> 
18199 
 
>  <dipole> 
0.29 
 
>  <excitation_energy_1> 
4.863 
 
>  <excitation_energy_2> 
6.192 
 
>  <excitation_energy_3> 
6.712 
 
>  <excitation_energy_4> 
7.426 
 
>  <homo_energy> 
-6.441 
 
>  <homo_lumo_gap> 
7.148 
 
>  <logP> 
0.106 
 
>  <lumo_energy> 
0.708 
 
>  <melting_point> 
6.27 
 
>  <molecular_refractivity> 
9.58 
 
>  <oscillator_strength_1> 
0.0001 
 
>  <oscillator_strength_2> 
0.0073 
 
>  <oscillator_strength_3> 
0.0064 
 
>  <oscillator_strength_4> 
0.0161 
 
>  <open_babel_can_smiles> 
COO 
 
>  <mulliken_charges> 
7 
1   -0.172547 
2   -0.415856 
3   -0.288982 
4   0.161849 
5   0.150655 
6   0.150562 
7   0.414319 
 
>  <lowdin_charges> 
7 
1   -0.281581 
2   -0.350226 
3   -0.169106 
4   0.162268 
5   0.143418 
6   0.144472 
7   0.350755 
 
$$$$ 
 
