PCCDB-ID:  47922 
public computational chemistry database (PCCDB) project, http://pccdb.org 
 
 34 34  0  0  0  0  0  0  0  0999 V2000 
    1.0268    1.2474    1.7722 C   0  0  0  0  0  0  0  0  0  0  0  0 
    2.9860    2.8592    1.7372 C   0  0  0  0  0  0  0  0  0  0  0  0 
    7.8193    0.6381    2.1980 C   0  0  0  0  0  0  0  0  0  0  0  0 
    4.7975    0.3585    1.1028 C   0  0  0  0  0  0  0  0  0  0  0  0 
    3.3069    0.3854    1.3096 C   0  0  0  0  0  0  0  0  0  0  0  0 
    5.5200   -0.4805    2.1898 C   0  0  0  0  0  0  0  0  0  0  0  0 
   10.3617   -3.8836    1.2329 C   0  0  0  0  0  0  0  0  0  0  0  0 
    9.8543   -3.6781   -0.1991 C   0  0  0  0  0  0  0  0  0  0  0  0 
    7.5220   -1.7976    1.5797 C   0  0  0  0  0  0  0  0  0  0  0  0 
    2.5149    1.4328    1.5874 C   0  0  0  0  0  0  0  0  0  0  0  0 
    7.0130   -0.6178    1.9644 C   0  0  0  0  0  0  0  0  0  0  0  0 
    8.9471   -2.1267    1.2725 C   0  0  0  0  0  0  0  0  0  0  0  0 
    9.3408   -3.2724    2.0111 O   0  0  0  0  0  0  0  0  0  0  0  0 
    9.0917   -2.4750   -0.1158 O   0  0  0  0  0  0  0  0  0  0  0  0 
    0.7062    1.5820    2.7690 H   0  0  0  0  0  0  0  0  0  0  0  0 
    0.7266    0.2014    1.6536 H   0  0  0  0  0  0  0  0  0  0  0  0 
    0.4594    1.8477    1.0468 H   0  0  0  0  0  0  0  0  0  0  0  0 
    2.4906    3.5106    1.0036 H   0  0  0  0  0  0  0  0  0  0  0  0 
    4.0648    2.9763    1.6118 H   0  0  0  0  0  0  0  0  0  0  0  0 
    2.7187    3.2517    2.7283 H   0  0  0  0  0  0  0  0  0  0  0  0 
    7.5087    1.4370    1.5125 H   0  0  0  0  0  0  0  0  0  0  0  0 
    8.8939    0.4953    2.0695 H   0  0  0  0  0  0  0  0  0  0  0  0 
    7.6481    1.0147    3.2154 H   0  0  0  0  0  0  0  0  0  0  0  0 
    5.2123    1.3710    1.0783 H   0  0  0  0  0  0  0  0  0  0  0  0 
    5.0213   -0.0917    0.1248 H   0  0  0  0  0  0  0  0  0  0  0  0 
    2.8288   -0.5937    1.2365 H   0  0  0  0  0  0  0  0  0  0  0  0 
    5.0613   -1.4760    2.2275 H   0  0  0  0  0  0  0  0  0  0  0  0 
    5.3348   -0.0118    3.1669 H   0  0  0  0  0  0  0  0  0  0  0  0 
   11.3296   -3.3815    1.3904 H   0  0  0  0  0  0  0  0  0  0  0  0 
   10.4467   -4.9302    1.5353 H   0  0  0  0  0  0  0  0  0  0  0  0 
    9.2099   -4.5066   -0.5231 H   0  0  0  0  0  0  0  0  0  0  0  0 
   10.6637   -3.5535   -0.9278 H   0  0  0  0  0  0  0  0  0  0  0  0 
    6.8538   -2.6465    1.4419 H   0  0  0  0  0  0  0  0  0  0  0  0 
    9.6382   -1.2971    1.4847 H   0  0  0  0  0  0  0  0  0  0  0  0 
  1 15  1  0  0  0  0 
  2 20  1  0  0  0  0 
  3 23  1  0  0  0  0 
  4  5  1  0  0  0  0 
  4  6  1  0  0  0  0 
  5 10  2  0  0  0  0 
  6 27  1  0  0  0  0 
  6 28  1  0  0  0  0 
  7 29  1  0  0  0  0 
  7 30  1  0  0  0  0 
  7 13  1  0  0  0  0 
  8 14  1  0  0  0  0 
  8  7  1  0  0  0  0 
  9 11  2  0  0  0  0 
 10  2  1  0  0  0  0 
 10  1  1  0  0  0  0 
 11  6  1  0  0  0  0 
 11  3  1  0  0  0  0 
 12 34  1  0  0  0  0 
 12  9  1  0  0  0  0 
 12 13  1  0  0  0  0 
 14 12  1  0  0  0  0 
 16  1  1  0  0  0  0 
 17  1  1  0  0  0  0 
 18  2  1  0  0  0  0 
 19  2  1  0  0  0  0 
 21  3  1  0  0  0  0 
 22  3  1  0  0  0  0 
 24  4  1  0  0  0  0 
 25  4  1  0  0  0  0 
 26  5  1  0  0  0  0 
 31  8  1  0  0  0  0 
 32  8  1  0  0  0  0 
 33  9  1  0  0  0  0 
M  END 
>  <HBA> 
2 
 
>  <HBD> 
0 
 
>  <TPSA> 
18.46 
 
>  <cid> 
47922 
 
>  <dipole> 
0.57 
 
>  <excitation_energy_1> 
5.628 
 
>  <excitation_energy_2> 
5.81 
 
>  <excitation_energy_3> 
6.007 
 
>  <excitation_energy_4> 
6.101 
 
>  <homo_energy> 
-6.155 
 
>  <homo_lumo_gap> 
6.55 
 
>  <logP> 
3.052 
 
>  <lumo_energy> 
0.395 
 
>  <melting_point> 
0.55 
 
>  <molecular_refractivity> 
58.91 
 
>  <oscillator_strength_1> 
0.0085 
 
>  <oscillator_strength_2> 
0.0922 
 
>  <oscillator_strength_3> 
0.0027 
 
>  <oscillator_strength_4> 
0.0465 
 
>  <open_babel_can_smiles> 
C/C(=C\C1OCCO1)/CCC=C(C)C 
 
>  <mulliken_charges> 
34 
1   -0.505838 
2   -0.513277 
3   -0.522058 
4   -0.304092 
5   -0.160645 
6   -0.327695 
7   -0.064046 
8   -0.029116 
9   -0.170492 
10   0.188954 
11   0.191439 
12   0.332666 
13   -0.489997 
14   -0.506177 
15   0.148538 
16   0.151282 
17   0.149015 
18   0.152659 
19   0.152794 
20   0.151442 
21   0.162466 
22   0.159373 
23   0.156805 
24   0.139433 
25   0.149969 
26   0.111099 
27   0.143787 
28   0.141008 
29   0.134318 
30   0.155895 
31   0.139774 
32   0.139423 
33   0.125359 
34   0.115937 
 
>  <lowdin_charges> 
34 
1   -0.439167 
2   -0.443805 
3   -0.444357 
4   -0.272135 
5   -0.19027 
6   -0.268352 
7   -0.145392 
8   -0.145759 
9   -0.200069 
10   -0.009451 
11   0.009465 
12   0.109016 
13   -0.26108 
14   -0.286018 
15   0.15166 
16   0.153233 
17   0.15364 
18   0.156637 
19   0.152627 
20   0.154502 
21   0.160385 
22   0.155652 
23   0.157775 
24   0.144034 
25   0.152131 
26   0.144473 
27   0.14851 
28   0.147167 
29   0.132665 
30   0.155172 
31   0.1395 
32   0.145026 
33   0.158279 
34   0.124305 
 
$$$$ 
 
