PCCDB-ID:  12038 
public computational chemistry database (PCCDB) project, http://pccdb.org 
 
 26 26  0  0  0  0  0  0  0  0999 V2000 
    2.7698   -0.1897   -3.4493 C   0  0  0  0  0  0  0  0  0  0  0  0 
    7.0456   -2.7221    3.0058 C   0  0  0  0  0  0  0  0  0  0  0  0 
    2.4034   -0.1491   -1.9730 C   0  0  0  0  0  0  0  0  0  0  0  0 
    6.3283    1.4774    0.3709 C   0  0  0  0  0  0  0  0  0  0  0  0 
    7.4419    1.2294    1.1658 C   0  0  0  0  0  0  0  0  0  0  0  0 
    5.7587   -0.8722    0.4536 C   0  0  0  0  0  0  0  0  0  0  0  0 
    5.4795    0.4272    0.0032 C   0  0  0  0  0  0  0  0  0  0  0  0 
    7.7272   -0.0679    1.6037 C   0  0  0  0  0  0  0  0  0  0  0  0 
    6.8684   -1.1308    1.2500 C   0  0  0  0  0  0  0  0  0  0  0  0 
    4.3064    0.7438   -0.8519 C   0  0  0  0  0  0  0  0  0  0  0  0 
    8.8216   -0.3647    2.3626 O   0  0  0  0  0  0  0  0  0  0  0  0 
    4.0338    1.8604   -1.2539 O   0  0  0  0  0  0  0  0  0  0  0  0 
    7.1435   -2.4266    1.6096 O   0  0  0  0  0  0  0  0  0  0  0  0 
    3.5639   -0.3539   -1.1355 O   0  0  0  0  0  0  0  0  0  0  0  0 
    1.8627   -0.1155   -4.0603 H   0  0  0  0  0  0  0  0  0  0  0  0 
    3.2775   -1.1273   -3.6988 H   0  0  0  0  0  0  0  0  0  0  0  0 
    3.4259    0.6469   -3.7047 H   0  0  0  0  0  0  0  0  0  0  0  0 
    7.2409   -3.7927    3.0996 H   0  0  0  0  0  0  0  0  0  0  0  0 
    6.0368   -2.5031    3.3806 H   0  0  0  0  0  0  0  0  0  0  0  0 
    7.7838   -2.1628    3.5887 H   0  0  0  0  0  0  0  0  0  0  0  0 
    1.7297   -0.9672   -1.7051 H   0  0  0  0  0  0  0  0  0  0  0  0 
    1.9413    0.8045   -1.7068 H   0  0  0  0  0  0  0  0  0  0  0  0 
    6.1040    2.4799    0.0235 H   0  0  0  0  0  0  0  0  0  0  0  0 
    8.1071    2.0445    1.4466 H   0  0  0  0  0  0  0  0  0  0  0  0 
    5.1197   -1.7028    0.1784 H   0  0  0  0  0  0  0  0  0  0  0  0 
    9.3284    0.4493    2.5110 H   0  0  0  0  0  0  0  0  0  0  0  0 
  1  3  1  0  0  0  0 
  2 18  1  0  0  0  0 
  2 19  1  0  0  0  0 
  2 20  1  0  0  0  0 
  3 22  1  0  0  0  0 
  3 21  1  0  0  0  0 
  3 14  1  0  0  0  0 
  4  5  1  0  0  0  0 
  5 24  1  0  0  0  0 
  5  8  2  0  0  0  0 
  6  9  2  0  0  0  0 
  7  4  2  0  0  0  0 
  7  6  1  0  0  0  0 
  8 11  1  0  0  0  0 
  9  8  1  0  0  0  0 
  9 13  1  0  0  0  0 
 10  7  1  0  0  0  0 
 11 26  1  0  0  0  0 
 12 10  2  0  0  0  0 
 13  2  1  0  0  0  0 
 14 10  1  0  0  0  0 
 15  1  1  0  0  0  0 
 16  1  1  0  0  0  0 
 17  1  1  0  0  0  0 
 23  4  1  0  0  0  0 
 25  6  1  0  0  0  0 
M  END 
>  <HBA> 
4 
 
>  <HBD> 
1 
 
>  <TPSA> 
55.76 
 
>  <cid> 
12038 
 
>  <dipole> 
1.97 
 
>  <excitation_energy_1> 
4.646 
 
>  <excitation_energy_2> 
4.954 
 
>  <excitation_energy_3> 
5.001 
 
>  <excitation_energy_4> 
5.258 
 
>  <homo_energy> 
-6.131 
 
>  <homo_lumo_gap> 
5.203 
 
>  <logP> 
1.577 
 
>  <lumo_energy> 
-0.928 
 
>  <melting_point> 
75.68 
 
>  <molecular_refractivity> 
51.04 
 
>  <oscillator_strength_1> 
0.0892 
 
>  <oscillator_strength_2> 
0.0036 
 
>  <oscillator_strength_3> 
0.167 
 
>  <oscillator_strength_4> 
0.0015 
 
>  <open_babel_can_smiles> 
CCOC(=O)c1ccc(c(c1)OC)O 
 
>  <mulliken_charges> 
26 
1   -0.461722 
2   -0.214729 
3   -0.040577 
4   -0.158592 
5   -0.207667 
6   -0.219129 
7   0.044302 
8   0.326916 
9   0.33241 
10   0.593786 
11   -0.633177 
12   -0.501541 
13   -0.519984 
14   -0.478534 
15   0.148178 
16   0.157169 
17   0.177262 
18   0.161736 
19   0.14117 
20   0.166441 
21   0.15019 
22   0.169995 
23   0.162992 
24   0.127478 
25   0.16199 
26   0.413637 
 
>  <lowdin_charges> 
26 
1   -0.456299 
2   -0.273807 
3   -0.127694 
4   -0.128582 
5   -0.211529 
6   -0.152001 
7   -0.060239 
8   0.092968 
9   0.064389 
10   0.196741 
11   -0.364408 
12   -0.281577 
13   -0.22279 
14   -0.194935 
15   0.157927 
16   0.156174 
17   0.166613 
18   0.156159 
19   0.139231 
20   0.152892 
21   0.151916 
22   0.158814 
23   0.177837 
24   0.158098 
25   0.181877 
26   0.362226 
 
$$$$ 
 
