PCCDB-ID:  41709 
public computational chemistry database (PCCDB) project, http://pccdb.org 
 
 31 30  0  0  0  0  0  0  0  0999 V2000 
    0.7225   -0.7207   -2.0017 C   0  0  0  0  0  0  0  0  0  0  0  0 
    5.3077   -3.0862    1.1090 C   0  0  0  0  0  0  0  0  0  0  0  0 
    6.6591    1.2500   -0.3275 C   0  0  0  0  0  0  0  0  0  0  0  0 
    2.2345   -0.9740   -2.0085 C   0  0  0  0  0  0  0  0  0  0  0  0 
    4.7274   -1.7293    0.6924 C   0  0  0  0  0  0  0  0  0  0  0  0 
    5.1335    1.1899   -0.4560 C   0  0  0  0  0  0  0  0  0  0  0  0 
    3.0153    0.0946   -1.2312 C   0  0  0  0  0  0  0  0  0  0  0  0 
    5.0839   -1.3634   -0.7546 C   0  0  0  0  0  0  0  0  0  0  0  0 
    4.5688    0.0002   -1.2768 C   0  0  0  0  0  0  0  0  0  0  0  0 
    5.1024    0.1380   -2.6506 N   0  0  0  0  0  0  0  0  0  0  0  0 
    0.1850   -1.4922   -2.5650 H   0  0  0  0  0  0  0  0  0  0  0  0 
    0.4814    0.2504   -2.4515 H   0  0  0  0  0  0  0  0  0  0  0  0 
    0.3250   -0.7172   -0.9793 H   0  0  0  0  0  0  0  0  0  0  0  0 
    5.0447   -3.3323    2.1442 H   0  0  0  0  0  0  0  0  0  0  0  0 
    6.4019   -3.0903    1.0325 H   0  0  0  0  0  0  0  0  0  0  0  0 
    4.9299   -3.8927    0.4684 H   0  0  0  0  0  0  0  0  0  0  0  0 
    6.9677    2.1944    0.1358 H   0  0  0  0  0  0  0  0  0  0  0  0 
    7.1298    1.1754   -1.3117 H   0  0  0  0  0  0  0  0  0  0  0  0 
    7.0501    0.4386    0.2969 H   0  0  0  0  0  0  0  0  0  0  0  0 
    2.5873   -1.0066   -3.0487 H   0  0  0  0  0  0  0  0  0  0  0  0 
    2.4325   -1.9677   -1.5861 H   0  0  0  0  0  0  0  0  0  0  0  0 
    5.0978   -0.9551    1.3770 H   0  0  0  0  0  0  0  0  0  0  0  0 
    3.6369   -1.7525    0.8189 H   0  0  0  0  0  0  0  0  0  0  0  0 
    4.7820    2.1144   -0.9383 H   0  0  0  0  0  0  0  0  0  0  0  0 
    4.6753    1.1862    0.5413 H   0  0  0  0  0  0  0  0  0  0  0  0 
    2.6777    0.0869   -0.1851 H   0  0  0  0  0  0  0  0  0  0  0  0 
    2.7357    1.0849   -1.6239 H   0  0  0  0  0  0  0  0  0  0  0  0 
    4.7055   -2.1550   -1.4182 H   0  0  0  0  0  0  0  0  0  0  0  0 
    6.1734   -1.3776   -0.8763 H   0  0  0  0  0  0  0  0  0  0  0  0 
    4.7062    0.9718   -3.0863 H   0  0  0  0  0  0  0  0  0  0  0  0 
    4.8017   -0.6503   -3.2228 H   0  0  0  0  0  0  0  0  0  0  0  0 
  1 13  1  0  0  0  0 
  2 14  1  0  0  0  0 
  3 17  1  0  0  0  0 
  3 19  1  0  0  0  0 
  4  1  1  0  0  0  0 
  4 21  1  0  0  0  0 
  4  7  1  0  0  0  0 
  5 23  1  0  0  0  0 
  5  2  1  0  0  0  0 
  5 22  1  0  0  0  0 
  6  3  1  0  0  0  0 
  6 25  1  0  0  0  0 
  7 26  1  0  0  0  0 
  8  5  1  0  0  0  0 
  9  7  1  0  0  0  0 
  9  8  1  0  0  0  0 
  9  6  1  0  0  0  0 
 10  9  1  0  0  0  0 
 11  1  1  0  0  0  0 
 12  1  1  0  0  0  0 
 15  2  1  0  0  0  0 
 16  2  1  0  0  0  0 
 18  3  1  0  0  0  0 
 20  4  1  0  0  0  0 
 24  6  1  0  0  0  0 
 27  7  1  0  0  0  0 
 28  8  1  0  0  0  0 
 29  8  1  0  0  0  0 
 30 10  1  0  0  0  0 
 31 10  1  0  0  0  0 
M  END 
>  <HBA> 
1 
 
>  <HBD> 
1 
 
>  <TPSA> 
26.02 
 
>  <cid> 
41709 
 
>  <dipole> 
1.25 
 
>  <excitation_energy_1> 
5.623 
 
>  <excitation_energy_2> 
6.136 
 
>  <excitation_energy_3> 
6.226 
 
>  <excitation_energy_4> 
6.425 
 
>  <homo_energy> 
-6.193 
 
>  <homo_lumo_gap> 
8.082 
 
>  <logP> 
3.394 
 
>  <lumo_energy> 
1.888 
 
>  <melting_point> 
36.72 
 
>  <molecular_refractivity> 
48.12 
 
>  <oscillator_strength_1> 
0.0303 
 
>  <oscillator_strength_2> 
0.0037 
 
>  <oscillator_strength_3> 
0.001 
 
>  <oscillator_strength_4> 
0.0036 
 
>  <open_babel_can_smiles> 
CCCC(CCC)(CC)N 
 
>  <mulliken_charges> 
31 
1   -0.441473 
2   -0.442602 
3   -0.450209 
4   -0.258058 
5   -0.2615 
6   -0.249272 
7   -0.25706 
8   -0.263581 
9   0.187809 
10   -0.724082 
11   0.141792 
12   0.141215 
13   0.142993 
14   0.140952 
15   0.143665 
16   0.140429 
17   0.133424 
18   0.17006 
19   0.139098 
20   0.116701 
21   0.138069 
22   0.138367 
23   0.133652 
24   0.118433 
25   0.129514 
26   0.127839 
27   0.114762 
28   0.119782 
29   0.148789 
30   0.286672 
31   0.293821 
 
>  <lowdin_charges> 
31 
1   -0.443123 
2   -0.44085 
3   -0.450896 
4   -0.27681 
5   -0.275386 
6   -0.276112 
7   -0.290875 
8   -0.281412 
9   0.05874 
10   -0.549863 
11   0.150326 
12   0.145783 
13   0.146167 
14   0.147761 
15   0.145163 
16   0.146457 
17   0.146695 
18   0.160671 
19   0.1453 
20   0.131302 
21   0.140877 
22   0.143436 
23   0.137631 
24   0.137039 
25   0.139997 
26   0.139274 
27   0.134307 
28   0.137593 
29   0.149449 
30   0.249587 
31   0.251771 
 
$$$$ 
 
