PCCDB-ID:  15070 
public computational chemistry database (PCCDB) project, http://pccdb.org 
 
 15 15  0  0  1  0  0  0  0  0999 V2000 
   -1.4012   -0.1697    0.0594 C   0  0  0  0  0  0  0  0  0  0  0  0 
   -0.5618   -1.2797    0.0305 C   0  0  0  0  0  0  0  0  0  0  0  0 
   -0.8345    1.1039    0.0078 C   0  0  0  0  0  0  0  0  0  0  0  0 
    0.8159   -1.0622   -0.0682 C   0  0  0  0  0  0  0  0  0  0  0  0 
    0.5596    1.2203   -0.0672 C   0  0  0  0  0  0  0  0  0  0  0  0 
    1.2490    2.5556   -0.1395 C   0  0  1  0  0  0  0  0  0  0  0  0 
    2.4206    2.7521   -0.5801 N   0  0  0  0  0  0  0  0  0  0  0  0 
    1.3699    0.1496   -0.1170 N   0  0  0  0  0  0  0  0  0  0  0  0 
    0.5136    3.6360    0.2611 O   0  0  0  0  0  0  0  0  0  0  0  0 
   -2.4799   -0.2889    0.1113 H   0  0  0  0  0  0  0  0  0  0  0  0 
   -0.9571   -2.2899    0.0713 H   0  0  0  0  0  0  0  0  0  0  0  0 
   -1.4699    1.9840   -0.0149 H   0  0  0  0  0  0  0  0  0  0  0  0 
    1.5052   -1.9037   -0.1103 H   0  0  0  0  0  0  0  0  0  0  0  0 
    2.8099    1.8489   -0.8633 H   0  0  0  0  0  0  0  0  0  0  0  0 
   -0.1718    3.3442    0.8812 H   0  0  0  0  0  0  0  0  0  0  0  0 
  1 10  1  0  0  0  0 
  2  1  2  0  0  0  0 
  2 11  1  0  0  0  0 
  3  1  1  0  0  0  0 
  4  2  1  0  0  0  0 
  5  3  2  0  0  0  0 
  6  7  1  6  0  0  0 
  6  5  1  0  0  0  0 
  6  9  1  0  0  0  0 
  8  4  2  0  0  0  0 
  8  5  1  0  0  0  0 
  9 15  1  0  0  0  0 
 12  3  1  0  0  0  0 
 13  4  1  0  0  0  0 
 14  7  1  0  0  0  0 
M  RAD  2   6   2   7   2 
M  END 
>  <HBA> 
3 
 
>  <HBD> 
1 
 
>  <TPSA> 
55.98 
 
>  <cid> 
15070 
 
>  <dipole> 
6.0 
 
>  <excitation_energy_1> 
4.589 
 
>  <excitation_energy_2> 
4.672 
 
>  <excitation_energy_3> 
4.868 
 
>  <excitation_energy_4> 
5.071 
 
>  <homo_energy> 
-7.01 
 
>  <homo_lumo_gap> 
5.453 
 
>  <logP> 
0.881 
 
>  <lumo_energy> 
-1.557 
 
>  <melting_point> 
108.63 
 
>  <molecular_refractivity> 
32.33 
 
>  <oscillator_strength_1> 
0.0045 
 
>  <oscillator_strength_2> 
0.0039 
 
>  <oscillator_strength_3> 
0.0649 
 
>  <oscillator_strength_4> 
0.006 
 
>  <open_babel_can_smiles> 
[NH][C](c1ccccn1)O 
 
>  <mulliken_charges> 
15 
1   -0.097806 
2   -0.14136 
3   -0.189837 
4   0.048037 
5   0.249191 
6   0.450509 
7   -0.576368 
8   -0.479308 
9   -0.588451 
10   0.15501 
11   0.150754 
12   0.149415 
13   0.154427 
14   0.311979 
15   0.40381 
 
>  <lowdin_charges> 
15 
1   -0.117341 
2   -0.166176 
3   -0.184525 
4   -0.078112 
5   0.013891 
6   0.108186 
7   -0.359495 
8   -0.141901 
9   -0.368491 
10   0.167381 
11   0.16992 
12   0.167874 
13   0.164362 
14   0.269314 
15   0.355114 
 
$$$$ 
 
