PCCDB-ID:  29649 
public computational chemistry database (PCCDB) project, http://pccdb.org 
 
 16 15  0  0  1  0  0  0  0  0999 V2000 
    1.1502    0.0539    0.0401 C   0  0  0  0  0  0  0  0  0  0  0  0 
   -1.5124    2.2225   -0.2012 C   0  0  0  0  0  0  0  0  0  0  0  0 
    0.6089    1.3522   -0.6104 C   0  0  1  0  0  0  0  0  0  0  0  0 
    1.1206    1.5750   -2.0539 C   0  0  0  0  0  0  0  0  0  0  0  0 
   -0.8340    1.2386   -0.6190 N   0  0  0  0  0  0  0  0  0  0  0  0 
   -2.8551    2.2193   -0.1828 O   0  0  0  0  0  0  0  0  0  0  0  0 
    0.4165    1.5591   -3.0288 O   0  0  0  0  0  0  0  0  0  0  0  0 
    2.4476    1.8301   -2.1563 O   0  0  0  0  0  0  0  0  0  0  0  0 
    2.9686   -0.0011    0.3659 S   0  0  0  0  0  0  0  0  0  0  0  0 
    0.8591   -0.8133   -0.5563 H   0  0  0  0  0  0  0  0  0  0  0  0 
    0.6755   -0.0492    1.0185 H   0  0  0  0  0  0  0  0  0  0  0  0 
   -1.1207    3.1684    0.1879 H   0  0  0  0  0  0  0  0  0  0  0  0 
    0.9650    2.2089   -0.0098 H   0  0  0  0  0  0  0  0  0  0  0  0 
   -3.1371    1.3705   -0.5746 H   0  0  0  0  0  0  0  0  0  0  0  0 
    2.8783    1.7429   -1.2812 H   0  0  0  0  0  0  0  0  0  0  0  0 
    3.3325   -0.6487   -0.7606 H   0  0  0  0  0  0  0  0  0  0  0  0 
  1  9  1  0  0  0  0 
  1 11  1  0  0  0  0 
  2  6  1  0  0  0  0 
  2 12  1  0  0  0  0 
  3 13  1  1  0  0  0 
  3  1  1  0  0  0  0 
  4  3  1  0  0  0  0 
  5  3  1  0  0  0  0 
  5  2  2  0  0  0  0 
  7  4  2  0  0  0  0 
  8  4  1  0  0  0  0 
  8 15  1  0  0  0  0 
 10  1  1  0  0  0  0 
 14  6  1  0  0  0  0 
 16  9  1  0  0  0  0 
M  END 
>  <HBA> 
5 
 
>  <HBD> 
3 
 
>  <TPSA> 
105.2 
 
>  <cid> 
29649 
 
>  <dipole> 
3.32 
 
>  <excitation_energy_1> 
5.49 
 
>  <excitation_energy_2> 
5.577 
 
>  <excitation_energy_3> 
6.033 
 
>  <excitation_energy_4> 
6.076 
 
>  <homo_energy> 
-7.189 
 
>  <homo_lumo_gap> 
7.045 
 
>  <logP> 
0.142 
 
>  <lumo_energy> 
-0.144 
 
>  <melting_point> 
120.75 
 
>  <molecular_refractivity> 
34.43 
 
>  <oscillator_strength_1> 
0.0011 
 
>  <oscillator_strength_2> 
0.0045 
 
>  <oscillator_strength_3> 
0.0105 
 
>  <oscillator_strength_4> 
0.0227 
 
>  <open_babel_can_smiles> 
SC[C@@H](C(=O)O)/N=C/O 
 
>  <mulliken_charges> 
16 
1   -0.419137 
2   0.297254 
3   -0.118064 
4   0.602261 
5   -0.382371 
6   -0.549689 
7   -0.426035 
8   -0.575506 
9   -0.104436 
10   0.210525 
11   0.202404 
12   0.148213 
13   0.14722 
14   0.415788 
15   0.420025 
16   0.131549 
 
>  <lowdin_charges> 
16 
1   -0.375651 
2   0.02842 
3   -0.108491 
4   0.183883 
5   -0.214937 
6   -0.34473 
7   -0.226536 
8   -0.363783 
9   -0.069072 
10   0.182801 
11   0.179556 
12   0.144073 
13   0.143461 
14   0.364166 
15   0.345994 
16   0.130845 
 
$$$$ 
 
