PCCDB-ID:  8063 
public computational chemistry database (PCCDB) project, http://pccdb.org 
 
 16 15  0  0  0  0  0  0  0  0999 V2000 
    1.0723    0.0988   -0.0567 C   0  0  0  0  0  0  0  0  0  0  0  0 
    2.6030    0.0340   -0.0540 C   0  0  0  0  0  0  0  0  0  0  0  0 
    3.1578   -0.9283    1.0033 C   0  0  0  0  0  0  0  0  0  0  0  0 
    4.6853   -0.9939    1.0123 C   0  0  0  0  0  0  0  0  0  0  0  0 
    5.2652   -1.9261    2.0514 C   0  0  0  0  0  0  0  0  0  0  0  0 
    4.6137   -2.5887    2.8288 O   0  0  0  0  0  0  0  0  0  0  0  0 
    0.7033    0.7892   -0.8236 H   0  0  0  0  0  0  0  0  0  0  0  0 
    0.6889    0.4400    0.9126 H   0  0  0  0  0  0  0  0  0  0  0  0 
    0.6349   -0.8870   -0.2562 H   0  0  0  0  0  0  0  0  0  0  0  0 
    3.0113    1.0404    0.1180 H   0  0  0  0  0  0  0  0  0  0  0  0 
    2.9581   -0.2714   -1.0488 H   0  0  0  0  0  0  0  0  0  0  0  0 
    2.7577   -1.9366    0.8368 H   0  0  0  0  0  0  0  0  0  0  0  0 
    2.8070   -0.6307    1.9997 H   0  0  0  0  0  0  0  0  0  0  0  0 
    5.1305    0.0002    1.1823 H   0  0  0  0  0  0  0  0  0  0  0  0 
    5.0808   -1.3109    0.0334 H   0  0  0  0  0  0  0  0  0  0  0  0 
    6.3789   -1.9734    2.0651 H   0  0  0  0  0  0  0  0  0  0  0  0 
  1  2  1  0  0  0  0 
  1  8  1  0  0  0  0 
  2 10  1  0  0  0  0 
  2  3  1  0  0  0  0 
  3  4  1  0  0  0  0 
  3 13  1  0  0  0  0 
  4 14  1  0  0  0  0 
  4  5  1  0  0  0  0 
  5 16  1  0  0  0  0 
  5  6  2  0  0  0  0 
  7  1  1  0  0  0  0 
  9  1  1  0  0  0  0 
 11  2  1  0  0  0  0 
 12  3  1  0  0  0  0 
 15  4  1  0  0  0  0 
M  END 
>  <HBA> 
1 
 
>  <HBD> 
0 
 
>  <TPSA> 
17.07 
 
>  <cid> 
8063 
 
>  <dipole> 
2.54 
 
>  <excitation_energy_1> 
4.333 
 
>  <excitation_energy_2> 
6.538 
 
>  <excitation_energy_3> 
6.985 
 
>  <excitation_energy_4> 
7.186 
 
>  <homo_energy> 
-6.857 
 
>  <homo_lumo_gap> 
6.354 
 
>  <logP> 
1.375 
 
>  <lumo_energy> 
-0.503 
 
>  <melting_point> 
5.83 
 
>  <molecular_refractivity> 
26.35 
 
>  <oscillator_strength_1> 
0.0002 
 
>  <oscillator_strength_2> 
0.0322 
 
>  <oscillator_strength_3> 
0.025 
 
>  <oscillator_strength_4> 
0.0011 
 
>  <open_babel_can_smiles> 
CCCCC=O 
 
>  <mulliken_charges> 
16 
1   -0.441823 
2   -0.251431 
3   -0.240712 
4   -0.350558 
5   0.252956 
6   -0.382495 
7   0.14326 
8   0.145124 
9   0.145073 
10   0.130089 
11   0.130122 
12   0.148637 
13   0.148849 
14   0.159977 
15   0.160301 
16   0.102631 
 
>  <lowdin_charges> 
16 
1   -0.444617 
2   -0.271344 
3   -0.270254 
4   -0.314214 
5   0.059954 
6   -0.219643 
7   0.151289 
8   0.148315 
9   0.148086 
10   0.137771 
11   0.137956 
12   0.149844 
13   0.150099 
14   0.162459 
15   0.162865 
16   0.111436 
 
$$$$ 
 
