PCCDB-ID:  23409 
public computational chemistry database (PCCDB) project, http://pccdb.org 
 
 19 19  0  0  0  0  0  0  0  0999 V2000 
   -1.1448   -0.5909    0.3629 C   0  0  0  0  0  0  0  0  0  0  0  0 
   -0.3330   -1.7022    0.1127 C   0  0  0  0  0  0  0  0  0  0  0  0 
   -0.5819    0.6775    0.3408 C   0  0  0  0  0  0  0  0  0  0  0  0 
    1.0269   -1.5389   -0.1340 C   0  0  0  0  0  0  0  0  0  0  0  0 
    1.2568    2.2574   -0.0102 C   0  0  0  0  0  0  0  0  0  0  0  0 
    3.0038    2.2159   -1.7918 C   0  0  0  0  0  0  0  0  0  0  0  0 
    2.4852    4.2497   -0.5864 C   0  0  0  0  0  0  0  0  0  0  0  0 
    2.2397    2.8446   -0.7555 C   0  0  0  0  0  0  0  0  0  0  0  0 
    0.7818    0.8835    0.0399 C   0  0  0  0  0  0  0  0  0  0  0  0 
    1.5935   -0.2601   -0.1574 C   0  0  0  0  0  0  0  0  0  0  0  0 
    3.6093    1.7719   -2.6801 N   0  0  0  0  0  0  0  0  0  0  0  0 
    2.6810    5.3875   -0.4418 N   0  0  0  0  0  0  0  0  0  0  0  0 
    2.9262   -0.0653   -0.3051 O   0  0  0  0  0  0  0  0  0  0  0  0 
   -2.2017   -0.7167    0.5742 H   0  0  0  0  0  0  0  0  0  0  0  0 
   -0.7558   -2.7027    0.1266 H   0  0  0  0  0  0  0  0  0  0  0  0 
   -1.2048    1.5481    0.5294 H   0  0  0  0  0  0  0  0  0  0  0  0 
    1.6648   -2.4055   -0.2938 H   0  0  0  0  0  0  0  0  0  0  0  0 
    0.6971    2.9483    0.6174 H   0  0  0  0  0  0  0  0  0  0  0  0 
    3.3640   -0.8957   -0.5505 H   0  0  0  0  0  0  0  0  0  0  0  0 
  1 14  1  0  0  0  0 
  2 15  1  0  0  0  0 
  2  1  2  0  0  0  0 
  3  1  1  0  0  0  0 
  3 16  1  0  0  0  0 
  4  2  1  0  0  0  0 
  5  9  1  0  0  0  0 
  5 18  1  0  0  0  0 
  6  8  1  0  0  0  0 
  7 12  3  0  0  0  0 
  8  7  1  0  0  0  0 
  8  5  2  0  0  0  0 
  9  3  2  0  0  0  0 
 10  4  2  0  0  0  0 
 10  9  1  0  0  0  0 
 11  6  3  0  0  0  0 
 13 10  1  0  0  0  0 
 17  4  1  0  0  0  0 
 19 13  1  0  0  0  0 
M  END 
>  <HBA> 
3 
 
>  <HBD> 
1 
 
>  <TPSA> 
67.81 
 
>  <cid> 
23409 
 
>  <dipole> 
7.42 
 
>  <excitation_energy_1> 
3.574 
 
>  <excitation_energy_2> 
4.236 
 
>  <excitation_energy_3> 
5.13 
 
>  <excitation_energy_4> 
5.342 
 
>  <homo_energy> 
-6.691 
 
>  <homo_lumo_gap> 
4.084 
 
>  <logP> 
1.823 
 
>  <lumo_energy> 
-2.607 
 
>  <melting_point> 
137.71 
 
>  <molecular_refractivity> 
47.67 
 
>  <oscillator_strength_1> 
0.1531 
 
>  <oscillator_strength_2> 
0.4225 
 
>  <oscillator_strength_3> 
0.0679 
 
>  <oscillator_strength_4> 
0.0026 
 
>  <open_babel_can_smiles> 
N#CC(=Cc1ccccc1O)C#N 
 
>  <mulliken_charges> 
19 
1   -0.132839 
2   -0.124696 
3   -0.185681 
4   -0.181821 
5   -0.168114 
6   0.321625 
7   0.286583 
8   0.132646 
9   0.131112 
10   0.311207 
11   -0.489996 
12   -0.46422 
13   -0.62401 
14   0.145435 
15   0.149978 
16   0.149622 
17   0.137607 
18   0.182041 
19   0.423521 
 
>  <lowdin_charges> 
19 
1   -0.170649 
2   -0.121689 
3   -0.130525 
4   -0.205342 
5   -0.072867 
6   0.005073 
7   -0.007071 
8   -0.041405 
9   -0.046333 
10   0.120025 
11   -0.105284 
12   -0.102539 
13   -0.343108 
14   0.16572 
15   0.167823 
16   0.167747 
17   0.164013 
18   0.186654 
19   0.369755 
 
$$$$ 
 
