PCCDB-ID:  14299 
public computational chemistry database (PCCDB) project, http://pccdb.org 
 
 28 28  0  0  1  0  0  0  0  0999 V2000 
    2.8404    0.6381    1.1465 C   0  0  0  0  0  0  0  0  0  0  0  0 
    0.8863    0.1734   -0.3056 C   0  0  0  0  0  0  0  0  0  0  0  0 
    5.6247   -4.4111   -2.1178 C   0  0  0  0  0  0  0  0  0  0  0  0 
    3.3914   -3.5306   -1.2785 C   0  0  0  0  0  0  0  0  0  0  0  0 
    5.3501   -1.9598   -1.4934 C   0  0  0  0  0  0  0  0  0  0  0  0 
    2.6716   -2.5080   -0.3864 C   0  0  0  0  0  0  0  0  0  0  0  0 
    4.6362   -0.9441   -0.5886 C   0  0  0  0  0  0  0  0  0  0  0  0 
    2.3225   -0.0406    0.1166 C   0  0  0  0  0  0  0  0  0  0  0  0 
    4.9227   -3.4079   -1.1957 C   0  0  2  0  0  0  0  0  0  0  0  0 
    3.1061   -1.0548   -0.7059 C   0  0  2  0  0  0  0  0  0  0  0  0 
    2.2391    1.3451    1.7131 H   0  0  0  0  0  0  0  0  0  0  0  0 
    3.8709    0.5237    1.4675 H   0  0  0  0  0  0  0  0  0  0  0  0 
    0.3818    0.9006    0.3379 H   0  0  0  0  0  0  0  0  0  0  0  0 
    0.3076   -0.7589   -0.2763 H   0  0  0  0  0  0  0  0  0  0  0  0 
    0.8336    0.5406   -1.3401 H   0  0  0  0  0  0  0  0  0  0  0  0 
    5.3344   -5.4419   -1.8808 H   0  0  0  0  0  0  0  0  0  0  0  0 
    6.7155   -4.3405   -2.0277 H   0  0  0  0  0  0  0  0  0  0  0  0 
    5.3656   -4.2262   -3.1685 H   0  0  0  0  0  0  0  0  0  0  0  0 
    3.0791   -3.3820   -2.3241 H   0  0  0  0  0  0  0  0  0  0  0  0 
    3.0813   -4.5484   -1.0055 H   0  0  0  0  0  0  0  0  0  0  0  0 
    6.4381   -1.8604   -1.3802 H   0  0  0  0  0  0  0  0  0  0  0  0 
    5.1269   -1.7308   -2.5471 H   0  0  0  0  0  0  0  0  0  0  0  0 
    2.8960   -2.7124    0.6703 H   0  0  0  0  0  0  0  0  0  0  0  0 
    1.5865   -2.6187   -0.5012 H   0  0  0  0  0  0  0  0  0  0  0  0 
    4.9570    0.0761   -0.8335 H   0  0  0  0  0  0  0  0  0  0  0  0 
    4.9374   -1.1263    0.4528 H   0  0  0  0  0  0  0  0  0  0  0  0 
    5.2182   -3.6339   -0.1581 H   0  0  0  0  0  0  0  0  0  0  0  0 
    2.8470   -0.8743   -1.7635 H   0  0  0  0  0  0  0  0  0  0  0  0 
  1 12  1  0  0  0  0 
  1 11  1  0  0  0  0 
  2 14  1  0  0  0  0 
  2  8  1  0  0  0  0 
  2 13  1  0  0  0  0 
  3 17  1  0  0  0  0 
  3 16  1  0  0  0  0 
  3  9  1  0  0  0  0 
  4  9  1  0  0  0  0 
  4 20  1  0  0  0  0 
  4  6  1  0  0  0  0 
  5 21  1  0  0  0  0 
  5  9  1  0  0  0  0 
  5  7  1  0  0  0  0 
  6 23  1  0  0  0  0 
  7 26  1  0  0  0  0 
  8  1  2  0  0  0  0 
  9 27  1  1  0  0  0 
 10 28  1  6  0  0  0 
 10  7  1  0  0  0  0 
 10  6  1  0  0  0  0 
 10  8  1  0  0  0  0 
 15  2  1  0  0  0  0 
 18  3  1  0  0  0  0 
 19  4  1  0  0  0  0 
 22  5  1  0  0  0  0 
 24  6  1  0  0  0  0 
 25  7  1  0  0  0  0 
M  END 
>  <HBA> 
0 
 
>  <HBD> 
0 
 
>  <TPSA> 
0.0 
 
>  <cid> 
14299 
 
>  <dipole> 
0.46 
 
>  <excitation_energy_1> 
6.03 
 
>  <excitation_energy_2> 
6.369 
 
>  <excitation_energy_3> 
6.488 
 
>  <excitation_energy_4> 
6.516 
 
>  <homo_energy> 
-6.46 
 
>  <homo_lumo_gap> 
7.306 
 
>  <logP> 
3.389 
 
>  <lumo_energy> 
0.846 
 
>  <melting_point> 
-23.82 
 
>  <molecular_refractivity> 
47.6 
 
>  <oscillator_strength_1> 
0.0087 
 
>  <oscillator_strength_2> 
0.1126 
 
>  <oscillator_strength_3> 
0.0133 
 
>  <oscillator_strength_4> 
0.0275 
 
>  <open_babel_can_smiles> 
C[C@@H]1CC[C@H](CC1)C(=C)C 
 
>  <mulliken_charges> 
28 
1   -0.407382 
2   -0.515566 
3   -0.445241 
4   -0.25628 
5   -0.259236 
6   -0.265252 
7   -0.272041 
8   0.22696 
9   -0.06848 
10   -0.140166 
11   0.127152 
12   0.134991 
13   0.151183 
14   0.154817 
15   0.151373 
16   0.139042 
17   0.139252 
18   0.138001 
19   0.123381 
20   0.128034 
21   0.127258 
22   0.123319 
23   0.13348 
24   0.130311 
25   0.135886 
26   0.13066 
27   0.11705 
28   0.117493 
 
>  <lowdin_charges> 
28 
1   -0.370438 
2   -0.442391 
3   -0.439009 
4   -0.276261 
5   -0.274152 
6   -0.272013 
7   -0.275392 
8   0.009053 
9   -0.124546 
10   -0.126506 
11   0.153993 
12   0.154279 
13   0.156989 
14   0.154305 
15   0.153045 
16   0.146509 
17   0.145716 
18   0.143813 
19   0.134742 
20   0.141628 
21   0.140111 
22   0.134459 
23   0.140006 
24   0.14079 
25   0.145678 
26   0.138022 
27   0.131876 
28   0.135695 
 
$$$$ 
 
