PCCDB-ID:  17652 
public computational chemistry database (PCCDB) project, http://pccdb.org 
 
 22 22  0  0  0  0  0  0  0  0999 V2000 
    3.3537    0.9847    0.2826 C   0  0  0  0  0  0  0  0  0  0  0  0 
    1.5484   -5.1367    0.5860 C   0  0  0  0  0  0  0  0  0  0  0  0 
    4.7189   -1.3671   -0.5156 C   0  0  0  0  0  0  0  0  0  0  0  0 
    5.3298   -2.5766   -0.8774 C   0  0  0  0  0  0  0  0  0  0  0  0 
    2.7924   -2.6140    0.2539 C   0  0  0  0  0  0  0  0  0  0  0  0 
    3.4488   -1.3879    0.0548 C   0  0  0  0  0  0  0  0  0  0  0  0 
    4.7034   -3.8054   -0.6887 C   0  0  0  0  0  0  0  0  0  0  0  0 
    3.4091   -3.8029   -0.1128 C   0  0  0  0  0  0  0  0  0  0  0  0 
    5.3235   -5.0297   -0.9879 N   0  0  0  0  0  0  0  0  0  0  0  0 
    2.7429   -0.2799    0.4550 O   0  0  0  0  0  0  0  0  0  0  0  0 
    2.8470   -5.0484    0.0260 O   0  0  0  0  0  0  0  0  0  0  0  0 
    2.6394    1.7197    0.6598 H   0  0  0  0  0  0  0  0  0  0  0  0 
    3.5628    1.1947   -0.7757 H   0  0  0  0  0  0  0  0  0  0  0  0 
    4.2898    1.0649    0.8527 H   0  0  0  0  0  0  0  0  0  0  0  0 
    1.2990   -6.1995    0.6052 H   0  0  0  0  0  0  0  0  0  0  0  0 
    0.8091   -4.6004   -0.0240 H   0  0  0  0  0  0  0  0  0  0  0  0 
    1.5254   -4.7395    1.6091 H   0  0  0  0  0  0  0  0  0  0  0  0 
    5.2479   -0.4367   -0.6845 H   0  0  0  0  0  0  0  0  0  0  0  0 
    6.3258   -2.5573   -1.3143 H   0  0  0  0  0  0  0  0  0  0  0  0 
    1.8016   -2.5961    0.6911 H   0  0  0  0  0  0  0  0  0  0  0  0 
    5.9612   -4.9796   -1.7737 H   0  0  0  0  0  0  0  0  0  0  0  0 
    4.6578   -5.7847   -1.1033 H   0  0  0  0  0  0  0  0  0  0  0  0 
  1 10  1  0  0  0  0 
  1 12  1  0  0  0  0 
  1 14  1  0  0  0  0 
  2 15  1  0  0  0  0 
  2 17  1  0  0  0  0 
  3  6  2  0  0  0  0 
  4  7  2  0  0  0  0 
  4  3  1  0  0  0  0 
  5 20  1  0  0  0  0 
  6  5  1  0  0  0  0 
  6 10  1  0  0  0  0 
  7  8  1  0  0  0  0 
  8 11  1  0  0  0  0 
  8  5  2  0  0  0  0 
  9  7  1  0  0  0  0 
 11  2  1  0  0  0  0 
 13  1  1  0  0  0  0 
 16  2  1  0  0  0  0 
 18  3  1  0  0  0  0 
 19  4  1  0  0  0  0 
 21  9  1  0  0  0  0 
 22  9  1  0  0  0  0 
M  END 
>  <HBA> 
3 
 
>  <HBD> 
1 
 
>  <TPSA> 
44.48 
 
>  <cid> 
17652 
 
>  <dipole> 
1.22 
 
>  <excitation_energy_1> 
4.341 
 
>  <excitation_energy_2> 
4.488 
 
>  <excitation_energy_3> 
4.67 
 
>  <excitation_energy_4> 
4.779 
 
>  <homo_energy> 
-4.721 
 
>  <homo_lumo_gap> 
5.206 
 
>  <logP> 
1.867 
 
>  <lumo_energy> 
0.484 
 
>  <melting_point> 
64.69 
 
>  <molecular_refractivity> 
43.83 
 
>  <oscillator_strength_1> 
0.0288 
 
>  <oscillator_strength_2> 
0.0611 
 
>  <oscillator_strength_3> 
0.0009 
 
>  <oscillator_strength_4> 
0.0015 
 
>  <open_babel_can_smiles> 
COc1ccc(c(c1)OC)N 
 
>  <mulliken_charges> 
22 
1   -0.209008 
2   -0.210915 
3   -0.20633 
4   -0.194007 
5   -0.261919 
6   0.368874 
7   0.255688 
8   0.353673 
9   -0.790054 
10   -0.517469 
11   -0.535124 
12   0.163142 
13   0.145909 
14   0.147325 
15   0.165362 
16   0.15283 
17   0.156024 
18   0.122738 
19   0.11609 
20   0.13599 
21   0.311305 
22   0.329878 
 
>  <lowdin_charges> 
22 
1   -0.276601 
2   -0.27432 
3   -0.225382 
4   -0.186328 
5   -0.230443 
6   0.088066 
7   0.019402 
8   0.078184 
9   -0.497521 
10   -0.209475 
11   -0.211416 
12   0.160351 
13   0.1399 
14   0.141949 
15   0.158899 
16   0.146916 
17   0.146398 
18   0.159995 
19   0.152658 
20   0.168609 
21   0.270982 
22   0.279176 
 
$$$$ 
 
