PCCDB-ID:  53305 
public computational chemistry database (PCCDB) project, http://pccdb.org 
 
 25 27  0  0  0  0  0  0  0  0999 V2000 
    1.1069   -0.1182    0.0067 C   0  0  0  0  0  0  0  0  0  0  0  0 
    3.2831    1.2179    0.0317 C   0  0  0  0  0  0  0  0  0  0  0  0 
    8.1314   -2.1776    0.0126 C   0  0  0  0  0  0  0  0  0  0  0  0 
    8.0280   -3.5355   -0.0040 C   0  0  0  0  0  0  0  0  0  0  0  0 
    4.6509    1.3094    0.0369 C   0  0  0  0  0  0  0  0  0  0  0  0 
    3.3631   -1.1934    0.0036 C   0  0  0  0  0  0  0  0  0  0  0  0 
    2.6135   -0.0528    0.0151 C   0  0  0  0  0  0  0  0  0  0  0  0 
    6.9382   -1.3894    0.0161 C   0  0  0  0  0  0  0  0  0  0  0  0 
    6.7486   -4.2525   -0.0194 C   0  0  0  0  0  0  0  0  0  0  0  0 
    5.4426    0.1374    0.0260 C   0  0  0  0  0  0  0  0  0  0  0  0 
    5.7189   -2.0651    0.0038 C   0  0  0  0  0  0  0  0  0  0  0  0 
    6.5338   -5.5243   -0.0380 N   0  0  0  0  0  0  0  0  0  0  0  0 
    6.7553   -0.0308    0.0301 N   0  0  0  0  0  0  0  0  0  0  0  0 
    5.6093   -3.4238   -0.0124 N   0  0  0  0  0  0  0  0  0  0  0  0 
    4.7440   -1.1115    0.0090 N   0  0  0  0  0  0  0  0  0  0  0  0 
    0.6941    0.3910   -0.8730 H   0  0  0  0  0  0  0  0  0  0  0  0 
    0.6847    0.3740    0.8915 H   0  0  0  0  0  0  0  0  0  0  0  0 
    0.7473   -1.1517   -0.0055 H   0  0  0  0  0  0  0  0  0  0  0  0 
    2.6810    2.1220    0.0419 H   0  0  0  0  0  0  0  0  0  0  0  0 
    9.0998   -1.6861    0.0239 H   0  0  0  0  0  0  0  0  0  0  0  0 
    8.9190   -4.1557   -0.0054 H   0  0  0  0  0  0  0  0  0  0  0  0 
    5.1660    2.2636    0.0508 H   0  0  0  0  0  0  0  0  0  0  0  0 
    2.9349   -2.1895   -0.0075 H   0  0  0  0  0  0  0  0  0  0  0  0 
    7.4217   -6.0274   -0.0419 H   0  0  0  0  0  0  0  0  0  0  0  0 
    4.7222   -3.9109   -0.0221 H   0  0  0  0  0  0  0  0  0  0  0  0 
  1  7  1  0  0  0  0 
  1 17  1  0  0  0  0 
  2  5  2  0  0  0  0 
  2 19  1  0  0  0  0 
  3  8  1  0  0  0  0 
  3 20  1  0  0  0  0 
  4  3  2  0  0  0  0 
  5 22  1  0  0  0  0 
  6 15  1  0  0  0  0 
  6  7  2  0  0  0  0 
  7  2  1  0  0  0  0 
  8 13  1  0  0  0  0 
  9 14  1  0  0  0  0 
  9  4  1  0  0  0  0 
 10 13  2  0  0  0  0 
 10  5  1  0  0  0  0 
 11 15  1  0  0  0  0 
 11  8  2  0  0  0  0 
 12  9  2  0  0  0  0 
 14 11  1  0  0  0  0 
 15 10  1  0  0  0  0 
 16  1  1  0  0  0  0 
 18  1  1  0  0  0  0 
 21  4  1  0  0  0  0 
 23  6  1  0  0  0  0 
 24 12  1  0  0  0  0 
 25 14  1  0  0  0  0 
M  END 
>  <HBA> 
4 
 
>  <HBD> 
1 
 
>  <TPSA> 
56.21 
 
>  <cid> 
53305 
 
>  <dipole> 
3.03 
 
>  <excitation_energy_1> 
3.006 
 
>  <excitation_energy_2> 
4.057 
 
>  <excitation_energy_3> 
4.078 
 
>  <excitation_energy_4> 
4.208 
 
>  <homo_energy> 
-4.893 
 
>  <homo_lumo_gap> 
3.431 
 
>  <logP> 
2.354 
 
>  <lumo_energy> 
-1.461 
 
>  <melting_point> 
172.22 
 
>  <molecular_refractivity> 
59.86 
 
>  <oscillator_strength_1> 
0.1939 
 
>  <oscillator_strength_2> 
0.0057 
 
>  <oscillator_strength_3> 
0.0201 
 
>  <oscillator_strength_4> 
0.0002 
 
>  <open_babel_can_smiles> 
N=c1ccc2c([nH]1)n1cc(C)ccc1n2 
 
>  <mulliken_charges> 
25 
1   -0.530027 
2   -0.158258 
3   -0.115572 
4   -0.213664 
5   -0.185894 
6   0.009442 
7   0.114099 
8   0.200084 
9   0.501518 
10   0.519633 
11   0.604809 
12   -0.681091 
13   -0.581593 
14   -0.761466 
15   -0.581956 
16   0.169799 
17   0.169622 
18   0.158083 
19   0.136963 
20   0.156428 
21   0.137863 
22   0.160521 
23   0.154982 
24   0.28008 
25   0.335594 
 
>  <lowdin_charges> 
25 
1   -0.436106 
2   -0.172885 
3   -0.122224 
4   -0.203997 
5   -0.152757 
6   -0.129677 
7   -0.013751 
8   -0.024748 
9   0.091439 
10   0.063269 
11   0.058498 
12   -0.465587 
13   -0.194927 
14   -0.209612 
15   0.022644 
16   0.164903 
17   0.164794 
18   0.158292 
19   0.164547 
20   0.174588 
21   0.167244 
22   0.18035 
23   0.165039 
24   0.253037 
25   0.297628 
 
$$$$ 
 
