PCCDB-ID:  34087 
public computational chemistry database (PCCDB) project, http://pccdb.org 
 
 20 20  0  0  0  0  0  0  0  0999 V2000 
    0.9550    0.4394   -0.2488 C   0  0  0  0  0  0  0  0  0  0  0  0 
    1.9939   -3.0103   -0.8517 C   0  0  0  0  0  0  0  0  0  0  0  0 
    2.3694   -0.1262   -0.0190 C   0  0  0  0  0  0  0  0  0  0  0  0 
    4.3205   -0.3946   -3.2775 C   0  0  0  0  0  0  0  0  0  0  0  0 
    3.7737    0.1181   -2.1033 C   0  0  0  0  0  0  0  0  0  0  0  0 
    4.0646   -1.7284   -3.5838 C   0  0  0  0  0  0  0  0  0  0  0  0 
    2.7998   -2.0349   -1.6795 C   0  0  0  0  0  0  0  0  0  0  0  0 
    2.9937   -0.6948   -1.2765 C   0  0  0  0  0  0  0  0  0  0  0  0 
    3.3285   -2.5330   -2.8092 N   0  0  0  0  0  0  0  0  0  0  0  0 
    0.5422    0.8457    0.6816 H   0  0  0  0  0  0  0  0  0  0  0  0 
    0.2692   -0.3328   -0.6141 H   0  0  0  0  0  0  0  0  0  0  0  0 
    0.9726    1.2434   -0.9929 H   0  0  0  0  0  0  0  0  0  0  0  0 
    2.4605   -3.1924    0.1253 H   0  0  0  0  0  0  0  0  0  0  0  0 
    1.9330   -3.9608   -1.3854 H   0  0  0  0  0  0  0  0  0  0  0  0 
    0.9768   -2.6488   -0.6599 H   0  0  0  0  0  0  0  0  0  0  0  0 
    2.3296   -0.8914    0.7648 H   0  0  0  0  0  0  0  0  0  0  0  0 
    3.0124    0.6750    0.3669 H   0  0  0  0  0  0  0  0  0  0  0  0 
    4.9297    0.2200   -3.9338 H   0  0  0  0  0  0  0  0  0  0  0  0 
    3.9527    1.1539   -1.8209 H   0  0  0  0  0  0  0  0  0  0  0  0 
    4.4695   -2.1779   -4.4895 H   0  0  0  0  0  0  0  0  0  0  0  0 
  1  3  1  0  0  0  0 
  1 10  1  0  0  0  0 
  2 15  1  0  0  0  0 
  2 13  1  0  0  0  0 
  3 17  1  0  0  0  0 
  3 16  1  0  0  0  0 
  4  5  1  0  0  0  0 
  5 19  1  0  0  0  0 
  5  8  2  0  0  0  0 
  6  4  2  0  0  0  0 
  6  9  1  0  0  0  0 
  7  8  1  0  0  0  0 
  7  2  1  0  0  0  0 
  8  3  1  0  0  0  0 
  9  7  2  0  0  0  0 
 11  1  1  0  0  0  0 
 12  1  1  0  0  0  0 
 14  2  1  0  0  0  0 
 18  4  1  0  0  0  0 
 20  6  1  0  0  0  0 
M  END 
>  <HBA> 
1 
 
>  <HBD> 
0 
 
>  <TPSA> 
12.89 
 
>  <cid> 
34087 
 
>  <dipole> 
2.1 
 
>  <excitation_energy_1> 
4.881 
 
>  <excitation_energy_2> 
5.132 
 
>  <excitation_energy_3> 
5.287 
 
>  <excitation_energy_4> 
5.901 
 
>  <homo_energy> 
-6.569 
 
>  <homo_lumo_gap> 
6.199 
 
>  <logP> 
1.952 
 
>  <lumo_energy> 
-0.37 
 
>  <melting_point> 
26.83 
 
>  <molecular_refractivity> 
38.98 
 
>  <oscillator_strength_1> 
0.0044 
 
>  <oscillator_strength_2> 
0.0001 
 
>  <oscillator_strength_3> 
0.0633 
 
>  <oscillator_strength_4> 
0.0798 
 
>  <open_babel_can_smiles> 
CCc1cccnc1C 
 
>  <mulliken_charges> 
20 
1   -0.439076 
2   -0.525606 
3   -0.343177 
4   -0.139029 
5   -0.153944 
6   0.034272 
7   0.255333 
8   0.135892 
9   -0.463365 
10   0.147 
11   0.153786 
12   0.150386 
13   0.159972 
14   0.177897 
15   0.157848 
16   0.147574 
17   0.144063 
18   0.132409 
19   0.131793 
20   0.135971 
 
>  <lowdin_charges> 
20 
1   -0.442553 
2   -0.450012 
3   -0.274503 
4   -0.182946 
5   -0.138821 
6   -0.094419 
7   0.046279 
8   -0.025637 
9   -0.159168 
10   0.151645 
11   0.152031 
12   0.151656 
13   0.15946 
14   0.171745 
15   0.157233 
16   0.152853 
17   0.151216 
18   0.163354 
19   0.156176 
20   0.154411 
 
$$$$ 
 
