PCCDB-ID:  69342 
public computational chemistry database (PCCDB) project, http://pccdb.org 
 
 18 17  0  0  0  0  0  0  0  0999 V2000 
    0.6642    0.1261    1.2020 C   0  0  0  0  0  0  0  0  0  0  0  0 
    6.7821    1.6685    3.8335 C   0  0  0  0  0  0  0  0  0  0  0  0 
    1.8702    0.9212    1.6661 C   0  0  0  0  0  0  0  0  0  0  0  0 
    6.1984    2.3811    2.6167 C   0  0  0  0  0  0  0  0  0  0  0  0 
    4.2923    0.5877    1.5012 C   0  0  0  0  0  0  0  0  0  0  0  0 
    3.0445    0.1778    1.2534 O   0  0  0  0  0  0  0  0  0  0  0  0 
    5.5629   -0.3184    0.9658 S   0  0  0  0  0  0  0  0  0  0  0  0 
    4.3922    2.1279    2.4035 S   0  0  0  0  0  0  0  0  0  0  0  0 
   -0.2539    0.6534    1.4823 H   0  0  0  0  0  0  0  0  0  0  0  0 
    0.6519   -0.8650    1.6650 H   0  0  0  0  0  0  0  0  0  0  0  0 
    0.6771    0.0022    0.1152 H   0  0  0  0  0  0  0  0  0  0  0  0 
    7.8526    1.8942    3.9099 H   0  0  0  0  0  0  0  0  0  0  0  0 
    6.6701    0.5854    3.7383 H   0  0  0  0  0  0  0  0  0  0  0  0 
    6.2969    1.9941    4.7592 H   0  0  0  0  0  0  0  0  0  0  0  0 
    1.8827    1.0361    2.7557 H   0  0  0  0  0  0  0  0  0  0  0  0 
    1.8978    1.9161    1.2076 H   0  0  0  0  0  0  0  0  0  0  0  0 
    6.6778    2.0564    1.6899 H   0  0  0  0  0  0  0  0  0  0  0  0 
    6.2970    3.4686    2.7007 H   0  0  0  0  0  0  0  0  0  0  0  0 
  1  9  1  0  0  0  0 
  1 10  1  0  0  0  0 
  1  3  1  0  0  0  0 
  2 12  1  0  0  0  0 
  2 14  1  0  0  0  0 
  3 15  1  0  0  0  0 
  4 18  1  0  0  0  0 
  4  2  1  0  0  0  0 
  5  8  1  0  0  0  0 
  6  5  1  0  0  0  0 
  6  3  1  0  0  0  0 
  7  5  2  0  0  0  0 
  8  4  1  0  0  0  0 
 11  1  1  0  0  0  0 
 13  2  1  0  0  0  0 
 16  3  1  0  0  0  0 
 17  4  1  0  0  0  0 
M  END 
>  <HBA> 
3 
 
>  <HBD> 
0 
 
>  <TPSA> 
66.62 
 
>  <cid> 
69342 
 
>  <dipole> 
3.62 
 
>  <excitation_energy_1> 
3.423 
 
>  <excitation_energy_2> 
4.643 
 
>  <excitation_energy_3> 
5.374 
 
>  <excitation_energy_4> 
5.435 
 
>  <homo_energy> 
-5.997 
 
>  <homo_lumo_gap> 
4.841 
 
>  <logP> 
2.061 
 
>  <lumo_energy> 
-1.156 
 
>  <melting_point> 
4.48 
 
>  <molecular_refractivity> 
42.62 
 
>  <oscillator_strength_1> 
0.0001 
 
>  <oscillator_strength_2> 
0.0734 
 
>  <oscillator_strength_3> 
0.0807 
 
>  <oscillator_strength_4> 
0.0815 
 
>  <open_babel_can_smiles> 
CCOC(=S)SCC 
 
>  <mulliken_charges> 
18 
1   -0.458126 
2   -0.438571 
3   -0.068529 
4   -0.427441 
5   0.065885 
6   -0.388023 
7   -0.188996 
8   0.156245 
9   0.156476 
10   0.173423 
11   0.174096 
12   0.156467 
13   0.184922 
14   0.15608 
15   0.17657 
16   0.175912 
17   0.21384 
18   0.17977 
 
>  <lowdin_charges> 
18 
1   -0.444366 
2   -0.442371 
3   -0.125919 
4   -0.366322 
5   -0.11138 
6   -0.158445 
7   -0.154936 
8   0.16354 
9   0.162312 
10   0.164961 
11   0.163992 
12   0.15697 
13   0.168073 
14   0.155394 
15   0.156597 
16   0.15773 
17   0.186315 
18   0.167858 
 
$$$$ 
 
