PCCDB-ID:  39081 
public computational chemistry database (PCCDB) project, http://pccdb.org 
 
 26 27  0  0  1  0  0  0  0  0999 V2000 
   -1.6207   -0.3188   -1.0578 C   0  0  0  0  0  0  0  0  0  0  0  0 
   -1.1098    0.4181    0.0109 C   0  0  0  0  0  0  0  0  0  0  0  0 
   -0.7446   -0.9274   -1.9590 C   0  0  0  0  0  0  0  0  0  0  0  0 
    0.2702    0.5462    0.1746 C   0  0  0  0  0  0  0  0  0  0  0  0 
    0.6336   -0.7956   -1.7953 C   0  0  0  0  0  0  0  0  0  0  0  0 
    3.3034    1.1526   -1.5242 C   0  0  0  0  0  0  0  0  0  0  0  0 
    1.1562   -0.0547   -0.7267 C   0  0  0  0  0  0  0  0  0  0  0  0 
    2.6466    0.1428   -0.5633 C   0  0  1  0  0  0  0  0  0  0  0  0 
    4.7693    0.6843   -1.5629 C   0  0  1  0  0  0  0  0  0  0  0  0 
    5.6793    1.3431   -0.5105 C   0  0  0  0  0  0  0  0  0  0  0  0 
    3.4981   -1.1133   -0.7729 C   0  0  0  0  0  0  0  0  0  0  0  0 
    5.8304    2.5915   -0.3386 N   0  0  0  0  0  0  0  0  0  0  0  0 
    6.3867    0.4808    0.2474 O   0  0  0  0  0  0  0  0  0  0  0  0 
    3.2568   -2.2555   -0.5067 O   0  0  0  0  0  0  0  0  0  0  0  0 
    4.7095   -0.7455   -1.3336 O   0  0  0  0  0  0  0  0  0  0  0  0 
   -2.6946   -0.4236   -1.1850 H   0  0  0  0  0  0  0  0  0  0  0  0 
   -1.7832    0.8899    0.7211 H   0  0  0  0  0  0  0  0  0  0  0  0 
   -1.1340   -1.5119   -2.7881 H   0  0  0  0  0  0  0  0  0  0  0  0 
    0.6626    1.1186    1.0123 H   0  0  0  0  0  0  0  0  0  0  0  0 
    1.3053   -1.2881   -2.4938 H   0  0  0  0  0  0  0  0  0  0  0  0 
    3.2002    2.1873   -1.1906 H   0  0  0  0  0  0  0  0  0  0  0  0 
    2.8538    1.0677   -2.5187 H   0  0  0  0  0  0  0  0  0  0  0  0 
    2.8514    0.4579    0.4704 H   0  0  0  0  0  0  0  0  0  0  0  0 
    5.2249    0.8184   -2.5485 H   0  0  0  0  0  0  0  0  0  0  0  0 
    5.2409    3.1190   -0.9851 H   0  0  0  0  0  0  0  0  0  0  0  0 
    6.1580   -0.4248   -0.0330 H   0  0  0  0  0  0  0  0  0  0  0  0 
  1  2  2  0  0  0  0 
  2  4  1  0  0  0  0 
  2 17  1  0  0  0  0 
  3  5  2  0  0  0  0 
  3  1  1  0  0  0  0 
  4 19  1  0  0  0  0 
  5  7  1  0  0  0  0 
  6 21  1  0  0  0  0 
  6  8  1  0  0  0  0 
  7  8  1  0  0  0  0 
  7  4  2  0  0  0  0 
  8 23  1  1  0  0  0 
  9 24  1  6  0  0  0 
  9  6  1  0  0  0  0 
  9 15  1  0  0  0  0 
  9 10  1  0  0  0  0 
 10 12  2  0  0  0  0 
 10 13  1  0  0  0  0 
 11  8  1  0  0  0  0 
 11 14  2  0  0  0  0 
 15 11  1  0  0  0  0 
 16  1  1  0  0  0  0 
 18  3  1  0  0  0  0 
 20  5  1  0  0  0  0 
 22  6  1  0  0  0  0 
 25 12  1  0  0  0  0 
 26 13  1  0  0  0  0 
M  END 
>  <HBA> 
4 
 
>  <HBD> 
1 
 
>  <TPSA> 
69.39 
 
>  <cid> 
39081 
 
>  <dipole> 
4.56 
 
>  <excitation_energy_1> 
5.305 
 
>  <excitation_energy_2> 
5.393 
 
>  <excitation_energy_3> 
5.635 
 
>  <excitation_energy_4> 
5.767 
 
>  <homo_energy> 
-6.985 
 
>  <homo_lumo_gap> 
6.441 
 
>  <logP> 
1.271 
 
>  <lumo_energy> 
-0.544 
 
>  <melting_point> 
115.15 
 
>  <molecular_refractivity> 
52.71 
 
>  <oscillator_strength_1> 
0.0014 
 
>  <oscillator_strength_2> 
0.003 
 
>  <oscillator_strength_3> 
0.0007 
 
>  <oscillator_strength_4> 
0.0012 
 
>  <open_babel_can_smiles> 
OC(=N)[C@@H]1C[C@H](C(=O)O1)c1ccccc1 
 
>  <mulliken_charges> 
26 
1   -0.126114 
2   -0.127729 
3   -0.133153 
4   -0.190789 
5   -0.172073 
6   -0.299366 
7   0.207016 
8   -0.32282 
9   0.020375 
10   0.464996 
11   0.627416 
12   -0.573577 
13   -0.575669 
14   -0.427788 
15   -0.498889 
16   0.136409 
17   0.137212 
18   0.137924 
19   0.131795 
20   0.135533 
21   0.173855 
22   0.171488 
23   0.195661 
24   0.192042 
25   0.28292 
26   0.433325 
 
>  <lowdin_charges> 
26 
1   -0.150059 
2   -0.152833 
3   -0.149682 
4   -0.162848 
5   -0.158955 
6   -0.281257 
7   -0.000914 
8   -0.156706 
9   -0.034857 
10   0.101911 
11   0.193608 
12   -0.394434 
13   -0.346978 
14   -0.202785 
15   -0.212155 
16   0.159502 
17   0.163023 
18   0.162613 
19   0.158627 
20   0.161505 
21   0.166253 
22   0.162488 
23   0.18043 
24   0.174223 
25   0.25717 
26   0.36311 
 
$$$$ 
 
