PCCDB-ID:  17777 
public computational chemistry database (PCCDB) project, http://pccdb.org 
 
 23 23  0  0  0  0  0  0  0  0999 V2000 
    3.4358    0.0805   -1.3500 C   0  0  0  0  0  0  0  0  0  0  0  0 
    1.1619   -0.0048   -0.2218 C   0  0  0  0  0  0  0  0  0  0  0  0 
    4.6622   -2.2783    3.8562 C   0  0  0  0  0  0  0  0  0  0  0  0 
    3.7634   -3.6351    1.9170 C   0  0  0  0  0  0  0  0  0  0  0  0 
    2.6860   -0.0671   -0.0137 C   0  0  0  0  0  0  0  0  0  0  0  0 
    4.0024   -2.3949    2.5057 C   0  0  0  0  0  0  0  0  0  0  0  0 
    3.1521   -3.6231    0.6570 C   0  0  0  0  0  0  0  0  0  0  0  0 
    3.0795   -1.3545    0.6857 C   0  0  0  0  0  0  0  0  0  0  0  0 
    3.6602   -1.2483    1.8901 N   0  0  0  0  0  0  0  0  0  0  0  0 
    2.8099   -2.4987    0.0403 N   0  0  0  0  0  0  0  0  0  0  0  0 
    2.8643   -4.7565   -0.0255 O   0  0  0  0  0  0  0  0  0  0  0  0 
    3.1665    1.0261   -1.8348 H   0  0  0  0  0  0  0  0  0  0  0  0 
    3.1801   -0.7415   -2.0265 H   0  0  0  0  0  0  0  0  0  0  0  0 
    4.5216    0.0741   -1.2006 H   0  0  0  0  0  0  0  0  0  0  0  0 
    0.8829    0.9322   -0.7175 H   0  0  0  0  0  0  0  0  0  0  0  0 
    0.6274   -0.0541    0.7339 H   0  0  0  0  0  0  0  0  0  0  0  0 
    0.8254   -0.8402   -0.8442 H   0  0  0  0  0  0  0  0  0  0  0  0 
    4.1378   -2.8799    4.6079 H   0  0  0  0  0  0  0  0  0  0  0  0 
    4.6655   -1.2339    4.1741 H   0  0  0  0  0  0  0  0  0  0  0  0 
    5.6986   -2.6361    3.8178 H   0  0  0  0  0  0  0  0  0  0  0  0 
    4.0379   -4.5619    2.4147 H   0  0  0  0  0  0  0  0  0  0  0  0 
    2.9874    0.7460    0.6553 H   0  0  0  0  0  0  0  0  0  0  0  0 
    3.1453   -5.5215    0.5018 H   0  0  0  0  0  0  0  0  0  0  0  0 
  1 14  1  0  0  0  0 
  1  5  1  0  0  0  0 
  2  5  1  0  0  0  0 
  2 16  1  0  0  0  0 
  3 19  1  0  0  0  0 
  3 18  1  0  0  0  0 
  4 21  1  0  0  0  0 
  4  6  2  0  0  0  0 
  5 22  1  0  0  0  0 
  5  8  1  0  0  0  0 
  6  3  1  0  0  0  0 
  7  4  1  0  0  0  0 
  8  9  2  0  0  0  0 
  9  6  1  0  0  0  0 
 10  7  2  0  0  0  0 
 10  8  1  0  0  0  0 
 11 23  1  0  0  0  0 
 11  7  1  0  0  0  0 
 12  1  1  0  0  0  0 
 13  1  1  0  0  0  0 
 15  2  1  0  0  0  0 
 17  2  1  0  0  0  0 
 20  3  1  0  0  0  0 
M  END 
>  <HBA> 
2 
 
>  <HBD> 
1 
 
>  <TPSA> 
45.75 
 
>  <cid> 
17777 
 
>  <dipole> 
3.25 
 
>  <excitation_energy_1> 
4.657 
 
>  <excitation_energy_2> 
5.115 
 
>  <excitation_energy_3> 
5.415 
 
>  <excitation_energy_4> 
5.882 
 
>  <homo_energy> 
-6.727 
 
>  <homo_lumo_gap> 
6.055 
 
>  <logP> 
1.202 
 
>  <lumo_energy> 
-0.672 
 
>  <melting_point> 
108.89 
 
>  <molecular_refractivity> 
44.4 
 
>  <oscillator_strength_1> 
0.0011 
 
>  <oscillator_strength_2> 
0.0025 
 
>  <oscillator_strength_3> 
0.0474 
 
>  <oscillator_strength_4> 
0.0079 
 
>  <open_babel_can_smiles> 
Cc1cc(O)nc(n1)C(C)C 
 
>  <mulliken_charges> 
23 
1   -0.44959 
2   -0.449894 
3   -0.526821 
4   -0.246 
5   -0.12718 
6   0.325172 
7   0.509596 
8   0.442777 
9   -0.507363 
10   -0.478552 
11   -0.594394 
12   0.140369 
13   0.166673 
14   0.144566 
15   0.140479 
16   0.144762 
17   0.166683 
18   0.163874 
19   0.183494 
20   0.168622 
21   0.126075 
22   0.145681 
23   0.410974 
 
>  <lowdin_charges> 
23 
1   -0.439953 
2   -0.442114 
3   -0.448981 
4   -0.265971 
5   -0.126512 
6   0.088074 
7   0.153378 
8   0.10712 
9   -0.196584 
10   -0.179092 
11   -0.345661 
12   0.1488 
13   0.160059 
14   0.147976 
15   0.148931 
16   0.149858 
17   0.160117 
18   0.165532 
19   0.173461 
20   0.166287 
21   0.160535 
22   0.153742 
23   0.360999 
 
$$$$ 
 
