PCCDB-ID:  19316 
public computational chemistry database (PCCDB) project, http://pccdb.org 
 
 32 31  0  0  1  0  0  0  0  0999 V2000 
    4.7365    0.8256    4.5271 C   0  0  0  0  0  0  0  0  0  0  0  0 
    3.8458    2.9427    3.4478 C   0  0  0  0  0  0  0  0  0  0  0  0 
    6.1255   -0.2938   -1.1462 C   0  0  0  0  0  0  0  0  0  0  0  0 
   10.3261    1.0090   -1.8499 C   0  0  0  0  0  0  0  0  0  0  0  0 
    4.3592    1.5529    0.6817 C   0  0  0  0  0  0  0  0  0  0  0  0 
    4.6182    0.9798    2.0517 C   0  0  0  0  0  0  0  0  0  0  0  0 
    5.6365    1.9813   -0.0786 C   0  0  0  0  0  0  0  0  0  0  0  0 
    7.9303    1.4726   -0.9890 C   0  0  0  0  0  0  0  0  0  0  0  0 
    4.4089    1.5563    3.2460 C   0  0  0  0  0  0  0  0  0  0  0  0 
    6.6834    0.8747   -0.3182 C   0  0  2  0  0  0  0  0  0  0  0  0 
    9.1703    0.5831   -0.9580 C   0  0  0  0  0  0  0  0  0  0  0  0 
    9.2453   -0.4055   -0.2521 O   0  0  0  0  0  0  0  0  0  0  0  0 
    3.8442    0.7167    5.1602 H   0  0  0  0  0  0  0  0  0  0  0  0 
    5.4726    1.3828    5.1238 H   0  0  0  0  0  0  0  0  0  0  0  0 
    5.1412   -0.1735    4.3371 H   0  0  0  0  0  0  0  0  0  0  0  0 
    4.5575    3.5718    4.0007 H   0  0  0  0  0  0  0  0  0  0  0  0 
    2.9309    2.9063    4.0555 H   0  0  0  0  0  0  0  0  0  0  0  0 
    3.6073    3.4541    2.5124 H   0  0  0  0  0  0  0  0  0  0  0  0 
    5.2871   -0.7832   -0.6398 H   0  0  0  0  0  0  0  0  0  0  0  0 
    6.8948   -1.0533   -1.3127 H   0  0  0  0  0  0  0  0  0  0  0  0 
    5.7649    0.0538   -2.1243 H   0  0  0  0  0  0  0  0  0  0  0  0 
   10.0576    0.8512   -2.9027 H   0  0  0  0  0  0  0  0  0  0  0  0 
   11.2140    0.4180   -1.6158 H   0  0  0  0  0  0  0  0  0  0  0  0 
   10.5456    2.0772   -1.7338 H   0  0  0  0  0  0  0  0  0  0  0  0 
    3.6970    2.4234    0.7438 H   0  0  0  0  0  0  0  0  0  0  0  0 
    3.8171    0.8083    0.0824 H   0  0  0  0  0  0  0  0  0  0  0  0 
    5.0368   -0.0277    2.0581 H   0  0  0  0  0  0  0  0  0  0  0  0 
    6.1108    2.7977    0.4838 H   0  0  0  0  0  0  0  0  0  0  0  0 
    5.3360    2.4059   -1.0488 H   0  0  0  0  0  0  0  0  0  0  0  0 
    8.2169    2.4136   -0.4914 H   0  0  0  0  0  0  0  0  0  0  0  0 
    7.7206    1.7556   -2.0318 H   0  0  0  0  0  0  0  0  0  0  0  0 
    7.0048    0.4790    0.6529 H   0  0  0  0  0  0  0  0  0  0  0  0 
  1 14  1  0  0  0  0 
  1 13  1  0  0  0  0 
  2 16  1  0  0  0  0 
  2 17  1  0  0  0  0 
  3 19  1  0  0  0  0 
  3 10  1  0  0  0  0 
  4 24  1  0  0  0  0 
  4 23  1  0  0  0  0 
  4 11  1  0  0  0  0 
  5 25  1  0  0  0  0 
  5  6  1  0  0  0  0 
  6 27  1  0  0  0  0 
  6  9  2  0  0  0  0 
  7 28  1  0  0  0  0 
  7  5  1  0  0  0  0 
  8 11  1  0  0  0  0 
  8 30  1  0  0  0  0 
  8 10  1  0  0  0  0 
  9  2  1  0  0  0  0 
  9  1  1  0  0  0  0 
 10  7  1  0  0  0  0 
 10 32  1  1  0  0  0 
 11 12  2  0  0  0  0 
 15  1  1  0  0  0  0 
 18  2  1  0  0  0  0 
 20  3  1  0  0  0  0 
 21  3  1  0  0  0  0 
 22  4  1  0  0  0  0 
 26  5  1  0  0  0  0 
 29  7  1  0  0  0  0 
 31  8  1  0  0  0  0 
M  END 
>  <HBA> 
1 
 
>  <HBD> 
0 
 
>  <TPSA> 
17.07 
 
>  <cid> 
19316 
 
>  <dipole> 
2.55 
 
>  <excitation_energy_1> 
4.408 
 
>  <excitation_energy_2> 
5.237 
 
>  <excitation_energy_3> 
5.654 
 
>  <excitation_energy_4> 
5.967 
 
>  <homo_energy> 
-6.147 
 
>  <homo_lumo_gap> 
5.88 
 
>  <logP> 
3.348 
 
>  <lumo_energy> 
-0.267 
 
>  <melting_point> 
4.72 
 
>  <molecular_refractivity> 
54.72 
 
>  <oscillator_strength_1> 
0.0001 
 
>  <oscillator_strength_2> 
0.0004 
 
>  <oscillator_strength_3> 
0.0215 
 
>  <oscillator_strength_4> 
0.0456 
 
>  <open_babel_can_smiles> 
CC(=CCC[C@H](CC(=O)C)C)C 
 
>  <mulliken_charges> 
32 
1   -0.50527 
2   -0.512329 
3   -0.462946 
4   -0.529175 
5   -0.313636 
6   -0.162827 
7   -0.252015 
8   -0.359799 
9   0.186306 
10   -0.062077 
11   0.456806 
12   -0.440492 
13   0.147767 
14   0.148352 
15   0.153078 
16   0.151252 
17   0.151083 
18   0.152804 
19   0.147276 
20   0.162503 
21   0.130021 
22   0.171464 
23   0.178872 
24   0.163169 
25   0.135716 
26   0.140948 
27   0.118124 
28   0.127927 
29   0.120299 
30   0.158166 
31   0.145931 
32   0.152704 
 
>  <lowdin_charges> 
32 
1   -0.440181 
2   -0.446979 
3   -0.451321 
4   -0.4733 
5   -0.279979 
6   -0.1933 
7   -0.273963 
8   -0.309472 
9   -0.009045 
10   -0.12369 
11   0.166195 
12   -0.238018 
13   0.152096 
14   0.153299 
15   0.154651 
16   0.156184 
17   0.154633 
18   0.154899 
19   0.151456 
20   0.159902 
21   0.140252 
22   0.170665 
23   0.172628 
24   0.164359 
25   0.147714 
26   0.148864 
27   0.146328 
28   0.140702 
29   0.135646 
30   0.163735 
31   0.15241 
32   0.152627 
 
$$$$ 
 
