PCCDB-ID:  8365 
public computational chemistry database (PCCDB) project, http://pccdb.org 
 
 22 22  0  0  0  0  0  0  0  0999 V2000 
    2.8579    2.9517    0.8242 C   0  0  0  0  0  0  0  0  0  0  0  0 
    4.3232    2.9214    1.2335 C   0  0  0  0  0  0  0  0  0  0  0  0 
    6.7725   -2.1261   -1.1871 C   0  0  0  0  0  0  0  0  0  0  0  0 
    7.4927   -1.5465   -2.2347 C   0  0  0  0  0  0  0  0  0  0  0  0 
    6.0362   -1.3067   -0.3416 C   0  0  0  0  0  0  0  0  0  0  0  0 
    7.4678   -0.1689   -2.4194 C   0  0  0  0  0  0  0  0  0  0  0  0 
    5.9913    0.0887   -0.5037 C   0  0  0  0  0  0  0  0  0  0  0  0 
    6.7256    0.6626   -1.5664 C   0  0  0  0  0  0  0  0  0  0  0  0 
    5.1518    0.8245    0.4896 C   0  0  0  0  0  0  0  0  0  0  0  0 
    6.7144    2.0089   -1.7625 O   0  0  0  0  0  0  0  0  0  0  0  0 
    4.5546    0.2636    1.3925 O   0  0  0  0  0  0  0  0  0  0  0  0 
    5.1186    2.1570    0.2987 O   0  0  0  0  0  0  0  0  0  0  0  0 
    2.2978    3.6136    1.4951 H   0  0  0  0  0  0  0  0  0  0  0  0 
    2.4212    1.9511    0.8842 H   0  0  0  0  0  0  0  0  0  0  0  0 
    2.7490    3.3261   -0.1990 H   0  0  0  0  0  0  0  0  0  0  0  0 
    4.4461    2.4979    2.2333 H   0  0  0  0  0  0  0  0  0  0  0  0 
    4.7665    3.9200    1.2036 H   0  0  0  0  0  0  0  0  0  0  0  0 
    6.7860   -3.2007   -1.0348 H   0  0  0  0  0  0  0  0  0  0  0  0 
    8.0761   -2.1654   -2.9112 H   0  0  0  0  0  0  0  0  0  0  0  0 
    5.4659   -1.7226    0.4818 H   0  0  0  0  0  0  0  0  0  0  0  0 
    8.0298    0.2822   -3.2360 H   0  0  0  0  0  0  0  0  0  0  0  0 
    7.2725    2.2059   -2.5319 H   0  0  0  0  0  0  0  0  0  0  0  0 
  1 14  1  0  0  0  0 
  1  2  1  0  0  0  0 
  1 13  1  0  0  0  0 
  2 16  1  0  0  0  0 
  3 18  1  0  0  0  0 
  3  5  2  0  0  0  0 
  4  3  1  0  0  0  0 
  5 20  1  0  0  0  0 
  6  4  2  0  0  0  0 
  6  8  1  0  0  0  0 
  7  5  1  0  0  0  0 
  7  9  1  0  0  0  0 
  8  7  2  0  0  0  0 
  9 11  2  0  0  0  0 
 10  8  1  0  0  0  0 
 12  9  1  0  0  0  0 
 12  2  1  0  0  0  0 
 15  1  1  0  0  0  0 
 17  2  1  0  0  0  0 
 19  4  1  0  0  0  0 
 21  6  1  0  0  0  0 
 22 10  1  0  0  0  0 
M  END 
>  <HBA> 
3 
 
>  <HBD> 
1 
 
>  <TPSA> 
46.53 
 
>  <cid> 
8365 
 
>  <dipole> 
3.12 
 
>  <excitation_energy_1> 
4.521 
 
>  <excitation_energy_2> 
4.883 
 
>  <excitation_energy_3> 
5.4 
 
>  <excitation_energy_4> 
5.417 
 
>  <homo_energy> 
-6.253 
 
>  <homo_lumo_gap> 
5.222 
 
>  <logP> 
1.569 
 
>  <lumo_energy> 
-1.031 
 
>  <melting_point> 
69.57 
 
>  <molecular_refractivity> 
44.55 
 
>  <oscillator_strength_1> 
0.0852 
 
>  <oscillator_strength_2> 
0.0002 
 
>  <oscillator_strength_3> 
0.0004 
 
>  <oscillator_strength_4> 
0.146 
 
>  <open_babel_can_smiles> 
CCOC(=O)c1ccccc1O 
 
>  <mulliken_charges> 
22 
1   -0.462714 
2   -0.040124 
3   -0.1399 
4   -0.122397 
5   -0.168145 
6   -0.198143 
7   0.030943 
8   0.301712 
9   0.604758 
10   -0.615418 
11   -0.502557 
12   -0.457727 
13   0.146585 
14   0.177167 
15   0.157165 
16   0.168244 
17   0.150725 
18   0.134546 
19   0.137652 
20   0.168401 
21   0.120981 
22   0.408246 
 
>  <lowdin_charges> 
22 
1   -0.455339 
2   -0.126339 
3   -0.178852 
4   -0.131085 
5   -0.119151 
6   -0.216885 
7   -0.079299 
8   0.119273 
9   0.201737 
10   -0.354779 
11   -0.287242 
12   -0.175699 
13   0.158138 
14   0.165203 
15   0.155117 
16   0.156951 
17   0.150874 
18   0.159729 
19   0.163514 
20   0.181342 
21   0.155223 
22   0.357569 
 
$$$$ 
 
