PCCDB-ID:  67406 
public computational chemistry database (PCCDB) project, http://pccdb.org 
 
 21 21  0  0  0  0  0  0  0  0999 V2000 
    0.7260    0.6786    0.2524 C   0  0  0  0  0  0  0  0  0  0  0  0 
    5.5983   -4.0838   -0.3054 C   0  0  0  0  0  0  0  0  0  0  0  0 
    4.3710    1.7341   -0.1829 C   0  0  0  0  0  0  0  0  0  0  0  0 
    2.9892    1.7926    0.0022 C   0  0  0  0  0  0  0  0  0  0  0  0 
    5.0077    0.5056   -0.3508 C   0  0  0  0  0  0  0  0  0  0  0  0 
    2.8579   -0.6105   -0.1572 C   0  0  0  0  0  0  0  0  0  0  0  0 
    2.2185    0.6231    0.0200 C   0  0  0  0  0  0  0  0  0  0  0  0 
    4.7311   -2.9541    0.1958 C   0  0  0  0  0  0  0  0  0  0  0  0 
    4.2390   -0.6559   -0.3333 C   0  0  0  0  0  0  0  0  0  0  0  0 
    3.9858   -3.0001    1.1424 O   0  0  0  0  0  0  0  0  0  0  0  0 
    4.9213   -1.8490   -0.5926 O   0  0  0  0  0  0  0  0  0  0  0  0 
    0.3114    1.6487   -0.0407 H   0  0  0  0  0  0  0  0  0  0  0  0 
    0.4860    0.5264    1.3130 H   0  0  0  0  0  0  0  0  0  0  0  0 
    0.2020   -0.1000   -0.3122 H   0  0  0  0  0  0  0  0  0  0  0  0 
    5.4371   -4.9663    0.3142 H   0  0  0  0  0  0  0  0  0  0  0  0 
    6.6531   -3.7918   -0.2717 H   0  0  0  0  0  0  0  0  0  0  0  0 
    5.3565   -4.3094   -1.3492 H   0  0  0  0  0  0  0  0  0  0  0  0 
    4.9559    2.6496   -0.2008 H   0  0  0  0  0  0  0  0  0  0  0  0 
    2.5023    2.7563    0.1297 H   0  0  0  0  0  0  0  0  0  0  0  0 
    6.0798    0.4333   -0.5025 H   0  0  0  0  0  0  0  0  0  0  0  0 
    2.2834   -1.5294   -0.1482 H   0  0  0  0  0  0  0  0  0  0  0  0 
  1 13  1  0  0  0  0 
  2 16  1  0  0  0  0 
  2  8  1  0  0  0  0 
  2 15  1  0  0  0  0 
  3  4  2  0  0  0  0 
  4  7  1  0  0  0  0 
  4 19  1  0  0  0  0 
  5  9  2  0  0  0  0 
  5  3  1  0  0  0  0 
  6 21  1  0  0  0  0 
  6  7  2  0  0  0  0 
  7  1  1  0  0  0  0 
  8 10  2  0  0  0  0 
  9  6  1  0  0  0  0 
 11  9  1  0  0  0  0 
 11  8  1  0  0  0  0 
 12  1  1  0  0  0  0 
 14  1  1  0  0  0  0 
 17  2  1  0  0  0  0 
 18  3  1  0  0  0  0 
 20  5  1  0  0  0  0 
M  END 
>  <HBA> 
2 
 
>  <HBD> 
0 
 
>  <TPSA> 
26.3 
 
>  <cid> 
67406 
 
>  <dipole> 
1.41 
 
>  <excitation_energy_1> 
5.138 
 
>  <excitation_energy_2> 
5.474 
 
>  <excitation_energy_3> 
5.611 
 
>  <excitation_energy_4> 
6.002 
 
>  <homo_energy> 
-6.416 
 
>  <homo_lumo_gap> 
6.204 
 
>  <logP> 
1.92 
 
>  <lumo_energy> 
-0.212 
 
>  <melting_point> 
33.99 
 
>  <molecular_refractivity> 
42.91 
 
>  <oscillator_strength_1> 
0.0053 
 
>  <oscillator_strength_2> 
0.0885 
 
>  <oscillator_strength_3> 
0.0157 
 
>  <oscillator_strength_4> 
0.0612 
 
>  <open_babel_can_smiles> 
CC(=O)Oc1cccc(c1)C 
 
>  <mulliken_charges> 
21 
1   -0.527655 
2   -0.525015 
3   -0.137133 
4   -0.173498 
5   -0.166403 
6   -0.189289 
7   0.160373 
8   0.591844 
9   0.351211 
10   -0.444882 
11   -0.51758 
12   0.1559 
13   0.171822 
14   0.159204 
15   0.184411 
16   0.1849 
17   0.184642 
18   0.133031 
19   0.123002 
20   0.136938 
21   0.144176 
 
>  <lowdin_charges> 
21 
1   -0.441121 
2   -0.461691 
3   -0.149408 
4   -0.173838 
5   -0.175875 
6   -0.178154 
7   0.009703 
8   0.208365 
9   0.103894 
10   -0.240584 
11   -0.168948 
12   0.157574 
13   0.164013 
14   0.160716 
15   0.177042 
16   0.178508 
17   0.178417 
18   0.160359 
19   0.155845 
20   0.164452 
21   0.170731 
 
$$$$ 
 
