PCCDB-ID:  7422 
public computational chemistry database (PCCDB) project, http://pccdb.org 
 
 17 17  0  0  0  0  0  0  0  0999 V2000 
    0.9780   -0.0896    0.2355 C   0  0  0  0  0  0  0  0  0  0  0  0 
    4.6055    1.0691   -0.1642 C   0  0  0  0  0  0  0  0  0  0  0  0 
    3.2166    1.0821   -0.0137 C   0  0  0  0  0  0  0  0  0  0  0  0 
    5.2916   -0.1382   -0.2607 C   0  0  0  0  0  0  0  0  0  0  0  0 
    3.1656   -1.3210   -0.0530 C   0  0  0  0  0  0  0  0  0  0  0  0 
    2.4770   -0.1073    0.0475 C   0  0  0  0  0  0  0  0  0  0  0  0 
    4.5496   -1.3164   -0.2024 C   0  0  0  0  0  0  0  0  0  0  0  0 
    5.2548   -2.6058   -0.3074 N   0  0  0  0  0  0  0  0  0  0  0  0 
    6.4788   -2.5793   -0.4343 O   0  0  0  0  0  0  0  0  0  0  0  0 
    4.5801   -3.6343   -0.2618 O   0  0  0  0  0  0  0  0  0  0  0  0 
    0.5557    0.8887   -0.0138 H   0  0  0  0  0  0  0  0  0  0  0  0 
    0.7083   -0.3100    1.2764 H   0  0  0  0  0  0  0  0  0  0  0  0 
    0.4876   -0.8417   -0.3917 H   0  0  0  0  0  0  0  0  0  0  0  0 
    5.1543    2.0051   -0.2104 H   0  0  0  0  0  0  0  0  0  0  0  0 
    2.6958    2.0339    0.0574 H   0  0  0  0  0  0  0  0  0  0  0  0 
    6.3665   -0.1840   -0.3810 H   0  0  0  0  0  0  0  0  0  0  0  0 
    2.6426   -2.2698   -0.0175 H   0  0  0  0  0  0  0  0  0  0  0  0 
  1 12  1  0  0  0  0 
  2  3  2  0  0  0  0 
  3  6  1  0  0  0  0 
  3 15  1  0  0  0  0 
  4  7  2  0  0  0  0 
  4  2  1  0  0  0  0 
  5 17  1  0  0  0  0 
  5  6  2  0  0  0  0 
  6  1  1  0  0  0  0 
  7  5  1  0  0  0  0 
  8 10  2  0  0  0  0 
  8  7  1  0  0  0  0 
  9  8  2  0  0  0  0 
 11  1  1  0  0  0  0 
 13  1  1  0  0  0  0 
 14  2  1  0  0  0  0 
 16  4  1  0  0  0  0 
M  END 
>  <HBA> 
0 
 
>  <HBD> 
0 
 
>  <TPSA> 
45.82 
 
>  <cid> 
7422 
 
>  <dipole> 
4.83 
 
>  <excitation_energy_1> 
3.742 
 
>  <excitation_energy_2> 
4.044 
 
>  <excitation_energy_3> 
4.263 
 
>  <excitation_energy_4> 
4.6 
 
>  <homo_energy> 
-7.26 
 
>  <homo_lumo_gap> 
4.909 
 
>  <logP> 
2.426 
 
>  <lumo_energy> 
-2.351 
 
>  <melting_point> 
46.95 
 
>  <molecular_refractivity> 
40.23 
 
>  <oscillator_strength_1> 
0.0 
 
>  <oscillator_strength_2> 
0.0198 
 
>  <oscillator_strength_3> 
0.0003 
 
>  <oscillator_strength_4> 
0.1949 
 
>  <open_babel_can_smiles> 
Cc1cccc(c1)N(=O)=O 
 
>  <mulliken_charges> 
17 
1   -0.529122 
2   -0.138086 
3   -0.158531 
4   -0.15232 
5   -0.201775 
6   0.161988 
7   0.275073 
8   0.380025 
9   -0.394264 
10   -0.395526 
11   0.161789 
12   0.175941 
13   0.170516 
14   0.14815 
15   0.138701 
16   0.181357 
17   0.176083 
 
>  <lowdin_charges> 
17 
1   -0.441756 
2   -0.147198 
3   -0.145034 
4   -0.141459 
5   -0.147656 
6   0.009197 
7   0.004678 
8   0.306026 
9   -0.24478 
10   -0.248011 
11   0.160932 
12   0.167197 
13   0.16708 
14   0.167614 
15   0.16305 
16   0.185388 
17   0.18473 
 
$$$$ 
 
