PCCDB-ID:  28818 
public computational chemistry database (PCCDB) project, http://pccdb.org 
 
 35 36  0  0  0  0  0  0  0  0999 V2000 
    0.8795   -0.0196   -0.3147 C   0  0  0  0  0  0  0  0  0  0  0  0 
    4.4759   -3.8973    0.1503 C   0  0  0  0  0  0  0  0  0  0  0  0 
    6.0727    2.6289    1.3137 C   0  0  0  0  0  0  0  0  0  0  0  0 
    6.3197    2.5115   -1.2089 C   0  0  0  0  0  0  0  0  0  0  0  0 
    4.3787    3.6847   -0.1779 C   0  0  0  0  0  0  0  0  0  0  0  0 
    3.0538   -1.2889   -0.0783 C   0  0  0  0  0  0  0  0  0  0  0  0 
    3.1411    1.1058   -0.1695 C   0  0  0  0  0  0  0  0  0  0  0  0 
    6.5514   -2.5304    0.2910 C   0  0  0  0  0  0  0  0  0  0  0  0 
    2.3840   -0.0807   -0.1878 C   0  0  0  0  0  0  0  0  0  0  0  0 
    5.2011   -2.5775    0.1687 C   0  0  0  0  0  0  0  0  0  0  0  0 
    4.4549   -1.3320    0.0531 C   0  0  0  0  0  0  0  0  0  0  0  0 
    4.5308    1.1394   -0.0429 C   0  0  0  0  0  0  0  0  0  0  0  0 
    7.2953   -1.2845    0.3128 C   0  0  0  0  0  0  0  0  0  0  0  0 
    5.1695   -0.1185    0.0709 C   0  0  0  0  0  0  0  0  0  0  0  0 
    5.3165    2.4692   -0.0289 C   0  0  0  0  0  0  0  0  0  0  0  0 
    8.4939   -1.1604    0.4188 O   0  0  0  0  0  0  0  0  0  0  0  0 
    6.5324   -0.1240    0.1994 O   0  0  0  0  0  0  0  0  0  0  0  0 
    0.4486   -1.0178   -0.4411 H   0  0  0  0  0  0  0  0  0  0  0  0 
    0.5738    0.5884   -1.1746 H   0  0  0  0  0  0  0  0  0  0  0  0 
    0.4202    0.4293    0.5754 H   0  0  0  0  0  0  0  0  0  0  0  0 
    5.1781   -4.7290    0.2488 H   0  0  0  0  0  0  0  0  0  0  0  0 
    3.9183   -4.0297   -0.7848 H   0  0  0  0  0  0  0  0  0  0  0  0 
    3.7508   -3.9627    0.9706 H   0  0  0  0  0  0  0  0  0  0  0  0 
    6.6073    3.5864    1.3239 H   0  0  0  0  0  0  0  0  0  0  0  0 
    6.8035    1.8334    1.4685 H   0  0  0  0  0  0  0  0  0  0  0  0 
    5.3719    2.6270    2.1570 H   0  0  0  0  0  0  0  0  0  0  0  0 
    6.8434    3.4751   -1.2128 H   0  0  0  0  0  0  0  0  0  0  0  0 
    5.7965    2.4109   -2.1673 H   0  0  0  0  0  0  0  0  0  0  0  0 
    7.0685    1.7210   -1.1386 H   0  0  0  0  0  0  0  0  0  0  0  0 
    4.9781    4.6014   -0.1679 H   0  0  0  0  0  0  0  0  0  0  0  0 
    3.6588    3.7561    0.6456 H   0  0  0  0  0  0  0  0  0  0  0  0 
    3.8238    3.6666   -1.1230 H   0  0  0  0  0  0  0  0  0  0  0  0 
    2.4913   -2.2172   -0.0943 H   0  0  0  0  0  0  0  0  0  0  0  0 
    2.6011    2.0413   -0.2605 H   0  0  0  0  0  0  0  0  0  0  0  0 
    7.1506   -3.4300    0.3790 H   0  0  0  0  0  0  0  0  0  0  0  0 
  1  9  1  0  0  0  0 
  1 20  1  0  0  0  0 
  2 10  1  0  0  0  0 
  2 21  1  0  0  0  0 
  2 23  1  0  0  0  0 
  3 24  1  0  0  0  0 
  3 25  1  0  0  0  0 
  3 26  1  0  0  0  0 
  4 29  1  0  0  0  0 
  4 15  1  0  0  0  0 
  5 30  1  0  0  0  0 
  5 15  1  0  0  0  0 
  5 31  1  0  0  0  0 
  6 11  2  0  0  0  0 
  7 12  1  0  0  0  0 
  8 13  1  0  0  0  0 
  8 35  1  0  0  0  0 
  9  7  2  0  0  0  0 
  9  6  1  0  0  0  0 
 10  8  2  0  0  0  0 
 11 14  1  0  0  0  0 
 11 10  1  0  0  0  0 
 12 15  1  0  0  0  0 
 12 14  2  0  0  0  0 
 13 16  2  0  0  0  0 
 14 17  1  0  0  0  0 
 15  3  1  0  0  0  0 
 17 13  1  0  0  0  0 
 18  1  1  0  0  0  0 
 19  1  1  0  0  0  0 
 22  2  1  0  0  0  0 
 27  4  1  0  0  0  0 
 28  4  1  0  0  0  0 
 32  5  1  0  0  0  0 
 33  6  1  0  0  0  0 
 34  7  1  0  0  0  0 
M  END 
>  <HBA> 
2 
 
>  <HBD> 
0 
 
>  <TPSA> 
30.21 
 
>  <cid> 
28818 
 
>  <dipole> 
5.08 
 
>  <excitation_energy_1> 
3.966 
 
>  <excitation_energy_2> 
4.491 
 
>  <excitation_energy_3> 
4.531 
 
>  <excitation_energy_4> 
5.355 
 
>  <homo_energy> 
-6.147 
 
>  <homo_lumo_gap> 
4.533 
 
>  <logP> 
3.707 
 
>  <lumo_energy> 
-1.614 
 
>  <melting_point> 
101.79 
 
>  <molecular_refractivity> 
71.69 
 
>  <oscillator_strength_1> 
0.0931 
 
>  <oscillator_strength_2> 
0.1582 
 
>  <oscillator_strength_3> 
0.0 
 
>  <oscillator_strength_4> 
0.0145 
 
>  <open_babel_can_smiles> 
Cc1cc(c2c(c1)c(C)cc(=O)o2)C(C)(C)C 
 
>  <mulliken_charges> 
35 
1   -0.533365 
2   -0.535985 
3   -0.453792 
4   -0.454471 
5   -0.457548 
6   -0.282229 
7   -0.269165 
8   -0.302538 
9   0.205755 
10   0.197474 
11   0.111175 
12   0.144489 
13   0.607311 
14   0.233474 
15   0.029875 
16   -0.478498 
17   -0.525983 
18   0.155819 
19   0.163447 
20   0.166251 
21   0.17076 
22   0.175127 
23   0.174986 
24   0.138415 
25   0.180408 
26   0.137427 
27   0.138145 
28   0.137532 
29   0.18112 
30   0.146182 
31   0.143326 
32   0.143432 
33   0.126686 
34   0.131095 
35   0.153866 
 
>  <lowdin_charges> 
35 
1   -0.442128 
2   -0.441903 
3   -0.446797 
4   -0.446283 
5   -0.444687 
6   -0.169981 
7   -0.161994 
8   -0.218294 
9   -0.006251 
10   0.044004 
11   -0.043472 
12   -0.014481 
13   0.187837 
14   0.105857 
15   0.022005 
16   -0.248714 
17   -0.13404 
18   0.156783 
19   0.161903 
20   0.162886 
21   0.167023 
22   0.16876 
23   0.169087 
24   0.147834 
25   0.166192 
26   0.147097 
27   0.147654 
28   0.146513 
29   0.166401 
30   0.153615 
31   0.14823 
32   0.14777 
33   0.159693 
34   0.164282 
35   0.177597 
 
$$$$ 
 
