PCCDB-ID:  12575 
public computational chemistry database (PCCDB) project, http://pccdb.org 
 
 20 20  0  0  0  0  0  0  0  0999 V2000 
    2.3855    1.2862    0.6938 C   0  0  0  0  0  0  0  0  0  0  0  0 
    3.3255   -3.2217    1.6176 C   0  0  0  0  0  0  0  0  0  0  0  0 
    2.8236   -2.1722    0.8507 C   0  0  0  0  0  0  0  0  0  0  0  0 
    4.9223   -1.7029    2.6064 C   0  0  0  0  0  0  0  0  0  0  0  0 
    4.3831   -2.9920    2.5059 C   0  0  0  0  0  0  0  0  0  0  0  0 
    4.4411   -0.6584    1.8244 C   0  0  0  0  0  0  0  0  0  0  0  0 
    3.3640   -0.8880    0.9374 C   0  0  0  0  0  0  0  0  0  0  0  0 
    4.9738   -4.0483    3.3856 C   0  0  0  0  0  0  0  0  0  0  0  0 
    4.9827    0.5965    1.8626 O   0  0  0  0  0  0  0  0  0  0  0  0 
    5.6364   -3.8038    4.3675 O   0  0  0  0  0  0  0  0  0  0  0  0 
    4.7381   -5.3424    3.0343 O   0  0  0  0  0  0  0  0  0  0  0  0 
    2.8654    0.0703    0.1040 O   0  0  0  0  0  0  0  0  0  0  0  0 
    1.9175    1.8406   -0.1220 H   0  0  0  0  0  0  0  0  0  0  0  0 
    3.1981    1.8737    1.1266 H   0  0  0  0  0  0  0  0  0  0  0  0 
    1.6343    1.0700    1.4640 H   0  0  0  0  0  0  0  0  0  0  0  0 
    2.8426   -4.1936    1.5523 H   0  0  0  0  0  0  0  0  0  0  0  0 
    1.9939   -2.3232    0.1676 H   0  0  0  0  0  0  0  0  0  0  0  0 
    5.7389   -1.5390    3.3053 H   0  0  0  0  0  0  0  0  0  0  0  0 
    5.7042    0.6040    2.5115 H   0  0  0  0  0  0  0  0  0  0  0  0 
    4.3387   -5.3783    2.1502 H   0  0  0  0  0  0  0  0  0  0  0  0 
  1 14  1  0  0  0  0 
  1 15  1  0  0  0  0 
  2  5  2  0  0  0  0 
  3  7  2  0  0  0  0 
  3  2  1  0  0  0  0 
  4 18  1  0  0  0  0 
  5  4  1  0  0  0  0 
  5  8  1  0  0  0  0 
  6  9  1  0  0  0  0 
  6  4  2  0  0  0  0 
  7  6  1  0  0  0  0 
  8 10  2  0  0  0  0 
  9 19  1  0  0  0  0 
 11  8  1  0  0  0  0 
 12  1  1  0  0  0  0 
 12  7  1  0  0  0  0 
 13  1  1  0  0  0  0 
 16  2  1  0  0  0  0 
 17  3  1  0  0  0  0 
 20 11  1  0  0  0  0 
M  END 
>  <HBA> 
4 
 
>  <HBD> 
2 
 
>  <TPSA> 
66.76 
 
>  <cid> 
12575 
 
>  <dipole> 
3.51 
 
>  <excitation_energy_1> 
4.534 
 
>  <excitation_energy_2> 
4.747 
 
>  <excitation_energy_3> 
4.988 
 
>  <excitation_energy_4> 
5.458 
 
>  <homo_energy> 
-6.37 
 
>  <homo_lumo_gap> 
5.119 
 
>  <logP> 
1.099 
 
>  <lumo_energy> 
-1.252 
 
>  <melting_point> 
141.73 
 
>  <molecular_refractivity> 
41.92 
 
>  <oscillator_strength_1> 
0.1035 
 
>  <oscillator_strength_2> 
0.035 
 
>  <oscillator_strength_3> 
0.078 
 
>  <oscillator_strength_4> 
0.0025 
 
>  <open_babel_can_smiles> 
COc1ccc(cc1O)C(=O)O 
 
>  <mulliken_charges> 
20 
1   -0.221079 
2   -0.213052 
3   -0.180122 
4   -0.241663 
5   0.058974 
6   0.325925 
7   0.346298 
8   0.549667 
9   -0.642264 
10   -0.45321 
11   -0.577306 
12   -0.51537 
13   0.16541 
14   0.180113 
15   0.146415 
16   0.132277 
17   0.149031 
18   0.160503 
19   0.417559 
20   0.411891 
 
>  <lowdin_charges> 
20 
1   -0.279283 
2   -0.17815 
3   -0.166119 
4   -0.181929 
5   -0.059542 
6   0.078334 
7   0.083678 
8   0.193238 
9   -0.371256 
10   -0.246895 
11   -0.355935 
12   -0.210935 
13   0.161427 
14   0.160162 
15   0.144357 
16   0.157147 
17   0.173098 
18   0.176876 
19   0.365248 
20   0.356479 
 
$$$$ 
 
