PCCDB-ID:  69909 
public computational chemistry database (PCCDB) project, http://pccdb.org 
 
 30 32  0  0  0  0  0  0  0  0999 V2000 
    0.8059    0.0284   -0.3757 C   0  0  0  0  0  0  0  0  0  0  0  0 
    9.2901   -5.0262    1.1833 C   0  0  0  0  0  0  0  0  0  0  0  0 
    3.0484    1.2050   -0.1670 C   0  0  0  0  0  0  0  0  0  0  0  0 
    9.2575   -2.4942    0.9725 C   0  0  0  0  0  0  0  0  0  0  0  0 
    4.4041    1.2101    0.0158 C   0  0  0  0  0  0  0  0  0  0  0  0 
    8.6167   -1.2997    0.7885 C   0  0  0  0  0  0  0  0  0  0  0  0 
    2.9704   -1.2006    0.0174 C   0  0  0  0  0  0  0  0  0  0  0  0 
    7.1786   -3.7077    0.7914 C   0  0  0  0  0  0  0  0  0  0  0  0 
    6.5132   -0.0402    0.4015 C   0  0  0  0  0  0  0  0  0  0  0  0 
    5.0763   -2.4510    0.4047 C   0  0  0  0  0  0  0  0  0  0  0  0 
    2.2998   -0.0174   -0.1694 C   0  0  0  0  0  0  0  0  0  0  0  0 
    8.5385   -3.7343    0.9771 C   0  0  0  0  0  0  0  0  0  0  0  0 
    5.1264   -0.0081    0.2116 C   0  0  0  0  0  0  0  0  0  0  0  0 
    7.2015   -1.2444    0.5925 C   0  0  0  0  0  0  0  0  0  0  0  0 
    4.3862   -1.2471    0.2128 C   0  0  0  0  0  0  0  0  0  0  0  0 
    6.4638   -2.4849    0.5946 C   0  0  0  0  0  0  0  0  0  0  0  0 
    0.3131    0.6192    0.4075 H   0  0  0  0  0  0  0  0  0  0  0  0 
    0.3684   -0.9747   -0.3637 H   0  0  0  0  0  0  0  0  0  0  0  0 
    0.5498    0.4962   -1.3352 H   0  0  0  0  0  0  0  0  0  0  0  0 
    9.8212   -5.0295    2.1441 H   0  0  0  0  0  0  0  0  0  0  0  0 
   10.0464   -5.1770    0.4019 H   0  0  0  0  0  0  0  0  0  0  0  0 
    8.6167   -5.8887    1.1697 H   0  0  0  0  0  0  0  0  0  0  0  0 
    2.5180    2.1435   -0.3137 H   0  0  0  0  0  0  0  0  0  0  0  0 
   10.3350   -2.5138    1.1207 H   0  0  0  0  0  0  0  0  0  0  0  0 
    4.9564    2.1472    0.0144 H   0  0  0  0  0  0  0  0  0  0  0  0 
    9.1782   -0.3681    0.7883 H   0  0  0  0  0  0  0  0  0  0  0  0 
    2.4211   -2.1402    0.0189 H   0  0  0  0  0  0  0  0  0  0  0  0 
    6.6134   -4.6379    0.7911 H   0  0  0  0  0  0  0  0  0  0  0  0 
    7.0706    0.8947    0.4003 H   0  0  0  0  0  0  0  0  0  0  0  0 
    4.5190   -3.3859    0.4056 H   0  0  0  0  0  0  0  0  0  0  0  0 
  1 18  1  0  0  0  0 
  1 11  1  0  0  0  0 
  1 17  1  0  0  0  0 
  2 20  1  0  0  0  0 
  3  5  1  0  0  0  0 
  4 12  1  0  0  0  0 
  4 24  1  0  0  0  0 
  5 13  2  0  0  0  0 
  6  4  2  0  0  0  0 
  7 27  1  0  0  0  0 
  7 15  2  0  0  0  0 
  8 12  2  0  0  0  0 
  9 14  2  0  0  0  0 
 10 30  1  0  0  0  0 
 10 16  2  0  0  0  0 
 11  3  2  0  0  0  0 
 11  7  1  0  0  0  0 
 12  2  1  0  0  0  0 
 13 15  1  0  0  0  0 
 13  9  1  0  0  0  0 
 14 16  1  0  0  0  0 
 14  6  1  0  0  0  0 
 15 10  1  0  0  0  0 
 16  8  1  0  0  0  0 
 19  1  1  0  0  0  0 
 21  2  1  0  0  0  0 
 22  2  1  0  0  0  0 
 23  3  1  0  0  0  0 
 25  5  1  0  0  0  0 
 26  6  1  0  0  0  0 
 28  8  1  0  0  0  0 
 29  9  1  0  0  0  0 
M  END 
>  <HBA> 
0 
 
>  <HBD> 
0 
 
>  <TPSA> 
0.0 
 
>  <cid> 
69909 
 
>  <dipole> 
0.12 
 
>  <excitation_energy_1> 
3.255 
 
>  <excitation_energy_2> 
3.791 
 
>  <excitation_energy_3> 
4.525 
 
>  <excitation_energy_4> 
4.838 
 
>  <homo_energy> 
-5.097 
 
>  <homo_lumo_gap> 
3.625 
 
>  <logP> 
4.61 
 
>  <lumo_energy> 
-1.472 
 
>  <melting_point> 
102.67 
 
>  <molecular_refractivity> 
71.39 
 
>  <oscillator_strength_1> 
0.0511 
 
>  <oscillator_strength_2> 
0.0001 
 
>  <oscillator_strength_3> 
0.042 
 
>  <oscillator_strength_4> 
0.0283 
 
>  <open_babel_can_smiles> 
Cc1ccc2c(c1)cc1c(c2)ccc(c1)C 
 
>  <mulliken_charges> 
30 
1   -0.532211 
2   -0.532153 
3   -0.18337 
4   -0.183443 
5   -0.184538 
6   -0.184653 
7   -0.259199 
8   -0.259306 
9   -0.299925 
10   -0.302707 
11   0.178334 
12   0.178554 
13   0.147144 
14   0.147213 
15   0.159549 
16   0.159583 
17   0.161198 
18   0.156253 
19   0.161004 
20   0.160973 
21   0.161176 
22   0.156191 
23   0.122237 
24   0.122295 
25   0.12834 
26   0.128361 
27   0.120331 
28   0.120323 
29   0.126711 
30   0.125734 
 
>  <lowdin_charges> 
30 
1   -0.44147 
2   -0.441237 
3   -0.167129 
4   -0.16418 
5   -0.153256 
6   -0.153361 
7   -0.172272 
8   -0.172418 
9   -0.160257 
10   -0.164873 
11   -0.000141 
12   -0.001225 
13   -0.004846 
14   -0.0048 
15   0.001097 
16   0.001027 
17   0.160945 
18   0.15677 
19   0.159672 
20   0.159525 
21   0.160433 
22   0.157677 
23   0.15587 
24   0.153648 
25   0.157477 
26   0.15746 
27   0.153923 
28   0.154083 
29   0.156119 
30   0.15574 
 
$$$$ 
 
