PCCDB-ID:  16259 
public computational chemistry database (PCCDB) project, http://pccdb.org 
 
 23 23  0  0  0  0  0  0  0  0999 V2000 
   -1.8454   -0.8255    0.1360 C   0  0  0  0  0  0  0  0  0  0  0  0 
   -1.0988   -0.4185    1.2420 C   0  0  0  0  0  0  0  0  0  0  0  0 
   -1.1977   -1.0722   -1.0767 C   0  0  0  0  0  0  0  0  0  0  0  0 
    3.2297   -1.6870   -0.2594 C   0  0  0  0  0  0  0  0  0  0  0  0 
    0.2847   -0.2612    1.1345 C   0  0  0  0  0  0  0  0  0  0  0  0 
    0.1842   -0.9138   -1.1777 C   0  0  0  0  0  0  0  0  0  0  0  0 
    2.4530   -0.3545   -0.1941 C   0  0  0  0  0  0  0  0  0  0  0  0 
    3.1627   -2.5128    1.0266 C   0  0  0  0  0  0  0  0  0  0  0  0 
    0.9495   -0.5094   -0.0735 C   0  0  0  0  0  0  0  0  0  0  0  0 
    3.9678   -3.7347    0.8871 N   0  0  0  0  0  0  0  0  0  0  0  0 
   -2.9227   -0.9446    0.2156 H   0  0  0  0  0  0  0  0  0  0  0  0 
   -1.5925   -0.2192    2.1898 H   0  0  0  0  0  0  0  0  0  0  0  0 
   -1.7708   -1.3816   -1.9472 H   0  0  0  0  0  0  0  0  0  0  0  0 
    4.2836   -1.4841   -0.4844 H   0  0  0  0  0  0  0  0  0  0  0  0 
    2.8420   -2.2884   -1.0949 H   0  0  0  0  0  0  0  0  0  0  0  0 
    0.8581    0.0620    2.0007 H   0  0  0  0  0  0  0  0  0  0  0  0 
    0.6777   -1.1002   -2.1297 H   0  0  0  0  0  0  0  0  0  0  0  0 
    2.6836    0.2212   -1.1002 H   0  0  0  0  0  0  0  0  0  0  0  0 
    2.8287    0.2385    0.6501 H   0  0  0  0  0  0  0  0  0  0  0  0 
    2.1071   -2.6995    1.2890 H   0  0  0  0  0  0  0  0  0  0  0  0 
    3.5916   -1.9274    1.8512 H   0  0  0  0  0  0  0  0  0  0  0  0 
    3.5317   -4.3460    0.1966 H   0  0  0  0  0  0  0  0  0  0  0  0 
    3.9525   -4.2551    1.7632 H   0  0  0  0  0  0  0  0  0  0  0  0 
  1 11  1  0  0  0  0 
  1  2  2  0  0  0  0 
  2 12  1  0  0  0  0 
  3  1  1  0  0  0  0 
  4  7  1  0  0  0  0 
  4  8  1  0  0  0  0 
  5  2  1  0  0  0  0 
  5 16  1  0  0  0  0 
  6  3  2  0  0  0  0 
  6  9  1  0  0  0  0 
  7  9  1  0  0  0  0 
  7 19  1  0  0  0  0 
  8 20  1  0  0  0  0 
  8 21  1  0  0  0  0 
  9  5  2  0  0  0  0 
 10  8  1  0  0  0  0 
 10 23  1  0  0  0  0 
 13  3  1  0  0  0  0 
 14  4  1  0  0  0  0 
 15  4  1  0  0  0  0 
 17  6  1  0  0  0  0 
 18  7  1  0  0  0  0 
 22 10  1  0  0  0  0 
M  END 
>  <HBA> 
1 
 
>  <HBD> 
1 
 
>  <TPSA> 
26.02 
 
>  <cid> 
16259 
 
>  <dipole> 
1.16 
 
>  <excitation_energy_1> 
5.245 
 
>  <excitation_energy_2> 
5.538 
 
>  <excitation_energy_3> 
5.6 
 
>  <excitation_energy_4> 
5.714 
 
>  <homo_energy> 
-6.128 
 
>  <homo_lumo_gap> 
6.18 
 
>  <logP> 
2.278 
 
>  <lumo_energy> 
0.052 
 
>  <melting_point> 
60.07 
 
>  <molecular_refractivity> 
43.73 
 
>  <oscillator_strength_1> 
0.0038 
 
>  <oscillator_strength_2> 
0.0083 
 
>  <oscillator_strength_3> 
0.0338 
 
>  <oscillator_strength_4> 
0.0066 
 
>  <open_babel_can_smiles> 
NCCCc1ccccc1 
 
>  <mulliken_charges> 
23 
1   -0.132738 
2   -0.126856 
3   -0.127771 
4   -0.244172 
5   -0.186893 
6   -0.182272 
7   -0.355132 
8   -0.136763 
9   0.178039 
10   -0.717403 
11   0.126775 
12   0.127142 
13   0.127189 
14   0.148991 
15   0.12766 
16   0.121814 
17   0.122522 
18   0.146061 
19   0.139088 
20   0.127021 
21   0.132815 
22   0.290759 
23   0.294124 
 
>  <lowdin_charges> 
23 
1   -0.160389 
2   -0.156392 
3   -0.156469 
4   -0.2751 
5   -0.171654 
6   -0.168361 
7   -0.27576 
8   -0.207564 
9   -0.000792 
10   -0.561746 
11   0.154446 
12   0.156458 
13   0.157068 
14   0.149764 
15   0.1387 
16   0.154323 
17   0.153592 
18   0.153877 
19   0.147846 
20   0.123263 
21   0.139292 
22   0.251914 
23   0.253681 
 
$$$$ 
 
