PCCDB-ID:  21420 
public computational chemistry database (PCCDB) project, http://pccdb.org 
 
 32 31  0  0  0  0  0  0  0  0999 V2000 
   -0.5271    1.1207   -0.4008 C   0  0  0  0  0  0  0  0  0  0  0  0 
   -0.3283   -1.2894    0.2344 C   0  0  0  0  0  0  0  0  0  0  0  0 
    0.2022   -0.5215   -2.1358 C   0  0  0  0  0  0  0  0  0  0  0  0 
    3.4757   -4.1343   -1.3251 C   0  0  0  0  0  0  0  0  0  0  0  0 
    4.9352   -2.1481   -1.8219 C   0  0  0  0  0  0  0  0  0  0  0  0 
    4.6854   -2.9975    0.5557 C   0  0  0  0  0  0  0  0  0  0  0  0 
    2.6591   -0.6343   -0.2394 C   0  0  0  0  0  0  0  0  0  0  0  0 
    0.2872   -0.1680   -0.6327 C   0  0  0  0  0  0  0  0  0  0  0  0 
    3.9760   -2.7797   -0.7937 C   0  0  0  0  0  0  0  0  0  0  0  0 
    1.6559    0.1598   -0.2172 N   0  0  0  0  0  0  0  0  0  0  0  0 
    2.7569   -1.9514   -0.6126 N   0  0  0  0  0  0  0  0  0  0  0  0 
    3.8538   -0.1327    0.1998 O   0  0  0  0  0  0  0  0  0  0  0  0 
   -1.5803    0.9833   -0.6736 H   0  0  0  0  0  0  0  0  0  0  0  0 
   -0.1150    1.9413   -0.9978 H   0  0  0  0  0  0  0  0  0  0  0  0 
   -0.4738    1.4148    0.6527 H   0  0  0  0  0  0  0  0  0  0  0  0 
    0.1881   -2.2483    0.1181 H   0  0  0  0  0  0  0  0  0  0  0  0 
   -1.3818   -1.4463   -0.0262 H   0  0  0  0  0  0  0  0  0  0  0  0 
   -0.2748   -1.0143    1.2932 H   0  0  0  0  0  0  0  0  0  0  0  0 
    0.7081   -1.4610   -2.3882 H   0  0  0  0  0  0  0  0  0  0  0  0 
    0.6639    0.2719   -2.7332 H   0  0  0  0  0  0  0  0  0  0  0  0 
   -0.8432   -0.6241   -2.4494 H   0  0  0  0  0  0  0  0  0  0  0  0 
    4.3189   -4.8150   -1.4769 H   0  0  0  0  0  0  0  0  0  0  0  0 
    2.9632   -4.0184   -2.2887 H   0  0  0  0  0  0  0  0  0  0  0  0 
    2.7836   -4.6038   -0.6162 H   0  0  0  0  0  0  0  0  0  0  0  0 
    5.2852   -1.1716   -1.4804 H   0  0  0  0  0  0  0  0  0  0  0  0 
    4.4332   -2.0187   -2.7877 H   0  0  0  0  0  0  0  0  0  0  0  0 
    5.8074   -2.7946   -1.9747 H   0  0  0  0  0  0  0  0  0  0  0  0 
    5.5465   -3.6630    0.4232 H   0  0  0  0  0  0  0  0  0  0  0  0 
    4.0009   -3.4587    1.2760 H   0  0  0  0  0  0  0  0  0  0  0  0 
    5.0384   -2.0521    0.9712 H   0  0  0  0  0  0  0  0  0  0  0  0 
    1.9257   -2.3163   -1.0482 H   0  0  0  0  0  0  0  0  0  0  0  0 
    3.6287    0.7823    0.4494 H   0  0  0  0  0  0  0  0  0  0  0  0 
  1 15  1  0  0  0  0 
  2 18  1  0  0  0  0 
  3  8  1  0  0  0  0 
  4  9  1  0  0  0  0 
  4 24  1  0  0  0  0 
  5 25  1  0  0  0  0 
  5  9  1  0  0  0  0 
  6 30  1  0  0  0  0 
  6 29  1  0  0  0  0 
  7 10  2  0  0  0  0 
  7 12  1  0  0  0  0 
  8  1  1  0  0  0  0 
  8 10  1  0  0  0  0 
  8  2  1  0  0  0  0 
  9 11  1  0  0  0  0 
  9  6  1  0  0  0  0 
 11  7  1  0  0  0  0 
 12 32  1  0  0  0  0 
 13  1  1  0  0  0  0 
 14  1  1  0  0  0  0 
 16  2  1  0  0  0  0 
 17  2  1  0  0  0  0 
 19  3  1  0  0  0  0 
 20  3  1  0  0  0  0 
 21  3  1  0  0  0  0 
 22  4  1  0  0  0  0 
 23  4  1  0  0  0  0 
 26  5  1  0  0  0  0 
 27  5  1  0  0  0  0 
 28  6  1  0  0  0  0 
 31 11  1  0  0  0  0 
M  END 
>  <HBA> 
3 
 
>  <HBD> 
2 
 
>  <TPSA> 
41.13 
 
>  <cid> 
21420 
 
>  <dipole> 
1.83 
 
>  <excitation_energy_1> 
5.17 
 
>  <excitation_energy_2> 
5.79 
 
>  <excitation_energy_3> 
5.858 
 
>  <excitation_energy_4> 
5.864 
 
>  <homo_energy> 
-5.75 
 
>  <homo_lumo_gap> 
7.35 
 
>  <logP> 
2.664 
 
>  <lumo_energy> 
1.6 
 
>  <melting_point> 
79.57 
 
>  <molecular_refractivity> 
51.65 
 
>  <oscillator_strength_1> 
0.0002 
 
>  <oscillator_strength_2> 
0.0046 
 
>  <oscillator_strength_3> 
0.0357 
 
>  <oscillator_strength_4> 
0.034 
 
>  <open_babel_can_smiles> 
O/C(=N/C(C)(C)C)/NC(C)(C)C 
 
>  <mulliken_charges> 
32 
1   -0.42629 
2   -0.446592 
3   -0.449404 
4   -0.480571 
5   -0.444127 
6   -0.441789 
7   0.710408 
8   0.197884 
9   0.246243 
10   -0.526254 
11   -0.664857 
12   -0.614557 
13   0.12475 
14   0.141937 
15   0.142978 
16   0.125945 
17   0.136897 
18   0.152018 
19   0.119879 
20   0.153252 
21   0.140119 
22   0.156963 
23   0.143535 
24   0.152146 
25   0.174669 
26   0.137609 
27   0.136468 
28   0.134177 
29   0.142525 
30   0.177744 
31   0.337438 
32   0.408859 
 
>  <lowdin_charges> 
32 
1   -0.437914 
2   -0.449261 
3   -0.452266 
4   -0.449697 
5   -0.45375 
6   -0.452932 
7   0.171363 
8   0.074691 
9   0.087534 
10   -0.306013 
11   -0.299083 
12   -0.382117 
13   0.13829 
14   0.15124 
15   0.149708 
16   0.139234 
17   0.146657 
18   0.153655 
19   0.134833 
20   0.156473 
21   0.148647 
22   0.160196 
23   0.147861 
24   0.153973 
25   0.164857 
26   0.147771 
27   0.149264 
28   0.147835 
29   0.152175 
30   0.166714 
31   0.28091 
32   0.359151 
 
$$$$ 
 
