PCCDB-ID:  32743 
public computational chemistry database (PCCDB) project, http://pccdb.org 
 
 12 11  0  0  0  0  0  0  0  0999 V2000 
    1.6582   -0.6504    1.1437 C   0  0  0  0  0  0  0  0  0  0  0  0 
    2.5147   -0.6350    0.1178 C   0  0  0  0  0  0  0  0  0  0  0  0 
    3.2218    0.5943   -0.3874 C   0  0  0  0  0  0  0  0  0  0  0  0 
    4.7218    0.6383   -0.0475 C   0  0  0  0  0  0  0  0  0  0  0  0 
    5.5478    1.1614   -0.7507 O   0  0  0  0  0  0  0  0  0  0  0  0 
    5.0635    0.0813    1.1397 O   0  0  0  0  0  0  0  0  0  0  0  0 
    1.1903   -1.5701    1.4834 H   0  0  0  0  0  0  0  0  0  0  0  0 
    1.3765    0.2611    1.6678 H   0  0  0  0  0  0  0  0  0  0  0  0 
    2.7601   -1.5705   -0.3857 H   0  0  0  0  0  0  0  0  0  0  0  0 
    2.7702    1.4955    0.0493 H   0  0  0  0  0  0  0  0  0  0  0  0 
    3.1473    0.6893   -1.4746 H   0  0  0  0  0  0  0  0  0  0  0  0 
    4.2692   -0.3157    1.5442 H   0  0  0  0  0  0  0  0  0  0  0  0 
  1  7  1  0  0  0  0 
  1  8  1  0  0  0  0 
  2  1  2  0  0  0  0 
  3  4  1  0  0  0  0 
  3 10  1  0  0  0  0 
  3  2  1  0  0  0  0 
  4  6  1  0  0  0  0 
  5  4  2  0  0  0  0 
  6 12  1  0  0  0  0 
  9  2  1  0  0  0  0 
 11  3  1  0  0  0  0 
M  END 
>  <HBA> 
2 
 
>  <HBD> 
1 
 
>  <TPSA> 
37.3 
 
>  <cid> 
32743 
 
>  <dipole> 
4.5 
 
>  <excitation_energy_1> 
5.515 
 
>  <excitation_energy_2> 
6.083 
 
>  <excitation_energy_3> 
6.548 
 
>  <excitation_energy_4> 
7.092 
 
>  <homo_energy> 
-7.143 
 
>  <homo_lumo_gap> 
6.678 
 
>  <logP> 
0.647 
 
>  <lumo_energy> 
-0.465 
 
>  <melting_point> 
31.33 
 
>  <molecular_refractivity> 
22.64 
 
>  <oscillator_strength_1> 
0.0148 
 
>  <oscillator_strength_2> 
0.0583 
 
>  <oscillator_strength_3> 
0.0076 
 
>  <oscillator_strength_4> 
0.0628 
 
>  <open_babel_can_smiles> 
OC(=O)CC=C 
 
>  <mulliken_charges> 
12 
1   -0.33764 
2   -0.092467 
3   -0.412027 
4   0.58637 
5   -0.438009 
6   -0.561497 
7   0.160433 
8   0.154494 
9   0.156323 
10   0.184994 
11   0.191573 
12   0.407454 
 
>  <lowdin_charges> 
12 
1   -0.332415 
2   -0.159648 
3   -0.314006 
4   0.193741 
5   -0.239646 
6   -0.358042 
7   0.168972 
8   0.162367 
9   0.163465 
10   0.177107 
11   0.180469 
12   0.357637 
 
$$$$ 
 
