PCCDB-ID:  33516 
public computational chemistry database (PCCDB) project, http://pccdb.org 
 
 15 14  0  0  0  0  0  0  0  0999 V2000 
    2.4747   -2.0270   -2.1440 C   0  0  0  0  0  0  0  0  0  0  0  0 
    1.5768   -0.8626    3.0911 C   0  0  0  0  0  0  0  0  0  0  0  0 
    2.9364   -1.2662   -1.3285 C   0  0  0  0  0  0  0  0  0  0  0  0 
    2.4385   -1.3836    2.4261 C   0  0  0  0  0  0  0  0  0  0  0  0 
    3.4878   -0.3539   -0.3265 C   0  0  0  0  0  0  0  0  0  0  0  0 
    3.4864   -2.0128    1.6151 C   0  0  0  0  0  0  0  0  0  0  0  0 
    5.4852   -0.8614    1.0351 N   0  0  0  0  0  0  0  0  0  0  0  0 
    4.1829   -1.0641    0.7524 N   0  0  0  0  0  0  0  0  0  0  0  0 
    6.0672   -0.0567    0.3228 O   0  0  0  0  0  0  0  0  0  0  0  0 
    2.0749   -2.6997   -2.8688 H   0  0  0  0  0  0  0  0  0  0  0  0 
    0.8174   -0.4040    3.6835 H   0  0  0  0  0  0  0  0  0  0  0  0 
    2.6913    0.2618    0.1112 H   0  0  0  0  0  0  0  0  0  0  0  0 
    4.2415    0.3117   -0.7600 H   0  0  0  0  0  0  0  0  0  0  0  0 
    3.0569   -2.8086    0.9931 H   0  0  0  0  0  0  0  0  0  0  0  0 
    4.2581   -2.4583    2.2519 H   0  0  0  0  0  0  0  0  0  0  0  0 
  1  3  3  0  0  0  0 
  2 11  1  0  0  0  0 
  3  5  1  0  0  0  0 
  4  2  3  0  0  0  0 
  5 12  1  0  0  0  0 
  5  8  1  0  0  0  0 
  6 15  1  0  0  0  0 
  6  4  1  0  0  0  0 
  8  7  1  0  0  0  0 
  8  6  1  0  0  0  0 
  9  7  2  0  0  0  0 
 10  1  1  0  0  0  0 
 13  5  1  0  0  0  0 
 14  6  1  0  0  0  0 
M  END 
>  <HBA> 
3 
 
>  <HBD> 
0 
 
>  <TPSA> 
32.67 
 
>  <cid> 
33516 
 
>  <dipole> 
3.46 
 
>  <excitation_energy_1> 
3.397 
 
>  <excitation_energy_2> 
5.516 
 
>  <excitation_energy_3> 
5.598 
 
>  <excitation_energy_4> 
5.627 
 
>  <homo_energy> 
-6.427 
 
>  <homo_lumo_gap> 
5.211 
 
>  <logP> 
0.236 
 
>  <lumo_energy> 
-1.216 
 
>  <melting_point> 
29.82 
 
>  <molecular_refractivity> 
34.91 
 
>  <oscillator_strength_1> 
0.0005 
 
>  <oscillator_strength_2> 
0.0129 
 
>  <oscillator_strength_3> 
0.0459 
 
>  <oscillator_strength_4> 
0.0002 
 
>  <open_babel_can_smiles> 
O=NN(CC#C)CC#C 
 
>  <mulliken_charges> 
15 
1   -0.461075 
2   -0.460863 
3   0.328586 
4   0.33183 
5   -0.301748 
6   -0.282161 
7   0.174691 
8   -0.212351 
9   -0.362448 
10   0.199356 
11   0.201035 
12   0.203209 
13   0.229087 
14   0.201591 
15   0.21126 
 
>  <lowdin_charges> 
15 
1   -0.234073 
2   -0.228275 
3   -0.050366 
4   -0.054827 
5   -0.205769 
6   -0.185776 
7   0.068659 
8   -0.039733 
9   -0.251541 
10   0.210841 
11   0.211577 
12   0.18435 
13   0.200853 
14   0.181851 
15   0.192227 
 
$$$$ 
 
