PCCDB-ID:  19310 
public computational chemistry database (PCCDB) project, http://pccdb.org 
 
 11 10  0  0  0  0  0  0  0  0999 V2000 
    3.3846   -0.9308    2.1114 C   0  0  0  0  0  0  0  0  0  0  0  0 
    6.1142    0.9632   -1.8169 C   0  0  0  0  0  0  0  0  0  0  0  0 
    3.0675    0.1507    0.6651 S   0  0  0  0  0  0  0  0  0  0  0  0 
    5.9505   -0.6442   -0.9498 S   0  0  0  0  0  0  0  0  0  0  0  0 
    3.8794   -0.9483   -0.9218 S   0  0  0  0  0  0  0  0  0  0  0  0 
    2.9412   -0.4247    2.9748 H   0  0  0  0  0  0  0  0  0  0  0  0 
    4.4588   -1.0454    2.2740 H   0  0  0  0  0  0  0  0  0  0  0  0 
    2.9132   -1.9066    1.9778 H   0  0  0  0  0  0  0  0  0  0  0  0 
    7.1882    1.1574   -1.9005 H   0  0  0  0  0  0  0  0  0  0  0  0 
    5.6484    1.7610   -1.2339 H   0  0  0  0  0  0  0  0  0  0  0  0 
    5.6734    0.9130   -2.8147 H   0  0  0  0  0  0  0  0  0  0  0  0 
  1  7  1  0  0  0  0 
  1  6  1  0  0  0  0 
  2 10  1  0  0  0  0 
  2  4  1  0  0  0  0 
  3  1  1  0  0  0  0 
  4  5  1  0  0  0  0 
  5  3  1  0  0  0  0 
  8  1  1  0  0  0  0 
  9  2  1  0  0  0  0 
 11  2  1  0  0  0  0 
M  END 
>  <HBA> 
3 
 
>  <HBD> 
0 
 
>  <TPSA> 
75.9 
 
>  <cid> 
19310 
 
>  <dipole> 
1.32 
 
>  <excitation_energy_1> 
4.157 
 
>  <excitation_energy_2> 
4.329 
 
>  <excitation_energy_3> 
4.605 
 
>  <excitation_energy_4> 
4.826 
 
>  <homo_energy> 
-6.574 
 
>  <homo_lumo_gap> 
5.236 
 
>  <logP> 
2.276 
 
>  <lumo_energy> 
-1.339 
 
>  <melting_point> 
3.0 
 
>  <molecular_refractivity> 
34.5 
 
>  <oscillator_strength_1> 
0.0113 
 
>  <oscillator_strength_2> 
0.0062 
 
>  <oscillator_strength_3> 
0.0156 
 
>  <oscillator_strength_4> 
0.0031 
 
>  <open_babel_can_smiles> 
CSSSC 
 
>  <mulliken_charges> 
11 
1   -0.58858 
2   -0.588511 
3   0.032116 
4   0.032116 
5   -0.062665 
6   0.19004 
7   0.200497 
8   0.197251 
9   0.190043 
10   0.200434 
11   0.197257 
 
>  <lowdin_charges> 
11 
1   -0.548866 
2   -0.548815 
3   0.039198 
4   0.039437 
5   -0.035465 
6   0.180031 
7   0.173355 
8   0.173909 
9   0.17765 
10   0.175989 
11   0.173576 
 
$$$$ 
 
