PCCDB-ID:  58301 
public computational chemistry database (PCCDB) project, http://pccdb.org 
 
 40 40  0  0  0  0  0  0  0  0999 V2000 
    0.7224   -0.0001   -0.5352 C   0  0  0  0  0  0  0  0  0  0  0  0 
    2.1040   -0.7826    1.3766 C   0  0  0  0  0  0  0  0  0  0  0  0 
    4.1607   -2.6301   -2.3842 C   0  0  0  0  0  0  0  0  0  0  0  0 
    4.5306   -2.6349    0.0740 C   0  0  0  0  0  0  0  0  0  0  0  0 
    7.6929    1.8503    3.0839 C   0  0  0  0  0  0  0  0  0  0  0  0 
    6.1229    0.0181    3.6280 C   0  0  0  0  0  0  0  0  0  0  0  0 
    3.0501    0.9155   -0.2904 C   0  0  0  0  0  0  0  0  0  0  0  0 
    4.8937   -0.4939   -1.2798 C   0  0  0  0  0  0  0  0  0  0  0  0 
    5.9438    1.2080    1.5094 C   0  0  0  0  0  0  0  0  0  0  0  0 
    4.5723    0.6530   -0.2969 C   0  0  0  0  0  0  0  0  0  0  0  0 
    2.1598   -0.3407   -0.0999 C   0  0  0  0  0  0  0  0  0  0  0  0 
    4.0374   -1.7760   -1.1087 C   0  0  0  0  0  0  0  0  0  0  0  0 
    5.0871    0.3840    1.0418 N   0  0  0  0  0  0  0  0  0  0  0  0 
    2.5911   -1.4659   -0.9685 N   0  0  0  0  0  0  0  0  0  0  0  0 
    6.4598    1.1488    2.7807 N   0  0  0  0  0  0  0  0  0  0  0  0 
    0.3155    0.8175    0.0700 H   0  0  0  0  0  0  0  0  0  0  0  0 
    0.0722   -0.8742   -0.4192 H   0  0  0  0  0  0  0  0  0  0  0  0 
    0.6878    0.3156   -1.5868 H   0  0  0  0  0  0  0  0  0  0  0  0 
    1.6077   -0.0106    1.9779 H   0  0  0  0  0  0  0  0  0  0  0  0 
    3.0975   -0.9332    1.7969 H   0  0  0  0  0  0  0  0  0  0  0  0 
    1.5315   -1.7121    1.4621 H   0  0  0  0  0  0  0  0  0  0  0  0 
    5.2029   -2.9179   -2.5615 H   0  0  0  0  0  0  0  0  0  0  0  0 
    3.8131   -2.0795   -3.2689 H   0  0  0  0  0  0  0  0  0  0  0  0 
    3.5604   -3.5419   -2.2915 H   0  0  0  0  0  0  0  0  0  0  0  0 
    5.5264   -3.0381   -0.1495 H   0  0  0  0  0  0  0  0  0  0  0  0 
    3.8438   -3.4730    0.2320 H   0  0  0  0  0  0  0  0  0  0  0  0 
    4.6149   -2.0587    0.9948 H   0  0  0  0  0  0  0  0  0  0  0  0 
    7.6744    2.2125    4.1184 H   0  0  0  0  0  0  0  0  0  0  0  0 
    7.7985    2.7145    2.4215 H   0  0  0  0  0  0  0  0  0  0  0  0 
    8.5837    1.2126    2.9619 H   0  0  0  0  0  0  0  0  0  0  0  0 
    6.2849    0.2934    4.6755 H   0  0  0  0  0  0  0  0  0  0  0  0 
    6.7326   -0.8698    3.3992 H   0  0  0  0  0  0  0  0  0  0  0  0 
    5.0740   -0.2406    3.4778 H   0  0  0  0  0  0  0  0  0  0  0  0 
    2.8000    1.3626   -1.2642 H   0  0  0  0  0  0  0  0  0  0  0  0 
    2.8144    1.6689    0.4722 H   0  0  0  0  0  0  0  0  0  0  0  0 
    5.9616   -0.7396   -1.2147 H   0  0  0  0  0  0  0  0  0  0  0  0 
    4.7212   -0.1022   -2.2934 H   0  0  0  0  0  0  0  0  0  0  0  0 
    6.3215    2.0677    0.9332 H   0  0  0  0  0  0  0  0  0  0  0  0 
    5.0505    1.5658   -0.7028 H   0  0  0  0  0  0  0  0  0  0  0  0 
    2.2396   -1.2673   -1.9046 H   0  0  0  0  0  0  0  0  0  0  0  0 
  1 17  1  0  0  0  0 
  1 11  1  0  0  0  0 
  1 16  1  0  0  0  0 
  2 21  1  0  0  0  0 
  2 20  1  0  0  0  0 
  2 19  1  0  0  0  0 
  3 24  1  0  0  0  0 
  3 12  1  0  0  0  0 
  4 26  1  0  0  0  0 
  4 27  1  0  0  0  0 
  5 28  1  0  0  0  0 
  6 31  1  0  0  0  0 
  7 11  1  0  0  0  0 
  7 35  1  0  0  0  0 
  8 36  1  0  0  0  0 
  8 12  1  0  0  0  0 
  8 10  1  0  0  0  0 
  9 15  1  0  0  0  0 
 10  7  1  0  0  0  0 
 10 13  1  0  0  0  0 
 11  2  1  0  0  0  0 
 12 14  1  0  0  0  0 
 12  4  1  0  0  0  0 
 13  9  2  0  0  0  0 
 14 11  1  0  0  0  0 
 15  5  1  0  0  0  0 
 15  6  1  0  0  0  0 
 18  1  1  0  0  0  0 
 22  3  1  0  0  0  0 
 23  3  1  0  0  0  0 
 25  4  1  0  0  0  0 
 29  5  1  0  0  0  0 
 30  5  1  0  0  0  0 
 32  6  1  0  0  0  0 
 33  6  1  0  0  0  0 
 34  7  1  0  0  0  0 
 37  8  1  0  0  0  0 
 38  9  1  0  0  0  0 
 39 10  1  0  0  0  0 
 40 14  1  0  0  0  0 
M  END 
>  <HBA> 
3 
 
>  <HBD> 
1 
 
>  <TPSA> 
27.63 
 
>  <cid> 
58301 
 
>  <dipole> 
3.25 
 
>  <excitation_energy_1> 
5.019 
 
>  <excitation_energy_2> 
5.05 
 
>  <excitation_energy_3> 
5.246 
 
>  <excitation_energy_4> 
5.43 
 
>  <homo_energy> 
-5.415 
 
>  <homo_lumo_gap> 
6.376 
 
>  <logP> 
2.214 
 
>  <lumo_energy> 
0.961 
 
>  <melting_point> 
61.76 
 
>  <molecular_refractivity> 
71.06 
 
>  <oscillator_strength_1> 
0.0107 
 
>  <oscillator_strength_2> 
0.027 
 
>  <oscillator_strength_3> 
0.0031 
 
>  <oscillator_strength_4> 
0.0181 
 
>  <open_babel_can_smiles> 
CN(/C=N/C1CC(C)(C)NC(C1)(C)C)C 
 
>  <mulliken_charges> 
40 
1   -0.459191 
2   -0.44971 
3   -0.459252 
4   -0.446842 
5   -0.309311 
6   -0.309119 
7   -0.252546 
8   -0.253313 
9   0.254915 
10   0.010112 
11   0.216086 
12   0.21695 
13   -0.427662 
14   -0.580731 
15   -0.374472 
16   0.140222 
17   0.152364 
18   0.126178 
19   0.12188 
20   0.178364 
21   0.138926 
22   0.139818 
23   0.125977 
24   0.152512 
25   0.120822 
26   0.138926 
27   0.17534 
28   0.158428 
29   0.161126 
30   0.150183 
31   0.145738 
32   0.150456 
33   0.192838 
34   0.112343 
35   0.125716 
36   0.124312 
37   0.112476 
38   0.106558 
39   0.092415 
40   0.28017 
 
>  <lowdin_charges> 
40 
1   -0.445466 
2   -0.455568 
3   -0.444818 
4   -0.454879 
5   -0.347029 
6   -0.349574 
7   -0.293323 
8   -0.290197 
9   -0.042596 
10   -0.059221 
11   0.068716 
12   0.068602 
13   -0.240647 
14   -0.363185 
15   -0.107633 
16   0.15071 
17   0.154527 
18   0.137629 
19   0.142283 
20   0.161437 
21   0.149244 
22   0.148417 
23   0.139302 
24   0.15427 
25   0.140153 
26   0.149749 
27   0.162836 
28   0.151396 
29   0.15889 
30   0.141066 
31   0.148978 
32   0.144873 
33   0.173539 
34   0.136554 
35   0.145184 
36   0.142112 
37   0.136064 
38   0.124092 
39   0.117297 
40   0.246213 
 
$$$$ 
 
