PCCDB-ID:  28025 
public computational chemistry database (PCCDB) project, http://pccdb.org 
 
 29 28  0  0  1  0  0  0  0  0999 V2000 
    1.1482   -2.1153   -0.5503 C   0  0  0  0  0  0  0  0  0  0  0  0 
    6.7119   -2.5895    1.7800 C   0  0  0  0  0  0  0  0  0  0  0  0 
    2.4437   -0.8846    2.1071 C   0  0  0  0  0  0  0  0  0  0  0  0 
    5.3087   -1.0706   -0.5756 C   0  0  0  0  0  0  0  0  0  0  0  0 
    5.2060    0.0931    1.6228 C   0  0  0  0  0  0  0  0  0  0  0  0 
    2.5345   -2.3646    0.0594 C   0  0  0  0  0  0  0  0  0  0  0  0 
    5.1986   -2.4493    1.5578 C   0  0  0  0  0  0  0  0  0  0  0  0 
    3.1454   -1.1227    0.7559 C   0  0  2  0  0  0  0  0  0  0  0  0 
    4.7176   -1.1527    0.8499 C   0  0  0  0  0  0  0  0  0  0  0  0 
    0.7588   -3.0249   -1.0223 H   0  0  0  0  0  0  0  0  0  0  0  0 
    1.1918   -1.3345   -1.3196 H   0  0  0  0  0  0  0  0  0  0  0  0 
    0.4157   -1.7985    0.2007 H   0  0  0  0  0  0  0  0  0  0  0  0 
    6.9334   -3.5430    2.2733 H   0  0  0  0  0  0  0  0  0  0  0  0 
    7.1108   -1.7932    2.4177 H   0  0  0  0  0  0  0  0  0  0  0  0 
    7.2715   -2.5741    0.8379 H   0  0  0  0  0  0  0  0  0  0  0  0 
    1.3557   -0.8944    1.9821 H   0  0  0  0  0  0  0  0  0  0  0  0 
    2.7055    0.0817    2.5484 H   0  0  0  0  0  0  0  0  0  0  0  0 
    2.6912   -1.6642    2.8376 H   0  0  0  0  0  0  0  0  0  0  0  0 
    6.3998   -0.9797   -0.5464 H   0  0  0  0  0  0  0  0  0  0  0  0 
    4.9238   -0.1902   -1.1056 H   0  0  0  0  0  0  0  0  0  0  0  0 
    5.0721   -1.9528   -1.1798 H   0  0  0  0  0  0  0  0  0  0  0  0 
    6.2905    0.2147    1.5299 H   0  0  0  0  0  0  0  0  0  0  0  0 
    4.9724    0.0361    2.6913 H   0  0  0  0  0  0  0  0  0  0  0  0 
    4.7417    1.0048    1.2260 H   0  0  0  0  0  0  0  0  0  0  0  0 
    3.1970   -2.7149   -0.7399 H   0  0  0  0  0  0  0  0  0  0  0  0 
    2.4669   -3.1912    0.7798 H   0  0  0  0  0  0  0  0  0  0  0  0 
    4.7031   -2.5236    2.5350 H   0  0  0  0  0  0  0  0  0  0  0  0 
    4.8548   -3.3152    0.9776 H   0  0  0  0  0  0  0  0  0  0  0  0 
    2.9124   -0.2526    0.1209 H   0  0  0  0  0  0  0  0  0  0  0  0 
  1  6  1  0  0  0  0 
  1 12  1  0  0  0  0 
  2 13  1  0  0  0  0 
  2 14  1  0  0  0  0 
  3 17  1  0  0  0  0 
  3 18  1  0  0  0  0 
  4 19  1  0  0  0  0 
  4  9  1  0  0  0  0 
  5 23  1  0  0  0  0 
  6  8  1  0  0  0  0 
  6 26  1  0  0  0  0 
  7  2  1  0  0  0  0 
  7 27  1  0  0  0  0 
  8 29  1  6  0  0  0 
  8  9  1  0  0  0  0 
  8  3  1  0  0  0  0 
  9  7  1  0  0  0  0 
  9  5  1  0  0  0  0 
 10  1  1  0  0  0  0 
 11  1  1  0  0  0  0 
 15  2  1  0  0  0  0 
 16  3  1  0  0  0  0 
 20  4  1  0  0  0  0 
 21  4  1  0  0  0  0 
 22  5  1  0  0  0  0 
 24  5  1  0  0  0  0 
 25  6  1  0  0  0  0 
 28  7  1  0  0  0  0 
M  END 
>  <HBA> 
0 
 
>  <HBD> 
0 
 
>  <TPSA> 
0.0 
 
>  <cid> 
28025 
 
>  <dipole> 
0.05 
 
>  <excitation_energy_1> 
7.414 
 
>  <excitation_energy_2> 
7.518 
 
>  <excitation_energy_3> 
7.62 
 
>  <excitation_energy_4> 
7.781 
 
>  <homo_energy> 
-7.878 
 
>  <homo_lumo_gap> 
10.036 
 
>  <logP> 
3.469 
 
>  <lumo_energy> 
2.158 
 
>  <melting_point> 
-9.87 
 
>  <molecular_refractivity> 
45.12 
 
>  <oscillator_strength_1> 
0.0051 
 
>  <oscillator_strength_2> 
0.0111 
 
>  <oscillator_strength_3> 
0.007 
 
>  <oscillator_strength_4> 
0.0103 
 
>  <open_babel_can_smiles> 
CC[C@H](C(CC)(C)C)C 
 
>  <mulliken_charges> 
29 
1   -0.450112 
2   -0.4544 
3   -0.467074 
4   -0.459844 
5   -0.461718 
6   -0.264021 
7   -0.259515 
8   -0.056454 
9   0.109946 
10   0.140815 
11   0.141558 
12   0.144707 
13   0.140528 
14   0.145647 
15   0.144394 
16   0.142233 
17   0.145428 
18   0.141902 
19   0.14132 
20   0.136493 
21   0.140922 
22   0.140819 
23   0.142353 
24   0.136441 
25   0.133757 
26   0.131992 
27   0.128667 
28   0.132365 
29   0.110852 
 
>  <lowdin_charges> 
29 
1   -0.447438 
2   -0.449746 
3   -0.450045 
4   -0.446545 
5   -0.442963 
6   -0.280536 
7   -0.277139 
8   -0.1246 
9   0.010397 
10   0.149476 
11   0.146189 
12   0.146888 
13   0.149685 
14   0.14874 
15   0.146906 
16   0.147248 
17   0.149941 
18   0.145825 
19   0.145792 
20   0.146914 
21   0.146457 
22   0.145939 
23   0.146162 
24   0.14676 
25   0.143131 
26   0.140263 
27   0.139623 
28   0.143028 
29   0.133647 
 
$$$$ 
 
