PCCDB-ID:  41902 
public computational chemistry database (PCCDB) project, http://pccdb.org 
 
 30 31  0  0  1  0  0  0  0  0999 V2000 
    0.9762    0.2826   -0.3890 C   0  0  0  0  0  0  0  0  0  0  0  0 
    0.1735   -2.5173    3.8589 C   0  0  0  0  0  0  0  0  0  0  0  0 
    0.2311   -1.1357    4.0284 C   0  0  0  0  0  0  0  0  0  0  0  0 
    2.3142   -2.6576   -0.4515 C   0  0  0  0  0  0  0  0  0  0  0  0 
    0.9610   -3.1209    2.8777 C   0  0  0  0  0  0  0  0  0  0  0  0 
    1.0738   -0.3786    3.2136 C   0  0  0  0  0  0  0  0  0  0  0  0 
    2.6395   -3.0726    0.9988 C   0  0  0  0  0  0  0  0  0  0  0  0 
    2.9078   -1.3076   -0.8856 C   0  0  0  0  0  0  0  0  0  0  0  0 
    2.7712   -0.0983    1.3784 C   0  0  0  0  0  0  0  0  0  0  0  0 
    1.8113   -2.3718    2.0556 C   0  0  0  0  0  0  0  0  0  0  0  0 
    1.8687   -0.9722    2.2247 C   0  0  0  0  0  0  0  0  0  0  0  0 
    2.4607   -0.0215   -0.1433 C   0  0  2  0  0  0  0  0  0  0  0  0 
    3.2201    1.1497   -0.6400 N   0  0  0  0  0  0  0  0  0  0  0  0 
    0.3284   -0.5204   -0.0274 H   0  0  0  0  0  0  0  0  0  0  0  0 
    0.7851    0.4148   -1.4620 H   0  0  0  0  0  0  0  0  0  0  0  0 
    0.6930    1.2099    0.1193 H   0  0  0  0  0  0  0  0  0  0  0  0 
   -0.4767   -3.1237    4.4841 H   0  0  0  0  0  0  0  0  0  0  0  0 
   -0.3731   -0.6472    4.7884 H   0  0  0  0  0  0  0  0  0  0  0  0 
    1.2260   -2.6651   -0.5939 H   0  0  0  0  0  0  0  0  0  0  0  0 
    2.7156   -3.4253   -1.1266 H   0  0  0  0  0  0  0  0  0  0  0  0 
    0.9176   -4.1999    2.7446 H   0  0  0  0  0  0  0  0  0  0  0  0 
    1.1210    0.6998    3.3473 H   0  0  0  0  0  0  0  0  0  0  0  0 
    3.7114   -2.8986    1.1817 H   0  0  0  0  0  0  0  0  0  0  0  0 
    2.4873   -4.1537    1.0994 H   0  0  0  0  0  0  0  0  0  0  0  0 
    2.7004   -1.1641   -1.9565 H   0  0  0  0  0  0  0  0  0  0  0  0 
    4.0036   -1.3740   -0.7960 H   0  0  0  0  0  0  0  0  0  0  0  0 
    3.8176   -0.4239    1.4928 H   0  0  0  0  0  0  0  0  0  0  0  0 
    2.7278    0.9284    1.7563 H   0  0  0  0  0  0  0  0  0  0  0  0 
    3.0800    1.2338   -1.6480 H   0  0  0  0  0  0  0  0  0  0  0  0 
    4.2196    0.9781   -0.5170 H   0  0  0  0  0  0  0  0  0  0  0  0 
  1 12  1  0  0  0  0 
  1 14  1  0  0  0  0 
  1 16  1  0  0  0  0 
  2  3  1  0  0  0  0 
  2 17  1  0  0  0  0 
  3 18  1  0  0  0  0 
  4  7  1  0  0  0  0 
  5  2  2  0  0  0  0 
  6 22  1  0  0  0  0 
  6  3  2  0  0  0  0 
  7 24  1  0  0  0  0 
  7 23  1  0  0  0  0 
  7 10  1  0  0  0  0 
  8 26  1  0  0  0  0 
  8  4  1  0  0  0  0 
  8 12  1  0  0  0  0 
  9 27  1  0  0  0  0 
  9 28  1  0  0  0  0 
  9 11  1  0  0  0  0 
 10 11  2  0  0  0  0 
 10  5  1  0  0  0  0 
 11  6  1  0  0  0  0 
 12 13  1  6  0  0  0 
 12  9  1  0  0  0  0 
 13 30  1  0  0  0  0 
 15  1  1  0  0  0  0 
 19  4  1  0  0  0  0 
 20  4  1  0  0  0  0 
 21  5  1  0  0  0  0 
 25  8  1  0  0  0  0 
 29 13  1  0  0  0  0 
M  END 
>  <HBA> 
1 
 
>  <HBD> 
1 
 
>  <TPSA> 
26.02 
 
>  <cid> 
41902 
 
>  <dipole> 
1.56 
 
>  <excitation_energy_1> 
5.188 
 
>  <excitation_energy_2> 
5.572 
 
>  <excitation_energy_3> 
5.628 
 
>  <excitation_energy_4> 
5.802 
 
>  <homo_energy> 
-6.155 
 
>  <homo_lumo_gap> 
6.275 
 
>  <logP> 
2.983 
 
>  <lumo_energy> 
0.12 
 
>  <melting_point> 
97.18 
 
>  <molecular_refractivity> 
56.23 
 
>  <oscillator_strength_1> 
0.0024 
 
>  <oscillator_strength_2> 
0.0087 
 
>  <oscillator_strength_3> 
0.0251 
 
>  <oscillator_strength_4> 
0.0091 
 
>  <open_babel_can_smiles> 
C[C@]1(N)CCCc2c(C1)cccc2 
 
>  <mulliken_charges> 
30 
1   -0.447039 
2   -0.126658 
3   -0.128058 
4   -0.256777 
5   -0.195253 
6   -0.194578 
7   -0.351881 
8   -0.263764 
9   -0.361949 
10   0.129327 
11   0.13115 
12   0.189919 
13   -0.710892 
14   0.155886 
15   0.128318 
16   0.155645 
17   0.124827 
18   0.125276 
19   0.141823 
20   0.132205 
21   0.119619 
22   0.124496 
23   0.141627 
24   0.138928 
25   0.11936 
26   0.114446 
27   0.130777 
28   0.158426 
29   0.288085 
30   0.286708 
 
>  <lowdin_charges> 
30 
1   -0.447526 
2   -0.162318 
3   -0.162224 
4   -0.276277 
5   -0.167037 
6   -0.163754 
7   -0.272701 
8   -0.288288 
9   -0.27863 
10   -0.011917 
11   -0.010496 
12   0.061791 
13   -0.540755 
14   0.157212 
15   0.141992 
16   0.158292 
17   0.157207 
18   0.157172 
19   0.143097 
20   0.146895 
21   0.150263 
22   0.152604 
23   0.145464 
24   0.147601 
25   0.136325 
26   0.130721 
27   0.143461 
28   0.159075 
29   0.246985 
30   0.245766 
 
$$$$ 
 
