PCCDB-ID:  29627 
public computational chemistry database (PCCDB) project, http://pccdb.org 
 
 32 32  0  0  1  0  0  0  0  0999 V2000 
    0.7817    2.3295   -1.6442 C   0  0  0  0  0  0  0  0  0  0  0  0 
    3.2754    1.3286    3.9530 C   0  0  0  0  0  0  0  0  0  0  0  0 
    5.4569    0.1174    4.4474 C   0  0  0  0  0  0  0  0  0  0  0  0 
    2.3082    2.4047   -1.5302 C   0  0  0  0  0  0  0  0  0  0  0  0 
    2.8857    1.3282   -0.6010 C   0  0  0  0  0  0  0  0  0  0  0  0 
    4.9447    0.0853    0.2451 C   0  0  0  0  0  0  0  0  0  0  0  0 
    4.9772    2.5486    0.2604 C   0  0  0  0  0  0  0  0  0  0  0  0 
    4.7942    1.3022    3.7311 C   0  0  0  0  0  0  0  0  0  0  0  0 
    4.4221    1.3279   -0.4946 C   0  0  2  0  0  0  0  0  0  0  0  0 
    5.1553    1.2998    2.2453 C   0  0  1  0  0  0  0  0  0  0  0  0 
    4.6223    0.1424    1.6335 O   0  0  0  0  0  0  0  0  0  0  0  0 
    4.6551    2.4806    1.6486 O   0  0  0  0  0  0  0  0  0  0  0  0 
    0.3923    3.1013   -2.3177 H   0  0  0  0  0  0  0  0  0  0  0  0 
    0.3053    2.4681   -0.6662 H   0  0  0  0  0  0  0  0  0  0  0  0 
    0.4610    1.3549   -2.0324 H   0  0  0  0  0  0  0  0  0  0  0  0 
    3.0481    1.4048    5.0226 H   0  0  0  0  0  0  0  0  0  0  0  0 
    2.8107    0.4140    3.5701 H   0  0  0  0  0  0  0  0  0  0  0  0 
    2.8209    2.1828    3.4431 H   0  0  0  0  0  0  0  0  0  0  0  0 
    5.2471    0.1519    5.5223 H   0  0  0  0  0  0  0  0  0  0  0  0 
    6.5464    0.1270    4.3189 H   0  0  0  0  0  0  0  0  0  0  0  0 
    5.0801   -0.8328    4.0552 H   0  0  0  0  0  0  0  0  0  0  0  0 
    2.5902    3.4037   -1.1717 H   0  0  0  0  0  0  0  0  0  0  0  0 
    2.7547    2.3014   -2.5300 H   0  0  0  0  0  0  0  0  0  0  0  0 
    2.5631    0.3420   -0.9660 H   0  0  0  0  0  0  0  0  0  0  0  0 
    2.4600    1.4370    0.4035 H   0  0  0  0  0  0  0  0  0  0  0  0 
    6.0392    0.0061    0.1246 H   0  0  0  0  0  0  0  0  0  0  0  0 
    4.4914   -0.8349   -0.1361 H   0  0  0  0  0  0  0  0  0  0  0  0 
    4.5578    3.4903   -0.1032 H   0  0  0  0  0  0  0  0  0  0  0  0 
    6.0731    2.5959    0.1376 H   0  0  0  0  0  0  0  0  0  0  0  0 
    5.2193    2.2347    4.1274 H   0  0  0  0  0  0  0  0  0  0  0  0 
    4.8527    1.3258   -1.5078 H   0  0  0  0  0  0  0  0  0  0  0  0 
    6.2568    1.2859    2.1158 H   0  0  0  0  0  0  0  0  0  0  0  0 
  1  4  1  0  0  0  0 
  1 14  1  0  0  0  0 
  2 16  1  0  0  0  0 
  3 19  1  0  0  0  0 
  4 22  1  0  0  0  0 
  4  5  1  0  0  0  0 
  5  9  1  0  0  0  0 
  5 25  1  0  0  0  0 
  6 11  1  0  0  0  0 
  7 12  1  0  0  0  0 
  8  2  1  0  0  0  0 
  8 30  1  0  0  0  0 
  8  3  1  0  0  0  0 
  9 31  1  6  0  0  0 
  9  6  1  0  0  0  0 
  9  7  1  0  0  0  0 
 10 32  1  6  0  0  0 
 10  8  1  0  0  0  0 
 11 10  1  0  0  0  0 
 12 10  1  0  0  0  0 
 13  1  1  0  0  0  0 
 15  1  1  0  0  0  0 
 17  2  1  0  0  0  0 
 18  2  1  0  0  0  0 
 20  3  1  0  0  0  0 
 21  3  1  0  0  0  0 
 23  4  1  0  0  0  0 
 24  5  1  0  0  0  0 
 26  6  1  0  0  0  0 
 27  6  1  0  0  0  0 
 28  7  1  0  0  0  0 
 29  7  1  0  0  0  0 
M  END 
>  <HBA> 
2 
 
>  <HBD> 
0 
 
>  <TPSA> 
18.46 
 
>  <cid> 
29627 
 
>  <dipole> 
1.67 
 
>  <excitation_energy_1> 
6.395 
 
>  <excitation_energy_2> 
6.699 
 
>  <excitation_energy_3> 
6.851 
 
>  <excitation_energy_4> 
6.901 
 
>  <homo_energy> 
-6.901 
 
>  <homo_lumo_gap> 
9.129 
 
>  <logP> 
2.432 
 
>  <lumo_energy> 
2.229 
 
>  <melting_point> 
-24.54 
 
>  <molecular_refractivity> 
50.24 
 
>  <oscillator_strength_1> 
0.0024 
 
>  <oscillator_strength_2> 
0.05 
 
>  <oscillator_strength_3> 
0.0042 
 
>  <oscillator_strength_4> 
0.0024 
 
>  <open_babel_can_smiles> 
CCC[C@@H]1CO[C@@H](OC1)C(C)C 
 
>  <mulliken_charges> 
32 
1   -0.441663 
2   -0.451439 
3   -0.450466 
4   -0.257552 
5   -0.248268 
6   -0.045045 
7   -0.047945 
8   -0.106617 
9   -0.115843 
10   0.382218 
11   -0.482368 
12   -0.487746 
13   0.141724 
14   0.14617 
15   0.141602 
16   0.13438 
17   0.156092 
18   0.159412 
19   0.141643 
20   0.135135 
21   0.161881 
22   0.135558 
23   0.127115 
24   0.124305 
25   0.158733 
26   0.120305 
27   0.146699 
28   0.151566 
29   0.120384 
30   0.135583 
31   0.121032 
32   0.093417 
 
>  <lowdin_charges> 
32 
1   -0.444071 
2   -0.446521 
3   -0.441212 
4   -0.273107 
5   -0.277742 
6   -0.130677 
7   -0.132668 
8   -0.129651 
9   -0.158621 
10   0.097647 
11   -0.266303 
12   -0.266612 
13   0.150378 
14   0.148608 
15   0.146082 
16   0.144643 
17   0.154499 
18   0.158029 
19   0.148106 
20   0.143545 
21   0.156749 
22   0.139281 
23   0.135837 
24   0.139148 
25   0.153207 
26   0.12533 
27   0.15068 
28   0.151523 
29   0.125848 
30   0.147996 
31   0.14283 
32   0.107217 
 
$$$$ 
 
