PCCDB-ID:  7922 
public computational chemistry database (PCCDB) project, http://pccdb.org 
 
 11 11  0  0  0  0  0  0  0  0999 V2000 
   -0.7785   -1.0153   -0.0817 C   0  0  0  0  0  0  0  0  0  0  0  0 
    0.7498   -1.0635   -0.0145 C   0  0  0  0  0  0  0  0  0  0  0  0 
   -1.1280    0.4516    0.1297 C   0  0  0  0  0  0  0  0  0  0  0  0 
    1.1711    0.3796    0.2278 C   0  0  0  0  0  0  0  0  0  0  0  0 
   -2.2051    0.9696    0.1594 O   0  0  0  0  0  0  0  0  0  0  0  0 
    2.2721    0.8296    0.3492 O   0  0  0  0  0  0  0  0  0  0  0  0 
    0.0405    1.1857    0.2987 O   0  0  0  0  0  0  0  0  0  0  0  0 
   -1.2748   -1.6078    0.6927 H   0  0  0  0  0  0  0  0  0  0  0  0 
   -1.1896   -1.3370   -1.0434 H   0  0  0  0  0  0  0  0  0  0  0  0 
    1.2229   -1.4155   -0.9361 H   0  0  0  0  0  0  0  0  0  0  0  0 
    1.1376   -1.6819    0.8007 H   0  0  0  0  0  0  0  0  0  0  0  0 
  1  2  1  0  0  0  0 
  1  3  1  0  0  0  0 
  1  8  1  0  0  0  0 
  2  4  1  0  0  0  0 
  2 11  1  0  0  0  0 
  3  5  2  0  0  0  0 
  3  7  1  0  0  0  0 
  4  7  1  0  0  0  0 
  4  6  2  0  0  0  0 
  9  1  1  0  0  0  0 
 10  2  1  0  0  0  0 
M  END 
>  <HBA> 
3 
 
>  <HBD> 
0 
 
>  <TPSA> 
43.37 
 
>  <cid> 
7922 
 
>  <dipole> 
4.38 
 
>  <excitation_energy_1> 
5.291 
 
>  <excitation_energy_2> 
5.695 
 
>  <excitation_energy_3> 
6.598 
 
>  <excitation_energy_4> 
6.928 
 
>  <homo_energy> 
-7.785 
 
>  <homo_lumo_gap> 
6.909 
 
>  <logP> 
-0.15 
 
>  <lumo_energy> 
-0.876 
 
>  <melting_point> 
31.18 
 
>  <molecular_refractivity> 
20.71 
 
>  <oscillator_strength_1> 
0.0011 
 
>  <oscillator_strength_2> 
0.0 
 
>  <oscillator_strength_3> 
0.0 
 
>  <oscillator_strength_4> 
0.01 
 
>  <open_babel_can_smiles> 
O=C1CCC(=O)O1 
 
>  <mulliken_charges> 
11 
1   -0.391507 
2   -0.391799 
3   0.612699 
4   0.612822 
5   -0.417149 
6   -0.417163 
7   -0.430418 
8   0.205582 
9   0.205652 
10   0.205622 
11   0.20566 
 
>  <lowdin_charges> 
11 
1   -0.314452 
2   -0.314399 
3   0.207445 
4   0.206514 
5   -0.195045 
6   -0.194682 
7   -0.147058 
8   0.188452 
9   0.187306 
10   0.187672 
11   0.188248 
 
$$$$ 
 
