PCCDB-ID:  12152 
public computational chemistry database (PCCDB) project, http://pccdb.org 
 
 17 17  0  0  0  0  0  0  0  0999 V2000 
   -1.6006    0.1007   -0.1624 C   0  0  0  0  0  0  0  0  0  0  0  0 
   -0.8538    1.2731   -0.2734 C   0  0  0  0  0  0  0  0  0  0  0  0 
   -0.9486   -1.1265   -0.0108 C   0  0  0  0  0  0  0  0  0  0  0  0 
    0.5414    1.2186   -0.2343 C   0  0  0  0  0  0  0  0  0  0  0  0 
    0.4431   -1.1780    0.0299 C   0  0  0  0  0  0  0  0  0  0  0  0 
    2.7143   -0.0673   -0.0628 C   0  0  0  0  0  0  0  0  0  0  0  0 
    1.2025   -0.0048   -0.0807 C   0  0  0  0  0  0  0  0  0  0  0  0 
    2.9576    0.4289   -3.3731 N   0  0  0  0  0  0  0  0  0  0  0  0 
    3.3054   -0.6660   -1.2952 N   0  0  0  0  0  0  0  0  0  0  0  0 
    3.0874   -0.0477   -2.3428 N   0  0  0  0  0  0  0  0  0  0  0  0 
   -2.6860    0.1405   -0.1932 H   0  0  0  0  0  0  0  0  0  0  0  0 
   -1.3539    2.2305   -0.3919 H   0  0  0  0  0  0  0  0  0  0  0  0 
   -1.5263   -2.0427    0.0771 H   0  0  0  0  0  0  0  0  0  0  0  0 
    1.1208    2.1354   -0.3191 H   0  0  0  0  0  0  0  0  0  0  0  0 
    0.9494   -2.1337    0.1428 H   0  0  0  0  0  0  0  0  0  0  0  0 
    3.0715   -0.7160    0.7401 H   0  0  0  0  0  0  0  0  0  0  0  0 
    3.1380    0.9319    0.1023 H   0  0  0  0  0  0  0  0  0  0  0  0 
  1  3  2  0  0  0  0 
  2  4  2  0  0  0  0 
  2  1  1  0  0  0  0 
  3  5  1  0  0  0  0 
  3 13  1  0  0  0  0 
  4  7  1  0  0  0  0 
  5 15  1  0  0  0  0 
  6 17  1  0  0  0  0 
  6 16  1  0  0  0  0 
  7  6  1  0  0  0  0 
  7  5  2  0  0  0  0 
  8 10  2  0  0  0  0 
  9  6  1  0  0  0  0 
 10  9  2  0  0  0  0 
 11  1  1  0  0  0  0 
 12  2  1  0  0  0  0 
 14  4  1  0  0  0  0 
M  RAD  1   8   2 
M  END 
>  <HBA> 
1 
 
>  <HBD> 
0 
 
>  <TPSA> 
49.75 
 
>  <cid> 
12152 
 
>  <dipole> 
2.47 
 
>  <excitation_energy_1> 
4.289 
 
>  <excitation_energy_2> 
5.221 
 
>  <excitation_energy_3> 
5.303 
 
>  <excitation_energy_4> 
5.487 
 
>  <homo_energy> 
-6.719 
 
>  <homo_lumo_gap> 
5.919 
 
>  <logP> 
1.95 
 
>  <lumo_energy> 
-0.8 
 
>  <melting_point> 
54.08 
 
>  <molecular_refractivity> 
36.23 
 
>  <oscillator_strength_1> 
0.0002 
 
>  <oscillator_strength_2> 
0.0006 
 
>  <oscillator_strength_3> 
0.0107 
 
>  <oscillator_strength_4> 
0.0248 
 
>  <open_babel_can_smiles> 
[N]=[N]=NCc1ccccc1 
 
>  <mulliken_charges> 
17 
1   -0.126583 
2   -0.125357 
3   -0.128128 
4   -0.181156 
5   -0.166219 
6   -0.24044 
7   0.160831 
8   -0.265339 
9   -0.364956 
10   0.418755 
11   0.135084 
12   0.135625 
13   0.135814 
14   0.130754 
15   0.138067 
16   0.179431 
17   0.163818 
 
>  <lowdin_charges> 
17 
1   -0.148648 
2   -0.152461 
3   -0.152334 
4   -0.164438 
5   -0.15361 
6   -0.187319 
7   -0.023935 
8   -0.112339 
9   -0.216911 
10   0.188615 
11   0.158363 
12   0.160776 
13   0.16107 
14   0.157762 
15   0.16197 
16   0.170446 
17   0.152993 
 
$$$$ 
 
