PCCDB-ID:  65666 
public computational chemistry database (PCCDB) project, http://pccdb.org 
 
 23 24  0  0  0  0  0  0  0  0999 V2000 
   -0.4483    1.2047   -1.2748 C   0  0  0  0  0  0  0  0  0  0  0  0 
   -3.8622   -6.8585   -0.0952 C   0  0  0  0  0  0  0  0  0  0  0  0 
   -0.7949   -0.1431   -1.3329 C   0  0  0  0  0  0  0  0  0  0  0  0 
   -0.2999    1.8006   -0.0216 C   0  0  0  0  0  0  0  0  0  0  0  0 
   -4.9037   -5.9287   -0.1376 C   0  0  0  0  0  0  0  0  0  0  0  0 
   -2.5740   -6.3331   -0.0797 C   0  0  0  0  0  0  0  0  0  0  0  0 
   -0.8051   -0.1475    1.0574 C   0  0  0  0  0  0  0  0  0  0  0  0 
   -1.3546   -2.3111   -0.1318 C   0  0  0  0  0  0  0  0  0  0  0  0 
   -0.9791   -0.8530   -0.1415 C   0  0  0  0  0  0  0  0  0  0  0  0 
   -3.4075   -4.2248   -0.1411 C   0  0  0  0  0  0  0  0  0  0  0  0 
   -0.4718    1.1443    1.1327 N   0  0  0  0  0  0  0  0  0  0  0  0 
   -4.6928   -4.6125   -0.1604 N   0  0  0  0  0  0  0  0  0  0  0  0 
   -2.3292   -5.0165   -0.1028 N   0  0  0  0  0  0  0  0  0  0  0  0 
   -3.1985   -2.4624   -0.1688 S   0  0  0  0  0  0  0  0  0  0  0  0 
   -0.2941    1.7838   -2.1805 H   0  0  0  0  0  0  0  0  0  0  0  0 
   -4.0473   -7.9267   -0.0760 H   0  0  0  0  0  0  0  0  0  0  0  0 
   -0.9209   -0.6430   -2.2905 H   0  0  0  0  0  0  0  0  0  0  0  0 
   -0.0293    2.8520    0.0614 H   0  0  0  0  0  0  0  0  0  0  0  0 
   -5.9447   -6.2480   -0.1534 H   0  0  0  0  0  0  0  0  0  0  0  0 
   -1.6994   -6.9811   -0.0479 H   0  0  0  0  0  0  0  0  0  0  0  0 
   -0.9385   -0.6624    2.0089 H   0  0  0  0  0  0  0  0  0  0  0  0 
   -0.9881   -2.8136    0.7662 H   0  0  0  0  0  0  0  0  0  0  0  0 
   -0.9510   -2.8379   -0.9995 H   0  0  0  0  0  0  0  0  0  0  0  0 
  1  4  1  0  0  0  0 
  2  6  1  0  0  0  0 
  2 16  1  0  0  0  0 
  3  1  2  0  0  0  0 
  3  9  1  0  0  0  0 
  4 18  1  0  0  0  0 
  4 11  2  0  0  0  0 
  5  2  2  0  0  0  0 
  6 20  1  0  0  0  0 
  7 11  1  0  0  0  0 
  7 21  1  0  0  0  0 
  8 22  1  0  0  0  0 
  9  8  1  0  0  0  0 
  9  7  2  0  0  0  0 
 10 13  1  0  0  0  0 
 12 10  2  0  0  0  0 
 12  5  1  0  0  0  0 
 13  6  2  0  0  0  0 
 14 10  1  0  0  0  0 
 14  8  1  0  0  0  0 
 15  1  1  0  0  0  0 
 17  3  1  0  0  0  0 
 19  5  1  0  0  0  0 
 23  8  1  0  0  0  0 
M  END 
>  <HBA> 
4 
 
>  <HBD> 
0 
 
>  <TPSA> 
63.97 
 
>  <cid> 
65666 
 
>  <dipole> 
3.93 
 
>  <excitation_energy_1> 
4.161 
 
>  <excitation_energy_2> 
4.367 
 
>  <excitation_energy_3> 
4.689 
 
>  <excitation_energy_4> 
4.816 
 
>  <homo_energy> 
-6.324 
 
>  <homo_lumo_gap> 
5.053 
 
>  <logP> 
2.164 
 
>  <lumo_energy> 
-1.271 
 
>  <melting_point> 
93.04 
 
>  <molecular_refractivity> 
56.03 
 
>  <oscillator_strength_1> 
0.0115 
 
>  <oscillator_strength_2> 
0.0036 
 
>  <oscillator_strength_3> 
0.1177 
 
>  <oscillator_strength_4> 
0.0211 
 
>  <open_babel_can_smiles> 
c1ccc(cn1)CSc1ncccn1 
 
>  <mulliken_charges> 
23 
1   -0.139284 
2   -0.157421 
3   -0.130915 
4   0.041354 
5   0.055627 
6   0.060342 
7   0.01019 
8   -0.499182 
9   0.125401 
10   0.243224 
11   -0.407918 
12   -0.408198 
13   -0.420174 
14   0.184743 
15   0.140619 
16   0.150923 
17   0.147353 
18   0.144223 
19   0.159681 
20   0.15759 
21   0.145467 
22   0.199911 
23   0.196443 
 
>  <lowdin_charges> 
23 
1   -0.173251 
2   -0.205987 
3   -0.130279 
4   -0.085204 
5   -0.051401 
6   -0.054644 
7   -0.092239 
8   -0.364591 
9   -0.03056 
10   -0.02506 
11   -0.144189 
12   -0.157613 
13   -0.178579 
14   0.193968 
15   0.166236 
16   0.171401 
17   0.165416 
18   0.156216 
19   0.164515 
20   0.165205 
21   0.158913 
22   0.17667 
23   0.175057 
 
$$$$ 
 
