PCCDB-ID:  20946 
public computational chemistry database (PCCDB) project, http://pccdb.org 
 
 24 23  0  0  1  0  0  0  0  0999 V2000 
    0.7506   -0.4717   -0.6880 C   0  0  0  0  0  0  0  0  0  0  0  0 
    3.7528    1.4021   -5.4817 C   0  0  0  0  0  0  0  0  0  0  0  0 
    6.3588    1.6108   -3.0762 C   0  0  0  0  0  0  0  0  0  0  0  0 
    2.2780   -0.3808   -0.7657 C   0  0  0  0  0  0  0  0  0  0  0  0 
    4.4814    0.8202   -4.5282 C   0  0  0  0  0  0  0  0  0  0  0  0 
    2.7731    0.4716   -1.9413 C   0  0  0  0  0  0  0  0  0  0  0  0 
    4.3015    0.5666   -2.0201 C   0  0  0  0  0  0  0  0  0  0  0  0 
    4.8333    1.4247   -3.1912 C   0  0  1  0  0  0  0  0  0  0  0  0 
    0.4276   -1.0846    0.1614 H   0  0  0  0  0  0  0  0  0  0  0  0 
    0.3337   -0.9180   -1.5992 H   0  0  0  0  0  0  0  0  0  0  0  0 
    0.2998    0.5218   -0.5722 H   0  0  0  0  0  0  0  0  0  0  0  0 
    3.5499    0.9106   -6.4297 H   0  0  0  0  0  0  0  0  0  0  0  0 
    3.3309    2.3970   -5.3516 H   0  0  0  0  0  0  0  0  0  0  0  0 
    6.7415    2.2464   -3.8820 H   0  0  0  0  0  0  0  0  0  0  0  0 
    6.8780    0.6456   -3.1365 H   0  0  0  0  0  0  0  0  0  0  0  0 
    6.6258    2.0723   -2.1178 H   0  0  0  0  0  0  0  0  0  0  0  0 
    2.7006   -1.3925   -0.8487 H   0  0  0  0  0  0  0  0  0  0  0  0 
    2.6682    0.0340    0.1749 H   0  0  0  0  0  0  0  0  0  0  0  0 
    4.8858   -0.1797   -4.7067 H   0  0  0  0  0  0  0  0  0  0  0  0 
    2.3518    1.4847   -1.8558 H   0  0  0  0  0  0  0  0  0  0  0  0 
    2.3815    0.0608   -2.8816 H   0  0  0  0  0  0  0  0  0  0  0  0 
    4.7288   -0.4451   -2.0985 H   0  0  0  0  0  0  0  0  0  0  0  0 
    4.6870    0.9857   -1.0793 H   0  0  0  0  0  0  0  0  0  0  0  0 
    4.3611    2.4162   -3.1293 H   0  0  0  0  0  0  0  0  0  0  0  0 
  1 11  1  0  0  0  0 
  1  9  1  0  0  0  0 
  2 13  1  0  0  0  0 
  2  5  2  0  0  0  0 
  3 16  1  0  0  0  0 
  4  1  1  0  0  0  0 
  4 18  1  0  0  0  0 
  5  8  1  0  0  0  0 
  6 20  1  0  0  0  0 
  6  4  1  0  0  0  0 
  7  6  1  0  0  0  0 
  7 23  1  0  0  0  0 
  8 24  1  1  0  0  0 
  8  3  1  0  0  0  0 
  8  7  1  0  0  0  0 
 10  1  1  0  0  0  0 
 12  2  1  0  0  0  0 
 14  3  1  0  0  0  0 
 15  3  1  0  0  0  0 
 17  4  1  0  0  0  0 
 19  5  1  0  0  0  0 
 21  6  1  0  0  0  0 
 22  7  1  0  0  0  0 
M  END 
>  <HBA> 
0 
 
>  <HBD> 
0 
 
>  <TPSA> 
0.0 
 
>  <cid> 
20946 
 
>  <dipole> 
0.27 
 
>  <excitation_energy_1> 
6.491 
 
>  <excitation_energy_2> 
6.778 
 
>  <excitation_energy_3> 
6.815 
 
>  <excitation_energy_4> 
6.935 
 
>  <homo_energy> 
-6.784 
 
>  <homo_lumo_gap> 
7.475 
 
>  <logP> 
2.999 
 
>  <lumo_energy> 
0.691 
 
>  <melting_point> 
-48.49 
 
>  <molecular_refractivity> 
40.1 
 
>  <oscillator_strength_1> 
0.049 
 
>  <oscillator_strength_2> 
0.0153 
 
>  <oscillator_strength_3> 
0.0006 
 
>  <oscillator_strength_4> 
0.2996 
 
>  <open_babel_can_smiles> 
C[C@@H](C=C)CCCC 
 
>  <mulliken_charges> 
24 
1   -0.441072 
2   -0.348259 
3   -0.446794 
4   -0.24691 
5   -0.032778 
6   -0.247542 
7   -0.256927 
8   -0.117021 
9   0.140429 
10   0.141863 
11   0.140652 
12   0.136807 
13   0.13441 
14   0.149045 
15   0.139801 
16   0.141547 
17   0.129024 
18   0.128421 
19   0.118536 
20   0.124092 
21   0.13868 
22   0.124296 
23   0.12691 
24   0.12279 
 
>  <lowdin_charges> 
24 
1   -0.445239 
2   -0.346103 
3   -0.442959 
4   -0.271006 
5   -0.140375 
6   -0.276612 
7   -0.273066 
8   -0.120544 
9   0.149252 
10   0.14693 
11   0.145464 
12   0.156907 
13   0.152569 
14   0.153617 
15   0.146281 
16   0.148462 
17   0.137337 
18   0.137653 
19   0.145782 
20   0.135946 
21   0.144546 
22   0.13626 
23   0.139828 
24   0.139069 
 
$$$$ 
 
