PCCDB-ID:  70768 
public computational chemistry database (PCCDB) project, http://pccdb.org 
 
 28 29  0  0  0  0  0  0  0  0999 V2000 
    0.4472    1.2860   -0.3805 C   0  0  0  0  0  0  0  0  0  0  0  0 
   -1.0348    1.0893   -0.0388 C   0  0  0  0  0  0  0  0  0  0  0  0 
    1.3077    0.3510    0.4730 C   0  0  0  0  0  0  0  0  0  0  0  0 
   -0.8591   -5.0585    0.2069 C   0  0  0  0  0  0  0  0  0  0  0  0 
   -2.3031   -4.6354   -0.1218 C   0  0  0  0  0  0  0  0  0  0  0  0 
   -1.4188   -0.3690    0.0328 C   0  0  0  0  0  0  0  0  0  0  0  0 
    0.9668   -1.1210    0.1990 C   0  0  0  0  0  0  0  0  0  0  0  0 
   -0.0450   -3.8249   -0.1918 C   0  0  0  0  0  0  0  0  0  0  0  0 
   -2.3136   -3.1009    0.0727 C   0  0  0  0  0  0  0  0  0  0  0  0 
   -0.5288   -1.3826    0.1335 C   0  0  0  0  0  0  0  0  0  0  0  0 
   -0.9086   -2.7234    0.2358 N   0  0  0  0  0  0  0  0  0  0  0  0 
    0.7411    2.3320   -0.2269 H   0  0  0  0  0  0  0  0  0  0  0  0 
    0.6119    1.0606   -1.4437 H   0  0  0  0  0  0  0  0  0  0  0  0 
   -1.6598    1.5981   -0.7867 H   0  0  0  0  0  0  0  0  0  0  0  0 
   -1.2575    1.5940    0.9172 H   0  0  0  0  0  0  0  0  0  0  0  0 
    1.1317    0.5723    1.5350 H   0  0  0  0  0  0  0  0  0  0  0  0 
    2.3761    0.5199    0.2893 H   0  0  0  0  0  0  0  0  0  0  0  0 
   -0.5452   -5.9620   -0.3252 H   0  0  0  0  0  0  0  0  0  0  0  0 
   -0.7458   -5.2386    1.2819 H   0  0  0  0  0  0  0  0  0  0  0  0 
   -3.0444   -5.1397    0.5053 H   0  0  0  0  0  0  0  0  0  0  0  0 
   -2.5382   -4.8818   -1.1633 H   0  0  0  0  0  0  0  0  0  0  0  0 
   -2.4831   -0.5841    0.0208 H   0  0  0  0  0  0  0  0  0  0  0  0 
    1.4096   -1.7472    0.9842 H   0  0  0  0  0  0  0  0  0  0  0  0 
    1.4383   -1.4411   -0.7429 H   0  0  0  0  0  0  0  0  0  0  0  0 
    0.1393   -3.8181   -1.2827 H   0  0  0  0  0  0  0  0  0  0  0  0 
    0.9274   -3.7846    0.3066 H   0  0  0  0  0  0  0  0  0  0  0  0 
   -2.8872   -2.7875    0.9552 H   0  0  0  0  0  0  0  0  0  0  0  0 
   -2.7643   -2.5958   -0.7973 H   0  0  0  0  0  0  0  0  0  0  0  0 
  1 12  1  0  0  0  0 
  1  2  1  0  0  0  0 
  1  3  1  0  0  0  0 
  2  6  1  0  0  0  0 
  2 15  1  0  0  0  0 
  3 16  1  0  0  0  0 
  4 19  1  0  0  0  0 
  5  9  1  0  0  0  0 
  5  4  1  0  0  0  0 
  5 20  1  0  0  0  0 
  6 10  2  0  0  0  0 
  7  3  1  0  0  0  0 
  7 23  1  0  0  0  0 
  8  4  1  0  0  0  0 
  8 11  1  0  0  0  0 
  8 26  1  0  0  0  0 
  9 11  1  0  0  0  0 
  9 27  1  0  0  0  0 
 10  7  1  0  0  0  0 
 10 11  1  0  0  0  0 
 13  1  1  0  0  0  0 
 14  2  1  0  0  0  0 
 17  3  1  0  0  0  0 
 18  4  1  0  0  0  0 
 21  5  1  0  0  0  0 
 22  6  1  0  0  0  0 
 24  7  1  0  0  0  0 
 25  8  1  0  0  0  0 
 28  9  1  0  0  0  0 
M  END 
>  <HBA> 
1 
 
>  <HBD> 
0 
 
>  <TPSA> 
3.24 
 
>  <cid> 
70768 
 
>  <dipole> 
1.4 
 
>  <excitation_energy_1> 
4.238 
 
>  <excitation_energy_2> 
4.629 
 
>  <excitation_energy_3> 
4.774 
 
>  <excitation_energy_4> 
4.828 
 
>  <homo_energy> 
-4.664 
 
>  <homo_lumo_gap> 
6.223 
 
>  <logP> 
2.478 
 
>  <lumo_energy> 
1.559 
 
>  <melting_point> 
31.78 
 
>  <molecular_refractivity> 
52.29 
 
>  <oscillator_strength_1> 
0.0109 
 
>  <oscillator_strength_2> 
0.0285 
 
>  <oscillator_strength_3> 
0.0026 
 
>  <oscillator_strength_4> 
0.0324 
 
>  <open_babel_can_smiles> 
C1CCC(=CC1)N1CCCC1 
 
>  <mulliken_charges> 
28 
1   -0.25981 
2   -0.284879 
3   -0.264272 
4   -0.274882 
5   -0.306564 
6   -0.223913 
7   -0.34415 
8   -0.117053 
9   -0.101513 
10   0.366301 
11   -0.489097 
12   0.124916 
13   0.130553 
14   0.129525 
15   0.130221 
16   0.137103 
17   0.126639 
18   0.138569 
19   0.147833 
20   0.14525 
21   0.143975 
22   0.107064 
23   0.145742 
24   0.143691 
25   0.12462 
26   0.146814 
27   0.144708 
28   0.132608 
 
>  <lowdin_charges> 
28 
1   -0.272383 
2   -0.269339 
3   -0.269763 
4   -0.279636 
5   -0.286335 
6   -0.269412 
7   -0.281151 
8   -0.192494 
9   -0.198752 
10   0.032758 
11   -0.138113 
12   0.139509 
13   0.137262 
14   0.144063 
15   0.137154 
16   0.140435 
17   0.140064 
18   0.148684 
19   0.146849 
20   0.152387 
21   0.145523 
22   0.146896 
23   0.151654 
24   0.146569 
25   0.121299 
26   0.148741 
27   0.143761 
28   0.133768 
 
$$$$ 
 
