PCCDB-ID:  10355 
public computational chemistry database (PCCDB) project, http://pccdb.org 
 
 21 21  0  0  0  0  0  0  0  0999 V2000 
    0.8642    0.0023    0.5846 C   0  0  0  0  0  0  0  0  0  0  0  0 
    3.4468   -1.3210    1.5758 C   0  0  0  0  0  0  0  0  0  0  0  0 
    3.8557   -0.0421    2.2560 C   0  0  0  0  0  0  0  0  0  0  0  0 
    3.0131   -1.0613    0.1178 C   0  0  0  0  0  0  0  0  0  0  0  0 
    2.9047    1.3221    0.3889 C   0  0  0  0  0  0  0  0  0  0  0  0 
    3.6313    1.1690    1.7183 C   0  0  0  0  0  0  0  0  0  0  0  0 
    4.0053    2.4428    2.4088 C   0  0  0  0  0  0  0  0  0  0  0  0 
    2.1783    0.1294   -0.0391 N   0  0  0  0  0  0  0  0  0  0  0  0 
    3.4371    3.4916    2.2062 O   0  0  0  0  0  0  0  0  0  0  0  0 
    5.0342    2.3898    3.3002 O   0  0  0  0  0  0  0  0  0  0  0  0 
    0.3652   -0.8890    0.1878 H   0  0  0  0  0  0  0  0  0  0  0  0 
    0.2555    0.8734    0.3211 H   0  0  0  0  0  0  0  0  0  0  0  0 
    0.8801   -0.0754    1.6866 H   0  0  0  0  0  0  0  0  0  0  0  0 
    2.6340   -1.7884    2.1522 H   0  0  0  0  0  0  0  0  0  0  0  0 
    4.2757   -2.0421    1.6034 H   0  0  0  0  0  0  0  0  0  0  0  0 
    4.3031   -0.1358    3.2466 H   0  0  0  0  0  0  0  0  0  0  0  0 
    2.4760   -1.9287   -0.2821 H   0  0  0  0  0  0  0  0  0  0  0  0 
    3.9080   -0.9200   -0.5027 H   0  0  0  0  0  0  0  0  0  0  0  0 
    3.6360    1.5923   -0.3883 H   0  0  0  0  0  0  0  0  0  0  0  0 
    2.2146    2.1675    0.4631 H   0  0  0  0  0  0  0  0  0  0  0  0 
    5.4758    1.5277    3.2291 H   0  0  0  0  0  0  0  0  0  0  0  0 
  1 13  1  0  0  0  0 
  2 15  1  0  0  0  0 
  2 14  1  0  0  0  0 
  2  3  1  0  0  0  0 
  3 16  1  0  0  0  0 
  4  2  1  0  0  0  0 
  5 20  1  0  0  0  0 
  5  6  1  0  0  0  0 
  6  3  2  0  0  0  0 
  6  7  1  0  0  0  0 
  7 10  1  0  0  0  0 
  8  4  1  0  0  0  0 
  8  5  1  0  0  0  0 
  8  1  1  0  0  0  0 
  9  7  2  0  0  0  0 
 11  1  1  0  0  0  0 
 12  1  1  0  0  0  0 
 17  4  1  0  0  0  0 
 18  4  1  0  0  0  0 
 19  5  1  0  0  0  0 
 21 10  1  0  0  0  0 
M  END 
>  <HBA> 
3 
 
>  <HBD> 
1 
 
>  <TPSA> 
40.54 
 
>  <cid> 
10355 
 
>  <dipole> 
4.8 
 
>  <excitation_energy_1> 
3.63 
 
>  <excitation_energy_2> 
4.789 
 
>  <excitation_energy_3> 
4.949 
 
>  <excitation_energy_4> 
5.509 
 
>  <homo_energy> 
-5.845 
 
>  <homo_lumo_gap> 
4.697 
 
>  <logP> 
0.271 
 
>  <lumo_energy> 
-1.148 
 
>  <melting_point> 
88.36 
 
>  <molecular_refractivity> 
41.76 
 
>  <oscillator_strength_1> 
0.0006 
 
>  <oscillator_strength_2> 
0.0027 
 
>  <oscillator_strength_3> 
0.0079 
 
>  <oscillator_strength_4> 
0.0052 
 
>  <open_babel_can_smiles> 
CN1CC(=CCC1)C(=O)O 
 
>  <mulliken_charges> 
21 
1   -0.307033 
2   -0.318398 
3   -0.174427 
4   -0.148749 
5   -0.208311 
6   0.05723 
7   0.555247 
8   -0.361558 
9   -0.449139 
10   -0.572646 
11   0.148715 
12   0.159461 
13   0.12892 
14   0.162691 
15   0.152455 
16   0.131429 
17   0.145064 
18   0.14682 
19   0.161205 
20   0.184722 
21   0.4063 
 
>  <lowdin_charges> 
21 
1   -0.357168 
2   -0.296113 
3   -0.159401 
4   -0.204612 
5   -0.204867 
6   -0.074706 
7   0.192031 
8   -0.180825 
9   -0.241324 
10   -0.358191 
11   0.150926 
12   0.156028 
13   0.123395 
14   0.159615 
15   0.159483 
16   0.151831 
17   0.150292 
18   0.147068 
19   0.157036 
20   0.174275 
21   0.355228 
 
$$$$ 
 
