PCCDB-ID:  6491 
public computational chemistry database (PCCDB) project, http://pccdb.org 
 
 17 17  0  0  0  0  0  0  0  0999 V2000 
    0.9632   -0.0318   -0.0605 C   0  0  0  0  0  0  0  0  0  0  0  0 
    3.0495   -0.0314    1.3947 C   0  0  0  0  0  0  0  0  0  0  0  0 
    3.0778    1.1060   -0.8701 C   0  0  0  0  0  0  0  0  0  0  0  0 
    3.6846   -0.7085   -1.7406 C   0  0  0  0  0  0  0  0  0  0  0  0 
    2.5032   -0.0495   -0.0454 C   0  0  0  0  0  0  0  0  0  0  0  0 
    3.7767    0.7026   -1.8736 N   0  0  0  0  0  0  0  0  0  0  0  0 
    3.0096   -1.2160   -0.7711 N   0  0  0  0  0  0  0  0  0  0  0  0 
    2.8938    2.4036   -0.6060 O   0  0  0  0  0  0  0  0  0  0  0  0 
    4.3246   -1.4434   -2.6592 O   0  0  0  0  0  0  0  0  0  0  0  0 
    0.5624    0.8597    0.4399 H   0  0  0  0  0  0  0  0  0  0  0  0 
    0.5876   -0.9149    0.4640 H   0  0  0  0  0  0  0  0  0  0  0  0 
    0.5859   -0.0560   -1.0871 H   0  0  0  0  0  0  0  0  0  0  0  0 
    2.7200    0.8609    1.9434 H   0  0  0  0  0  0  0  0  0  0  0  0 
    4.1432   -0.0569    1.3943 H   0  0  0  0  0  0  0  0  0  0  0  0 
    2.6863   -0.9136    1.9292 H   0  0  0  0  0  0  0  0  0  0  0  0 
    2.3413    2.4934    0.1873 H   0  0  0  0  0  0  0  0  0  0  0  0 
    4.7509   -0.8164   -3.2675 H   0  0  0  0  0  0  0  0  0  0  0  0 
  1  5  1  0  0  0  0 
  1 10  1  0  0  0  0 
  1 11  1  0  0  0  0 
  2 15  1  0  0  0  0 
  2 13  1  0  0  0  0 
  3  8  1  0  0  0  0 
  3  5  1  0  0  0  0 
  4  7  2  0  0  0  0 
  5  2  1  0  0  0  0 
  6  4  2  0  0  0  0 
  6  3  2  0  0  0  0 
  7  5  1  0  0  0  0 
  8 16  1  0  0  0  0 
  9  4  1  0  0  0  0 
 12  1  1  0  0  0  0 
 14  2  1  0  0  0  0 
 17  9  1  0  0  0  0 
M  END 
>  <HBA> 
4 
 
>  <HBD> 
2 
 
>  <TPSA> 
58.2 
 
>  <cid> 
6491 
 
>  <dipole> 
3.44 
 
>  <excitation_energy_1> 
5.265 
 
>  <excitation_energy_2> 
5.288 
 
>  <excitation_energy_3> 
5.55 
 
>  <excitation_energy_4> 
6.14 
 
>  <homo_energy> 
-6.585 
 
>  <homo_lumo_gap> 
6.025 
 
>  <logP> 
0.262 
 
>  <lumo_energy> 
-0.561 
 
>  <melting_point> 
115.18 
 
>  <molecular_refractivity> 
38.3 
 
>  <oscillator_strength_1> 
0.0027 
 
>  <oscillator_strength_2> 
0.0354 
 
>  <oscillator_strength_3> 
0.0031 
 
>  <oscillator_strength_4> 
0.0024 
 
>  <open_babel_can_smiles> 
O[C]1=[N]=C(C(N=1)(C)C)O 
 
>  <mulliken_charges> 
17 
1   -0.435596 
2   -0.435879 
3   0.532111 
4   0.628379 
5   0.075931 
6   -0.511674 
7   -0.45858 
8   -0.584558 
9   -0.600625 
10   0.122626 
11   0.177553 
12   0.170292 
13   0.122633 
14   0.170341 
15   0.177564 
16   0.426191 
17   0.423291 
 
>  <lowdin_charges> 
17 
1   -0.436951 
2   -0.435854 
3   0.139591 
4   0.142975 
5   0.036648 
6   -0.235196 
7   -0.249782 
8   -0.316567 
9   -0.335928 
10   0.140302 
11   0.170762 
12   0.164176 
13   0.140226 
14   0.163047 
15   0.170738 
16   0.37042 
17   0.371394 
 
$$$$ 
 
