PCCDB-ID:  61700 
public computational chemistry database (PCCDB) project, http://pccdb.org 
 
 22 22  0  0  0  0  0  0  0  0999 V2000 
    1.0308   -0.3000    0.1414 C   0  0  0  0  0  0  0  0  0  0  0  0 
    3.4161   -1.1680    0.2288 C   0  0  0  0  0  0  0  0  0  0  0  0 
    3.7011    2.8450   -4.8070 C   0  0  0  0  0  0  0  0  0  0  0  0 
    2.9377    0.7986   -3.4987 C   0  0  0  0  0  0  0  0  0  0  0  0 
    3.2847    2.1328   -1.2373 C   0  0  0  0  0  0  0  0  0  0  0  0 
    2.5227    0.0760    0.0744 C   0  0  0  0  0  0  0  0  0  0  0  0 
    3.3917    2.1275   -3.5181 C   0  0  0  0  0  0  0  0  0  0  0  0 
    2.8347    0.8085   -1.2168 C   0  0  0  0  0  0  0  0  0  0  0  0 
    3.5625    2.7928   -2.3673 N   0  0  0  0  0  0  0  0  0  0  0  0 
    2.6617    0.1431   -2.3727 N   0  0  0  0  0  0  0  0  0  0  0  0 
    0.8075   -0.8238    1.0780 H   0  0  0  0  0  0  0  0  0  0  0  0 
    0.7675   -0.9572   -0.6939 H   0  0  0  0  0  0  0  0  0  0  0  0 
    0.3921    0.5889    0.0881 H   0  0  0  0  0  0  0  0  0  0  0  0 
    3.1881   -1.6924    1.1639 H   0  0  0  0  0  0  0  0  0  0  0  0 
    4.4781   -0.8975    0.2410 H   0  0  0  0  0  0  0  0  0  0  0  0 
    3.2522   -1.8589   -0.6046 H   0  0  0  0  0  0  0  0  0  0  0  0 
    4.5070    2.3457   -5.3590 H   0  0  0  0  0  0  0  0  0  0  0  0 
    4.0122    3.8689   -4.5888 H   0  0  0  0  0  0  0  0  0  0  0  0 
    2.8264    2.8772   -5.4680 H   0  0  0  0  0  0  0  0  0  0  0  0 
    2.7938    0.2513   -4.4301 H   0  0  0  0  0  0  0  0  0  0  0  0 
    3.4271    2.6823   -0.3076 H   0  0  0  0  0  0  0  0  0  0  0  0 
    2.7424    0.7638    0.9025 H   0  0  0  0  0  0  0  0  0  0  0  0 
  1 11  1  0  0  0  0 
  2 15  1  0  0  0  0 
  2 14  1  0  0  0  0 
  3 18  1  0  0  0  0 
  3  7  1  0  0  0  0 
  4 10  1  0  0  0  0 
  5  8  1  0  0  0  0 
  5 21  1  0  0  0  0 
  6  1  1  0  0  0  0 
  6  2  1  0  0  0  0 
  6 22  1  0  0  0  0 
  7  4  2  0  0  0  0 
  7  9  1  0  0  0  0 
  8  6  1  0  0  0  0 
  9  5  2  0  0  0  0 
 10  8  2  0  0  0  0 
 12  1  1  0  0  0  0 
 13  1  1  0  0  0  0 
 16  2  1  0  0  0  0 
 17  3  1  0  0  0  0 
 19  3  1  0  0  0  0 
 20  4  1  0  0  0  0 
M  END 
>  <HBA> 
2 
 
>  <HBD> 
0 
 
>  <TPSA> 
25.78 
 
>  <cid> 
61700 
 
>  <dipole> 
0.24 
 
>  <excitation_energy_1> 
4.014 
 
>  <excitation_energy_2> 
4.722 
 
>  <excitation_energy_3> 
5.065 
 
>  <excitation_energy_4> 
5.591 
 
>  <homo_energy> 
-6.525 
 
>  <homo_lumo_gap> 
5.399 
 
>  <logP> 
1.908 
 
>  <lumo_energy> 
-1.127 
 
>  <melting_point> 
41.67 
 
>  <molecular_refractivity> 
41.58 
 
>  <oscillator_strength_1> 
0.005 
 
>  <oscillator_strength_2> 
0.0005 
 
>  <oscillator_strength_3> 
0.1202 
 
>  <oscillator_strength_4> 
0.0 
 
>  <open_babel_can_smiles> 
Cc1cnc(cn1)C(C)C 
 
>  <mulliken_charges> 
22 
1   -0.443329 
2   -0.443629 
3   -0.524054 
4   0.007016 
5   -0.017059 
6   -0.141091 
7   0.296613 
8   0.313802 
9   -0.431053 
10   -0.445366 
11   0.141966 
12   0.16639 
13   0.143286 
14   0.141471 
15   0.143199 
16   0.167223 
17   0.166374 
18   0.180192 
19   0.165487 
20   0.140994 
21   0.142121 
22   0.129448 
 
>  <lowdin_charges> 
22 
1   -0.442707 
2   -0.440758 
3   -0.449219 
4   -0.111987 
5   -0.118893 
6   -0.123213 
7   0.034003 
8   0.033051 
9   -0.132403 
10   -0.129035 
11   0.149526 
12   0.160187 
13   0.150214 
14   0.14934 
15   0.14835 
16   0.160472 
17   0.165872 
18   0.172128 
19   0.164787 
20   0.158443 
21   0.159126 
22   0.142715 
 
$$$$ 
 
