PCCDB-ID:  27622 
public computational chemistry database (PCCDB) project, http://pccdb.org 
 
 26 25  0  0  0  0  0  0  0  0999 V2000 
    0.5511    0.3316    1.2244 C   0  0  0  0  0  0  0  0  0  0  0  0 
    2.4861    1.2633    2.5799 C   0  0  0  0  0  0  0  0  0  0  0  0 
    4.7587   -2.1192    1.5076 C   0  0  0  0  0  0  0  0  0  0  0  0 
    6.2542   -1.8229    1.5259 C   0  0  0  0  0  0  0  0  0  0  0  0 
    2.6874   -0.9760    1.4198 C   0  0  0  0  0  0  0  0  0  0  0  0 
    2.0770    0.4251    1.3615 C   0  0  0  0  0  0  0  0  0  0  0  0 
    7.2602   -3.6757    2.6122 C   0  0  0  0  0  0  0  0  0  0  0  0 
    6.8112   -3.2892    3.7393 N   0  0  0  0  0  0  0  0  0  0  0  0 
    8.0372   -4.7505    2.3128 O   0  0  0  0  0  0  0  0  0  0  0  0 
    4.1017   -0.8707    1.4136 O   0  0  0  0  0  0  0  0  0  0  0  0 
    7.0228   -3.0371    1.4599 O   0  0  0  0  0  0  0  0  0  0  0  0 
    0.1042    1.3299    1.1577 H   0  0  0  0  0  0  0  0  0  0  0  0 
    0.1064   -0.1712    2.0932 H   0  0  0  0  0  0  0  0  0  0  0  0 
    0.2574   -0.2267    0.3272 H   0  0  0  0  0  0  0  0  0  0  0  0 
    2.1037    2.2875    2.4978 H   0  0  0  0  0  0  0  0  0  0  0  0 
    3.5746    1.3072    2.6752 H   0  0  0  0  0  0  0  0  0  0  0  0 
    2.0825    0.8295    3.5045 H   0  0  0  0  0  0  0  0  0  0  0  0 
    4.4699   -2.6529    2.4245 H   0  0  0  0  0  0  0  0  0  0  0  0 
    4.5170   -2.7604    0.6435 H   0  0  0  0  0  0  0  0  0  0  0  0 
    6.5221   -1.2586    2.4213 H   0  0  0  0  0  0  0  0  0  0  0  0 
    6.5347   -1.2614    0.6321 H   0  0  0  0  0  0  0  0  0  0  0  0 
    2.3514   -1.5759    0.5561 H   0  0  0  0  0  0  0  0  0  0  0  0 
    2.3506   -1.4992    2.3327 H   0  0  0  0  0  0  0  0  0  0  0  0 
    2.4792    0.9075    0.4592 H   0  0  0  0  0  0  0  0  0  0  0  0 
    7.1136   -3.8860    4.5079 H   0  0  0  0  0  0  0  0  0  0  0  0 
    8.2052   -5.2419    3.1312 H   0  0  0  0  0  0  0  0  0  0  0  0 
  1  6  1  0  0  0  0 
  1 13  1  0  0  0  0 
  2 16  1  0  0  0  0 
  2 17  1  0  0  0  0 
  3  4  1  0  0  0  0 
  3 18  1  0  0  0  0 
  4 20  1  0  0  0  0 
  5 23  1  0  0  0  0 
  6  5  1  0  0  0  0 
  6  2  1  0  0  0  0 
  7  8  2  0  0  0  0 
  8 25  1  0  0  0  0 
  9  7  1  0  0  0  0 
  9 26  1  0  0  0  0 
 10  5  1  0  0  0  0 
 10  3  1  0  0  0  0 
 11  4  1  0  0  0  0 
 11  7  1  0  0  0  0 
 12  1  1  0  0  0  0 
 14  1  1  0  0  0  0 
 15  2  1  0  0  0  0 
 19  3  1  0  0  0  0 
 21  4  1  0  0  0  0 
 22  5  1  0  0  0  0 
 24  6  1  0  0  0  0 
M  END 
>  <HBA> 
4 
 
>  <HBD> 
1 
 
>  <TPSA> 
61.55 
 
>  <cid> 
27622 
 
>  <dipole> 
1.96 
 
>  <excitation_energy_1> 
5.862 
 
>  <excitation_energy_2> 
6.155 
 
>  <excitation_energy_3> 
6.486 
 
>  <excitation_energy_4> 
6.603 
 
>  <homo_energy> 
-6.827 
 
>  <homo_lumo_gap> 
8.011 
 
>  <logP> 
1.455 
 
>  <lumo_energy> 
1.184 
 
>  <melting_point> 
40.85 
 
>  <molecular_refractivity> 
41.23 
 
>  <oscillator_strength_1> 
0.0049 
 
>  <oscillator_strength_2> 
0.0049 
 
>  <oscillator_strength_3> 
0.0434 
 
>  <oscillator_strength_4> 
0.0117 
 
>  <open_babel_can_smiles> 
CC(COCCOC(=N)O)C 
 
>  <mulliken_charges> 
26 
1   -0.450132 
2   -0.442407 
3   -0.025358 
4   -0.051641 
5   0.006577 
6   -0.091121 
7   0.642946 
8   -0.625713 
9   -0.566736 
10   -0.489083 
11   -0.448744 
12   0.146902 
13   0.140786 
14   0.141337 
15   0.137213 
16   0.164361 
17   0.134336 
18   0.150829 
19   0.126024 
20   0.183713 
21   0.164204 
22   0.115398 
23   0.115029 
24   0.135433 
25   0.27729 
26   0.408556 
 
>  <lowdin_charges> 
26 
1   -0.445624 
2   -0.443745 
3   -0.141795 
4   -0.130083 
5   -0.128827 
6   -0.127172 
7   0.189042 
8   -0.473794 
9   -0.362635 
10   -0.27386 
11   -0.174353 
12   0.151991 
13   0.147006 
14   0.148371 
15   0.146122 
16   0.157782 
17   0.144123 
18   0.143916 
19   0.130436 
20   0.167004 
21   0.159716 
22   0.126726 
23   0.125207 
24   0.143964 
25   0.258972 
26   0.361509 
 
$$$$ 
 
