PCCDB-ID:  21439 
public computational chemistry database (PCCDB) project, http://pccdb.org 
 
 18 18  0  0  0  0  0  0  0  0999 V2000 
   -1.4569   -0.1868   -0.1486 C   0  0  0  0  0  0  0  0  0  0  0  0 
   -0.6357   -1.3002    0.0210 C   0  0  0  0  0  0  0  0  0  0  0  0 
   -0.8825    1.0861   -0.1918 C   0  0  0  0  0  0  0  0  0  0  0  0 
    0.7471   -1.1420    0.1225 C   0  0  0  0  0  0  0  0  0  0  0  0 
    1.1217    2.6491   -0.0597 C   0  0  0  0  0  0  0  0  0  0  0  0 
    0.4960    1.2690   -0.0777 C   0  0  0  0  0  0  0  0  0  0  0  0 
    1.3201    0.1323    0.0673 C   0  0  0  0  0  0  0  0  0  0  0  0 
    2.7196    0.3193    0.2298 N   0  0  0  0  0  0  0  0  0  0  0  0 
    1.8189    2.9327    1.1469 O   0  0  0  0  0  0  0  0  0  0  0  0 
   -2.5334   -0.3038   -0.2329 H   0  0  0  0  0  0  0  0  0  0  0  0 
   -1.0653   -2.2974    0.0662 H   0  0  0  0  0  0  0  0  0  0  0  0 
   -1.5184    1.9618   -0.3017 H   0  0  0  0  0  0  0  0  0  0  0  0 
    1.3888   -2.0130    0.2418 H   0  0  0  0  0  0  0  0  0  0  0  0 
    0.3440    3.4128   -0.1547 H   0  0  0  0  0  0  0  0  0  0  0  0 
    1.7891    2.7739   -0.9349 H   0  0  0  0  0  0  0  0  0  0  0  0 
    3.2249   -0.5605    0.2746 H   0  0  0  0  0  0  0  0  0  0  0  0 
    3.1295    0.8942   -0.5035 H   0  0  0  0  0  0  0  0  0  0  0  0 
    2.4034    2.1694    1.3094 H   0  0  0  0  0  0  0  0  0  0  0  0 
  1  2  1  0  0  0  0 
  2 11  1  0  0  0  0 
  2  4  2  0  0  0  0 
  3  1  2  0  0  0  0 
  3  6  1  0  0  0  0 
  4 13  1  0  0  0  0 
  5  9  1  0  0  0  0 
  6  5  1  0  0  0  0 
  6  7  2  0  0  0  0 
  7  4  1  0  0  0  0 
  7  8  1  0  0  0  0 
  8 16  1  0  0  0  0 
  9 18  1  0  0  0  0 
 10  1  1  0  0  0  0 
 12  3  1  0  0  0  0 
 14  5  1  0  0  0  0 
 15  5  1  0  0  0  0 
 17  8  1  0  0  0  0 
M  END 
>  <HBA> 
2 
 
>  <HBD> 
2 
 
>  <TPSA> 
46.25 
 
>  <cid> 
21439 
 
>  <dipole> 
3.14 
 
>  <excitation_energy_1> 
4.884 
 
>  <excitation_energy_2> 
5.086 
 
>  <excitation_energy_3> 
5.475 
 
>  <excitation_energy_4> 
5.711 
 
>  <homo_energy> 
-5.899 
 
>  <homo_lumo_gap> 
5.864 
 
>  <logP> 
1.342 
 
>  <lumo_energy> 
-0.035 
 
>  <melting_point> 
75.93 
 
>  <molecular_refractivity> 
36.97 
 
>  <oscillator_strength_1> 
0.022 
 
>  <oscillator_strength_2> 
0.0065 
 
>  <oscillator_strength_3> 
0.0699 
 
>  <oscillator_strength_4> 
0.0014 
 
>  <open_babel_can_smiles> 
OCc1ccccc1N 
 
>  <mulliken_charges> 
18 
1   -0.127028 
2   -0.137656 
3   -0.19707 
4   -0.166746 
5   -0.108834 
6   0.130398 
7   0.226335 
8   -0.816169 
9   -0.631195 
10   0.126445 
11   0.128963 
12   0.127662 
13   0.11732 
14   0.149793 
15   0.11047 
16   0.323306 
17   0.329784 
18   0.414221 
 
>  <lowdin_charges> 
18 
1   -0.171752 
2   -0.148453 
3   -0.15363 
4   -0.195292 
5   -0.131771 
6   -0.050409 
7   0.04366 
8   -0.507442 
9   -0.476547 
10   0.15568 
11   0.15754 
12   0.157776 
13   0.152884 
14   0.153562 
15   0.119988 
16   0.273702 
17   0.277907 
18   0.342597 
 
$$$$ 
 
