PCCDB-ID:  30923 
public computational chemistry database (PCCDB) project, http://pccdb.org 
 
 26 27  0  0  0  0  0  0  0  0999 V2000 
   -1.3631   -0.8618    0.7997 C   0  0  0  0  0  0  0  0  0  0  0  0 
   -1.9778    0.4038    0.5604 C   0  0  0  0  0  0  0  0  0  0  0  0 
    3.0170    3.0789    0.1456 C   0  0  0  0  0  0  0  0  0  0  0  0 
    3.7614    1.0002   -0.8029 C   0  0  0  0  0  0  0  0  0  0  0  0 
    1.7686    2.5210    0.4052 C   0  0  0  0  0  0  0  0  0  0  0  0 
    2.5097    0.4363   -0.5672 C   0  0  0  0  0  0  0  0  0  0  0  0 
   -0.0101   -0.7012    0.6285 C   0  0  0  0  0  0  0  0  0  0  0  0 
   -0.9782    1.2967    0.2615 C   0  0  0  0  0  0  0  0  0  0  0  0 
    5.3889    2.9494   -0.7488 C   0  0  0  0  0  0  0  0  0  0  0  0 
    4.0411    2.3310   -0.4562 C   0  0  0  0  0  0  0  0  0  0  0  0 
    1.5020    1.1923    0.0463 C   0  0  0  0  0  0  0  0  0  0  0  0 
    5.5443    3.6488   -2.1144 C   0  0  0  0  0  0  0  0  0  0  0  0 
    0.2340    0.6239    0.2993 N   0  0  0  0  0  0  0  0  0  0  0  0 
    6.5427    4.2544   -2.4113 O   0  0  0  0  0  0  0  0  0  0  0  0 
    4.5091    3.5433   -2.9790 O   0  0  0  0  0  0  0  0  0  0  0  0 
   -1.8582   -1.7824    1.0776 H   0  0  0  0  0  0  0  0  0  0  0  0 
   -3.0351    0.6291    0.5927 H   0  0  0  0  0  0  0  0  0  0  0  0 
    3.2065    4.1096    0.4359 H   0  0  0  0  0  0  0  0  0  0  0  0 
    4.5331    0.3955   -1.2737 H   0  0  0  0  0  0  0  0  0  0  0  0 
    1.0072    3.1047    0.9120 H   0  0  0  0  0  0  0  0  0  0  0  0 
    2.3065   -0.5842   -0.8748 H   0  0  0  0  0  0  0  0  0  0  0  0 
    0.8078   -1.3933    0.7610 H   0  0  0  0  0  0  0  0  0  0  0  0 
   -1.0201    2.3364   -0.0262 H   0  0  0  0  0  0  0  0  0  0  0  0 
    6.1828    2.1944   -0.7067 H   0  0  0  0  0  0  0  0  0  0  0  0 
    5.6485    3.7015    0.0038 H   0  0  0  0  0  0  0  0  0  0  0  0 
    3.7936    3.0278   -2.5643 H   0  0  0  0  0  0  0  0  0  0  0  0 
  1 16  1  0  0  0  0 
  2 17  1  0  0  0  0 
  2  1  1  0  0  0  0 
  3  5  1  0  0  0  0 
  3 18  1  0  0  0  0 
  4  6  2  0  0  0  0 
  4 10  1  0  0  0  0 
  5 20  1  0  0  0  0 
  6 11  1  0  0  0  0 
  7 22  1  0  0  0  0 
  7  1  2  0  0  0  0 
  8 13  1  0  0  0  0 
  8  2  2  0  0  0  0 
  9 24  1  0  0  0  0 
  9 10  1  0  0  0  0 
  9 25  1  0  0  0  0 
 10  3  2  0  0  0  0 
 11 13  1  0  0  0  0 
 11  5  2  0  0  0  0 
 12  9  1  0  0  0  0 
 13  7  1  0  0  0  0 
 14 12  2  0  0  0  0 
 15 26  1  0  0  0  0 
 15 12  1  0  0  0  0 
 19  4  1  0  0  0  0 
 21  6  1  0  0  0  0 
 23  8  1  0  0  0  0 
M  END 
>  <HBA> 
3 
 
>  <HBD> 
1 
 
>  <TPSA> 
42.23 
 
>  <cid> 
30923 
 
>  <dipole> 
4.03 
 
>  <excitation_energy_1> 
4.279 
 
>  <excitation_energy_2> 
4.351 
 
>  <excitation_energy_3> 
4.569 
 
>  <excitation_energy_4> 
4.704 
 
>  <homo_energy> 
-5.997 
 
>  <homo_lumo_gap> 
5.015 
 
>  <logP> 
2.104 
 
>  <lumo_energy> 
-0.982 
 
>  <melting_point> 
119.06 
 
>  <molecular_refractivity> 
57.31 
 
>  <oscillator_strength_1> 
0.0053 
 
>  <oscillator_strength_2> 
0.0002 
 
>  <oscillator_strength_3> 
0.0088 
 
>  <oscillator_strength_4> 
0.4902 
 
>  <open_babel_can_smiles> 
OC(=O)Cc1ccc(cc1)n1cccc1 
 
>  <mulliken_charges> 
26 
1   -0.189195 
2   -0.189307 
3   -0.178669 
4   -0.188346 
5   -0.159991 
6   -0.159805 
7   0.024314 
8   0.023953 
9   -0.455568 
10   0.087316 
11   0.325559 
12   0.586043 
13   -0.500313 
14   -0.439927 
15   -0.561806 
16   0.132265 
17   0.132435 
18   0.146446 
19   0.14577 
20   0.154236 
21   0.153832 
22   0.152373 
23   0.152291 
24   0.194808 
25   0.194657 
26   0.41663 
 
>  <lowdin_charges> 
26 
1   -0.202321 
2   -0.20039 
3   -0.153259 
4   -0.161587 
5   -0.170753 
6   -0.169605 
7   -0.158453 
8   -0.155177 
9   -0.317329 
10   -0.041378 
11   0.058305 
12   0.18962 
13   0.016516 
14   -0.243943 
15   -0.352539 
16   0.163904 
17   0.162218 
18   0.164296 
19   0.166116 
20   0.172572 
21   0.170079 
22   0.167809 
23   0.16535 
24   0.18369 
25   0.184365 
26   0.361894 
 
$$$$ 
 
