PCCDB-ID:  7520 
public computational chemistry database (PCCDB) project, http://pccdb.org 
 
 16 16  0  0  0  0  0  0  0  0999 V2000 
    4.7136   -0.1246    0.7223 C   0  0  0  0  0  0  0  0  0  0  0  0 
    3.7904    2.3701   -3.8346 C   0  0  0  0  0  0  0  0  0  0  0  0 
    3.8694    0.9765   -3.8655 C   0  0  0  0  0  0  0  0  0  0  0  0 
    3.4870    3.0234   -2.6384 C   0  0  0  0  0  0  0  0  0  0  0  0 
    3.6477    0.2361   -2.7031 C   0  0  0  0  0  0  0  0  0  0  0  0 
    3.2634    2.2861   -1.4746 C   0  0  0  0  0  0  0  0  0  0  0  0 
    3.3497    0.8878   -1.4991 C   0  0  0  0  0  0  0  0  0  0  0  0 
    3.0301   -0.0672   -0.0085 S   0  0  0  0  0  0  0  0  0  0  0  0 
    4.6299   -0.6923    1.6534 H   0  0  0  0  0  0  0  0  0  0  0  0 
    5.0787    0.8806    0.9483 H   0  0  0  0  0  0  0  0  0  0  0  0 
    5.4141   -0.6332    0.0549 H   0  0  0  0  0  0  0  0  0  0  0  0 
    3.9591    2.9451   -4.7412 H   0  0  0  0  0  0  0  0  0  0  0  0 
    4.0997    0.4638   -4.7957 H   0  0  0  0  0  0  0  0  0  0  0  0 
    3.4182    4.1078   -2.6114 H   0  0  0  0  0  0  0  0  0  0  0  0 
    3.7015   -0.8484   -2.7232 H   0  0  0  0  0  0  0  0  0  0  0  0 
    3.0172    2.7891   -0.5440 H   0  0  0  0  0  0  0  0  0  0  0  0 
  1 10  1  0  0  0  0 
  1  9  1  0  0  0  0 
  2  4  1  0  0  0  0 
  3  2  2  0  0  0  0 
  3  5  1  0  0  0  0 
  4 14  1  0  0  0  0 
  4  6  2  0  0  0  0 
  5  7  2  0  0  0  0 
  6 16  1  0  0  0  0 
  7  6  1  0  0  0  0 
  7  8  1  0  0  0  0 
  8  1  1  0  0  0  0 
 11  1  1  0  0  0  0 
 12  2  1  0  0  0  0 
 13  3  1  0  0  0  0 
 15  5  1  0  0  0  0 
M  END 
>  <HBA> 
1 
 
>  <HBD> 
0 
 
>  <TPSA> 
25.3 
 
>  <cid> 
7520 
 
>  <dipole> 
1.87 
 
>  <excitation_energy_1> 
4.428 
 
>  <excitation_energy_2> 
4.889 
 
>  <excitation_energy_3> 
5.261 
 
>  <excitation_energy_4> 
5.542 
 
>  <homo_energy> 
-6.093 
 
>  <homo_lumo_gap> 
5.63 
 
>  <logP> 
2.409 
 
>  <lumo_energy> 
-0.463 
 
>  <melting_point> 
16.13 
 
>  <molecular_refractivity> 
38.16 
 
>  <oscillator_strength_1> 
0.0004 
 
>  <oscillator_strength_2> 
0.0005 
 
>  <oscillator_strength_3> 
0.0017 
 
>  <oscillator_strength_4> 
0.0003 
 
>  <open_babel_can_smiles> 
CSc1ccccc1 
 
>  <mulliken_charges> 
16 
1   -0.575526 
2   -0.129272 
3   -0.119964 
4   -0.119998 
5   -0.140837 
6   -0.140377 
7   -0.092107 
8   0.075746 
9   0.180711 
10   0.181258 
11   0.181607 
12   0.134461 
13   0.134698 
14   0.134673 
15   0.147714 
16   0.147214 
 
>  <lowdin_charges> 
16 
1   -0.541873 
2   -0.151017 
3   -0.156071 
4   -0.153128 
5   -0.150765 
6   -0.15361 
7   -0.128161 
8   0.12061 
9   0.173847 
10   0.163447 
11   0.165496 
12   0.160286 
13   0.160518 
14   0.158142 
15   0.165107 
16   0.167172 
 
$$$$ 
 
