PCCDB-ID:  42765 
public computational chemistry database (PCCDB) project, http://pccdb.org 
 
 32 32  0  0  0  0  0  0  0  0999 V2000 
    1.2093   -1.5429    3.3390 C   0  0  0  0  0  0  0  0  0  0  0  0 
    0.8107   -0.1601    0.5282 C   0  0  0  0  0  0  0  0  0  0  0  0 
   10.6373    0.9558   -0.7344 C   0  0  0  0  0  0  0  0  0  0  0  0 
    6.8744    0.2053    1.0477 C   0  0  0  0  0  0  0  0  0  0  0  0 
    7.4652   -2.1172    1.1617 C   0  0  0  0  0  0  0  0  0  0  0  0 
    8.1013    0.5018    0.4515 C   0  0  0  0  0  0  0  0  0  0  0  0 
    8.6942   -1.8420    0.5717 C   0  0  0  0  0  0  0  0  0  0  0  0 
    5.2001   -1.4031    2.0615 C   0  0  0  0  0  0  0  0  0  0  0  0 
    6.5329   -1.1011    1.4141 C   0  0  0  0  0  0  0  0  0  0  0  0 
    9.0205   -0.5281    0.2111 C   0  0  0  0  0  0  0  0  0  0  0  0 
    2.7827   -1.1984    1.6030 C   0  0  0  0  0  0  0  0  0  0  0  0 
    2.5523   -1.2958    2.8590 N   0  0  0  0  0  0  0  0  0  0  0  0 
    1.8256   -1.2190    0.5596 N   0  0  0  0  0  0  0  0  0  0  0  0 
    4.0981   -1.0535    1.1635 N   0  0  0  0  0  0  0  0  0  0  0  0 
   10.2486   -0.3560   -0.3626 O   0  0  0  0  0  0  0  0  0  0  0  0 
    1.2718   -2.1136    4.2734 H   0  0  0  0  0  0  0  0  0  0  0  0 
    0.5863   -2.1142    2.6334 H   0  0  0  0  0  0  0  0  0  0  0  0 
    0.6774   -0.6090    3.5806 H   0  0  0  0  0  0  0  0  0  0  0  0 
    0.1937   -0.3024   -0.3642 H   0  0  0  0  0  0  0  0  0  0  0  0 
    1.2405    0.8531    0.5002 H   0  0  0  0  0  0  0  0  0  0  0  0 
    0.1564   -0.2288    1.3984 H   0  0  0  0  0  0  0  0  0  0  0  0 
   11.6371    0.8622   -1.1625 H   0  0  0  0  0  0  0  0  0  0  0  0 
   10.6767    1.6275    0.1336 H   0  0  0  0  0  0  0  0  0  0  0  0 
    9.9602    1.3815   -1.4872 H   0  0  0  0  0  0  0  0  0  0  0  0 
    6.1654    1.0091    1.2299 H   0  0  0  0  0  0  0  0  0  0  0  0 
    7.2258   -3.1424    1.4354 H   0  0  0  0  0  0  0  0  0  0  0  0 
    8.3301    1.5275    0.1849 H   0  0  0  0  0  0  0  0  0  0  0  0 
    9.4164   -2.6289    0.3772 H   0  0  0  0  0  0  0  0  0  0  0  0 
    5.0589   -0.8212    2.9770 H   0  0  0  0  0  0  0  0  0  0  0  0 
    5.1518   -2.4608    2.3629 H   0  0  0  0  0  0  0  0  0  0  0  0 
    2.2672   -1.3003   -0.3509 H   0  0  0  0  0  0  0  0  0  0  0  0 
    4.2709   -1.2894    0.1942 H   0  0  0  0  0  0  0  0  0  0  0  0 
  1 18  1  0  0  0  0 
  1 16  1  0  0  0  0 
  2 13  1  0  0  0  0 
  2 21  1  0  0  0  0 
  3 15  1  0  0  0  0 
  3 23  1  0  0  0  0 
  4 25  1  0  0  0  0 
  4  9  2  0  0  0  0 
  5  9  1  0  0  0  0 
  5 26  1  0  0  0  0 
  6  4  1  0  0  0  0 
  7  5  2  0  0  0  0 
  8 30  1  0  0  0  0 
  8 29  1  0  0  0  0 
  9  8  1  0  0  0  0 
 10  6  2  0  0  0  0 
 10  7  1  0  0  0  0 
 11 12  2  0  0  0  0 
 12  1  1  0  0  0  0 
 13 11  1  0  0  0  0 
 14 11  1  0  0  0  0 
 14  8  1  0  0  0  0 
 15 10  1  0  0  0  0 
 17  1  1  0  0  0  0 
 19  2  1  0  0  0  0 
 20  2  1  0  0  0  0 
 22  3  1  0  0  0  0 
 24  3  1  0  0  0  0 
 27  6  1  0  0  0  0 
 28  7  1  0  0  0  0 
 31 13  1  0  0  0  0 
 32 14  1  0  0  0  0 
M  END 
>  <HBA> 
4 
 
>  <HBD> 
2 
 
>  <TPSA> 
45.65 
 
>  <cid> 
42765 
 
>  <dipole> 
3.56 
 
>  <excitation_energy_1> 
4.734 
 
>  <excitation_energy_2> 
4.875 
 
>  <excitation_energy_3> 
4.979 
 
>  <excitation_energy_4> 
5.18 
 
>  <homo_energy> 
-5.486 
 
>  <homo_lumo_gap> 
5.472 
 
>  <logP> 
1.772 
 
>  <lumo_energy> 
-0.014 
 
>  <melting_point> 
83.49 
 
>  <molecular_refractivity> 
61.61 
 
>  <oscillator_strength_1> 
0.0149 
 
>  <oscillator_strength_2> 
0.0073 
 
>  <oscillator_strength_3> 
0.0195 
 
>  <oscillator_strength_4> 
0.0519 
 
>  <open_babel_can_smiles> 
CN/C(=N/C)/NCc1ccc(cc1)OC 
 
>  <mulliken_charges> 
32 
1   -0.320844 
2   -0.313363 
3   -0.214193 
4   -0.176285 
5   -0.190651 
6   -0.195663 
7   -0.172775 
8   -0.172254 
9   0.116819 
10   0.374819 
11   0.634187 
12   -0.473044 
13   -0.601542 
14   -0.618719 
15   -0.507209 
16   0.145828 
17   0.138733 
18   0.134741 
19   0.152931 
20   0.147533 
21   0.17436 
22   0.169422 
23   0.152463 
24   0.150167 
25   0.137811 
26   0.12849 
27   0.130654 
28   0.137056 
29   0.183427 
30   0.141916 
31   0.301121 
32   0.304065 
 
>  <lowdin_charges> 
32 
1   -0.359812 
2   -0.35127 
3   -0.27867 
4   -0.149537 
5   -0.156219 
6   -0.213019 
7   -0.185441 
8   -0.185817 
9   -0.036977 
10   0.101942 
11   0.11736 
12   -0.272492 
13   -0.330372 
14   -0.308898 
15   -0.200363 
16   0.146555 
17   0.136708 
18   0.136929 
19   0.154236 
20   0.136517 
21   0.162735 
22   0.161833 
23   0.145979 
24   0.14528 
25   0.163162 
26   0.156298 
27   0.160708 
28   0.167203 
29   0.170164 
30   0.13911 
31   0.260915 
32   0.265252 
 
$$$$ 
 
