PCCDB-ID:  14098 
public computational chemistry database (PCCDB) project, http://pccdb.org 
 
 19 19  0  0  0  0  0  0  0  0999 V2000 
    2.8247   -1.2686   -0.1688 C   0  0  0  0  0  0  0  0  0  0  0  0 
    2.3727   -0.0180   -0.0105 C   0  0  0  0  0  0  0  0  0  0  0  0 
    4.5506    1.2529   -0.2540 C   0  0  0  0  0  0  0  0  0  0  0  0 
    2.4942    2.4513    0.1434 C   0  0  0  0  0  0  0  0  0  0  0  0 
    5.2439    2.4536   -0.2757 C   0  0  0  0  0  0  0  0  0  0  0  0 
    3.1835    3.6594    0.1238 C   0  0  0  0  0  0  0  0  0  0  0  0 
    3.1577    1.2255   -0.0436 C   0  0  0  0  0  0  0  0  0  0  0  0 
    4.5682    3.6694   -0.0864 C   0  0  0  0  0  0  0  0  0  0  0  0 
    5.3606    4.9232   -0.1206 C   0  0  0  0  0  0  0  0  0  0  0  0 
    4.6083    6.0359    0.0904 O   0  0  0  0  0  0  0  0  0  0  0  0 
    6.5592    4.9866   -0.3138 O   0  0  0  0  0  0  0  0  0  0  0  0 
    2.1467   -2.1152   -0.1221 H   0  0  0  0  0  0  0  0  0  0  0  0 
    3.8707   -1.5017   -0.3479 H   0  0  0  0  0  0  0  0  0  0  0  0 
    1.3066    0.1240    0.1652 H   0  0  0  0  0  0  0  0  0  0  0  0 
    5.0944    0.3250   -0.4017 H   0  0  0  0  0  0  0  0  0  0  0  0 
    1.4193    2.4513    0.3070 H   0  0  0  0  0  0  0  0  0  0  0  0 
    6.3164    2.4761   -0.4382 H   0  0  0  0  0  0  0  0  0  0  0  0 
    2.6543    4.5944    0.2704 H   0  0  0  0  0  0  0  0  0  0  0  0 
    5.2316    6.7840    0.0435 H   0  0  0  0  0  0  0  0  0  0  0  0 
  1 12  1  0  0  0  0 
  1  2  2  0  0  0  0 
  2 14  1  0  0  0  0 
  3  7  1  0  0  0  0 
  4 16  1  0  0  0  0 
  5  3  2  0  0  0  0 
  5  8  1  0  0  0  0 
  6  4  1  0  0  0  0 
  6 18  1  0  0  0  0 
  7  2  1  0  0  0  0 
  7  4  2  0  0  0  0 
  8  6  2  0  0  0  0 
  9  8  1  0  0  0  0 
  9 10  1  0  0  0  0 
 11  9  2  0  0  0  0 
 13  1  1  0  0  0  0 
 15  3  1  0  0  0  0 
 17  5  1  0  0  0  0 
 19 10  1  0  0  0  0 
M  END 
>  <HBA> 
2 
 
>  <HBD> 
1 
 
>  <TPSA> 
37.3 
 
>  <cid> 
14098 
 
>  <dipole> 
2.06 
 
>  <excitation_energy_1> 
4.424 
 
>  <excitation_energy_2> 
4.543 
 
>  <excitation_energy_3> 
4.694 
 
>  <excitation_energy_4> 
5.543 
 
>  <homo_energy> 
-6.408 
 
>  <homo_lumo_gap> 
4.705 
 
>  <logP> 
2.028 
 
>  <lumo_energy> 
-1.703 
 
>  <melting_point> 
88.78 
 
>  <molecular_refractivity> 
43.49 
 
>  <oscillator_strength_1> 
0.5749 
 
>  <oscillator_strength_2> 
0.0167 
 
>  <oscillator_strength_3> 
0.0001 
 
>  <oscillator_strength_4> 
0.0631 
 
>  <open_babel_can_smiles> 
C=Cc1ccc(cc1)C(=O)O 
 
>  <mulliken_charges> 
19 
1   -0.343924 
2   -0.11707 
3   -0.189378 
4   -0.204207 
5   -0.158765 
6   -0.160588 
7   0.18256 
8   0.071663 
9   0.536335 
10   -0.584506 
11   -0.475813 
12   0.151186 
13   0.148536 
14   0.132887 
15   0.135763 
16   0.136405 
17   0.165693 
18   0.161645 
19   0.411578 
 
>  <lowdin_charges> 
19 
1   -0.317899 
2   -0.146086 
3   -0.154397 
4   -0.1582 
5   -0.124398 
6   -0.136029 
7   0.013405 
8   -0.048463 
9   0.191084 
10   -0.362344 
11   -0.27287 
12   0.167247 
13   0.158493 
14   0.15548 
15   0.161926 
16   0.158268 
17   0.176088 
18   0.174849 
19   0.363846 
 
$$$$ 
 
