PCCDB-ID:  24075 
public computational chemistry database (PCCDB) project, http://pccdb.org 
 
 25 26  0  0  1  0  0  0  0  0999 V2000 
    2.9259   -1.3622    0.4856 C   0  0  0  0  0  0  0  0  0  0  0  0 
    5.8144   -1.0687   -3.5401 C   0  0  0  0  0  0  0  0  0  0  0  0 
    2.2364    0.1093   -1.5072 C   0  0  0  0  0  0  0  0  0  0  0  0 
    3.6159    0.2595   -3.4214 C   0  0  0  0  0  0  0  0  0  0  0  0 
    2.2154    1.1047    0.8615 C   0  0  0  0  0  0  0  0  0  0  0  0 
    5.7867    1.4682   -4.0798 C   0  0  0  0  0  0  0  0  0  0  0  0 
    2.2869   -0.0828   -0.0036 C   0  0  2  0  0  0  0  0  0  0  0  0 
    5.0660    0.2043   -3.8622 C   0  0  1  0  0  0  0  0  0  0  0  0 
    3.5620    0.1506   -2.0088 O   0  0  0  0  0  0  0  0  0  0  0  0 
    1.0548    0.2878    0.6427 O   0  0  0  0  0  0  0  0  0  0  0  0 
    5.2603    0.7252   -5.1904 O   0  0  0  0  0  0  0  0  0  0  0  0 
    3.9602   -1.4287    0.1336 H   0  0  0  0  0  0  0  0  0  0  0  0 
    2.3789   -2.2319    0.1021 H   0  0  0  0  0  0  0  0  0  0  0  0 
    2.9166   -1.4071    1.5784 H   0  0  0  0  0  0  0  0  0  0  0  0 
    5.8215   -1.2422   -2.4594 H   0  0  0  0  0  0  0  0  0  0  0  0 
    6.8459   -1.0132   -3.8998 H   0  0  0  0  0  0  0  0  0  0  0  0 
    5.3296   -1.9276   -4.0198 H   0  0  0  0  0  0  0  0  0  0  0  0 
    1.6942    1.0387   -1.7407 H   0  0  0  0  0  0  0  0  0  0  0  0 
    1.6784   -0.7243   -1.9678 H   0  0  0  0  0  0  0  0  0  0  0  0 
    3.0557   -0.5674   -3.8913 H   0  0  0  0  0  0  0  0  0  0  0  0 
    3.1628    1.2026   -3.7643 H   0  0  0  0  0  0  0  0  0  0  0  0 
    2.1771    2.1005    0.4186 H   0  0  0  0  0  0  0  0  0  0  0  0 
    2.6316    1.0615    1.8682 H   0  0  0  0  0  0  0  0  0  0  0  0 
    6.8742    1.4851   -4.0054 H   0  0  0  0  0  0  0  0  0  0  0  0 
    5.2937    2.4195   -3.8771 H   0  0  0  0  0  0  0  0  0  0  0  0 
  1 14  1  0  0  0  0 
  2 15  1  0  0  0  0 
  4  9  1  0  0  0  0 
  5 23  1  0  0  0  0 
  6 24  1  0  0  0  0 
  6 25  1  0  0  0  0 
  6  8  1  0  0  0  0 
  7  3  1  6  0  0  0 
  7  1  1  0  0  0  0 
  7 10  1  0  0  0  0 
  7  5  1  0  0  0  0 
  8  2  1  1  0  0  0 
  8  4  1  0  0  0  0 
  9  3  1  0  0  0  0 
 10  5  1  0  0  0  0 
 11  6  1  0  0  0  0 
 11  8  1  0  0  0  0 
 12  1  1  0  0  0  0 
 13  1  1  0  0  0  0 
 16  2  1  0  0  0  0 
 17  2  1  0  0  0  0 
 18  3  1  0  0  0  0 
 19  3  1  0  0  0  0 
 20  4  1  0  0  0  0 
 21  4  1  0  0  0  0 
 22  5  1  0  0  0  0 
M  END 
>  <HBA> 
3 
 
>  <HBD> 
0 
 
>  <TPSA> 
34.29 
 
>  <cid> 
24075 
 
>  <dipole> 
1.61 
 
>  <excitation_energy_1> 
6.699 
 
>  <excitation_energy_2> 
6.839 
 
>  <excitation_energy_3> 
6.957 
 
>  <excitation_energy_4> 
7.134 
 
>  <homo_energy> 
-7.233 
 
>  <homo_lumo_gap> 
8.985 
 
>  <logP> 
0.581 
 
>  <lumo_energy> 
1.752 
 
>  <melting_point> 
12.46 
 
>  <molecular_refractivity> 
39.67 
 
>  <oscillator_strength_1> 
0.0162 
 
>  <oscillator_strength_2> 
0.0033 
 
>  <oscillator_strength_3> 
0.0014 
 
>  <oscillator_strength_4> 
0.0129 
 
>  <open_babel_can_smiles> 
C[C@]1(OC1)COC[C@@]1(C)OC1 
 
>  <mulliken_charges> 
25 
1   -0.476707 
2   -0.476536 
3   -0.032834 
4   -0.03252 
5   -0.120777 
6   -0.121025 
7   0.302241 
8   0.302229 
9   -0.484233 
10   -0.468379 
11   -0.468465 
12   0.168775 
13   0.154132 
14   0.156361 
15   0.168747 
16   0.156394 
17   0.15396 
18   0.132498 
19   0.129517 
20   0.129496 
21   0.132506 
22   0.148246 
23   0.149028 
24   0.14904 
25   0.148309 
 
>  <lowdin_charges> 
25 
1   -0.442619 
2   -0.44284 
3   -0.132616 
4   -0.131388 
5   -0.164019 
6   -0.163729 
7   0.102295 
8   0.102416 
9   -0.275493 
10   -0.287222 
11   -0.287269 
12   0.164556 
13   0.158458 
14   0.159248 
15   0.163874 
16   0.160204 
17   0.158477 
18   0.138876 
19   0.135159 
20   0.135277 
21   0.138739 
22   0.152098 
23   0.15305 
24   0.151675 
25   0.152794 
 
$$$$ 
 
