PCCDB-ID:  12166 
public computational chemistry database (PCCDB) project, http://pccdb.org 
 
 16 16  0  0  0  0  0  0  0  0999 V2000 
    0.8905   -0.0554    0.0980 C   0  0  0  0  0  0  0  0  0  0  0  0 
    3.1042   -1.2743   -0.0461 C   0  0  0  0  0  0  0  0  0  0  0  0 
    3.1242    1.1407    0.0994 C   0  0  0  0  0  0  0  0  0  0  0  0 
    4.4942   -1.2802   -0.1147 C   0  0  0  0  0  0  0  0  0  0  0  0 
    4.5092    1.1468    0.0329 C   0  0  0  0  0  0  0  0  0  0  0  0 
    2.3988   -0.0663    0.0577 C   0  0  0  0  0  0  0  0  0  0  0  0 
    5.1959   -0.0713   -0.0746 C   0  0  0  0  0  0  0  0  0  0  0  0 
    6.6264   -0.1817   -0.1474 N   0  0  0  0  0  0  0  0  0  0  0  0 
    7.2295    0.8830   -0.1052 O   0  0  0  0  0  0  0  0  0  0  0  0 
    0.4940   -0.9690    0.5522 H   0  0  0  0  0  0  0  0  0  0  0  0 
    0.4739    0.0114   -0.9162 H   0  0  0  0  0  0  0  0  0  0  0  0 
    0.5097    0.8024    0.6616 H   0  0  0  0  0  0  0  0  0  0  0  0 
    2.5564   -2.2129   -0.0721 H   0  0  0  0  0  0  0  0  0  0  0  0 
    2.5837    2.0804    0.1862 H   0  0  0  0  0  0  0  0  0  0  0  0 
    5.0577   -2.2054   -0.1944 H   0  0  0  0  0  0  0  0  0  0  0  0 
    5.0835    2.0670    0.0660 H   0  0  0  0  0  0  0  0  0  0  0  0 
  1 10  1  0  0  0  0 
  1 12  1  0  0  0  0 
  2  6  2  0  0  0  0 
  3 14  1  0  0  0  0 
  4  7  2  0  0  0  0 
  4  2  1  0  0  0  0 
  5 16  1  0  0  0  0 
  5  3  2  0  0  0  0 
  6  1  1  0  0  0  0 
  6  3  1  0  0  0  0 
  7  5  1  0  0  0  0 
  8  9  1  0  0  0  0 
  8  7  1  0  0  0  0 
 11  1  1  0  0  0  0 
 13  2  1  0  0  0  0 
 15  4  1  0  0  0  0 
M  RAD  2   8   2   9   2 
M  END 
>  <HBA> 
2 
 
>  <HBD> 
0 
 
>  <TPSA> 
29.43 
 
>  <cid> 
12166 
 
>  <dipole> 
4.42 
 
>  <excitation_energy_1> 
1.535 
 
>  <excitation_energy_2> 
3.956 
 
>  <excitation_energy_3> 
4.299 
 
>  <excitation_energy_4> 
4.392 
 
>  <homo_energy> 
-5.826 
 
>  <homo_lumo_gap> 
3.268 
 
>  <logP> 
2.393 
 
>  <lumo_energy> 
-2.558 
 
>  <melting_point> 
35.24 
 
>  <molecular_refractivity> 
36.86 
 
>  <oscillator_strength_1> 
0.0003 
 
>  <oscillator_strength_2> 
0.0196 
 
>  <oscillator_strength_3> 
0.3048 
 
>  <oscillator_strength_4> 
0.0001 
 
>  <open_babel_can_smiles> 
[O][N]c1ccc(cc1)C 
 
>  <mulliken_charges> 
16 
1   -0.533369 
2   -0.1894 
3   -0.18959 
4   -0.121364 
5   -0.118161 
6   0.19012 
7   0.210745 
8   -0.059579 
9   -0.291675 
10   0.16602 
11   0.177343 
12   0.166081 
13   0.136921 
14   0.137623 
15   0.155322 
16   0.162963 
 
>  <lowdin_charges> 
16 
1   -0.4433 
2   -0.167263 
3   -0.160966 
4   -0.12764 
5   -0.131653 
6   0.029493 
7   -0.027054 
8   0.042854 
9   -0.186519 
10   0.163879 
11   0.169151 
12   0.164168 
13   0.161843 
14   0.161402 
15   0.174109 
16   0.177497 
 
$$$$ 
 
