PCCDB-ID:  69860 
public computational chemistry database (PCCDB) project, http://pccdb.org 
 
 19 19  0  0  0  0  0  0  0  0999 V2000 
    1.0328   -0.0100    0.4882 C   0  0  0  0  0  0  0  0  0  0  0  0 
    4.4613    2.5050   -1.8651 C   0  0  0  0  0  0  0  0  0  0  0  0 
    4.5053   -1.1383   -0.6767 C   0  0  0  0  0  0  0  0  0  0  0  0 
    3.1131   -1.2071   -0.0886 C   0  0  0  0  0  0  0  0  0  0  0  0 
    4.9522    0.1420   -1.3476 C   0  0  0  0  0  0  0  0  0  0  0  0 
    2.8110    1.1848   -0.6622 C   0  0  0  0  0  0  0  0  0  0  0  0 
    2.3782   -0.0243   -0.1030 N   0  0  0  0  0  0  0  0  0  0  0  0 
    4.0746    1.2202   -1.2657 N   0  0  0  0  0  0  0  0  0  0  0  0 
    2.6760   -2.2399    0.3832 O   0  0  0  0  0  0  0  0  0  0  0  0 
    6.0281    0.2192   -1.9104 O   0  0  0  0  0  0  0  0  0  0  0  0 
    2.1046    2.1756   -0.6323 O   0  0  0  0  0  0  0  0  0  0  0  0 
    0.8405   -1.0087    0.8740 H   0  0  0  0  0  0  0  0  0  0  0  0 
    0.2946    0.2559   -0.2714 H   0  0  0  0  0  0  0  0  0  0  0  0 
    0.9885    0.7282    1.2916 H   0  0  0  0  0  0  0  0  0  0  0  0 
    5.4549    2.3757   -2.2887 H   0  0  0  0  0  0  0  0  0  0  0  0 
    4.4673    3.2842   -1.1002 H   0  0  0  0  0  0  0  0  0  0  0  0 
    3.7466    2.7840   -2.6422 H   0  0  0  0  0  0  0  0  0  0  0  0 
    4.6156   -1.9579   -1.3940 H   0  0  0  0  0  0  0  0  0  0  0  0 
    5.2182   -1.3599    0.1272 H   0  0  0  0  0  0  0  0  0  0  0  0 
  1 12  1  0  0  0  0 
  1 14  1  0  0  0  0 
  2  8  1  0  0  0  0 
  2 16  1  0  0  0  0 
  3  4  1  0  0  0  0 
  3 19  1  0  0  0  0 
  4  9  2  0  0  0  0 
  5  8  1  0  0  0  0 
  5  3  1  0  0  0  0 
  6 11  2  0  0  0  0 
  6  7  1  0  0  0  0 
  7  4  1  0  0  0  0 
  7  1  1  0  0  0  0 
  8  6  1  0  0  0  0 
 10  5  2  0  0  0  0 
 13  1  1  0  0  0  0 
 15  2  1  0  0  0  0 
 17  2  1  0  0  0  0 
 18  3  1  0  0  0  0 
M  END 
>  <HBA> 
5 
 
>  <HBD> 
0 
 
>  <TPSA> 
57.69 
 
>  <cid> 
69860 
 
>  <dipole> 
0.74 
 
>  <excitation_energy_1> 
4.629 
 
>  <excitation_energy_2> 
5.328 
 
>  <excitation_energy_3> 
5.55 
 
>  <excitation_energy_4> 
5.763 
 
>  <homo_energy> 
-7.197 
 
>  <homo_lumo_gap> 
5.959 
 
>  <logP> 
-0.697 
 
>  <lumo_energy> 
-1.238 
 
>  <melting_point> 
75.79 
 
>  <molecular_refractivity> 
43.45 
 
>  <oscillator_strength_1> 
0.0001 
 
>  <oscillator_strength_2> 
0.0008 
 
>  <oscillator_strength_3> 
0.106 
 
>  <oscillator_strength_4> 
0.0 
 
>  <open_babel_can_smiles> 
CN1C(=O)CC(=O)N(C1=O)C 
 
>  <mulliken_charges> 
19 
1   -0.322727 
2   -0.322612 
3   -0.49344 
4   0.627907 
5   0.628142 
6   0.792277 
7   -0.528232 
8   -0.528404 
9   -0.481778 
10   -0.481892 
11   -0.492147 
12   0.204296 
13   0.184098 
14   0.184332 
15   0.204304 
16   0.184381 
17   0.183983 
18   0.228659 
19   0.228852 
 
>  <lowdin_charges> 
19 
1   -0.348647 
2   -0.349236 
3   -0.325597 
4   0.168332 
5   0.165271 
6   0.198327 
7   -0.088558 
8   -0.087657 
9   -0.263461 
10   -0.262457 
11   -0.274128 
12   0.184405 
13   0.170929 
14   0.170735 
15   0.184387 
16   0.17108 
17   0.170711 
18   0.207317 
19   0.208246 
 
$$$$ 
 
