PCCDB-ID:  8071 
public computational chemistry database (PCCDB) project, http://pccdb.org 
 
 16 15  0  0  0  0  0  0  0  0999 V2000 
    2.3462   -0.6061    0.8647 C   0  0  0  0  0  0  0  0  0  0  0  0 
    5.0039    2.9693   -3.1006 C   0  0  0  0  0  0  0  0  0  0  0  0 
    3.0455    0.9205   -0.7795 C   0  0  0  0  0  0  0  0  0  0  0  0 
    4.3044    1.4402   -1.4588 C   0  0  0  0  0  0  0  0  0  0  0  0 
    3.4404   -0.0474    0.1712 O   0  0  0  0  0  0  0  0  0  0  0  0 
    3.9099    2.4127   -2.4048 O   0  0  0  0  0  0  0  0  0  0  0  0 
    2.7497   -1.3321    1.5754 H   0  0  0  0  0  0  0  0  0  0  0  0 
    1.6515   -1.1220    0.1818 H   0  0  0  0  0  0  0  0  0  0  0  0 
    1.7794    0.1598    1.4186 H   0  0  0  0  0  0  0  0  0  0  0  0 
    4.6012    3.7041   -3.8026 H   0  0  0  0  0  0  0  0  0  0  0  0 
    5.5616    2.2038   -3.6645 H   0  0  0  0  0  0  0  0  0  0  0  0 
    5.7066    3.4743   -2.4180 H   0  0  0  0  0  0  0  0  0  0  0  0 
    2.3690    0.4847   -1.5334 H   0  0  0  0  0  0  0  0  0  0  0  0 
    2.5111    1.7563   -0.2986 H   0  0  0  0  0  0  0  0  0  0  0  0 
    4.8365    0.6054   -1.9441 H   0  0  0  0  0  0  0  0  0  0  0  0 
    4.9828    1.8714   -0.7039 H   0  0  0  0  0  0  0  0  0  0  0  0 
  1  9  1  0  0  0  0 
  1  7  1  0  0  0  0 
  2 12  1  0  0  0  0 
  2  6  1  0  0  0  0 
  3 14  1  0  0  0  0 
  3  5  1  0  0  0  0 
  4  3  1  0  0  0  0 
  4 16  1  0  0  0  0 
  5  1  1  0  0  0  0 
  6  4  1  0  0  0  0 
  8  1  1  0  0  0  0 
 10  2  1  0  0  0  0 
 11  2  1  0  0  0  0 
 13  3  1  0  0  0  0 
 15  4  1  0  0  0  0 
M  END 
>  <HBA> 
2 
 
>  <HBD> 
0 
 
>  <TPSA> 
18.46 
 
>  <cid> 
8071 
 
>  <dipole> 
0.01 
 
>  <excitation_energy_1> 
6.609 
 
>  <excitation_energy_2> 
6.663 
 
>  <excitation_energy_3> 
6.994 
 
>  <excitation_energy_4> 
7.053 
 
>  <homo_energy> 
-6.827 
 
>  <homo_lumo_gap> 
9.165 
 
>  <logP> 
0.279 
 
>  <lumo_energy> 
2.337 
 
>  <melting_point> 
-43.13 
 
>  <molecular_refractivity> 
23.51 
 
>  <oscillator_strength_1> 
0.0421 
 
>  <oscillator_strength_2> 
0.0 
 
>  <oscillator_strength_3> 
0.0 
 
>  <oscillator_strength_4> 
0.016 
 
>  <open_babel_can_smiles> 
COCCOC 
 
>  <mulliken_charges> 
16 
1   -0.189519 
2   -0.189474 
3   -0.024343 
4   -0.024365 
5   -0.466566 
6   -0.466567 
7   0.158057 
8   0.130968 
9   0.130957 
10   0.158051 
11   0.130952 
12   0.130932 
13   0.13008 
14   0.130384 
15   0.130201 
16   0.130253 
 
>  <lowdin_charges> 
16 
1   -0.282677 
2   -0.282637 
3   -0.136302 
4   -0.136297 
5   -0.270473 
6   -0.270471 
7   0.156058 
8   0.133617 
9   0.133676 
10   0.156051 
11   0.133642 
12   0.133613 
13   0.133065 
14   0.133038 
15   0.132966 
16   0.133131 
 
$$$$ 
 
