PCCDB-ID:  15833 
public computational chemistry database (PCCDB) project, http://pccdb.org 
 
 26 26  0  0  0  0  0  0  0  0999 V2000 
    0.3527   -4.8430   -0.8623 C   0  0  0  0  0  0  0  0  0  0  0  0 
    1.6758   -4.5817   -1.2313 C   0  0  0  0  0  0  0  0  0  0  0  0 
   -0.3677   -3.8745   -0.1630 C   0  0  0  0  0  0  0  0  0  0  0  0 
    3.4100   -0.6752    0.0372 C   0  0  0  0  0  0  0  0  0  0  0  0 
    2.2723   -3.3676   -0.9041 C   0  0  0  0  0  0  0  0  0  0  0  0 
    0.2317   -2.6593    0.1644 C   0  0  0  0  0  0  0  0  0  0  0  0 
    2.1420   -1.0843    0.1881 C   0  0  0  0  0  0  0  0  0  0  0  0 
    3.9051    0.6896    0.4202 C   0  0  0  0  0  0  0  0  0  0  0  0 
    1.5627   -2.3814   -0.1934 C   0  0  0  0  0  0  0  0  0  0  0  0 
    5.6847    1.7359    1.7452 C   0  0  0  0  0  0  0  0  0  0  0  0 
    5.3703    2.8704    1.2333 N   0  0  0  0  0  0  0  0  0  0  0  0 
    6.7615    1.4515    2.6070 N   0  0  0  0  0  0  0  0  0  0  0  0 
    4.9457    0.5989    1.4509 N   0  0  0  0  0  0  0  0  0  0  0  0 
   -0.1110   -5.7907   -1.1221 H   0  0  0  0  0  0  0  0  0  0  0  0 
    2.2435   -5.3269   -1.7825 H   0  0  0  0  0  0  0  0  0  0  0  0 
   -1.3979   -4.0635    0.1273 H   0  0  0  0  0  0  0  0  0  0  0  0 
    4.1513   -1.3415   -0.4074 H   0  0  0  0  0  0  0  0  0  0  0  0 
    3.2972   -3.1808   -1.2116 H   0  0  0  0  0  0  0  0  0  0  0  0 
   -0.3355   -1.9086    0.7103 H   0  0  0  0  0  0  0  0  0  0  0  0 
    1.4388   -0.3899    0.6496 H   0  0  0  0  0  0  0  0  0  0  0  0 
    3.0870    1.3061    0.8060 H   0  0  0  0  0  0  0  0  0  0  0  0 
    4.2979    1.2161   -0.4638 H   0  0  0  0  0  0  0  0  0  0  0  0 
    5.9415    3.6200    1.6274 H   0  0  0  0  0  0  0  0  0  0  0  0 
    7.1932    2.2829    2.9929 H   0  0  0  0  0  0  0  0  0  0  0  0 
    6.5266    0.7928    3.3432 H   0  0  0  0  0  0  0  0  0  0  0  0 
    5.5003   -0.2485    1.4124 H   0  0  0  0  0  0  0  0  0  0  0  0 
  1  3  2  0  0  0  0 
  2  5  2  0  0  0  0 
  2  1  1  0  0  0  0 
  3 16  1  0  0  0  0 
  3  6  1  0  0  0  0 
  4  7  2  0  0  0  0 
  4  8  1  0  0  0  0 
  5  9  1  0  0  0  0 
  6 19  1  0  0  0  0 
  7 20  1  0  0  0  0 
  8 21  1  0  0  0  0 
  8 13  1  0  0  0  0 
  9  6  2  0  0  0  0 
  9  7  1  0  0  0  0 
 10 12  2  0  0  0  0 
 11 23  1  0  0  0  0 
 11 10  1  0  0  0  0 
 12 24  1  0  0  0  0 
 12 25  1  0  0  0  0 
 13 10  1  0  0  0  0 
 14  1  1  0  0  0  0 
 15  2  1  0  0  0  0 
 17  4  1  0  0  0  0 
 18  5  1  0  0  0  0 
 22  8  1  0  0  0  0 
 26 13  1  0  0  0  0 
M  RAD  1  11   2 
M  END 
>  <HBA> 
3 
 
>  <HBD> 
2 
 
>  <TPSA> 
64.4 
 
>  <cid> 
15833 
 
>  <dipole> 
2.66 
 
>  <excitation_energy_1> 
4.54 
 
>  <excitation_energy_2> 
4.705 
 
>  <excitation_energy_3> 
4.843 
 
>  <excitation_energy_4> 
5.305 
 
>  <homo_energy> 
-5.938 
 
>  <homo_lumo_gap> 
5.064 
 
>  <logP> 
2.374 
 
>  <lumo_energy> 
-0.873 
 
>  <melting_point> 
151.87 
 
>  <molecular_refractivity> 
55.25 
 
>  <oscillator_strength_1> 
0.1067 
 
>  <oscillator_strength_2> 
0.2632 
 
>  <oscillator_strength_3> 
0.1871 
 
>  <oscillator_strength_4> 
0.0006 
 
>  <open_babel_can_smiles> 
[NH]C(=[NH2])NC/C=C/c1ccccc1 
 
>  <mulliken_charges> 
26 
1   -0.129424 
2   -0.129612 
3   -0.129181 
4   -0.134729 
5   -0.182732 
6   -0.195819 
7   -0.168474 
8   -0.135781 
9   0.17532 
10   0.584095 
11   -0.645078 
12   -0.757068 
13   -0.60421 
14   0.130115 
15   0.130129 
16   0.130866 
17   0.125085 
18   0.127083 
19   0.129527 
20   0.128587 
21   0.165644 
22   0.166951 
23   0.263441 
24   0.317462 
25   0.321572 
26   0.316231 
 
>  <lowdin_charges> 
26 
1   -0.157301 
2   -0.155273 
3   -0.15342 
4   -0.170584 
5   -0.155102 
6   -0.161076 
7   -0.156263 
8   -0.18189 
9   -0.002349 
10   0.121927 
11   -0.480246 
12   -0.517107 
13   -0.312854 
14   0.158176 
15   0.159144 
16   0.157186 
17   0.14851 
18   0.154994 
19   0.158087 
20   0.156731 
21   0.159956 
22   0.155381 
23   0.247455 
24   0.274964 
25   0.277916 
26   0.27304 
 
$$$$ 
 
