PCCDB-ID:  25074 
public computational chemistry database (PCCDB) project, http://pccdb.org 
 
 27 27  0  0  0  0  0  0  0  0999 V2000 
    0.6470    0.7567   -0.7784 C   0  0  0  0  0  0  0  0  0  0  0  0 
    7.6373    3.3681    0.2186 C   0  0  0  0  0  0  0  0  0  0  0  0 
    4.5989   -0.4548    0.5208 C   0  0  0  0  0  0  0  0  0  0  0  0 
    3.5179   -1.3242    0.6433 C   0  0  0  0  0  0  0  0  0  0  0  0 
    3.1163    1.1926   -0.4555 C   0  0  0  0  0  0  0  0  0  0  0  0 
    1.2126   -3.0320    0.0568 C   0  0  0  0  0  0  0  0  0  0  0  0 
    2.0227    0.3339   -0.3279 C   0  0  0  0  0  0  0  0  0  0  0  0 
    4.3868    0.7988   -0.0438 C   0  0  0  0  0  0  0  0  0  0  0  0 
    2.2341   -0.9531    0.2139 C   0  0  0  0  0  0  0  0  0  0  0  0 
    6.5662    1.5206   -0.7743 C   0  0  0  0  0  0  0  0  0  0  0  0 
    7.6082    2.2288   -0.6832 N   0  0  0  0  0  0  0  0  0  0  0  0 
    1.1194   -1.8040    0.3647 N   0  0  0  0  0  0  0  0  0  0  0  0 
    0.2019   -3.8987    0.2459 O   0  0  0  0  0  0  0  0  0  0  0  0 
    6.5047    0.4470   -1.5961 O   0  0  0  0  0  0  0  0  0  0  0  0 
    5.4026    1.7556   -0.1124 O   0  0  0  0  0  0  0  0  0  0  0  0 
    0.6243    1.8219   -1.0270 H   0  0  0  0  0  0  0  0  0  0  0  0 
   -0.0973    0.5592    0.0005 H   0  0  0  0  0  0  0  0  0  0  0  0 
    0.3259    0.1958   -1.6652 H   0  0  0  0  0  0  0  0  0  0  0  0 
    8.6143    3.4034    0.7133 H   0  0  0  0  0  0  0  0  0  0  0  0 
    6.8536    3.3481    0.9861 H   0  0  0  0  0  0  0  0  0  0  0  0 
    7.5313    4.2999   -0.3527 H   0  0  0  0  0  0  0  0  0  0  0  0 
    5.5865   -0.7421    0.8656 H   0  0  0  0  0  0  0  0  0  0  0  0 
    3.6599   -2.2935    1.1133 H   0  0  0  0  0  0  0  0  0  0  0  0 
    2.9876    2.1864   -0.8739 H   0  0  0  0  0  0  0  0  0  0  0  0 
    2.0783   -3.5275   -0.3907 H   0  0  0  0  0  0  0  0  0  0  0  0 
   -0.5262   -3.3889    0.6503 H   0  0  0  0  0  0  0  0  0  0  0  0 
    7.3839    0.4077   -2.0124 H   0  0  0  0  0  0  0  0  0  0  0  0 
  1  7  1  0  0  0  0 
  1 17  1  0  0  0  0 
  2 19  1  0  0  0  0 
  2 20  1  0  0  0  0 
  3  4  1  0  0  0  0 
  3 22  1  0  0  0  0 
  4 23  1  0  0  0  0 
  5  7  2  0  0  0  0 
  5  8  1  0  0  0  0 
  6 13  1  0  0  0  0 
  6 12  2  0  0  0  0 
  7  9  1  0  0  0  0 
  8  3  2  0  0  0  0 
  9 12  1  0  0  0  0 
  9  4  2  0  0  0  0 
 10 11  2  0  0  0  0 
 10 15  1  0  0  0  0 
 11  2  1  0  0  0  0 
 13 26  1  0  0  0  0 
 14 10  1  0  0  0  0 
 15  8  1  0  0  0  0 
 16  1  1  0  0  0  0 
 18  1  1  0  0  0  0 
 21  2  1  0  0  0  0 
 24  5  1  0  0  0  0 
 25  6  1  0  0  0  0 
 27 14  1  0  0  0  0 
M  END 
>  <HBA> 
5 
 
>  <HBD> 
2 
 
>  <TPSA> 
67.43 
 
>  <cid> 
25074 
 
>  <dipole> 
1.6 
 
>  <excitation_energy_1> 
4.676 
 
>  <excitation_energy_2> 
4.843 
 
>  <excitation_energy_3> 
5.438 
 
>  <excitation_energy_4> 
5.511 
 
>  <homo_energy> 
-5.88 
 
>  <homo_lumo_gap> 
5.374 
 
>  <logP> 
2.381 
 
>  <lumo_energy> 
-0.506 
 
>  <melting_point> 
128.45 
 
>  <molecular_refractivity> 
55.99 
 
>  <oscillator_strength_1> 
0.2385 
 
>  <oscillator_strength_2> 
0.0353 
 
>  <oscillator_strength_3> 
0.0619 
 
>  <oscillator_strength_4> 
0.0078 
 
>  <open_babel_can_smiles> 
O/C=N/c1ccc(cc1C)O/C(=N\C)/O 
 
>  <mulliken_charges> 
27 
1   -0.518902 
2   -0.323342 
3   -0.1553 
4   -0.172223 
5   -0.238867 
6   0.285537 
7   0.147468 
8   0.367075 
9   0.21407 
10   0.702784 
11   -0.481705 
12   -0.495159 
13   -0.550315 
14   -0.59174 
15   -0.537896 
16   0.150461 
17   0.172382 
18   0.162422 
19   0.152718 
20   0.153035 
21   0.153632 
22   0.141922 
23   0.132936 
24   0.137 
25   0.158062 
26   0.411552 
27   0.422392 
 
>  <lowdin_charges> 
27 
1   -0.438495 
2   -0.353844 
3   -0.170809 
4   -0.175017 
5   -0.176646 
6   0.02475 
7   -0.001872 
8   0.096989 
9   0.02986 
10   0.190185 
11   -0.263687 
12   -0.201381 
13   -0.346099 
14   -0.361956 
15   -0.159762 
16   0.153511 
17   0.168099 
18   0.162413 
19   0.150861 
20   0.144601 
21   0.150879 
22   0.167888 
23   0.159468 
24   0.166167 
25   0.150963 
26   0.361893 
27   0.371041 
 
$$$$ 
 
