PCCDB-ID:  22597 
public computational chemistry database (PCCDB) project, http://pccdb.org 
 
 33 33  0  0  0  0  0  0  0  0999 V2000 
    7.3199    4.0018    2.5762 C   0  0  0  0  0  0  0  0  0  0  0  0 
    8.0544    2.6687    2.7654 C   0  0  0  0  0  0  0  0  0  0  0  0 
    7.3173    1.4447    2.1950 C   0  0  0  0  0  0  0  0  0  0  0  0 
    5.9979    1.1111    2.9092 C   0  0  0  0  0  0  0  0  0  0  0  0 
    6.3560   -8.5438    1.6968 C   0  0  0  0  0  0  0  0  0  0  0  0 
    7.1931   -7.5456    2.2091 C   0  0  0  0  0  0  0  0  0  0  0  0 
    5.1016   -8.2046    1.1888 C   0  0  0  0  0  0  0  0  0  0  0  0 
    5.2421   -0.0970    2.3294 C   0  0  0  0  0  0  0  0  0  0  0  0 
    6.7846   -6.2161    2.2164 C   0  0  0  0  0  0  0  0  0  0  0  0 
    4.6851   -6.8738    1.1931 C   0  0  0  0  0  0  0  0  0  0  0  0 
    5.9608   -1.4241    2.5378 C   0  0  0  0  0  0  0  0  0  0  0  0 
    5.5210   -5.8745    1.7049 C   0  0  0  0  0  0  0  0  0  0  0  0 
    4.9837   -4.5576    1.6555 N   0  0  0  0  0  0  0  0  0  0  0  0 
    5.7368   -3.6810    2.1077 N   0  0  0  0  0  0  0  0  0  0  0  0 
    5.1039   -2.4508    2.0060 O   0  0  0  0  0  0  0  0  0  0  0  0 
    7.9238    4.8379    2.9469 H   0  0  0  0  0  0  0  0  0  0  0  0 
    6.3650    4.0255    3.1128 H   0  0  0  0  0  0  0  0  0  0  0  0 
    7.1095    4.1885    1.5156 H   0  0  0  0  0  0  0  0  0  0  0  0 
    8.2494    2.5068    3.8353 H   0  0  0  0  0  0  0  0  0  0  0  0 
    9.0398    2.7366    2.2854 H   0  0  0  0  0  0  0  0  0  0  0  0 
    7.9929    0.5804    2.2479 H   0  0  0  0  0  0  0  0  0  0  0  0 
    7.1160    1.6091    1.1258 H   0  0  0  0  0  0  0  0  0  0  0  0 
    5.3287    1.9788    2.8623 H   0  0  0  0  0  0  0  0  0  0  0  0 
    6.1968    0.9400    3.9779 H   0  0  0  0  0  0  0  0  0  0  0  0 
    6.6833   -9.5799    1.6959 H   0  0  0  0  0  0  0  0  0  0  0  0 
    8.1706   -7.8085    2.6047 H   0  0  0  0  0  0  0  0  0  0  0  0 
    4.4472   -8.9741    0.7888 H   0  0  0  0  0  0  0  0  0  0  0  0 
    5.0677    0.0476    1.2553 H   0  0  0  0  0  0  0  0  0  0  0  0 
    4.2533   -0.1695    2.7992 H   0  0  0  0  0  0  0  0  0  0  0  0 
    7.4280   -5.4379    2.6115 H   0  0  0  0  0  0  0  0  0  0  0  0 
    3.7143   -6.5829    0.8043 H   0  0  0  0  0  0  0  0  0  0  0  0 
    6.1383   -1.6129    3.6049 H   0  0  0  0  0  0  0  0  0  0  0  0 
    6.9248   -1.4579    2.0181 H   0  0  0  0  0  0  0  0  0  0  0  0 
  1  2  1  0  0  0  0 
  1 16  1  0  0  0  0 
  1 17  1  0  0  0  0 
  2 19  1  0  0  0  0 
  3 21  1  0  0  0  0 
  3  2  1  0  0  0  0 
  3  4  1  0  0  0  0 
  4 24  1  0  0  0  0 
  5  6  2  0  0  0  0 
  6  9  1  0  0  0  0 
  6 26  1  0  0  0  0 
  7 10  2  0  0  0  0 
  7  5  1  0  0  0  0 
  8 11  1  0  0  0  0 
  8 29  1  0  0  0  0 
  8  4  1  0  0  0  0 
  9 30  1  0  0  0  0 
 10 12  1  0  0  0  0 
 11 32  1  0  0  0  0 
 12  9  2  0  0  0  0 
 13 12  1  0  0  0  0 
 13 14  1  0  0  0  0 
 15 14  1  0  0  0  0 
 15 11  1  0  0  0  0 
 18  1  1  0  0  0  0 
 20  2  1  0  0  0  0 
 22  3  1  0  0  0  0 
 23  4  1  0  0  0  0 
 25  5  1  0  0  0  0 
 27  7  1  0  0  0  0 
 28  8  1  0  0  0  0 
 31 10  1  0  0  0  0 
 33 11  1  0  0  0  0 
M  RAD  2  13   2  14   2 
M  END 
>  <HBA> 
3 
 
>  <HBD> 
0 
 
>  <TPSA> 
33.95 
 
>  <cid> 
22597 
 
>  <dipole> 
1.61 
 
>  <excitation_energy_1> 
3.811 
 
>  <excitation_energy_2> 
4.369 
 
>  <excitation_energy_3> 
4.509 
 
>  <excitation_energy_4> 
5.628 
 
>  <homo_energy> 
-6.346 
 
>  <homo_lumo_gap> 
4.795 
 
>  <logP> 
4.282 
 
>  <lumo_energy> 
-1.551 
 
>  <melting_point> 
16.29 
 
>  <molecular_refractivity> 
61.94 
 
>  <oscillator_strength_1> 
0.0 
 
>  <oscillator_strength_2> 
0.4533 
 
>  <oscillator_strength_3> 
0.0185 
 
>  <oscillator_strength_4> 
0.1582 
 
>  <open_babel_can_smiles> 
CCCCCCO[N][N]c1ccccc1 
 
>  <mulliken_charges> 
33 
1   -0.444311 
2   -0.24947 
3   -0.253911 
4   -0.266699 
5   -0.119857 
6   -0.144288 
7   -0.137917 
8   -0.283605 
9   -0.132728 
10   -0.140757 
11   -0.005981 
12   0.255532 
13   -0.290403 
14   0.063297 
15   -0.37265 
16   0.144021 
17   0.146572 
18   0.142147 
19   0.130675 
20   0.133004 
21   0.131539 
22   0.130481 
23   0.142403 
24   0.130182 
25   0.133932 
26   0.135573 
27   0.135973 
28   0.149536 
29   0.151425 
30   0.151477 
31   0.147651 
32   0.140173 
33   0.146984 
 
>  <lowdin_charges> 
33 
1   -0.4468 
2   -0.270585 
3   -0.277746 
4   -0.275685 
5   -0.149594 
6   -0.150768 
7   -0.155987 
8   -0.280182 
9   -0.161873 
10   -0.148435 
11   -0.137152 
12   0.017097 
13   -0.097842 
14   0.019003 
15   -0.174538 
16   0.151689 
17   0.146971 
18   0.145278 
19   0.137537 
20   0.142394 
21   0.140601 
22   0.1375 
23   0.148087 
24   0.137377 
25   0.158901 
26   0.159582 
27   0.162415 
28   0.148784 
29   0.153166 
30   0.171131 
31   0.169898 
32   0.137703 
33   0.142073 
 
$$$$ 
 
