PCCDB-ID:  10722 
public computational chemistry database (PCCDB) project, http://pccdb.org 
 
 17 17  0  0  0  0  0  0  0  0999 V2000 
    0.9721   -0.0916    0.1775 C   0  0  0  0  0  0  0  0  0  0  0  0 
    4.6078   -1.2203   -0.0674 C   0  0  0  0  0  0  0  0  0  0  0  0 
    5.3059   -0.0157   -0.1587 C   0  0  0  0  0  0  0  0  0  0  0  0 
    3.2153   -1.2211    0.0398 C   0  0  0  0  0  0  0  0  0  0  0  0 
    4.5906    1.1770   -0.1417 C   0  0  0  0  0  0  0  0  0  0  0  0 
    2.5396    2.5138   -0.0240 C   0  0  0  0  0  0  0  0  0  0  0  0 
    2.4749   -0.0342    0.0592 C   0  0  0  0  0  0  0  0  0  0  0  0 
    3.1908    1.1864   -0.0341 C   0  0  0  0  0  0  0  0  0  0  0  0 
    1.3458    2.7367    0.0667 O   0  0  0  0  0  0  0  0  0  0  0  0 
    0.6341   -1.1321    0.2163 H   0  0  0  0  0  0  0  0  0  0  0  0 
    0.4823    0.4077   -0.6642 H   0  0  0  0  0  0  0  0  0  0  0  0 
    0.6203    0.4264    1.0755 H   0  0  0  0  0  0  0  0  0  0  0  0 
    5.1457   -2.1647   -0.0786 H   0  0  0  0  0  0  0  0  0  0  0  0 
    6.3887   -0.0082   -0.2421 H   0  0  0  0  0  0  0  0  0  0  0  0 
    2.6866   -2.1686    0.1098 H   0  0  0  0  0  0  0  0  0  0  0  0 
    5.1157    2.1276   -0.2122 H   0  0  0  0  0  0  0  0  0  0  0  0 
    3.2585    3.3605   -0.1102 H   0  0  0  0  0  0  0  0  0  0  0  0 
  1 10  1  0  0  0  0 
  1 12  1  0  0  0  0 
  2  4  2  0  0  0  0 
  3  5  2  0  0  0  0 
  3  2  1  0  0  0  0 
  4  7  1  0  0  0  0 
  4 15  1  0  0  0  0 
  5  8  1  0  0  0  0 
  6  9  2  0  0  0  0 
  7  1  1  0  0  0  0 
  8  6  1  0  0  0  0 
  8  7  2  0  0  0  0 
 11  1  1  0  0  0  0 
 13  2  1  0  0  0  0 
 14  3  1  0  0  0  0 
 16  5  1  0  0  0  0 
 17  6  1  0  0  0  0 
M  END 
>  <HBA> 
1 
 
>  <HBD> 
0 
 
>  <TPSA> 
17.07 
 
>  <cid> 
10722 
 
>  <dipole> 
2.98 
 
>  <excitation_energy_1> 
3.648 
 
>  <excitation_energy_2> 
4.521 
 
>  <excitation_energy_3> 
5.16 
 
>  <excitation_energy_4> 
5.577 
 
>  <homo_energy> 
-6.795 
 
>  <homo_lumo_gap> 
5.162 
 
>  <logP> 
1.808 
 
>  <lumo_energy> 
-1.633 
 
>  <melting_point> 
41.92 
 
>  <molecular_refractivity> 
36.8 
 
>  <oscillator_strength_1> 
0.0001 
 
>  <oscillator_strength_2> 
0.0405 
 
>  <oscillator_strength_3> 
0.2156 
 
>  <oscillator_strength_4> 
0.0001 
 
>  <open_babel_can_smiles> 
O=Cc1ccccc1C 
 
>  <mulliken_charges> 
17 
1   -0.506309 
2   -0.113299 
3   -0.133948 
4   -0.185631 
5   -0.187607 
6   0.180819 
7   0.132408 
8   0.07182 
9   -0.416741 
10   0.141935 
11   0.180462 
12   0.179605 
13   0.139593 
14   0.138104 
15   0.132904 
16   0.14112 
17   0.104764 
 
>  <lowdin_charges> 
17 
1   -0.440287 
2   -0.133652 
3   -0.160465 
4   -0.166828 
5   -0.139471 
6   0.039858 
7   0.034085 
8   -0.062526 
9   -0.230156 
10   0.149147 
11   0.174366 
12   0.17357 
13   0.162783 
14   0.159966 
15   0.159453 
16   0.161336 
17   0.118822 
 
$$$$ 
 
