PCCDB-ID:  26707 
public computational chemistry database (PCCDB) project, http://pccdb.org 
 
 30 32  0  0  0  0  0  0  0  0999 V2000 
   -1.4392    0.5938    0.1735 C   0  0  0  0  0  0  0  0  0  0  0  0 
    9.7495    0.7884   -0.6735 C   0  0  0  0  0  0  0  0  0  0  0  0 
   -0.7286    1.7667    0.4322 C   0  0  0  0  0  0  0  0  0  0  0  0 
   -0.7537   -0.5642   -0.2093 C   0  0  0  0  0  0  0  0  0  0  0  0 
    9.0751   -0.4372   -0.6894 C   0  0  0  0  0  0  0  0  0  0  0  0 
    9.0274    1.9756   -0.5441 C   0  0  0  0  0  0  0  0  0  0  0  0 
    0.6607    1.7853    0.3134 C   0  0  0  0  0  0  0  0  0  0  0  0 
    0.6308   -0.5491   -0.3394 C   0  0  0  0  0  0  0  0  0  0  0  0 
    7.6901   -0.4774   -0.5697 C   0  0  0  0  0  0  0  0  0  0  0  0 
    7.6376    1.9424   -0.4341 C   0  0  0  0  0  0  0  0  0  0  0  0 
    1.3543    0.6275   -0.0743 C   0  0  0  0  0  0  0  0  0  0  0  0 
    6.9551    0.7152   -0.4449 C   0  0  0  0  0  0  0  0  0  0  0  0 
    2.8193    0.6358   -0.2190 C   0  0  0  0  0  0  0  0  0  0  0  0 
    5.4900    0.6635   -0.3111 C   0  0  0  0  0  0  0  0  0  0  0  0 
    3.4893   -0.4734   -0.2766 N   0  0  0  0  0  0  0  0  0  0  0  0 
    3.4705    1.8925   -0.2635 N   0  0  0  0  0  0  0  0  0  0  0  0 
    4.8306   -0.4111   -0.6157 N   0  0  0  0  0  0  0  0  0  0  0  0 
    4.8272    1.8331    0.1340 N   0  0  0  0  0  0  0  0  0  0  0  0 
   -2.5217    0.5799    0.2683 H   0  0  0  0  0  0  0  0  0  0  0  0 
   10.8324    0.8156   -0.7609 H   0  0  0  0  0  0  0  0  0  0  0  0 
   -1.2553    2.6675    0.7359 H   0  0  0  0  0  0  0  0  0  0  0  0 
   -1.3041   -1.4782   -0.4156 H   0  0  0  0  0  0  0  0  0  0  0  0 
    9.6343   -1.3639   -0.7859 H   0  0  0  0  0  0  0  0  0  0  0  0 
    9.5455    2.9309   -0.5375 H   0  0  0  0  0  0  0  0  0  0  0  0 
    1.2194    2.6887    0.5357 H   0  0  0  0  0  0  0  0  0  0  0  0 
    1.1749   -1.4355   -0.6471 H   0  0  0  0  0  0  0  0  0  0  0  0 
    7.1545   -1.4205   -0.5672 H   0  0  0  0  0  0  0  0  0  0  0  0 
    7.0701    2.8641   -0.3557 H   0  0  0  0  0  0  0  0  0  0  0  0 
    3.3791    2.3936   -1.1456 H   0  0  0  0  0  0  0  0  0  0  0  0 
    4.9156    2.0250    1.1304 H   0  0  0  0  0  0  0  0  0  0  0  0 
  1 19  1  0  0  0  0 
  1  3  2  0  0  0  0 
  2  6  1  0  0  0  0 
  3 21  1  0  0  0  0 
  4  1  1  0  0  0  0 
  5  2  2  0  0  0  0 
  5  9  1  0  0  0  0 
  6 24  1  0  0  0  0 
  6 10  2  0  0  0  0 
  7  3  1  0  0  0  0 
  7 25  1  0  0  0  0 
  8  4  2  0  0  0  0 
  8 11  1  0  0  0  0 
  9 27  1  0  0  0  0 
  9 12  2  0  0  0  0 
 10 28  1  0  0  0  0 
 11  7  2  0  0  0  0 
 12 10  1  0  0  0  0 
 12 14  1  0  0  0  0 
 13 11  1  0  0  0  0 
 14 18  1  0  0  0  0 
 15 13  2  0  0  0  0 
 16 13  1  0  0  0  0 
 16 18  1  0  0  0  0 
 17 14  2  0  0  0  0 
 17 15  1  0  0  0  0 
 18 30  1  0  0  0  0 
 20  2  1  0  0  0  0 
 22  4  1  0  0  0  0 
 23  5  1  0  0  0  0 
 26  8  1  0  0  0  0 
 29 16  1  0  0  0  0 
M  END 
>  <HBA> 
2 
 
>  <HBD> 
2 
 
>  <TPSA> 
57.36 
 
>  <cid> 
26707 
 
>  <dipole> 
2.86 
 
>  <excitation_energy_1> 
3.573 
 
>  <excitation_energy_2> 
3.631 
 
>  <excitation_energy_3> 
4.502 
 
>  <excitation_energy_4> 
4.509 
 
>  <homo_energy> 
-5.802 
 
>  <homo_lumo_gap> 
4.128 
 
>  <logP> 
3.029 
 
>  <lumo_energy> 
-1.674 
 
>  <melting_point> 
205.19 
 
>  <molecular_refractivity> 
70.42 
 
>  <oscillator_strength_1> 
0.6144 
 
>  <oscillator_strength_2> 
0.0004 
 
>  <oscillator_strength_3> 
0.0121 
 
>  <oscillator_strength_4> 
0.0023 
 
>  <open_babel_can_smiles> 
c1ccc(cc1)c1nnc([nH][nH]1)c1ccccc1 
 
>  <mulliken_charges> 
30 
1   -0.121101 
2   -0.1211 
3   -0.134799 
4   -0.137233 
5   -0.137323 
6   -0.134706 
7   -0.178333 
8   -0.159939 
9   -0.159907 
10   -0.178413 
11   0.11099 
12   0.110847 
13   0.414688 
14   0.415107 
15   -0.344025 
16   -0.50252 
17   -0.344262 
18   -0.502707 
19   0.133306 
20   0.133335 
21   0.132406 
22   0.135666 
23   0.13571 
24   0.132387 
25   0.144257 
26   0.16614 
27   0.166136 
28   0.144293 
29   0.340551 
30   0.340549 
 
>  <lowdin_charges> 
30 
1   -0.145526 
2   -0.145357 
3   -0.157893 
4   -0.155381 
5   -0.155363 
6   -0.15744 
7   -0.158268 
8   -0.137286 
9   -0.136856 
10   -0.158275 
11   -0.02071 
12   -0.020477 
13   0.05596 
14   0.056066 
15   -0.131528 
16   -0.251452 
17   -0.131961 
18   -0.249414 
19   0.157498 
20   0.157496 
21   0.15959 
22   0.16105 
23   0.160989 
24   0.159065 
25   0.166061 
26   0.178379 
27   0.177876 
28   0.165949 
29   0.27947 
30   0.27774 
 
$$$$ 
 
