PCCDB-ID:  52321 
public computational chemistry database (PCCDB) project, http://pccdb.org 
 
 38 38  0  0  1  0  0  0  0  0999 V2000 
    1.3380   -1.2794   -2.2711 C   0  0  0  0  0  0  0  0  0  0  0  0 
    3.4584    2.7197   -0.7520 C   0  0  0  0  0  0  0  0  0  0  0  0 
    3.5379    4.3622   -4.1944 C   0  0  0  0  0  0  0  0  0  0  0  0 
    1.6589   -1.1284   -8.6110 C   0  0  0  0  0  0  0  0  0  0  0  0 
    1.4084    0.2515   -2.2337 C   0  0  0  0  0  0  0  0  0  0  0  0 
    2.3492    2.9562   -1.7942 C   0  0  0  0  0  0  0  0  0  0  0  0 
    3.6650    2.8740   -3.8608 C   0  0  0  0  0  0  0  0  0  0  0  0 
    1.0705    0.3828   -6.6618 C   0  0  0  0  0  0  0  0  0  0  0  0 
    2.9439   -1.0953   -6.4226 C   0  0  0  0  0  0  0  0  0  0  0  0 
    1.2758    0.8598   -5.3702 C   0  0  0  0  0  0  0  0  0  0  0  0 
    3.1523   -0.6163   -5.1266 C   0  0  0  0  0  0  0  0  0  0  0  0 
    1.8988   -0.6075   -7.2127 C   0  0  0  0  0  0  0  0  0  0  0  0 
    2.3217    0.3641   -4.5776 C   0  0  0  0  0  0  0  0  0  0  0  0 
    2.5098    0.8517   -3.1421 C   0  0  1  0  0  0  0  0  0  0  0  0 
    2.5201    2.3323   -3.1132 N   0  0  0  0  0  0  0  0  0  0  0  0 
    0.5844   -1.6413   -1.5626 H   0  0  0  0  0  0  0  0  0  0  0  0 
    2.2989   -1.7283   -1.9897 H   0  0  0  0  0  0  0  0  0  0  0  0 
    1.0753   -1.6533   -3.2648 H   0  0  0  0  0  0  0  0  0  0  0  0 
    3.2068    3.2324    0.1841 H   0  0  0  0  0  0  0  0  0  0  0  0 
    4.4265    3.1055   -1.0893 H   0  0  0  0  0  0  0  0  0  0  0  0 
    3.5864    1.6555   -0.5233 H   0  0  0  0  0  0  0  0  0  0  0  0 
    4.3328    4.6529   -4.8906 H   0  0  0  0  0  0  0  0  0  0  0  0 
    3.6279    5.0068   -3.3135 H   0  0  0  0  0  0  0  0  0  0  0  0 
    2.5723    4.5656   -4.6701 H   0  0  0  0  0  0  0  0  0  0  0  0 
    1.5528   -0.3093   -9.3325 H   0  0  0  0  0  0  0  0  0  0  0  0 
    0.7377   -1.7233   -8.6644 H   0  0  0  0  0  0  0  0  0  0  0  0 
    2.4827   -1.7663   -8.9470 H   0  0  0  0  0  0  0  0  0  0  0  0 
    1.5853    0.5557   -1.1965 H   0  0  0  0  0  0  0  0  0  0  0  0 
    0.4395    0.6764   -2.5273 H   0  0  0  0  0  0  0  0  0  0  0  0 
    2.2431    4.0334   -1.9591 H   0  0  0  0  0  0  0  0  0  0  0  0 
    1.3893    2.6323   -1.3831 H   0  0  0  0  0  0  0  0  0  0  0  0 
    4.6240    2.6929   -3.3384 H   0  0  0  0  0  0  0  0  0  0  0  0 
    3.7248    2.3194   -4.8007 H   0  0  0  0  0  0  0  0  0  0  0  0 
    0.2557    0.7891   -7.2582 H   0  0  0  0  0  0  0  0  0  0  0  0 
    3.6097   -1.8555   -6.8258 H   0  0  0  0  0  0  0  0  0  0  0  0 
    0.6409    1.6449   -4.9699 H   0  0  0  0  0  0  0  0  0  0  0  0 
    3.9783   -1.0091   -4.5371 H   0  0  0  0  0  0  0  0  0  0  0  0 
    3.4764    0.4444   -2.7824 H   0  0  0  0  0  0  0  0  0  0  0  0 
  1  5  1  0  0  0  0 
  1 17  1  0  0  0  0 
  1 16  1  0  0  0  0 
  2 21  1  0  0  0  0 
  2 19  1  0  0  0  0 
  3  7  1  0  0  0  0 
  3 23  1  0  0  0  0 
  4 12  1  0  0  0  0 
  5 28  1  0  0  0  0 
  6 31  1  0  0  0  0 
  6  2  1  0  0  0  0 
  7 32  1  0  0  0  0 
  7 15  1  0  0  0  0 
  8 10  1  0  0  0  0 
  9 11  2  0  0  0  0 
 10 36  1  0  0  0  0 
 10 13  2  0  0  0  0 
 11 13  1  0  0  0  0 
 11 37  1  0  0  0  0 
 12  8  2  0  0  0  0 
 12  9  1  0  0  0  0 
 13 14  1  0  0  0  0 
 14 15  1  0  0  0  0 
 14 38  1  1  0  0  0 
 14  5  1  0  0  0  0 
 15  6  1  0  0  0  0 
 18  1  1  0  0  0  0 
 20  2  1  0  0  0  0 
 22  3  1  0  0  0  0 
 24  3  1  0  0  0  0 
 25  4  1  0  0  0  0 
 26  4  1  0  0  0  0 
 27  4  1  0  0  0  0 
 29  5  1  0  0  0  0 
 30  6  1  0  0  0  0 
 33  7  1  0  0  0  0 
 34  8  1  0  0  0  0 
 35  9  1  0  0  0  0 
M  END 
>  <HBA> 
1 
 
>  <HBD> 
0 
 
>  <TPSA> 
3.24 
 
>  <cid> 
52321 
 
>  <dipole> 
0.28 
 
>  <excitation_energy_1> 
4.646 
 
>  <excitation_energy_2> 
4.71 
 
>  <excitation_energy_3> 
5.066 
 
>  <excitation_energy_4> 
5.194 
 
>  <homo_energy> 
-5.456 
 
>  <homo_lumo_gap> 
5.619 
 
>  <logP> 
3.788 
 
>  <lumo_energy> 
0.163 
 
>  <melting_point> 
10.64 
 
>  <molecular_refractivity> 
68.11 
 
>  <oscillator_strength_1> 
0.003 
 
>  <oscillator_strength_2> 
0.0065 
 
>  <oscillator_strength_3> 
0.0121 
 
>  <oscillator_strength_4> 
0.0006 
 
>  <open_babel_can_smiles> 
CC[C@@H](c1ccc(cc1)C)N(CC)CC 
 
>  <mulliken_charges> 
38 
1   -0.450753 
2   -0.461063 
3   -0.455634 
4   -0.52993 
5   -0.277085 
6   -0.13689 
7   -0.115102 
8   -0.180624 
9   -0.184459 
10   -0.164079 
11   -0.183259 
12   0.178741 
13   0.132851 
14   0.007708 
15   -0.406843 
16   0.140832 
17   0.138271 
18   0.162472 
19   0.141339 
20   0.149719 
21   0.148229 
22   0.141932 
23   0.144224 
24   0.154144 
25   0.15877 
26   0.16218 
27   0.153298 
28   0.140243 
29   0.143604 
30   0.142508 
31   0.144549 
32   0.109408 
33   0.155689 
34   0.11875 
35   0.11837 
36   0.136419 
37   0.120724 
38   0.100745 
 
>  <lowdin_charges> 
38 
1   -0.447329 
2   -0.465781 
3   -0.452365 
4   -0.444012 
5   -0.277003 
6   -0.206921 
7   -0.202691 
8   -0.167504 
9   -0.171599 
10   -0.158277 
11   -0.17067 
12   -0.002637 
13   -0.013237 
14   -0.054516 
15   -0.191762 
16   0.150969 
17   0.145079 
18   0.157047 
19   0.152429 
20   0.149867 
21   0.146605 
22   0.153468 
23   0.146114 
24   0.153807 
25   0.159367 
26   0.160167 
27   0.156606 
28   0.144417 
29   0.146162 
30   0.14467 
31   0.146428 
32   0.115879 
33   0.156136 
34   0.153457 
35   0.153488 
36   0.162675 
37   0.153716 
38   0.117747 
 
$$$$ 
 
