PCCDB-ID:  31789 
public computational chemistry database (PCCDB) project, http://pccdb.org 
 
 20 21  0  0  1  0  0  0  0  0999 V2000 
    0.3720    1.0547   -0.2516 C   0  0  0  0  0  0  0  0  0  0  0  0 
   -0.6465   -3.9526    1.7958 C   0  0  0  0  0  0  0  0  0  0  0  0 
    0.7306   -0.3566   -0.0836 C   0  0  1  0  0  0  0  0  0  0  0  0 
   -0.1837   -2.5625    1.7226 C   0  0  1  0  0  0  0  0  0  0  0  0 
    1.5821   -0.7996    1.0938 C   0  0  1  0  0  0  0  0  0  0  0  0 
    1.2975   -2.2494    1.5503 C   0  0  2  0  0  0  0  0  0  0  0  0 
    2.9611   -0.6854    0.7820 O   0  0  0  0  0  0  0  0  0  0  0  0 
    1.8782   -3.1574    0.6153 O   0  0  0  0  0  0  0  0  0  0  0  0 
   -0.5917    0.1078    0.2350 O   0  0  0  0  0  0  0  0  0  0  0  0 
   -0.7769   -3.1977    0.5722 O   0  0  0  0  0  0  0  0  0  0  0  0 
    0.1726    1.4486   -1.2478 H   0  0  0  0  0  0  0  0  0  0  0  0 
    0.7203    1.7864    0.4779 H   0  0  0  0  0  0  0  0  0  0  0  0 
   -1.5895   -4.1830    2.2888 H   0  0  0  0  0  0  0  0  0  0  0  0 
    0.0818   -4.7609    1.7603 H   0  0  0  0  0  0  0  0  0  0  0  0 
    0.7858   -0.9853   -0.9747 H   0  0  0  0  0  0  0  0  0  0  0  0 
   -0.7947   -1.7751    2.1605 H   0  0  0  0  0  0  0  0  0  0  0  0 
    1.3758   -0.1183    1.9293 H   0  0  0  0  0  0  0  0  0  0  0  0 
    1.8236   -2.4025    2.5007 H   0  0  0  0  0  0  0  0  0  0  0  0 
    3.1898   -1.5273    0.3462 H   0  0  0  0  0  0  0  0  0  0  0  0 
    1.1561   -3.3817   -0.0052 H   0  0  0  0  0  0  0  0  0  0  0  0 
  1  3  1  0  0  0  0 
  1  9  1  0  0  0  0 
  1 12  1  0  0  0  0 
  2 13  1  0  0  0  0 
  3 15  1  6  0  0  0 
  3  9  1  0  0  0  0 
  3  5  1  0  0  0  0 
  4  2  1  0  0  0  0 
  4 16  1  1  0  0  0 
  5  6  1  0  0  0  0 
  5 17  1  1  0  0  0 
  6  4  1  0  0  0  0 
  6 18  1  1  0  0  0 
  7  5  1  0  0  0  0 
  8  6  1  0  0  0  0 
 10  4  1  0  0  0  0 
 10  2  1  0  0  0  0 
 11  1  1  0  0  0  0 
 14  2  1  0  0  0  0 
 19  7  1  0  0  0  0 
 20  8  1  0  0  0  0 
M  END 
>  <HBA> 
4 
 
>  <HBD> 
2 
 
>  <TPSA> 
65.52 
 
>  <cid> 
31789 
 
>  <dipole> 
1.31 
 
>  <excitation_energy_1> 
6.485 
 
>  <excitation_energy_2> 
6.679 
 
>  <excitation_energy_3> 
6.972 
 
>  <excitation_energy_4> 
7.044 
 
>  <homo_energy> 
-6.961 
 
>  <homo_lumo_gap> 
8.719 
 
>  <logP> 
-1.494 
 
>  <lumo_energy> 
1.758 
 
>  <melting_point> 
37.93 
 
>  <molecular_refractivity> 
31.22 
 
>  <oscillator_strength_1> 
0.0117 
 
>  <oscillator_strength_2> 
0.009 
 
>  <oscillator_strength_3> 
0.0108 
 
>  <oscillator_strength_4> 
0.0075 
 
>  <open_babel_can_smiles> 
O[C@H]([C@@H]([C@H]1OC1)O)[C@H]1OC1 
 
>  <mulliken_charges> 
20 
1   -0.107865 
2   -0.119128 
3   0.086497 
4   0.063736 
5   0.118876 
6   0.080923 
7   -0.636526 
8   -0.658552 
9   -0.449059 
10   -0.45758 
11   0.154035 
12   0.154943 
13   0.164531 
14   0.168093 
15   0.141615 
16   0.17788 
17   0.134164 
18   0.157063 
19   0.407937 
20   0.418418 
 
>  <lowdin_charges> 
20 
1   -0.159426 
2   -0.164693 
3   -0.039724 
4   -0.038927 
5   -0.028156 
6   -0.027164 
7   -0.456847 
8   -0.464797 
9   -0.290965 
10   -0.290333 
11   0.15616 
12   0.156342 
13   0.162829 
14   0.162403 
15   0.149434 
16   0.17156 
17   0.148983 
18   0.155904 
19   0.346516 
20   0.3509 
 
$$$$ 
 
