PCCDB-ID:  69906 
public computational chemistry database (PCCDB) project, http://pccdb.org 
 
 30 33  0  0  0  0  0  0  0  0999 V2000 
   -3.5355    0.0069   -0.0022 C   0  0  0  0  0  0  0  0  0  0  0  0 
    3.5357   -0.0068   -0.0027 C   0  0  0  0  0  0  0  0  0  0  0  0 
   -2.8394   -1.1897    0.1755 C   0  0  0  0  0  0  0  0  0  0  0  0 
   -2.8348    1.2007   -0.1799 C   0  0  0  0  0  0  0  0  0  0  0  0 
    2.8349   -1.2005   -0.1806 C   0  0  0  0  0  0  0  0  0  0  0  0 
    2.8397    1.1898    0.1751 C   0  0  0  0  0  0  0  0  0  0  0  0 
   -0.6528   -2.4761    0.4093 C   0  0  0  0  0  0  0  0  0  0  0  0 
   -0.6431    2.4784   -0.4146 C   0  0  0  0  0  0  0  0  0  0  0  0 
    0.6432   -2.4784   -0.4141 C   0  0  0  0  0  0  0  0  0  0  0  0 
    0.6532    2.4765    0.4084 C   0  0  0  0  0  0  0  0  0  0  0  0 
   -1.4436   -1.2051    0.1808 C   0  0  0  0  0  0  0  0  0  0  0  0 
   -1.4389    1.2109   -0.1840 C   0  0  0  0  0  0  0  0  0  0  0  0 
    1.4390   -1.2106   -0.1845 C   0  0  0  0  0  0  0  0  0  0  0  0 
    1.4439    1.2054    0.1800 C   0  0  0  0  0  0  0  0  0  0  0  0 
   -0.7385    0.0016   -0.0011 C   0  0  0  0  0  0  0  0  0  0  0  0 
    0.7387   -0.0013   -0.0016 C   0  0  0  0  0  0  0  0  0  0  0  0 
   -4.6223    0.0091   -0.0014 H   0  0  0  0  0  0  0  0  0  0  0  0 
    4.6225   -0.0090   -0.0027 H   0  0  0  0  0  0  0  0  0  0  0  0 
   -3.3846   -2.1211    0.3120 H   0  0  0  0  0  0  0  0  0  0  0  0 
   -3.3764    2.1340   -0.3182 H   0  0  0  0  0  0  0  0  0  0  0  0 
    3.3764   -2.1338   -0.3192 H   0  0  0  0  0  0  0  0  0  0  0  0 
    3.3850    2.1210    0.3130 H   0  0  0  0  0  0  0  0  0  0  0  0 
   -0.3955   -2.5571    1.4770 H   0  0  0  0  0  0  0  0  0  0  0  0 
   -1.2633   -3.3536    0.1671 H   0  0  0  0  0  0  0  0  0  0  0  0 
   -0.3859    2.5566   -1.4825 H   0  0  0  0  0  0  0  0  0  0  0  0 
   -1.2498    3.3588   -0.1734 H   0  0  0  0  0  0  0  0  0  0  0  0 
    0.3858   -2.5577   -1.4818 H   0  0  0  0  0  0  0  0  0  0  0  0 
    1.2502   -3.3584   -0.1722 H   0  0  0  0  0  0  0  0  0  0  0  0 
    0.3964    2.5580    1.4761 H   0  0  0  0  0  0  0  0  0  0  0  0 
    1.2635    3.3539    0.1655 H   0  0  0  0  0  0  0  0  0  0  0  0 
  1 17  1  0  0  0  0 
  1  3  2  0  0  0  0 
  2  6  2  0  0  0  0 
  3 11  1  0  0  0  0 
  3 19  1  0  0  0  0 
  4  1  1  0  0  0  0 
  5  2  1  0  0  0  0 
  6 14  1  0  0  0  0 
  6 22  1  0  0  0  0 
  7 23  1  0  0  0  0 
  8 12  1  0  0  0  0 
  8 26  1  0  0  0  0 
  8 10  1  0  0  0  0 
  9 13  1  0  0  0  0 
  9 28  1  0  0  0  0 
  9  7  1  0  0  0  0 
 10 29  1  0  0  0  0 
 11  7  1  0  0  0  0 
 12  4  2  0  0  0  0 
 12 15  1  0  0  0  0 
 13  5  2  0  0  0  0 
 13 16  1  0  0  0  0 
 14 10  1  0  0  0  0 
 15 11  2  0  0  0  0 
 16 15  1  0  0  0  0 
 16 14  2  0  0  0  0 
 18  2  1  0  0  0  0 
 20  4  1  0  0  0  0 
 21  5  1  0  0  0  0 
 24  7  1  0  0  0  0 
 25  8  1  0  0  0  0 
 27  9  1  0  0  0  0 
 30 10  1  0  0  0  0 
M  END 
>  <HBA> 
0 
 
>  <HBD> 
0 
 
>  <TPSA> 
0.0 
 
>  <cid> 
69906 
 
>  <dipole> 
0.0 
 
>  <excitation_energy_1> 
4.376 
 
>  <excitation_energy_2> 
4.476 
 
>  <excitation_energy_3> 
4.721 
 
>  <excitation_energy_4> 
5.058 
 
>  <homo_energy> 
-5.597 
 
>  <homo_lumo_gap> 
4.868 
 
>  <logP> 
3.551 
 
>  <lumo_energy> 
-0.729 
 
>  <melting_point> 
105.1 
 
>  <molecular_refractivity> 
67.51 
 
>  <oscillator_strength_1> 
0.3186 
 
>  <oscillator_strength_2> 
0.0001 
 
>  <oscillator_strength_3> 
0.0002 
 
>  <oscillator_strength_4> 
0.0079 
 
>  <open_babel_can_smiles> 
c1cc2CCc3c4c2c(c1)CCc4ccc3 
 
>  <mulliken_charges> 
30 
1   -0.117798 
2   -0.117796 
3   -0.211955 
4   -0.211856 
5   -0.211904 
6   -0.211892 
7   -0.346362 
8   -0.346336 
9   -0.346373 
10   -0.346399 
11   0.130498 
12   0.130464 
13   0.130504 
14   0.130494 
15   0.014044 
16   0.013985 
17   0.124961 
18   0.124963 
19   0.119223 
20   0.119208 
21   0.119218 
22   0.119219 
23   0.156168 
24   0.141793 
25   0.156195 
26   0.141787 
27   0.156181 
28   0.141802 
29   0.156161 
30   0.141806 
 
>  <lowdin_charges> 
30 
1   -0.152705 
2   -0.152705 
3   -0.172264 
4   -0.172238 
5   -0.172233 
6   -0.172258 
7   -0.270303 
8   -0.270275 
9   -0.270283 
10   -0.270314 
11   -0.005017 
12   -0.005035 
13   -0.005033 
14   -0.005019 
15   -0.023076 
16   -0.023074 
17   0.154239 
18   0.154239 
19   0.153744 
20   0.153726 
21   0.153727 
22   0.153749 
23   0.152837 
24   0.151767 
25   0.152847 
26   0.151752 
27   0.15284 
28   0.151759 
29   0.15283 
30   0.151775 
 
$$$$ 
 
