PCCDB-ID:  8294 
public computational chemistry database (PCCDB) project, http://pccdb.org 
 
 34 33  0  0  1  0  0  0  0  0999 V2000 
    1.5532    4.0690    0.4312 C   0  0  0  0  0  0  0  0  0  0  0  0 
    0.5893   -1.2292    4.2272 C   0  0  0  0  0  0  0  0  0  0  0  0 
    0.2920    0.3780    6.1749 C   0  0  0  0  0  0  0  0  0  0  0  0 
    1.1509   -1.5726   -1.0413 C   0  0  0  0  0  0  0  0  0  0  0  0 
    3.9023    1.6213    0.1148 C   0  0  0  0  0  0  0  0  0  0  0  0 
    1.7921    2.9060   -0.1730 C   0  0  0  0  0  0  0  0  0  0  0  0 
    0.6867    1.2731    2.3696 C   0  0  0  0  0  0  0  0  0  0  0  0 
    0.5154    1.2689    3.8682 C   0  0  0  0  0  0  0  0  0  0  0  0 
    2.1525    1.5160    1.9565 C   0  0  0  0  0  0  0  0  0  0  0  0 
    0.4710    0.2051    4.6852 C   0  0  0  0  0  0  0  0  0  0  0  0 
    1.9693   -0.7195   -0.0943 C   0  0  0  0  0  0  0  0  0  0  0  0 
    2.3993    1.6578    0.4420 C   0  0  2  0  0  0  0  0  0  0  0  0 
    2.7328   -1.1599    0.7401 O   0  0  0  0  0  0  0  0  0  0  0  0 
    1.7178    0.5870   -0.3173 O   0  0  0  0  0  0  0  0  0  0  0  0 
    1.1660    4.9167   -0.1271 H   0  0  0  0  0  0  0  0  0  0  0  0 
    1.7319    4.2336    1.4902 H   0  0  0  0  0  0  0  0  0  0  0  0 
    1.3715   -1.7481    4.7978 H   0  0  0  0  0  0  0  0  0  0  0  0 
    0.8397   -1.3274    3.1685 H   0  0  0  0  0  0  0  0  0  0  0  0 
   -0.3444   -1.7793    4.4134 H   0  0  0  0  0  0  0  0  0  0  0  0 
   -0.6046   -0.1504    6.5295 H   0  0  0  0  0  0  0  0  0  0  0  0 
    0.1969    1.4317    6.4564 H   0  0  0  0  0  0  0  0  0  0  0  0 
    1.1407   -0.0477    6.7287 H   0  0  0  0  0  0  0  0  0  0  0  0 
    1.3462   -2.6264   -0.8397 H   0  0  0  0  0  0  0  0  0  0  0  0 
    1.4112   -1.3382   -2.0788 H   0  0  0  0  0  0  0  0  0  0  0  0 
    0.0842   -1.3593   -0.9171 H   0  0  0  0  0  0  0  0  0  0  0  0 
    4.4028    2.4577    0.6130 H   0  0  0  0  0  0  0  0  0  0  0  0 
    4.0621    1.7242   -0.9640 H   0  0  0  0  0  0  0  0  0  0  0  0 
    4.3488    0.6843    0.4541 H   0  0  0  0  0  0  0  0  0  0  0  0 
    1.5944    2.8071   -1.2397 H   0  0  0  0  0  0  0  0  0  0  0  0 
    0.0528    2.0563    1.9358 H   0  0  0  0  0  0  0  0  0  0  0  0 
    0.3429    0.3280    1.9386 H   0  0  0  0  0  0  0  0  0  0  0  0 
    0.4417    2.2568    4.3269 H   0  0  0  0  0  0  0  0  0  0  0  0 
    2.7686    0.6982    2.3363 H   0  0  0  0  0  0  0  0  0  0  0  0 
    2.5227    2.4319    2.4346 H   0  0  0  0  0  0  0  0  0  0  0  0 
  1 16  1  0  0  0  0 
  2 19  1  0  0  0  0 
  2 10  1  0  0  0  0 
  2 17  1  0  0  0  0 
  3 21  1  0  0  0  0 
  3 20  1  0  0  0  0 
  3 22  1  0  0  0  0 
  4 25  1  0  0  0  0 
  4 23  1  0  0  0  0 
  4 11  1  0  0  0  0 
  5 12  1  0  0  0  0 
  5 28  1  0  0  0  0 
  5 26  1  0  0  0  0 
  6  1  2  0  0  0  0 
  6 12  1  0  0  0  0 
  7  8  1  0  0  0  0 
  8 32  1  0  0  0  0 
  8 10  2  0  0  0  0 
  9 33  1  0  0  0  0 
  9  7  1  0  0  0  0 
  9 34  1  0  0  0  0 
 10  3  1  0  0  0  0 
 11 13  2  0  0  0  0 
 12 14  1  6  0  0  0 
 12  9  1  0  0  0  0 
 14 11  1  0  0  0  0 
 15  1  1  0  0  0  0 
 18  2  1  0  0  0  0 
 24  4  1  0  0  0  0 
 27  5  1  0  0  0  0 
 29  6  1  0  0  0  0 
 30  7  1  0  0  0  0 
 31  7  1  0  0  0  0 
M  END 
>  <HBA> 
2 
 
>  <HBD> 
0 
 
>  <TPSA> 
26.3 
 
>  <cid> 
8294 
 
>  <dipole> 
1.53 
 
>  <excitation_energy_1> 
5.359 
 
>  <excitation_energy_2> 
5.615 
 
>  <excitation_energy_3> 
5.627 
 
>  <excitation_energy_4> 
5.771 
 
>  <homo_energy> 
-6.09 
 
>  <homo_lumo_gap> 
6.237 
 
>  <logP> 
3.241 
 
>  <lumo_energy> 
0.147 
 
>  <melting_point> 
-14.47 
 
>  <molecular_refractivity> 
60.17 
 
>  <oscillator_strength_1> 
0.0075 
 
>  <oscillator_strength_2> 
0.0014 
 
>  <oscillator_strength_3> 
0.0066 
 
>  <oscillator_strength_4> 
0.0048 
 
>  <open_babel_can_smiles> 
C=C[C@](OC(=O)C)(CCC=C(C)C)C 
 
>  <mulliken_charges> 
34 
1   -0.340871 
2   -0.518814 
3   -0.505722 
4   -0.521542 
5   -0.467139 
6   -0.07203 
7   -0.305549 
8   -0.175498 
9   -0.294137 
10   0.196255 
11   0.617613 
12   0.291108 
13   -0.477006 
14   -0.502797 
15   0.146106 
16   0.144893 
17   0.152321 
18   0.167046 
19   0.147856 
20   0.148066 
21   0.148627 
22   0.148809 
23   0.18054 
24   0.179391 
25   0.181469 
26   0.152891 
27   0.147147 
28   0.184004 
29   0.140103 
30   0.143901 
31   0.142445 
32   0.107392 
33   0.177705 
34   0.135417 
 
>  <lowdin_charges> 
34 
1   -0.335888 
2   -0.447143 
3   -0.439767 
4   -0.461073 
5   -0.450241 
6   -0.14626 
7   -0.279294 
8   -0.19377 
9   -0.286431 
10   -0.006729 
11   0.203561 
12   0.138824 
13   -0.272216 
14   -0.201573 
15   0.164777 
16   0.156977 
17   0.157408 
18   0.160119 
19   0.153431 
20   0.152449 
21   0.151714 
22   0.153032 
23   0.172807 
24   0.17541 
25   0.175467 
26   0.161037 
27   0.152634 
28   0.170917 
29   0.159368 
30   0.152716 
31   0.148366 
32   0.142216 
33   0.168036 
34   0.149118 
 
$$$$ 
 
