PCCDB-ID:  6473 
public computational chemistry database (PCCDB) project, http://pccdb.org 
 
 31 31  0  0  1  0  0  0  0  0999 V2000 
    1.0959    0.7284    1.1245 C   0  0  0  0  0  0  0  0  0  0  0  0 
    7.2555    3.1625   -2.9468 C   0  0  0  0  0  0  0  0  0  0  0  0 
    2.4552    0.4243    0.4867 C   0  0  0  0  0  0  0  0  0  0  0  0 
    6.4869    2.0750   -2.1901 C   0  0  0  0  0  0  0  0  0  0  0  0 
    3.0665    1.6433   -0.2182 C   0  0  0  0  0  0  0  0  0  0  0  0 
    4.4293    1.3335   -0.8520 C   0  0  0  0  0  0  0  0  0  0  0  0 
    5.3330    3.6843   -0.6187 C   0  0  0  0  0  0  0  0  0  0  0  0 
    4.2094    3.0439   -2.7042 C   0  0  0  0  0  0  0  0  0  0  0  0 
    4.0584    5.1949   -1.8389 C   0  0  0  0  0  0  0  0  0  0  0  0 
    5.1157    2.5278   -1.5901 C   0  0  1  0  0  0  0  0  0  0  0  0 
    4.8673    4.8633   -0.7197 N   0  0  0  0  0  0  0  0  0  0  0  0 
    3.7369    4.2191   -2.8197 N   0  0  0  0  0  0  0  0  0  0  0  0 
    6.1063    3.4264    0.4621 O   0  0  0  0  0  0  0  0  0  0  0  0 
    3.8792    2.1573   -3.6722 O   0  0  0  0  0  0  0  0  0  0  0  0 
    3.6375    6.3228   -1.9577 O   0  0  0  0  0  0  0  0  0  0  0  0 
    0.6848   -0.1577    1.6206 H   0  0  0  0  0  0  0  0  0  0  0  0 
    0.3697    1.0575    0.3719 H   0  0  0  0  0  0  0  0  0  0  0  0 
    1.1799    1.5234    1.8744 H   0  0  0  0  0  0  0  0  0  0  0  0 
    8.1989    2.7590   -3.3283 H   0  0  0  0  0  0  0  0  0  0  0  0 
    7.4921    4.0128   -2.2987 H   0  0  0  0  0  0  0  0  0  0  0  0 
    6.6828    3.5398   -3.8005 H   0  0  0  0  0  0  0  0  0  0  0  0 
    2.3461   -0.3976   -0.2351 H   0  0  0  0  0  0  0  0  0  0  0  0 
    3.1507    0.0639    1.2581 H   0  0  0  0  0  0  0  0  0  0  0  0 
    7.1094    1.6799   -1.3758 H   0  0  0  0  0  0  0  0  0  0  0  0 
    6.3119    1.2164   -2.8523 H   0  0  0  0  0  0  0  0  0  0  0  0 
    3.1742    2.4640    0.5029 H   0  0  0  0  0  0  0  0  0  0  0  0 
    2.3740    2.0019   -0.9911 H   0  0  0  0  0  0  0  0  0  0  0  0 
    4.3231    0.4971   -1.5575 H   0  0  0  0  0  0  0  0  0  0  0  0 
    5.1156    0.9572   -0.0801 H   0  0  0  0  0  0  0  0  0  0  0  0 
    6.4115    2.5060    0.4455 H   0  0  0  0  0  0  0  0  0  0  0  0 
    4.2793    1.2935   -3.4870 H   0  0  0  0  0  0  0  0  0  0  0  0 
  1 16  1  0  0  0  0 
  1 18  1  0  0  0  0 
  2 20  1  0  0  0  0 
  2  4  1  0  0  0  0 
  3  1  1  0  0  0  0 
  3 23  1  0  0  0  0 
  4 24  1  0  0  0  0 
  5  3  1  0  0  0  0 
  5 26  1  0  0  0  0 
  6  5  1  0  0  0  0 
  6 29  1  0  0  0  0 
  7 13  1  0  0  0  0 
  8 10  1  0  0  0  0 
  9 11  2  0  0  0  0 
 10  4  1  6  0  0  0 
 10  6  1  0  0  0  0 
 10  7  1  0  0  0  0 
 11  7  2  0  0  0  0 
 12  8  2  0  0  0  0 
 12  9  1  0  0  0  0 
 14 31  1  0  0  0  0 
 14  8  1  0  0  0  0 
 15  9  2  0  0  0  0 
 17  1  1  0  0  0  0 
 19  2  1  0  0  0  0 
 21  2  1  0  0  0  0 
 22  3  1  0  0  0  0 
 25  4  1  0  0  0  0 
 27  5  1  0  0  0  0 
 28  6  1  0  0  0  0 
 30 13  1  0  0  0  0 
M  END 
>  <HBA> 
5 
 
>  <HBD> 
2 
 
>  <TPSA> 
75.27 
 
>  <cid> 
6473 
 
>  <dipole> 
9.82 
 
>  <excitation_energy_1> 
3.995 
 
>  <excitation_energy_2> 
4.166 
 
>  <excitation_energy_3> 
5.238 
 
>  <excitation_energy_4> 
5.475 
 
>  <homo_energy> 
-6.887 
 
>  <homo_lumo_gap> 
5.385 
 
>  <logP> 
1.597 
 
>  <lumo_energy> 
-1.502 
 
>  <melting_point> 
140.91 
 
>  <molecular_refractivity> 
62.23 
 
>  <oscillator_strength_1> 
0.0 
 
>  <oscillator_strength_2> 
0.0 
 
>  <oscillator_strength_3> 
0.0 
 
>  <oscillator_strength_4> 
0.001 
 
>  <open_babel_can_smiles> 
CCCC[C@@]1(CC)C(=N[C](=[N]=C1O)=O)O 
 
>  <mulliken_charges> 
31 
1   -0.445258 
2   -0.468398 
3   -0.253354 
4   -0.270657 
5   -0.273135 
6   -0.283945 
7   0.554022 
8   0.55378 
9   0.620275 
10   -0.148662 
11   -0.472053 
12   -0.472058 
13   -0.581042 
14   -0.581025 
15   -0.431235 
16   0.148955 
17   0.152711 
18   0.15278 
19   0.161901 
20   0.181053 
21   0.181253 
22   0.134088 
23   0.134116 
24   0.137706 
25   0.138203 
26   0.165406 
27   0.165178 
28   0.132875 
29   0.133004 
30   0.416736 
31   0.416783 
 
>  <lowdin_charges> 
31 
1   -0.445572 
2   -0.45458 
3   -0.272579 
4   -0.270294 
5   -0.286702 
6   -0.273743 
7   0.146033 
8   0.146155 
9   0.170782 
10   -0.065532 
11   -0.18337 
12   -0.183727 
13   -0.330442 
14   -0.331065 
15   -0.207625 
16   0.154405 
17   0.153437 
18   0.153025 
19   0.162817 
20   0.167466 
21   0.167654 
22   0.140571 
23   0.141116 
24   0.144785 
25   0.144498 
26   0.157341 
27   0.15773 
28   0.142058 
29   0.142863 
30   0.355423 
31   0.357075 
 
$$$$ 
 
