PCCDB-ID:  11737 
public computational chemistry database (PCCDB) project, http://pccdb.org 
 
 14 13  0  0  0  0  0  0  0  0999 V2000 
    1.0909    0.0293   -0.4410 C   0  0  0  0  0  0  0  0  0  0  0  0 
    3.1622    1.3390   -0.0958 C   0  0  0  0  0  0  0  0  0  0  0  0 
    3.1564   -1.0360    0.3944 C   0  0  0  0  0  0  0  0  0  0  0  0 
    4.4150   -1.1856    0.5862 N   0  0  0  0  0  0  0  0  0  0  0  0 
    2.4288    0.1077    0.1367 N   0  0  0  0  0  0  0  0  0  0  0  0 
    2.3591   -2.1376    0.4816 O   0  0  0  0  0  0  0  0  0  0  0  0 
    0.5158    0.9087   -0.1320 H   0  0  0  0  0  0  0  0  0  0  0  0 
    0.5858   -0.8636   -0.0781 H   0  0  0  0  0  0  0  0  0  0  0  0 
    1.1121   -0.0006   -1.5419 H   0  0  0  0  0  0  0  0  0  0  0  0 
    2.4581    2.1751   -0.0840 H   0  0  0  0  0  0  0  0  0  0  0  0 
    3.6935    1.3476   -1.0611 H   0  0  0  0  0  0  0  0  0  0  0  0 
    3.8898    1.5052    0.7048 H   0  0  0  0  0  0  0  0  0  0  0  0 
    4.9416   -0.3244    0.4646 H   0  0  0  0  0  0  0  0  0  0  0  0 
    2.9814   -2.8579    0.6851 H   0  0  0  0  0  0  0  0  0  0  0  0 
  1  7  1  0  0  0  0 
  1  8  1  0  0  0  0 
  1  5  1  0  0  0  0 
  2 10  1  0  0  0  0 
  2  5  1  0  0  0  0 
  2 12  1  0  0  0  0 
  3  6  1  0  0  0  0 
  3  4  2  0  0  0  0 
  5  3  1  0  0  0  0 
  6 14  1  0  0  0  0 
  9  1  1  0  0  0  0 
 11  2  1  0  0  0  0 
 13  4  1  0  0  0  0 
M  END 
>  <HBA> 
3 
 
>  <HBD> 
1 
 
>  <TPSA> 
46.33 
 
>  <cid> 
11737 
 
>  <dipole> 
2.47 
 
>  <excitation_energy_1> 
5.394 
 
>  <excitation_energy_2> 
5.981 
 
>  <excitation_energy_3> 
6.126 
 
>  <excitation_energy_4> 
6.543 
 
>  <homo_energy> 
-5.965 
 
>  <homo_lumo_gap> 
7.674 
 
>  <logP> 
0.327 
 
>  <lumo_energy> 
1.709 
 
>  <melting_point> 
64.04 
 
>  <molecular_refractivity> 
22.73 
 
>  <oscillator_strength_1> 
0.0316 
 
>  <oscillator_strength_2> 
0.0009 
 
>  <oscillator_strength_3> 
0.0018 
 
>  <oscillator_strength_4> 
0.0433 
 
>  <open_babel_can_smiles> 
CN(C(=N)O)C 
 
>  <mulliken_charges> 
14 
1   -0.313194 
2   -0.32185 
3   0.662102 
4   -0.680752 
5   -0.414206 
6   -0.614572 
7   0.151611 
8   0.198992 
9   0.147924 
10   0.160695 
11   0.154433 
12   0.167451 
13   0.28134 
14   0.420026 
 
>  <lowdin_charges> 
14 
1   -0.348481 
2   -0.353787 
3   0.157513 
4   -0.499628 
5   -0.129307 
6   -0.382234 
7   0.151449 
8   0.17888 
9   0.138245 
10   0.160656 
11   0.142601 
12   0.159703 
13   0.256121 
14   0.36827 
 
$$$$ 
 
