PCCDB-ID:  13658 
public computational chemistry database (PCCDB) project, http://pccdb.org 
 
 22 22  0  0  1  0  0  0  0  0999 V2000 
    1.7539    1.1227   -1.5242 C   0  0  0  0  0  0  0  0  0  0  0  0 
    7.2613   -2.0987   -1.4896 C   0  0  0  0  0  0  0  0  0  0  0  0 
    6.1133   -2.8746   -1.3015 C   0  0  0  0  0  0  0  0  0  0  0  0 
    7.1573   -0.7095   -1.4770 C   0  0  0  0  0  0  0  0  0  0  0  0 
    4.8755   -2.2677   -1.1109 C   0  0  0  0  0  0  0  0  0  0  0  0 
    5.9221   -0.0835   -1.2808 C   0  0  0  0  0  0  0  0  0  0  0  0 
    3.2460    1.0064   -1.2170 C   0  0  1  0  0  0  0  0  0  0  0  0 
    4.7816   -0.8718   -1.1036 C   0  0  0  0  0  0  0  0  0  0  0  0 
    3.6194    1.9360   -0.0495 C   0  0  0  0  0  0  0  0  0  0  0  0 
    3.7724    3.1242   -0.1899 O   0  0  0  0  0  0  0  0  0  0  0  0 
    3.7030    1.3265    1.1492 O   0  0  0  0  0  0  0  0  0  0  0  0 
    3.5109   -0.3641   -0.8848 O   0  0  0  0  0  0  0  0  0  0  0  0 
    1.5071    2.1625   -1.7555 H   0  0  0  0  0  0  0  0  0  0  0  0 
    1.1570    0.8023   -0.6642 H   0  0  0  0  0  0  0  0  0  0  0  0 
    1.4997    0.4919   -2.3806 H   0  0  0  0  0  0  0  0  0  0  0  0 
    8.2255   -2.5748   -1.6409 H   0  0  0  0  0  0  0  0  0  0  0  0 
    6.1802   -3.9591   -1.3090 H   0  0  0  0  0  0  0  0  0  0  0  0 
    8.0426   -0.0942   -1.6120 H   0  0  0  0  0  0  0  0  0  0  0  0 
    3.9716   -2.8526   -0.9720 H   0  0  0  0  0  0  0  0  0  0  0  0 
    5.8707    0.9995   -1.2532 H   0  0  0  0  0  0  0  0  0  0  0  0 
    3.8339    1.3064   -2.0895 H   0  0  0  0  0  0  0  0  0  0  0  0 
    3.5762    0.3685    0.9987 H   0  0  0  0  0  0  0  0  0  0  0  0 
  1  7  1  0  0  0  0 
  1 14  1  0  0  0  0 
  2  4  2  0  0  0  0 
  2  3  1  0  0  0  0 
  3  5  2  0  0  0  0 
  4  6  1  0  0  0  0 
  5  8  1  0  0  0  0 
  5 19  1  0  0  0  0 
  6 20  1  0  0  0  0 
  6  8  2  0  0  0  0 
  7 21  1  6  0  0  0 
  7 12  1  0  0  0  0 
  7  9  1  0  0  0  0 
  8 12  1  0  0  0  0 
  9 11  1  0  0  0  0 
 10  9  2  0  0  0  0 
 13  1  1  0  0  0  0 
 15  1  1  0  0  0  0 
 16  2  1  0  0  0  0 
 17  3  1  0  0  0  0 
 18  4  1  0  0  0  0 
 22 11  1  0  0  0  0 
M  END 
>  <HBA> 
3 
 
>  <HBD> 
1 
 
>  <TPSA> 
46.53 
 
>  <cid> 
13658 
 
>  <dipole> 
3.69 
 
>  <excitation_energy_1> 
5.112 
 
>  <excitation_energy_2> 
5.361 
 
>  <excitation_energy_3> 
5.775 
 
>  <excitation_energy_4> 
5.826 
 
>  <homo_energy> 
-6.455 
 
>  <homo_lumo_gap> 
6.057 
 
>  <logP> 
1.538 
 
>  <lumo_energy> 
-0.397 
 
>  <melting_point> 
84.25 
 
>  <molecular_refractivity> 
44.32 
 
>  <oscillator_strength_1> 
0.0204 
 
>  <oscillator_strength_2> 
0.0 
 
>  <oscillator_strength_3> 
0.059 
 
>  <oscillator_strength_4> 
0.0132 
 
>  <open_babel_can_smiles> 
C[C@@H](C(=O)O)Oc1ccccc1 
 
>  <mulliken_charges> 
22 
1   -0.456122 
2   -0.127214 
3   -0.134133 
4   -0.140835 
5   -0.171155 
6   -0.183642 
7   0.021961 
8   0.34737 
9   0.590761 
10   -0.455099 
11   -0.568216 
12   -0.559578 
13   0.18241 
14   0.163769 
15   0.171585 
16   0.133948 
17   0.13764 
18   0.141306 
19   0.14185 
20   0.157251 
21   0.175237 
22   0.430905 
 
>  <lowdin_charges> 
22 
1   -0.439433 
2   -0.169056 
3   -0.141135 
4   -0.142428 
5   -0.181227 
6   -0.203714 
7   -0.033291 
8   0.092013 
9   0.167278 
10   -0.241574 
11   -0.341392 
12   -0.222087 
13   0.173442 
14   0.162255 
15   0.166855 
16   0.160917 
17   0.159976 
18   0.164042 
19   0.168363 
20   0.169783 
21   0.166448 
22   0.363968 
 
$$$$ 
 
