PCCDB-ID:  20828 
public computational chemistry database (PCCDB) project, http://pccdb.org 
 
 34 35  0  0  0  0  0  0  0  0999 V2000 
    2.0450    1.4187    0.9814 C   0  0  0  0  0  0  0  0  0  0  0  0 
    8.9092  -10.7516    2.5538 C   0  0  0  0  0  0  0  0  0  0  0  0 
    4.9110   -4.4008    1.5135 C   0  0  0  0  0  0  0  0  0  0  0  0 
    6.0358   -4.9345    2.0347 C   0  0  0  0  0  0  0  0  0  0  0  0 
    3.2855   -2.6270    0.9417 C   0  0  0  0  0  0  0  0  0  0  0  0 
    5.2528   -1.9668    2.1484 C   0  0  0  0  0  0  0  0  0  0  0  0 
    7.6639   -6.7075    2.6020 C   0  0  0  0  0  0  0  0  0  0  0  0 
    5.6916   -7.3694    1.4046 C   0  0  0  0  0  0  0  0  0  0  0  0 
    2.8290   -1.3082    0.9306 C   0  0  0  0  0  0  0  0  0  0  0  0 
    4.8157   -0.6532    2.1456 C   0  0  0  0  0  0  0  0  0  0  0  0 
    8.1204   -8.0261    2.6130 C   0  0  0  0  0  0  0  0  0  0  0  0 
    6.1296   -8.6827    1.4057 C   0  0  0  0  0  0  0  0  0  0  0  0 
    4.4988   -2.9969    1.5436 C   0  0  0  0  0  0  0  0  0  0  0  0 
    6.4479   -6.3385    2.0050 C   0  0  0  0  0  0  0  0  0  0  0  0 
    3.5972   -0.3090    1.5364 C   0  0  0  0  0  0  0  0  0  0  0  0 
    7.3500   -9.0262    2.0114 C   0  0  0  0  0  0  0  0  0  0  0  0 
    3.2595    1.0125    1.5909 O   0  0  0  0  0  0  0  0  0  0  0  0 
    7.6877  -10.3477    1.9570 O   0  0  0  0  0  0  0  0  0  0  0  0 
    1.9786    2.4974    1.1349 H   0  0  0  0  0  0  0  0  0  0  0  0 
    1.1770    0.9326    1.4466 H   0  0  0  0  0  0  0  0  0  0  0  0 
    2.0426    1.2051   -0.0958 H   0  0  0  0  0  0  0  0  0  0  0  0 
    8.9780  -11.8295    2.3961 H   0  0  0  0  0  0  0  0  0  0  0  0 
    8.9210  -10.5415    3.6316 H   0  0  0  0  0  0  0  0  0  0  0  0 
    9.7710  -10.2607    2.0823 H   0  0  0  0  0  0  0  0  0  0  0  0 
    4.2078   -5.0594    1.0049 H   0  0  0  0  0  0  0  0  0  0  0  0 
    6.7402   -4.2755    2.5412 H   0  0  0  0  0  0  0  0  0  0  0  0 
    2.6782   -3.3938    0.4658 H   0  0  0  0  0  0  0  0  0  0  0  0 
    6.1982   -2.1984    2.6299 H   0  0  0  0  0  0  0  0  0  0  0  0 
    8.2734   -5.9398    3.0737 H   0  0  0  0  0  0  0  0  0  0  0  0 
    4.7433   -7.1388    0.9282 H   0  0  0  0  0  0  0  0  0  0  0  0 
    1.8836   -1.0765    0.4536 H   0  0  0  0  0  0  0  0  0  0  0  0 
    5.3998    0.1341    2.6125 H   0  0  0  0  0  0  0  0  0  0  0  0 
    9.0671   -8.2575    3.0878 H   0  0  0  0  0  0  0  0  0  0  0  0 
    5.5433   -9.4706    0.9428 H   0  0  0  0  0  0  0  0  0  0  0  0 
  1 19  1  0  0  0  0 
  1 20  1  0  0  0  0 
  1 17  1  0  0  0  0 
  2 23  1  0  0  0  0 
  3 13  1  0  0  0  0 
  3  4  2  0  0  0  0 
  4 26  1  0  0  0  0 
  5 13  1  0  0  0  0 
  6 28  1  0  0  0  0 
  7 11  1  0  0  0  0 
  7 29  1  0  0  0  0 
  8 12  2  0  0  0  0 
  8 14  1  0  0  0  0 
  9  5  2  0  0  0  0 
  9 15  1  0  0  0  0 
 10  6  1  0  0  0  0 
 10 32  1  0  0  0  0 
 11 33  1  0  0  0  0 
 12 16  1  0  0  0  0 
 13  6  2  0  0  0  0 
 14  4  1  0  0  0  0 
 14  7  2  0  0  0  0 
 15 17  1  0  0  0  0 
 15 10  2  0  0  0  0 
 16 11  2  0  0  0  0 
 18 16  1  0  0  0  0 
 18  2  1  0  0  0  0 
 21  1  1  0  0  0  0 
 22  2  1  0  0  0  0 
 24  2  1  0  0  0  0 
 25  3  1  0  0  0  0 
 27  5  1  0  0  0  0 
 30  8  1  0  0  0  0 
 31  9  1  0  0  0  0 
 34 12  1  0  0  0  0 
M  END 
>  <HBA> 
2 
 
>  <HBD> 
0 
 
>  <TPSA> 
18.46 
 
>  <cid> 
20828 
 
>  <dipole> 
0.02 
 
>  <excitation_energy_1> 
3.669 
 
>  <excitation_energy_2> 
4.212 
 
>  <excitation_energy_3> 
4.267 
 
>  <excitation_energy_4> 
4.675 
 
>  <homo_energy> 
-4.923 
 
>  <homo_lumo_gap> 
3.954 
 
>  <logP> 
3.874 
 
>  <lumo_energy> 
-0.969 
 
>  <melting_point> 
80.01 
 
>  <molecular_refractivity> 
74.8 
 
>  <oscillator_strength_1> 
1.1072 
 
>  <oscillator_strength_2> 
0.1893 
 
>  <oscillator_strength_3> 
0.0 
 
>  <oscillator_strength_4> 
0.0025 
 
>  <open_babel_can_smiles> 
COc1ccc(cc1)/C=C/c1ccc(cc1)OC 
 
>  <mulliken_charges> 
34 
1   -0.214697 
2   -0.214701 
3   -0.193151 
4   -0.193305 
5   -0.212868 
6   -0.185716 
7   -0.212866 
8   -0.185712 
9   -0.195272 
10   -0.173833 
11   -0.195263 
12   -0.173837 
13   0.186225 
14   0.186281 
15   0.375114 
16   0.375107 
17   -0.5061 
18   -0.506096 
19   0.169714 
20   0.152243 
21   0.152342 
22   0.169725 
23   0.15231 
24   0.152272 
25   0.12082 
26   0.120823 
27   0.126825 
28   0.130382 
29   0.126821 
30   0.130375 
31   0.130395 
32   0.137626 
33   0.130392 
34   0.137623 
 
>  <lowdin_charges> 
34 
1   -0.274427 
2   -0.274462 
3   -0.164816 
4   -0.164824 
5   -0.152989 
6   -0.14627 
7   -0.152986 
8   -0.146244 
9   -0.213467 
10   -0.179862 
11   -0.213458 
12   -0.179863 
13   -0.017564 
14   -0.017562 
15   0.10071 
16   0.100706 
17   -0.197308 
18   -0.197321 
19   0.160788 
20   0.14593 
21   0.143357 
22   0.160815 
23   0.143293 
24   0.146026 
25   0.151871 
26   0.151868 
27   0.157074 
28   0.157827 
29   0.157068 
30   0.157799 
31   0.161678 
32   0.167476 
33   0.161667 
34   0.167472 
 
$$$$ 
 
