PCCDB-ID:  40163 
public computational chemistry database (PCCDB) project, http://pccdb.org 
 
 38 37  0  0  0  0  0  0  0  0999 V2000 
   -0.2121    5.2997   -0.4548 C   0  0  0  0  0  0  0  0  0  0  0  0 
    3.5836    5.9144    3.0591 C   0  0  0  0  0  0  0  0  0  0  0  0 
    3.3946    5.2796    5.5069 C   0  0  0  0  0  0  0  0  0  0  0  0 
    3.8837   -0.1197    2.2562 C   0  0  0  0  0  0  0  0  0  0  0  0 
    6.3058    0.3349    2.8491 C   0  0  0  0  0  0  0  0  0  0  0  0 
    1.1267    4.6690   -0.0878 C   0  0  0  0  0  0  0  0  0  0  0  0 
    3.1162    3.5051    3.7690 C   0  0  0  0  0  0  0  0  0  0  0  0 
    4.7960    2.2682    2.3536 C   0  0  0  0  0  0  0  0  0  0  0  0 
    3.8412    4.8254    4.1090 C   0  0  0  0  0  0  0  0  0  0  0  0 
    4.8595    0.8446    2.9428 C   0  0  0  0  0  0  0  0  0  0  0  0 
    2.7019    2.9366    1.3587 C   0  0  0  0  0  0  0  0  0  0  0  0 
    3.4764    2.9216    2.4649 N   0  0  0  0  0  0  0  0  0  0  0  0 
    2.9879    2.4536    0.2734 O   0  0  0  0  0  0  0  0  0  0  0  0 
    0.5261    4.5116    2.5424 O   0  0  0  0  0  0  0  0  0  0  0  0 
    0.8931    3.5793    1.3942 S   0  0  1  0  0  0  0  0  0  0  0  0 
   -0.0793    5.9862   -1.2979 H   0  0  0  0  0  0  0  0  0  0  0  0 
   -0.6166    5.8669    0.3890 H   0  0  0  0  0  0  0  0  0  0  0  0 
   -0.9472    4.5414   -0.7471 H   0  0  0  0  0  0  0  0  0  0  0  0 
    4.0544    6.8583    3.3573 H   0  0  0  0  0  0  0  0  0  0  0  0 
    2.5078    6.0826    2.9366 H   0  0  0  0  0  0  0  0  0  0  0  0 
    3.9983    5.6346    2.0835 H   0  0  0  0  0  0  0  0  0  0  0  0 
    3.9352    6.1815    5.8146 H   0  0  0  0  0  0  0  0  0  0  0  0 
    3.5794    4.5055    6.2621 H   0  0  0  0  0  0  0  0  0  0  0  0 
    2.3225    5.5114    5.5183 H   0  0  0  0  0  0  0  0  0  0  0  0 
    3.9585   -1.1199    2.6982 H   0  0  0  0  0  0  0  0  0  0  0  0 
    4.0995   -0.2022    1.1848 H   0  0  0  0  0  0  0  0  0  0  0  0 
    2.8460    0.2137    2.3599 H   0  0  0  0  0  0  0  0  0  0  0  0 
    6.3997   -0.6597    3.2985 H   0  0  0  0  0  0  0  0  0  0  0  0 
    7.0064    1.0033    3.3643 H   0  0  0  0  0  0  0  0  0  0  0  0 
    6.6244    0.2573    1.8018 H   0  0  0  0  0  0  0  0  0  0  0  0 
    1.8625    5.4291    0.1940 H   0  0  0  0  0  0  0  0  0  0  0  0 
    1.5391    4.0368   -0.8758 H   0  0  0  0  0  0  0  0  0  0  0  0 
    2.0408    3.6788    3.7884 H   0  0  0  0  0  0  0  0  0  0  0  0 
    3.3489    2.7543    4.5340 H   0  0  0  0  0  0  0  0  0  0  0  0 
    5.0555    2.2422    1.2930 H   0  0  0  0  0  0  0  0  0  0  0  0 
    5.5250    2.9074    2.8637 H   0  0  0  0  0  0  0  0  0  0  0  0 
    4.9235    4.6328    4.1499 H   0  0  0  0  0  0  0  0  0  0  0  0 
    4.5923    0.9011    4.0087 H   0  0  0  0  0  0  0  0  0  0  0  0 
  1  6  1  0  0  0  0 
  1 17  1  0  0  0  0 
  2 19  1  0  0  0  0 
  2  9  1  0  0  0  0 
  3 24  1  0  0  0  0 
  3 22  1  0  0  0  0 
  3 23  1  0  0  0  0 
  4 27  1  0  0  0  0 
  4 25  1  0  0  0  0 
  4 10  1  0  0  0  0 
  5 10  1  0  0  0  0 
  5 28  1  0  0  0  0 
  5 29  1  0  0  0  0 
  6 31  1  0  0  0  0 
  6 15  1  0  0  0  0 
  7 33  1  0  0  0  0 
  7  9  1  0  0  0  0 
  7 34  1  0  0  0  0 
  8 12  1  0  0  0  0 
  8 36  1  0  0  0  0 
  8 10  1  0  0  0  0 
  9 37  1  0  0  0  0 
  9  3  1  0  0  0  0 
 10 38  1  0  0  0  0 
 11 15  1  0  0  0  0 
 11 12  1  0  0  0  0 
 12  7  1  0  0  0  0 
 13 11  2  0  0  0  0 
 15 14  2  1  0  0  0 
 16  1  1  0  0  0  0 
 18  1  1  0  0  0  0 
 20  2  1  0  0  0  0 
 21  2  1  0  0  0  0 
 26  4  1  0  0  0  0 
 30  5  1  0  0  0  0 
 32  6  1  0  0  0  0 
 35  8  1  0  0  0  0 
M  END 
>  <HBA> 
3 
 
>  <HBD> 
0 
 
>  <TPSA> 
56.59 
 
>  <cid> 
40163 
 
>  <dipole> 
2.34 
 
>  <excitation_energy_1> 
4.74 
 
>  <excitation_energy_2> 
5.458 
 
>  <excitation_energy_3> 
5.475 
 
>  <excitation_energy_4> 
5.672 
 
>  <homo_energy> 
-6.016 
 
>  <homo_lumo_gap> 
5.886 
 
>  <logP> 
3.355 
 
>  <lumo_energy> 
-0.131 
 
>  <melting_point> 
23.78 
 
>  <molecular_refractivity> 
66.75 
 
>  <oscillator_strength_1> 
0.036 
 
>  <oscillator_strength_2> 
0.0232 
 
>  <oscillator_strength_3> 
0.0352 
 
>  <oscillator_strength_4> 
0.0043 
 
>  <open_babel_can_smiles> 
CC[S@](=O)C(=O)N(CC(C)C)CC(C)C 
 
>  <mulliken_charges> 
38 
1   -0.46702 
2   -0.469298 
3   -0.45105 
4   -0.441899 
5   -0.446922 
6   -0.446272 
7   -0.181269 
8   -0.154734 
9   -0.075585 
10   -0.080131 
11   0.357017 
12   -0.400009 
13   -0.494403 
14   -0.640565 
15   0.748592 
16   0.161603 
17   0.183167 
18   0.162937 
19   0.140637 
20   0.18105 
21   0.138233 
22   0.146033 
23   0.138376 
24   0.16228 
25   0.141017 
26   0.158651 
27   0.149591 
28   0.149721 
29   0.141402 
30   0.14825 
31   0.188342 
32   0.206403 
33   0.215694 
34   0.145867 
35   0.181698 
36   0.150106 
37   0.123501 
38   0.128988 
 
>  <lowdin_charges> 
38 
1   -0.452619 
2   -0.457011 
3   -0.44382 
4   -0.442683 
5   -0.443672 
6   -0.405545 
7   -0.213256 
8   -0.202761 
9   -0.124301 
10   -0.124105 
11   0.016116 
12   -0.075557 
13   -0.293965 
14   -0.676964 
15   0.754091 
16   0.162492 
17   0.16937 
18   0.159118 
19   0.149772 
20   0.162585 
21   0.144916 
22   0.152762 
23   0.147422 
24   0.15557 
25   0.148786 
26   0.154761 
27   0.151837 
28   0.153606 
29   0.149386 
30   0.149202 
31   0.16918 
32   0.185809 
33   0.184853 
34   0.14757 
35   0.168909 
36   0.152178 
37   0.130931 
38   0.135038 
 
$$$$ 
 
