PCCDB-ID:  30430 
public computational chemistry database (PCCDB) project, http://pccdb.org 
 
 31 33  0  0  1  0  0  0  0  0999 V2000 
    0.9376    0.5377    1.1361 C   0  0  0  0  0  0  0  0  0  0  0  0 
    0.3610   -4.2626    2.0483 C   0  0  0  0  0  0  0  0  0  0  0  0 
    0.7088   -3.3792    3.0713 C   0  0  0  0  0  0  0  0  0  0  0  0 
    0.8707   -4.0731    0.7618 C   0  0  0  0  0  0  0  0  0  0  0  0 
    7.2175    1.0705    0.4305 C   0  0  0  0  0  0  0  0  0  0  0  0 
    6.6137    2.3247    0.5935 C   0  0  0  0  0  0  0  0  0  0  0  0 
    1.5608   -2.3053    2.8091 C   0  0  0  0  0  0  0  0  0  0  0  0 
    1.7187   -2.9985    0.4958 C   0  0  0  0  0  0  0  0  0  0  0  0 
    6.4504   -0.0829    0.5485 C   0  0  0  0  0  0  0  0  0  0  0  0 
    5.2501    2.4321    0.8555 C   0  0  0  0  0  0  0  0  0  0  0  0 
    2.3744    0.2755    0.7293 C   0  0  2  0  0  0  0  0  0  0  0  0 
    2.0591   -2.1077    1.5190 C   0  0  0  0  0  0  0  0  0  0  0  0 
    5.0769    0.0043    0.8090 C   0  0  0  0  0  0  0  0  0  0  0  0 
    4.4847    1.2676    0.9496 C   0  0  0  0  0  0  0  0  0  0  0  0 
    4.2813   -1.2266    1.0681 C   0  0  0  0  0  0  0  0  0  0  0  0 
    2.9215   -0.9874    1.2545 N   0  0  0  0  0  0  0  0  0  0  0  0 
    4.7829   -2.3372    1.1744 O   0  0  0  0  0  0  0  0  0  0  0  0 
    3.1468    1.3789    1.2087 O   0  0  0  0  0  0  0  0  0  0  0  0 
    0.2657   -0.2150    0.7181 H   0  0  0  0  0  0  0  0  0  0  0  0 
    0.6478    1.5211    0.7556 H   0  0  0  0  0  0  0  0  0  0  0  0 
    0.8388    0.5379    2.2248 H   0  0  0  0  0  0  0  0  0  0  0  0 
   -0.2997   -5.1005    2.2534 H   0  0  0  0  0  0  0  0  0  0  0  0 
    0.3231   -3.5276    4.0762 H   0  0  0  0  0  0  0  0  0  0  0  0 
    0.6108   -4.7645   -0.0350 H   0  0  0  0  0  0  0  0  0  0  0  0 
    8.2815    1.0005    0.2255 H   0  0  0  0  0  0  0  0  0  0  0  0 
    7.2113    3.2285    0.5094 H   0  0  0  0  0  0  0  0  0  0  0  0 
    1.8528   -1.6202    3.5992 H   0  0  0  0  0  0  0  0  0  0  0  0 
    2.1308   -2.8529   -0.4983 H   0  0  0  0  0  0  0  0  0  0  0  0 
    6.8891   -1.0720    0.4636 H   0  0  0  0  0  0  0  0  0  0  0  0 
    4.7650    3.3952    0.9773 H   0  0  0  0  0  0  0  0  0  0  0  0 
    2.4628    0.2767   -0.3701 H   0  0  0  0  0  0  0  0  0  0  0  0 
  1 21  1  0  0  0  0 
  2 22  1  0  0  0  0 
  2  3  2  0  0  0  0 
  3 23  1  0  0  0  0 
  4  2  1  0  0  0  0 
  5  9  2  0  0  0  0 
  5  6  1  0  0  0  0 
  6 10  2  0  0  0  0 
  7  3  1  0  0  0  0 
  7 27  1  0  0  0  0 
  8  4  2  0  0  0  0 
  8 12  1  0  0  0  0 
  9 13  1  0  0  0  0 
 10 14  1  0  0  0  0 
 10 30  1  0  0  0  0 
 11 31  1  6  0  0  0 
 11  1  1  0  0  0  0 
 11 18  1  0  0  0  0 
 11 16  1  0  0  0  0 
 12  7  2  0  0  0  0 
 13 14  2  0  0  0  0 
 13 15  1  0  0  0  0 
 14 18  1  0  0  0  0 
 15 17  2  0  0  0  0 
 15 16  1  0  0  0  0 
 16 12  1  0  0  0  0 
 19  1  1  0  0  0  0 
 20  1  1  0  0  0  0 
 24  4  1  0  0  0  0 
 25  5  1  0  0  0  0 
 26  6  1  0  0  0  0 
 28  8  1  0  0  0  0 
 29  9  1  0  0  0  0 
M  END 
>  <HBA> 
3 
 
>  <HBD> 
0 
 
>  <TPSA> 
29.54 
 
>  <cid> 
30430 
 
>  <dipole> 
2.92 
 
>  <excitation_energy_1> 
4.447 
 
>  <excitation_energy_2> 
4.501 
 
>  <excitation_energy_3> 
5.058 
 
>  <excitation_energy_4> 
5.217 
 
>  <homo_energy> 
-6.294 
 
>  <homo_lumo_gap> 
5.26 
 
>  <logP> 
3.137 
 
>  <lumo_energy> 
-1.034 
 
>  <melting_point> 
103.47 
 
>  <molecular_refractivity> 
72.87 
 
>  <oscillator_strength_1> 
0.0464 
 
>  <oscillator_strength_2> 
0.0111 
 
>  <oscillator_strength_3> 
0.0404 
 
>  <oscillator_strength_4> 
0.001 
 
>  <open_babel_can_smiles> 
C[C@H]1Oc2ccccc2C(=O)N1c1ccccc1 
 
>  <mulliken_charges> 
31 
1   -0.480145 
2   -0.117909 
3   -0.142952 
4   -0.145188 
5   -0.138686 
6   -0.128542 
7   -0.132167 
8   -0.123217 
9   -0.174642 
10   -0.179897 
11   0.273049 
12   0.26601 
13   0.019377 
14   0.32905 
15   0.585986 
16   -0.592819 
17   -0.509595 
18   -0.527032 
19   0.171123 
20   0.16967 
21   0.170975 
22   0.133936 
23   0.136124 
24   0.136421 
25   0.135008 
26   0.137791 
27   0.140843 
28   0.138591 
29   0.165235 
30   0.142366 
31   0.141237 
 
>  <lowdin_charges> 
31 
1   -0.450477 
2   -0.151076 
3   -0.152477 
4   -0.153465 
5   -0.17046 
6   -0.134073 
7   -0.1566 
8   -0.152898 
9   -0.120247 
10   -0.184324 
11   0.079359 
12   0.051861 
13   -0.084651 
14   0.106114 
15   0.164234 
16   -0.122363 
17   -0.28932 
18   -0.196936 
19   0.17064 
20   0.168788 
21   0.164918 
22   0.160716 
23   0.160421 
24   0.162163 
25   0.15965 
26   0.162747 
27   0.166804 
28   0.164597 
29   0.178029 
30   0.169085 
31   0.12924 
 
$$$$ 
 
