PCCDB-ID:  6707 
public computational chemistry database (PCCDB) project, http://pccdb.org 
 
 28 30  0  0  0  0  0  0  0  0999 V2000 
    2.9895   -0.7107    0.9403 C   0  0  0  0  0  0  0  0  0  0  0  0 
    7.1843   -2.1559   -5.3501 C   0  0  0  0  0  0  0  0  0  0  0  0 
    6.5647   -3.1643   -4.6017 C   0  0  0  0  0  0  0  0  0  0  0  0 
    3.4241    2.9797   -1.6159 C   0  0  0  0  0  0  0  0  0  0  0  0 
    6.9166   -0.8189   -5.0722 C   0  0  0  0  0  0  0  0  0  0  0  0 
    5.6827   -2.8343   -3.5765 C   0  0  0  0  0  0  0  0  0  0  0  0 
    4.3958    2.6148   -2.5435 C   0  0  0  0  0  0  0  0  0  0  0  0 
    2.7875    1.9986   -0.8614 C   0  0  0  0  0  0  0  0  0  0  0  0 
    6.0231   -0.4811   -4.0484 C   0  0  0  0  0  0  0  0  0  0  0  0 
    5.4022   -1.4917   -3.2945 C   0  0  0  0  0  0  0  0  0  0  0  0 
    4.7251    1.2693   -2.7190 C   0  0  0  0  0  0  0  0  0  0  0  0 
    3.1170    0.6454   -1.0086 C   0  0  0  0  0  0  0  0  0  0  0  0 
    4.1034    0.2551   -1.9475 C   0  0  0  0  0  0  0  0  0  0  0  0 
    5.7416    0.9505   -3.7698 C   0  0  0  0  0  0  0  0  0  0  0  0 
    4.4684   -1.1761   -2.1679 C   0  0  0  0  0  0  0  0  0  0  0  0 
    6.3064    1.8429   -4.3937 O   0  0  0  0  0  0  0  0  0  0  0  0 
    4.0416   -2.0859   -1.4650 O   0  0  0  0  0  0  0  0  0  0  0  0 
    2.3874   -0.2439   -0.2713 O   0  0  0  0  0  0  0  0  0  0  0  0 
    2.2473   -1.3589    1.4101 H   0  0  0  0  0  0  0  0  0  0  0  0 
    3.2156    0.1310    1.6085 H   0  0  0  0  0  0  0  0  0  0  0  0 
    3.8942   -1.2875    0.7334 H   0  0  0  0  0  0  0  0  0  0  0  0 
    7.8749   -2.4166   -6.1473 H   0  0  0  0  0  0  0  0  0  0  0  0 
    6.7738   -4.2081   -4.8196 H   0  0  0  0  0  0  0  0  0  0  0  0 
    3.1574    4.0247   -1.4842 H   0  0  0  0  0  0  0  0  0  0  0  0 
    7.3840   -0.0166   -5.6335 H   0  0  0  0  0  0  0  0  0  0  0  0 
    5.1986   -3.5984   -2.9778 H   0  0  0  0  0  0  0  0  0  0  0  0 
    4.9067    3.3509   -3.1540 H   0  0  0  0  0  0  0  0  0  0  0  0 
    2.0116    2.2515   -0.1453 H   0  0  0  0  0  0  0  0  0  0  0  0 
  1 19  1  0  0  0  0 
  1 20  1  0  0  0  0 
  2  5  2  0  0  0  0 
  2  3  1  0  0  0  0 
  3  6  2  0  0  0  0 
  4 24  1  0  0  0  0 
  4  8  2  0  0  0  0 
  5  9  1  0  0  0  0 
  6 10  1  0  0  0  0 
  6 26  1  0  0  0  0 
  7  4  1  0  0  0  0 
  8 28  1  0  0  0  0 
  9 14  1  0  0  0  0 
  9 10  2  0  0  0  0 
 10 15  1  0  0  0  0 
 11  7  2  0  0  0  0 
 11 13  1  0  0  0  0 
 12  8  1  0  0  0  0 
 12 18  1  0  0  0  0 
 13 12  2  0  0  0  0 
 14 11  1  0  0  0  0 
 15 13  1  0  0  0  0 
 15 17  2  0  0  0  0 
 16 14  2  0  0  0  0 
 18  1  1  0  0  0  0 
 21  1  1  0  0  0  0 
 22  2  1  0  0  0  0 
 23  3  1  0  0  0  0 
 25  5  1  0  0  0  0 
 27  7  1  0  0  0  0 
M  END 
>  <HBA> 
3 
 
>  <HBD> 
0 
 
>  <TPSA> 
43.37 
 
>  <cid> 
6707 
 
>  <dipole> 
0.86 
 
>  <excitation_energy_1> 
2.82 
 
>  <excitation_energy_2> 
3.185 
 
>  <excitation_energy_3> 
3.547 
 
>  <excitation_energy_4> 
3.67 
 
>  <homo_energy> 
-6.74 
 
>  <homo_lumo_gap> 
3.978 
 
>  <logP> 
2.471 
 
>  <lumo_energy> 
-2.762 
 
>  <melting_point> 
128.99 
 
>  <molecular_refractivity> 
66.24 
 
>  <oscillator_strength_1> 
0.002 
 
>  <oscillator_strength_2> 
0.0008 
 
>  <oscillator_strength_3> 
0.0904 
 
>  <oscillator_strength_4> 
0.0007 
 
>  <open_babel_can_smiles> 
COc1cccc2c1C(=O)c1c(C2=O)cccc1 
 
>  <mulliken_charges> 
28 
1   -0.207464 
2   -0.126702 
3   -0.123627 
4   -0.133616 
5   -0.169935 
6   -0.17419 
7   -0.166686 
8   -0.145688 
9   0.049309 
10   0.052086 
11   0.011536 
12   0.297443 
13   0.041407 
14   0.345165 
15   0.352006 
16   -0.479289 
17   -0.47623 
18   -0.508534 
19   0.165508 
20   0.134651 
21   0.170066 
22   0.145259 
23   0.145158 
24   0.148289 
25   0.167997 
26   0.168559 
27   0.169283 
28   0.148238 
 
>  <lowdin_charges> 
28 
1   -0.274144 
2   -0.13954 
3   -0.137479 
4   -0.132455 
5   -0.128769 
6   -0.130431 
7   -0.137941 
8   -0.159867 
9   -0.039187 
10   -0.035262 
11   -0.033811 
12   0.118752 
13   -0.062167 
14   0.155555 
15   0.156666 
16   -0.241243 
17   -0.232606 
18   -0.214152 
19   0.16259 
20   0.137126 
21   0.155625 
22   0.165876 
23   0.164114 
24   0.16576 
25   0.180721 
26   0.181061 
27   0.182562 
28   0.172644 
 
$$$$ 
 
