PCCDB-ID:  7946 
public computational chemistry database (PCCDB) project, http://pccdb.org 
 
 21 20  0  0  1  0  0  0  0  0999 V2000 
    0.8978   -0.1510   -0.1776 C   0  0  0  0  0  0  0  0  0  0  0  0 
    3.5281    2.0453    2.6452 C   0  0  0  0  0  0  0  0  0  0  0  0 
    3.0089   -0.4592   -3.8468 C   0  0  0  0  0  0  0  0  0  0  0  0 
    2.9160    0.3694   -1.6465 C   0  0  0  0  0  0  0  0  0  0  0  0 
    2.4103    0.0012   -0.2534 C   0  0  1  0  0  0  0  0  0  0  0  0 
    3.0791    0.8076    1.9026 C   0  0  0  0  0  0  0  0  0  0  0  0 
    2.9394   -0.2910    2.3926 O   0  0  0  0  0  0  0  0  0  0  0  0 
    2.5903   -0.6925   -2.5187 O   0  0  0  0  0  0  0  0  0  0  0  0 
    2.8523    1.0930    0.5971 O   0  0  0  0  0  0  0  0  0  0  0  0 
    0.5716   -0.9130   -0.8913 H   0  0  0  0  0  0  0  0  0  0  0  0 
    0.4045    0.7954   -0.4281 H   0  0  0  0  0  0  0  0  0  0  0  0 
    0.5939   -0.4550    0.8278 H   0  0  0  0  0  0  0  0  0  0  0  0 
    3.6986    1.7977    3.6933 H   0  0  0  0  0  0  0  0  0  0  0  0 
    2.7673    2.8288    2.5657 H   0  0  0  0  0  0  0  0  0  0  0  0 
    4.4483    2.4390    2.2009 H   0  0  0  0  0  0  0  0  0  0  0  0 
    2.7086   -1.3291   -4.4363 H   0  0  0  0  0  0  0  0  0  0  0  0 
    4.1023   -0.3411   -3.9139 H   0  0  0  0  0  0  0  0  0  0  0  0 
    2.5364    0.4417   -4.2701 H   0  0  0  0  0  0  0  0  0  0  0  0 
    4.0057    0.5332   -1.6111 H   0  0  0  0  0  0  0  0  0  0  0  0 
    2.4483    1.3119   -1.9794 H   0  0  0  0  0  0  0  0  0  0  0  0 
    2.8994   -0.9168    0.0827 H   0  0  0  0  0  0  0  0  0  0  0  0 
  1 12  1  0  0  0  0 
  2 13  1  0  0  0  0 
  3  8  1  0  0  0  0 
  4 19  1  0  0  0  0 
  4  5  1  0  0  0  0 
  5  1  1  0  0  0  0 
  5 21  1  1  0  0  0 
  5  9  1  0  0  0  0 
  6  7  2  0  0  0  0 
  6  2  1  0  0  0  0 
  8  4  1  0  0  0  0 
  9  6  1  0  0  0  0 
 10  1  1  0  0  0  0 
 11  1  1  0  0  0  0 
 14  2  1  0  0  0  0 
 15  2  1  0  0  0  0 
 16  3  1  0  0  0  0 
 17  3  1  0  0  0  0 
 18  3  1  0  0  0  0 
 20  4  1  0  0  0  0 
M  END 
>  <HBA> 
3 
 
>  <HBD> 
0 
 
>  <TPSA> 
35.53 
 
>  <cid> 
7946 
 
>  <dipole> 
2.84 
 
>  <excitation_energy_1> 
5.804 
 
>  <excitation_energy_2> 
6.659 
 
>  <excitation_energy_3> 
6.778 
 
>  <excitation_energy_4> 
7.014 
 
>  <homo_energy> 
-7.108 
 
>  <homo_lumo_gap> 
7.502 
 
>  <logP> 
0.584 
 
>  <lumo_energy> 
0.395 
 
>  <melting_point> 
-23.07 
 
>  <molecular_refractivity> 
33.33 
 
>  <oscillator_strength_1> 
0.0012 
 
>  <oscillator_strength_2> 
0.0232 
 
>  <oscillator_strength_3> 
0.0055 
 
>  <oscillator_strength_4> 
0.0311 
 
>  <open_babel_can_smiles> 
COC[C@@H](OC(=O)C)C 
 
>  <mulliken_charges> 
21 
1   -0.463548 
2   -0.523596 
3   -0.191492 
4   -0.017733 
5   0.110865 
6   0.605295 
7   -0.465872 
8   -0.464718 
9   -0.473168 
10   0.172306 
11   0.14478 
12   0.169496 
13   0.182546 
14   0.180968 
15   0.180172 
16   0.161672 
17   0.133405 
18   0.132893 
19   0.128936 
20   0.124825 
21   0.171966 
 
>  <lowdin_charges> 
21 
1   -0.455751 
2   -0.464028 
3   -0.275726 
4   -0.134547 
5   0.001897 
6   0.202958 
7   -0.264073 
8   -0.269192 
9   -0.201407 
10   0.169941 
11   0.151446 
12   0.164165 
13   0.174383 
14   0.177724 
15   0.177223 
16   0.15786 
17   0.131394 
18   0.133928 
19   0.131225 
20   0.129789 
21   0.160791 
 
$$$$ 
 
