PCCDB-ID:  72920 
public computational chemistry database (PCCDB) project, http://pccdb.org 
 
 31 33  0  0  0  0  0  0  0  0999 V2000 
   -1.3113   -0.0534    0.0836 C   0  0  0  0  0  0  0  0  0  0  0  0 
    7.0321   -4.4269   -0.8083 C   0  0  0  0  0  0  0  0  0  0  0  0 
   -0.7633    1.1750   -0.2891 C   0  0  0  0  0  0  0  0  0  0  0  0 
   -0.4638   -1.1227    0.3832 C   0  0  0  0  0  0  0  0  0  0  0  0 
    7.7156   -3.3394   -0.2621 C   0  0  0  0  0  0  0  0  0  0  0  0 
    5.6933   -4.2824   -1.1800 C   0  0  0  0  0  0  0  0  0  0  0  0 
    4.9750    1.7343   -0.0694 C   0  0  0  0  0  0  0  0  0  0  0  0 
    0.6203    1.3348   -0.3541 C   0  0  0  0  0  0  0  0  0  0  0  0 
    0.9183   -0.9645    0.3155 C   0  0  0  0  0  0  0  0  0  0  0  0 
    7.0681   -2.1158   -0.0960 C   0  0  0  0  0  0  0  0  0  0  0  0 
    5.0450   -3.0613   -1.0112 C   0  0  0  0  0  0  0  0  0  0  0  0 
    3.5878    1.6710    0.0134 C   0  0  0  0  0  0  0  0  0  0  0  0 
    5.7055    0.5633   -0.2435 C   0  0  0  0  0  0  0  0  0  0  0  0 
    1.4823    0.2695   -0.0478 C   0  0  0  0  0  0  0  0  0  0  0  0 
    5.7248   -1.9564   -0.4727 C   0  0  0  0  0  0  0  0  0  0  0  0 
    2.9621    0.4185   -0.1035 C   0  0  0  0  0  0  0  0  0  0  0  0 
    5.0149   -0.6585   -0.3102 C   0  0  0  0  0  0  0  0  0  0  0  0 
    3.6741   -0.7108   -0.2509 N   0  0  0  0  0  0  0  0  0  0  0  0 
   -2.3896   -0.1777    0.1359 H   0  0  0  0  0  0  0  0  0  0  0  0 
    7.5371   -5.3802   -0.9394 H   0  0  0  0  0  0  0  0  0  0  0  0 
   -1.4132    2.0099   -0.5377 H   0  0  0  0  0  0  0  0  0  0  0  0 
   -0.8818   -2.0834    0.6725 H   0  0  0  0  0  0  0  0  0  0  0  0 
    8.7534   -3.4444    0.0432 H   0  0  0  0  0  0  0  0  0  0  0  0 
    5.1527   -5.1244   -1.6045 H   0  0  0  0  0  0  0  0  0  0  0  0 
    5.4845    2.6918    0.0014 H   0  0  0  0  0  0  0  0  0  0  0  0 
    1.0275    2.2900   -0.6728 H   0  0  0  0  0  0  0  0  0  0  0  0 
    1.5833   -1.7901    0.5437 H   0  0  0  0  0  0  0  0  0  0  0  0 
    7.6084   -1.2893    0.3563 H   0  0  0  0  0  0  0  0  0  0  0  0 
    4.0051   -2.9411   -1.2942 H   0  0  0  0  0  0  0  0  0  0  0  0 
    3.0053    2.5699    0.1822 H   0  0  0  0  0  0  0  0  0  0  0  0 
    6.7847    0.5981   -0.3431 H   0  0  0  0  0  0  0  0  0  0  0  0 
  1 19  1  0  0  0  0 
  1  4  2  0  0  0  0 
  2  5  2  0  0  0  0 
  3  1  1  0  0  0  0 
  4 22  1  0  0  0  0 
  5 10  1  0  0  0  0 
  5 23  1  0  0  0  0 
  6 11  2  0  0  0  0 
  6  2  1  0  0  0  0 
  7 25  1  0  0  0  0 
  7 12  1  0  0  0  0 
  8  3  2  0  0  0  0 
  8 14  1  0  0  0  0 
  9  4  1  0  0  0  0 
  9 27  1  0  0  0  0 
 10 28  1  0  0  0  0 
 11 15  1  0  0  0  0 
 12 30  1  0  0  0  0 
 13  7  2  0  0  0  0 
 14  9  2  0  0  0  0 
 15 17  1  0  0  0  0 
 15 10  2  0  0  0  0 
 16 14  1  0  0  0  0 
 16 12  2  0  0  0  0 
 17 18  2  0  0  0  0 
 17 13  1  0  0  0  0 
 18 16  1  0  0  0  0 
 20  2  1  0  0  0  0 
 21  3  1  0  0  0  0 
 24  6  1  0  0  0  0 
 26  8  1  0  0  0  0 
 29 11  1  0  0  0  0 
 31 13  1  0  0  0  0 
M  END 
>  <HBA> 
1 
 
>  <HBD> 
0 
 
>  <TPSA> 
12.89 
 
>  <cid> 
72920 
 
>  <dipole> 
1.32 
 
>  <excitation_energy_1> 
4.205 
 
>  <excitation_energy_2> 
4.436 
 
>  <excitation_energy_3> 
4.552 
 
>  <excitation_energy_4> 
4.581 
 
>  <homo_energy> 
-5.97 
 
>  <homo_lumo_gap> 
4.874 
 
>  <logP> 
4.416 
 
>  <lumo_energy> 
-1.097 
 
>  <melting_point> 
94.37 
 
>  <molecular_refractivity> 
75.11 
 
>  <oscillator_strength_1> 
0.2058 
 
>  <oscillator_strength_2> 
0.1393 
 
>  <oscillator_strength_3> 
0.0028 
 
>  <oscillator_strength_4> 
0.0081 
 
>  <open_babel_can_smiles> 
c1cc(nc(c1)c1ccccc1)c1ccccc1 
 
>  <mulliken_charges> 
31 
1   -0.123001 
2   -0.122912 
3   -0.137398 
4   -0.135171 
5   -0.137304 
6   -0.135394 
7   -0.103914 
8   -0.178601 
9   -0.159829 
10   -0.178714 
11   -0.159748 
12   -0.173525 
13   -0.173428 
14   0.098894 
15   0.098944 
16   0.256947 
17   0.256952 
18   -0.562709 
19   0.129605 
20   0.129597 
21   0.129387 
22   0.130904 
23   0.129378 
24   0.130959 
25   0.140738 
26   0.12846 
27   0.155595 
28   0.128518 
29   0.155512 
30   0.140652 
31   0.140609 
 
>  <lowdin_charges> 
31 
1   -0.150948 
2   -0.153543 
3   -0.158557 
4   -0.15563 
5   -0.155449 
6   -0.156817 
7   -0.125898 
8   -0.160154 
9   -0.145708 
10   -0.161559 
11   -0.142709 
12   -0.183042 
13   -0.179207 
14   -0.012134 
15   -0.011958 
16   0.059155 
17   0.057777 
18   -0.158842 
19   0.155939 
20   0.157842 
21   0.158508 
22   0.158096 
23   0.156212 
24   0.159191 
25   0.163039 
26   0.156641 
27   0.173157 
28   0.15777 
29   0.17082 
30   0.165277 
31   0.162731 
 
$$$$ 
 
