PCCDB-ID:  20324 
public computational chemistry database (PCCDB) project, http://pccdb.org 
 
 31 31  0  0  1  0  0  0  0  0999 V2000 
    1.1323    0.0838   -0.9533 C   0  0  0  0  0  0  0  0  0  0  0  0 
    2.5589   -2.6428   -0.6970 C   0  0  0  0  0  0  0  0  0  0  0  0 
    5.3053   -0.0468    0.4978 C   0  0  0  0  0  0  0  0  0  0  0  0 
    6.4043   -3.2539   -2.9076 C   0  0  0  0  0  0  0  0  0  0  0  0 
    2.6551   -0.1074   -0.9833 C   0  0  0  0  0  0  0  0  0  0  0  0 
    3.1381   -1.3223   -0.1623 C   0  0  2  0  0  0  0  0  0  0  0  0 
    5.0493   -2.4920    0.9851 C   0  0  0  0  0  0  0  0  0  0  0  0 
    5.3587   -1.6947   -1.3701 C   0  0  0  0  0  0  0  0  0  0  0  0 
    5.9718   -3.9559   -0.5598 C   0  0  0  0  0  0  0  0  0  0  0  0 
    4.7194   -1.3906   -0.0075 C   0  0  2  0  0  0  0  0  0  0  0  0 
    5.5862   -3.6256    0.7393 N   0  0  0  0  0  0  0  0  0  0  0  0 
    5.8764   -2.9565   -1.5705 N   0  0  0  0  0  0  0  0  0  0  0  0 
    4.7235   -2.2681    2.2727 O   0  0  0  0  0  0  0  0  0  0  0  0 
    5.3793   -0.8530   -2.2576 O   0  0  0  0  0  0  0  0  0  0  0  0 
    6.4024   -5.0571   -0.8321 O   0  0  0  0  0  0  0  0  0  0  0  0 
    0.8593    1.0149   -1.4616 H   0  0  0  0  0  0  0  0  0  0  0  0 
    0.7544    0.1458    0.0754 H   0  0  0  0  0  0  0  0  0  0  0  0 
    0.5994   -0.7295   -1.4563 H   0  0  0  0  0  0  0  0  0  0  0  0 
    1.4671   -2.6297   -0.6445 H   0  0  0  0  0  0  0  0  0  0  0  0 
    2.8999   -3.5087   -0.1208 H   0  0  0  0  0  0  0  0  0  0  0  0 
    2.8365   -2.8009   -1.7458 H   0  0  0  0  0  0  0  0  0  0  0  0 
    4.7078    0.3813    1.3125 H   0  0  0  0  0  0  0  0  0  0  0  0 
    5.3209    0.6733   -0.3207 H   0  0  0  0  0  0  0  0  0  0  0  0 
    6.3318   -0.1774    0.8560 H   0  0  0  0  0  0  0  0  0  0  0  0 
    5.6362   -3.0537   -3.6579 H   0  0  0  0  0  0  0  0  0  0  0  0 
    6.6933   -4.3019   -2.9209 H   0  0  0  0  0  0  0  0  0  0  0  0 
    7.2671   -2.6166   -3.1198 H   0  0  0  0  0  0  0  0  0  0  0  0 
    3.1197    0.8043   -0.5921 H   0  0  0  0  0  0  0  0  0  0  0  0 
    3.0020   -0.2053   -2.0168 H   0  0  0  0  0  0  0  0  0  0  0  0 
    2.7590   -1.1858    0.8634 H   0  0  0  0  0  0  0  0  0  0  0  0 
    4.3501   -1.3776    2.3699 H   0  0  0  0  0  0  0  0  0  0  0  0 
  1 17  1  0  0  0  0 
  2 19  1  0  0  0  0 
  2  6  1  0  0  0  0 
  2 20  1  0  0  0  0 
  3 24  1  0  0  0  0 
  3 22  1  0  0  0  0 
  4 12  1  0  0  0  0 
  5  1  1  0  0  0  0 
  5 28  1  0  0  0  0 
  5  6  1  0  0  0  0 
  6 10  1  0  0  0  0 
  6 30  1  1  0  0  0 
  7 13  1  0  0  0  0 
  8 10  1  0  0  0  0 
  9 11  1  0  0  0  0 
 10  3  1  1  0  0  0 
 10  7  1  0  0  0  0 
 11  7  2  0  0  0  0 
 12  8  1  0  0  0  0 
 12  9  1  0  0  0  0 
 13 31  1  0  0  0  0 
 14  8  2  0  0  0  0 
 15  9  2  0  0  0  0 
 16  1  1  0  0  0  0 
 18  1  1  0  0  0  0 
 21  2  1  0  0  0  0 
 23  3  1  0  0  0  0 
 25  4  1  0  0  0  0 
 26  4  1  0  0  0  0 
 27  4  1  0  0  0  0 
 29  5  1  0  0  0  0 
M  END 
>  <HBA> 
5 
 
>  <HBD> 
1 
 
>  <TPSA> 
66.48 
 
>  <cid> 
20324 
 
>  <dipole> 
5.14 
 
>  <excitation_energy_1> 
4.487 
 
>  <excitation_energy_2> 
4.812 
 
>  <excitation_energy_3> 
5.079 
 
>  <excitation_energy_4> 
5.264 
 
>  <homo_energy> 
-7.219 
 
>  <homo_lumo_gap> 
5.761 
 
>  <logP> 
1.014 
 
>  <lumo_energy> 
-1.459 
 
>  <melting_point> 
116.37 
 
>  <molecular_refractivity> 
62.33 
 
>  <oscillator_strength_1> 
0.0007 
 
>  <oscillator_strength_2> 
0.0006 
 
>  <oscillator_strength_3> 
0.0029 
 
>  <oscillator_strength_4> 
0.0518 
 
>  <open_babel_can_smiles> 
CC[C@H]([C@@]1(C)C(=NC(=O)N(C1=O)C)O)C 
 
>  <mulliken_charges> 
31 
1   -0.454175 
2   -0.485565 
3   -0.495372 
4   -0.32291 
5   -0.258603 
6   -0.079871 
7   0.543337 
8   0.634942 
9   0.699993 
10   -0.117125 
11   -0.490036 
12   -0.507127 
13   -0.566546 
14   -0.511655 
15   -0.463231 
16   0.153279 
17   0.139488 
18   0.153501 
19   0.163983 
20   0.171414 
21   0.162032 
22   0.139573 
23   0.210566 
24   0.175392 
25   0.175386 
26   0.204982 
27   0.177401 
28   0.137529 
29   0.172933 
30   0.113191 
31   0.423291 
 
>  <lowdin_charges> 
31 
1   -0.446666 
2   -0.455032 
3   -0.444882 
4   -0.351127 
5   -0.279832 
6   -0.110339 
7   0.160647 
8   0.167257 
9   0.183066 
10   -0.052827 
11   -0.185123 
12   -0.089761 
13   -0.318017 
14   -0.280314 
15   -0.244304 
16   0.156779 
17   0.144178 
18   0.152166 
19   0.160199 
20   0.163122 
21   0.155954 
22   0.147277 
23   0.185739 
24   0.164676 
25   0.166807 
26   0.184165 
27   0.1661 
28   0.147342 
29   0.160533 
30   0.131142 
31   0.361076 
 
$$$$ 
 
