PCCDB-ID:  71682 
public computational chemistry database (PCCDB) project, http://pccdb.org 
 
 27 28  0  0  1  0  0  0  0  0999 V2000 
    2.1264   -0.8314   -1.8397 C   0  0  0  0  0  0  0  0  0  0  0  0 
    2.9541   -0.8135   -0.5514 C   0  0  0  0  0  0  0  0  0  0  0  0 
    7.5588    4.0336    4.1639 C   0  0  0  0  0  0  0  0  0  0  0  0 
    8.1141    4.4266    2.9465 C   0  0  0  0  0  0  0  0  0  0  0  0 
    6.4335    3.2042    4.1797 C   0  0  0  0  0  0  0  0  0  0  0  0 
    7.5442    3.9891    1.7481 C   0  0  0  0  0  0  0  0  0  0  0  0 
    5.8709    2.7558    2.9860 C   0  0  0  0  0  0  0  0  0  0  0  0 
    6.4260    3.1456    1.7616 C   0  0  0  0  0  0  0  0  0  0  0  0 
    5.8862    2.6096    0.4526 C   0  0  1  0  0  0  0  0  0  0  0  0 
    6.4587    1.2454    0.0800 C   0  0  0  0  0  0  0  0  0  0  0  0 
    4.3217    1.0007    0.0347 C   0  0  0  0  0  0  0  0  0  0  0  0 
    3.1522    0.5574   -0.0981 N   0  0  0  0  0  0  0  0  0  0  0  0 
    5.5686    0.3647   -0.1710 N   0  0  0  0  0  0  0  0  0  0  0  0 
    7.7700    1.0134    0.0090 O   0  0  0  0  0  0  0  0  0  0  0  0 
    4.5000    2.3207    0.4703 O   0  0  0  0  0  0  0  0  0  0  0  0 
    1.9112   -1.8626   -2.1433 H   0  0  0  0  0  0  0  0  0  0  0  0 
    2.6677   -0.3401   -2.6559 H   0  0  0  0  0  0  0  0  0  0  0  0 
    1.1780   -0.3033   -1.6967 H   0  0  0  0  0  0  0  0  0  0  0  0 
    3.9021   -1.3475   -0.7008 H   0  0  0  0  0  0  0  0  0  0  0  0 
    2.3981   -1.3401    0.2361 H   0  0  0  0  0  0  0  0  0  0  0  0 
    7.9941    4.3786    5.0976 H   0  0  0  0  0  0  0  0  0  0  0  0 
    8.9770    5.0864    2.9254 H   0  0  0  0  0  0  0  0  0  0  0  0 
    5.9915    2.9073    5.1268 H   0  0  0  0  0  0  0  0  0  0  0  0 
    7.9523    4.3345    0.7990 H   0  0  0  0  0  0  0  0  0  0  0  0 
    4.9908    2.1207    2.9929 H   0  0  0  0  0  0  0  0  0  0  0  0 
    6.1059    3.3272   -0.3546 H   0  0  0  0  0  0  0  0  0  0  0  0 
    8.2448    1.7646    0.4083 H   0  0  0  0  0  0  0  0  0  0  0  0 
  1 18  1  0  0  0  0 
  1  2  1  0  0  0  0 
  2 12  1  0  0  0  0 
  2 20  1  0  0  0  0 
  3  5  1  0  0  0  0 
  3 21  1  0  0  0  0 
  4  3  2  0  0  0  0 
  5 23  1  0  0  0  0 
  6  8  2  0  0  0  0 
  6  4  1  0  0  0  0 
  7 25  1  0  0  0  0 
  7  5  2  0  0  0  0 
  8  7  1  0  0  0  0 
  9 26  1  6  0  0  0 
  9 15  1  0  0  0  0 
  9  8  1  0  0  0  0 
 10  9  1  0  0  0  0 
 11 15  1  0  0  0  0 
 12 11  1  0  0  0  0 
 13 11  2  0  0  0  0 
 13 10  2  0  0  0  0 
 14 10  1  0  0  0  0 
 14 27  1  0  0  0  0 
 16  1  1  0  0  0  0 
 17  1  1  0  0  0  0 
 19  2  1  0  0  0  0 
 22  4  1  0  0  0  0 
 24  6  1  0  0  0  0 
M  RAD  1  12   2 
M  END 
>  <HBA> 
4 
 
>  <HBD> 
1 
 
>  <TPSA> 
50.69 
 
>  <cid> 
71682 
 
>  <dipole> 
5.13 
 
>  <excitation_energy_1> 
4.773 
 
>  <excitation_energy_2> 
4.876 
 
>  <excitation_energy_3> 
5.035 
 
>  <excitation_energy_4> 
5.188 
 
>  <homo_energy> 
-6.493 
 
>  <homo_lumo_gap> 
5.532 
 
>  <logP> 
1.077 
 
>  <lumo_energy> 
-0.961 
 
>  <melting_point> 
84.56 
 
>  <molecular_refractivity> 
59.62 
 
>  <oscillator_strength_1> 
0.0027 
 
>  <oscillator_strength_2> 
0.0725 
 
>  <oscillator_strength_3> 
0.0015 
 
>  <oscillator_strength_4> 
0.0099 
 
>  <open_babel_can_smiles> 
CC[N]C1=[N]=C([C@@H](O1)c1ccccc1)O 
 
>  <mulliken_charges> 
27 
1   -0.433826 
2   -0.151183 
3   -0.123789 
4   -0.126964 
5   -0.127996 
6   -0.215796 
7   -0.169404 
8   0.140749 
9   -0.016974 
10   0.5167 
11   0.671994 
12   -0.474312 
13   -0.472267 
14   -0.575736 
15   -0.500678 
16   0.136033 
17   0.145048 
18   0.155213 
19   0.153691 
20   0.140886 
21   0.14166 
22   0.141854 
23   0.145492 
24   0.133796 
25   0.167445 
26   0.175756 
27   0.422609 
 
>  <lowdin_charges> 
27 
1   -0.445259 
2   -0.194418 
3   -0.150195 
4   -0.148109 
5   -0.142775 
6   -0.187707 
7   -0.147236 
8   -0.026155 
9   -0.029477 
10   0.133122 
11   0.145918 
12   -0.197392 
13   -0.188993 
14   -0.31714 
15   -0.202064 
16   0.146993 
17   0.14988 
18   0.154203 
19   0.14225 
20   0.145738 
21   0.164108 
22   0.163551 
23   0.165513 
24   0.156106 
25   0.176061 
26   0.16327 
27   0.370208 
 
$$$$ 
 
