PCCDB-ID:  7531 
public computational chemistry database (PCCDB) project, http://pccdb.org 
 
 25 25  0  0  0  0  0  0  0  0999 V2000 
    0.7194    0.2985   -0.3799 C   0  0  0  0  0  0  0  0  0  0  0  0 
    2.8397    1.6411   -0.6796 C   0  0  0  0  0  0  0  0  0  0  0  0 
    1.3165    2.7569    4.3181 C   0  0  0  0  0  0  0  0  0  0  0  0 
    2.5451    2.9487    3.6840 C   0  0  0  0  0  0  0  0  0  0  0  0 
    0.5272    1.6606    3.9669 C   0  0  0  0  0  0  0  0  0  0  0  0 
    2.9752    2.0535    2.7037 C   0  0  0  0  0  0  0  0  0  0  0  0 
    0.9626    0.7691    2.9855 C   0  0  0  0  0  0  0  0  0  0  0  0 
    2.6568   -0.0131    1.2628 C   0  0  0  0  0  0  0  0  0  0  0  0 
    2.1888    0.9536    2.3296 C   0  0  0  0  0  0  0  0  0  0  0  0 
    2.2428    0.3127   -0.1965 C   0  0  0  0  0  0  0  0  0  0  0  0 
    2.8237   -0.7724   -0.9434 O   0  0  0  0  0  0  0  0  0  0  0  0 
    0.2329    1.0895    0.1997 H   0  0  0  0  0  0  0  0  0  0  0  0 
    0.3064   -0.6675   -0.0695 H   0  0  0  0  0  0  0  0  0  0  0  0 
    0.4615    0.4525   -1.4361 H   0  0  0  0  0  0  0  0  0  0  0  0 
    2.4662    2.4890   -0.0967 H   0  0  0  0  0  0  0  0  0  0  0  0 
    2.5771    1.8177   -1.7310 H   0  0  0  0  0  0  0  0  0  0  0  0 
    3.9321    1.6175   -0.6034 H   0  0  0  0  0  0  0  0  0  0  0  0 
    0.9816    3.4500    5.0853 H   0  0  0  0  0  0  0  0  0  0  0  0 
    3.1742    3.7920    3.9575 H   0  0  0  0  0  0  0  0  0  0  0  0 
   -0.4261    1.4938    4.4620 H   0  0  0  0  0  0  0  0  0  0  0  0 
    3.9404    2.2049    2.2257 H   0  0  0  0  0  0  0  0  0  0  0  0 
    0.3459   -0.0896    2.7302 H   0  0  0  0  0  0  0  0  0  0  0  0 
    2.2816   -1.0201    1.4794 H   0  0  0  0  0  0  0  0  0  0  0  0 
    3.7511   -0.0788    1.2722 H   0  0  0  0  0  0  0  0  0  0  0  0 
    2.6037   -0.6282   -1.8777 H   0  0  0  0  0  0  0  0  0  0  0  0 
  1 10  1  0  0  0  0 
  1 13  1  0  0  0  0 
  1 12  1  0  0  0  0 
  2 17  1  0  0  0  0 
  2 10  1  0  0  0  0 
  2 15  1  0  0  0  0 
  3 18  1  0  0  0  0 
  4 19  1  0  0  0  0 
  4  3  2  0  0  0  0 
  5  3  1  0  0  0  0 
  5 20  1  0  0  0  0 
  6  4  1  0  0  0  0 
  7  5  2  0  0  0  0 
  8 24  1  0  0  0  0 
  8 23  1  0  0  0  0 
  8  9  1  0  0  0  0 
  9  6  2  0  0  0  0 
  9  7  1  0  0  0  0 
 10  8  1  0  0  0  0 
 11 10  1  0  0  0  0 
 14  1  1  0  0  0  0 
 16  2  1  0  0  0  0 
 21  6  1  0  0  0  0 
 22  7  1  0  0  0  0 
 25 11  1  0  0  0  0 
M  END 
>  <HBA> 
1 
 
>  <HBD> 
1 
 
>  <TPSA> 
20.23 
 
>  <cid> 
7531 
 
>  <dipole> 
1.48 
 
>  <excitation_energy_1> 
5.288 
 
>  <excitation_energy_2> 
5.859 
 
>  <excitation_energy_3> 
6.007 
 
>  <excitation_energy_4> 
6.204 
 
>  <homo_energy> 
-6.479 
 
>  <homo_lumo_gap> 
6.517 
 
>  <logP> 
2.0 
 
>  <lumo_energy> 
0.038 
 
>  <melting_point> 
34.8 
 
>  <molecular_refractivity> 
47.03 
 
>  <oscillator_strength_1> 
0.0001 
 
>  <oscillator_strength_2> 
0.0433 
 
>  <oscillator_strength_3> 
0.0051 
 
>  <oscillator_strength_4> 
0.0005 
 
>  <open_babel_can_smiles> 
CC(Cc1ccccc1)(O)C 
 
>  <mulliken_charges> 
25 
1   -0.460772 
2   -0.461977 
3   -0.131653 
4   -0.128818 
5   -0.128894 
6   -0.184396 
7   -0.183911 
8   -0.357263 
9   0.170788 
10   0.314088 
11   -0.638908 
12   0.155965 
13   0.149758 
14   0.127764 
15   0.156177 
16   0.128043 
17   0.149985 
18   0.127837 
19   0.128311 
20   0.128324 
21   0.126382 
22   0.126243 
23   0.152491 
24   0.152211 
25   0.382224 
 
>  <lowdin_charges> 
25 
1   -0.460388 
2   -0.458464 
3   -0.161655 
4   -0.157484 
5   -0.156253 
6   -0.166952 
7   -0.167954 
8   -0.275625 
9   -0.002211 
10   0.127593 
11   -0.46354 
12   0.160161 
13   0.153536 
14   0.14238 
15   0.159973 
16   0.142472 
17   0.151747 
18   0.157757 
19   0.157596 
20   0.156653 
21   0.155053 
22   0.155991 
23   0.157292 
24   0.155719 
25   0.336602 
 
$$$$ 
 
