PCCDB-ID:  39087 
public computational chemistry database (PCCDB) project, http://pccdb.org 
 
 27 27  0  0  1  0  0  0  0  0999 V2000 
    0.3399   -0.2261    0.5661 C   0  0  0  0  0  0  0  0  0  0  0  0 
    2.2496   -2.4927    0.0816 C   0  0  0  0  0  0  0  0  0  0  0  0 
    4.0036   -0.9288   -0.4568 C   0  0  0  0  0  0  0  0  0  0  0  0 
    3.1202   -3.5507   -0.1398 C   0  0  0  0  0  0  0  0  0  0  0  0 
    4.8895   -1.9772   -0.6846 C   0  0  0  0  0  0  0  0  0  0  0  0 
    6.6066   -4.2286   -1.0590 C   0  0  0  0  0  0  0  0  0  0  0  0 
    1.7843    0.0160    0.1561 C   0  0  0  0  0  0  0  0  0  0  0  0 
    2.6763   -1.1622   -0.0718 C   0  0  0  0  0  0  0  0  0  0  0  0 
    4.4441   -3.2958   -0.5230 C   0  0  0  0  0  0  0  0  0  0  0  0 
    7.2166   -5.6172   -1.1579 C   0  0  1  0  0  0  0  0  0  0  0  0 
    8.9896   -4.6991   -2.2081 N   0  0  0  0  0  0  0  0  0  0  0  0 
    8.3391   -5.8868   -1.7003 N   0  0  0  0  0  0  0  0  0  0  0  0 
    2.2064    1.1549    0.0162 O   0  0  0  0  0  0  0  0  0  0  0  0 
    6.5143   -6.6256   -0.5998 O   0  0  0  0  0  0  0  0  0  0  0  0 
    5.2278   -4.3982   -0.7227 O   0  0  0  0  0  0  0  0  0  0  0  0 
   -0.1911   -0.8215   -0.1862 H   0  0  0  0  0  0  0  0  0  0  0  0 
   -0.1567    0.7390    0.6784 H   0  0  0  0  0  0  0  0  0  0  0  0 
    0.2851   -0.7734    1.5150 H   0  0  0  0  0  0  0  0  0  0  0  0 
    1.2283   -2.7115    0.3775 H   0  0  0  0  0  0  0  0  0  0  0  0 
    4.3274    0.1000   -0.5763 H   0  0  0  0  0  0  0  0  0  0  0  0 
    2.7966   -4.5802   -0.0233 H   0  0  0  0  0  0  0  0  0  0  0  0 
    5.9077   -1.7640   -0.9888 H   0  0  0  0  0  0  0  0  0  0  0  0 
    6.7361   -3.7156   -2.0172 H   0  0  0  0  0  0  0  0  0  0  0  0 
    7.1090   -3.6347   -0.2827 H   0  0  0  0  0  0  0  0  0  0  0  0 
    9.6813   -5.0570   -2.8650 H   0  0  0  0  0  0  0  0  0  0  0  0 
    9.5463   -4.3106   -1.4420 H   0  0  0  0  0  0  0  0  0  0  0  0 
    5.6442   -6.2642   -0.3525 H   0  0  0  0  0  0  0  0  0  0  0  0 
  1 17  1  0  0  0  0 
  1 18  1  0  0  0  0 
  2 19  1  0  0  0  0 
  3  8  2  0  0  0  0 
  4 21  1  0  0  0  0 
  4  2  2  0  0  0  0 
  5  9  2  0  0  0  0 
  5  3  1  0  0  0  0 
  6 15  1  0  0  0  0 
  6 24  1  0  0  0  0 
  7  1  1  0  0  0  0 
  8  2  1  0  0  0  0 
  8  7  1  0  0  0  0 
  9  4  1  0  0  0  0 
 10 12  1  1  0  0  0 
 10  6  1  0  0  0  0 
 10 14  1  0  0  0  0 
 11 12  1  0  0  0  0 
 11 26  1  0  0  0  0 
 13  7  2  0  0  0  0 
 14 27  1  0  0  0  0 
 15  9  1  0  0  0  0 
 16  1  1  0  0  0  0 
 20  3  1  0  0  0  0 
 22  5  1  0  0  0  0 
 23  6  1  0  0  0  0 
 25 11  1  0  0  0  0 
M  RAD  2  10   2  12   2 
M  END 
>  <HBA> 
5 
 
>  <HBD> 
2 
 
>  <TPSA> 
81.42 
 
>  <cid> 
39087 
 
>  <dipole> 
1.09 
 
>  <excitation_energy_1> 
3.797 
 
>  <excitation_energy_2> 
4.101 
 
>  <excitation_energy_3> 
4.753 
 
>  <excitation_energy_4> 
4.84 
 
>  <homo_energy> 
-5.984 
 
>  <homo_lumo_gap> 
4.498 
 
>  <logP> 
1.349 
 
>  <lumo_energy> 
-1.486 
 
>  <melting_point> 
146.47 
 
>  <molecular_refractivity> 
53.64 
 
>  <oscillator_strength_1> 
0.0001 
 
>  <oscillator_strength_2> 
0.0011 
 
>  <oscillator_strength_3> 
0.3869 
 
>  <oscillator_strength_4> 
0.0224 
 
>  <open_babel_can_smiles> 
N[N][C](COc1ccc(cc1)C(=O)C)O 
 
>  <mulliken_charges> 
27 
1   -0.54396 
2   -0.1861 
3   -0.172074 
4   -0.181291 
5   -0.190001 
6   -0.111067 
7   0.407769 
8   0.07755 
9   0.39957 
10   0.508948 
11   -0.613975 
12   -0.360286 
13   -0.456972 
14   -0.590849 
15   -0.563772 
16   0.170307 
17   0.183 
18   0.170072 
19   0.141108 
20   0.171268 
21   0.142676 
22   0.151871 
23   0.20721 
24   0.170509 
25   0.328163 
26   0.309046 
27   0.431278 
 
>  <lowdin_charges> 
27 
1   -0.477249 
2   -0.136532 
3   -0.11229 
4   -0.182657 
5   -0.204163 
6   -0.160322 
7   0.160931 
8   -0.066989 
9   0.114658 
10   0.099719 
11   -0.47602 
12   -0.175941 
13   -0.247459 
14   -0.351301 
15   -0.207066 
16   0.17051 
17   0.17578 
18   0.169276 
19   0.164499 
20   0.179549 
21   0.167104 
22   0.169067 
23   0.178909 
24   0.160731 
25   0.268294 
26   0.256763 
27   0.3622 
 
$$$$ 
 
