PCCDB-ID:  31285 
public computational chemistry database (PCCDB) project, http://pccdb.org 
 
 27 26  0  0  0  0  0  0  0  0999 V2000 
    2.8215   -2.1111    0.0192 C   0  0  0  0  0  0  0  0  0  0  0  0 
    8.0251    3.7588   -1.3204 C   0  0  0  0  0  0  0  0  0  0  0  0 
    3.2836   -1.5229    1.1233 C   0  0  0  0  0  0  0  0  0  0  0  0 
    6.8077    2.8819   -1.6380 C   0  0  0  0  0  0  0  0  0  0  0  0 
    4.5529   -0.7206    1.2181 C   0  0  0  0  0  0  0  0  0  0  0  0 
    5.8759    2.6237   -0.4408 C   0  0  0  0  0  0  0  0  0  0  0  0 
    4.3009    0.7417    1.6378 C   0  0  0  0  0  0  0  0  0  0  0  0 
    6.5002    1.7787    0.6796 C   0  0  0  0  0  0  0  0  0  0  0  0 
    5.5808    1.5561    1.8947 C   0  0  0  0  0  0  0  0  0  0  0  0 
    1.8906   -2.6720    0.0140 H   0  0  0  0  0  0  0  0  0  0  0  0 
    3.3605   -2.0576   -0.9250 H   0  0  0  0  0  0  0  0  0  0  0  0 
    8.6063    3.9676   -2.2259 H   0  0  0  0  0  0  0  0  0  0  0  0 
    8.6995    3.2806   -0.6013 H   0  0  0  0  0  0  0  0  0  0  0  0 
    7.7157    4.7219   -0.8948 H   0  0  0  0  0  0  0  0  0  0  0  0 
    2.7042   -1.6025    2.0456 H   0  0  0  0  0  0  0  0  0  0  0  0 
    7.1475    1.9187   -2.0455 H   0  0  0  0  0  0  0  0  0  0  0  0 
    6.2257    3.3602   -2.4372 H   0  0  0  0  0  0  0  0  0  0  0  0 
    5.0785   -0.7581    0.2560 H   0  0  0  0  0  0  0  0  0  0  0  0 
    5.2228   -1.1842    1.9598 H   0  0  0  0  0  0  0  0  0  0  0  0 
    4.9679    2.1280   -0.8090 H   0  0  0  0  0  0  0  0  0  0  0  0 
    5.5483    3.5886   -0.0245 H   0  0  0  0  0  0  0  0  0  0  0  0 
    3.7003    0.7438    2.5585 H   0  0  0  0  0  0  0  0  0  0  0  0 
    3.6806    1.2307    0.8758 H   0  0  0  0  0  0  0  0  0  0  0  0 
    7.4163    2.2668    1.0370 H   0  0  0  0  0  0  0  0  0  0  0  0 
    6.8187    0.8107    0.2666 H   0  0  0  0  0  0  0  0  0  0  0  0 
    6.1586    1.0573    2.6862 H   0  0  0  0  0  0  0  0  0  0  0  0 
    5.2947    2.5365    2.3019 H   0  0  0  0  0  0  0  0  0  0  0  0 
  1  3  2  0  0  0  0 
  2 14  1  0  0  0  0 
  2 13  1  0  0  0  0 
  3  5  1  0  0  0  0 
  3 15  1  0  0  0  0 
  4  2  1  0  0  0  0 
  4  6  1  0  0  0  0 
  5  7  1  0  0  0  0 
  5 19  1  0  0  0  0 
  6 21  1  0  0  0  0 
  6  8  1  0  0  0  0 
  7  9  1  0  0  0  0 
  7 22  1  0  0  0  0 
  8 24  1  0  0  0  0 
  8  9  1  0  0  0  0 
  9 27  1  0  0  0  0 
  9 26  1  0  0  0  0 
 10  1  1  0  0  0  0 
 11  1  1  0  0  0  0 
 12  2  1  0  0  0  0 
 16  4  1  0  0  0  0 
 17  4  1  0  0  0  0 
 18  5  1  0  0  0  0 
 20  6  1  0  0  0  0 
 23  7  1  0  0  0  0 
 25  8  1  0  0  0  0 
M  END 
>  <HBA> 
0 
 
>  <HBD> 
0 
 
>  <TPSA> 
0.0 
 
>  <cid> 
31285 
 
>  <dipole> 
0.37 
 
>  <excitation_energy_1> 
6.419 
 
>  <excitation_energy_2> 
6.71 
 
>  <excitation_energy_3> 
6.786 
 
>  <excitation_energy_4> 
6.861 
 
>  <homo_energy> 
-6.759 
 
>  <homo_lumo_gap> 
7.486 
 
>  <logP> 
3.533 
 
>  <lumo_energy> 
0.727 
 
>  <melting_point> 
-49.15 
 
>  <molecular_refractivity> 
44.9 
 
>  <oscillator_strength_1> 
0.0281 
 
>  <oscillator_strength_2> 
0.0069 
 
>  <oscillator_strength_3> 
0.0458 
 
>  <oscillator_strength_4> 
0.1047 
 
>  <open_babel_can_smiles> 
CCCCCCCC=C 
 
>  <mulliken_charges> 
27 
1   -0.342261 
2   -0.442868 
3   -0.040973 
4   -0.248777 
5   -0.301963 
6   -0.251283 
7   -0.257811 
8   -0.258258 
9   -0.258606 
10   0.136327 
11   0.132463 
12   0.141669 
13   0.145905 
14   0.140252 
15   0.121876 
16   0.128833 
17   0.130316 
18   0.140249 
19   0.138265 
20   0.133071 
21   0.125017 
22   0.129003 
23   0.141964 
24   0.132639 
25   0.130414 
26   0.126178 
27   0.12836 
 
>  <lowdin_charges> 
27 
1   -0.34572 
2   -0.448803 
3   -0.143088 
4   -0.273921 
5   -0.275383 
6   -0.278558 
7   -0.278309 
8   -0.280655 
9   -0.277017 
10   0.156651 
11   0.15236 
12   0.149917 
13   0.14809 
14   0.14547 
15   0.147565 
16   0.138261 
17   0.14259 
18   0.145736 
19   0.147835 
20   0.141829 
21   0.136535 
22   0.141645 
23   0.144898 
24   0.142845 
25   0.13771 
26   0.140734 
27   0.140783 
 
$$$$ 
 
