PCCDB-ID:  45588 
public computational chemistry database (PCCDB) project, http://pccdb.org 
 
 31 33  0  0  1  0  0  0  0  0999 V2000 
    0.9937   -0.2276   -0.0379 C   0  0  0  0  0  0  0  0  0  0  0  0 
    5.3766   -3.0778    0.1331 C   0  0  0  0  0  0  0  0  0  0  0  0 
    4.0425   -3.5325    0.1111 C   0  0  0  0  0  0  0  0  0  0  0  0 
    6.7733    3.4615    1.2944 C   0  0  0  0  0  0  0  0  0  0  0  0 
    5.6724   -1.7199    0.1194 C   0  0  0  0  0  0  0  0  0  0  0  0 
    6.1960    2.0317    1.4869 C   0  0  0  0  0  0  0  0  0  0  0  0 
    2.9780   -2.6381    0.0721 C   0  0  0  0  0  0  0  0  0  0  0  0 
    6.4515    3.8145   -0.1769 C   0  0  0  0  0  0  0  0  0  0  0  0 
    3.2160    0.9698    0.0125 C   0  0  0  0  0  0  0  0  0  0  0  0 
    4.6199   -0.7890    0.0779 C   0  0  0  0  0  0  0  0  0  0  0  0 
    4.5503    0.6503    0.0487 C   0  0  0  0  0  0  0  0  0  0  0  0 
    5.6961    1.6181    0.0765 C   0  0  1  0  0  0  0  0  0  0  0  0 
    3.2802   -1.2716    0.0559 C   0  0  0  0  0  0  0  0  0  0  0  0 
    5.3356    2.9220   -0.5009 N   0  0  0  0  0  0  0  0  0  0  0  0 
    2.4389   -0.1767    0.0177 N   0  0  0  0  0  0  0  0  0  0  0  0 
    0.6027    0.7921   -0.0369 H   0  0  0  0  0  0  0  0  0  0  0  0 
    0.5853   -0.7569    0.8315 H   0  0  0  0  0  0  0  0  0  0  0  0 
    0.6479   -0.7331   -0.9482 H   0  0  0  0  0  0  0  0  0  0  0  0 
    6.1848   -3.8036    0.1651 H   0  0  0  0  0  0  0  0  0  0  0  0 
    3.8416   -4.6003    0.1260 H   0  0  0  0  0  0  0  0  0  0  0  0 
    7.8499    3.5096    1.4856 H   0  0  0  0  0  0  0  0  0  0  0  0 
    6.2912    4.1666    1.9782 H   0  0  0  0  0  0  0  0  0  0  0  0 
    6.7057   -1.3826    0.1408 H   0  0  0  0  0  0  0  0  0  0  0  0 
    5.3486    2.0443    2.1781 H   0  0  0  0  0  0  0  0  0  0  0  0 
    6.9309    1.3203    1.8755 H   0  0  0  0  0  0  0  0  0  0  0  0 
    1.9509   -2.9924    0.0530 H   0  0  0  0  0  0  0  0  0  0  0  0 
    7.3409    3.6283   -0.8073 H   0  0  0  0  0  0  0  0  0  0  0  0 
    6.1624    4.8624   -0.3144 H   0  0  0  0  0  0  0  0  0  0  0  0 
    2.7548    1.9467   -0.0239 H   0  0  0  0  0  0  0  0  0  0  0  0 
    6.5525    1.1624   -0.4609 H   0  0  0  0  0  0  0  0  0  0  0  0 
    5.1815    2.8486   -1.5049 H   0  0  0  0  0  0  0  0  0  0  0  0 
  1 16  1  0  0  0  0 
  1 15  1  0  0  0  0 
  1 17  1  0  0  0  0 
  2 19  1  0  0  0  0 
  3 20  1  0  0  0  0 
  3  2  2  0  0  0  0 
  4 21  1  0  0  0  0 
  4  6  1  0  0  0  0 
  4 22  1  0  0  0  0 
  5  2  1  0  0  0  0 
  5 23  1  0  0  0  0 
  6 25  1  0  0  0  0 
  6 24  1  0  0  0  0 
  7  3  1  0  0  0  0 
  8  4  1  0  0  0  0 
  9 15  1  0  0  0  0 
  9 11  2  0  0  0  0 
 10  5  2  0  0  0  0 
 11 12  1  0  0  0  0 
 11 10  1  0  0  0  0 
 12 30  1  6  0  0  0 
 12  6  1  0  0  0  0 
 13  7  2  0  0  0  0 
 13 10  1  0  0  0  0 
 14  8  1  0  0  0  0 
 14 12  1  0  0  0  0 
 15 13  1  0  0  0  0 
 18  1  1  0  0  0  0 
 26  7  1  0  0  0  0 
 27  8  1  0  0  0  0 
 28  8  1  0  0  0  0 
 29  9  1  0  0  0  0 
 31 14  1  0  0  0  0 
M  END 
>  <HBA> 
2 
 
>  <HBD> 
1 
 
>  <TPSA> 
16.96 
 
>  <cid> 
45588 
 
>  <dipole> 
1.67 
 
>  <excitation_energy_1> 
4.37 
 
>  <excitation_energy_2> 
4.663 
 
>  <excitation_energy_3> 
4.755 
 
>  <excitation_energy_4> 
4.926 
 
>  <homo_energy> 
-5.097 
 
>  <homo_lumo_gap> 
5.099 
 
>  <logP> 
2.932 
 
>  <lumo_energy> 
0.003 
 
>  <melting_point> 
103.42 
 
>  <molecular_refractivity> 
67.19 
 
>  <oscillator_strength_1> 
0.0757 
 
>  <oscillator_strength_2> 
0.0108 
 
>  <oscillator_strength_3> 
0.0181 
 
>  <oscillator_strength_4> 
0.0036 
 
>  <open_babel_can_smiles> 
Cn1cc(c2c1cccc2)[C@@H]1CCCN1 
 
>  <mulliken_charges> 
31 
1   -0.320667 
2   -0.14033 
3   -0.152135 
4   -0.281295 
5   -0.213973 
6   -0.2576 
7   -0.16905 
8   -0.117104 
9   -0.008362 
10   0.071503 
11   0.040645 
12   -0.027964 
13   0.303186 
14   -0.573946 
15   -0.50344 
16   0.169359 
17   0.169431 
18   0.168505 
19   0.116938 
20   0.119098 
21   0.135669 
22   0.145105 
23   0.120376 
24   0.146193 
25   0.135785 
26   0.120311 
27   0.112026 
28   0.136417 
29   0.156353 
30   0.105189 
31   0.293778 
 
>  <lowdin_charges> 
31 
1   -0.344888 
2   -0.178661 
3   -0.165179 
4   -0.286971 
5   -0.165127 
6   -0.284501 
7   -0.189591 
8   -0.204836 
9   -0.13501 
10   -0.03301 
11   -0.073072 
12   -0.057057 
13   0.022292 
14   -0.36382 
15   -0.02693 
16   0.165709 
17   0.158816 
18   0.15733 
19   0.153826 
20   0.152105 
21   0.143594 
22   0.15068 
23   0.152484 
24   0.151852 
25   0.147975 
26   0.154124 
27   0.116955 
28   0.141634 
29   0.168943 
30   0.119115 
31   0.251219 
 
$$$$ 
 
