PCCDB-ID:  70160 
public computational chemistry database (PCCDB) project, http://pccdb.org 
 
 26 27  0  0  0  0  0  0  0  0999 V2000 
    2.5694    1.4334    0.0318 C   0  0  0  0  0  0  0  0  0  0  0  0 
    2.9795    0.0949   -0.0117 C   0  0  0  0  0  0  0  0  0  0  0  0 
   -3.6199   -1.1887   -1.5282 C   0  0  0  0  0  0  0  0  0  0  0  0 
    1.2100    1.7751    0.0160 C   0  0  0  0  0  0  0  0  0  0  0  0 
    2.0441   -0.9471   -0.0725 C   0  0  0  0  0  0  0  0  0  0  0  0 
   -3.0080   -1.0040   -0.1341 C   0  0  0  0  0  0  0  0  0  0  0  0 
   -2.9529   -2.2914   -2.3645 C   0  0  0  0  0  0  0  0  0  0  0  0 
    0.2928    0.7369   -0.0438 C   0  0  0  0  0  0  0  0  0  0  0  0 
    0.7021   -0.5974   -0.0872 C   0  0  0  0  0  0  0  0  0  0  0  0 
   -1.1997    0.7657   -0.0712 C   0  0  0  0  0  0  0  0  0  0  0  0 
   -0.5164   -1.4545   -0.1508 C   0  0  0  0  0  0  0  0  0  0  0  0 
   -1.6062   -0.5833   -0.1417 N   0  0  0  0  0  0  0  0  0  0  0  0 
   -2.9129   -3.5389   -1.6953 O   0  0  0  0  0  0  0  0  0  0  0  0 
   -1.9499    1.7185   -0.0319 O   0  0  0  0  0  0  0  0  0  0  0  0 
   -0.5788   -2.6740   -0.2039 O   0  0  0  0  0  0  0  0  0  0  0  0 
    3.3186    2.2184    0.0795 H   0  0  0  0  0  0  0  0  0  0  0  0 
    4.0404   -0.1377    0.0011 H   0  0  0  0  0  0  0  0  0  0  0  0 
   -3.5895   -0.2375   -2.0755 H   0  0  0  0  0  0  0  0  0  0  0  0 
   -4.6760   -1.4476   -1.3804 H   0  0  0  0  0  0  0  0  0  0  0  0 
    0.8813    2.8092    0.0493 H   0  0  0  0  0  0  0  0  0  0  0  0 
    2.3509   -1.9878   -0.1067 H   0  0  0  0  0  0  0  0  0  0  0  0 
   -3.0609   -1.9449    0.4202 H   0  0  0  0  0  0  0  0  0  0  0  0 
   -3.5568   -0.2402    0.4221 H   0  0  0  0  0  0  0  0  0  0  0  0 
   -1.9446   -1.9727   -2.6734 H   0  0  0  0  0  0  0  0  0  0  0  0 
   -3.5323   -2.4389   -3.2831 H   0  0  0  0  0  0  0  0  0  0  0  0 
   -2.1436   -3.5101   -1.0967 H   0  0  0  0  0  0  0  0  0  0  0  0 
  1 16  1  0  0  0  0 
  2 17  1  0  0  0  0 
  2  1  2  0  0  0  0 
  3 19  1  0  0  0  0 
  3  6  1  0  0  0  0 
  4  1  1  0  0  0  0 
  4 20  1  0  0  0  0 
  5  2  1  0  0  0  0 
  6 22  1  0  0  0  0 
  6 23  1  0  0  0  0 
  7 13  1  0  0  0  0 
  7  3  1  0  0  0  0 
  8  4  2  0  0  0  0 
  9  5  2  0  0  0  0 
  9  8  1  0  0  0  0 
 10  8  1  0  0  0  0 
 10 14  2  0  0  0  0 
 11 12  1  0  0  0  0 
 11  9  1  0  0  0  0 
 12  6  1  0  0  0  0 
 12 10  1  0  0  0  0 
 13 26  1  0  0  0  0 
 15 11  2  0  0  0  0 
 18  3  1  0  0  0  0 
 21  5  1  0  0  0  0 
 24  7  1  0  0  0  0 
 25  7  1  0  0  0  0 
M  END 
>  <HBA> 
4 
 
>  <HBD> 
1 
 
>  <TPSA> 
57.61 
 
>  <cid> 
70160 
 
>  <dipole> 
4.46 
 
>  <excitation_energy_1> 
3.76 
 
>  <excitation_energy_2> 
3.87 
 
>  <excitation_energy_3> 
4.078 
 
>  <excitation_energy_4> 
4.392 
 
>  <homo_energy> 
-6.822 
 
>  <homo_lumo_gap> 
4.348 
 
>  <logP> 
0.603 
 
>  <lumo_energy> 
-2.474 
 
>  <melting_point> 
117.28 
 
>  <molecular_refractivity> 
57.5 
 
>  <oscillator_strength_1> 
0.0006 
 
>  <oscillator_strength_2> 
0.0003 
 
>  <oscillator_strength_3> 
0.0007 
 
>  <oscillator_strength_4> 
0.0005 
 
>  <open_babel_can_smiles> 
OCCCN1C(=O)c2c(C1=O)cccc2 
 
>  <mulliken_charges> 
26 
1   -0.127869 
2   -0.12843 
3   -0.266338 
4   -0.179533 
5   -0.178954 
6   -0.170697 
7   -0.037913 
8   0.049387 
9   0.046549 
10   0.575036 
11   0.594216 
12   -0.524534 
13   -0.645585 
14   -0.473242 
15   -0.514152 
16   0.151438 
17   0.151572 
18   0.144116 
19   0.152148 
20   0.168727 
21   0.169186 
22   0.178422 
23   0.179892 
24   0.118563 
25   0.143389 
26   0.424605 
 
>  <lowdin_charges> 
26 
1   -0.137742 
2   -0.13527 
3   -0.297051 
4   -0.126335 
5   -0.125561 
6   -0.201301 
7   -0.13793 
8   -0.036089 
9   -0.035796 
10   0.176331 
11   0.173396 
12   -0.085971 
13   -0.484082 
14   -0.238748 
15   -0.261888 
16   0.169576 
17   0.167123 
18   0.151534 
19   0.154957 
20   0.178027 
21   0.178177 
22   0.167028 
23   0.173421 
24   0.124259 
25   0.14645 
26   0.343483 
 
$$$$ 
 
