PCCDB-ID:  45750 
public computational chemistry database (PCCDB) project, http://pccdb.org 
 
 21 21  0  0  0  0  0  0  0  0999 V2000 
    1.0537    0.5370    0.2763 C   0  0  0  0  0  0  0  0  0  0  0  0 
    5.4780    0.2984    1.3275 C   0  0  0  0  0  0  0  0  0  0  0  0 
    5.2158   -1.9068    0.3659 C   0  0  0  0  0  0  0  0  0  0  0  0 
    6.8511    0.0806    1.4190 C   0  0  0  0  0  0  0  0  0  0  0  0 
    6.5862   -2.1207    0.4701 C   0  0  0  0  0  0  0  0  0  0  0  0 
    2.5430    0.6735    0.5341 C   0  0  0  0  0  0  0  0  0  0  0  0 
    4.6476   -0.6969    0.7917 C   0  0  0  0  0  0  0  0  0  0  0  0 
    7.4147   -1.1262    0.9957 C   0  0  0  0  0  0  0  0  0  0  0  0 
    3.2347   -0.5186    0.7077 N   0  0  0  0  0  0  0  0  0  0  0  0 
    3.1061    1.7555    0.6126 O   0  0  0  0  0  0  0  0  0  0  0  0 
    8.7560   -1.3897    1.0707 O   0  0  0  0  0  0  0  0  0  0  0  0 
    2.5028   -1.6876    0.4341 O   0  0  0  0  0  0  0  0  0  0  0  0 
    0.5528   -0.0069    1.0840 H   0  0  0  0  0  0  0  0  0  0  0  0 
    0.8581   -0.0097   -0.6510 H   0  0  0  0  0  0  0  0  0  0  0  0 
    0.6440    1.5455    0.2066 H   0  0  0  0  0  0  0  0  0  0  0  0 
    5.0547    1.2394    1.6471 H   0  0  0  0  0  0  0  0  0  0  0  0 
    4.5817   -2.6768   -0.0556 H   0  0  0  0  0  0  0  0  0  0  0  0 
    7.4859    0.8635    1.8304 H   0  0  0  0  0  0  0  0  0  0  0  0 
    7.0277   -3.0552    0.1388 H   0  0  0  0  0  0  0  0  0  0  0  0 
    9.2085   -0.6121    1.4327 H   0  0  0  0  0  0  0  0  0  0  0  0 
    2.3838   -2.1133    1.3040 H   0  0  0  0  0  0  0  0  0  0  0  0 
  1  6  1  0  0  0  0 
  1 13  1  0  0  0  0 
  2  4  1  0  0  0  0 
  2 16  1  0  0  0  0 
  3  5  2  0  0  0  0 
  3  7  1  0  0  0  0 
  4 18  1  0  0  0  0 
  5  8  1  0  0  0  0 
  6 10  2  0  0  0  0 
  6  9  1  0  0  0  0 
  7  2  2  0  0  0  0 
  8 11  1  0  0  0  0 
  8  4  2  0  0  0  0 
  9  7  1  0  0  0  0 
 11 20  1  0  0  0  0 
 12  9  1  0  0  0  0 
 12 21  1  0  0  0  0 
 14  1  1  0  0  0  0 
 15  1  1  0  0  0  0 
 17  3  1  0  0  0  0 
 19  5  1  0  0  0  0 
M  END 
>  <HBA> 
4 
 
>  <HBD> 
2 
 
>  <TPSA> 
60.77 
 
>  <cid> 
45750 
 
>  <dipole> 
2.46 
 
>  <excitation_energy_1> 
4.632 
 
>  <excitation_energy_2> 
4.684 
 
>  <excitation_energy_3> 
4.963 
 
>  <excitation_energy_4> 
4.986 
 
>  <homo_energy> 
-5.538 
 
>  <homo_lumo_gap> 
5.418 
 
>  <logP> 
1.134 
 
>  <lumo_energy> 
-0.12 
 
>  <melting_point> 
128.93 
 
>  <molecular_refractivity> 
43.6 
 
>  <oscillator_strength_1> 
0.036 
 
>  <oscillator_strength_2> 
0.0665 
 
>  <oscillator_strength_3> 
0.0836 
 
>  <oscillator_strength_4> 
0.1888 
 
>  <open_babel_can_smiles> 
ON(c1ccc(cc1)O)C(=O)C 
 
>  <mulliken_charges> 
21 
1   -0.512459 
2   -0.160996 
3   -0.176057 
4   -0.209859 
5   -0.166759 
6   0.566448 
7   0.29273 
8   0.359398 
9   -0.306299 
10   -0.487178 
11   -0.646158 
12   -0.501063 
13   0.159937 
14   0.185593 
15   0.180521 
16   0.179469 
17   0.150349 
18   0.123629 
19   0.141703 
20   0.40772 
21   0.41933 
 
>  <lowdin_charges> 
21 
1   -0.466588 
2   -0.159321 
3   -0.173757 
4   -0.208509 
5   -0.181224 
6   0.165201 
7   0.024831 
8   0.097736 
9   0.012717 
10   -0.287829 
11   -0.382539 
12   -0.359174 
13   0.167091 
14   0.177915 
15   0.174171 
16   0.186073 
17   0.171541 
18   0.157248 
19   0.168788 
20   0.358658 
21   0.356969 
 
$$$$ 
 
