PCCDB-ID:  8660 
public computational chemistry database (PCCDB) project, http://pccdb.org 
 
 22 22  0  0  0  0  0  0  0  0999 V2000 
   -1.5026   -0.0370   -0.1647 C   0  0  0  0  0  0  0  0  0  0  0  0 
   -0.7633   -1.1926    0.0803 C   0  0  0  0  0  0  0  0  0  0  0  0 
   -0.8397    1.1722   -0.3643 C   0  0  0  0  0  0  0  0  0  0  0  0 
    0.6312   -1.1361    0.1040 C   0  0  0  0  0  0  0  0  0  0  0  0 
    3.6310    0.0358   -1.7558 C   0  0  0  0  0  0  0  0  0  0  0  0 
    0.5629    1.2427   -0.3408 C   0  0  0  0  0  0  0  0  0  0  0  0 
    1.3155    0.0650   -0.1214 C   0  0  0  0  0  0  0  0  0  0  0  0 
    4.9396    0.8088   -1.9460 C   0  0  0  0  0  0  0  0  0  0  0  0 
    1.2041    2.5760   -0.5848 C   0  0  0  0  0  0  0  0  0  0  0  0 
    5.9642    0.2635   -2.2794 O   0  0  0  0  0  0  0  0  0  0  0  0 
    4.8775    2.1320   -1.7305 O   0  0  0  0  0  0  0  0  0  0  0  0 
    2.1660    2.7672   -1.2983 O   0  0  0  0  0  0  0  0  0  0  0  0 
    0.6093    3.6333    0.0118 O   0  0  0  0  0  0  0  0  0  0  0  0 
    3.1059    0.0465    0.0270 S   0  0  0  0  0  0  0  0  0  0  0  0 
   -2.5873   -0.0723   -0.2016 H   0  0  0  0  0  0  0  0  0  0  0  0 
   -1.2668   -2.1405    0.2471 H   0  0  0  0  0  0  0  0  0  0  0  0 
   -1.4179    2.0688   -0.5743 H   0  0  0  0  0  0  0  0  0  0  0  0 
    1.2098   -2.0334    0.2979 H   0  0  0  0  0  0  0  0  0  0  0  0 
    3.7898   -0.9911   -2.0840 H   0  0  0  0  0  0  0  0  0  0  0  0 
    2.8345    0.5047   -2.3377 H   0  0  0  0  0  0  0  0  0  0  0  0 
    3.9647    2.4057   -1.5007 H   0  0  0  0  0  0  0  0  0  0  0  0 
   -0.0620    3.3236    0.6430 H   0  0  0  0  0  0  0  0  0  0  0  0 
  1  2  2  0  0  0  0 
  2  4  1  0  0  0  0 
  2 16  1  0  0  0  0 
  3  6  2  0  0  0  0 
  3  1  1  0  0  0  0 
  4 18  1  0  0  0  0 
  5 14  1  0  0  0  0 
  6  7  1  0  0  0  0 
  7 14  1  0  0  0  0 
  7  4  2  0  0  0  0 
  8  5  1  0  0  0  0 
  8 11  1  0  0  0  0 
  9  6  1  0  0  0  0 
  9 13  1  0  0  0  0 
 10  8  2  0  0  0  0 
 11 21  1  0  0  0  0 
 12  9  2  0  0  0  0 
 13 22  1  0  0  0  0 
 15  1  1  0  0  0  0 
 17  3  1  0  0  0  0 
 19  5  1  0  0  0  0 
 20  5  1  0  0  0  0 
M  END 
>  <HBA> 
5 
 
>  <HBD> 
2 
 
>  <TPSA> 
99.9 
 
>  <cid> 
8660 
 
>  <dipole> 
9.73 
 
>  <excitation_energy_1> 
3.583 
 
>  <excitation_energy_2> 
4.271 
 
>  <excitation_energy_3> 
4.462 
 
>  <excitation_energy_4> 
4.904 
 
>  <homo_energy> 
-6.667 
 
>  <homo_lumo_gap> 
4.58 
 
>  <logP> 
1.562 
 
>  <lumo_energy> 
-2.087 
 
>  <melting_point> 
184.96 
 
>  <molecular_refractivity> 
51.7 
 
>  <oscillator_strength_1> 
0.0027 
 
>  <oscillator_strength_2> 
0.0021 
 
>  <oscillator_strength_3> 
0.043 
 
>  <oscillator_strength_4> 
0.009 
 
>  <open_babel_can_smiles> 
OC(=O)CSc1ccccc1C(=O)O 
 
>  <mulliken_charges> 
22 
1   -0.129119 
2   -0.105834 
3   -0.178264 
4   -0.145715 
5   -0.526047 
6   0.024939 
7   -0.132946 
8   0.585283 
9   0.568188 
10   -0.437349 
11   -0.580505 
12   -0.464614 
13   -0.547895 
14   0.131084 
15   0.154667 
16   0.155714 
17   0.155538 
18   0.170873 
19   0.207598 
20   0.209807 
21   0.464303 
22   0.420294 
 
>  <lowdin_charges> 
22 
1   -0.14036 
2   -0.134812 
3   -0.162008 
4   -0.143086 
5   -0.410871 
6   -0.058548 
7   -0.114459 
8   0.187839 
9   0.214554 
10   -0.244407 
11   -0.350802 
12   -0.250241 
13   -0.330622 
14   0.152292 
15   0.168138 
16   0.171202 
17   0.167834 
18   0.179721 
19   0.180847 
20   0.185974 
21   0.364523 
22   0.367291 
 
$$$$ 
 
