PCCDB-ID:  52519 
public computational chemistry database (PCCDB) project, http://pccdb.org 
 
 21 21  0  0  1  0  0  0  0  0999 V2000 
    0.6142    0.4342   -0.4435 C   0  0  0  0  0  0  0  0  0  0  0  0 
    3.0805    1.1302    0.0750 C   0  0  0  0  0  0  0  0  0  0  0  0 
    1.9781    0.0315    0.1067 C   0  0  2  0  0  0  0  0  0  0  0  0 
    3.9636    0.2205   -0.8456 C   0  0  2  0  0  0  0  0  0  0  0  0 
    2.8974   -0.8897   -0.7964 C   0  0  2  0  0  0  0  0  0  0  0  0 
    5.3125   -0.1614   -0.2673 C   0  0  0  0  0  0  0  0  0  0  0  0 
    2.3147   -1.2696   -2.1435 C   0  0  0  0  0  0  0  0  0  0  0  0 
    5.5865   -1.2401    0.1988 O   0  0  0  0  0  0  0  0  0  0  0  0 
    6.2371    0.8366   -0.2637 O   0  0  0  0  0  0  0  0  0  0  0  0 
    2.4657   -0.6354   -3.1601 O   0  0  0  0  0  0  0  0  0  0  0  0 
    1.5275   -2.3787   -2.1467 O   0  0  0  0  0  0  0  0  0  0  0  0 
    0.1523    1.1882    0.2044 H   0  0  0  0  0  0  0  0  0  0  0  0 
   -0.0669   -0.4230   -0.4996 H   0  0  0  0  0  0  0  0  0  0  0  0 
    0.6995    0.8579   -1.4503 H   0  0  0  0  0  0  0  0  0  0  0  0 
    3.5215    1.3613    1.0493 H   0  0  0  0  0  0  0  0  0  0  0  0 
    2.7648    2.0665   -0.3956 H   0  0  0  0  0  0  0  0  0  0  0  0 
    1.8598   -0.4028    1.1048 H   0  0  0  0  0  0  0  0  0  0  0  0 
    4.0833    0.6198   -1.8588 H   0  0  0  0  0  0  0  0  0  0  0  0 
    3.2643   -1.7757   -0.2677 H   0  0  0  0  0  0  0  0  0  0  0  0 
    5.8704    1.6296   -0.6898 H   0  0  0  0  0  0  0  0  0  0  0  0 
    1.5441   -2.7981   -1.2704 H   0  0  0  0  0  0  0  0  0  0  0  0 
  1  3  1  0  0  0  0 
  1 12  1  0  0  0  0 
  2  3  1  0  0  0  0 
  2 15  1  0  0  0  0 
  3 17  1  1  0  0  0 
  4 18  1  6  0  0  0 
  4  5  1  0  0  0  0 
  4  6  1  0  0  0  0 
  4  2  1  0  0  0  0 
  5 19  1  1  0  0  0 
  5  3  1  0  0  0  0 
  6  9  1  0  0  0  0 
  6  8  2  0  0  0  0 
  7  5  1  0  0  0  0 
 10  7  2  0  0  0  0 
 11  7  1  0  0  0  0 
 11 21  1  0  0  0  0 
 13  1  1  0  0  0  0 
 14  1  1  0  0  0  0 
 16  2  1  0  0  0  0 
 20  9  1  0  0  0  0 
M  END 
>  <HBA> 
4 
 
>  <HBD> 
2 
 
>  <TPSA> 
74.6 
 
>  <cid> 
52519 
 
>  <dipole> 
3.94 
 
>  <excitation_energy_1> 
5.576 
 
>  <excitation_energy_2> 
5.671 
 
>  <excitation_energy_3> 
6.439 
 
>  <excitation_energy_4> 
6.581 
 
>  <homo_energy> 
-7.464 
 
>  <homo_lumo_gap> 
7.279 
 
>  <logP> 
0.428 
 
>  <lumo_energy> 
-0.185 
 
>  <melting_point> 
149.67 
 
>  <molecular_refractivity> 
37.19 
 
>  <oscillator_strength_1> 
0.001 
 
>  <oscillator_strength_2> 
0.0025 
 
>  <oscillator_strength_3> 
0.0003 
 
>  <oscillator_strength_4> 
0.0177 
 
>  <open_babel_can_smiles> 
OC(=O)[C@@H]1[C@H](C)C[C@H]1C(=O)O 
 
>  <mulliken_charges> 
21 
1   -0.467594 
2   -0.29583 
3   -0.079669 
4   -0.245767 
5   -0.248734 
6   0.603403 
7   0.616588 
8   -0.44005 
9   -0.565253 
10   -0.447153 
11   -0.567475 
12   0.155417 
13   0.151969 
14   0.169897 
15   0.160874 
16   0.156224 
17   0.147209 
18   0.190893 
19   0.177743 
20   0.414008 
21   0.413299 
 
>  <lowdin_charges> 
21 
1   -0.452387 
2   -0.282807 
3   -0.114606 
4   -0.174058 
5   -0.182606 
6   0.192801 
7   0.198651 
8   -0.241109 
9   -0.352648 
10   -0.24579 
11   -0.351311 
12   0.159583 
13   0.154949 
14   0.160447 
15   0.156283 
16   0.155074 
17   0.149576 
18   0.176237 
19   0.171554 
20   0.36234 
21   0.359826 
 
$$$$ 
 
