PCCDB-ID:  7439 
public computational chemistry database (PCCDB) project, http://pccdb.org 
 
 25 25  0  0  1  0  0  0  0  0999 V2000 
    1.3903   -0.8357    0.0380 C   0  0  0  0  0  0  0  0  0  0  0  0 
    2.5931    0.4579    1.7775 C   0  0  0  0  0  0  0  0  0  0  0  0 
    5.4316    3.9142    1.4059 C   0  0  0  0  0  0  0  0  0  0  0  0 
    3.3394    3.3561    0.1252 C   0  0  0  0  0  0  0  0  0  0  0  0 
    2.4421    2.4908   -0.7162 C   0  0  0  0  0  0  0  0  0  0  0  0 
    4.3865    0.8783   -0.8579 C   0  0  0  0  0  0  0  0  0  0  0  0 
    2.2348    0.1571    0.3410 C   0  0  0  0  0  0  0  0  0  0  0  0 
    4.5751    3.0242    0.5456 C   0  0  0  0  0  0  0  0  0  0  0  0 
    2.8463    0.9947   -0.7765 C   0  0  1  0  0  0  0  0  0  0  0  0 
    5.1513    1.7064    0.1663 C   0  0  0  0  0  0  0  0  0  0  0  0 
    6.2243    1.3284    0.6183 O   0  0  0  0  0  0  0  0  0  0  0  0 
    0.9367   -1.4549    0.8081 H   0  0  0  0  0  0  0  0  0  0  0  0 
    1.1229   -1.0709   -0.9897 H   0  0  0  0  0  0  0  0  0  0  0  0 
    2.0665   -0.2173    2.4589 H   0  0  0  0  0  0  0  0  0  0  0  0 
    2.3371    1.4880    2.0536 H   0  0  0  0  0  0  0  0  0  0  0  0 
    3.6694    0.3453    1.9598 H   0  0  0  0  0  0  0  0  0  0  0  0 
    4.9243    4.8580    1.6289 H   0  0  0  0  0  0  0  0  0  0  0  0 
    6.3859    4.1348    0.9140 H   0  0  0  0  0  0  0  0  0  0  0  0 
    5.6816    3.4169    2.3498 H   0  0  0  0  0  0  0  0  0  0  0  0 
    2.9403    4.3345    0.3970 H   0  0  0  0  0  0  0  0  0  0  0  0 
    2.4369    2.8995   -1.7400 H   0  0  0  0  0  0  0  0  0  0  0  0 
    1.4058    2.5845   -0.3658 H   0  0  0  0  0  0  0  0  0  0  0  0 
    4.7079    1.2425   -1.8462 H   0  0  0  0  0  0  0  0  0  0  0  0 
    4.7202   -0.1608   -0.7801 H   0  0  0  0  0  0  0  0  0  0  0  0 
    2.4434    0.5893   -1.7118 H   0  0  0  0  0  0  0  0  0  0  0  0 
  1  7  2  0  0  0  0 
  1 12  1  0  0  0  0 
  2 16  1  0  0  0  0 
  2 15  1  0  0  0  0 
  2 14  1  0  0  0  0 
  3 17  1  0  0  0  0 
  3 19  1  0  0  0  0 
  4 20  1  0  0  0  0 
  4  8  2  0  0  0  0 
  5 22  1  0  0  0  0 
  5  4  1  0  0  0  0 
  6 24  1  0  0  0  0 
  6  9  1  0  0  0  0 
  6 10  1  0  0  0  0 
  7  2  1  0  0  0  0 
  8  3  1  0  0  0  0 
  9 25  1  6  0  0  0 
  9  5  1  0  0  0  0 
  9  7  1  0  0  0  0 
 10  8  1  0  0  0  0 
 10 11  2  0  0  0  0 
 13  1  1  0  0  0  0 
 18  3  1  0  0  0  0 
 21  5  1  0  0  0  0 
 23  6  1  0  0  0  0 
M  END 
>  <HBA> 
1 
 
>  <HBD> 
0 
 
>  <TPSA> 
17.07 
 
>  <cid> 
7439 
 
>  <dipole> 
3.17 
 
>  <excitation_energy_1> 
3.643 
 
>  <excitation_energy_2> 
4.705 
 
>  <excitation_energy_3> 
5.311 
 
>  <excitation_energy_4> 
5.881 
 
>  <homo_energy> 
-6.438 
 
>  <homo_lumo_gap> 
5.184 
 
>  <logP> 
2.488 
 
>  <lumo_energy> 
-1.254 
 
>  <melting_point> 
10.78 
 
>  <molecular_refractivity> 
47.32 
 
>  <oscillator_strength_1> 
0.0005 
 
>  <oscillator_strength_2> 
0.0502 
 
>  <oscillator_strength_3> 
0.1492 
 
>  <oscillator_strength_4> 
0.0057 
 
>  <open_babel_can_smiles> 
CC(=C)[C@H]1CC=C(C(=O)C1)C 
 
>  <mulliken_charges> 
25 
1   -0.406241 
2   -0.527918 
3   -0.505257 
4   -0.169454 
5   -0.313548 
6   -0.360437 
7   0.244828 
8   0.127427 
9   -0.177399 
10   0.406073 
11   -0.476874 
12   0.135325 
13   0.133831 
14   0.15316 
15   0.157356 
16   0.173359 
17   0.143238 
18   0.168358 
19   0.172862 
20   0.134138 
21   0.15899 
22   0.159657 
23   0.16477 
24   0.170903 
25   0.132852 
 
>  <lowdin_charges> 
25 
1   -0.361665 
2   -0.44593 
3   -0.435246 
4   -0.140227 
5   -0.27742 
6   -0.302132 
7   0.007387 
8   -0.051329 
9   -0.122737 
10   0.143958 
11   -0.250021 
12   0.156327 
13   0.152028 
14   0.158823 
15   0.157686 
16   0.163727 
17   0.152182 
18   0.166001 
19   0.168579 
20   0.156281 
21   0.159904 
22   0.15869 
23   0.167284 
24   0.167133 
25   0.150718 
 
$$$$ 
 
