PCCDB-ID:  55198 
public computational chemistry database (PCCDB) project, http://pccdb.org 
 
 21 21  0  0  1  0  0  0  0  0999 V2000 
    1.1049    0.4833    0.3859 C   0  0  0  0  0  0  0  0  0  0  0  0 
    2.2687   -0.2984   -1.7105 C   0  0  0  0  0  0  0  0  0  0  0  0 
    2.1863   -1.9548    1.7379 C   0  0  0  0  0  0  0  0  0  0  0  0 
    3.8054   -2.3572   -0.1387 C   0  0  0  0  0  0  0  0  0  0  0  0 
    2.3677   -0.1450   -0.1991 C   0  0  0  0  0  0  0  0  0  0  0  0 
    2.9992   -1.2976    0.6337 C   0  0  1  0  0  0  0  0  0  0  0  0 
    4.8320   -1.8111   -0.9388 O   0  0  0  0  0  0  0  0  0  0  0  0 
    3.5274    0.6847    0.1671 O   0  0  0  0  0  0  0  0  0  0  0  0 
    3.9509   -0.3195    1.1817 O   0  0  0  0  0  0  0  0  0  0  0  0 
    0.2444   -0.1892    0.2907 H   0  0  0  0  0  0  0  0  0  0  0  0 
    0.8760    1.4059   -0.1580 H   0  0  0  0  0  0  0  0  0  0  0  0 
    1.2411    0.7389    1.4396 H   0  0  0  0  0  0  0  0  0  0  0  0 
    1.4196   -0.9407   -1.9749 H   0  0  0  0  0  0  0  0  0  0  0  0 
    3.1860   -0.7193   -2.1235 H   0  0  0  0  0  0  0  0  0  0  0  0 
    2.0916    0.6837   -2.1642 H   0  0  0  0  0  0  0  0  0  0  0  0 
    1.4732   -2.6742    1.3170 H   0  0  0  0  0  0  0  0  0  0  0  0 
    1.6353   -1.2244    2.3321 H   0  0  0  0  0  0  0  0  0  0  0  0 
    2.8562   -2.5028    2.4093 H   0  0  0  0  0  0  0  0  0  0  0  0 
    3.1407   -2.9250   -0.8007 H   0  0  0  0  0  0  0  0  0  0  0  0 
    4.2192   -3.0658    0.5983 H   0  0  0  0  0  0  0  0  0  0  0  0 
    5.2298   -1.0992   -0.4066 H   0  0  0  0  0  0  0  0  0  0  0  0 
  1 12  1  0  0  0  0 
  2  5  1  0  0  0  0 
  3 17  1  0  0  0  0 
  3 18  1  0  0  0  0 
  4 20  1  0  0  0  0 
  5  8  1  0  0  0  0 
  5  1  1  0  0  0  0 
  5  6  1  0  0  0  0 
  6  4  1  6  0  0  0 
  6  9  1  0  0  0  0 
  6  3  1  0  0  0  0 
  7 21  1  0  0  0  0 
  7  4  1  0  0  0  0 
  8  9  1  0  0  0  0 
 10  1  1  0  0  0  0 
 11  1  1  0  0  0  0 
 13  2  1  0  0  0  0 
 14  2  1  0  0  0  0 
 15  2  1  0  0  0  0 
 16  3  1  0  0  0  0 
 19  4  1  0  0  0  0 
M  END 
>  <HBA> 
3 
 
>  <HBD> 
1 
 
>  <TPSA> 
38.69 
 
>  <cid> 
55198 
 
>  <dipole> 
3.09 
 
>  <excitation_energy_1> 
4.14 
 
>  <excitation_energy_2> 
5.974 
 
>  <excitation_energy_3> 
6.056 
 
>  <excitation_energy_4> 
6.268 
 
>  <homo_energy> 
-6.316 
 
>  <homo_lumo_gap> 
6.251 
 
>  <logP> 
0.478 
 
>  <lumo_energy> 
-0.065 
 
>  <melting_point> 
23.47 
 
>  <molecular_refractivity> 
32.25 
 
>  <oscillator_strength_1> 
0.0011 
 
>  <oscillator_strength_2> 
0.0005 
 
>  <oscillator_strength_3> 
0.001 
 
>  <oscillator_strength_4> 
0.0008 
 
>  <open_babel_can_smiles> 
OC[C@@]1(C)OOC1(C)C 
 
>  <mulliken_charges> 
21 
1   -0.463839 
2   -0.488897 
3   -0.479489 
4   -0.033469 
5   0.324137 
6   0.264822 
7   -0.619746 
8   -0.31815 
9   -0.337004 
10   0.145729 
11   0.158001 
12   0.168229 
13   0.144864 
14   0.200452 
15   0.155635 
16   0.15577 
17   0.168837 
18   0.164451 
19   0.145862 
20   0.129249 
21   0.414559 
 
>  <lowdin_charges> 
21 
1   -0.45166 
2   -0.463635 
3   -0.456951 
4   -0.152305 
5   0.126531 
6   0.098566 
7   -0.459477 
8   -0.173143 
9   -0.180385 
10   0.15521 
11   0.161645 
12   0.161554 
13   0.156356 
14   0.179656 
15   0.160611 
16   0.162369 
17   0.167255 
18   0.16589 
19   0.152262 
20   0.137247 
21   0.352403 
 
$$$$ 
 
