PCCDB-ID:  9100 
public computational chemistry database (PCCDB) project, http://pccdb.org 
 
 20 21  0  0  0  0  0  0  0  0999 V2000 
   -2.1085   -0.0067    0.0289 C   0  0  0  0  0  0  0  0  0  0  0  0 
   -1.2946    1.2699    0.2965 C   0  0  0  0  0  0  0  0  0  0  0  0 
   -1.2686   -1.2695    0.2816 C   0  0  0  0  0  0  0  0  0  0  0  0 
    0.0014    1.2950   -0.5331 C   0  0  0  0  0  0  0  0  0  0  0  0 
    0.0268   -1.2582   -0.5489 C   0  0  0  0  0  0  0  0  0  0  0  0 
    2.2726    0.0390   -0.3702 C   0  0  0  0  0  0  0  0  0  0  0  0 
    0.8048    0.0247   -0.3101 C   0  0  0  0  0  0  0  0  0  0  0  0 
    1.6023    0.0249    0.8988 O   0  0  0  0  0  0  0  0  0  0  0  0 
   -2.4557   -0.0040   -1.0156 H   0  0  0  0  0  0  0  0  0  0  0  0 
   -3.0086   -0.0196    0.6558 H   0  0  0  0  0  0  0  0  0  0  0  0 
   -1.0303    1.3167    1.3617 H   0  0  0  0  0  0  0  0  0  0  0  0 
   -1.8963    2.1611    0.0791 H   0  0  0  0  0  0  0  0  0  0  0  0 
   -1.8520   -2.1703    0.0542 H   0  0  0  0  0  0  0  0  0  0  0  0 
   -1.0027   -1.3230    1.3460 H   0  0  0  0  0  0  0  0  0  0  0  0 
    0.6135    2.1657   -0.2724 H   0  0  0  0  0  0  0  0  0  0  0  0 
   -0.2456    1.3759   -1.6022 H   0  0  0  0  0  0  0  0  0  0  0  0 
   -0.2194   -1.3305   -1.6187 H   0  0  0  0  0  0  0  0  0  0  0  0 
    0.6565   -2.1198   -0.2997 H   0  0  0  0  0  0  0  0  0  0  0  0 
    2.7977    0.9652   -0.6099 H   0  0  0  0  0  0  0  0  0  0  0  0 
    2.8148   -0.8741   -0.6213 H   0  0  0  0  0  0  0  0  0  0  0  0 
  1  3  1  0  0  0  0 
  1  2  1  0  0  0  0 
  1 10  1  0  0  0  0 
  2 11  1  0  0  0  0 
  3 14  1  0  0  0  0 
  4  7  1  0  0  0  0 
  4 15  1  0  0  0  0 
  4  2  1  0  0  0  0 
  5  7  1  0  0  0  0 
  5 18  1  0  0  0  0 
  5  3  1  0  0  0  0 
  6  7  1  0  0  0  0 
  6  8  1  0  0  0  0 
  7  8  1  0  0  0  0 
  9  1  1  0  0  0  0 
 12  2  1  0  0  0  0 
 13  3  1  0  0  0  0 
 16  4  1  0  0  0  0 
 17  5  1  0  0  0  0 
 19  6  1  0  0  0  0 
 20  6  1  0  0  0  0 
M  END 
>  <HBA> 
1 
 
>  <HBD> 
0 
 
>  <TPSA> 
12.53 
 
>  <cid> 
9100 
 
>  <dipole> 
1.82 
 
>  <excitation_energy_1> 
6.583 
 
>  <excitation_energy_2> 
6.857 
 
>  <excitation_energy_3> 
7.05 
 
>  <excitation_energy_4> 
7.119 
 
>  <homo_energy> 
-6.934 
 
>  <homo_lumo_gap> 
9.178 
 
>  <logP> 
1.72 
 
>  <lumo_energy> 
2.245 
 
>  <melting_point> 
20.0 
 
>  <molecular_refractivity> 
32.66 
 
>  <oscillator_strength_1> 
0.0001 
 
>  <oscillator_strength_2> 
0.0063 
 
>  <oscillator_strength_3> 
0.0012 
 
>  <oscillator_strength_4> 
0.0062 
 
>  <open_babel_can_smiles> 
C1CCC2(CC1)CO2 
 
>  <mulliken_charges> 
20 
1   -0.262047 
2   -0.263899 
3   -0.263961 
4   -0.287201 
5   -0.287114 
6   -0.135924 
7   0.319496 
8   -0.472194 
9   0.126204 
10   0.134558 
11   0.148675 
12   0.131738 
13   0.131751 
14   0.148713 
15   0.141065 
16   0.132638 
17   0.13261 
18   0.141007 
19   0.141943 
20   0.141941 
 
>  <lowdin_charges> 
20 
1   -0.277795 
2   -0.276442 
3   -0.27643 
4   -0.279212 
5   -0.279195 
6   -0.170013 
7   0.101674 
8   -0.300669 
9   0.13483 
10   0.146075 
11   0.146531 
12   0.144996 
13   0.144964 
14   0.146565 
15   0.153877 
16   0.142975 
17   0.142943 
18   0.153871 
19   0.150168 
20   0.150287 
 
$$$$ 
 
