PCCDB-ID:  9985 
public computational chemistry database (PCCDB) project, http://pccdb.org 
 
 26 26  0  0  1  0  0  0  0  0999 V2000 
    0.8890    0.6562    2.4255 C   0  0  0  0  0  0  0  0  0  0  0  0 
    2.3718    0.2760    2.4816 C   0  0  0  0  0  0  0  0  0  0  0  0 
    6.9327    0.7105    0.1935 C   0  0  0  0  0  0  0  0  0  0  0  0 
    7.5337    1.2814    1.4869 C   0  0  0  0  0  0  0  0  0  0  0  0 
    3.1895    0.8815    1.3337 C   0  0  0  0  0  0  0  0  0  0  0  0 
    5.4272    1.0098    0.1070 C   0  0  0  0  0  0  0  0  0  0  0  0 
    6.7250    0.8118    2.7083 C   0  0  0  0  0  0  0  0  0  0  0  0 
    4.6864    0.5456    1.3783 C   0  0  1  0  0  0  0  0  0  0  0  0 
    5.2860    1.0819    2.6130 N   0  0  0  0  0  0  0  0  0  0  0  0 
    0.3307    0.2089    3.2560 H   0  0  0  0  0  0  0  0  0  0  0  0 
    0.4235    0.3172    1.4913 H   0  0  0  0  0  0  0  0  0  0  0  0 
    0.7540    1.7438    2.4836 H   0  0  0  0  0  0  0  0  0  0  0  0 
    2.4708   -0.8186    2.4515 H   0  0  0  0  0  0  0  0  0  0  0  0 
    2.8085    0.5936    3.4350 H   0  0  0  0  0  0  0  0  0  0  0  0 
    7.0844   -0.3792    0.1771 H   0  0  0  0  0  0  0  0  0  0  0  0 
    7.4544    1.1104   -0.6851 H   0  0  0  0  0  0  0  0  0  0  0  0 
    7.5162    2.3810    1.4457 H   0  0  0  0  0  0  0  0  0  0  0  0 
    8.5865    0.9862    1.5908 H   0  0  0  0  0  0  0  0  0  0  0  0 
    3.0717    1.9776    1.3372 H   0  0  0  0  0  0  0  0  0  0  0  0 
    2.7834    0.5403    0.3706 H   0  0  0  0  0  0  0  0  0  0  0  0 
    4.9923    0.5285   -0.7798 H   0  0  0  0  0  0  0  0  0  0  0  0 
    5.2731    2.0934   -0.0160 H   0  0  0  0  0  0  0  0  0  0  0  0 
    7.1017    1.2761    3.6278 H   0  0  0  0  0  0  0  0  0  0  0  0 
    6.8477   -0.2740    2.8308 H   0  0  0  0  0  0  0  0  0  0  0  0 
    4.7898   -0.5500    1.4443 H   0  0  0  0  0  0  0  0  0  0  0  0 
    5.1415    2.0937    2.6227 H   0  0  0  0  0  0  0  0  0  0  0  0 
  1  2  1  0  0  0  0 
  1 12  1  0  0  0  0 
  1 10  1  0  0  0  0 
  2 14  1  0  0  0  0 
  3  4  1  0  0  0  0 
  4 18  1  0  0  0  0 
  4  7  1  0  0  0  0 
  5 19  1  0  0  0  0 
  5  8  1  0  0  0  0 
  5  2  1  0  0  0  0 
  6  3  1  0  0  0  0 
  6  8  1  0  0  0  0 
  7 24  1  0  0  0  0 
  7 23  1  0  0  0  0 
  8 25  1  1  0  0  0 
  8  9  1  0  0  0  0 
  9 26  1  0  0  0  0 
  9  7  1  0  0  0  0 
 11  1  1  0  0  0  0 
 13  2  1  0  0  0  0 
 15  3  1  0  0  0  0 
 16  3  1  0  0  0  0 
 17  4  1  0  0  0  0 
 20  5  1  0  0  0  0 
 21  6  1  0  0  0  0 
 22  6  1  0  0  0  0 
M  END 
>  <HBA> 
1 
 
>  <HBD> 
1 
 
>  <TPSA> 
12.03 
 
>  <cid> 
9985 
 
>  <dipole> 
1.08 
 
>  <excitation_energy_1> 
5.317 
 
>  <excitation_energy_2> 
5.462 
 
>  <excitation_energy_3> 
5.806 
 
>  <excitation_energy_4> 
5.862 
 
>  <homo_energy> 
-5.685 
 
>  <homo_lumo_gap> 
7.965 
 
>  <logP> 
2.257 
 
>  <lumo_energy> 
2.28 
 
>  <melting_point> 
21.87 
 
>  <molecular_refractivity> 
45.17 
 
>  <oscillator_strength_1> 
0.0119 
 
>  <oscillator_strength_2> 
0.0134 
 
>  <oscillator_strength_3> 
0.0134 
 
>  <oscillator_strength_4> 
0.0019 
 
>  <open_babel_can_smiles> 
CCC[C@H]1CCCCN1 
 
>  <mulliken_charges> 
26 
1   -0.442432 
2   -0.243509 
3   -0.261329 
4   -0.261222 
5   -0.258307 
6   -0.259778 
7   -0.140718 
8   0.033102 
9   -0.536107 
10   0.140833 
11   0.137102 
12   0.137722 
13   0.125614 
14   0.155039 
15   0.128349 
16   0.131814 
17   0.122679 
18   0.128492 
19   0.116785 
20   0.12677 
21   0.126841 
22   0.118629 
23   0.13556 
24   0.136582 
25   0.121161 
26   0.280329 
 
>  <lowdin_charges> 
26 
1   -0.444299 
2   -0.271178 
3   -0.278099 
4   -0.291015 
5   -0.274957 
6   -0.292072 
7   -0.207517 
8   -0.065991 
9   -0.356363 
10   0.149649 
11   0.143741 
12   0.142275 
13   0.135758 
14   0.151514 
15   0.13578 
16   0.144284 
17   0.13258 
18   0.142584 
19   0.131403 
20   0.140913 
21   0.143407 
22   0.132351 
23   0.14434 
24   0.13738 
25   0.131205 
26   0.242327 
 
$$$$ 
 
