PCCDB-ID:  22129 
public computational chemistry database (PCCDB) project, http://pccdb.org 
 
 17 16  0  0  1  0  0  0  0  0999 V2000 
    3.6455    1.0711   -0.5319 C   0  0  0  0  0  0  0  0  0  0  0  0 
    2.8500   -0.2359   -0.5592 C   0  0  0  0  0  0  0  0  0  0  0  0 
    2.3414   -2.4561    0.5861 C   0  0  0  0  0  0  0  0  0  0  0  0 
    3.2940   -1.2472    0.5143 C   0  0  1  0  0  0  0  0  0  0  0  0 
    4.6901   -1.6406    0.2721 N   0  0  0  0  0  0  0  0  0  0  0  0 
    2.3973   -3.2630   -0.5908 O   0  0  0  0  0  0  0  0  0  0  0  0 
    3.3339    1.7427   -1.3400 H   0  0  0  0  0  0  0  0  0  0  0  0 
    4.7141    0.8655   -0.6374 H   0  0  0  0  0  0  0  0  0  0  0  0 
    3.4970    1.6002    0.4178 H   0  0  0  0  0  0  0  0  0  0  0  0 
    2.9565   -0.7024   -1.5504 H   0  0  0  0  0  0  0  0  0  0  0  0 
    1.7789   -0.0248   -0.4263 H   0  0  0  0  0  0  0  0  0  0  0  0 
    1.3094   -2.1283    0.7929 H   0  0  0  0  0  0  0  0  0  0  0  0 
    2.6475   -3.1178    1.4045 H   0  0  0  0  0  0  0  0  0  0  0  0 
    3.2565   -0.7432    1.4915 H   0  0  0  0  0  0  0  0  0  0  0  0 
    4.6854   -2.3277   -0.4839 H   0  0  0  0  0  0  0  0  0  0  0  0 
    5.0494   -2.1365    1.0877 H   0  0  0  0  0  0  0  0  0  0  0  0 
    1.9577   -2.7732   -1.3025 H   0  0  0  0  0  0  0  0  0  0  0  0 
  1  9  1  0  0  0  0 
  2  1  1  0  0  0  0 
  2 11  1  0  0  0  0 
  2  4  1  0  0  0  0 
  3 12  1  0  0  0  0 
  3 13  1  0  0  0  0 
  4  3  1  0  0  0  0 
  4 14  1  1  0  0  0 
  5  4  1  0  0  0  0 
  5 16  1  0  0  0  0 
  6  3  1  0  0  0  0 
  7  1  1  0  0  0  0 
  8  1  1  0  0  0  0 
 10  2  1  0  0  0  0 
 15  5  1  0  0  0  0 
 17  6  1  0  0  0  0 
M  END 
>  <HBA> 
2 
 
>  <HBD> 
2 
 
>  <TPSA> 
46.25 
 
>  <cid> 
22129 
 
>  <dipole> 
1.26 
 
>  <excitation_energy_1> 
5.626 
 
>  <excitation_energy_2> 
5.967 
 
>  <excitation_energy_3> 
6.329 
 
>  <excitation_energy_4> 
6.615 
 
>  <homo_energy> 
-6.223 
 
>  <homo_lumo_gap> 
7.929 
 
>  <logP> 
0.416 
 
>  <lumo_energy> 
1.706 
 
>  <melting_point> 
47.63 
 
>  <molecular_refractivity> 
25.21 
 
>  <oscillator_strength_1> 
0.0164 
 
>  <oscillator_strength_2> 
0.0135 
 
>  <oscillator_strength_3> 
0.0109 
 
>  <oscillator_strength_4> 
0.0023 
 
>  <open_babel_can_smiles> 
CC[C@@H](CO)N 
 
>  <mulliken_charges> 
17 
1   -0.439312 
2   -0.253781 
3   -0.049009 
4   0.010735 
5   -0.708443 
6   -0.618238 
7   0.134957 
8   0.175505 
9   0.13541 
10   0.118914 
11   0.123594 
12   0.118286 
13   0.137599 
14   0.123111 
15   0.302579 
16   0.292491 
17   0.395601 
 
>  <lowdin_charges> 
17 
1   -0.443177 
2   -0.279824 
3   -0.15276 
4   -0.087273 
5   -0.551207 
6   -0.471885 
7   0.146953 
8   0.162356 
9   0.144158 
10   0.13341 
11   0.135114 
12   0.126616 
13   0.144153 
14   0.138617 
15   0.255957 
16   0.254113 
17   0.34468 
 
$$$$ 
 
