PCCDB-ID:  20951 
public computational chemistry database (PCCDB) project, http://pccdb.org 
 
 14 13  0  0  0  0  0  0  0  0999 V2000 
    0.9826   -0.1168    0.0551 C   0  0  0  0  0  0  0  0  0  0  0  0 
    2.5814    2.2910   -1.3035 C   0  0  0  0  0  0  0  0  0  0  0  0 
    2.4632    0.0319   -0.0913 C   0  0  0  0  0  0  0  0  0  0  0  0 
    3.1187    1.0496   -0.6629 C   0  0  0  0  0  0  0  0  0  0  0  0 
    4.6005    0.9540   -0.6829 N   0  0  0  0  0  0  0  0  0  0  0  0 
    5.1517   -0.0262   -0.1817 O   0  0  0  0  0  0  0  0  0  0  0  0 
    5.2005    1.8898   -1.2155 O   0  0  0  0  0  0  0  0  0  0  0  0 
    0.7178   -0.2183    1.1157 H   0  0  0  0  0  0  0  0  0  0  0  0 
    0.6469   -1.0390   -0.4372 H   0  0  0  0  0  0  0  0  0  0  0  0 
    0.4158    0.7191   -0.3610 H   0  0  0  0  0  0  0  0  0  0  0  0 
    1.4906    2.3031   -1.2564 H   0  0  0  0  0  0  0  0  0  0  0  0 
    2.8871    2.3564   -2.3525 H   0  0  0  0  0  0  0  0  0  0  0  0 
    2.9630    3.1880   -0.8057 H   0  0  0  0  0  0  0  0  0  0  0  0 
    3.0766   -0.7707    0.3089 H   0  0  0  0  0  0  0  0  0  0  0  0 
  1  8  1  0  0  0  0 
  2 11  1  0  0  0  0 
  2 13  1  0  0  0  0 
  2  4  1  0  0  0  0 
  3  1  1  0  0  0  0 
  3 14  1  0  0  0  0 
  4  3  2  0  0  0  0 
  5  4  1  0  0  0  0 
  5  6  2  0  0  0  0 
  7  5  2  0  0  0  0 
  9  1  1  0  0  0  0 
 10  1  1  0  0  0  0 
 12  2  1  0  0  0  0 
M  END 
>  <HBA> 
0 
 
>  <HBD> 
0 
 
>  <TPSA> 
45.82 
 
>  <cid> 
20951 
 
>  <dipole> 
4.51 
 
>  <excitation_energy_1> 
3.729 
 
>  <excitation_energy_2> 
4.271 
 
>  <excitation_energy_3> 
4.811 
 
>  <excitation_energy_4> 
6.051 
 
>  <homo_energy> 
-7.614 
 
>  <homo_lumo_gap> 
5.442 
 
>  <logP> 
1.71 
 
>  <lumo_energy> 
-2.171 
 
>  <melting_point> 
18.73 
 
>  <molecular_refractivity> 
28.97 
 
>  <oscillator_strength_1> 
0.0 
 
>  <oscillator_strength_2> 
0.0005 
 
>  <oscillator_strength_3> 
0.1833 
 
>  <oscillator_strength_4> 
0.1037 
 
>  <open_babel_can_smiles> 
C/C=C(/N(=O)=O)\C 
 
>  <mulliken_charges> 
14 
1   -0.500333 
2   -0.510008 
3   -0.134914 
4   0.279452 
5   0.415612 
6   -0.406173 
7   -0.390507 
8   0.178799 
9   0.178862 
10   0.168306 
11   0.157542 
12   0.186525 
13   0.186423 
14   0.190411 
 
>  <lowdin_charges> 
14 
1   -0.437944 
2   -0.440436 
3   -0.121903 
4   -0.003595 
5   0.304473 
6   -0.258095 
7   -0.250647 
8   0.171394 
9   0.173028 
10   0.162321 
11   0.16081 
12   0.175378 
13   0.177047 
14   0.188167 
 
$$$$ 
 
