PCCDB-ID:  18522 
public computational chemistry database (PCCDB) project, http://pccdb.org 
 
 15 15  0  0  1  0  0  0  0  0999 V2000 
    0.9896    0.2502    0.1027 C   0  0  0  0  0  0  0  0  0  0  0  0 
    3.3941   -1.3828   -1.9537 C   0  0  0  0  0  0  0  0  0  0  0  0 
    3.0603    0.0436   -2.3976 C   0  0  0  0  0  0  0  0  0  0  0  0 
    2.4827    0.0106   -0.1409 C   0  0  1  0  0  0  0  0  0  0  0  0 
    2.7637   -1.4399   -0.5627 C   0  0  0  0  0  0  0  0  0  0  0  0 
    2.5081   -2.4256    0.0903 O   0  0  0  0  0  0  0  0  0  0  0  0 
    3.0141    0.8187   -1.1903 O   0  0  0  0  0  0  0  0  0  0  0  0 
    0.6338   -0.4106    0.8998 H   0  0  0  0  0  0  0  0  0  0  0  0 
    0.4027    0.0470   -0.8000 H   0  0  0  0  0  0  0  0  0  0  0  0 
    0.8197    1.2905    0.3955 H   0  0  0  0  0  0  0  0  0  0  0  0 
    4.4776   -1.5227   -1.8442 H   0  0  0  0  0  0  0  0  0  0  0  0 
    3.0102   -2.1774   -2.5987 H   0  0  0  0  0  0  0  0  0  0  0  0 
    2.0904    0.0765   -2.9179 H   0  0  0  0  0  0  0  0  0  0  0  0 
    3.8123    0.5002   -3.0453 H   0  0  0  0  0  0  0  0  0  0  0  0 
    3.0468    0.2387    0.7725 H   0  0  0  0  0  0  0  0  0  0  0  0 
  1 10  1  0  0  0  0 
  1  8  1  0  0  0  0 
  2 11  1  0  0  0  0 
  2  5  1  0  0  0  0 
  3  2  1  0  0  0  0 
  3  7  1  0  0  0  0 
  4  1  1  0  0  0  0 
  4 15  1  1  0  0  0 
  5  4  1  0  0  0  0 
  5  6  2  0  0  0  0 
  7  4  1  0  0  0  0 
  9  1  1  0  0  0  0 
 12  2  1  0  0  0  0 
 13  3  1  0  0  0  0 
 14  3  1  0  0  0  0 
M  END 
>  <HBA> 
2 
 
>  <HBD> 
0 
 
>  <TPSA> 
26.3 
 
>  <cid> 
18522 
 
>  <dipole> 
1.72 
 
>  <excitation_energy_1> 
4.127 
 
>  <excitation_energy_2> 
5.311 
 
>  <excitation_energy_3> 
6.267 
 
>  <excitation_energy_4> 
6.753 
 
>  <homo_energy> 
-6.631 
 
>  <homo_lumo_gap> 
5.872 
 
>  <logP> 
0.364 
 
>  <lumo_energy> 
-0.759 
 
>  <melting_point> 
9.12 
 
>  <molecular_refractivity> 
25.32 
 
>  <oscillator_strength_1> 
0.0004 
 
>  <oscillator_strength_2> 
0.0086 
 
>  <oscillator_strength_3> 
0.0095 
 
>  <oscillator_strength_4> 
0.0193 
 
>  <open_babel_can_smiles> 
O=C1CCO[C@H]1C 
 
>  <mulliken_charges> 
15 
1   -0.452676 
2   -0.379024 
3   -0.038845 
4   0.081315 
5   0.414962 
6   -0.439493 
7   -0.490086 
8   0.167707 
9   0.149125 
10   0.164444 
11   0.185847 
12   0.178065 
13   0.137872 
14   0.156516 
15   0.164271 
 
>  <lowdin_charges> 
15 
1   -0.449134 
2   -0.329433 
3   -0.130682 
4   -0.033684 
5   0.153148 
6   -0.218172 
7   -0.278785 
8   0.167551 
9   0.153743 
10   0.161551 
11   0.176576 
12   0.175409 
13   0.133021 
14   0.156868 
15   0.162024 
 
$$$$ 
 
