PCCDB-ID:  27545 
public computational chemistry database (PCCDB) project, http://pccdb.org 
 
 32 34  0  0  0  0  0  0  0  0999 V2000 
    0.8662   -0.0487   -0.5171 C   0  0  0  0  0  0  0  0  0  0  0  0 
    4.3022    1.1819   -0.6002 C   0  0  0  0  0  0  0  0  0  0  0  0 
    5.0488    2.3464   -0.6590 C   0  0  0  0  0  0  0  0  0  0  0  0 
    6.2629    5.4431   -0.8613 C   0  0  0  0  0  0  0  0  0  0  0  0 
    3.5705    7.2386   -0.8504 C   0  0  0  0  0  0  0  0  0  0  0  0 
    6.4369    6.7152   -1.7035 C   0  0  0  0  0  0  0  0  0  0  0  0 
    4.8029    7.9373   -0.2289 C   0  0  0  0  0  0  0  0  0  0  0  0 
    2.2015    2.4331   -0.6493 C   0  0  0  0  0  0  0  0  0  0  0  0 
    2.8877    1.2213   -0.5940 C   0  0  0  0  0  0  0  0  0  0  0  0 
    4.3942    3.5905   -0.7148 C   0  0  0  0  0  0  0  0  0  0  0  0 
    4.8362    4.9624   -0.7862 C   0  0  0  0  0  0  0  0  0  0  0  0 
    3.7042    5.7445   -0.8193 C   0  0  0  0  0  0  0  0  0  0  0  0 
    2.9759    3.6004   -0.7090 C   0  0  0  0  0  0  0  0  0  0  0  0 
    6.0462    7.9445   -0.9994 N   0  0  0  0  0  0  0  0  0  0  0  0 
    2.5835    4.9191   -0.7767 N   0  0  0  0  0  0  0  0  0  0  0  0 
    2.2800   -0.0062   -0.5280 O   0  0  0  0  0  0  0  0  0  0  0  0 
    0.5953   -1.1050   -0.4603 H   0  0  0  0  0  0  0  0  0  0  0  0 
    0.4394    0.3849   -1.4325 H   0  0  0  0  0  0  0  0  0  0  0  0 
    0.4508    0.4783    0.3534 H   0  0  0  0  0  0  0  0  0  0  0  0 
    4.7799    0.2085   -0.5539 H   0  0  0  0  0  0  0  0  0  0  0  0 
    6.1345    2.2917   -0.6577 H   0  0  0  0  0  0  0  0  0  0  0  0 
    6.6952    5.6108    0.1364 H   0  0  0  0  0  0  0  0  0  0  0  0 
    6.8721    4.6544   -1.3212 H   0  0  0  0  0  0  0  0  0  0  0  0 
    3.4047    7.6130   -1.8730 H   0  0  0  0  0  0  0  0  0  0  0  0 
    2.6802    7.5314   -0.2734 H   0  0  0  0  0  0  0  0  0  0  0  0 
    5.8838    6.5648   -2.6480 H   0  0  0  0  0  0  0  0  0  0  0  0 
    7.4955    6.8271   -1.9722 H   0  0  0  0  0  0  0  0  0  0  0  0 
    4.9921    7.4701    0.7458 H   0  0  0  0  0  0  0  0  0  0  0  0 
    4.5557    8.9856   -0.0255 H   0  0  0  0  0  0  0  0  0  0  0  0 
    1.1185    2.4825   -0.6471 H   0  0  0  0  0  0  0  0  0  0  0  0 
    6.0187    8.7050   -1.6742 H   0  0  0  0  0  0  0  0  0  0  0  0 
    1.6302    5.2472   -0.7652 H   0  0  0  0  0  0  0  0  0  0  0  0 
  1 17  1  0  0  0  0 
  1 19  1  0  0  0  0 
  2  9  1  0  0  0  0 
  2 20  1  0  0  0  0 
  3 21  1  0  0  0  0 
  3  2  2  0  0  0  0 
  4 11  1  0  0  0  0 
  4 22  1  0  0  0  0 
  5 12  1  0  0  0  0 
  5 25  1  0  0  0  0 
  5  7  1  0  0  0  0 
  6 14  1  0  0  0  0 
  6  4  1  0  0  0  0 
  7 29  1  0  0  0  0 
  7 28  1  0  0  0  0 
  8 30  1  0  0  0  0 
  8  9  2  0  0  0  0 
  9 16  1  0  0  0  0 
 10 13  2  0  0  0  0 
 10  3  1  0  0  0  0 
 11 10  1  0  0  0  0 
 12 11  2  0  0  0  0 
 12 15  1  0  0  0  0 
 13  8  1  0  0  0  0 
 14  7  1  0  0  0  0 
 15 32  1  0  0  0  0 
 15 13  1  0  0  0  0 
 16  1  1  0  0  0  0 
 18  1  1  0  0  0  0 
 23  4  1  0  0  0  0 
 24  5  1  0  0  0  0 
 26  6  1  0  0  0  0 
 27  6  1  0  0  0  0 
 31 14  1  0  0  0  0 
M  END 
>  <HBA> 
2 
 
>  <HBD> 
2 
 
>  <TPSA> 
37.05 
 
>  <cid> 
27545 
 
>  <dipole> 
3.62 
 
>  <excitation_energy_1> 
4.244 
 
>  <excitation_energy_2> 
4.401 
 
>  <excitation_energy_3> 
4.609 
 
>  <excitation_energy_4> 
4.79 
 
>  <homo_energy> 
-4.849 
 
>  <homo_lumo_gap> 
5.018 
 
>  <logP> 
2.193 
 
>  <lumo_energy> 
0.169 
 
>  <melting_point> 
159.14 
 
>  <molecular_refractivity> 
68.94 
 
>  <oscillator_strength_1> 
0.0017 
 
>  <oscillator_strength_2> 
0.1011 
 
>  <oscillator_strength_3> 
0.0037 
 
>  <oscillator_strength_4> 
0.0093 
 
>  <open_babel_can_smiles> 
COc1ccc2c(c1)[nH]c1c2CCNCC1 
 
>  <mulliken_charges> 
32 
1   -0.206934 
2   -0.185786 
3   -0.209327 
4   -0.353018 
5   -0.351842 
6   -0.122487 
7   -0.139179 
8   -0.256827 
9   0.365707 
10   0.058168 
11   0.044524 
12   0.296644 
13   0.332964 
14   -0.547715 
15   -0.768231 
16   -0.512819 
17   0.165708 
18   0.14521 
19   0.14528 
20   0.127569 
21   0.12308 
22   0.156331 
23   0.144797 
24   0.146987 
25   0.133703 
26   0.120001 
27   0.13479 
28   0.153432 
29   0.134714 
30   0.118265 
31   0.291242 
32   0.315047 
 
>  <lowdin_charges> 
32 
1   -0.276822 
2   -0.199649 
3   -0.152525 
4   -0.275361 
5   -0.2959 
6   -0.200382 
7   -0.201654 
8   -0.247102 
9   0.097102 
10   -0.050137 
11   -0.076921 
12   0.006828 
13   0.039602 
14   -0.370586 
15   -0.208682 
16   -0.203867 
17   0.159076 
18   0.141572 
19   0.141926 
20   0.162672 
21   0.153767 
22   0.153117 
23   0.1565 
24   0.147993 
25   0.149652 
26   0.122144 
27   0.141689 
28   0.146467 
29   0.145461 
30   0.156152 
31   0.25371 
32   0.284158 
 
$$$$ 
 
