PCCDB-ID:  50628 
public computational chemistry database (PCCDB) project, http://pccdb.org 
 
 28 27  0  0  0  0  0  0  0  0999 V2000 
    0.1358   -1.9214    0.2304 C   0  0  0  0  0  0  0  0  0  0  0  0 
    3.9299    0.1423    4.5929 C   0  0  0  0  0  0  0  0  0  0  0  0 
   -1.9627    0.8984    1.2860 C   0  0  0  0  0  0  0  0  0  0  0  0 
    0.3436   -0.8980    1.3529 C   0  0  0  0  0  0  0  0  0  0  0  0 
    3.6189    1.2476    3.5971 C   0  0  0  0  0  0  0  0  0  0  0  0 
    1.7597    0.9486    0.4172 C   0  0  0  0  0  0  0  0  0  0  0  0 
    2.5731    1.6369    1.5075 C   0  0  0  0  0  0  0  0  0  0  0  0 
   -0.5904    1.3786    0.8272 C   0  0  0  0  0  0  0  0  0  0  0  0 
    0.4498    0.4829    0.8734 N   0  0  0  0  0  0  0  0  0  0  0  0 
   -0.4261    2.5335    0.4380 O   0  0  0  0  0  0  0  0  0  0  0  0 
    2.9191    0.6839    2.4998 O   0  0  0  0  0  0  0  0  0  0  0  0 
    0.0955   -2.9366    0.6425 H   0  0  0  0  0  0  0  0  0  0  0  0 
    0.9559   -1.8862   -0.4953 H   0  0  0  0  0  0  0  0  0  0  0  0 
   -0.7981   -1.7341   -0.3111 H   0  0  0  0  0  0  0  0  0  0  0  0 
    4.4724    0.5454    5.4551 H   0  0  0  0  0  0  0  0  0  0  0  0 
    4.5462   -0.6334    4.1267 H   0  0  0  0  0  0  0  0  0  0  0  0 
    3.0058   -0.3230    4.9517 H   0  0  0  0  0  0  0  0  0  0  0  0 
   -1.9811    0.7239    2.3685 H   0  0  0  0  0  0  0  0  0  0  0  0 
   -2.2727   -0.0291    0.7935 H   0  0  0  0  0  0  0  0  0  0  0  0 
   -2.6777    1.6875    1.0502 H   0  0  0  0  0  0  0  0  0  0  0  0 
    1.2601   -1.1179    1.9073 H   0  0  0  0  0  0  0  0  0  0  0  0 
   -0.4750   -0.9620    2.0740 H   0  0  0  0  0  0  0  0  0  0  0  0 
    4.5497    1.7250    3.2456 H   0  0  0  0  0  0  0  0  0  0  0  0 
    3.0095    2.0366    4.0694 H   0  0  0  0  0  0  0  0  0  0  0  0 
    2.3208    0.0888    0.0361 H   0  0  0  0  0  0  0  0  0  0  0  0 
    1.6053    1.6561   -0.4007 H   0  0  0  0  0  0  0  0  0  0  0  0 
    1.9838    2.4584    1.9411 H   0  0  0  0  0  0  0  0  0  0  0  0 
    3.4839    2.0745    1.0622 H   0  0  0  0  0  0  0  0  0  0  0  0 
  1 12  1  0  0  0  0 
  1  4  1  0  0  0  0 
  2 17  1  0  0  0  0 
  2 15  1  0  0  0  0 
  3 18  1  0  0  0  0 
  4 21  1  0  0  0  0 
  4 22  1  0  0  0  0 
  5 24  1  0  0  0  0 
  5  2  1  0  0  0  0 
  6  9  1  0  0  0  0 
  6  7  1  0  0  0  0 
  7 27  1  0  0  0  0 
  7 11  1  0  0  0  0 
  8  9  1  0  0  0  0 
  8  3  1  0  0  0  0 
  9  4  1  0  0  0  0 
 10  8  2  0  0  0  0 
 11  5  1  0  0  0  0 
 13  1  1  0  0  0  0 
 14  1  1  0  0  0  0 
 16  2  1  0  0  0  0 
 19  3  1  0  0  0  0 
 20  3  1  0  0  0  0 
 23  5  1  0  0  0  0 
 25  6  1  0  0  0  0 
 26  6  1  0  0  0  0 
 28  7  1  0  0  0  0 
M  END 
>  <HBA> 
3 
 
>  <HBD> 
0 
 
>  <TPSA> 
29.54 
 
>  <cid> 
50628 
 
>  <dipole> 
2.97 
 
>  <excitation_energy_1> 
5.56 
 
>  <excitation_energy_2> 
5.792 
 
>  <excitation_energy_3> 
6.121 
 
>  <excitation_energy_4> 
6.174 
 
>  <homo_energy> 
-6.215 
 
>  <homo_lumo_gap> 
7.203 
 
>  <logP> 
0.891 
 
>  <lumo_energy> 
0.988 
 
>  <melting_point> 
-12.81 
 
>  <molecular_refractivity> 
44.75 
 
>  <oscillator_strength_1> 
0.002 
 
>  <oscillator_strength_2> 
0.0147 
 
>  <oscillator_strength_3> 
0.0387 
 
>  <oscillator_strength_4> 
0.0498 
 
>  <open_babel_can_smiles> 
CCOCCN(C(=O)C)CC 
 
>  <mulliken_charges> 
28 
1   -0.443404 
2   -0.454962 
3   -0.548977 
4   -0.155984 
5   -0.001374 
6   -0.166412 
7   -0.009104 
8   0.57696 
9   -0.39501 
10   -0.522886 
11   -0.476846 
12   0.147055 
13   0.154264 
14   0.151789 
15   0.145158 
16   0.156837 
17   0.155515 
18   0.170258 
19   0.16339 
20   0.184943 
21   0.180738 
22   0.150991 
23   0.119785 
24   0.123307 
25   0.147728 
26   0.178769 
27   0.149499 
28   0.117972 
 
>  <lowdin_charges> 
28 
1   -0.45422 
2   -0.451156 
3   -0.473744 
4   -0.20104 
5   -0.125716 
6   -0.205098 
7   -0.13729 
8   0.155752 
9   -0.104414 
10   -0.32625 
11   -0.28106 
12   0.153223 
13   0.153467 
14   0.150831 
15   0.155902 
16   0.15713 
17   0.155641 
18   0.165916 
19   0.162842 
20   0.178326 
21   0.164035 
22   0.153636 
23   0.125847 
24   0.128814 
25   0.152018 
26   0.17303 
27   0.144059 
28   0.129519 
 
$$$$ 
 
