PCCDB-ID:  68488 
public computational chemistry database (PCCDB) project, http://pccdb.org 
 
 20 21  0  0  0  0  0  0  0  0999 V2000 
   -1.4389   -0.1505    0.1319 C   0  0  0  0  0  0  0  0  0  0  0  0 
   -0.6275   -1.2822    0.1820 C   0  0  0  0  0  0  0  0  0  0  0  0 
   -0.8445    1.1005   -0.0101 C   0  0  0  0  0  0  0  0  0  0  0  0 
    2.5929    2.5324   -0.6645 C   0  0  0  0  0  0  0  0  0  0  0  0 
    0.6446    3.7232    0.0390 C   0  0  0  0  0  0  0  0  0  0  0  0 
    0.7527   -1.1002    0.0769 C   0  0  0  0  0  0  0  0  0  0  0  0 
    3.2270    3.7646   -0.8015 C   0  0  0  0  0  0  0  0  0  0  0  0 
    1.3715    4.9006   -0.1303 C   0  0  0  0  0  0  0  0  0  0  0  0 
    1.2578    2.4930   -0.2380 C   0  0  0  0  0  0  0  0  0  0  0  0 
    0.5545    1.1892   -0.0919 C   0  0  0  0  0  0  0  0  0  0  0  0 
    2.6428    4.9437   -0.5462 N   0  0  0  0  0  0  0  0  0  0  0  0 
    1.3352    0.0925   -0.0562 N   0  0  0  0  0  0  0  0  0  0  0  0 
   -2.5201   -0.2383    0.1957 H   0  0  0  0  0  0  0  0  0  0  0  0 
   -1.0466   -2.2775    0.2931 H   0  0  0  0  0  0  0  0  0  0  0  0 
   -1.4608    1.9905   -0.0753 H   0  0  0  0  0  0  0  0  0  0  0  0 
    3.1143    1.6072   -0.8804 H   0  0  0  0  0  0  0  0  0  0  0  0 
   -0.3765    3.7791    0.4028 H   0  0  0  0  0  0  0  0  0  0  0  0 
    1.4244   -1.9571    0.1015 H   0  0  0  0  0  0  0  0  0  0  0  0 
    4.2624    3.8085   -1.1357 H   0  0  0  0  0  0  0  0  0  0  0  0 
    0.9059    5.8611    0.0855 H   0  0  0  0  0  0  0  0  0  0  0  0 
  1  2  1  0  0  0  0 
  1 13  1  0  0  0  0 
  2 14  1  0  0  0  0 
  3  1  2  0  0  0  0 
  4  9  1  0  0  0  0 
  5 17  1  0  0  0  0 
  6 18  1  0  0  0  0 
  6  2  2  0  0  0  0 
  7  4  2  0  0  0  0 
  7 11  1  0  0  0  0 
  8  5  1  0  0  0  0 
  8 20  1  0  0  0  0 
  9 10  1  0  0  0  0 
  9  5  2  0  0  0  0 
 10 12  2  0  0  0  0 
 10  3  1  0  0  0  0 
 11  8  2  0  0  0  0 
 12  6  1  0  0  0  0 
 15  3  1  0  0  0  0 
 16  4  1  0  0  0  0 
 19  7  1  0  0  0  0 
M  END 
>  <HBA> 
2 
 
>  <HBD> 
0 
 
>  <TPSA> 
25.78 
 
>  <cid> 
68488 
 
>  <dipole> 
4.01 
 
>  <excitation_energy_1> 
4.274 
 
>  <excitation_energy_2> 
4.418 
 
>  <excitation_energy_3> 
4.719 
 
>  <excitation_energy_4> 
4.735 
 
>  <homo_energy> 
-6.765 
 
>  <homo_lumo_gap> 
5.214 
 
>  <logP> 
2.144 
 
>  <lumo_energy> 
-1.551 
 
>  <melting_point> 
71.6 
 
>  <molecular_refractivity> 
47.47 
 
>  <oscillator_strength_1> 
0.0021 
 
>  <oscillator_strength_2> 
0.0045 
 
>  <oscillator_strength_3> 
0.111 
 
>  <oscillator_strength_4> 
0.2995 
 
>  <open_babel_can_smiles> 
n1ccc(cc1)c1ccccn1 
 
>  <mulliken_charges> 
20 
1   -0.103509 
2   -0.141851 
3   -0.161079 
4   -0.168329 
5   -0.190692 
6   0.046321 
7   0.034835 
8   0.033068 
9   0.122984 
10   0.25274 
11   -0.406408 
12   -0.477896 
13   0.147857 
14   0.143631 
15   0.145284 
16   0.16263 
17   0.133496 
18   0.145584 
19   0.141611 
20   0.139723 
 
>  <lowdin_charges> 
20 
1   -0.121911 
2   -0.172638 
3   -0.172904 
4   -0.164249 
5   -0.17919 
6   -0.083019 
7   -0.087757 
8   -0.09163 
9   0.010546 
10   0.052413 
11   -0.148532 
12   -0.149461 
13   0.163879 
14   0.166646 
15   0.166831 
16   0.179131 
17   0.160076 
18   0.159855 
19   0.155518 
20   0.156395 
 
$$$$ 
 
