PCCDB-ID:  12248 
public computational chemistry database (PCCDB) project, http://pccdb.org 
 
 14 13  0  0  0  0  0  0  0  0999 V2000 
    0.8200   -0.1090   -0.0119 C   0  0  0  0  0  0  0  0  0  0  0  0 
    5.2971    0.0891    0.5858 C   0  0  0  0  0  0  0  0  0  0  0  0 
    2.3089   -0.1001    0.1529 C   0  0  0  0  0  0  0  0  0  0  0  0 
    3.1361   -1.0645   -0.2773 C   0  0  0  0  0  0  0  0  0  0  0  0 
    4.6121   -1.0702   -0.1249 C   0  0  0  0  0  0  0  0  0  0  0  0 
    5.2632   -2.0044   -0.5715 O   0  0  0  0  0  0  0  0  0  0  0  0 
    0.4836    0.7725   -0.5744 H   0  0  0  0  0  0  0  0  0  0  0  0 
    0.3184   -0.0651    0.9643 H   0  0  0  0  0  0  0  0  0  0  0  0 
    0.4752   -1.0051   -0.5366 H   0  0  0  0  0  0  0  0  0  0  0  0 
    4.9252    0.2004    1.6111 H   0  0  0  0  0  0  0  0  0  0  0  0 
    5.1112    1.0360    0.0649 H   0  0  0  0  0  0  0  0  0  0  0  0 
    6.3712   -0.1026    0.6103 H   0  0  0  0  0  0  0  0  0  0  0  0 
    2.7241    0.7681    0.6651 H   0  0  0  0  0  0  0  0  0  0  0  0 
    2.7448   -1.9407   -0.7921 H   0  0  0  0  0  0  0  0  0  0  0  0 
  1  3  1  0  0  0  0 
  1  8  1  0  0  0  0 
  2 12  1  0  0  0  0 
  2 10  1  0  0  0  0 
  3 13  1  0  0  0  0 
  4  5  1  0  0  0  0 
  4  3  2  0  0  0  0 
  5  2  1  0  0  0  0 
  6  5  2  0  0  0  0 
  7  1  1  0  0  0  0 
  9  1  1  0  0  0  0 
 11  2  1  0  0  0  0 
 14  4  1  0  0  0  0 
M  END 
>  <HBA> 
1 
 
>  <HBD> 
0 
 
>  <TPSA> 
17.07 
 
>  <cid> 
12248 
 
>  <dipole> 
3.7 
 
>  <excitation_energy_1> 
3.708 
 
>  <excitation_energy_2> 
5.853 
 
>  <excitation_energy_3> 
6.255 
 
>  <excitation_energy_4> 
6.75 
 
>  <homo_energy> 
-6.558 
 
>  <homo_lumo_gap> 
5.252 
 
>  <logP> 
1.151 
 
>  <lumo_energy> 
-1.306 
 
>  <melting_point> 
5.28 
 
>  <molecular_refractivity> 
25.88 
 
>  <oscillator_strength_1> 
0.0002 
 
>  <oscillator_strength_2> 
0.4223 
 
>  <oscillator_strength_3> 
0.0249 
 
>  <oscillator_strength_4> 
0.0039 
 
>  <open_babel_can_smiles> 
C/C=C/C(=O)C 
 
>  <mulliken_charges> 
14 
1   -0.493427 
2   -0.541801 
3   -0.076688 
4   -0.169688 
5   0.445796 
6   -0.459972 
7   0.167496 
8   0.167621 
9   0.167187 
10   0.165777 
11   0.166425 
12   0.180257 
13   0.139939 
14   0.141078 
 
>  <lowdin_charges> 
14 
1   -0.439455 
2   -0.475873 
3   -0.118584 
4   -0.204004 
5   0.158516 
6   -0.244279 
7   0.166008 
8   0.165252 
9   0.162687 
10   0.166216 
11   0.167489 
12   0.172736 
13   0.157332 
14   0.165961 
 
$$$$ 
 
