PCCDB-ID:  14240 
public computational chemistry database (PCCDB) project, http://pccdb.org 
 
 33 32  0  0  0  0  0  0  0  0999 V2000 
    0.4024   -0.2686    0.5942 C   0  0  0  0  0  0  0  0  0  0  0  0 
   10.8950   -2.1628    4.7128 C   0  0  0  0  0  0  0  0  0  0  0  0 
    8.9261   -2.9048    5.9787 C   0  0  0  0  0  0  0  0  0  0  0  0 
    1.9282   -0.1808    0.4864 C   0  0  0  0  0  0  0  0  0  0  0  0 
    2.6570   -0.7838    1.6943 C   0  0  0  0  0  0  0  0  0  0  0  0 
    4.1852   -0.6980    1.5944 C   0  0  0  0  0  0  0  0  0  0  0  0 
    4.9151   -1.3007    2.8019 C   0  0  0  0  0  0  0  0  0  0  0  0 
    6.4417   -1.2067    2.6914 C   0  0  0  0  0  0  0  0  0  0  0  0 
    7.1610   -1.8115    3.9004 C   0  0  0  0  0  0  0  0  0  0  0  0 
    8.6851   -1.7036    3.7802 C   0  0  0  0  0  0  0  0  0  0  0  0 
    9.4440   -2.2183    4.8094 N   0  0  0  0  0  0  0  0  0  0  0  0 
    9.2039   -1.1721    2.8025 O   0  0  0  0  0  0  0  0  0  0  0  0 
   -0.0873    0.1701   -0.2828 H   0  0  0  0  0  0  0  0  0  0  0  0 
    0.0363    0.2638    1.4808 H   0  0  0  0  0  0  0  0  0  0  0  0 
    0.0698   -1.3110    0.6745 H   0  0  0  0  0  0  0  0  0  0  0  0 
   11.3166   -1.6291    5.5750 H   0  0  0  0  0  0  0  0  0  0  0  0 
   11.1579   -1.6406    3.7941 H   0  0  0  0  0  0  0  0  0  0  0  0 
   11.3219   -3.1751    4.6931 H   0  0  0  0  0  0  0  0  0  0  0  0 
    9.3601   -2.4742    6.8911 H   0  0  0  0  0  0  0  0  0  0  0  0 
    9.1847   -3.9741    5.9590 H   0  0  0  0  0  0  0  0  0  0  0  0 
    7.8431   -2.8162    6.0458 H   0  0  0  0  0  0  0  0  0  0  0  0 
    2.2271    0.8708    0.3715 H   0  0  0  0  0  0  0  0  0  0  0  0 
    2.2607   -0.6917   -0.4285 H   0  0  0  0  0  0  0  0  0  0  0  0 
    2.3576   -1.8367    1.8086 H   0  0  0  0  0  0  0  0  0  0  0  0 
    2.3227   -0.2734    2.6102 H   0  0  0  0  0  0  0  0  0  0  0  0 
    4.4837    0.3545    1.4805 H   0  0  0  0  0  0  0  0  0  0  0  0 
    4.5191   -1.2077    0.6787 H   0  0  0  0  0  0  0  0  0  0  0  0 
    4.6173   -2.3542    2.9161 H   0  0  0  0  0  0  0  0  0  0  0  0 
    4.5799   -0.7911    3.7182 H   0  0  0  0  0  0  0  0  0  0  0  0 
    6.7475   -0.1598    2.5800 H   0  0  0  0  0  0  0  0  0  0  0  0 
    6.7851   -1.7128    1.7814 H   0  0  0  0  0  0  0  0  0  0  0  0 
    6.8763   -2.8672    4.0139 H   0  0  0  0  0  0  0  0  0  0  0  0 
    6.8290   -1.3104    4.8209 H   0  0  0  0  0  0  0  0  0  0  0  0 
  1 15  1  0  0  0  0 
  1 14  1  0  0  0  0 
  2 11  1  0  0  0  0 
  2 16  1  0  0  0  0 
  3 21  1  0  0  0  0 
  3 19  1  0  0  0  0 
  4  1  1  0  0  0  0 
  4  5  1  0  0  0  0 
  5 24  1  0  0  0  0 
  5 25  1  0  0  0  0 
  6  5  1  0  0  0  0 
  6  7  1  0  0  0  0 
  7 28  1  0  0  0  0 
  7 29  1  0  0  0  0 
  8  7  1  0  0  0  0 
  8  9  1  0  0  0  0 
  9 32  1  0  0  0  0 
  9 33  1  0  0  0  0 
 10  9  1  0  0  0  0 
 10 11  1  0  0  0  0 
 11  3  1  0  0  0  0 
 12 10  2  0  0  0  0 
 13  1  1  0  0  0  0 
 17  2  1  0  0  0  0 
 18  2  1  0  0  0  0 
 20  3  1  0  0  0  0 
 22  4  1  0  0  0  0 
 23  4  1  0  0  0  0 
 26  6  1  0  0  0  0 
 27  6  1  0  0  0  0 
 30  8  1  0  0  0  0 
 31  8  1  0  0  0  0 
M  END 
>  <HBA> 
2 
 
>  <HBD> 
0 
 
>  <TPSA> 
20.31 
 
>  <cid> 
14240 
 
>  <dipole> 
3.37 
 
>  <excitation_energy_1> 
5.659 
 
>  <excitation_energy_2> 
5.737 
 
>  <excitation_energy_3> 
6.109 
 
>  <excitation_energy_4> 
6.357 
 
>  <homo_energy> 
-6.335 
 
>  <homo_lumo_gap> 
7.282 
 
>  <logP> 
2.435 
 
>  <lumo_energy> 
0.947 
 
>  <melting_point> 
-5.19 
 
>  <molecular_refractivity> 
53.28 
 
>  <oscillator_strength_1> 
0.0011 
 
>  <oscillator_strength_2> 
0.0191 
 
>  <oscillator_strength_3> 
0.0085 
 
>  <oscillator_strength_4> 
0.0052 
 
>  <open_babel_can_smiles> 
CCCCCCCC(=O)N(C)C 
 
>  <mulliken_charges> 
33 
1   -0.44116 
2   -0.321147 
3   -0.314781 
4   -0.246416 
5   -0.24524 
6   -0.252242 
7   -0.258092 
8   -0.241922 
9   -0.382887 
10   0.606675 
11   -0.412575 
12   -0.520507 
13   0.141223 
14   0.140261 
15   0.140235 
16   0.147921 
17   0.206178 
18   0.147564 
19   0.157135 
20   0.155303 
21   0.171916 
22   0.130525 
23   0.130455 
24   0.124622 
25   0.124644 
26   0.129718 
27   0.12956 
28   0.122433 
29   0.122492 
30   0.150016 
31   0.148918 
32   0.153971 
33   0.155205 
 
>  <lowdin_charges> 
33 
1   -0.444837 
2   -0.356602 
3   -0.348993 
4   -0.27087 
5   -0.27345 
6   -0.272622 
7   -0.274584 
8   -0.268018 
9   -0.306961 
10   0.159947 
11   -0.112304 
12   -0.315952 
13   0.149636 
14   0.146215 
15   0.144548 
16   0.14745 
17   0.185653 
18   0.145078 
19   0.151533 
20   0.145413 
21   0.164204 
22   0.137643 
23   0.13925 
24   0.134888 
25   0.136537 
26   0.137863 
27   0.139428 
28   0.133442 
29   0.135127 
30   0.150589 
31   0.151746 
32   0.153561 
33   0.155442 
 
$$$$ 
 
