PCCDB-ID:  8163 
public computational chemistry database (PCCDB) project, http://pccdb.org 
 
 34 33  0  0  0  0  0  0  0  0999 V2000 
    1.8818    5.5518    3.0219 C   0  0  0  0  0  0  0  0  0  0  0  0 
    7.7645   -0.4174    9.4588 C   0  0  0  0  0  0  0  0  0  0  0  0 
    3.2161    4.8777    3.3573 C   0  0  0  0  0  0  0  0  0  0  0  0 
    3.1448    3.3454    3.3292 C   0  0  0  0  0  0  0  0  0  0  0  0 
    4.4767    2.6614    3.6634 C   0  0  0  0  0  0  0  0  0  0  0  0 
    4.3960    1.1283    3.6285 C   0  0  0  0  0  0  0  0  0  0  0  0 
    5.7292    0.4050    3.8807 C   0  0  0  0  0  0  0  0  0  0  0  0 
    6.2983    0.5821    5.2955 C   0  0  0  0  0  0  0  0  0  0  0  0 
    7.5902   -0.2154    5.5214 C   0  0  0  0  0  0  0  0  0  0  0  0 
    8.1754   -0.0526    6.9280 C   0  0  0  0  0  0  0  0  0  0  0  0 
    7.3867   -0.7615    8.0268 C   0  0  0  0  0  0  0  0  0  0  0  0 
    6.5108   -1.5688    7.7775 O   0  0  0  0  0  0  0  0  0  0  0  0 
    1.9661    6.6443    3.0495 H   0  0  0  0  0  0  0  0  0  0  0  0 
    1.1001    5.2602    3.7343 H   0  0  0  0  0  0  0  0  0  0  0  0 
    1.5360    5.2700    2.0196 H   0  0  0  0  0  0  0  0  0  0  0  0 
    7.2635   -1.0989   10.1494 H   0  0  0  0  0  0  0  0  0  0  0  0 
    7.4591    0.6125    9.6852 H   0  0  0  0  0  0  0  0  0  0  0  0 
    8.8501   -0.4679    9.6058 H   0  0  0  0  0  0  0  0  0  0  0  0 
    3.5527    5.2065    4.3509 H   0  0  0  0  0  0  0  0  0  0  0  0 
    3.9856    5.2168    2.6490 H   0  0  0  0  0  0  0  0  0  0  0  0 
    2.8071    3.0177    2.3345 H   0  0  0  0  0  0  0  0  0  0  0  0 
    2.3740    3.0061    4.0374 H   0  0  0  0  0  0  0  0  0  0  0  0 
    4.8110    2.9970    4.6551 H   0  0  0  0  0  0  0  0  0  0  0  0 
    5.2463    2.9987    2.9524 H   0  0  0  0  0  0  0  0  0  0  0  0 
    4.0100    0.8200    2.6463 H   0  0  0  0  0  0  0  0  0  0  0  0 
    3.6539    0.7869    4.3655 H   0  0  0  0  0  0  0  0  0  0  0  0 
    6.4713    0.7468    3.1432 H   0  0  0  0  0  0  0  0  0  0  0  0 
    5.5877   -0.6687    3.6937 H   0  0  0  0  0  0  0  0  0  0  0  0 
    5.5468    0.2620    6.0289 H   0  0  0  0  0  0  0  0  0  0  0  0 
    6.4960    1.6461    5.4889 H   0  0  0  0  0  0  0  0  0  0  0  0 
    8.3446    0.0984    4.7873 H   0  0  0  0  0  0  0  0  0  0  0  0 
    7.3956   -1.2798    5.3445 H   0  0  0  0  0  0  0  0  0  0  0  0 
    8.2828    1.0090    7.1951 H   0  0  0  0  0  0  0  0  0  0  0  0 
    9.1972   -0.4622    6.9682 H   0  0  0  0  0  0  0  0  0  0  0  0 
  1 13  1  0  0  0  0 
  1  3  1  0  0  0  0 
  1 14  1  0  0  0  0 
  2 18  1  0  0  0  0 
  2 17  1  0  0  0  0 
  2 16  1  0  0  0  0 
  3 19  1  0  0  0  0 
  4  3  1  0  0  0  0 
  4  5  1  0  0  0  0 
  4 22  1  0  0  0  0 
  5 23  1  0  0  0  0 
  6  5  1  0  0  0  0 
  6  7  1  0  0  0  0 
  6 26  1  0  0  0  0 
  7  8  1  0  0  0  0 
  8 30  1  0  0  0  0 
  8  9  1  0  0  0  0 
  8 29  1  0  0  0  0 
  9 10  1  0  0  0  0 
 10 34  1  0  0  0  0 
 10 33  1  0  0  0  0 
 10 11  1  0  0  0  0 
 11  2  1  0  0  0  0 
 12 11  2  0  0  0  0 
 15  1  1  0  0  0  0 
 20  3  1  0  0  0  0 
 21  4  1  0  0  0  0 
 24  5  1  0  0  0  0 
 25  6  1  0  0  0  0 
 27  7  1  0  0  0  0 
 28  7  1  0  0  0  0 
 31  9  1  0  0  0  0 
 32  9  1  0  0  0  0 
M  END 
>  <HBA> 
1 
 
>  <HBD> 
0 
 
>  <TPSA> 
17.07 
 
>  <cid> 
8163 
 
>  <dipole> 
2.55 
 
>  <excitation_energy_1> 
4.419 
 
>  <excitation_energy_2> 
6.066 
 
>  <excitation_energy_3> 
6.737 
 
>  <excitation_energy_4> 
6.904 
 
>  <homo_energy> 
-6.618 
 
>  <homo_lumo_gap> 
6.332 
 
>  <logP> 
3.716 
 
>  <lumo_energy> 
-0.286 
 
>  <melting_point> 
-8.49 
 
>  <molecular_refractivity> 
55.19 
 
>  <oscillator_strength_1> 
0.0 
 
>  <oscillator_strength_2> 
0.0227 
 
>  <oscillator_strength_3> 
0.014 
 
>  <oscillator_strength_4> 
0.0139 
 
>  <open_babel_can_smiles> 
CCCCCCCCCC(=O)C 
 
>  <mulliken_charges> 
34 
1   -0.441135 
2   -0.528599 
3   -0.246595 
4   -0.24527 
5   -0.25343 
6   -0.255581 
7   -0.255353 
8   -0.260152 
9   -0.248019 
10   -0.359618 
11   0.458913 
12   -0.439141 
13   0.140385 
14   0.141112 
15   0.141022 
16   0.179163 
17   0.171374 
18   0.163351 
19   0.128391 
20   0.128923 
21   0.125906 
22   0.12697 
23   0.130045 
24   0.124057 
25   0.1262 
26   0.129462 
27   0.122515 
28   0.132505 
29   0.149209 
30   0.124269 
31   0.126403 
32   0.153817 
33   0.148837 
34   0.160062 
 
>  <lowdin_charges> 
34 
1   -0.442674 
2   -0.474266 
3   -0.272804 
4   -0.27475 
5   -0.277324 
6   -0.275545 
7   -0.273386 
8   -0.279284 
9   -0.272339 
10   -0.309964 
11   0.165422 
12   -0.237585 
13   0.146477 
14   0.14689 
15   0.145483 
16   0.173674 
17   0.1709 
18   0.164265 
19   0.137356 
20   0.139035 
21   0.136389 
22   0.138474 
23   0.137422 
24   0.136915 
25   0.139588 
26   0.139916 
27   0.136066 
28   0.141313 
29   0.149192 
30   0.132824 
31   0.142454 
32   0.152108 
33   0.153658 
34   0.1641 
 
$$$$ 
 
