PCCDB-ID:  14039 
public computational chemistry database (PCCDB) project, http://pccdb.org 
 
 11 10  0  0  0  0  0  0  0  0999 V2000 
    0.8470    0.0156    0.1698 C   0  0  0  0  0  0  0  0  0  0  0  0 
    2.3355    0.0973   -0.0512 C   0  0  0  0  0  0  0  0  0  0  0  0 
    2.1560    2.0432   -1.2221 N   0  0  0  0  0  0  0  0  0  0  0  0 
    2.9673    1.0061   -0.6821 N   0  0  0  0  0  0  0  0  0  0  0  0 
    3.1020   -0.9185    0.4553 O   0  0  0  0  0  0  0  0  0  0  0  0 
    0.4172    1.0202    0.1256 H   0  0  0  0  0  0  0  0  0  0  0  0 
    0.6170   -0.4214    1.1493 H   0  0  0  0  0  0  0  0  0  0  0  0 
    0.3565   -0.6041   -0.5929 H   0  0  0  0  0  0  0  0  0  0  0  0 
    2.8022    2.6501   -1.7203 H   0  0  0  0  0  0  0  0  0  0  0  0 
    1.5268    1.6630   -1.9328 H   0  0  0  0  0  0  0  0  0  0  0  0 
    2.5366   -1.4957    0.9888 H   0  0  0  0  0  0  0  0  0  0  0  0 
  1  7  1  0  0  0  0 
  2  1  1  0  0  0  0 
  2  5  1  0  0  0  0 
  3  4  1  0  0  0  0 
  4  2  2  0  0  0  0 
  5 11  1  0  0  0  0 
  6  1  1  0  0  0  0 
  8  1  1  0  0  0  0 
  9  3  1  0  0  0  0 
 10  3  1  0  0  0  0 
M  END 
>  <HBA> 
3 
 
>  <HBD> 
2 
 
>  <TPSA> 
55.12 
 
>  <cid> 
14039 
 
>  <dipole> 
3.21 
 
>  <excitation_energy_1> 
4.973 
 
>  <excitation_energy_2> 
5.238 
 
>  <excitation_energy_3> 
5.66 
 
>  <excitation_energy_4> 
6.15 
 
>  <homo_energy> 
-5.587 
 
>  <homo_lumo_gap> 
6.406 
 
>  <logP> 
0.087 
 
>  <lumo_energy> 
0.819 
 
>  <melting_point> 
78.91 
 
>  <molecular_refractivity> 
17.44 
 
>  <oscillator_strength_1> 
0.0065 
 
>  <oscillator_strength_2> 
0.0054 
 
>  <oscillator_strength_3> 
0.0835 
 
>  <oscillator_strength_4> 
0.0034 
 
>  <open_babel_can_smiles> 
C/C(=N\N)/O 
 
>  <mulliken_charges> 
11 
1   -0.563308 
2   0.504344 
3   -0.589102 
4   -0.329719 
5   -0.584289 
6   0.20489 
7   0.152884 
8   0.175262 
9   0.325542 
10   0.300171 
11   0.403326 
 
>  <lowdin_charges> 
11 
1   -0.483768 
2   0.101178 
3   -0.465213 
4   -0.166226 
5   -0.374004 
6   0.183337 
7   0.159323 
8   0.169705 
9   0.268684 
10   0.251265 
11   0.355719 
 
$$$$ 
 
