PCCDB-ID:  22171 
public computational chemistry database (PCCDB) project, http://pccdb.org 
 
 31 31  0  0  1  0  0  0  0  0999 V2000 
    0.9560    0.0652    0.4857 C   0  0  0  0  0  0  0  0  0  0  0  0 
    3.6255    2.4505   -6.2453 C   0  0  0  0  0  0  0  0  0  0  0  0 
    2.4792    1.6634   -6.1201 C   0  0  0  0  0  0  0  0  0  0  0  0 
    4.1793    3.0571   -5.1162 C   0  0  0  0  0  0  0  0  0  0  0  0 
    1.8875    1.4800   -4.8693 C   0  0  0  0  0  0  0  0  0  0  0  0 
    3.5912    2.8756   -3.8634 C   0  0  0  0  0  0  0  0  0  0  0  0 
    4.5430    1.3252    0.5916 C   0  0  0  0  0  0  0  0  0  0  0  0 
    5.1180    2.1339    1.7579 C   0  0  0  0  0  0  0  0  0  0  0  0 
    2.5110    0.3341   -1.5309 C   0  0  0  0  0  0  0  0  0  0  0  0 
    2.4063    0.1823    0.0042 C   0  0  1  0  0  0  0  0  0  0  0  0 
    2.4453    2.0796   -3.7323 C   0  0  0  0  0  0  0  0  0  0  0  0 
    3.0909    1.2262    0.7733 N   0  0  0  0  0  0  0  0  0  0  0  0 
    4.7286    1.5711    2.9943 O   0  0  0  0  0  0  0  0  0  0  0  0 
    1.6625    1.8724   -2.1277 S   0  0  0  0  0  0  0  0  0  0  0  0 
    0.4301   -0.7366   -0.0440 H   0  0  0  0  0  0  0  0  0  0  0  0 
    0.4014    0.9959    0.3152 H   0  0  0  0  0  0  0  0  0  0  0  0 
    0.9345   -0.1480    1.5585 H   0  0  0  0  0  0  0  0  0  0  0  0 
    4.0829    2.5950   -7.2203 H   0  0  0  0  0  0  0  0  0  0  0  0 
    2.0411    1.1944   -6.9972 H   0  0  0  0  0  0  0  0  0  0  0  0 
    5.0673    3.6766   -5.2098 H   0  0  0  0  0  0  0  0  0  0  0  0 
    0.9902    0.8769   -4.7692 H   0  0  0  0  0  0  0  0  0  0  0  0 
    4.0134    3.3534   -2.9844 H   0  0  0  0  0  0  0  0  0  0  0  0 
    4.9534    0.3087    0.6320 H   0  0  0  0  0  0  0  0  0  0  0  0 
    4.8479    1.7721   -0.3705 H   0  0  0  0  0  0  0  0  0  0  0  0 
    4.7875    3.1858    1.6717 H   0  0  0  0  0  0  0  0  0  0  0  0 
    6.2131    2.1327    1.7184 H   0  0  0  0  0  0  0  0  0  0  0  0 
    2.0652   -0.5361   -2.0244 H   0  0  0  0  0  0  0  0  0  0  0  0 
    3.5595    0.3974   -1.8356 H   0  0  0  0  0  0  0  0  0  0  0  0 
    2.9199   -0.7608    0.2411 H   0  0  0  0  0  0  0  0  0  0  0  0 
    2.6642    2.1277    0.5559 H   0  0  0  0  0  0  0  0  0  0  0  0 
    3.8002    1.3064    2.8462 H   0  0  0  0  0  0  0  0  0  0  0  0 
  1 17  1  0  0  0  0 
  2  3  2  0  0  0  0 
  2  4  1  0  0  0  0 
  3  5  1  0  0  0  0 
  4  6  2  0  0  0  0 
  5 21  1  0  0  0  0 
  5 11  2  0  0  0  0 
  6 11  1  0  0  0  0 
  6 22  1  0  0  0  0 
  7 23  1  0  0  0  0 
  7 12  1  0  0  0  0 
  7  8  1  0  0  0  0 
  8 13  1  0  0  0  0 
  9 10  1  0  0  0  0 
 10 29  1  1  0  0  0 
 10  1  1  0  0  0  0 
 10 12  1  0  0  0  0 
 11 14  1  0  0  0  0 
 14  9  1  0  0  0  0 
 15  1  1  0  0  0  0 
 16  1  1  0  0  0  0 
 18  2  1  0  0  0  0 
 19  3  1  0  0  0  0 
 20  4  1  0  0  0  0 
 24  7  1  0  0  0  0 
 25  8  1  0  0  0  0 
 26  8  1  0  0  0  0 
 27  9  1  0  0  0  0 
 28  9  1  0  0  0  0 
 30 12  1  0  0  0  0 
 31 13  1  0  0  0  0 
M  END 
>  <HBA> 
3 
 
>  <HBD> 
2 
 
>  <TPSA> 
57.56 
 
>  <cid> 
22171 
 
>  <dipole> 
3.67 
 
>  <excitation_energy_1> 
4.534 
 
>  <excitation_energy_2> 
4.966 
 
>  <excitation_energy_3> 
5.155 
 
>  <excitation_energy_4> 
5.239 
 
>  <homo_energy> 
-6.313 
 
>  <homo_lumo_gap> 
5.706 
 
>  <logP> 
2.14 
 
>  <lumo_energy> 
-0.607 
 
>  <melting_point> 
59.27 
 
>  <molecular_refractivity> 
61.35 
 
>  <oscillator_strength_1> 
0.0002 
 
>  <oscillator_strength_2> 
0.0007 
 
>  <oscillator_strength_3> 
0.0257 
 
>  <oscillator_strength_4> 
0.0009 
 
>  <open_babel_can_smiles> 
OCCN[C@H](CSc1ccccc1)C 
 
>  <mulliken_charges> 
31 
1   -0.4511 
2   -0.128909 
3   -0.119709 
4   -0.119731 
5   -0.141931 
6   -0.14578 
7   -0.154466 
8   -0.015706 
9   -0.412171 
10   0.028021 
11   -0.095486 
12   -0.570784 
13   -0.628895 
14   0.057901 
15   0.14751 
16   0.163342 
17   0.158175 
18   0.136782 
19   0.136899 
20   0.136843 
21   0.14831 
22   0.146439 
23   0.148759 
24   0.124014 
25   0.111132 
26   0.138411 
27   0.169824 
28   0.17807 
29   0.14466 
30   0.311781 
31   0.397796 
 
>  <lowdin_charges> 
31 
1   -0.448753 
2   -0.14932 
3   -0.155392 
4   -0.153585 
5   -0.151632 
6   -0.156241 
7   -0.224323 
8   -0.133596 
9   -0.386015 
10   -0.063046 
11   -0.126408 
12   -0.359765 
13   -0.475042 
14   0.09454 
15   0.155287 
16   0.158692 
17   0.157392 
18   0.16072 
19   0.162131 
20   0.161277 
21   0.167506 
22   0.16653 
23   0.146477 
24   0.127837 
25   0.118039 
26   0.142572 
27   0.158932 
28   0.160967 
29   0.148053 
30   0.260779 
31   0.335386 
 
$$$$ 
 
