PCCDB-ID:  11097 
public computational chemistry database (PCCDB) project, http://pccdb.org 
 
 34 35  0  0  0  0  0  0  0  0999 V2000 
    1.0894   -0.0013   -0.5810 C   0  0  0  0  0  0  0  0  0  0  0  0 
    4.3729    0.7468    1.4722 C   0  0  0  0  0  0  0  0  0  0  0  0 
    4.0324   -2.0073   -0.3300 C   0  0  0  0  0  0  0  0  0  0  0  0 
    3.6884   -0.6049   -2.2469 C   0  0  0  0  0  0  0  0  0  0  0  0 
    1.5010    2.7827    1.2672 C   0  0  0  0  0  0  0  0  0  0  0  0 
    1.6871    1.2537    3.1082 C   0  0  0  0  0  0  0  0  0  0  0  0 
    4.8495   -2.8484   -1.0862 C   0  0  0  0  0  0  0  0  0  0  0  0 
    4.5037   -1.4312   -3.0135 C   0  0  0  0  0  0  0  0  0  0  0  0 
    0.6801    3.6116    2.0329 C   0  0  0  0  0  0  0  0  0  0  0  0 
    0.8669    2.0675    3.8835 C   0  0  0  0  0  0  0  0  0  0  0  0 
    2.5236    0.0114   -0.0924 C   0  0  0  0  0  0  0  0  0  0  0  0 
    2.9397    0.7191    0.9815 C   0  0  0  0  0  0  0  0  0  0  0  0 
    3.4403   -0.8654   -0.8878 C   0  0  0  0  0  0  0  0  0  0  0  0 
    2.0160    1.5854    1.7826 C   0  0  0  0  0  0  0  0  0  0  0  0 
    5.0889   -2.5614   -2.4327 C   0  0  0  0  0  0  0  0  0  0  0  0 
    0.3599    3.2551    3.3456 C   0  0  0  0  0  0  0  0  0  0  0  0 
    5.8799   -3.3445   -3.2296 O   0  0  0  0  0  0  0  0  0  0  0  0 
   -0.4395    4.0229    4.1494 O   0  0  0  0  0  0  0  0  0  0  0  0 
    0.4268    0.5942    0.0495 H   0  0  0  0  0  0  0  0  0  0  0  0 
    0.7090   -1.0308   -0.6109 H   0  0  0  0  0  0  0  0  0  0  0  0 
    1.0175    0.3809   -1.6083 H   0  0  0  0  0  0  0  0  0  0  0  0 
    5.0496    0.1834    0.8271 H   0  0  0  0  0  0  0  0  0  0  0  0 
    4.4512    0.3397    2.4897 H   0  0  0  0  0  0  0  0  0  0  0  0 
    4.7301    1.7835    1.5303 H   0  0  0  0  0  0  0  0  0  0  0  0 
    3.8454   -2.2465    0.7133 H   0  0  0  0  0  0  0  0  0  0  0  0 
    3.2448    0.2722   -2.7114 H   0  0  0  0  0  0  0  0  0  0  0  0 
    1.7491    3.0736    0.2499 H   0  0  0  0  0  0  0  0  0  0  0  0 
    2.0718    0.3319    3.5375 H   0  0  0  0  0  0  0  0  0  0  0  0 
    5.2961   -3.7299   -0.6285 H   0  0  0  0  0  0  0  0  0  0  0  0 
    4.7000   -1.2168   -4.0594 H   0  0  0  0  0  0  0  0  0  0  0  0 
    0.2921    4.5368    1.6092 H   0  0  0  0  0  0  0  0  0  0  0  0 
    0.6081    1.7994    4.9031 H   0  0  0  0  0  0  0  0  0  0  0  0 
    6.2184   -4.0854   -2.7033 H   0  0  0  0  0  0  0  0  0  0  0  0 
   -0.7189    4.8085    3.6543 H   0  0  0  0  0  0  0  0  0  0  0  0 
  1 11  1  0  0  0  0 
  1 19  1  0  0  0  0 
  2 24  1  0  0  0  0 
  2 23  1  0  0  0  0 
  3 25  1  0  0  0  0 
  4 13  2  0  0  0  0 
  5 14  2  0  0  0  0 
  5  9  1  0  0  0  0 
  6 28  1  0  0  0  0 
  6 10  2  0  0  0  0 
  7 29  1  0  0  0  0 
  7  3  2  0  0  0  0 
  8 15  2  0  0  0  0 
  8  4  1  0  0  0  0 
  9 16  2  0  0  0  0 
 10 32  1  0  0  0  0 
 11 12  2  0  0  0  0 
 12  2  1  0  0  0  0 
 12 14  1  0  0  0  0 
 13  3  1  0  0  0  0 
 13 11  1  0  0  0  0 
 14  6  1  0  0  0  0 
 15  7  1  0  0  0  0 
 16 10  1  0  0  0  0 
 16 18  1  0  0  0  0 
 17 33  1  0  0  0  0 
 17 15  1  0  0  0  0 
 20  1  1  0  0  0  0 
 21  1  1  0  0  0  0 
 22  2  1  0  0  0  0 
 26  4  1  0  0  0  0 
 27  5  1  0  0  0  0 
 30  8  1  0  0  0  0 
 31  9  1  0  0  0  0 
 34 18  1  0  0  0  0 
M  END 
>  <HBA> 
2 
 
>  <HBD> 
2 
 
>  <TPSA> 
40.46 
 
>  <cid> 
11097 
 
>  <dipole> 
0.12 
 
>  <excitation_energy_1> 
4.748 
 
>  <excitation_energy_2> 
4.795 
 
>  <excitation_energy_3> 
4.996 
 
>  <excitation_energy_4> 
5.025 
 
>  <homo_energy> 
-5.633 
 
>  <homo_lumo_gap> 
5.627 
 
>  <logP> 
4.048 
 
>  <lumo_energy> 
-0.005 
 
>  <melting_point> 
133.44 
 
>  <molecular_refractivity> 
75.47 
 
>  <oscillator_strength_1> 
0.0278 
 
>  <oscillator_strength_2> 
0.0026 
 
>  <oscillator_strength_3> 
0.2036 
 
>  <oscillator_strength_4> 
0.0829 
 
>  <open_babel_can_smiles> 
C/C(=C(\c1ccc(cc1)O)/C)/c1ccc(cc1)O 
 
>  <mulliken_charges> 
34 
1   -0.505657 
2   -0.504095 
3   -0.1732 
4   -0.176814 
5   -0.171202 
6   -0.174473 
7   -0.196181 
8   -0.160411 
9   -0.195727 
10   -0.160143 
11   0.033336 
12   0.025019 
13   0.084052 
14   0.078242 
15   0.350006 
16   0.34992 
17   -0.643491 
18   -0.643698 
19   0.164271 
20   0.155535 
21   0.149416 
22   0.163977 
23   0.149541 
24   0.15495 
25   0.132283 
26   0.129155 
27   0.131698 
28   0.128742 
29   0.117386 
30   0.138711 
31   0.117263 
32   0.138669 
33   0.406512 
34   0.406407 
 
>  <lowdin_charges> 
34 
1   -0.44271 
2   -0.442854 
3   -0.149115 
4   -0.14917 
5   -0.150227 
6   -0.149227 
7   -0.216242 
8   -0.184813 
9   -0.215662 
10   -0.184979 
11   -0.023861 
12   -0.024997 
13   -0.019915 
14   -0.019471 
15   0.100323 
16   0.10008 
17   -0.38026 
18   -0.38026 
19   0.164546 
20   0.156166 
21   0.152526 
22   0.16421 
23   0.15277 
24   0.155897 
25   0.15866 
26   0.158584 
27   0.158813 
28   0.158161 
29   0.153113 
30   0.165497 
31   0.152679 
32   0.165864 
33   0.358155 
34   0.357717 
 
$$$$ 
 
