PCCDB-ID:  12091 
public computational chemistry database (PCCDB) project, http://pccdb.org 
 
 18 18  0  0  0  0  0  0  0  0999 V2000 
   -0.8318    1.1251   -0.0650 C   0  0  0  0  0  0  0  0  0  0  0  0 
    1.3397    0.0550    0.0417 C   0  0  0  0  0  0  0  0  0  0  0  0 
   -1.4532   -0.1208   -0.0827 C   0  0  0  0  0  0  0  0  0  0  0  0 
    0.7344   -1.1963    0.0175 C   0  0  0  0  0  0  0  0  0  0  0  0 
    0.5663    1.2227   -0.0138 C   0  0  0  0  0  0  0  0  0  0  0  0 
   -0.6566   -1.2628   -0.0487 C   0  0  0  0  0  0  0  0  0  0  0  0 
    1.3017    2.5379    0.0160 C   0  0  0  0  0  0  0  0  0  0  0  0 
    0.6054    3.6321   -0.4347 N   0  0  0  0  0  0  0  0  0  0  0  0 
   -1.3083   -2.5849   -0.0753 N   0  0  0  0  0  0  0  0  0  0  0  0 
    2.4448    2.6212    0.4433 O   0  0  0  0  0  0  0  0  0  0  0  0 
   -2.5374   -2.6135   -0.1263 O   0  0  0  0  0  0  0  0  0  0  0  0 
   -0.5835   -3.5780   -0.0465 O   0  0  0  0  0  0  0  0  0  0  0  0 
   -1.4468    2.0198   -0.0565 H   0  0  0  0  0  0  0  0  0  0  0  0 
    2.4178    0.1525    0.1074 H   0  0  0  0  0  0  0  0  0  0  0  0 
   -2.5310   -0.2206   -0.1146 H   0  0  0  0  0  0  0  0  0  0  0  0 
    1.3126   -2.1114    0.0508 H   0  0  0  0  0  0  0  0  0  0  0  0 
   -0.1703    3.5229   -1.0719 H   0  0  0  0  0  0  0  0  0  0  0  0 
    1.1434    4.4847   -0.5209 H   0  0  0  0  0  0  0  0  0  0  0  0 
  1 13  1  0  0  0  0 
  1  5  1  0  0  0  0 
  2 14  1  0  0  0  0 
  3  1  2  0  0  0  0 
  3  6  1  0  0  0  0 
  4  2  1  0  0  0  0 
  4 16  1  0  0  0  0 
  5  7  1  0  0  0  0 
  5  2  2  0  0  0  0 
  6  4  2  0  0  0  0 
  7 10  2  0  0  0  0 
  8  7  1  0  0  0  0 
  9  6  1  0  0  0  0 
  9 12  2  0  0  0  0 
 11  9  2  0  0  0  0 
 15  3  1  0  0  0  0 
 17  8  1  0  0  0  0 
 18  8  1  0  0  0  0 
M  END 
>  <HBA> 
2 
 
>  <HBD> 
1 
 
>  <TPSA> 
88.91 
 
>  <cid> 
12091 
 
>  <dipole> 
4.68 
 
>  <excitation_energy_1> 
3.679 
 
>  <excitation_energy_2> 
3.793 
 
>  <excitation_energy_3> 
4.192 
 
>  <excitation_energy_4> 
4.212 
 
>  <homo_energy> 
-7.314 
 
>  <homo_lumo_gap> 
4.547 
 
>  <logP> 
1.917 
 
>  <lumo_energy> 
-2.767 
 
>  <melting_point> 
132.92 
 
>  <molecular_refractivity> 
43.36 
 
>  <oscillator_strength_1> 
0.0004 
 
>  <oscillator_strength_2> 
0.0078 
 
>  <oscillator_strength_3> 
0.0009 
 
>  <oscillator_strength_4> 
0.0153 
 
>  <open_babel_can_smiles> 
NC(=O)c1ccc(cc1)N(=O)=O 
 
>  <mulliken_charges> 
18 
1   -0.194871 
2   -0.17311 
3   -0.152308 
4   -0.151959 
5   0.094492 
6   0.279847 
7   0.538603 
8   -0.751726 
9   0.383171 
10   -0.48901 
11   -0.391703 
12   -0.388229 
13   0.150673 
14   0.182572 
15   0.187829 
16   0.190079 
17   0.337288 
18   0.348362 
 
>  <lowdin_charges> 
18 
1   -0.15385 
2   -0.122378 
3   -0.134469 
4   -0.134725 
5   -0.020754 
6   0.011139 
7   0.162266 
8   -0.462264 
9   0.305866 
10   -0.286801 
11   -0.240829 
12   -0.240287 
13   0.168181 
14   0.18506 
15   0.188196 
16   0.191571 
17   0.288283 
18   0.295794 
 
$$$$ 
 
