PCCDB-ID:  11583 
public computational chemistry database (PCCDB) project, http://pccdb.org 
 
 19 18  0  0  0  0  0  0  0  0999 V2000 
    1.2010   -0.8782   -0.1877 C   0  0  0  0  0  0  0  0  0  0  0  0 
    6.3670    2.5848    1.6039 C   0  0  0  0  0  0  0  0  0  0  0  0 
    2.7045   -0.6578    0.0078 C   0  0  0  0  0  0  0  0  0  0  0  0 
    3.0337    0.7152    0.6063 C   0  0  0  0  0  0  0  0  0  0  0  0 
    4.5337    0.9389    0.8028 C   0  0  0  0  0  0  0  0  0  0  0  0 
    4.8873    2.2988    1.3970 C   0  0  0  0  0  0  0  0  0  0  0  0 
    4.0346    3.1152    1.6913 O   0  0  0  0  0  0  0  0  0  0  0  0 
    0.9935   -1.8660   -0.6147 H   0  0  0  0  0  0  0  0  0  0  0  0 
    0.7754   -0.1261   -0.8631 H   0  0  0  0  0  0  0  0  0  0  0  0 
    0.6636   -0.8068    0.7658 H   0  0  0  0  0  0  0  0  0  0  0  0 
    6.9049    2.5361    0.6486 H   0  0  0  0  0  0  0  0  0  0  0  0 
    6.8184    1.8306    2.2606 H   0  0  0  0  0  0  0  0  0  0  0  0 
    6.4943    3.5760    2.0437 H   0  0  0  0  0  0  0  0  0  0  0  0 
    3.2185   -0.7692   -0.9580 H   0  0  0  0  0  0  0  0  0  0  0  0 
    3.1078   -1.4472    0.6586 H   0  0  0  0  0  0  0  0  0  0  0  0 
    2.5254    0.8336    1.5715 H   0  0  0  0  0  0  0  0  0  0  0  0 
    2.6348    1.5089   -0.0379 H   0  0  0  0  0  0  0  0  0  0  0  0 
    5.0749    0.8349   -0.1506 H   0  0  0  0  0  0  0  0  0  0  0  0 
    4.9637    0.1635    1.4560 H   0  0  0  0  0  0  0  0  0  0  0  0 
  1  3  1  0  0  0  0 
  1 10  1  0  0  0  0 
  2 13  1  0  0  0  0 
  2 12  1  0  0  0  0 
  3  4  1  0  0  0  0 
  3 15  1  0  0  0  0 
  4  5  1  0  0  0  0 
  4 16  1  0  0  0  0 
  5  6  1  0  0  0  0 
  5 19  1  0  0  0  0 
  6  2  1  0  0  0  0 
  6  7  2  0  0  0  0 
  8  1  1  0  0  0  0 
  9  1  1  0  0  0  0 
 11  2  1  0  0  0  0 
 14  3  1  0  0  0  0 
 17  4  1  0  0  0  0 
 18  5  1  0  0  0  0 
M  END 
>  <HBA> 
1 
 
>  <HBD> 
0 
 
>  <TPSA> 
17.07 
 
>  <cid> 
11583 
 
>  <dipole> 
2.65 
 
>  <excitation_energy_1> 
4.427 
 
>  <excitation_energy_2> 
6.168 
 
>  <excitation_energy_3> 
6.814 
 
>  <excitation_energy_4> 
6.997 
 
>  <homo_energy> 
-6.599 
 
>  <homo_lumo_gap> 
6.343 
 
>  <logP> 
1.766 
 
>  <lumo_energy> 
-0.256 
 
>  <melting_point> 
-5.17 
 
>  <molecular_refractivity> 
31.16 
 
>  <oscillator_strength_1> 
0.0001 
 
>  <oscillator_strength_2> 
0.0314 
 
>  <oscillator_strength_3> 
0.0081 
 
>  <oscillator_strength_4> 
0.0126 
 
>  <open_babel_can_smiles> 
CCCCC(=O)C 
 
>  <mulliken_charges> 
19 
1   -0.441217 
2   -0.527909 
3   -0.251507 
4   -0.238543 
5   -0.357263 
6   0.453097 
7   -0.436066 
8   0.141598 
9   0.144317 
10   0.144361 
11   0.16664 
12   0.165987 
13   0.179179 
14   0.128281 
15   0.128316 
16   0.147023 
17   0.146634 
18   0.153285 
19   0.153786 
 
>  <lowdin_charges> 
19 
1   -0.444722 
2   -0.477631 
3   -0.273766 
4   -0.271525 
5   -0.313717 
6   0.168637 
7   -0.236686 
8   0.148932 
9   0.149116 
10   0.147949 
11   0.168423 
12   0.169172 
13   0.172008 
14   0.137285 
15   0.138569 
16   0.14969 
17   0.150753 
18   0.158035 
19   0.159477 
 
$$$$ 
 
