PCCDB-ID:  18064 
public computational chemistry database (PCCDB) project, http://pccdb.org 
 
 12 11  0  0  0  0  0  0  0  0999 V2000 
    3.5586   -0.6052   -1.3618 C   0  0  0  0  0  0  0  0  0  0  0  0 
    2.9084   -0.7306    3.0599 C   0  0  0  0  0  0  0  0  0  0  0  0 
    2.8320   -2.6266    1.1869 O   0  0  0  0  0  0  0  0  0  0  0  0 
    5.0117   -1.3727    1.5527 O   0  0  0  0  0  0  0  0  0  0  0  0 
    2.8774    0.1674    0.1555 S   0  0  0  0  0  0  0  0  0  0  0  0 
    3.5438   -1.3802    1.4996 S   0  0  0  0  0  0  0  0  0  0  0  0 
    3.3043    0.0690   -2.1830 H   0  0  0  0  0  0  0  0  0  0  0  0 
    3.0970   -1.5805   -1.5277 H   0  0  0  0  0  0  0  0  0  0  0  0 
    4.6434   -0.6985   -1.2829 H   0  0  0  0  0  0  0  0  0  0  0  0 
    3.1981   -1.4545    3.8257 H   0  0  0  0  0  0  0  0  0  0  0  0 
    1.8215   -0.6548    2.9971 H   0  0  0  0  0  0  0  0  0  0  0  0 
    3.3700    0.2386    3.2560 H   0  0  0  0  0  0  0  0  0  0  0  0 
  1  9  1  0  0  0  0 
  1  5  1  0  0  0  0 
  2 12  1  0  0  0  0 
  2 10  1  0  0  0  0 
  3  6  2  0  0  0  0 
  5  6  1  0  0  0  0 
  6  4  2  0  0  0  0 
  6  2  1  0  0  0  0 
  7  1  1  0  0  0  0 
  8  1  1  0  0  0  0 
 11  2  1  0  0  0  0 
M  END 
>  <HBA> 
3 
 
>  <HBD> 
0 
 
>  <TPSA> 
67.82 
 
>  <cid> 
18064 
 
>  <dipole> 
2.51 
 
>  <excitation_energy_1> 
4.129 
 
>  <excitation_energy_2> 
5.812 
 
>  <excitation_energy_3> 
5.896 
 
>  <excitation_energy_4> 
6.018 
 
>  <homo_energy> 
-6.955 
 
>  <homo_lumo_gap> 
5.557 
 
>  <logP> 
1.39 
 
>  <lumo_energy> 
-1.399 
 
>  <melting_point> 
14.7 
 
>  <molecular_refractivity> 
28.28 
 
>  <oscillator_strength_1> 
0.0006 
 
>  <oscillator_strength_2> 
0.0 
 
>  <oscillator_strength_3> 
0.0026 
 
>  <oscillator_strength_4> 
0.1721 
 
>  <open_babel_can_smiles> 
CSS(=O)(=O)C 
 
>  <mulliken_charges> 
12 
1   -0.613323 
2   -0.6413 
3   -0.50408 
4   -0.503546 
5   0.015634 
6   0.94338 
7   0.201109 
8   0.217816 
9   0.217503 
10   0.228805 
11   0.219048 
12   0.218953 
 
>  <lowdin_charges> 
12 
1   -0.537372 
2   -0.59062 
3   -0.581192 
4   -0.57996 
5   -0.01972 
6   1.154945 
7   0.187424 
8   0.183731 
9   0.182029 
10   0.205112 
11   0.197083 
12   0.19854 
 
$$$$ 
 
