PCCDB-ID:  10988 
public computational chemistry database (PCCDB) project, http://pccdb.org 
 
 34 33  0  0  0  0  0  0  0  0999 V2000 
    2.4289   -0.0047   -1.8984 C   0  0  0  0  0  0  0  0  0  0  0  0 
    1.5372   -2.1628   -0.9099 C   0  0  0  0  0  0  0  0  0  0  0  0 
    8.5380   -2.1896    4.6013 C   0  0  0  0  0  0  0  0  0  0  0  0 
    6.0938   -2.6631    4.1939 C   0  0  0  0  0  0  0  0  0  0  0  0 
    3.0108   -0.6211    0.5213 C   0  0  0  0  0  0  0  0  0  0  0  0 
    7.5228   -1.4744    2.4036 C   0  0  0  0  0  0  0  0  0  0  0  0 
    4.3630   -1.2960    0.2653 C   0  0  0  0  0  0  0  0  0  0  0  0 
    6.5759   -1.7057    1.2127 C   0  0  0  0  0  0  0  0  0  0  0  0 
    1.9696   -0.7171   -0.6160 C   0  0  0  0  0  0  0  0  0  0  0  0 
    7.4770   -2.5186    3.5401 C   0  0  0  0  0  0  0  0  0  0  0  0 
    5.2724   -1.0630    1.3867 N   0  0  0  0  0  0  0  0  0  0  0  0 
    1.6221    0.0190   -2.6406 H   0  0  0  0  0  0  0  0  0  0  0  0 
    3.2833   -0.5119   -2.3628 H   0  0  0  0  0  0  0  0  0  0  0  0 
    2.7271    1.0306   -1.6937 H   0  0  0  0  0  0  0  0  0  0  0  0 
    0.7204   -2.1841   -1.6412 H   0  0  0  0  0  0  0  0  0  0  0  0 
    1.1853   -2.6669   -0.0014 H   0  0  0  0  0  0  0  0  0  0  0  0 
    2.3612   -2.7571   -1.3228 H   0  0  0  0  0  0  0  0  0  0  0  0 
    8.5744   -2.9603    5.3804 H   0  0  0  0  0  0  0  0  0  0  0  0 
    8.3186   -1.2318    5.0910 H   0  0  0  0  0  0  0  0  0  0  0  0 
    9.5376   -2.1131    4.1571 H   0  0  0  0  0  0  0  0  0  0  0  0 
    6.1288   -3.3732    5.0288 H   0  0  0  0  0  0  0  0  0  0  0  0 
    5.3438   -3.0366    3.4872 H   0  0  0  0  0  0  0  0  0  0  0  0 
    5.7415   -1.7021    4.5916 H   0  0  0  0  0  0  0  0  0  0  0  0 
    3.2017    0.4359    0.7480 H   0  0  0  0  0  0  0  0  0  0  0  0 
    2.5701   -1.0560    1.4319 H   0  0  0  0  0  0  0  0  0  0  0  0 
    7.3228   -0.4718    2.8073 H   0  0  0  0  0  0  0  0  0  0  0  0 
    8.5530   -1.4519    2.0234 H   0  0  0  0  0  0  0  0  0  0  0  0 
    4.8327   -0.8695   -0.6309 H   0  0  0  0  0  0  0  0  0  0  0  0 
    4.2199   -2.3741    0.0560 H   0  0  0  0  0  0  0  0  0  0  0  0 
    6.4962   -2.7939    1.0096 H   0  0  0  0  0  0  0  0  0  0  0  0 
    7.0228   -1.2651    0.3116 H   0  0  0  0  0  0  0  0  0  0  0  0 
    1.0797   -0.1820   -0.2523 H   0  0  0  0  0  0  0  0  0  0  0  0 
    7.7361   -3.4935    3.0983 H   0  0  0  0  0  0  0  0  0  0  0  0 
    4.8354   -1.4064    2.2396 H   0  0  0  0  0  0  0  0  0  0  0  0 
  1 14  1  0  0  0  0 
  1  9  1  0  0  0  0 
  2  9  1  0  0  0  0 
  2 16  1  0  0  0  0 
  3 19  1  0  0  0  0 
  3 18  1  0  0  0  0 
  4 23  1  0  0  0  0 
  4 21  1  0  0  0  0 
  5 24  1  0  0  0  0 
  5 25  1  0  0  0  0 
  6 26  1  0  0  0  0 
  6 10  1  0  0  0  0 
  7  5  1  0  0  0  0 
  7 11  1  0  0  0  0 
  8 11  1  0  0  0  0 
  8  6  1  0  0  0  0 
  9 32  1  0  0  0  0 
  9  5  1  0  0  0  0 
 10  4  1  0  0  0  0 
 10  3  1  0  0  0  0 
 11 34  1  0  0  0  0 
 12  1  1  0  0  0  0 
 13  1  1  0  0  0  0 
 15  2  1  0  0  0  0 
 17  2  1  0  0  0  0 
 20  3  1  0  0  0  0 
 22  4  1  0  0  0  0 
 27  6  1  0  0  0  0 
 28  7  1  0  0  0  0 
 29  7  1  0  0  0  0 
 30  8  1  0  0  0  0 
 31  8  1  0  0  0  0 
 33 10  1  0  0  0  0 
M  END 
>  <HBA> 
1 
 
>  <HBD> 
1 
 
>  <TPSA> 
12.03 
 
>  <cid> 
10988 
 
>  <dipole> 
0.86 
 
>  <excitation_energy_1> 
5.344 
 
>  <excitation_energy_2> 
5.623 
 
>  <excitation_energy_3> 
5.755 
 
>  <excitation_energy_4> 
5.923 
 
>  <homo_energy> 
-5.766 
 
>  <homo_lumo_gap> 
7.878 
 
>  <logP> 
3.059 
 
>  <lumo_energy> 
2.112 
 
>  <melting_point> 
-2.04 
 
>  <molecular_refractivity> 
52.99 
 
>  <oscillator_strength_1> 
0.0039 
 
>  <oscillator_strength_2> 
0.0177 
 
>  <oscillator_strength_3> 
0.0079 
 
>  <oscillator_strength_4> 
0.0337 
 
>  <open_babel_can_smiles> 
CC(CCNCCC(C)C)C 
 
>  <mulliken_charges> 
34 
1   -0.444829 
2   -0.444688 
3   -0.442127 
4   -0.453618 
5   -0.266341 
6   -0.266705 
7   -0.114037 
8   -0.11406 
9   -0.067361 
10   -0.0646 
11   -0.568768 
12   0.139166 
13   0.14221 
14   0.141935 
15   0.139413 
16   0.137581 
17   0.143304 
18   0.138718 
19   0.140715 
20   0.139984 
21   0.142324 
22   0.139207 
23   0.143872 
24   0.142557 
25   0.118434 
26   0.14222 
27   0.128578 
28   0.137457 
29   0.109715 
30   0.104579 
31   0.134734 
32   0.122611 
33   0.121112 
34   0.296708 
 
>  <lowdin_charges> 
34 
1   -0.447393 
2   -0.450152 
3   -0.444126 
4   -0.452295 
5   -0.280547 
6   -0.283324 
7   -0.203586 
8   -0.199412 
9   -0.120072 
10   -0.120472 
11   -0.368612 
12   0.148595 
13   0.146413 
14   0.147612 
15   0.148426 
16   0.146866 
17   0.14678 
18   0.147666 
19   0.146201 
20   0.146878 
21   0.150378 
22   0.145721 
23   0.147057 
24   0.146559 
25   0.135388 
26   0.146917 
27   0.14378 
28   0.140295 
29   0.113347 
30   0.110574 
31   0.142129 
32   0.138916 
33   0.133823 
34   0.24967 
 
$$$$ 
 
