PCCDB-ID:  11210 
public computational chemistry database (PCCDB) project, http://pccdb.org 
 
 18 17  0  0  0  0  0  0  0  0999 V2000 
    2.7391   -0.0421    1.1622 C   0  0  0  0  0  0  0  0  0  0  0  0 
    2.7665   -1.5905   -2.0664 C   0  0  0  0  0  0  0  0  0  0  0  0 
    2.8095    0.9173   -2.2846 C   0  0  0  0  0  0  0  0  0  0  0  0 
    4.6601   -0.2711   -1.0620 C   0  0  0  0  0  0  0  0  0  0  0  0 
    2.3134   -0.1471   -0.0972 C   0  0  0  0  0  0  0  0  0  0  0  0 
    3.1516   -0.2716   -1.3569 C   0  0  0  0  0  0  0  0  0  0  0  0 
    2.0376    0.0425    1.9881 H   0  0  0  0  0  0  0  0  0  0  0  0 
    3.7930   -0.0357    1.4263 H   0  0  0  0  0  0  0  0  0  0  0  0 
    3.3105   -1.6942   -3.0134 H   0  0  0  0  0  0  0  0  0  0  0  0 
    1.6936   -1.6214   -2.2921 H   0  0  0  0  0  0  0  0  0  0  0  0 
    3.0027   -2.4578   -1.4396 H   0  0  0  0  0  0  0  0  0  0  0  0 
    3.3511    0.8357   -3.2353 H   0  0  0  0  0  0  0  0  0  0  0  0 
    3.0807    1.8708   -1.8176 H   0  0  0  0  0  0  0  0  0  0  0  0 
    1.7370    0.9478   -2.5125 H   0  0  0  0  0  0  0  0  0  0  0  0 
    5.2293   -0.3600   -1.9947 H   0  0  0  0  0  0  0  0  0  0  0  0 
    4.9429   -1.1105   -0.4165 H   0  0  0  0  0  0  0  0  0  0  0  0 
    4.9713    0.6567   -0.5683 H   0  0  0  0  0  0  0  0  0  0  0  0 
    1.2363   -0.1452   -0.2808 H   0  0  0  0  0  0  0  0  0  0  0  0 
  1  8  1  0  0  0  0 
  1  7  1  0  0  0  0 
  2 11  1  0  0  0  0 
  2  6  1  0  0  0  0 
  3 13  1  0  0  0  0 
  3  6  1  0  0  0  0 
  4 17  1  0  0  0  0 
  4 16  1  0  0  0  0 
  5  1  2  0  0  0  0 
  6  4  1  0  0  0  0 
  6  5  1  0  0  0  0 
  9  2  1  0  0  0  0 
 10  2  1  0  0  0  0 
 12  3  1  0  0  0  0 
 14  3  1  0  0  0  0 
 15  4  1  0  0  0  0 
 18  5  1  0  0  0  0 
M  END 
>  <HBA> 
0 
 
>  <HBD> 
0 
 
>  <TPSA> 
0.0 
 
>  <cid> 
11210 
 
>  <dipole> 
0.32 
 
>  <excitation_energy_1> 
6.42 
 
>  <excitation_energy_2> 
6.896 
 
>  <excitation_energy_3> 
6.936 
 
>  <excitation_energy_4> 
7.029 
 
>  <homo_energy> 
-6.789 
 
>  <homo_lumo_gap> 
7.538 
 
>  <logP> 
2.219 
 
>  <lumo_energy> 
0.748 
 
>  <melting_point> 
-28.47 
 
>  <molecular_refractivity> 
30.22 
 
>  <oscillator_strength_1> 
0.0512 
 
>  <oscillator_strength_2> 
0.0035 
 
>  <oscillator_strength_3> 
0.0006 
 
>  <oscillator_strength_4> 
0.3841 
 
>  <open_babel_can_smiles> 
C=CC(C)(C)C 
 
>  <mulliken_charges> 
18 
1   -0.350572 
2   -0.44113 
3   -0.441375 
4   -0.454293 
5   -0.043578 
6   0.065765 
7   0.135159 
8   0.136836 
9   0.138925 
10   0.138303 
11   0.147524 
12   0.138966 
13   0.147571 
14   0.138342 
15   0.138414 
16   0.144581 
17   0.144566 
18   0.115997 
 
>  <lowdin_charges> 
18 
1   -0.351157 
2   -0.438157 
3   -0.437467 
4   -0.443906 
5   -0.141512 
6   0.015802 
7   0.158296 
8   0.15484 
9   0.147003 
10   0.145401 
11   0.15193 
12   0.146932 
13   0.151327 
14   0.145416 
15   0.149201 
16   0.150748 
17   0.15027 
18   0.145033 
 
$$$$ 
 
