PCCDB-ID:  53287 
public computational chemistry database (PCCDB) project, http://pccdb.org 
 
 19 18  0  0  0  0  0  0  0  0999 V2000 
    6.5540    2.8324   -2.5917 C   0  0  0  0  0  0  0  0  0  0  0  0 
    6.0359    1.8623   -1.6306 C   0  0  0  0  0  0  0  0  0  0  0  0 
    5.5942    1.0584   -0.8413 C   0  0  0  0  0  0  0  0  0  0  0  0 
    8.1127    0.1045    3.0401 C   0  0  0  0  0  0  0  0  0  0  0  0 
    5.0841    0.0925    0.1222 C   0  0  0  0  0  0  0  0  0  0  0  0 
    7.4442    0.2771    1.6754 C   0  0  0  0  0  0  0  0  0  0  0  0 
    7.8717   -1.2402    3.5695 N   0  0  0  0  0  0  0  0  0  0  0  0 
    5.6150    0.3985    1.8692 S   0  0  0  0  0  0  0  0  0  0  0  0 
    7.5806    3.1295   -2.3446 H   0  0  0  0  0  0  0  0  0  0  0  0 
    5.9414    3.7418   -2.6106 H   0  0  0  0  0  0  0  0  0  0  0  0 
    6.5663    2.4188   -3.6077 H   0  0  0  0  0  0  0  0  0  0  0  0 
    7.7913    0.9262    3.7062 H   0  0  0  0  0  0  0  0  0  0  0  0 
    9.1947    0.2216    2.8987 H   0  0  0  0  0  0  0  0  0  0  0  0 
    5.3765   -0.9278   -0.1530 H   0  0  0  0  0  0  0  0  0  0  0  0 
    3.9890    0.1157    0.1611 H   0  0  0  0  0  0  0  0  0  0  0  0 
    7.6753   -0.5927    1.0517 H   0  0  0  0  0  0  0  0  0  0  0  0 
    7.8031    1.1813    1.1752 H   0  0  0  0  0  0  0  0  0  0  0  0 
    6.8703   -1.3745    3.7039 H   0  0  0  0  0  0  0  0  0  0  0  0 
    8.3007   -1.3302    4.4889 H   0  0  0  0  0  0  0  0  0  0  0  0 
  1  9  1  0  0  0  0 
  1  2  1  0  0  0  0 
  2  3  3  0  0  0  0 
  3  5  1  0  0  0  0 
  4  7  1  0  0  0  0 
  4 12  1  0  0  0  0 
  5 15  1  0  0  0  0 
  5  8  1  0  0  0  0 
  6  8  1  0  0  0  0 
  6  4  1  0  0  0  0 
  7 18  1  0  0  0  0 
  7 19  1  0  0  0  0 
 10  1  1  0  0  0  0 
 11  1  1  0  0  0  0 
 13  4  1  0  0  0  0 
 14  5  1  0  0  0  0 
 16  6  1  0  0  0  0 
 17  6  1  0  0  0  0 
M  END 
>  <HBA> 
2 
 
>  <HBD> 
1 
 
>  <TPSA> 
51.32 
 
>  <cid> 
53287 
 
>  <dipole> 
1.22 
 
>  <excitation_energy_1> 
4.907 
 
>  <excitation_energy_2> 
5.491 
 
>  <excitation_energy_3> 
5.637 
 
>  <excitation_energy_4> 
5.645 
 
>  <homo_energy> 
-5.951 
 
>  <homo_lumo_gap> 
6.392 
 
>  <logP> 
1.402 
 
>  <lumo_energy> 
0.441 
 
>  <melting_point> 
54.0 
 
>  <molecular_refractivity> 
39.42 
 
>  <oscillator_strength_1> 
0.0025 
 
>  <oscillator_strength_2> 
0.021 
 
>  <oscillator_strength_3> 
0.0034 
 
>  <oscillator_strength_4> 
0.0186 
 
>  <open_babel_can_smiles> 
CC#CCSCCN 
 
>  <mulliken_charges> 
19 
1   -0.575715 
2   0.028442 
3   0.121621 
4   -0.146249 
5   -0.582188 
6   -0.396959 
7   -0.717737 
8   0.083225 
9   0.179457 
10   0.181864 
11   0.180381 
12   0.131003 
13   0.148879 
14   0.198005 
15   0.20022 
16   0.179551 
17   0.177853 
18   0.311936 
19   0.296408 
 
>  <lowdin_charges> 
19 
1   -0.423243 
2   -0.070021 
3   -0.0947 
4   -0.203774 
5   -0.351617 
6   -0.37534 
7   -0.558957 
8   0.084907 
9   0.172661 
10   0.17448 
11   0.173002 
12   0.126965 
13   0.146995 
14   0.175049 
15   0.183935 
16   0.164411 
17   0.163071 
18   0.257852 
19   0.254327 
 
$$$$ 
 
