PCCDB-ID:  13602 
public computational chemistry database (PCCDB) project, http://pccdb.org 
 
 15 15  0  0  0  0  0  0  0  0999 V2000 
    0.9772    0.1426    0.0115 C   0  0  0  0  0  0  0  0  0  0  0  0 
    4.5661   -1.1898   -0.2131 C   0  0  0  0  0  0  0  0  0  0  0  0 
    5.2353    0.0339   -0.2623 C   0  0  0  0  0  0  0  0  0  0  0  0 
    3.1747   -1.1707   -0.1242 C   0  0  0  0  0  0  0  0  0  0  0  0 
    4.5182    1.2145   -0.2234 C   0  0  0  0  0  0  0  0  0  0  0  0 
    2.4626    0.0219   -0.0842 C   0  0  0  0  0  0  0  0  0  0  0  0 
    3.1495    1.2218   -0.1342 N   0  3  0  0  0  0  0  0  0  0  0  0 
    2.5098    2.3294   -0.0974 O   0  5  0  0  0  0  0  0  0  0  0  0 
    0.5135   -0.8468    0.0378 H   0  0  0  0  0  0  0  0  0  0  0  0 
    0.5825    0.7115   -0.8378 H   0  0  0  0  0  0  0  0  0  0  0  0 
    0.6941    0.7044    0.9089 H   0  0  0  0  0  0  0  0  0  0  0  0 
    5.1092   -2.1282   -0.2423 H   0  0  0  0  0  0  0  0  0  0  0  0 
    6.3172    0.0858   -0.3324 H   0  0  0  0  0  0  0  0  0  0  0  0 
    2.6102   -2.0975   -0.0828 H   0  0  0  0  0  0  0  0  0  0  0  0 
    4.9509    2.2054   -0.2567 H   0  0  0  0  0  0  0  0  0  0  0  0 
  1  9  1  0  0  0  0 
  1 11  1  0  0  0  0 
  2  4  2  0  0  0  0 
  3  5  2  0  0  0  0 
  3  2  1  0  0  0  0 
  4  6  1  0  0  0  0 
  4 14  1  0  0  0  0 
  5  7  1  0  0  0  0 
  6  1  1  0  0  0  0 
  7  8  1  0  0  0  0 
  7  6  2  0  0  0  0 
 10  1  1  0  0  0  0 
 12  2  1  0  0  0  0 
 13  3  1  0  0  0  0 
 15  5  1  0  0  0  0 
M  CHG  2   7   1   8  -1 
M  END 
>  <HBA> 
1 
 
>  <HBD> 
0 
 
>  <TPSA> 
25.46 
 
>  <cid> 
13602 
 
>  <dipole> 
3.52 
 
>  <excitation_energy_1> 
4.169 
 
>  <excitation_energy_2> 
4.283 
 
>  <excitation_energy_3> 
4.819 
 
>  <excitation_energy_4> 
5.0 
 
>  <homo_energy> 
-5.685 
 
>  <homo_lumo_gap> 
4.789 
 
>  <logP> 
1.423 
 
>  <lumo_energy> 
-0.895 
 
>  <melting_point> 
22.66 
 
>  <molecular_refractivity> 
32.57 
 
>  <oscillator_strength_1> 
0.0 
 
>  <oscillator_strength_2> 
0.0301 
 
>  <oscillator_strength_3> 
0.1809 
 
>  <oscillator_strength_4> 
0.0002 
 
>  <open_babel_can_smiles> 
Cc1cccc[n+]1[O-] 
 
>  <mulliken_charges> 
15 
1   -0.494178 
2   -0.104099 
3   -0.173817 
4   -0.21123 
5   0.070251 
6   0.347801 
7   -0.052787 
8   -0.524724 
9   0.148999 
10   0.186538 
11   0.186123 
12   0.144385 
13   0.152147 
14   0.146402 
15   0.178189 
 
>  <lowdin_charges> 
15 
1   -0.4373 
2   -0.16741 
3   -0.153961 
4   -0.162324 
5   -0.122047 
6   0.026164 
7   0.211302 
8   -0.396509 
9   0.156979 
10   0.178229 
11   0.177596 
12   0.166856 
13   0.170147 
14   0.169603 
15   0.182677 
 
$$$$ 
 
