PCCDB-ID:  18602 
public computational chemistry database (PCCDB) project, http://pccdb.org 
 
 25 25  0  0  1  0  0  0  0  0999 V2000 
    2.3599    3.4490   -0.2635 C   0  0  0  0  0  0  0  0  0  0  0  0 
    2.3881    2.6262    1.0292 C   0  0  0  0  0  0  0  0  0  0  0  0 
    3.4514    1.5158    1.0514 C   0  0  0  0  0  0  0  0  0  0  0  0 
    4.9128    2.0018    0.9020 C   0  0  0  0  0  0  0  0  0  0  0  0 
    5.3437    2.9632    1.9800 C   0  0  1  0  0  0  0  0  0  0  0  0 
    5.8617    5.0850    2.7595 C   0  0  0  0  0  0  0  0  0  0  0  0 
    5.9291    3.1842    4.3469 C   0  0  0  0  0  0  0  0  0  0  0  0 
    6.0295    6.3447    2.6324 N   0  0  0  0  0  0  0  0  0  0  0  0 
    6.1479    2.7644    5.5339 N   0  0  0  0  0  0  0  0  0  0  0  0 
    5.4870    4.2194    1.7185 N   0  0  0  0  0  0  0  0  0  0  0  0 
    5.5409    2.4187    3.2335 N   0  0  0  0  0  0  0  0  0  0  0  0 
    6.0621    4.5145    4.0234 N   0  0  0  0  0  0  0  0  0  0  0  0 
    1.5208    4.1533   -0.2550 H   0  0  0  0  0  0  0  0  0  0  0  0 
    2.2433    2.8042   -1.1441 H   0  0  0  0  0  0  0  0  0  0  0  0 
    3.2771    4.0340   -0.3869 H   0  0  0  0  0  0  0  0  0  0  0  0 
    1.4088    2.1544    1.1835 H   0  0  0  0  0  0  0  0  0  0  0  0 
    2.5397    3.2990    1.8834 H   0  0  0  0  0  0  0  0  0  0  0  0 
    3.2572    0.8081    0.2345 H   0  0  0  0  0  0  0  0  0  0  0  0 
    3.3499    0.9399    1.9821 H   0  0  0  0  0  0  0  0  0  0  0  0 
    5.0514    2.5120   -0.0531 H   0  0  0  0  0  0  0  0  0  0  0  0 
    5.5825    1.1305    0.9073 H   0  0  0  0  0  0  0  0  0  0  0  0 
    5.8468    6.5954    1.6594 H   0  0  0  0  0  0  0  0  0  0  0  0 
    6.0045    1.7575    5.6128 H   0  0  0  0  0  0  0  0  0  0  0  0 
    5.4263    1.4242    3.3690 H   0  0  0  0  0  0  0  0  0  0  0  0 
    6.3389    5.1364    4.7721 H   0  0  0  0  0  0  0  0  0  0  0  0 
  1 13  1  0  0  0  0 
  1  2  1  0  0  0  0 
  2  3  1  0  0  0  0 
  2 16  1  0  0  0  0 
  2 17  1  0  0  0  0 
  3 19  1  0  0  0  0 
  4 21  1  0  0  0  0 
  4  3  1  0  0  0  0 
  5  4  1  1  0  0  0 
  5 11  1  0  0  0  0 
  6 12  1  0  0  0  0 
  7  9  2  0  0  0  0 
  8  6  1  0  0  0  0 
  9 23  1  0  0  0  0 
 10  5  1  0  0  0  0 
 10  6  2  0  0  0  0 
 11 24  1  0  0  0  0 
 11  7  1  0  0  0  0 
 12  7  1  0  0  0  0 
 12 25  1  0  0  0  0 
 14  1  1  0  0  0  0 
 15  1  1  0  0  0  0 
 18  3  1  0  0  0  0 
 20  4  1  0  0  0  0 
 22  8  1  0  0  0  0 
M  RAD  2   5   2   8   2 
M  END 
>  <HBA> 
5 
 
>  <HBD> 
2 
 
>  <TPSA> 
90.71 
 
>  <cid> 
18602 
 
>  <dipole> 
5.69 
 
>  <excitation_energy_1> 
4.812 
 
>  <excitation_energy_2> 
5.126 
 
>  <excitation_energy_3> 
5.317 
 
>  <excitation_energy_4> 
5.35 
 
>  <homo_energy> 
-6.297 
 
>  <homo_lumo_gap> 
5.472 
 
>  <logP> 
1.541 
 
>  <lumo_energy> 
-0.825 
 
>  <melting_point> 
151.99 
 
>  <molecular_refractivity> 
48.02 
 
>  <oscillator_strength_1> 
0.0262 
 
>  <oscillator_strength_2> 
0.0749 
 
>  <oscillator_strength_3> 
0.0068 
 
>  <oscillator_strength_4> 
0.0012 
 
>  <open_babel_can_smiles> 
CCCC[C]1NC(=N)NC(=N1)[NH] 
 
>  <mulliken_charges> 
25 
1   -0.452922 
2   -0.250307 
3   -0.263939 
4   -0.354745 
5   0.531357 
6   0.602466 
7   0.689239 
8   -0.646275 
9   -0.645651 
10   -0.50805 
11   -0.682305 
12   -0.643848 
13   0.149334 
14   0.137846 
15   0.168684 
16   0.138248 
17   0.148289 
18   0.148283 
19   0.126687 
20   0.18884 
21   0.151385 
22   0.295205 
23   0.274876 
24   0.338708 
25   0.358597 
 
>  <lowdin_charges> 
25 
1   -0.451279 
2   -0.275694 
3   -0.273028 
4   -0.288306 
5   0.123679 
6   0.114131 
7   0.136039 
8   -0.422225 
9   -0.452166 
10   -0.22464 
11   -0.248797 
12   -0.234015 
13   0.155214 
14   0.144932 
15   0.158413 
16   0.145815 
17   0.147923 
18   0.150962 
19   0.137808 
20   0.177031 
21   0.157379 
22   0.26172 
23   0.251987 
24   0.293922 
25   0.313196 
 
$$$$ 
 
