PCCDB-ID:  37846 
public computational chemistry database (PCCDB) project, http://pccdb.org 
 
 31 32  0  0  0  0  0  0  0  0999 V2000 
   -0.4734   -1.1555    0.0516 C   0  0  0  0  0  0  0  0  0  0  0  0 
    1.0802   -1.0728   -0.0342 C   0  0  0  0  0  0  0  0  0  0  0  0 
   -0.9515    0.2741    0.4128 C   0  0  0  0  0  0  0  0  0  0  0  0 
    1.4441    0.3886    0.3233 C   0  0  0  0  0  0  0  0  0  0  0  0 
    1.1146    3.8671   -1.7255 C   0  0  0  0  0  0  0  0  0  0  0  0 
    2.2524    2.0321   -2.7912 C   0  0  0  0  0  0  0  0  0  0  0  0 
    2.1096    4.7379   -2.1523 C   0  0  0  0  0  0  0  0  0  0  0  0 
    3.2564    2.8962   -3.2233 C   0  0  0  0  0  0  0  0  0  0  0  0 
    0.0889    1.5578   -1.5439 C   0  0  0  0  0  0  0  0  0  0  0  0 
    0.1899    1.2134   -0.0346 C   0  0  0  0  0  0  0  0  0  0  0  0 
    1.1678    2.4976   -2.0343 C   0  0  0  0  0  0  0  0  0  0  0  0 
    3.1910    4.2588   -2.9056 C   0  0  0  0  0  0  0  0  0  0  0  0 
    4.2263    5.2288   -3.3395 C   0  0  0  0  0  0  0  0  0  0  0  0 
    5.2257    4.6561   -4.0628 O   0  0  0  0  0  0  0  0  0  0  0  0 
    4.2165    6.4193   -3.0933 O   0  0  0  0  0  0  0  0  0  0  0  0 
   -0.8074   -1.8862    0.7954 H   0  0  0  0  0  0  0  0  0  0  0  0 
   -0.8952   -1.4764   -0.9076 H   0  0  0  0  0  0  0  0  0  0  0  0 
    1.4205   -1.3179   -1.0470 H   0  0  0  0  0  0  0  0  0  0  0  0 
    1.5721   -1.7850    0.6363 H   0  0  0  0  0  0  0  0  0  0  0  0 
   -1.0771    0.3620    1.4993 H   0  0  0  0  0  0  0  0  0  0  0  0 
   -1.9165    0.5282   -0.0413 H   0  0  0  0  0  0  0  0  0  0  0  0 
    2.3495    0.7398   -0.1826 H   0  0  0  0  0  0  0  0  0  0  0  0 
    1.6273    0.4750    1.4018 H   0  0  0  0  0  0  0  0  0  0  0  0 
    0.2776    4.2518   -1.1472 H   0  0  0  0  0  0  0  0  0  0  0  0 
    2.3069    0.9778   -3.0518 H   0  0  0  0  0  0  0  0  0  0  0  0 
    2.0669    5.7966   -1.9180 H   0  0  0  0  0  0  0  0  0  0  0  0 
    4.0881    2.5197   -3.8087 H   0  0  0  0  0  0  0  0  0  0  0  0 
   -0.8939    2.0145   -1.7218 H   0  0  0  0  0  0  0  0  0  0  0  0 
    0.1121    0.6342   -2.1357 H   0  0  0  0  0  0  0  0  0  0  0  0 
    0.1667    2.1562    0.5264 H   0  0  0  0  0  0  0  0  0  0  0  0 
    5.8337    5.3845   -4.2866 H   0  0  0  0  0  0  0  0  0  0  0  0 
  1  3  1  0  0  0  0 
  1 16  1  0  0  0  0 
  2  1  1  0  0  0  0 
  2  4  1  0  0  0  0 
  2 19  1  0  0  0  0 
  3 20  1  0  0  0  0 
  4 23  1  0  0  0  0 
  5 24  1  0  0  0  0 
  6 11  2  0  0  0  0 
  7 26  1  0  0  0  0 
  7  5  2  0  0  0  0 
  8 12  2  0  0  0  0 
  8  6  1  0  0  0  0 
  9 10  1  0  0  0  0 
 10  4  1  0  0  0  0 
 10  3  1  0  0  0  0 
 10 30  1  0  0  0  0 
 11  5  1  0  0  0  0 
 11  9  1  0  0  0  0 
 12  7  1  0  0  0  0 
 13 15  2  0  0  0  0 
 13 12  1  0  0  0  0 
 14 13  1  0  0  0  0 
 17  1  1  0  0  0  0 
 18  2  1  0  0  0  0 
 21  3  1  0  0  0  0 
 22  4  1  0  0  0  0 
 25  6  1  0  0  0  0 
 27  8  1  0  0  0  0 
 28  9  1  0  0  0  0 
 29  9  1  0  0  0  0 
 31 14  1  0  0  0  0 
M  END 
>  <HBA> 
2 
 
>  <HBD> 
1 
 
>  <TPSA> 
37.3 
 
>  <cid> 
37846 
 
>  <dipole> 
2.37 
 
>  <excitation_energy_1> 
4.851 
 
>  <excitation_energy_2> 
4.902 
 
>  <excitation_energy_3> 
5.123 
 
>  <excitation_energy_4> 
6.147 
 
>  <homo_energy> 
-6.789 
 
>  <homo_lumo_gap> 
5.578 
 
>  <logP> 
3.118 
 
>  <lumo_energy> 
-1.211 
 
>  <melting_point> 
118.74 
 
>  <molecular_refractivity> 
60.29 
 
>  <oscillator_strength_1> 
0.0152 
 
>  <oscillator_strength_2> 
0.0002 
 
>  <oscillator_strength_3> 
0.4066 
 
>  <oscillator_strength_4> 
0.1301 
 
>  <open_babel_can_smiles> 
OC(=O)c1ccc(cc1)CC1CCCC1 
 
>  <mulliken_charges> 
31 
1   -0.27333 
2   -0.275112 
3   -0.270664 
4   -0.273284 
5   -0.188076 
6   -0.194135 
7   -0.155631 
8   -0.160848 
9   -0.360212 
10   -0.08897 
11   0.190282 
12   0.069712 
13   0.534548 
14   -0.584996 
15   -0.477293 
16   0.138493 
17   0.137592 
18   0.134794 
19   0.138558 
20   0.136163 
21   0.131535 
22   0.143714 
23   0.135242 
24   0.131681 
25   0.131249 
26   0.163143 
27   0.159143 
28   0.14661 
29   0.144133 
30   0.12543 
31   0.410529 
 
>  <lowdin_charges> 
31 
1   -0.289561 
2   -0.288918 
3   -0.281389 
4   -0.28521 
5   -0.166327 
6   -0.169415 
7   -0.125142 
8   -0.136454 
9   -0.277889 
10   -0.127267 
11   0.019098 
12   -0.05395 
13   0.192737 
14   -0.363872 
15   -0.274539 
16   0.14785 
17   0.14289 
18   0.139957 
19   0.148465 
20   0.142368 
21   0.142904 
22   0.150156 
23   0.142152 
24   0.159267 
25   0.156356 
26   0.17519 
27   0.173947 
28   0.153083 
29   0.150033 
30   0.140308 
31   0.363171 
 
$$$$ 
 
