PCCDB-ID:  47675 
public computational chemistry database (PCCDB) project, http://pccdb.org 
 
 36 37  0  0  0  0  0  0  0  0999 V2000 
    3.6993   -0.2495   -2.4520 C   0  0  0  0  0  0  0  0  0  0  0  0 
    4.2174   -5.1980   -2.0802 C   0  0  0  0  0  0  0  0  0  0  0  0 
    2.3600   -6.3308   -1.0737 C   0  0  0  0  0  0  0  0  0  0  0  0 
    3.8609    1.6475    3.3517 C   0  0  0  0  0  0  0  0  0  0  0  0 
    3.4307    0.3067    3.5764 C   0  0  0  0  0  0  0  0  0  0  0  0 
    4.0632   -3.2558    0.3235 C   0  0  0  0  0  0  0  0  0  0  0  0 
    4.0930    2.0790    2.0691 C   0  0  0  0  0  0  0  0  0  0  0  0 
    2.9459   -2.2456   -0.0206 C   0  0  0  0  0  0  0  0  0  0  0  0 
    3.6038   -4.7160    0.2214 C   0  0  0  0  0  0  0  0  0  0  0  0 
    3.2560   -0.5481    2.5267 C   0  0  0  0  0  0  0  0  0  0  0  0 
    4.0424    1.3172   -0.4098 C   0  0  0  0  0  0  0  0  0  0  0  0 
    3.7030    0.0734   -0.9837 C   0  0  0  0  0  0  0  0  0  0  0  0 
    3.9115    1.2056    0.9714 C   0  0  0  0  0  0  0  0  0  0  0  0 
    3.3633   -0.8097    0.0439 C   0  0  0  0  0  0  0  0  0  0  0  0 
    3.1325   -5.0963   -1.1122 N   0  0  0  0  0  0  0  0  0  0  0  0 
    3.4913   -0.1229    1.2367 N   0  0  0  0  0  0  0  0  0  0  0  0 
    4.0131    0.6191   -3.0394 H   0  0  0  0  0  0  0  0  0  0  0  0 
    2.7023   -0.5427   -2.8055 H   0  0  0  0  0  0  0  0  0  0  0  0 
    4.3805   -1.0745   -2.6966 H   0  0  0  0  0  0  0  0  0  0  0  0 
    3.8066   -5.4468   -3.0646 H   0  0  0  0  0  0  0  0  0  0  0  0 
    4.9630   -5.9741   -1.8134 H   0  0  0  0  0  0  0  0  0  0  0  0 
    4.7427   -4.2430   -2.1717 H   0  0  0  0  0  0  0  0  0  0  0  0 
    1.9717   -6.5534   -2.0738 H   0  0  0  0  0  0  0  0  0  0  0  0 
    1.5068   -6.2145   -0.3967 H   0  0  0  0  0  0  0  0  0  0  0  0 
    2.9488   -7.2072   -0.7358 H   0  0  0  0  0  0  0  0  0  0  0  0 
    4.0016    2.3179    4.1936 H   0  0  0  0  0  0  0  0  0  0  0  0 
    3.2385   -0.0528    4.5818 H   0  0  0  0  0  0  0  0  0  0  0  0 
    4.4252   -3.0867    1.3462 H   0  0  0  0  0  0  0  0  0  0  0  0 
    4.9259   -3.0722   -0.3281 H   0  0  0  0  0  0  0  0  0  0  0  0 
    4.4179    3.0952    1.8658 H   0  0  0  0  0  0  0  0  0  0  0  0 
    2.0855   -2.4266    0.6428 H   0  0  0  0  0  0  0  0  0  0  0  0 
    2.5858   -2.4632   -1.0307 H   0  0  0  0  0  0  0  0  0  0  0  0 
    2.7669   -4.8650    0.9163 H   0  0  0  0  0  0  0  0  0  0  0  0 
    4.4203   -5.3835    0.5668 H   0  0  0  0  0  0  0  0  0  0  0  0 
    2.9314   -1.5745    2.6409 H   0  0  0  0  0  0  0  0  0  0  0  0 
    4.3489    2.2087   -0.9410 H   0  0  0  0  0  0  0  0  0  0  0  0 
  1 12  1  0  0  0  0 
  2 21  1  0  0  0  0 
  2 15  1  0  0  0  0 
  3 25  1  0  0  0  0 
  3 24  1  0  0  0  0 
  4  5  1  0  0  0  0 
  4 26  1  0  0  0  0 
  5 27  1  0  0  0  0 
  6 28  1  0  0  0  0 
  7  4  2  0  0  0  0 
  8 14  1  0  0  0  0 
  8  6  1  0  0  0  0 
  8 31  1  0  0  0  0 
  9  6  1  0  0  0  0 
  9 34  1  0  0  0  0 
  9 33  1  0  0  0  0 
 10 35  1  0  0  0  0 
 10  5  2  0  0  0  0 
 11 13  2  0  0  0  0 
 12 11  1  0  0  0  0 
 12 14  2  0  0  0  0 
 13 16  1  0  0  0  0 
 13  7  1  0  0  0  0 
 14 16  1  0  0  0  0 
 15  3  1  0  0  0  0 
 15  9  1  0  0  0  0 
 16 10  1  0  0  0  0 
 17  1  1  0  0  0  0 
 18  1  1  0  0  0  0 
 19  1  1  0  0  0  0 
 20  2  1  0  0  0  0 
 22  2  1  0  0  0  0 
 23  3  1  0  0  0  0 
 29  6  1  0  0  0  0 
 30  7  1  0  0  0  0 
 32  8  1  0  0  0  0 
 36 11  1  0  0  0  0 
M  END 
>  <HBA> 
2 
 
>  <HBD> 
0 
 
>  <TPSA> 
7.65 
 
>  <cid> 
47675 
 
>  <dipole> 
1.64 
 
>  <excitation_energy_1> 
3.554 
 
>  <excitation_energy_2> 
4.232 
 
>  <excitation_energy_3> 
4.436 
 
>  <excitation_energy_4> 
4.592 
 
>  <homo_energy> 
-4.656 
 
>  <homo_lumo_gap> 
4.324 
 
>  <logP> 
2.742 
 
>  <lumo_energy> 
-0.332 
 
>  <melting_point> 
50.53 
 
>  <molecular_refractivity> 
69.45 
 
>  <oscillator_strength_1> 
0.0384 
 
>  <oscillator_strength_2> 
0.0091 
 
>  <oscillator_strength_3> 
0.0099 
 
>  <oscillator_strength_4> 
0.0005 
 
>  <open_babel_can_smiles> 
CN(CCCc1c(C)cc2n1cccc2)C 
 
>  <mulliken_charges> 
36 
1   -0.534777 
2   -0.302523 
3   -0.293176 
4   -0.129047 
5   -0.185543 
6   -0.272326 
7   -0.192294 
8   -0.341608 
9   -0.114929 
10   0.066046 
11   -0.271019 
12   0.064397 
13   0.349587 
14   0.280912 
15   -0.363088 
16   -0.557712 
17   0.154546 
18   0.15904 
19   0.154024 
20   0.149116 
21   0.117544 
22   0.153808 
23   0.147799 
24   0.148476 
25   0.116941 
26   0.128348 
27   0.132698 
28   0.136181 
29   0.144691 
30   0.136122 
31   0.134002 
32   0.170764 
33   0.130054 
34   0.110835 
35   0.154947 
36   0.117163 
 
>  <lowdin_charges> 
36 
1   -0.440825 
2   -0.359453 
3   -0.355882 
4   -0.18154 
5   -0.188385 
6   -0.282935 
7   -0.159207 
8   -0.278739 
9   -0.202528 
10   -0.114252 
11   -0.247383 
12   -0.034205 
13   0.024316 
14   -0.031162 
15   -0.18415 
16   0.046568 
17   0.15934 
18   0.157554 
19   0.155684 
20   0.150345 
21   0.121077 
22   0.150671 
23   0.148922 
24   0.149539 
25   0.120464 
26   0.159748 
27   0.163157 
28   0.144391 
29   0.1466 
30   0.164094 
31   0.144662 
32   0.167352 
33   0.141906 
34   0.119719 
35   0.165983 
36   0.158555 
 
$$$$ 
 
