PCCDB-ID:  48775 
public computational chemistry database (PCCDB) project, http://pccdb.org 
 
 31 31  0  0  1  0  0  0  0  0999 V2000 
    3.7412   -0.1862   -1.0442 C   0  0  0  0  0  0  0  0  0  0  0  0 
    6.0928    0.8459    2.5317 C   0  0  0  0  0  0  0  0  0  0  0  0 
    5.8347    0.7863    5.0328 C   0  0  0  0  0  0  0  0  0  0  0  0 
    2.8464   -0.0220    4.6274 C   0  0  0  0  0  0  0  0  0  0  0  0 
    2.5341    0.0437   -0.1359 C   0  0  0  0  0  0  0  0  0  0  0  0 
    5.2397    0.3145    3.6954 C   0  0  0  0  0  0  0  0  0  0  0  0 
    3.4307    2.1131    3.4144 C   0  0  0  0  0  0  0  0  0  0  0  0 
    3.2779   -0.0815    2.1976 C   0  0  0  0  0  0  0  0  0  0  0  0 
    2.9246    2.1289    1.1512 C   0  0  0  0  0  0  0  0  0  0  0  0 
    3.6975    0.6229    3.5027 C   0  0  2  0  0  0  0  0  0  0  0  0 
    3.1203    2.7797    2.3684 N   0  0  0  0  0  0  0  0  0  0  0  0 
    2.8955    0.7070    1.1339 N   0  0  0  0  0  0  0  0  0  0  0  0 
    3.5387    2.8318    4.5492 O   0  0  0  0  0  0  0  0  0  0  0  0 
    3.3092   -1.3019    2.1265 O   0  0  0  0  0  0  0  0  0  0  0  0 
    2.7431    2.7440    0.1201 O   0  0  0  0  0  0  0  0  0  0  0  0 
    3.4196   -0.6734   -1.9716 H   0  0  0  0  0  0  0  0  0  0  0  0 
    4.4768   -0.8358   -0.5590 H   0  0  0  0  0  0  0  0  0  0  0  0 
    4.2136    0.7655   -1.3044 H   0  0  0  0  0  0  0  0  0  0  0  0 
    7.1409    0.5659    2.6816 H   0  0  0  0  0  0  0  0  0  0  0  0 
    6.0495    1.9395    2.4632 H   0  0  0  0  0  0  0  0  0  0  0  0 
    5.7801    0.4327    1.5679 H   0  0  0  0  0  0  0  0  0  0  0  0 
    6.8550    0.3991    5.1262 H   0  0  0  0  0  0  0  0  0  0  0  0 
    5.2810    0.4177    5.9035 H   0  0  0  0  0  0  0  0  0  0  0  0 
    5.9064    1.8790    5.0910 H   0  0  0  0  0  0  0  0  0  0  0  0 
    3.1219    0.3261    5.6277 H   0  0  0  0  0  0  0  0  0  0  0  0 
    2.9859   -1.1044    4.5940 H   0  0  0  0  0  0  0  0  0  0  0  0 
    1.7825    0.1913    4.4805 H   0  0  0  0  0  0  0  0  0  0  0  0 
    2.0641   -0.9041    0.1305 H   0  0  0  0  0  0  0  0  0  0  0  0 
    1.8030    0.6873   -0.6257 H   0  0  0  0  0  0  0  0  0  0  0  0 
    5.2812   -0.7810    3.6755 H   0  0  0  0  0  0  0  0  0  0  0  0 
    3.7687    2.2500    5.2901 H   0  0  0  0  0  0  0  0  0  0  0  0 
  1 17  1  0  0  0  0 
  1  5  1  0  0  0  0 
  2 19  1  0  0  0  0 
  2  6  1  0  0  0  0 
  3 24  1  0  0  0  0 
  3 22  1  0  0  0  0 
  3 23  1  0  0  0  0 
  4 25  1  0  0  0  0 
  5 28  1  0  0  0  0 
  5 12  1  0  0  0  0 
  6  3  1  0  0  0  0 
  7 10  1  0  0  0  0 
  7 13  1  0  0  0  0 
  8 10  1  0  0  0  0 
  9 11  1  0  0  0  0 
 10  6  1  1  0  0  0 
 10  4  1  0  0  0  0 
 11  7  2  0  0  0  0 
 12  9  1  0  0  0  0 
 12  8  1  0  0  0  0 
 13 31  1  0  0  0  0 
 14  8  2  0  0  0  0 
 15  9  2  0  0  0  0 
 16  1  1  0  0  0  0 
 18  1  1  0  0  0  0 
 20  2  1  0  0  0  0 
 21  2  1  0  0  0  0 
 26  4  1  0  0  0  0 
 27  4  1  0  0  0  0 
 29  5  1  0  0  0  0 
 30  6  1  0  0  0  0 
M  END 
>  <HBA> 
5 
 
>  <HBD> 
1 
 
>  <TPSA> 
66.48 
 
>  <cid> 
48775 
 
>  <dipole> 
5.0 
 
>  <excitation_energy_1> 
4.506 
 
>  <excitation_energy_2> 
4.836 
 
>  <excitation_energy_3> 
5.004 
 
>  <excitation_energy_4> 
5.338 
 
>  <homo_energy> 
-7.211 
 
>  <homo_lumo_gap> 
5.788 
 
>  <logP> 
1.014 
 
>  <lumo_energy> 
-1.423 
 
>  <melting_point> 
116.37 
 
>  <molecular_refractivity> 
62.33 
 
>  <oscillator_strength_1> 
0.001 
 
>  <oscillator_strength_2> 
0.0007 
 
>  <oscillator_strength_3> 
0.0134 
 
>  <oscillator_strength_4> 
0.0339 
 
>  <open_babel_can_smiles> 
CCN1C(=O)N=C([C@](C1=O)(C)C(C)C)O 
 
>  <mulliken_charges> 
31 
1   -0.455653 
2   -0.482012 
3   -0.49945 
4   -0.478599 
5   -0.142022 
6   -0.068215 
7   0.539576 
8   0.642532 
9   0.704474 
10   -0.13087 
11   -0.489928 
12   -0.51277 
13   -0.567149 
14   -0.519222 
15   -0.469021 
16   0.152783 
17   0.161566 
18   0.17246 
19   0.156928 
20   0.166695 
21   0.169975 
22   0.168532 
23   0.148283 
24   0.160282 
25   0.139673 
26   0.201049 
27   0.17455 
28   0.176254 
29   0.180605 
30   0.171397 
31   0.427297 
 
>  <lowdin_charges> 
31 
1   -0.452045 
2   -0.451507 
3   -0.461468 
4   -0.436678 
5   -0.193061 
6   -0.111108 
7   0.161867 
8   0.161472 
9   0.188621 
10   -0.052592 
11   -0.186207 
12   -0.088368 
13   -0.319963 
14   -0.283704 
15   -0.249068 
16   0.158947 
17   0.157016 
18   0.162557 
19   0.158236 
20   0.156405 
21   0.160644 
22   0.165234 
23   0.149912 
24   0.151685 
25   0.145693 
26   0.179813 
27   0.164741 
28   0.167207 
29   0.171488 
30   0.160825 
31   0.363406 
 
$$$$ 
 
