PCCDB-ID:  62163 
public computational chemistry database (PCCDB) project, http://pccdb.org 
 
 15 14  0  0  0  0  0  0  0  0999 V2000 
    2.1556   -0.2854   -1.1495 C   0  0  0  0  0  0  0  0  0  0  0  0 
    2.1958   -0.6292    2.3144 C   0  0  0  0  0  0  0  0  0  0  0  0 
    3.0812   -1.0068    3.4175 C   0  0  0  0  0  0  0  0  0  0  0  0 
    2.9569    0.1661    1.2261 C   0  0  0  0  0  0  0  0  0  0  0  0 
    3.8076   -1.3006    4.2737 N   0  0  0  0  0  0  0  0  0  0  0  0 
    1.2371    1.5008    0.1260 N   0  0  0  0  0  0  0  0  0  0  0  0 
    2.1033    0.4749    0.0865 N   0  0  0  0  0  0  0  0  0  0  0  0 
    1.2095    2.1051    1.1946 O   0  0  0  0  0  0  0  0  0  0  0  0 
    1.8938   -1.3365   -0.9787 H   0  0  0  0  0  0  0  0  0  0  0  0 
    3.1558   -0.2381   -1.5956 H   0  0  0  0  0  0  0  0  0  0  0  0 
    1.4308    0.1584   -1.8344 H   0  0  0  0  0  0  0  0  0  0  0  0 
    1.3773   -0.0114    2.6964 H   0  0  0  0  0  0  0  0  0  0  0  0 
    1.7561   -1.5378    1.8863 H   0  0  0  0  0  0  0  0  0  0  0  0 
    3.8149   -0.4041    0.8619 H   0  0  0  0  0  0  0  0  0  0  0  0 
    3.3077    1.1109    1.6495 H   0  0  0  0  0  0  0  0  0  0  0  0 
  1  9  1  0  0  0  0 
  1  7  1  0  0  0  0 
  2 12  1  0  0  0  0 
  2  3  1  0  0  0  0 
  3  5  3  0  0  0  0 
  4 15  1  0  0  0  0 
  4  2  1  0  0  0  0 
  6  8  1  0  0  0  0 
  7  6  1  0  0  0  0 
  7  4  1  0  0  0  0 
 10  1  1  0  0  0  0 
 11  1  1  0  0  0  0 
 13  2  1  0  0  0  0 
 14  4  1  0  0  0  0 
M  RAD  2   6   2   8   2 
M  END 
>  <HBA> 
4 
 
>  <HBD> 
0 
 
>  <TPSA> 
56.46 
 
>  <cid> 
62163 
 
>  <dipole> 
4.61 
 
>  <excitation_energy_1> 
3.385 
 
>  <excitation_energy_2> 
5.734 
 
>  <excitation_energy_3> 
5.842 
 
>  <excitation_energy_4> 
6.388 
 
>  <homo_energy> 
-6.588 
 
>  <homo_lumo_gap> 
5.246 
 
>  <logP> 
0.513 
 
>  <lumo_energy> 
-1.342 
 
>  <melting_point> 
30.35 
 
>  <molecular_refractivity> 
28.73 
 
>  <oscillator_strength_1> 
0.0013 
 
>  <oscillator_strength_2> 
0.0216 
 
>  <oscillator_strength_3> 
0.1338 
 
>  <oscillator_strength_4> 
0.0015 
 
>  <open_babel_can_smiles> 
CN([N][O])CCC#N 
 
>  <mulliken_charges> 
15 
1   -0.316508 
2   -0.342753 
3   0.348328 
4   -0.150624 
5   -0.461377 
6   0.157644 
7   -0.212792 
8   -0.374999 
9   0.169471 
10   0.174298 
11   0.199723 
12   0.229895 
13   0.195426 
14   0.177925 
15   0.206342 
 
>  <lowdin_charges> 
15 
1   -0.353755 
2   -0.280774 
3   -0.017971 
4   -0.206673 
5   -0.117949 
6   0.059379 
7   -0.045689 
8   -0.267617 
9   0.156341 
10   0.160143 
11   0.182672 
12   0.199684 
13   0.181932 
14   0.168624 
15   0.181653 
 
$$$$ 
 
