PCCDB-ID:  7298 
public computational chemistry database (PCCDB) project, http://pccdb.org 
 
 16 16  0  0  0  0  0  0  0  0999 V2000 
   -0.7907   -0.9948   -0.2209 C   0  0  0  0  0  0  0  0  0  0  0  0 
    0.7357   -1.0869    0.0412 C   0  0  0  0  0  0  0  0  0  0  0  0 
   -1.1740    0.4122    0.2725 C   0  0  0  0  0  0  0  0  0  0  0  0 
    1.2455    0.3856    0.0999 C   0  0  0  0  0  0  0  0  0  0  0  0 
    0.0142    1.2850   -0.1677 C   0  0  0  0  0  0  0  0  0  0  0  0 
   -0.0892    1.6823   -1.5378 O   0  0  0  0  0  0  0  0  0  0  0  0 
   -1.3546   -1.7918    0.2742 H   0  0  0  0  0  0  0  0  0  0  0  0 
   -1.0041   -1.0882   -1.2953 H   0  0  0  0  0  0  0  0  0  0  0  0 
    1.2460   -1.6758   -0.7283 H   0  0  0  0  0  0  0  0  0  0  0  0 
    0.9250   -1.5924    0.9946 H   0  0  0  0  0  0  0  0  0  0  0  0 
   -1.2439    0.4150    1.3689 H   0  0  0  0  0  0  0  0  0  0  0  0 
   -2.1230    0.7850   -0.1259 H   0  0  0  0  0  0  0  0  0  0  0  0 
    2.0311    0.6029   -0.6309 H   0  0  0  0  0  0  0  0  0  0  0  0 
    1.6622    0.6065    1.0894 H   0  0  0  0  0  0  0  0  0  0  0  0 
    0.0658    2.2295    0.3816 H   0  0  0  0  0  0  0  0  0  0  0  0 
   -0.1322    0.8773   -2.0777 H   0  0  0  0  0  0  0  0  0  0  0  0 
  1  2  1  0  0  0  0 
  1  3  1  0  0  0  0 
  1  7  1  0  0  0  0 
  2  4  1  0  0  0  0 
  2 10  1  0  0  0  0 
  3 11  1  0  0  0  0 
  4 14  1  0  0  0  0 
  5  4  1  0  0  0  0 
  5  3  1  0  0  0  0 
  5 15  1  0  0  0  0 
  6  5  1  0  0  0  0 
  8  1  1  0  0  0  0 
  9  2  1  0  0  0  0 
 12  3  1  0  0  0  0 
 13  4  1  0  0  0  0 
 16  6  1  0  0  0  0 
M  END 
>  <HBA> 
1 
 
>  <HBD> 
1 
 
>  <TPSA> 
20.23 
 
>  <cid> 
7298 
 
>  <dipole> 
1.77 
 
>  <excitation_energy_1> 
6.412 
 
>  <excitation_energy_2> 
6.885 
 
>  <excitation_energy_3> 
7.384 
 
>  <excitation_energy_4> 
7.434 
 
>  <homo_energy> 
-6.925 
 
>  <homo_lumo_gap> 
8.596 
 
>  <logP> 
0.921 
 
>  <lumo_energy> 
1.671 
 
>  <melting_point> 
15.3 
 
>  <molecular_refractivity> 
25.2 
 
>  <oscillator_strength_1> 
0.018 
 
>  <oscillator_strength_2> 
0.0013 
 
>  <oscillator_strength_3> 
0.0018 
 
>  <oscillator_strength_4> 
0.0012 
 
>  <open_babel_can_smiles> 
OC1CCCC1 
 
>  <mulliken_charges> 
16 
1   -0.286968 
2   -0.278243 
3   -0.27899 
4   -0.295745 
5   0.136787 
6   -0.62982 
7   0.142169 
8   0.125809 
9   0.138207 
10   0.141742 
11   0.132707 
12   0.146694 
13   0.148068 
14   0.139593 
15   0.133388 
16   0.384601 
 
>  <lowdin_charges> 
16 
1   -0.288533 
2   -0.292531 
3   -0.297423 
4   -0.306788 
5   -0.002736 
6   -0.467848 
7   0.150874 
8   0.132246 
9   0.147035 
10   0.14671 
11   0.143097 
12   0.151954 
13   0.153601 
14   0.149335 
15   0.144457 
16   0.336553 
 
$$$$ 
 
