PCCDB-ID:  38336 
public computational chemistry database (PCCDB) project, http://pccdb.org 
 
 33 34  0  0  1  0  0  0  0  0999 V2000 
    0.9249   -0.3209   -0.4515 C   0  0  0  0  0  0  0  0  0  0  0  0 
    2.5096    0.5683    1.3058 C   0  0  0  0  0  0  0  0  0  0  0  0 
    4.8606    1.4691   -2.7886 C   0  0  0  0  0  0  0  0  0  0  0  0 
    8.0937   -3.0968    0.0169 C   0  0  0  0  0  0  0  0  0  0  0  0 
    7.3738   -2.2814    0.8946 C   0  0  0  0  0  0  0  0  0  0  0  0 
    7.6546   -3.2712   -1.2964 C   0  0  0  0  0  0  0  0  0  0  0  0 
    6.2160   -1.6371    0.4621 C   0  0  0  0  0  0  0  0  0  0  0  0 
    6.4963   -2.6293   -1.7346 C   0  0  0  0  0  0  0  0  0  0  0  0 
    2.8858    1.1538   -1.1670 C   0  0  0  0  0  0  0  0  0  0  0  0 
    5.7723   -1.8080   -0.8573 C   0  0  0  0  0  0  0  0  0  0  0  0 
    2.3607    0.1025   -0.1435 C   0  0  0  0  0  0  0  0  0  0  0  0 
    4.3659    0.8567   -1.4824 C   0  0  2  0  0  0  0  0  0  0  0  0 
    5.2172    1.2115   -0.3845 O   0  0  0  0  0  0  0  0  0  0  0  0 
    3.8838   -1.5603   -2.8439 O   0  0  0  0  0  0  0  0  0  0  0  0 
    3.2101   -1.0891   -0.2859 O   0  0  0  0  0  0  0  0  0  0  0  0 
    4.2847   -1.0124   -1.5134 P   0  0  1  0  0  0  0  0  0  0  0  0 
    0.2492    0.5397   -0.3788 H   0  0  0  0  0  0  0  0  0  0  0  0 
    0.5908   -1.0840    0.2588 H   0  0  0  0  0  0  0  0  0  0  0  0 
    0.8552   -0.7359   -1.4618 H   0  0  0  0  0  0  0  0  0  0  0  0 
    1.8448    1.4178    1.5035 H   0  0  0  0  0  0  0  0  0  0  0  0 
    3.5390    0.8757    1.5053 H   0  0  0  0  0  0  0  0  0  0  0  0 
    2.2415   -0.2425    1.9908 H   0  0  0  0  0  0  0  0  0  0  0  0 
    4.7495    2.5625   -2.7687 H   0  0  0  0  0  0  0  0  0  0  0  0 
    4.2996    1.0801   -3.6426 H   0  0  0  0  0  0  0  0  0  0  0  0 
    5.9203    1.2368   -2.9346 H   0  0  0  0  0  0  0  0  0  0  0  0 
    8.9950   -3.5983    0.3598 H   0  0  0  0  0  0  0  0  0  0  0  0 
    7.7146   -2.1505    1.9182 H   0  0  0  0  0  0  0  0  0  0  0  0 
    8.2103   -3.9093   -1.9782 H   0  0  0  0  0  0  0  0  0  0  0  0 
    5.6563   -1.0049    1.1419 H   0  0  0  0  0  0  0  0  0  0  0  0 
    6.1356   -2.7673   -2.7490 H   0  0  0  0  0  0  0  0  0  0  0  0 
    2.7656    2.1735   -0.7796 H   0  0  0  0  0  0  0  0  0  0  0  0 
    2.3076    1.0853   -2.0954 H   0  0  0  0  0  0  0  0  0  0  0  0 
    5.2465    2.1823   -0.3434 H   0  0  0  0  0  0  0  0  0  0  0  0 
  1 17  1  0  0  0  0 
  1 11  1  0  0  0  0 
  1 18  1  0  0  0  0 
  2 20  1  0  0  0  0 
  2 21  1  0  0  0  0 
  2 22  1  0  0  0  0 
  3 23  1  0  0  0  0 
  3 12  1  0  0  0  0 
  4 26  1  0  0  0  0 
  4  5  2  0  0  0  0 
  5 27  1  0  0  0  0 
  6  4  1  0  0  0  0 
  7  5  1  0  0  0  0 
  7 29  1  0  0  0  0 
  8  6  2  0  0  0  0 
  8 10  1  0  0  0  0 
  9 31  1  0  0  0  0 
  9 11  1  0  0  0  0 
 10  7  2  0  0  0  0 
 11  2  1  0  0  0  0 
 12  9  1  0  0  0  0 
 12 13  1  1  0  0  0 
 13 33  1  0  0  0  0 
 15 11  1  0  0  0  0 
 16 14  2  6  0  0  0 
 16 12  1  0  0  0  0 
 16 10  1  0  0  0  0 
 16 15  1  0  0  0  0 
 19  1  1  0  0  0  0 
 24  3  1  0  0  0  0 
 25  3  1  0  0  0  0 
 28  6  1  0  0  0  0 
 30  8  1  0  0  0  0 
 32  9  1  0  0  0  0 
M  END 
>  <HBA> 
3 
 
>  <HBD> 
1 
 
>  <TPSA> 
56.34 
 
>  <cid> 
38336 
 
>  <dipole> 
4.3 
 
>  <excitation_energy_1> 
5.189 
 
>  <excitation_energy_2> 
5.399 
 
>  <excitation_energy_3> 
5.707 
 
>  <excitation_energy_4> 
5.916 
 
>  <homo_energy> 
-6.833 
 
>  <homo_lumo_gap> 
6.172 
 
>  <logP> 
2.497 
 
>  <lumo_energy> 
-0.661 
 
>  <melting_point> 
81.99 
 
>  <molecular_refractivity> 
64.85 
 
>  <oscillator_strength_1> 
0.0108 
 
>  <oscillator_strength_2> 
0.008 
 
>  <oscillator_strength_3> 
0.1027 
 
>  <oscillator_strength_4> 
0.0437 
 
>  <open_babel_can_smiles> 
C[C@@]1(O)CC(O[P@]1(=O)c1ccccc1)(C)C 
 
>  <mulliken_charges> 
33 
1   -0.454662 
2   -0.459329 
3   -0.47647 
4   -0.123494 
5   -0.131092 
6   -0.126035 
7   -0.130023 
8   -0.160977 
9   -0.348824 
10   -0.095654 
11   0.323545 
12   0.081853 
13   -0.628263 
14   -0.561858 
15   -0.58939 
16   1.021557 
17   0.140045 
18   0.158238 
19   0.174147 
20   0.138019 
21   0.167487 
22   0.157757 
23   0.132726 
24   0.185514 
25   0.168648 
26   0.134965 
27   0.133525 
28   0.136074 
29   0.15579 
30   0.175388 
31   0.141045 
32   0.169457 
33   0.390291 
 
>  <lowdin_charges> 
33 
1   -0.447868 
2   -0.453392 
3   -0.451867 
4   -0.140603 
5   -0.158376 
6   -0.159801 
7   -0.127169 
8   -0.131293 
9   -0.306728 
10   -0.182398 
11   0.142607 
12   -0.035827 
13   -0.447611 
14   -0.607028 
15   -0.402142 
16   0.978979 
17   0.152231 
18   0.160737 
19   0.165554 
20   0.150906 
21   0.160571 
22   0.1601 
23   0.14291 
24   0.177478 
25   0.163381 
26   0.160006 
27   0.158559 
28   0.162318 
29   0.173577 
30   0.181195 
31   0.15251 
32   0.167166 
33   0.341318 
 
$$$$ 
 
