PCCDB-ID:  7469 
public computational chemistry database (PCCDB) project, http://pccdb.org 
 
 18 18  0  0  0  0  0  0  0  0999 V2000 
    1.8779    0.6801   -1.1784 C   0  0  0  0  0  0  0  0  0  0  0  0 
    4.2207    0.0727    1.8403 C   0  0  0  0  0  0  0  0  0  0  0  0 
    3.1522    2.1162    1.1291 C   0  0  0  0  0  0  0  0  0  0  0  0 
    4.8059    0.7426    2.9057 C   0  0  0  0  0  0  0  0  0  0  0  0 
    3.7306    2.7990    2.1920 C   0  0  0  0  0  0  0  0  0  0  0  0 
    2.7845   -0.0363   -0.1882 C   0  0  0  0  0  0  0  0  0  0  0  0 
    3.3847    0.7440    0.9335 C   0  0  0  0  0  0  0  0  0  0  0  0 
    4.5611    2.1117    3.0858 C   0  0  0  0  0  0  0  0  0  0  0  0 
    3.0120   -1.2320   -0.3135 O   0  0  0  0  0  0  0  0  0  0  0  0 
    5.1034    2.8254    4.1113 O   0  0  0  0  0  0  0  0  0  0  0  0 
    2.4042    1.5037   -1.6756 H   0  0  0  0  0  0  0  0  0  0  0  0 
    1.0028    1.1079   -0.6744 H   0  0  0  0  0  0  0  0  0  0  0  0 
    1.5447   -0.0394   -1.9283 H   0  0  0  0  0  0  0  0  0  0  0  0 
    4.3973   -0.9867    1.6858 H   0  0  0  0  0  0  0  0  0  0  0  0 
    2.5115    2.6647    0.4455 H   0  0  0  0  0  0  0  0  0  0  0  0 
    5.4533    0.2106    3.6009 H   0  0  0  0  0  0  0  0  0  0  0  0 
    3.5535    3.8581    2.3486 H   0  0  0  0  0  0  0  0  0  0  0  0 
    5.6530    2.2374    4.6533 H   0  0  0  0  0  0  0  0  0  0  0  0 
  1 12  1  0  0  0  0 
  1  6  1  0  0  0  0 
  2  4  2  0  0  0  0 
  3  5  1  0  0  0  0 
  4  8  1  0  0  0  0 
  4 16  1  0  0  0  0 
  5 17  1  0  0  0  0 
  5  8  2  0  0  0  0 
  6  7  1  0  0  0  0 
  7  3  2  0  0  0  0 
  7  2  1  0  0  0  0 
  8 10  1  0  0  0  0 
  9  6  2  0  0  0  0 
 10 18  1  0  0  0  0 
 11  1  1  0  0  0  0 
 13  1  1  0  0  0  0 
 14  2  1  0  0  0  0 
 15  3  1  0  0  0  0 
M  END 
>  <HBA> 
2 
 
>  <HBD> 
1 
 
>  <TPSA> 
37.3 
 
>  <cid> 
7469 
 
>  <dipole> 
2.61 
 
>  <excitation_energy_1> 
3.837 
 
>  <excitation_energy_2> 
4.772 
 
>  <excitation_energy_3> 
4.834 
 
>  <excitation_energy_4> 
5.352 
 
>  <homo_energy> 
-6.346 
 
>  <homo_lumo_gap> 
5.113 
 
>  <logP> 
1.595 
 
>  <lumo_energy> 
-1.233 
 
>  <melting_point> 
79.19 
 
>  <molecular_refractivity> 
38.66 
 
>  <oscillator_strength_1> 
0.0001 
 
>  <oscillator_strength_2> 
0.2914 
 
>  <oscillator_strength_3> 
0.0284 
 
>  <oscillator_strength_4> 
0.0 
 
>  <open_babel_can_smiles> 
CC(=O)c1ccc(cc1)O 
 
>  <mulliken_charges> 
18 
1   -0.543082 
2   -0.165758 
3   -0.188441 
4   -0.194097 
5   -0.162307 
6   0.404764 
7   0.074814 
8   0.360324 
9   -0.462224 
10   -0.632781 
11   0.168385 
12   0.169014 
13   0.180284 
14   0.167402 
15   0.137425 
16   0.127641 
17   0.146098 
18   0.412538 
 
>  <lowdin_charges> 
18 
1   -0.478324 
2   -0.112431 
3   -0.138283 
4   -0.213231 
5   -0.186923 
6   0.157982 
7   -0.072569 
8   0.116479 
9   -0.252295 
10   -0.366398 
11   0.169076 
12   0.169353 
13   0.17534 
14   0.177222 
15   0.165099 
16   0.158292 
17   0.168803 
18   0.36281 
 
$$$$ 
 
