PCCDB-ID:  12187 
public computational chemistry database (PCCDB) project, http://pccdb.org 
 
 22 21  0  0  0  0  0  0  0  0999 V2000 
    4.9475   -0.5049    0.1607 C   0  0  0  0  0  0  0  0  0  0  0  0 
   -0.0287    1.5766   -0.9168 C   0  0  0  0  0  0  0  0  0  0  0  0 
   -0.4551    0.5140   -3.1762 C   0  0  0  0  0  0  0  0  0  0  0  0 
    4.1496    0.1454   -0.9676 C   0  0  0  0  0  0  0  0  0  0  0  0 
    1.8230    0.3077   -2.1017 C   0  0  0  0  0  0  0  0  0  0  0  0 
    0.3099    0.4047   -1.8500 C   0  0  0  0  0  0  0  0  0  0  0  0 
    2.6494   -0.1207   -0.8912 C   0  0  0  0  0  0  0  0  0  0  0  0 
    2.1452   -0.6615    0.0764 O   0  0  0  0  0  0  0  0  0  0  0  0 
    6.0107   -0.2569    0.0767 H   0  0  0  0  0  0  0  0  0  0  0  0 
    4.8451   -1.5944    0.1359 H   0  0  0  0  0  0  0  0  0  0  0  0 
    4.5864   -0.1674    1.1362 H   0  0  0  0  0  0  0  0  0  0  0  0 
   -1.1078    1.6278   -0.7303 H   0  0  0  0  0  0  0  0  0  0  0  0 
    0.2759    2.5340   -1.3613 H   0  0  0  0  0  0  0  0  0  0  0  0 
    0.4727    1.4709    0.0502 H   0  0  0  0  0  0  0  0  0  0  0  0 
   -1.5370    0.5496   -3.0024 H   0  0  0  0  0  0  0  0  0  0  0  0 
   -0.2496   -0.3413   -3.8315 H   0  0  0  0  0  0  0  0  0  0  0  0 
   -0.1784    1.4258   -3.7222 H   0  0  0  0  0  0  0  0  0  0  0  0 
    4.5109   -0.1782   -1.9545 H   0  0  0  0  0  0  0  0  0  0  0  0 
    4.2829    1.2383   -0.9611 H   0  0  0  0  0  0  0  0  0  0  0  0 
    2.2173    1.2566   -2.4947 H   0  0  0  0  0  0  0  0  0  0  0  0 
    2.0269   -0.4369   -2.8884 H   0  0  0  0  0  0  0  0  0  0  0  0 
    0.0081   -0.5226   -1.3470 H   0  0  0  0  0  0  0  0  0  0  0  0 
  1 11  1  0  0  0  0 
  2 12  1  0  0  0  0 
  2 14  1  0  0  0  0 
  3 15  1  0  0  0  0 
  3  6  1  0  0  0  0 
  4 19  1  0  0  0  0 
  4  7  1  0  0  0  0 
  4  1  1  0  0  0  0 
  5  6  1  0  0  0  0 
  5  7  1  0  0  0  0 
  6 22  1  0  0  0  0 
  6  2  1  0  0  0  0 
  7  8  2  0  0  0  0 
  9  1  1  0  0  0  0 
 10  1  1  0  0  0  0 
 13  2  1  0  0  0  0 
 16  3  1  0  0  0  0 
 17  3  1  0  0  0  0 
 18  4  1  0  0  0  0 
 20  5  1  0  0  0  0 
 21  5  1  0  0  0  0 
M  END 
>  <HBA> 
1 
 
>  <HBD> 
0 
 
>  <TPSA> 
17.07 
 
>  <cid> 
12187 
 
>  <dipole> 
2.4 
 
>  <excitation_energy_1> 
4.426 
 
>  <excitation_energy_2> 
6.042 
 
>  <excitation_energy_3> 
6.696 
 
>  <excitation_energy_4> 
6.813 
 
>  <homo_energy> 
-6.582 
 
>  <homo_lumo_gap> 
6.332 
 
>  <logP> 
2.012 
 
>  <lumo_energy> 
-0.25 
 
>  <melting_point> 
-5.84 
 
>  <molecular_refractivity> 
35.96 
 
>  <oscillator_strength_1> 
0.0 
 
>  <oscillator_strength_2> 
0.0164 
 
>  <oscillator_strength_3> 
0.0053 
 
>  <oscillator_strength_4> 
0.0047 
 
>  <open_babel_can_smiles> 
CCC(=O)CC(C)C 
 
>  <mulliken_charges> 
22 
1   -0.433525 
2   -0.451414 
3   -0.446278 
4   -0.351346 
5   -0.352466 
6   -0.058536 
7   0.460339 
8   -0.451125 
9   0.139795 
10   0.156948 
11   0.164854 
12   0.142321 
13   0.130415 
14   0.16152 
15   0.144352 
16   0.138222 
17   0.136584 
18   0.154432 
19   0.161972 
20   0.144259 
21   0.159022 
22   0.149656 
 
>  <lowdin_charges> 
22 
1   -0.436928 
2   -0.445353 
3   -0.443341 
4   -0.306437 
5   -0.31245 
6   -0.117281 
7   0.16476 
8   -0.240046 
9   0.148683 
10   0.154775 
11   0.160619 
12   0.148208 
13   0.140532 
14   0.157383 
15   0.148469 
16   0.146787 
17   0.144317 
18   0.157316 
19   0.160859 
20   0.152671 
21   0.165062 
22   0.151396 
 
$$$$ 
 
