PCCDB-ID:  7671 
public computational chemistry database (PCCDB) project, http://pccdb.org 
 
 16 16  0  0  0  0  0  0  0  0999 V2000 
   -1.4769   -0.1164    0.0670 C   0  0  0  0  0  0  0  0  0  0  0  0 
   -0.8001    1.1038   -0.0152 C   0  0  0  0  0  0  0  0  0  0  0  0 
   -0.7460   -1.3041    0.1202 C   0  0  0  0  0  0  0  0  0  0  0  0 
    0.5917    1.1372   -0.0487 C   0  0  0  0  0  0  0  0  0  0  0  0 
    0.6482   -1.2782    0.0795 C   0  0  0  0  0  0  0  0  0  0  0  0 
    3.4122   -0.7735   -0.7532 C   0  0  0  0  0  0  0  0  0  0  0  0 
    1.3318   -0.0550   -0.0204 C   0  0  0  0  0  0  0  0  0  0  0  0 
    2.7394    0.0352   -0.0431 N   0  0  0  0  0  0  0  0  0  0  0  0 
    4.7571   -0.7682   -0.7663 O   0  0  0  0  0  0  0  0  0  0  0  0 
   -2.5624   -0.1394    0.1039 H   0  0  0  0  0  0  0  0  0  0  0  0 
   -1.3597    2.0350   -0.0482 H   0  0  0  0  0  0  0  0  0  0  0  0 
   -1.2611   -2.2578    0.2022 H   0  0  0  0  0  0  0  0  0  0  0  0 
    1.1282    2.0795   -0.1059 H   0  0  0  0  0  0  0  0  0  0  0  0 
    1.2137   -2.2031    0.1563 H   0  0  0  0  0  0  0  0  0  0  0  0 
    3.0152   -1.5361   -1.4287 H   0  0  0  0  0  0  0  0  0  0  0  0 
    5.0341   -0.0700   -0.1421 H   0  0  0  0  0  0  0  0  0  0  0  0 
  1 10  1  0  0  0  0 
  1  3  1  0  0  0  0 
  2  1  2  0  0  0  0 
  3 12  1  0  0  0  0 
  4  7  2  0  0  0  0 
  4  2  1  0  0  0  0 
  5  3  2  0  0  0  0 
  5 14  1  0  0  0  0 
  6  8  2  0  0  0  0 
  7  5  1  0  0  0  0 
  8  7  1  0  0  0  0 
  9  6  1  0  0  0  0 
  9 16  1  0  0  0  0 
 11  2  1  0  0  0  0 
 13  4  1  0  0  0  0 
 15  6  1  0  0  0  0 
M  END 
>  <HBA> 
2 
 
>  <HBD> 
1 
 
>  <TPSA> 
29.1 
 
>  <cid> 
7671 
 
>  <dipole> 
0.32 
 
>  <excitation_energy_1> 
4.874 
 
>  <excitation_energy_2> 
4.98 
 
>  <excitation_energy_3> 
5.727 
 
>  <excitation_energy_4> 
5.818 
 
>  <homo_energy> 
-6.038 
 
>  <homo_lumo_gap> 
5.608 
 
>  <logP> 
1.964 
 
>  <lumo_energy> 
-0.43 
 
>  <melting_point> 
59.26 
 
>  <molecular_refractivity> 
36.34 
 
>  <oscillator_strength_1> 
0.178 
 
>  <oscillator_strength_2> 
0.0188 
 
>  <oscillator_strength_3> 
0.0391 
 
>  <oscillator_strength_4> 
0.03 
 
>  <open_babel_can_smiles> 
O/C=N/c1ccccc1 
 
>  <mulliken_charges> 
16 
1   -0.128306 
2   -0.13737 
3   -0.139543 
4   -0.1498 
5   -0.161378 
6   0.287002 
7   0.257148 
8   -0.491135 
9   -0.551155 
10   0.127525 
11   0.130301 
12   0.129942 
13   0.132736 
14   0.126535 
15   0.155838 
16   0.411659 
 
>  <lowdin_charges> 
16 
1   -0.164494 
2   -0.152218 
3   -0.152202 
4   -0.16821 
5   -0.187517 
6   0.02839 
7   0.047012 
8   -0.204408 
9   -0.349254 
10   0.155267 
11   0.158452 
12   0.157838 
13   0.16325 
14   0.156967 
15   0.149655 
16   0.361472 
 
$$$$ 
 
