PCCDB-ID:  73133 
public computational chemistry database (PCCDB) project, http://pccdb.org 
 
 24 24  0  0  0  0  0  0  0  0999 V2000 
   -0.3340    0.0548    0.0320 C   0  0  0  0  0  0  0  0  0  0  0  0 
    5.6976   -1.5718    2.0970 C   0  0  0  0  0  0  0  0  0  0  0  0 
    1.7323   -1.3639   -0.0948 C   0  0  0  0  0  0  0  0  0  0  0  0 
    3.1054   -1.5869   -0.1422 C   0  0  0  0  0  0  0  0  0  0  0  0 
    3.4769    0.7826   -0.0269 C   0  0  0  0  0  0  0  0  0  0  0  0 
    1.1688   -0.0820   -0.0176 C   0  0  0  0  0  0  0  0  0  0  0  0 
    6.1076   -1.1709    0.6967 C   0  0  0  0  0  0  0  0  0  0  0  0 
    4.0059   -0.5096   -0.1016 C   0  0  0  0  0  0  0  0  0  0  0  0 
    2.0967    0.9787    0.0174 C   0  0  0  0  0  0  0  0  0  0  0  0 
    5.3882   -0.6885   -0.2304 N   0  0  0  0  0  0  0  0  0  0  0  0 
    1.6558    2.3844    0.1021 N   0  0  0  0  0  0  0  0  0  0  0  0 
    7.4271   -1.3367    0.4102 O   0  0  0  0  0  0  0  0  0  0  0  0 
    2.4924    3.2306    0.4195 O   0  0  0  0  0  0  0  0  0  0  0  0 
    0.4787    2.6447   -0.1524 O   0  0  0  0  0  0  0  0  0  0  0  0 
   -0.7875   -0.9367    0.1290 H   0  0  0  0  0  0  0  0  0  0  0  0 
   -0.7252    0.5320   -0.8711 H   0  0  0  0  0  0  0  0  0  0  0  0 
   -0.6642    0.6735    0.8713 H   0  0  0  0  0  0  0  0  0  0  0  0 
    5.9140   -2.6329    2.2720 H   0  0  0  0  0  0  0  0  0  0  0  0 
    4.6336   -1.4016    2.2640 H   0  0  0  0  0  0  0  0  0  0  0  0 
    6.2640   -0.9893    2.8346 H   0  0  0  0  0  0  0  0  0  0  0  0 
    1.0613   -2.2185   -0.1190 H   0  0  0  0  0  0  0  0  0  0  0  0 
    3.4909   -2.5990   -0.2263 H   0  0  0  0  0  0  0  0  0  0  0  0 
    4.1351    1.6413   -0.0042 H   0  0  0  0  0  0  0  0  0  0  0  0 
    7.8891   -1.6677    1.1958 H   0  0  0  0  0  0  0  0  0  0  0  0 
  1 15  1  0  0  0  0 
  1 17  1  0  0  0  0 
  2 19  1  0  0  0  0 
  2 18  1  0  0  0  0 
  2 20  1  0  0  0  0 
  3  6  2  0  0  0  0 
  4  8  2  0  0  0  0 
  4  3  1  0  0  0  0 
  5 23  1  0  0  0  0 
  5  9  2  0  0  0  0 
  6  9  1  0  0  0  0 
  6  1  1  0  0  0  0 
  7  2  1  0  0  0  0 
  8  5  1  0  0  0  0 
  9 11  1  0  0  0  0 
 10  8  1  0  0  0  0 
 10  7  2  0  0  0  0 
 11 13  2  0  0  0  0 
 12  7  1  0  0  0  0 
 12 24  1  0  0  0  0 
 14 11  2  0  0  0  0 
 16  1  1  0  0  0  0 
 21  3  1  0  0  0  0 
 22  4  1  0  0  0  0 
M  END 
>  <HBA> 
2 
 
>  <HBD> 
1 
 
>  <TPSA> 
74.92 
 
>  <cid> 
73133 
 
>  <dipole> 
6.87 
 
>  <excitation_energy_1> 
3.362 
 
>  <excitation_energy_2> 
3.701 
 
>  <excitation_energy_3> 
4.269 
 
>  <excitation_energy_4> 
4.609 
 
>  <homo_energy> 
-6.264 
 
>  <homo_lumo_gap> 
4.112 
 
>  <logP> 
2.458 
 
>  <lumo_energy> 
-2.152 
 
>  <melting_point> 
103.23 
 
>  <molecular_refractivity> 
54.54 
 
>  <oscillator_strength_1> 
0.0307 
 
>  <oscillator_strength_2> 
0.0058 
 
>  <oscillator_strength_3> 
0.0028 
 
>  <oscillator_strength_4> 
0.0963 
 
>  <open_babel_can_smiles> 
C/C(=N\c1ccc(c(c1)N(=O)=O)C)/O 
 
>  <mulliken_charges> 
24 
1   -0.501979 
2   -0.555676 
3   -0.206767 
4   -0.129437 
5   -0.183271 
6   0.164521 
7   0.486306 
8   0.229794 
9   0.209949 
10   -0.459392 
11   0.366351 
12   -0.563832 
13   -0.392589 
14   -0.398929 
15   0.144354 
16   0.18625 
17   0.175101 
18   0.17907 
19   0.196605 
20   0.181456 
21   0.13772 
22   0.138691 
23   0.183231 
24   0.412469 
 
>  <lowdin_charges> 
24 
1   -0.438902 
2   -0.481375 
3   -0.158985 
4   -0.163794 
5   -0.159274 
6   0.00763 
7   0.154287 
8   0.048796 
9   -0.001096 
10   -0.169732 
11   0.306856 
12   -0.354313 
13   -0.252069 
14   -0.243075 
15   0.15096 
16   0.17576 
17   0.170779 
18   0.170898 
19   0.182036 
20   0.175036 
21   0.163454 
22   0.16429 
23   0.191629 
24   0.360205 
 
$$$$ 
 
