PCCDB-ID:  69470 
public computational chemistry database (PCCDB) project, http://pccdb.org 
 
 19 19  0  0  0  0  0  0  0  0999 V2000 
    0.4434    1.3893   -0.3185 C   0  0  0  0  0  0  0  0  0  0  0  0 
   -1.0190    1.1511    0.0863 C   0  0  0  0  0  0  0  0  0  0  0  0 
    1.3659    0.3720    0.3655 C   0  0  0  0  0  0  0  0  0  0  0  0 
   -1.3875   -0.3090    0.0795 C   0  0  0  0  0  0  0  0  0  0  0  0 
    1.0010   -1.0620   -0.0416 C   0  0  0  0  0  0  0  0  0  0  0  0 
   -0.4918   -1.3084   -0.0065 C   0  0  0  0  0  0  0  0  0  0  0  0 
   -0.9112   -2.7480    0.0296 C   0  0  0  0  0  0  0  0  0  0  0  0 
   -0.1966   -3.6350    0.4364 O   0  0  0  0  0  0  0  0  0  0  0  0 
   -2.1645   -3.0405   -0.4191 O   0  0  0  0  0  0  0  0  0  0  0  0 
    0.7381    2.4153   -0.0693 H   0  0  0  0  0  0  0  0  0  0  0  0 
    0.5392    1.2881   -1.4084 H   0  0  0  0  0  0  0  0  0  0  0  0 
   -1.7001    1.7011   -0.5781 H   0  0  0  0  0  0  0  0  0  0  0  0 
   -1.2068    1.5551    1.0937 H   0  0  0  0  0  0  0  0  0  0  0  0 
    1.2722    0.4753    1.4555 H   0  0  0  0  0  0  0  0  0  0  0  0 
    2.4146    0.5739    0.1186 H   0  0  0  0  0  0  0  0  0  0  0  0 
   -2.4483   -0.5343    0.1983 H   0  0  0  0  0  0  0  0  0  0  0  0 
    1.4822   -1.7969    0.6123 H   0  0  0  0  0  0  0  0  0  0  0  0 
    1.3768   -1.2773   -1.0534 H   0  0  0  0  0  0  0  0  0  0  0  0 
   -2.5373   -2.2569   -0.8551 H   0  0  0  0  0  0  0  0  0  0  0  0 
  1 10  1  0  0  0  0 
  1  2  1  0  0  0  0 
  1  3  1  0  0  0  0 
  2 13  1  0  0  0  0 
  3 14  1  0  0  0  0 
  4  2  1  0  0  0  0 
  4 16  1  0  0  0  0 
  5  6  1  0  0  0  0 
  5  3  1  0  0  0  0 
  5 17  1  0  0  0  0 
  6  7  1  0  0  0  0 
  6  4  2  0  0  0  0 
  7  8  2  0  0  0  0 
  9  7  1  0  0  0  0 
 11  1  1  0  0  0  0 
 12  2  1  0  0  0  0 
 15  3  1  0  0  0  0 
 18  5  1  0  0  0  0 
 19  9  1  0  0  0  0 
M  END 
>  <HBA> 
2 
 
>  <HBD> 
1 
 
>  <TPSA> 
37.3 
 
>  <cid> 
69470 
 
>  <dipole> 
4.82 
 
>  <excitation_energy_1> 
4.791 
 
>  <excitation_energy_2> 
5.741 
 
>  <excitation_energy_3> 
6.239 
 
>  <excitation_energy_4> 
6.524 
 
>  <homo_energy> 
-7.159 
 
>  <homo_lumo_gap> 
6.136 
 
>  <logP> 
1.571 
 
>  <lumo_energy> 
-1.023 
 
>  <melting_point> 
85.72 
 
>  <molecular_refractivity> 
34.95 
 
>  <oscillator_strength_1> 
0.0031 
 
>  <oscillator_strength_2> 
0.2204 
 
>  <oscillator_strength_3> 
0.0246 
 
>  <oscillator_strength_4> 
0.0195 
 
>  <open_babel_can_smiles> 
OC(=O)C1=CCCCC1 
 
>  <mulliken_charges> 
19 
1   -0.266889 
2   -0.301296 
3   -0.27219 
4   -0.182858 
5   -0.325152 
6   0.074188 
7   0.549388 
8   -0.44835 
9   -0.572629 
10   0.139774 
11   0.140189 
12   0.150852 
13   0.159761 
14   0.14258 
15   0.140442 
16   0.129763 
17   0.183848 
18   0.153709 
19   0.40487 
 
>  <lowdin_charges> 
19 
1   -0.27297 
2   -0.277236 
3   -0.272141 
4   -0.161433 
5   -0.275075 
6   -0.061312 
7   0.19454 
8   -0.242809 
9   -0.362044 
10   0.147912 
11   0.141739 
12   0.157484 
13   0.157107 
14   0.142783 
15   0.148203 
16   0.150613 
17   0.175205 
18   0.154013 
19   0.35542 
 
$$$$ 
 
