PCCDB-ID:  68069 
public computational chemistry database (PCCDB) project, http://pccdb.org 
 
 28 30  0  0  0  0  0  0  0  0999 V2000 
    0.6294   -2.7727    0.1287 C   0  0  0  0  0  0  0  0  0  0  0  0 
    2.0855    1.8105   -0.5251 C   0  0  0  0  0  0  0  0  0  0  0  0 
   -2.6880    0.7844    0.3624 C   0  0  0  0  0  0  0  0  0  0  0  0 
    1.6286   -1.8076    0.2515 C   0  0  0  0  0  0  0  0  0  0  0  0 
   -0.6869   -2.3514   -0.0551 C   0  0  0  0  0  0  0  0  0  0  0  0 
    2.4158    0.6027    0.3576 C   0  0  0  0  0  0  0  0  0  0  0  0 
   -2.4464   -0.5493   -0.3514 C   0  0  0  0  0  0  0  0  0  0  0  0 
    0.7153    2.3693   -0.1452 C   0  0  0  0  0  0  0  0  0  0  0  0 
   -1.6783    1.8202   -0.1268 C   0  0  0  0  0  0  0  0  0  0  0  0 
    1.3367   -0.4449    0.2100 C   0  0  0  0  0  0  0  0  0  0  0  0 
   -1.0183   -0.9991   -0.1374 C   0  0  0  0  0  0  0  0  0  0  0  0 
   -0.0002   -0.0234    0.0016 C   0  0  0  0  0  0  0  0  0  0  0  0 
   -0.3076    1.3347   -0.0534 N   0  0  0  0  0  0  0  0  0  0  0  0 
    0.8714   -3.8303    0.1773 H   0  0  0  0  0  0  0  0  0  0  0  0 
    2.0784    1.5004   -1.5775 H   0  0  0  0  0  0  0  0  0  0  0  0 
    2.8366    2.6020   -0.4208 H   0  0  0  0  0  0  0  0  0  0  0  0 
   -2.5769    0.6465    1.4453 H   0  0  0  0  0  0  0  0  0  0  0  0 
   -3.7026    1.1571    0.1805 H   0  0  0  0  0  0  0  0  0  0  0  0 
    2.6640   -2.1121    0.3932 H   0  0  0  0  0  0  0  0  0  0  0  0 
   -1.4845   -3.0865   -0.1473 H   0  0  0  0  0  0  0  0  0  0  0  0 
    2.4917    0.9359    1.4047 H   0  0  0  0  0  0  0  0  0  0  0  0 
    3.3928    0.1807    0.0947 H   0  0  0  0  0  0  0  0  0  0  0  0 
   -2.6551   -0.4225   -1.4253 H   0  0  0  0  0  0  0  0  0  0  0  0 
   -3.1421   -1.3163    0.0091 H   0  0  0  0  0  0  0  0  0  0  0  0 
    0.3962    3.1080   -0.8959 H   0  0  0  0  0  0  0  0  0  0  0  0 
    0.7880    2.9121    0.8136 H   0  0  0  0  0  0  0  0  0  0  0  0 
   -1.7533    2.7318    0.4840 H   0  0  0  0  0  0  0  0  0  0  0  0 
   -1.9239    2.1181   -1.1623 H   0  0  0  0  0  0  0  0  0  0  0  0 
  1 14  1  0  0  0  0 
  1  4  2  0  0  0  0 
  2 16  1  0  0  0  0 
  2  8  1  0  0  0  0 
  2  6  1  0  0  0  0 
  3 17  1  0  0  0  0 
  4 19  1  0  0  0  0 
  5  1  1  0  0  0  0 
  6 21  1  0  0  0  0 
  7 11  1  0  0  0  0 
  7 24  1  0  0  0  0 
  7  3  1  0  0  0  0 
  8 13  1  0  0  0  0 
  8 26  1  0  0  0  0 
  9 13  1  0  0  0  0 
  9  3  1  0  0  0  0 
  9 27  1  0  0  0  0 
 10  4  1  0  0  0  0 
 10  6  1  0  0  0  0 
 11  5  2  0  0  0  0 
 11 12  1  0  0  0  0 
 12 10  2  0  0  0  0 
 13 12  1  0  0  0  0 
 15  2  1  0  0  0  0 
 18  3  1  0  0  0  0 
 20  5  1  0  0  0  0 
 22  6  1  0  0  0  0 
 23  7  1  0  0  0  0 
 25  8  1  0  0  0  0 
 28  9  1  0  0  0  0 
M  END 
>  <HBA> 
1 
 
>  <HBD> 
0 
 
>  <TPSA> 
3.24 
 
>  <cid> 
68069 
 
>  <dipole> 
1.96 
 
>  <excitation_energy_1> 
4.067 
 
>  <excitation_energy_2> 
4.276 
 
>  <excitation_energy_3> 
4.455 
 
>  <excitation_energy_4> 
4.688 
 
>  <homo_energy> 
-4.634 
 
>  <homo_lumo_gap> 
5.089 
 
>  <logP> 
2.45 
 
>  <lumo_energy> 
0.454 
 
>  <melting_point> 
66.17 
 
>  <molecular_refractivity> 
58.9 
 
>  <oscillator_strength_1> 
0.0177 
 
>  <oscillator_strength_2> 
0.0341 
 
>  <oscillator_strength_3> 
0.0231 
 
>  <oscillator_strength_4> 
0.0146 
 
>  <open_babel_can_smiles> 
C1CN2CCCc3c2c(C1)ccc3 
 
>  <mulliken_charges> 
28 
1   -0.134139 
2   -0.28798 
3   -0.287086 
4   -0.212453 
5   -0.211802 
6   -0.339581 
7   -0.339262 
8   -0.115293 
9   -0.116531 
10   0.130095 
11   0.129326 
12   0.290083 
13   -0.532793 
14   0.112852 
15   0.150186 
16   0.137064 
17   0.150674 
18   0.13668 
19   0.110838 
20   0.110742 
21   0.146684 
22   0.142545 
23   0.146269 
24   0.142966 
25   0.137555 
26   0.132893 
27   0.138702 
28   0.130764 
 
>  <lowdin_charges> 
28 
1   -0.191742 
2   -0.278853 
3   -0.276834 
4   -0.162299 
5   -0.16467 
6   -0.270569 
7   -0.272116 
8   -0.190211 
9   -0.187787 
10   -0.050739 
11   -0.05114 
12   0.045927 
13   -0.135043 
14   0.150174 
15   0.147701 
16   0.150358 
17   0.147501 
18   0.148821 
19   0.148465 
20   0.150515 
21   0.146871 
22   0.15085 
23   0.146064 
24   0.152352 
25   0.142845 
26   0.131647 
27   0.143082 
28   0.12883 
 
$$$$ 
 
