PCCDB-ID:  20254 
public computational chemistry database (PCCDB) project, http://pccdb.org 
 
 27 27  0  0  1  0  0  0  0  0999 V2000 
    1.9806   -2.8383   -1.7074 C   0  0  0  0  0  0  0  0  0  0  0  0 
    2.0596   -1.5262   -1.4750 C   0  0  0  0  0  0  0  0  0  0  0  0 
    4.7258   -3.6249    3.6831 C   0  0  0  0  0  0  0  0  0  0  0  0 
    4.9236   -2.2511    3.8388 C   0  0  0  0  0  0  0  0  0  0  0  0 
    4.5386   -4.1506    2.4043 C   0  0  0  0  0  0  0  0  0  0  0  0 
    2.1712   -0.8862   -0.1166 C   0  0  0  0  0  0  0  0  0  0  0  0 
    4.9315   -1.4140    2.7232 C   0  0  0  0  0  0  0  0  0  0  0  0 
    4.5456   -3.3076    1.2911 C   0  0  0  0  0  0  0  0  0  0  0  0 
    4.7333   -1.0030    0.2312 C   0  0  0  0  0  0  0  0  0  0  0  0 
    4.7389   -1.9266    1.4312 C   0  0  0  0  0  0  0  0  0  0  0  0 
    3.4793   -0.0915    0.1148 C   0  0  1  0  0  0  0  0  0  0  0  0 
    3.6078    0.9480   -0.9171 N   0  0  0  0  0  0  0  0  0  0  0  0 
    1.8845   -3.2382   -2.7137 H   0  0  0  0  0  0  0  0  0  0  0  0 
    1.9924   -3.5635   -0.8960 H   0  0  0  0  0  0  0  0  0  0  0  0 
    2.0216   -0.8399   -2.3222 H   0  0  0  0  0  0  0  0  0  0  0  0 
    4.7225   -4.2792    4.5508 H   0  0  0  0  0  0  0  0  0  0  0  0 
    5.0778   -1.8315    4.8297 H   0  0  0  0  0  0  0  0  0  0  0  0 
    4.3893   -5.2190    2.2707 H   0  0  0  0  0  0  0  0  0  0  0  0 
    2.0720   -1.6486    0.6642 H   0  0  0  0  0  0  0  0  0  0  0  0 
    1.3434   -0.1752    0.0052 H   0  0  0  0  0  0  0  0  0  0  0  0 
    5.0958   -0.3464    2.8557 H   0  0  0  0  0  0  0  0  0  0  0  0 
    4.4029   -3.7248    0.2971 H   0  0  0  0  0  0  0  0  0  0  0  0 
    4.8272   -1.5885   -0.6922 H   0  0  0  0  0  0  0  0  0  0  0  0 
    5.6113   -0.3434    0.2788 H   0  0  0  0  0  0  0  0  0  0  0  0 
    3.3615    0.4357    1.0707 H   0  0  0  0  0  0  0  0  0  0  0  0 
    3.8637    0.5157   -1.8050 H   0  0  0  0  0  0  0  0  0  0  0  0 
    4.3825    1.5674   -0.6811 H   0  0  0  0  0  0  0  0  0  0  0  0 
  1  2  2  0  0  0  0 
  1 14  1  0  0  0  0 
  2  6  1  0  0  0  0 
  3  4  1  0  0  0  0 
  3 16  1  0  0  0  0 
  4 17  1  0  0  0  0 
  5  3  2  0  0  0  0 
  6 20  1  0  0  0  0 
  6 11  1  0  0  0  0 
  6 19  1  0  0  0  0 
  7 21  1  0  0  0  0 
  7  4  2  0  0  0  0 
  8 10  2  0  0  0  0 
  8  5  1  0  0  0  0 
  9 24  1  0  0  0  0 
  9 10  1  0  0  0  0 
 10  7  1  0  0  0  0 
 11  9  1  0  0  0  0 
 11 25  1  1  0  0  0 
 12 27  1  0  0  0  0 
 12 11  1  0  0  0  0 
 13  1  1  0  0  0  0 
 15  2  1  0  0  0  0 
 18  5  1  0  0  0  0 
 22  8  1  0  0  0  0 
 23  9  1  0  0  0  0 
 26 12  1  0  0  0  0 
M  END 
>  <HBA> 
1 
 
>  <HBD> 
1 
 
>  <TPSA> 
26.02 
 
>  <cid> 
20254 
 
>  <dipole> 
1.16 
 
>  <excitation_energy_1> 
5.195 
 
>  <excitation_energy_2> 
5.382 
 
>  <excitation_energy_3> 
5.534 
 
>  <excitation_energy_4> 
5.759 
 
>  <homo_energy> 
-6.123 
 
>  <homo_lumo_gap> 
6.144 
 
>  <logP> 
2.833 
 
>  <lumo_energy> 
0.022 
 
>  <melting_point> 
38.14 
 
>  <molecular_refractivity> 
52.87 
 
>  <oscillator_strength_1> 
0.0071 
 
>  <oscillator_strength_2> 
0.0343 
 
>  <oscillator_strength_3> 
0.0727 
 
>  <oscillator_strength_4> 
0.012 
 
>  <open_babel_can_smiles> 
C=CC[C@@H](Cc1ccccc1)N 
 
>  <mulliken_charges> 
27 
1   -0.345544 
2   -0.061608 
3   -0.131919 
4   -0.127727 
5   -0.127569 
6   -0.291138 
7   -0.182412 
8   -0.191122 
9   -0.357613 
10   0.173687 
11   0.012181 
12   -0.711099 
13   0.137046 
14   0.139204 
15   0.132097 
16   0.12754 
17   0.127852 
18   0.127696 
19   0.148811 
20   0.153606 
21   0.120648 
22   0.130121 
23   0.142262 
24   0.132744 
25   0.133435 
26   0.294264 
27   0.294556 
 
>  <lowdin_charges> 
27 
1   -0.34661 
2   -0.150307 
3   -0.163029 
4   -0.154587 
5   -0.153781 
6   -0.280445 
7   -0.166506 
8   -0.17016 
9   -0.295668 
10   -0.00302 
11   -0.065281 
12   -0.549551 
13   0.156104 
14   0.155551 
15   0.152103 
16   0.157496 
17   0.156248 
18   0.154864 
19   0.155703 
20   0.160199 
21   0.150779 
22   0.156539 
23   0.150172 
24   0.146539 
25   0.141165 
26   0.251563 
27   0.253919 
 
$$$$ 
 
