PCCDB-ID:  51467 
public computational chemistry database (PCCDB) project, http://pccdb.org 
 
 28 29  0  0  0  0  0  0  0  0999 V2000 
    1.5211   -0.4523    1.7918 C   0  0  0  0  0  0  0  0  0  0  0  0 
    9.2413   -0.8827   -3.4376 C   0  0  0  0  0  0  0  0  0  0  0  0 
    5.9121   -1.3109   -2.0050 C   0  0  0  0  0  0  0  0  0  0  0  0 
    5.1706   -0.9762   -0.8777 C   0  0  0  0  0  0  0  0  0  0  0  0 
    7.8270   -0.1209   -1.1142 C   0  0  0  0  0  0  0  0  0  0  0  0 
    6.8116    1.7386    1.7863 C   0  0  0  0  0  0  0  0  0  0  0  0 
    2.7631    0.2807    1.3568 C   0  0  0  0  0  0  0  0  0  0  0  0 
    7.2432   -0.8889   -2.1286 C   0  0  0  0  0  0  0  0  0  0  0  0 
    5.7489   -0.2197    0.1430 C   0  0  0  0  0  0  0  0  0  0  0  0 
    7.0795    0.2004    0.0167 C   0  0  0  0  0  0  0  0  0  0  0  0 
    5.5228    1.0574    2.2442 C   0  0  0  0  0  0  0  0  0  0  0  0 
    5.0872    0.1137    1.3451 N   0  0  0  0  0  0  0  0  0  0  0  0 
    2.8325    1.3583    0.8385 O   0  0  0  0  0  0  0  0  0  0  0  0 
    4.9302    1.3619    3.2616 O   0  0  0  0  0  0  0  0  0  0  0  0 
    7.8847   -1.2642   -3.2725 O   0  0  0  0  0  0  0  0  0  0  0  0 
    7.6847    0.8986    1.0300 O   0  0  0  0  0  0  0  0  0  0  0  0 
    3.8802   -0.5207    1.6237 O   0  0  0  0  0  0  0  0  0  0  0  0 
    1.0124   -0.8483    0.9058 H   0  0  0  0  0  0  0  0  0  0  0  0 
    0.8482    0.2603    2.2745 H   0  0  0  0  0  0  0  0  0  0  0  0 
    1.7518   -1.2746    2.4705 H   0  0  0  0  0  0  0  0  0  0  0  0 
    9.5544   -1.2990   -4.3967 H   0  0  0  0  0  0  0  0  0  0  0  0 
    9.8755   -1.2918   -2.6400 H   0  0  0  0  0  0  0  0  0  0  0  0 
    9.3530    0.2094   -3.4629 H   0  0  0  0  0  0  0  0  0  0  0  0 
    5.4760   -1.9033   -2.8018 H   0  0  0  0  0  0  0  0  0  0  0  0 
    4.1481   -1.3203   -0.7782 H   0  0  0  0  0  0  0  0  0  0  0  0 
    8.8479    0.2360   -1.1648 H   0  0  0  0  0  0  0  0  0  0  0  0 
    7.3634    2.0506    2.6730 H   0  0  0  0  0  0  0  0  0  0  0  0 
    6.5390    2.6312    1.2022 H   0  0  0  0  0  0  0  0  0  0  0  0 
  1 19  1  0  0  0  0 
  1 20  1  0  0  0  0 
  2 15  1  0  0  0  0 
  2 22  1  0  0  0  0 
  3  4  1  0  0  0  0 
  4 25  1  0  0  0  0 
  4  9  2  0  0  0  0 
  5 10  2  0  0  0  0 
  6 11  1  0  0  0  0 
  6 27  1  0  0  0  0 
  7 17  1  0  0  0  0 
  7  1  1  0  0  0  0 
  8  3  2  0  0  0  0 
  8  5  1  0  0  0  0 
  9 12  1  0  0  0  0 
 10  9  1  0  0  0  0 
 10 16  1  0  0  0  0 
 11 14  2  0  0  0  0 
 12 17  1  0  0  0  0 
 12 11  1  0  0  0  0 
 13  7  2  0  0  0  0 
 15  8  1  0  0  0  0 
 16  6  1  0  0  0  0 
 18  1  1  0  0  0  0 
 21  2  1  0  0  0  0 
 23  2  1  0  0  0  0 
 24  3  1  0  0  0  0 
 26  5  1  0  0  0  0 
 28  6  1  0  0  0  0 
M  END 
>  <HBA> 
6 
 
>  <HBD> 
0 
 
>  <TPSA> 
65.07 
 
>  <cid> 
51467 
 
>  <dipole> 
2.69 
 
>  <excitation_energy_1> 
4.459 
 
>  <excitation_energy_2> 
4.57 
 
>  <excitation_energy_3> 
4.624 
 
>  <excitation_energy_4> 
5.139 
 
>  <homo_energy> 
-5.559 
 
>  <homo_lumo_gap> 
5.162 
 
>  <logP> 
0.964 
 
>  <lumo_energy> 
-0.397 
 
>  <melting_point> 
82.97 
 
>  <molecular_refractivity> 
60.75 
 
>  <oscillator_strength_1> 
0.0468 
 
>  <oscillator_strength_2> 
0.0351 
 
>  <oscillator_strength_3> 
0.1517 
 
>  <oscillator_strength_4> 
0.0006 
 
>  <open_babel_can_smiles> 
COc1ccc2c(c1)OCC(=O)N2OC(=O)C 
 
>  <mulliken_charges> 
28 
1   -0.541362 
2   -0.215988 
3   -0.183281 
4   -0.172141 
5   -0.267033 
6   -0.143488 
7   0.636401 
8   0.385895 
9   0.355383 
10   0.313702 
11   0.586396 
12   -0.317399 
13   -0.423349 
14   -0.486411 
15   -0.509941 
16   -0.523186 
17   -0.380345 
18   0.194298 
19   0.203554 
20   0.194194 
21   0.172796 
22   0.155017 
23   0.154037 
24   0.143063 
25   0.143514 
26   0.148195 
27   0.194986 
28   0.182493 
 
>  <lowdin_charges> 
28 
1   -0.463498 
2   -0.275467 
3   -0.187975 
4   -0.159519 
5   -0.228072 
6   -0.147727 
7   0.212987 
8   0.103326 
9   -0.001589 
10   0.089903 
11   0.143858 
12   0.044603 
13   -0.215839 
14   -0.269439 
15   -0.196509 
16   -0.200793 
17   -0.127874 
18   0.18644 
19   0.191168 
20   0.18204 
21   0.164496 
22   0.148055 
23   0.144089 
24   0.172016 
25   0.168039 
26   0.175036 
27   0.182687 
28   0.165558 
 
$$$$ 
 
