PCCDB-ID:  21768 
public computational chemistry database (PCCDB) project, http://pccdb.org 
 
 26 25  0  0  0  0  0  0  0  0999 V2000 
    0.5682   -1.4987   -0.7196 C   0  0  0  0  0  0  0  0  0  0  0  0 
    2.0344    0.3131   -1.7232 C   0  0  0  0  0  0  0  0  0  0  0  0 
    7.2818   -0.7494   -1.9056 C   0  0  0  0  0  0  0  0  0  0  0  0 
    4.4749   -1.1948   -0.4269 C   0  0  0  0  0  0  0  0  0  0  0  0 
    3.0200   -1.5746   -0.3553 C   0  0  0  0  0  0  0  0  0  0  0  0 
    5.3063   -2.2477   -1.2088 C   0  0  0  0  0  0  0  0  0  0  0  0 
    7.6246   -2.8362   -0.5610 C   0  0  0  0  0  0  0  0  0  0  0  0 
    9.0401   -2.6653   -0.4901 C   0  0  0  0  0  0  0  0  0  0  0  0 
    1.9644   -0.9514   -0.9021 C   0  0  0  0  0  0  0  0  0  0  0  0 
    6.7929   -1.9827   -1.1956 C   0  0  0  0  0  0  0  0  0  0  0  0 
   10.1965   -2.5420   -0.4245 N   0  0  0  0  0  0  0  0  0  0  0  0 
   -0.0831   -0.7630   -0.2271 H   0  0  0  0  0  0  0  0  0  0  0  0 
    0.5617   -2.4131   -0.1184 H   0  0  0  0  0  0  0  0  0  0  0  0 
    0.1022   -1.7244   -1.6891 H   0  0  0  0  0  0  0  0  0  0  0  0 
    1.4478    1.1139   -1.2519 H   0  0  0  0  0  0  0  0  0  0  0  0 
    1.5931    0.1516   -2.7165 H   0  0  0  0  0  0  0  0  0  0  0  0 
    3.0515    0.6848   -1.8666 H   0  0  0  0  0  0  0  0  0  0  0  0 
    6.9203   -0.7380   -2.9422 H   0  0  0  0  0  0  0  0  0  0  0  0 
    8.3723   -0.6833   -1.9155 H   0  0  0  0  0  0  0  0  0  0  0  0 
    6.8906    0.1572   -1.4266 H   0  0  0  0  0  0  0  0  0  0  0  0 
    4.8832   -1.1241    0.5917 H   0  0  0  0  0  0  0  0  0  0  0  0 
    4.6061   -0.2089   -0.8828 H   0  0  0  0  0  0  0  0  0  0  0  0 
    2.8230   -2.4874    0.2105 H   0  0  0  0  0  0  0  0  0  0  0  0 
    4.9508   -2.2623   -2.2486 H   0  0  0  0  0  0  0  0  0  0  0  0 
    5.1040   -3.2418   -0.7924 H   0  0  0  0  0  0  0  0  0  0  0  0 
    7.2314   -3.7192   -0.0626 H   0  0  0  0  0  0  0  0  0  0  0  0 
  1 12  1  0  0  0  0 
  1 13  1  0  0  0  0 
  2 15  1  0  0  0  0 
  2  9  1  0  0  0  0 
  3 20  1  0  0  0  0 
  3 10  1  0  0  0  0 
  4  5  1  0  0  0  0 
  4 21  1  0  0  0  0 
  5 23  1  0  0  0  0 
  6 10  1  0  0  0  0 
  6 25  1  0  0  0  0 
  6  4  1  0  0  0  0 
  7  8  1  0  0  0  0 
  7 26  1  0  0  0  0 
  8 11  3  0  0  0  0 
  9  1  1  0  0  0  0 
  9  5  2  0  0  0  0 
 10  7  2  0  0  0  0 
 14  1  1  0  0  0  0 
 16  2  1  0  0  0  0 
 17  2  1  0  0  0  0 
 18  3  1  0  0  0  0 
 19  3  1  0  0  0  0 
 22  4  1  0  0  0  0 
 24  6  1  0  0  0  0 
M  END 
>  <HBA> 
1 
 
>  <HBD> 
0 
 
>  <TPSA> 
23.79 
 
>  <cid> 
21768 
 
>  <dipole> 
5.23 
 
>  <excitation_energy_1> 
4.807 
 
>  <excitation_energy_2> 
5.733 
 
>  <excitation_energy_3> 
5.867 
 
>  <excitation_energy_4> 
6.137 
 
>  <homo_energy> 
-6.525 
 
>  <homo_lumo_gap> 
5.489 
 
>  <logP> 
3.203 
 
>  <lumo_energy> 
-1.037 
 
>  <melting_point> 
31.1 
 
>  <molecular_refractivity> 
48.98 
 
>  <oscillator_strength_1> 
0.0552 
 
>  <oscillator_strength_2> 
0.0162 
 
>  <oscillator_strength_3> 
0.5674 
 
>  <oscillator_strength_4> 
0.0379 
 
>  <open_babel_can_smiles> 
N#C/C=C(/CCC=C(C)C)\C 
 
>  <mulliken_charges> 
26 
1   -0.506896 
2   -0.514462 
3   -0.531016 
4   -0.30784 
5   -0.16437 
6   -0.3318 
7   -0.22137 
8   0.317931 
9   0.190692 
10   0.22083 
11   -0.49148 
12   0.152964 
13   0.15334 
14   0.151882 
15   0.15726 
16   0.155143 
17   0.152302 
18   0.166026 
19   0.188214 
20   0.173821 
21   0.151669 
22   0.145978 
23   0.114579 
24   0.15613 
25   0.149269 
26   0.171206 
 
>  <lowdin_charges> 
26 
1   -0.44038 
2   -0.444938 
3   -0.444218 
4   -0.270671 
5   -0.194999 
6   -0.269189 
7   -0.212258 
8   -0.017073 
9   -0.004058 
10   0.054714 
11   -0.132956 
12   0.155996 
13   0.155619 
14   0.154077 
15   0.159144 
16   0.156613 
17   0.153426 
18   0.164634 
19   0.174265 
20   0.168555 
21   0.152151 
22   0.147696 
23   0.146262 
24   0.155825 
25   0.151365 
26   0.1804 
 
$$$$ 
 
