PCCDB-ID:  40863 
public computational chemistry database (PCCDB) project, http://pccdb.org 
 
 37 39  0  0  1  0  0  0  0  0999 V2000 
    0.8021    0.6382    0.6619 C   0  0  0  0  0  0  0  0  0  0  0  0 
    2.8050    0.5922   -0.8437 C   0  0  0  0  0  0  0  0  0  0  0  0 
    2.5857    3.3096    4.7429 C   0  0  0  0  0  0  0  0  0  0  0  0 
    3.9337   -3.2361    2.1902 C   0  0  0  0  0  0  0  0  0  0  0  0 
    2.7593   -3.3279    1.4381 C   0  0  0  0  0  0  0  0  0  0  0  0 
    4.5266   -1.9914    2.4218 C   0  0  0  0  0  0  0  0  0  0  0  0 
    2.1684   -2.1775    0.9065 C   0  0  0  0  0  0  0  0  0  0  0  0 
    4.8369    1.0089    3.4445 C   0  0  0  0  0  0  0  0  0  0  0  0 
    4.6284    2.5153    3.6378 C   0  0  0  0  0  0  0  0  0  0  0  0 
    2.3878    1.9614    2.7543 C   0  0  0  0  0  0  0  0  0  0  0  0 
    3.9339   -0.8442    1.8947 C   0  0  0  0  0  0  0  0  0  0  0  0 
    4.3880    0.5953    2.0260 C   0  0  1  0  0  0  0  0  0  0  0  0 
    2.7591   -0.9354    1.1387 C   0  0  0  0  0  0  0  0  0  0  0  0 
    3.1442    1.4147    1.5368 C   0  0  1  0  0  0  0  0  0  0  0  0 
    2.3261    0.4332    0.6206 C   0  0  0  0  0  0  0  0  0  0  0  0 
    3.2157    2.9203    3.4927 N   0  0  0  0  0  0  0  0  0  0  0  0 
    0.3042   -0.0527   -0.0286 H   0  0  0  0  0  0  0  0  0  0  0  0 
    0.5327    1.6550    0.3524 H   0  0  0  0  0  0  0  0  0  0  0  0 
    0.3896    0.4617    1.6602 H   0  0  0  0  0  0  0  0  0  0  0  0 
    2.3521   -0.1709   -1.4872 H   0  0  0  0  0  0  0  0  0  0  0  0 
    3.8932    0.4892   -0.9225 H   0  0  0  0  0  0  0  0  0  0  0  0 
    2.5273    1.5781   -1.2371 H   0  0  0  0  0  0  0  0  0  0  0  0 
    1.5776    3.6904    4.5395 H   0  0  0  0  0  0  0  0  0  0  0  0 
    3.1561    4.1158    5.2165 H   0  0  0  0  0  0  0  0  0  0  0  0 
    2.4861    2.4816    5.4744 H   0  0  0  0  0  0  0  0  0  0  0  0 
    4.3852   -4.1358    2.6004 H   0  0  0  0  0  0  0  0  0  0  0  0 
    2.3008   -4.2987    1.2680 H   0  0  0  0  0  0  0  0  0  0  0  0 
    5.4375   -1.9227    3.0122 H   0  0  0  0  0  0  0  0  0  0  0  0 
    1.2539   -2.2585    0.3235 H   0  0  0  0  0  0  0  0  0  0  0  0 
    4.2567    0.4594    4.1963 H   0  0  0  0  0  0  0  0  0  0  0  0 
    5.8900    0.7492    3.6077 H   0  0  0  0  0  0  0  0  0  0  0  0 
    5.2425    3.0588    2.9031 H   0  0  0  0  0  0  0  0  0  0  0  0 
    4.9854    2.8229    4.6273 H   0  0  0  0  0  0  0  0  0  0  0  0 
    2.0556    1.1168    3.3928 H   0  0  0  0  0  0  0  0  0  0  0  0 
    1.4781    2.4859    2.4395 H   0  0  0  0  0  0  0  0  0  0  0  0 
    5.2277    0.7796    1.3391 H   0  0  0  0  0  0  0  0  0  0  0  0 
    3.4655    2.2830    0.9491 H   0  0  0  0  0  0  0  0  0  0  0  0 
  1 19  1  0  0  0  0 
  2 15  1  0  0  0  0 
  3 24  1  0  0  0  0 
  3 25  1  0  0  0  0 
  4  6  1  0  0  0  0 
  4 26  1  0  0  0  0 
  5  4  2  0  0  0  0 
  6 28  1  0  0  0  0 
  7 13  2  0  0  0  0 
  7  5  1  0  0  0  0 
  8 31  1  0  0  0  0 
  8  9  1  0  0  0  0 
  8 30  1  0  0  0  0 
  9 33  1  0  0  0  0 
 10 34  1  0  0  0  0 
 10 16  1  0  0  0  0 
 11 12  1  0  0  0  0 
 11  6  2  0  0  0  0 
 12 36  1  6  0  0  0 
 12  8  1  0  0  0  0 
 13 11  1  0  0  0  0 
 14 37  1  6  0  0  0 
 14 12  1  0  0  0  0 
 14 10  1  0  0  0  0 
 15  1  1  0  0  0  0 
 15 13  1  0  0  0  0 
 15 14  1  0  0  0  0 
 16  9  1  0  0  0  0 
 16  3  1  0  0  0  0 
 17  1  1  0  0  0  0 
 18  1  1  0  0  0  0 
 20  2  1  0  0  0  0 
 21  2  1  0  0  0  0 
 22  2  1  0  0  0  0 
 23  3  1  0  0  0  0 
 27  5  1  0  0  0  0 
 29  7  1  0  0  0  0 
 32  9  1  0  0  0  0 
 35 10  1  0  0  0  0 
M  END 
>  <HBA> 
1 
 
>  <HBD> 
0 
 
>  <TPSA> 
3.24 
 
>  <cid> 
40863 
 
>  <dipole> 
0.32 
 
>  <excitation_energy_1> 
4.574 
 
>  <excitation_energy_2> 
4.857 
 
>  <excitation_energy_3> 
4.89 
 
>  <excitation_energy_4> 
5.162 
 
>  <homo_energy> 
-5.314 
 
>  <homo_lumo_gap> 
5.385 
 
>  <logP> 
2.951 
 
>  <lumo_energy> 
0.071 
 
>  <melting_point> 
62.08 
 
>  <molecular_refractivity> 
72.49 
 
>  <oscillator_strength_1> 
0.0048 
 
>  <oscillator_strength_2> 
0.0062 
 
>  <oscillator_strength_3> 
0.0035 
 
>  <oscillator_strength_4> 
0.023 
 
>  <open_babel_can_smiles> 
CN1CC[C@@H]2[C@H](C1)C(C)(C)c1c2cccc1 
 
>  <mulliken_charges> 
37 
1   -0.463726 
2   -0.44571 
3   -0.296191 
4   -0.13408 
5   -0.132107 
6   -0.196232 
7   -0.203551 
8   -0.280183 
9   -0.128999 
10   -0.118794 
11   0.120983 
12   -0.176754 
13   0.127332 
14   -0.142885 
15   0.023461 
16   -0.390239 
17   0.1413 
18   0.144076 
19   0.15257 
20   0.142839 
21   0.146972 
22   0.141048 
23   0.14528 
24   0.147156 
25   0.115487 
26   0.124322 
27   0.124161 
28   0.122602 
29   0.122299 
30   0.144416 
31   0.133215 
32   0.135071 
33   0.13275 
34   0.111283 
35   0.138932 
36   0.139978 
37   0.131916 
 
>  <lowdin_charges> 
37 
1   -0.443869 
2   -0.437467 
3   -0.356375 
4   -0.16111 
5   -0.159859 
6   -0.165777 
7   -0.166839 
8   -0.289445 
9   -0.200668 
10   -0.204125 
11   -0.015781 
12   -0.132654 
13   -0.012584 
14   -0.134282 
15   0.013833 
16   -0.197463 
17   0.150433 
18   0.14902 
19   0.152852 
20   0.150276 
21   0.148834 
22   0.14647 
23   0.147085 
24   0.148719 
25   0.118139 
26   0.155958 
27   0.155117 
28   0.154402 
29   0.154044 
30   0.147932 
31   0.146415 
32   0.136985 
33   0.1449 
34   0.116958 
35   0.145452 
36   0.148037 
37   0.146435 
 
$$$$ 
 
