PCCDB-ID:  10457 
public computational chemistry database (PCCDB) project, http://pccdb.org 
 
 26 25  0  0  0  0  0  0  0  0999 V2000 
    1.7041    0.7800   -0.0240 C   0  0  0  0  0  0  0  0  0  0  0  0 
    0.3880    1.2467    0.6513 C   0  0  0  0  0  0  0  0  0  0  0  0 
    2.8988    0.6144    0.9350 C   0  0  0  0  0  0  0  0  0  0  0  0 
   -0.7038    0.1604    0.6634 C   0  0  0  0  0  0  0  0  0  0  0  0 
    2.6581   -0.3257    2.1303 C   0  0  0  0  0  0  0  0  0  0  0  0 
   -1.8437    0.4386    1.6492 C   0  0  0  0  0  0  0  0  0  0  0  0 
    2.3620   -1.7575    1.6883 C   0  0  0  0  0  0  0  0  0  0  0  0 
   -1.4449    0.2247    3.1053 C   0  0  0  0  0  0  0  0  0  0  0  0 
    3.0717   -2.3648    0.9201 O   0  0  0  0  0  0  0  0  0  0  0  0 
    1.2518   -2.3366    2.2026 O   0  0  0  0  0  0  0  0  0  0  0  0 
   -0.5111   -0.4527    3.4817 O   0  0  0  0  0  0  0  0  0  0  0  0 
   -2.2318    0.8136    4.0326 O   0  0  0  0  0  0  0  0  0  0  0  0 
    1.9976    1.4925   -0.8042 H   0  0  0  0  0  0  0  0  0  0  0  0 
    1.5331   -0.1732   -0.5416 H   0  0  0  0  0  0  0  0  0  0  0  0 
   -0.0071    2.1352    0.1417 H   0  0  0  0  0  0  0  0  0  0  0  0 
    0.5979    1.5663    1.6808 H   0  0  0  0  0  0  0  0  0  0  0  0 
    3.1874    1.5982    1.3290 H   0  0  0  0  0  0  0  0  0  0  0  0 
    3.7545    0.2329    0.3673 H   0  0  0  0  0  0  0  0  0  0  0  0 
   -0.2682   -0.8118    0.9105 H   0  0  0  0  0  0  0  0  0  0  0  0 
   -1.1253    0.0578   -0.3439 H   0  0  0  0  0  0  0  0  0  0  0  0 
    1.8697    0.0586    2.7842 H   0  0  0  0  0  0  0  0  0  0  0  0 
    3.5746   -0.3687    2.7323 H   0  0  0  0  0  0  0  0  0  0  0  0 
   -2.6887   -0.2395    1.4580 H   0  0  0  0  0  0  0  0  0  0  0  0 
   -2.2332    1.4588    1.5223 H   0  0  0  0  0  0  0  0  0  0  0  0 
    0.7379   -1.6995    2.7422 H   0  0  0  0  0  0  0  0  0  0  0  0 
   -2.9322    1.3296    3.5995 H   0  0  0  0  0  0  0  0  0  0  0  0 
  1  2  1  0  0  0  0 
  1  3  1  0  0  0  0 
  2  4  1  0  0  0  0 
  2 16  1  0  0  0  0 
  3 17  1  0  0  0  0 
  3  5  1  0  0  0  0 
  4 19  1  0  0  0  0 
  4  6  1  0  0  0  0 
  5 22  1  0  0  0  0 
  5 21  1  0  0  0  0 
  6  8  1  0  0  0  0 
  7  5  1  0  0  0  0 
  7 10  1  0  0  0  0 
  8 11  2  0  0  0  0 
  8 12  1  0  0  0  0 
  9  7  2  0  0  0  0 
 10 25  1  0  0  0  0 
 13  1  1  0  0  0  0 
 14  1  1  0  0  0  0 
 15  2  1  0  0  0  0 
 18  3  1  0  0  0  0 
 20  4  1  0  0  0  0 
 23  6  1  0  0  0  0 
 24  6  1  0  0  0  0 
 26 12  1  0  0  0  0 
M  END 
>  <HBA> 
4 
 
>  <HBD> 
2 
 
>  <TPSA> 
74.6 
 
>  <cid> 
10457 
 
>  <dipole> 
7.53 
 
>  <excitation_energy_1> 
5.598 
 
>  <excitation_energy_2> 
5.657 
 
>  <excitation_energy_3> 
5.834 
 
>  <excitation_energy_4> 
5.936 
 
>  <homo_energy> 
-6.781 
 
>  <homo_lumo_gap> 
6.21 
 
>  <logP> 
1.496 
 
>  <lumo_energy> 
-0.571 
 
>  <melting_point> 
126.43 
 
>  <molecular_refractivity> 
44.11 
 
>  <oscillator_strength_1> 
0.0005 
 
>  <oscillator_strength_2> 
0.0036 
 
>  <oscillator_strength_3> 
0.001 
 
>  <oscillator_strength_4> 
0.0002 
 
>  <open_babel_can_smiles> 
OC(=O)CCCCCCC(=O)O 
 
>  <mulliken_charges> 
26 
1   -0.277545 
2   -0.267269 
3   -0.262037 
4   -0.27714 
5   -0.381509 
6   -0.401115 
7   0.587167 
8   0.617621 
9   -0.458549 
10   -0.602163 
11   -0.461515 
12   -0.548456 
13   0.1386 
14   0.160299 
15   0.134552 
16   0.139805 
17   0.132511 
18   0.164281 
19   0.170081 
20   0.147375 
21   0.156602 
22   0.17479 
23   0.190845 
24   0.15309 
25   0.451545 
26   0.418134 
 
>  <lowdin_charges> 
26 
1   -0.283597 
2   -0.283482 
3   -0.27003 
4   -0.279747 
5   -0.326717 
6   -0.320439 
7   0.192144 
8   0.211243 
9   -0.263734 
10   -0.369632 
11   -0.258532 
12   -0.335633 
13   0.149431 
14   0.152591 
15   0.143426 
16   0.140509 
17   0.141979 
18   0.16059 
19   0.160276 
20   0.151983 
21   0.155071 
22   0.17401 
23   0.179538 
24   0.154702 
25   0.358293 
26   0.365756 
 
$$$$ 
 
