PCCDB-ID:  7792 
public computational chemistry database (PCCDB) project, http://pccdb.org 
 
 33 32  0  0  1  0  0  0  0  0999 V2000 
    0.6406    0.3790    0.3021 C   0  0  0  0  0  0  0  0  0  0  0  0 
    2.5522    0.7046   -1.3141 C   0  0  0  0  0  0  0  0  0  0  0  0 
    7.2290    2.3553    3.5300 C   0  0  0  0  0  0  0  0  0  0  0  0 
    4.4397    0.8448    1.1999 C   0  0  0  0  0  0  0  0  0  0  0  0 
    2.9146    1.0232    1.2013 C   0  0  0  0  0  0  0  0  0  0  0  0 
    5.1207    1.5420    2.3865 C   0  0  0  0  0  0  0  0  0  0  0  0 
    7.2869    0.1155    2.3026 C   0  0  0  0  0  0  0  0  0  0  0  0 
    6.9605   -0.8199    3.4712 C   0  0  0  0  0  0  0  0  0  0  0  0 
    2.1582    0.2524    0.1006 C   0  0  0  0  0  0  0  0  0  0  0  0 
    6.6649    1.5300    2.3612 C   0  0  2  0  0  0  0  0  0  0  0  0 
    7.6657   -2.0558    3.3816 O   0  0  0  0  0  0  0  0  0  0  0  0 
    0.0897   -0.1997   -0.4488 H   0  0  0  0  0  0  0  0  0  0  0  0 
    0.3204    1.4256    0.2149 H   0  0  0  0  0  0  0  0  0  0  0  0 
    0.3365    0.0197    1.2925 H   0  0  0  0  0  0  0  0  0  0  0  0 
    1.9905    0.1481   -2.0736 H   0  0  0  0  0  0  0  0  0  0  0  0 
    3.6181    0.5515   -1.5142 H   0  0  0  0  0  0  0  0  0  0  0  0 
    2.3353    1.7717   -1.4569 H   0  0  0  0  0  0  0  0  0  0  0  0 
    6.8850    3.3949    3.4747 H   0  0  0  0  0  0  0  0  0  0  0  0 
    8.3255    2.3648    3.5187 H   0  0  0  0  0  0  0  0  0  0  0  0 
    6.9097    1.9581    4.5010 H   0  0  0  0  0  0  0  0  0  0  0  0 
    4.8635    1.2367    0.2650 H   0  0  0  0  0  0  0  0  0  0  0  0 
    4.6713   -0.2300    1.2137 H   0  0  0  0  0  0  0  0  0  0  0  0 
    2.6736    2.0943    1.1173 H   0  0  0  0  0  0  0  0  0  0  0  0 
    2.5254    0.7027    2.1791 H   0  0  0  0  0  0  0  0  0  0  0  0 
    4.7601    1.0977    3.3257 H   0  0  0  0  0  0  0  0  0  0  0  0 
    4.7930    2.5915    2.4121 H   0  0  0  0  0  0  0  0  0  0  0  0 
    6.9760   -0.3777    1.3696 H   0  0  0  0  0  0  0  0  0  0  0  0 
    8.3794    0.2086    2.2479 H   0  0  0  0  0  0  0  0  0  0  0  0 
    5.8748   -0.9952    3.5402 H   0  0  0  0  0  0  0  0  0  0  0  0 
    7.2767   -0.3810    4.4225 H   0  0  0  0  0  0  0  0  0  0  0  0 
    2.4217   -0.8125    0.1998 H   0  0  0  0  0  0  0  0  0  0  0  0 
    6.9724    2.0341    1.4321 H   0  0  0  0  0  0  0  0  0  0  0  0 
    7.4038   -2.4777    2.5483 H   0  0  0  0  0  0  0  0  0  0  0  0 
  1 14  1  0  0  0  0 
  2  9  1  0  0  0  0 
  3 20  1  0  0  0  0 
  4  5  1  0  0  0  0 
  4 22  1  0  0  0  0 
  4  6  1  0  0  0  0 
  5 24  1  0  0  0  0 
  6 26  1  0  0  0  0 
  6 25  1  0  0  0  0 
  7 10  1  0  0  0  0 
  7  8  1  0  0  0  0 
  8 29  1  0  0  0  0 
  8 30  1  0  0  0  0 
  9 31  1  0  0  0  0 
  9  1  1  0  0  0  0 
  9  5  1  0  0  0  0 
 10 32  1  6  0  0  0 
 10  6  1  0  0  0  0 
 10  3  1  0  0  0  0 
 11  8  1  0  0  0  0 
 12  1  1  0  0  0  0 
 13  1  1  0  0  0  0 
 15  2  1  0  0  0  0 
 16  2  1  0  0  0  0 
 17  2  1  0  0  0  0 
 18  3  1  0  0  0  0 
 19  3  1  0  0  0  0 
 21  4  1  0  0  0  0 
 23  5  1  0  0  0  0 
 27  7  1  0  0  0  0 
 28  7  1  0  0  0  0 
 33 11  1  0  0  0  0 
M  END 
>  <HBA> 
1 
 
>  <HBD> 
1 
 
>  <TPSA> 
20.23 
 
>  <cid> 
7792 
 
>  <dipole> 
1.79 
 
>  <excitation_energy_1> 
6.313 
 
>  <excitation_energy_2> 
6.921 
 
>  <excitation_energy_3> 
7.024 
 
>  <excitation_energy_4> 
7.183 
 
>  <homo_energy> 
-7.01 
 
>  <homo_lumo_gap> 
8.915 
 
>  <logP> 
2.831 
 
>  <lumo_energy> 
1.905 
 
>  <melting_point> 
-10.6 
 
>  <molecular_refractivity> 
51.35 
 
>  <oscillator_strength_1> 
0.0049 
 
>  <oscillator_strength_2> 
0.0023 
 
>  <oscillator_strength_3> 
0.0081 
 
>  <oscillator_strength_4> 
0.0044 
 
>  <open_babel_can_smiles> 
OCC[C@@H](CCCC(C)C)C 
 
>  <mulliken_charges> 
33 
1   -0.441963 
2   -0.444988 
3   -0.451138 
4   -0.264858 
5   -0.247381 
6   -0.257606 
7   -0.287623 
8   -0.03119 
9   -0.065 
10   -0.077037 
11   -0.618133 
12   0.139224 
13   0.138464 
14   0.139265 
15   0.139926 
16   0.14368 
17   0.137804 
18   0.141524 
19   0.143112 
20   0.143301 
21   0.132923 
22   0.125695 
23   0.124107 
24   0.125434 
25   0.128828 
26   0.127983 
27   0.121084 
28   0.142437 
29   0.121296 
30   0.148154 
31   0.117622 
32   0.121099 
33   0.383955 
 
>  <lowdin_charges> 
33 
1   -0.44416 
2   -0.445395 
3   -0.443117 
4   -0.277361 
5   -0.272894 
6   -0.27765 
7   -0.297818 
8   -0.13529 
9   -0.118138 
10   -0.123871 
11   -0.469638 
12   0.148742 
13   0.144181 
14   0.146651 
15   0.149553 
16   0.14651 
17   0.143558 
18   0.147916 
19   0.147374 
20   0.146061 
21   0.139995 
22   0.134063 
23   0.135081 
24   0.138791 
25   0.13729 
26   0.139828 
27   0.135861 
28   0.14645 
29   0.122664 
30   0.146894 
31   0.131337 
32   0.138094 
33   0.338436 
 
$$$$ 
 
