PCCDB-ID:  12398 
public computational chemistry database (PCCDB) project, http://pccdb.org 
 
 53 52  0  0  0  0  0  0  0  0999 V2000 
   12.9000    1.5257    1.3704 C   0  0  0  0  0  0  0  0  0  0  0  0 
   16.7142    8.0426   -2.7002 C   0  0  0  0  0  0  0  0  0  0  0  0 
   13.3395    0.6745    0.1747 C   0  0  0  0  0  0  0  0  0  0  0  0 
   17.6198    7.1070   -3.5103 C   0  0  0  0  0  0  0  0  0  0  0  0 
   12.4969   -0.6005    0.0122 C   0  0  0  0  0  0  0  0  0  0  0  0 
   17.0096    6.6198   -4.8351 C   0  0  0  0  0  0  0  0  0  0  0  0 
   12.8964   -1.5200   -1.1632 C   0  0  0  0  0  0  0  0  0  0  0  0 
   15.7700    5.7261   -4.6866 C   0  0  0  0  0  0  0  0  0  0  0  0 
   12.1715   -1.2726   -2.4991 C   0  0  0  0  0  0  0  0  0  0  0  0 
   15.2482    5.2086   -6.0350 C   0  0  0  0  0  0  0  0  0  0  0  0 
   12.4259    0.0795   -3.1800 C   0  0  0  0  0  0  0  0  0  0  0  0 
   14.0574    4.2389   -5.9446 C   0  0  0  0  0  0  0  0  0  0  0  0 
   11.7484    0.1782   -4.5558 C   0  0  0  0  0  0  0  0  0  0  0  0 
   12.7664    4.8752   -5.4055 C   0  0  0  0  0  0  0  0  0  0  0  0 
   12.0127    1.4826   -5.3261 C   0  0  0  0  0  0  0  0  0  0  0  0 
   11.4873    4.0257   -5.5294 C   0  0  0  0  0  0  0  0  0  0  0  0 
   11.4127    2.7409   -4.6755 C   0  0  0  0  0  0  0  0  0  0  0  0 
   13.5242    2.4202    1.4782 H   0  0  0  0  0  0  0  0  0  0  0  0 
   12.9670    0.9580    2.3070 H   0  0  0  0  0  0  0  0  0  0  0  0 
   11.8601    1.8576    1.2600 H   0  0  0  0  0  0  0  0  0  0  0  0 
   17.2247    8.4034   -1.7997 H   0  0  0  0  0  0  0  0  0  0  0  0 
   15.7943    7.5426   -2.3768 H   0  0  0  0  0  0  0  0  0  0  0  0 
   16.4243    8.9199   -3.2922 H   0  0  0  0  0  0  0  0  0  0  0  0 
   14.3942    0.3888    0.2967 H   0  0  0  0  0  0  0  0  0  0  0  0 
   13.2956    1.2801   -0.7389 H   0  0  0  0  0  0  0  0  0  0  0  0 
   17.8904    6.2372   -2.8946 H   0  0  0  0  0  0  0  0  0  0  0  0 
   18.5621    7.6272   -3.7298 H   0  0  0  0  0  0  0  0  0  0  0  0 
   11.4346   -0.3286   -0.0826 H   0  0  0  0  0  0  0  0  0  0  0  0 
   12.5739   -1.1705    0.9491 H   0  0  0  0  0  0  0  0  0  0  0  0 
   17.7778    6.0651   -5.3933 H   0  0  0  0  0  0  0  0  0  0  0  0 
   16.7546    7.4918   -5.4561 H   0  0  0  0  0  0  0  0  0  0  0  0 
   12.6953   -2.5605   -0.8755 H   0  0  0  0  0  0  0  0  0  0  0  0 
   13.9837   -1.4597   -1.3196 H   0  0  0  0  0  0  0  0  0  0  0  0 
   14.9747    6.2784   -4.1699 H   0  0  0  0  0  0  0  0  0  0  0  0 
   16.0169    4.8696   -4.0403 H   0  0  0  0  0  0  0  0  0  0  0  0 
   11.0892   -1.3933   -2.3410 H   0  0  0  0  0  0  0  0  0  0  0  0 
   12.4631   -2.0715   -3.1968 H   0  0  0  0  0  0  0  0  0  0  0  0 
   16.0722    4.7039   -6.5597 H   0  0  0  0  0  0  0  0  0  0  0  0 
   14.9670    6.0655   -6.6656 H   0  0  0  0  0  0  0  0  0  0  0  0 
   13.5098    0.2321   -3.2970 H   0  0  0  0  0  0  0  0  0  0  0  0 
   12.0692    0.8921   -2.5355 H   0  0  0  0  0  0  0  0  0  0  0  0 
   14.3425    3.3829   -5.3185 H   0  0  0  0  0  0  0  0  0  0  0  0 
   13.8614    3.8315   -6.9468 H   0  0  0  0  0  0  0  0  0  0  0  0 
   10.6626    0.0472   -4.4317 H   0  0  0  0  0  0  0  0  0  0  0  0 
   12.0864   -0.6668   -5.1728 H   0  0  0  0  0  0  0  0  0  0  0  0 
   12.5970    5.8184   -5.9460 H   0  0  0  0  0  0  0  0  0  0  0  0 
   12.9035    5.1536   -4.3511 H   0  0  0  0  0  0  0  0  0  0  0  0 
   11.5872    1.3807   -6.3347 H   0  0  0  0  0  0  0  0  0  0  0  0 
   13.0945    1.6031   -5.4660 H   0  0  0  0  0  0  0  0  0  0  0  0 
   11.3263    3.7659   -6.5865 H   0  0  0  0  0  0  0  0  0  0  0  0 
   10.6442    4.6713   -5.2489 H   0  0  0  0  0  0  0  0  0  0  0  0 
   11.8846    2.9278   -3.7007 H   0  0  0  0  0  0  0  0  0  0  0  0 
   10.3553    2.5305   -4.4580 H   0  0  0  0  0  0  0  0  0  0  0  0 
  1 18  1  0  0  0  0 
  1 19  1  0  0  0  0 
  2 22  1  0  0  0  0 
  2 21  1  0  0  0  0 
  3 24  1  0  0  0  0 
  3  1  1  0  0  0  0 
  4 26  1  0  0  0  0 
  4  2  1  0  0  0  0 
  5  3  1  0  0  0  0 
  5 29  1  0  0  0  0 
  6  8  1  0  0  0  0 
  6  4  1  0  0  0  0 
  7 32  1  0  0  0  0 
  7  5  1  0  0  0  0 
  8 34  1  0  0  0  0 
  8 35  1  0  0  0  0 
  9 36  1  0  0  0  0 
  9  7  1  0  0  0  0 
 10 12  1  0  0  0  0 
 10  8  1  0  0  0  0 
 11 41  1  0  0  0  0 
 11  9  1  0  0  0  0 
 12 14  1  0  0  0  0 
 12 42  1  0  0  0  0 
 13 44  1  0  0  0  0 
 13 11  1  0  0  0  0 
 14 47  1  0  0  0  0 
 15 17  1  0  0  0  0 
 15 13  1  0  0  0  0 
 16 14  1  0  0  0  0 
 16 51  1  0  0  0  0 
 16 17  1  0  0  0  0 
 17 53  1  0  0  0  0 
 17 52  1  0  0  0  0 
 20  1  1  0  0  0  0 
 23  2  1  0  0  0  0 
 25  3  1  0  0  0  0 
 27  4  1  0  0  0  0 
 28  5  1  0  0  0  0 
 30  6  1  0  0  0  0 
 31  6  1  0  0  0  0 
 33  7  1  0  0  0  0 
 37  9  1  0  0  0  0 
 38 10  1  0  0  0  0 
 39 10  1  0  0  0  0 
 40 11  1  0  0  0  0 
 43 12  1  0  0  0  0 
 45 13  1  0  0  0  0 
 46 14  1  0  0  0  0 
 48 15  1  0  0  0  0 
 49 15  1  0  0  0  0 
 50 16  1  0  0  0  0 
M  END 
>  <HBA> 
0 
 
>  <HBD> 
0 
 
>  <TPSA> 
0.0 
 
>  <cid> 
12398 
 
>  <dipole> 
0.05 
 
>  <excitation_energy_1> 
7.5 
 
>  <excitation_energy_2> 
7.52 
 
>  <excitation_energy_3> 
7.618 
 
>  <excitation_energy_4> 
7.673 
 
>  <homo_energy> 
-7.946 
 
>  <homo_lumo_gap> 
10.229 
 
>  <logP> 
6.878 
 
>  <lumo_energy> 
2.283 
 
>  <melting_point> 
-33.87 
 
>  <molecular_refractivity> 
83.83 
 
>  <oscillator_strength_1> 
0.004 
 
>  <oscillator_strength_2> 
0.0034 
 
>  <oscillator_strength_3> 
0.0017 
 
>  <oscillator_strength_4> 
0.0013 
 
>  <open_babel_can_smiles> 
CCCCCCCCCCCCCCCCC 
 
>  <mulliken_charges> 
53 
1   -0.441928 
2   -0.442997 
3   -0.253307 
4   -0.248407 
5   -0.246639 
6   -0.248597 
7   -0.260164 
8   -0.255306 
9   -0.253886 
10   -0.256147 
11   -0.255153 
12   -0.25457 
13   -0.256657 
14   -0.254643 
15   -0.259019 
16   -0.261232 
17   -0.253616 
18   0.140544 
19   0.140573 
20   0.140642 
21   0.141073 
22   0.145817 
23   0.140031 
24   0.129517 
25   0.138203 
26   0.128802 
27   0.129654 
28   0.12653 
29   0.12693 
30   0.126002 
31   0.125528 
32   0.12798 
33   0.126946 
34   0.137799 
35   0.124031 
36   0.126258 
37   0.125383 
38   0.125418 
39   0.125742 
40   0.12387 
41   0.14105 
42   0.133633 
43   0.12588 
44   0.124992 
45   0.12578 
46   0.125104 
47   0.131022 
48   0.125715 
49   0.135592 
50   0.126312 
51   0.12715 
52   0.130798 
53   0.125968 
 
>  <lowdin_charges> 
53 
1   -0.443904 
2   -0.44853 
3   -0.274876 
4   -0.273828 
5   -0.276538 
6   -0.277157 
7   -0.274775 
8   -0.281173 
9   -0.272833 
10   -0.276441 
11   -0.279922 
12   -0.279093 
13   -0.274497 
14   -0.275813 
15   -0.276273 
16   -0.275849 
17   -0.277644 
18   0.148838 
19   0.145571 
20   0.144592 
21   0.149619 
22   0.147219 
23   0.146069 
24   0.13639 
25   0.141442 
26   0.138802 
27   0.141129 
28   0.135842 
29   0.140085 
30   0.140358 
31   0.13738 
32   0.141808 
33   0.136181 
34   0.142041 
35   0.136619 
36   0.134683 
37   0.139498 
38   0.140096 
39   0.137361 
40   0.134172 
41   0.142004 
42   0.139572 
43   0.13909 
44   0.134354 
45   0.140094 
46   0.138694 
47   0.136606 
48   0.138374 
49   0.138663 
50   0.135892 
51   0.143339 
52   0.138467 
53   0.138205 
 
$$$$ 
 
