PCCDB-ID:  70253 
public computational chemistry database (PCCDB) project, http://pccdb.org 
 
  9  9  0  0  0  0  0  0  0  0999 V2000 
   -1.0990   -0.0505   -0.0023 C   0  0  0  0  0  0  0  0  0  0  0  0 
    0.9161   -0.6123   -0.0032 C   0  0  0  0  0  0  0  0  0  0  0  0 
   -0.3424   -1.1371   -0.0052 N   0  0  0  0  0  0  0  0  0  0  0  0 
   -0.3232    1.0487    0.0019 N   0  0  0  0  0  0  0  0  0  0  0  0 
    1.0014    0.7086    0.0008 N   0  0  0  0  0  0  0  0  0  0  0  0 
    2.0173   -1.3828   -0.0051 O   0  0  0  0  0  0  0  0  0  0  0  0 
   -2.1801   -0.0228   -0.0026 H   0  0  0  0  0  0  0  0  0  0  0  0 
   -0.5847    2.0236    0.0023 H   0  0  0  0  0  0  0  0  0  0  0  0 
    1.7061   -2.3028   -0.0086 H   0  0  0  0  0  0  0  0  0  0  0  0 
  1  4  1  0  0  0  0 
  2  5  1  0  0  0  0 
  3  2  2  0  0  0  0 
  3  1  1  0  0  0  0 
  4  8  1  0  0  0  0 
  5  4  1  0  0  0  0 
  6  2  1  0  0  0  0 
  7  1  1  0  0  0  0 
  9  6  1  0  0  0  0 
M  RAD  1   5   2 
M  END 
>  <HBA> 
2 
 
>  <HBD> 
2 
 
>  <TPSA> 
61.54 
 
>  <cid> 
70253 
 
>  <dipole> 
3.06 
 
>  <excitation_energy_1> 
5.889 
 
>  <excitation_energy_2> 
6.123 
 
>  <excitation_energy_3> 
6.15 
 
>  <excitation_energy_4> 
6.458 
 
>  <homo_energy> 
-6.525 
 
>  <homo_lumo_gap> 
6.705 
 
>  <logP> 
-0.902 
 
>  <lumo_energy> 
0.18 
 
>  <melting_point> 
147.81 
 
>  <molecular_refractivity> 
19.21 
 
>  <oscillator_strength_1> 
0.0049 
 
>  <oscillator_strength_2> 
0.0711 
 
>  <oscillator_strength_3> 
0.0001 
 
>  <oscillator_strength_4> 
0.007 
 
>  <open_babel_can_smiles> 
OC1=NCN[N]1 
 
>  <mulliken_charges> 
9 
1   0.240801 
2   0.620982 
3   -0.493182 
4   -0.39762 
5   -0.314593 
6   -0.607873 
7   0.174495 
8   0.353848 
9   0.423141 
 
>  <lowdin_charges> 
9 
1   -0.068736 
2   0.10693 
3   -0.232047 
4   -0.123023 
5   -0.183615 
6   -0.347112 
7   0.175508 
8   0.300885 
9   0.371211 
 
$$$$ 
 
