PCCDB-ID:  15295 
public computational chemistry database (PCCDB) project, http://pccdb.org 
 
 17 17  0  0  0  0  0  0  0  0999 V2000 
   -1.4365    0.0778   -0.0680 C   0  0  0  0  0  0  0  0  0  0  0  0 
   -0.7576    1.2372    0.3118 C   0  0  0  0  0  0  0  0  0  0  0  0 
   -0.7242   -1.0905   -0.3465 C   0  0  0  0  0  0  0  0  0  0  0  0 
    0.6327    1.2315    0.4106 C   0  0  0  0  0  0  0  0  0  0  0  0 
    0.6666   -1.1015   -0.2493 C   0  0  0  0  0  0  0  0  0  0  0  0 
    1.3535    0.0606    0.1313 C   0  0  0  0  0  0  0  0  0  0  0  0 
    3.4583    1.1033    1.3788 O   0  0  0  0  0  0  0  0  0  0  0  0 
    3.5205   -1.4031    0.6706 O   0  0  0  0  0  0  0  0  0  0  0  0 
    3.8927    0.4576   -1.0991 O   0  0  0  0  0  0  0  0  0  0  0  0 
    3.1527    0.0915    0.1397 P   0  0  0  0  0  0  0  0  0  0  0  0 
   -2.5206    0.0838   -0.1438 H   0  0  0  0  0  0  0  0  0  0  0  0 
   -1.3109    2.1453    0.5346 H   0  0  0  0  0  0  0  0  0  0  0  0 
   -1.2520   -1.9948   -0.6363 H   0  0  0  0  0  0  0  0  0  0  0  0 
    1.1591    2.1289    0.7182 H   0  0  0  0  0  0  0  0  0  0  0  0 
    1.2202   -2.0123   -0.4531 H   0  0  0  0  0  0  0  0  0  0  0  0 
    4.2577    1.6175    1.1732 H   0  0  0  0  0  0  0  0  0  0  0  0 
    4.3436   -1.6993    0.2458 H   0  0  0  0  0  0  0  0  0  0  0  0 
  1  2  2  0  0  0  0 
  2  4  1  0  0  0  0 
  2 12  1  0  0  0  0 
  3  5  2  0  0  0  0 
  3  1  1  0  0  0  0 
  4 14  1  0  0  0  0 
  5  6  1  0  0  0  0 
  6 10  1  0  0  0  0 
  6  4  2  0  0  0  0 
  9 10  2  0  0  0  0 
 10  8  1  0  0  0  0 
 10  7  1  0  0  0  0 
 11  1  1  0  0  0  0 
 13  3  1  0  0  0  0 
 15  5  1  0  0  0  0 
 16  7  1  0  0  0  0 
 17  8  1  0  0  0  0 
M  END 
>  <HBA> 
3 
 
>  <HBD> 
2 
 
>  <TPSA> 
67.34 
 
>  <cid> 
15295 
 
>  <dipole> 
1.45 
 
>  <excitation_energy_1> 
5.23 
 
>  <excitation_energy_2> 
5.769 
 
>  <excitation_energy_3> 
6.123 
 
>  <excitation_energy_4> 
6.222 
 
>  <homo_energy> 
-7.127 
 
>  <homo_lumo_gap> 
6.278 
 
>  <logP> 
0.49 
 
>  <lumo_energy> 
-0.849 
 
>  <melting_point> 
104.93 
 
>  <molecular_refractivity> 
38.12 
 
>  <oscillator_strength_1> 
0.0098 
 
>  <oscillator_strength_2> 
0.1165 
 
>  <oscillator_strength_3> 
0.0012 
 
>  <oscillator_strength_4> 
0.0077 
 
>  <open_babel_can_smiles> 
OP(=O)(c1ccccc1)O 
 
>  <mulliken_charges> 
17 
1   -0.123593 
2   -0.121837 
3   -0.121788 
4   -0.145748 
5   -0.146766 
6   -0.081731 
7   -0.649522 
8   -0.649449 
9   -0.547697 
10   0.977797 
11   0.140311 
12   0.140005 
13   0.13997 
14   0.156464 
15   0.156581 
16   0.438223 
17   0.438781 
 
>  <lowdin_charges> 
17 
1   -0.135829 
2   -0.153657 
3   -0.153575 
4   -0.132025 
5   -0.132014 
6   -0.184729 
7   -0.575545 
8   -0.577824 
9   -0.604302 
10   1.051634 
11   0.160489 
12   0.163517 
13   0.163552 
14   0.173573 
15   0.173342 
16   0.381618 
17   0.381775 
 
$$$$ 
 
