PCCDB-ID:  40835 
public computational chemistry database (PCCDB) project, http://pccdb.org 
 
 20 20  0  0  0  0  0  0  0  0999 V2000 
   -0.4281    0.5055   -0.1330 C   0  0  0  0  0  0  0  0  0  0  0  0 
   -3.5321    0.4377    3.2635 C   0  0  0  0  0  0  0  0  0  0  0  0 
   -0.3426   -0.1484    1.2633 C   0  0  0  0  0  0  0  0  0  0  0  0 
   -2.3017    0.8297    2.6522 C   0  0  0  0  0  0  0  0  0  0  0  0 
   -1.2606   -0.2799   -1.1472 C   0  0  0  0  0  0  0  0  0  0  0  0 
   -3.8078   -0.8903    3.0954 C   0  0  0  0  0  0  0  0  0  0  0  0 
   -1.6462   -0.1961    2.0204 C   0  0  0  0  0  0  0  0  0  0  0  0 
   -1.2229    0.3884   -2.4558 N   0  0  0  0  0  0  0  0  0  0  0  0 
   -2.5592   -1.6793    2.1832 S   0  0  0  0  0  0  0  0  0  0  0  0 
    0.5852    0.6229   -0.5363 H   0  0  0  0  0  0  0  0  0  0  0  0 
   -0.8429    1.5183   -0.0275 H   0  0  0  0  0  0  0  0  0  0  0  0 
   -4.1778    1.1173    3.8098 H   0  0  0  0  0  0  0  0  0  0  0  0 
    0.3833    0.4135    1.8648 H   0  0  0  0  0  0  0  0  0  0  0  0 
    0.0682   -1.1611    1.1622 H   0  0  0  0  0  0  0  0  0  0  0  0 
   -1.9114    1.8426    2.6842 H   0  0  0  0  0  0  0  0  0  0  0  0 
   -2.2791   -0.4301   -0.7506 H   0  0  0  0  0  0  0  0  0  0  0  0 
   -0.8225   -1.2791   -1.2740 H   0  0  0  0  0  0  0  0  0  0  0  0 
   -4.6582   -1.4529    3.4563 H   0  0  0  0  0  0  0  0  0  0  0  0 
   -1.7176    1.2783   -2.3924 H   0  0  0  0  0  0  0  0  0  0  0  0 
   -1.7403   -0.1659   -3.1367 H   0  0  0  0  0  0  0  0  0  0  0  0 
  1 11  1  0  0  0  0 
  1  3  1  0  0  0  0 
  2 12  1  0  0  0  0 
  3 13  1  0  0  0  0 
  3  7  1  0  0  0  0 
  4 15  1  0  0  0  0 
  4  2  1  0  0  0  0 
  5 16  1  0  0  0  0 
  5  1  1  0  0  0  0 
  6  2  2  0  0  0  0 
  6 18  1  0  0  0  0 
  7  9  1  0  0  0  0 
  7  4  2  0  0  0  0 
  8 19  1  0  0  0  0 
  8  5  1  0  0  0  0 
  9  6  1  0  0  0  0 
 10  1  1  0  0  0  0 
 14  3  1  0  0  0  0 
 17  5  1  0  0  0  0 
 20  8  1  0  0  0  0 
M  END 
>  <HBA> 
2 
 
>  <HBD> 
1 
 
>  <TPSA> 
54.26 
 
>  <cid> 
40835 
 
>  <dipole> 
1.25 
 
>  <excitation_energy_1> 
5.246 
 
>  <excitation_energy_2> 
5.413 
 
>  <excitation_energy_3> 
5.521 
 
>  <excitation_energy_4> 
5.574 
 
>  <homo_energy> 
-5.962 
 
>  <homo_lumo_gap> 
5.818 
 
>  <logP> 
2.34 
 
>  <lumo_energy> 
-0.144 
 
>  <melting_point> 
59.3 
 
>  <molecular_refractivity> 
41.61 
 
>  <oscillator_strength_1> 
0.0937 
 
>  <oscillator_strength_2> 
0.0034 
 
>  <oscillator_strength_3> 
0.0042 
 
>  <oscillator_strength_4> 
0.0688 
 
>  <open_babel_can_smiles> 
NCCCc1cccs1 
 
>  <mulliken_charges> 
20 
1   -0.237982 
2   -0.097411 
3   -0.326546 
4   -0.125988 
5   -0.14085 
6   -0.348519 
7   -0.118024 
8   -0.718047 
9   0.231647 
10   0.15003 
11   0.129489 
12   0.137523 
13   0.158479 
14   0.149443 
15   0.131484 
16   0.134527 
17   0.135315 
18   0.168814 
19   0.29115 
20   0.295465 
 
>  <lowdin_charges> 
20 
1   -0.273111 
2   -0.182152 
3   -0.2715 
4   -0.200396 
5   -0.207726 
6   -0.329738 
7   -0.15587 
8   -0.560582 
9   0.296793 
10   0.15094 
11   0.138585 
12   0.165008 
13   0.162075 
14   0.153927 
15   0.160193 
16   0.126657 
17   0.139024 
18   0.181322 
19   0.250673 
20   0.255881 
 
$$$$ 
 
