PCCDB-ID:  12315 
public computational chemistry database (PCCDB) project, http://pccdb.org 
 
 16 15  0  0  0  0  0  0  0  0999 V2000 
    1.2138   -0.2119    0.5427 C   0  0  0  0  0  0  0  0  0  0  0  0 
    5.1013    1.5832   -2.0140 C   0  0  0  0  0  0  0  0  0  0  0  0 
    2.7226   -0.2663    0.2848 C   0  0  0  0  0  0  0  0  0  0  0  0 
    3.1829    0.7364   -0.7752 C   0  0  0  0  0  0  0  0  0  0  0  0 
    4.6159    0.6221   -1.0313 N   0  0  0  0  0  0  0  0  0  0  0  0 
    0.9160   -0.9362    1.3089 H   0  0  0  0  0  0  0  0  0  0  0  0 
    0.6472   -0.4405   -0.3682 H   0  0  0  0  0  0  0  0  0  0  0  0 
    0.9020    0.7822    0.8858 H   0  0  0  0  0  0  0  0  0  0  0  0 
    6.1877    1.4879   -2.1155 H   0  0  0  0  0  0  0  0  0  0  0  0 
    4.8672    2.6390   -1.7771 H   0  0  0  0  0  0  0  0  0  0  0  0 
    4.6554    1.3600   -2.9909 H   0  0  0  0  0  0  0  0  0  0  0  0 
    3.0183   -1.2725   -0.0363 H   0  0  0  0  0  0  0  0  0  0  0  0 
    3.2606   -0.0691    1.2241 H   0  0  0  0  0  0  0  0  0  0  0  0 
    2.8815    1.7604   -0.4710 H   0  0  0  0  0  0  0  0  0  0  0  0 
    2.6588    0.5341   -1.7204 H   0  0  0  0  0  0  0  0  0  0  0  0 
    5.1173    0.7613   -0.1548 H   0  0  0  0  0  0  0  0  0  0  0  0 
  1  8  1  0  0  0  0 
  1  6  1  0  0  0  0 
  2 10  1  0  0  0  0 
  2  5  1  0  0  0  0 
  3  1  1  0  0  0  0 
  3 13  1  0  0  0  0 
  4 14  1  0  0  0  0 
  4  3  1  0  0  0  0 
  5  4  1  0  0  0  0 
  5 16  1  0  0  0  0 
  7  1  1  0  0  0  0 
  9  2  1  0  0  0  0 
 11  2  1  0  0  0  0 
 12  3  1  0  0  0  0 
 15  4  1  0  0  0  0 
M  END 
>  <HBA> 
1 
 
>  <HBD> 
1 
 
>  <TPSA> 
12.03 
 
>  <cid> 
12315 
 
>  <dipole> 
0.93 
 
>  <excitation_energy_1> 
5.385 
 
>  <excitation_energy_2> 
5.918 
 
>  <excitation_energy_3> 
6.002 
 
>  <excitation_energy_4> 
6.335 
 
>  <homo_energy> 
-5.84 
 
>  <homo_lumo_gap> 
8.267 
 
>  <logP> 
1.007 
 
>  <lumo_energy> 
2.427 
 
>  <melting_point> 
1.94 
 
>  <molecular_refractivity> 
24.14 
 
>  <oscillator_strength_1> 
0.0011 
 
>  <oscillator_strength_2> 
0.0285 
 
>  <oscillator_strength_3> 
0.0056 
 
>  <oscillator_strength_4> 
0.0698 
 
>  <open_babel_can_smiles> 
CCCNC 
 
>  <mulliken_charges> 
16 
1   -0.445104 
2   -0.298252 
3   -0.257708 
4   -0.104396 
5   -0.539833 
6   0.144911 
7   0.143923 
8   0.142054 
9   0.146299 
10   0.116982 
11   0.150166 
12   0.14864 
13   0.124713 
14   0.103411 
15   0.134686 
16   0.289508 
 
>  <lowdin_charges> 
16 
1   -0.445108 
2   -0.355563 
3   -0.275774 
4   -0.200285 
5   -0.364255 
6   0.152202 
7   0.147928 
8   0.146079 
9   0.147482 
10   0.117368 
11   0.146845 
12   0.148163 
13   0.136051 
14   0.110601 
15   0.138748 
16   0.24952 
 
$$$$ 
 
