PCCDB-ID:  6838 
public computational chemistry database (PCCDB) project, http://pccdb.org 
 
 25 26  0  0  0  0  0  0  0  0999 V2000 
   -1.7592    0.5604    0.1549 C   0  0  0  0  0  0  0  0  0  0  0  0 
    4.5941    4.2740   -0.5402 C   0  0  0  0  0  0  0  0  0  0  0  0 
   -1.2348    1.3252   -0.8891 C   0  0  0  0  0  0  0  0  0  0  0  0 
   -0.9029   -0.1749    0.9772 C   0  0  0  0  0  0  0  0  0  0  0  0 
    4.9817    3.2136   -1.3617 C   0  0  0  0  0  0  0  0  0  0  0  0 
    3.4739    4.1321    0.2803 C   0  0  0  0  0  0  0  0  0  0  0  0 
    0.1408    1.3529   -1.1141 C   0  0  0  0  0  0  0  0  0  0  0  0 
    0.4749   -0.1458    0.7653 C   0  0  0  0  0  0  0  0  0  0  0  0 
    4.2570    2.0235   -1.3759 C   0  0  0  0  0  0  0  0  0  0  0  0 
    2.7501    2.9408    0.2900 C   0  0  0  0  0  0  0  0  0  0  0  0 
    0.9940    0.6219   -0.2815 C   0  0  0  0  0  0  0  0  0  0  0  0 
    3.1407    1.8821   -0.5400 C   0  0  0  0  0  0  0  0  0  0  0  0 
    3.1378   -0.4737   -0.7854 N   0  0  0  0  0  0  0  0  0  0  0  0 
    2.4091    0.6589   -0.5197 N   0  0  0  0  0  0  0  0  0  0  0  0 
    2.4989   -1.5103   -0.8129 O   0  0  0  0  0  0  0  0  0  0  0  0 
   -2.8316    0.5368    0.3266 H   0  0  0  0  0  0  0  0  0  0  0  0 
    5.1560    5.2036   -0.5437 H   0  0  0  0  0  0  0  0  0  0  0  0 
   -1.8962    1.8975   -1.5335 H   0  0  0  0  0  0  0  0  0  0  0  0 
   -1.3066   -0.7718    1.7901 H   0  0  0  0  0  0  0  0  0  0  0  0 
    5.8462    3.3154   -2.0120 H   0  0  0  0  0  0  0  0  0  0  0  0 
    3.1630    4.9484    0.9264 H   0  0  0  0  0  0  0  0  0  0  0  0 
    0.5582    1.9378   -1.9281 H   0  0  0  0  0  0  0  0  0  0  0  0 
    1.1446   -0.7151    1.3999 H   0  0  0  0  0  0  0  0  0  0  0  0 
    4.5482    1.2042   -2.0223 H   0  0  0  0  0  0  0  0  0  0  0  0 
    1.8889    2.8275    0.9397 H   0  0  0  0  0  0  0  0  0  0  0  0 
  1 16  1  0  0  0  0 
  1  4  2  0  0  0  0 
  2  6  2  0  0  0  0 
  3  1  1  0  0  0  0 
  4 19  1  0  0  0  0 
  5  2  1  0  0  0  0 
  6 10  1  0  0  0  0 
  6 21  1  0  0  0  0 
  7  3  2  0  0  0  0 
  7 11  1  0  0  0  0 
  8  4  1  0  0  0  0 
  8 23  1  0  0  0  0 
  9  5  2  0  0  0  0 
  9 12  1  0  0  0  0 
 10 25  1  0  0  0  0 
 11  8  2  0  0  0  0 
 12 14  1  0  0  0  0 
 12 10  2  0  0  0  0 
 13 14  1  0  0  0  0 
 14 11  1  0  0  0  0 
 15 13  2  0  0  0  0 
 17  2  1  0  0  0  0 
 18  3  1  0  0  0  0 
 20  5  1  0  0  0  0 
 22  7  1  0  0  0  0 
 24  9  1  0  0  0  0 
M  END 
>  <HBA> 
2 
 
>  <HBD> 
0 
 
>  <TPSA> 
32.67 
 
>  <cid> 
6838 
 
>  <dipole> 
3.55 
 
>  <excitation_energy_1> 
3.051 
 
>  <excitation_energy_2> 
4.092 
 
>  <excitation_energy_3> 
4.634 
 
>  <excitation_energy_4> 
4.694 
 
>  <homo_energy> 
-6.117 
 
>  <homo_lumo_gap> 
4.634 
 
>  <logP> 
3.506 
 
>  <lumo_energy> 
-1.483 
 
>  <melting_point> 
66.97 
 
>  <molecular_refractivity> 
60.82 
 
>  <oscillator_strength_1> 
0.002 
 
>  <oscillator_strength_2> 
0.0904 
 
>  <oscillator_strength_3> 
0.0011 
 
>  <oscillator_strength_4> 
0.0022 
 
>  <open_babel_can_smiles> 
O=NN(c1ccccc1)c1ccccc1 
 
>  <mulliken_charges> 
25 
1   -0.117185 
2   -0.122267 
3   -0.143517 
4   -0.146402 
5   -0.142647 
6   -0.14013 
7   -0.129108 
8   -0.119512 
9   -0.15198 
10   -0.161323 
11   0.267642 
12   0.314089 
13   0.16249 
14   -0.461205 
15   -0.348602 
16   0.137269 
17   0.13363 
18   0.139517 
19   0.140651 
20   0.138181 
21   0.136603 
22   0.150068 
23   0.153817 
24   0.159778 
25   0.150143 
 
>  <lowdin_charges> 
25 
1   -0.147789 
2   -0.161158 
3   -0.15393 
4   -0.151117 
5   -0.147412 
6   -0.150205 
7   -0.154462 
8   -0.148342 
9   -0.168232 
10   -0.173305 
11   0.031867 
12   0.043255 
13   0.064606 
14   -0.01721 
15   -0.231309 
16   0.160295 
17   0.160578 
18   0.164368 
19   0.164365 
20   0.162416 
21   0.162298 
22   0.170764 
23   0.174215 
24   0.175295 
25   0.170148 
 
$$$$ 
 
