PCCDB-ID:  69954 
public computational chemistry database (PCCDB) project, http://pccdb.org 
 
 16 15  0  0  0  0  0  0  0  0999 V2000 
    2.9654   -1.3609    0.2756 C   0  0  0  0  0  0  0  0  0  0  0  0 
    1.6161    3.7555    0.0973 C   0  0  0  0  0  0  0  0  0  0  0  0 
    5.8490    2.0602   -2.5384 C   0  0  0  0  0  0  0  0  0  0  0  0 
    3.5482    1.5006   -0.6132 P   0  0  0  0  0  0  0  0  0  0  0  0 
    3.2685    0.2465    1.1186 S   0  0  0  0  0  0  0  0  0  0  0  0 
    3.4187    3.4477    0.3038 S   0  0  0  0  0  0  0  0  0  0  0  0 
    5.6852    1.3387   -0.8537 S   0  0  0  0  0  0  0  0  0  0  0  0 
    2.6750   -2.0649    1.0597 H   0  0  0  0  0  0  0  0  0  0  0  0 
    3.8726   -1.7242   -0.2123 H   0  0  0  0  0  0  0  0  0  0  0  0 
    2.1534   -1.2800   -0.4513 H   0  0  0  0  0  0  0  0  0  0  0  0 
    1.4478    4.7910    0.4042 H   0  0  0  0  0  0  0  0  0  0  0  0 
    1.0297    3.0934    0.7381 H   0  0  0  0  0  0  0  0  0  0  0  0 
    1.3112    3.6374   -0.9454 H   0  0  0  0  0  0  0  0  0  0  0  0 
    6.8959    1.9297   -2.8242 H   0  0  0  0  0  0  0  0  0  0  0  0 
    5.6113    3.1263   -2.5318 H   0  0  0  0  0  0  0  0  0  0  0  0 
    5.2137    1.5368   -3.2572 H   0  0  0  0  0  0  0  0  0  0  0  0 
  1  8  1  0  0  0  0 
  1  5  1  0  0  0  0 
  2  6  1  0  0  0  0 
  2 11  1  0  0  0  0 
  2 12  1  0  0  0  0 
  3 15  1  0  0  0  0 
  3  7  1  0  0  0  0 
  4  6  1  0  0  0  0 
  4  5  1  0  0  0  0 
  7  4  1  0  0  0  0 
  9  1  1  0  0  0  0 
 10  1  1  0  0  0  0 
 13  2  1  0  0  0  0 
 14  3  1  0  0  0  0 
 16  3  1  0  0  0  0 
M  END 
>  <HBA> 
3 
 
>  <HBD> 
0 
 
>  <TPSA> 
89.49 
 
>  <cid> 
69954 
 
>  <dipole> 
2.97 
 
>  <excitation_energy_1> 
4.252 
 
>  <excitation_energy_2> 
4.257 
 
>  <excitation_energy_3> 
4.612 
 
>  <excitation_energy_4> 
4.85 
 
>  <homo_energy> 
-5.965 
 
>  <homo_lumo_gap> 
5.325 
 
>  <logP> 
3.302 
 
>  <lumo_energy> 
-0.639 
 
>  <melting_point> 
-8.95 
 
>  <molecular_refractivity> 
47.28 
 
>  <oscillator_strength_1> 
0.0252 
 
>  <oscillator_strength_2> 
0.0249 
 
>  <oscillator_strength_3> 
0.0153 
 
>  <oscillator_strength_4> 
0.0005 
 
>  <open_babel_can_smiles> 
CSP(SC)SC 
 
>  <mulliken_charges> 
16 
1   -0.600538 
2   -0.600258 
3   -0.600704 
4   0.119513 
5   -0.023825 
6   -0.024068 
7   -0.023979 
8   0.194152 
9   0.199408 
10   0.191144 
11   0.194095 
12   0.199233 
13   0.191182 
14   0.194173 
15   0.199496 
16   0.190977 
 
>  <lowdin_charges> 
16 
1   -0.5469 
2   -0.544942 
3   -0.543867 
4   0.146393 
5   -0.027419 
6   -0.027011 
7   -0.028517 
8   0.181359 
9   0.173552 
10   0.17121 
11   0.179469 
12   0.174317 
13   0.169611 
14   0.179398 
15   0.171626 
16   0.171721 
 
$$$$ 
 
