PCCDB-ID:  53715 
public computational chemistry database (PCCDB) project, http://pccdb.org 
 
 29 29  0  0  1  0  0  0  0  0999 V2000 
    2.4395    3.2771   -2.3052 C   0  0  0  0  0  0  0  0  0  0  0  0 
    5.5797   -4.4159   -1.2131 C   0  0  0  0  0  0  0  0  0  0  0  0 
    3.2962   -3.6661   -1.9986 C   0  0  0  0  0  0  0  0  0  0  0  0 
    3.4756    3.1488   -1.2050 C   0  0  0  0  0  0  0  0  0  0  0  0 
    4.5161   -2.3114   -0.1967 C   0  0  0  0  0  0  0  0  0  0  0  0 
    4.4206   -0.9035   -0.7906 C   0  0  2  0  0  0  0  0  0  0  0  0 
    5.2082   -1.0544   -2.1073 C   0  0  0  0  0  0  0  0  0  0  0  0 
    4.6247    1.3250   -0.1260 C   0  0  0  0  0  0  0  0  0  0  0  0 
    4.6504   -3.2269   -1.4341 C   0  0  0  0  0  0  0  0  0  0  0  0 
    4.9818    0.1185    0.0618 N   0  0  0  0  0  0  0  0  0  0  0  0 
    5.6905   -0.1804   -2.7797 O   0  0  0  0  0  0  0  0  0  0  0  0 
    5.1741    2.3270    0.5978 O   0  0  0  0  0  0  0  0  0  0  0  0 
    3.6838    1.7332   -0.9859 O   0  0  0  0  0  0  0  0  0  0  0  0 
    5.2911   -2.3697   -2.4377 O   0  0  0  0  0  0  0  0  0  0  0  0 
    2.2452    4.3357   -2.5088 H   0  0  0  0  0  0  0  0  0  0  0  0 
    1.4975    2.8032   -2.0112 H   0  0  0  0  0  0  0  0  0  0  0  0 
    2.7941    2.8044   -3.2261 H   0  0  0  0  0  0  0  0  0  0  0  0 
    5.1718   -5.0763   -0.4393 H   0  0  0  0  0  0  0  0  0  0  0  0 
    6.5687   -4.0748   -0.8916 H   0  0  0  0  0  0  0  0  0  0  0  0 
    5.6962   -4.9955   -2.1348 H   0  0  0  0  0  0  0  0  0  0  0  0 
    2.7970   -4.3523   -1.3052 H   0  0  0  0  0  0  0  0  0  0  0  0 
    3.4327   -4.1790   -2.9560 H   0  0  0  0  0  0  0  0  0  0  0  0 
    2.6364   -2.8074   -2.1633 H   0  0  0  0  0  0  0  0  0  0  0  0 
    3.1376    3.6106   -0.2717 H   0  0  0  0  0  0  0  0  0  0  0  0 
    4.4270    3.6070   -1.4910 H   0  0  0  0  0  0  0  0  0  0  0  0 
    3.6596   -2.5817    0.4280 H   0  0  0  0  0  0  0  0  0  0  0  0 
    5.4197   -2.3650    0.4201 H   0  0  0  0  0  0  0  0  0  0  0  0 
    3.3834   -0.6757   -1.0826 H   0  0  0  0  0  0  0  0  0  0  0  0 
    5.8465    1.8956    1.1542 H   0  0  0  0  0  0  0  0  0  0  0  0 
  1 16  1  0  0  0  0 
  1  4  1  0  0  0  0 
  2 19  1  0  0  0  0 
  2 18  1  0  0  0  0 
  3  9  1  0  0  0  0 
  3 21  1  0  0  0  0 
  4 13  1  0  0  0  0 
  4 24  1  0  0  0  0 
  5 27  1  0  0  0  0 
  5 26  1  0  0  0  0 
  6 28  1  6  0  0  0 
  6  5  1  0  0  0  0 
  6 10  1  0  0  0  0 
  7  6  1  0  0  0  0 
  8 10  2  0  0  0  0 
  8 12  1  0  0  0  0 
  9  2  1  0  0  0  0 
  9  5  1  0  0  0  0 
 11  7  2  0  0  0  0 
 12 29  1  0  0  0  0 
 13  8  1  0  0  0  0 
 14  7  1  0  0  0  0 
 14  9  1  0  0  0  0 
 15  1  1  0  0  0  0 
 17  1  1  0  0  0  0 
 20  2  1  0  0  0  0 
 22  3  1  0  0  0  0 
 23  3  1  0  0  0  0 
 25  4  1  0  0  0  0 
M  END 
>  <HBA> 
5 
 
>  <HBD> 
1 
 
>  <TPSA> 
64.63 
 
>  <cid> 
53715 
 
>  <dipole> 
3.42 
 
>  <excitation_energy_1> 
5.389 
 
>  <excitation_energy_2> 
5.926 
 
>  <excitation_energy_3> 
6.158 
 
>  <excitation_energy_4> 
6.324 
 
>  <homo_energy> 
-6.351 
 
>  <homo_lumo_gap> 
6.868 
 
>  <logP> 
1.218 
 
>  <lumo_energy> 
0.517 
 
>  <melting_point> 
67.44 
 
>  <molecular_refractivity> 
49.06 
 
>  <oscillator_strength_1> 
0.0045 
 
>  <oscillator_strength_2> 
0.0033 
 
>  <oscillator_strength_3> 
0.0002 
 
>  <oscillator_strength_4> 
0.0274 
 
>  <open_babel_can_smiles> 
CCO/C(=N\[C@@H]1CC(OC1=O)(C)C)/O 
 
>  <mulliken_charges> 
29 
1   -0.463714 
2   -0.453846 
3   -0.452553 
4   -0.025787 
5   -0.308879 
6   -0.087506 
7   0.622028 
8   0.759229 
9   0.300012 
10   -0.51561 
11   -0.464132 
12   -0.607035 
13   -0.474942 
14   -0.472872 
15   0.152985 
16   0.160671 
17   0.176179 
18   0.146718 
19   0.159213 
20   0.15919 
21   0.147173 
22   0.162914 
23   0.151915 
24   0.157549 
25   0.166903 
26   0.148784 
27   0.16198 
28   0.168423 
29   0.425012 
 
>  <lowdin_charges> 
29 
1   -0.447606 
2   -0.445893 
3   -0.452732 
4   -0.114741 
5   -0.290881 
6   -0.094246 
7   0.187401 
8   0.197861 
9   0.131811 
10   -0.272703 
11   -0.240904 
12   -0.361629 
13   -0.19065 
14   -0.19039 
15   0.158713 
16   0.158517 
17   0.166365 
18   0.156761 
19   0.159577 
20   0.159967 
21   0.156463 
22   0.161509 
23   0.154965 
24   0.14987 
25   0.155454 
26   0.156452 
27   0.160686 
28   0.155102 
29   0.374902 
 
$$$$ 
 
