PCCDB-ID:  24884 
public computational chemistry database (PCCDB) project, http://pccdb.org 
 
 23 23  0  0  1  0  0  0  0  0999 V2000 
    4.0602   -0.4336    0.2689 C   0  0  0  0  0  0  0  0  0  0  0  0 
    3.1442    1.4405   -2.2392 C   0  0  0  0  0  0  0  0  0  0  0  0 
    2.9231    2.7995   -0.2504 C   0  0  0  0  0  0  0  0  0  0  0  0 
    3.3642    2.5822   -3.0038 C   0  0  0  0  0  0  0  0  0  0  0  0 
    3.1496    3.9510   -0.9990 C   0  0  0  0  0  0  0  0  0  0  0  0 
    2.7433    0.2915   -0.0136 C   0  0  1  0  0  0  0  0  0  0  0  0 
    2.9245    1.5383   -0.8582 C   0  0  0  0  0  0  0  0  0  0  0  0 
    3.3685    3.8224   -2.3684 C   0  0  0  0  0  0  0  0  0  0  0  0 
    3.6072    5.0346   -3.1698 N   0  0  0  0  0  0  0  0  0  0  0  0 
    0.5379   -0.4141   -0.7343 N   0  0  0  0  0  0  0  0  0  0  0  0 
    3.7857    4.8929   -4.3788 O   0  0  0  0  0  0  0  0  0  0  0  0 
    3.6159    6.1150   -2.5811 O   0  0  0  0  0  0  0  0  0  0  0  0 
   -0.0815   -1.2251   -1.3752 O   0  0  0  0  0  0  0  0  0  0  0  0 
    0.1500    0.5646   -0.1317 O   0  0  0  0  0  0  0  0  0  0  0  0 
    1.9348   -0.7029   -0.7018 O   0  0  0  0  0  0  0  0  0  0  0  0 
    4.7296    0.2327    0.8217 H   0  0  0  0  0  0  0  0  0  0  0  0 
    4.5548   -0.7225   -0.6631 H   0  0  0  0  0  0  0  0  0  0  0  0 
    3.8796   -1.3311    0.8675 H   0  0  0  0  0  0  0  0  0  0  0  0 
    3.1324    0.4669   -2.7195 H   0  0  0  0  0  0  0  0  0  0  0  0 
    2.7367    2.8850    0.8169 H   0  0  0  0  0  0  0  0  0  0  0  0 
    3.5331    2.5281   -4.0721 H   0  0  0  0  0  0  0  0  0  0  0  0 
    3.1504    4.9349   -0.5466 H   0  0  0  0  0  0  0  0  0  0  0  0 
    2.2443    0.5467    0.9244 H   0  0  0  0  0  0  0  0  0  0  0  0 
  1 16  1  0  0  0  0 
  1 18  1  0  0  0  0 
  2  7  2  0  0  0  0 
  3 20  1  0  0  0  0 
  4  8  2  0  0  0  0 
  4  2  1  0  0  0  0 
  5 22  1  0  0  0  0 
  5  3  2  0  0  0  0 
  6  1  1  0  0  0  0 
  6 23  1  1  0  0  0 
  7  3  1  0  0  0  0 
  7  6  1  0  0  0  0 
  8  5  1  0  0  0  0 
  9 12  2  0  0  0  0 
  9  8  1  0  0  0  0 
 10 15  1  0  0  0  0 
 10 14  2  0  0  0  0 
 11  9  2  0  0  0  0 
 13 10  2  0  0  0  0 
 15  6  1  0  0  0  0 
 17  1  1  0  0  0  0 
 19  2  1  0  0  0  0 
 21  4  1  0  0  0  0 
M  END 
>  <HBA> 
0 
 
>  <HBD> 
0 
 
>  <TPSA> 
100.87 
 
>  <cid> 
24884 
 
>  <dipole> 
4.78 
 
>  <excitation_energy_1> 
3.731 
 
>  <excitation_energy_2> 
4.244 
 
>  <excitation_energy_3> 
4.322 
 
>  <excitation_energy_4> 
4.58 
 
>  <homo_energy> 
-7.796 
 
>  <homo_lumo_gap> 
5.173 
 
>  <logP> 
2.91 
 
>  <lumo_energy> 
-2.623 
 
>  <melting_point> 
70.44 
 
>  <molecular_refractivity> 
54.23 
 
>  <oscillator_strength_1> 
0.0 
 
>  <oscillator_strength_2> 
0.0004 
 
>  <oscillator_strength_3> 
0.0141 
 
>  <oscillator_strength_4> 
0.2934 
 
>  <open_babel_can_smiles> 
O=N(=O)O[C@H](c1ccc(cc1)N(=O)=O)C 
 
>  <mulliken_charges> 
23 
1   -0.453847 
2   -0.192067 
3   -0.186632 
4   -0.145997 
5   -0.148283 
6   0.036569 
7   0.171068 
8   0.275405 
9   0.382136 
10   0.752768 
11   -0.391323 
12   -0.391886 
13   -0.346385 
14   -0.360847 
15   -0.391128 
16   0.170146 
17   0.173644 
18   0.176574 
19   0.164051 
20   0.150572 
21   0.189136 
22   0.188528 
23   0.177799 
 
>  <lowdin_charges> 
23 
1   -0.441588 
2   -0.153391 
3   -0.148199 
4   -0.129218 
5   -0.131603 
6   -0.003959 
7   -0.002651 
8   0.004616 
9   0.30565 
10   0.381021 
11   -0.240805 
12   -0.243226 
13   -0.187376 
14   -0.212161 
15   -0.187175 
16   0.170434 
17   0.166654 
18   0.169 
19   0.173714 
20   0.166753 
21   0.188949 
22   0.190288 
23   0.164274 
 
$$$$ 
 
