PCCDB-ID:  6629 
public computational chemistry database (PCCDB) project, http://pccdb.org 
 
 23 23  0  0  0  0  0  0  0  0999 V2000 
    1.1420    0.2045   -0.3130 C   0  0  0  0  0  0  0  0  0  0  0  0 
    3.5201   -0.6378   -0.4382 C   0  0  0  0  0  0  0  0  0  0  0  0 
    3.5046    4.1842   -2.3977 C   0  0  0  0  0  0  0  0  0  0  0  0 
    2.7910    4.2427   -1.1989 C   0  0  0  0  0  0  0  0  0  0  0  0 
    3.9482    2.9494   -2.8701 C   0  0  0  0  0  0  0  0  0  0  0  0 
    2.5226    3.0746   -0.4859 C   0  0  0  0  0  0  0  0  0  0  0  0 
    3.6858    1.7816   -2.1495 C   0  0  0  0  0  0  0  0  0  0  0  0 
    2.9678    1.8251   -0.9484 C   0  0  0  0  0  0  0  0  0  0  0  0 
    2.6261    0.5688   -0.1368 C   0  0  0  0  0  0  0  0  0  0  0  0 
    4.0608    1.2068    1.6328 O   0  0  0  0  0  0  0  0  0  0  0  0 
    2.6918    0.8808    1.2770 O   0  0  0  0  0  0  0  0  0  0  0  0 
    0.9438   -0.0459   -1.3597 H   0  0  0  0  0  0  0  0  0  0  0  0 
    0.4979    1.0429   -0.0322 H   0  0  0  0  0  0  0  0  0  0  0  0 
    0.8884   -0.6582    0.3115 H   0  0  0  0  0  0  0  0  0  0  0  0 
    3.3759   -0.9957   -1.4627 H   0  0  0  0  0  0  0  0  0  0  0  0 
    3.2582   -1.4505    0.2457 H   0  0  0  0  0  0  0  0  0  0  0  0 
    4.5739   -0.3904   -0.2933 H   0  0  0  0  0  0  0  0  0  0  0  0 
    3.7132    5.0923   -2.9567 H   0  0  0  0  0  0  0  0  0  0  0  0 
    2.4399    5.1987   -0.8189 H   0  0  0  0  0  0  0  0  0  0  0  0 
    4.5064    2.8907   -3.8009 H   0  0  0  0  0  0  0  0  0  0  0  0 
    1.9614    3.1242    0.4436 H   0  0  0  0  0  0  0  0  0  0  0  0 
    4.0497    0.8339   -2.5329 H   0  0  0  0  0  0  0  0  0  0  0  0 
    4.0792    2.1623    1.4303 H   0  0  0  0  0  0  0  0  0  0  0  0 
  1  9  1  0  0  0  0 
  1 13  1  0  0  0  0 
  1 14  1  0  0  0  0 
  2 17  1  0  0  0  0 
  2  9  1  0  0  0  0 
  2 16  1  0  0  0  0 
  3  4  1  0  0  0  0 
  4 19  1  0  0  0  0 
  4  6  2  0  0  0  0 
  5  3  2  0  0  0  0 
  5  7  1  0  0  0  0 
  6 21  1  0  0  0  0 
  7  8  2  0  0  0  0 
  8  6  1  0  0  0  0 
  8  9  1  0  0  0  0 
  9 11  1  0  0  0  0 
 11 10  1  0  0  0  0 
 12  1  1  0  0  0  0 
 15  2  1  0  0  0  0 
 18  3  1  0  0  0  0 
 20  5  1  0  0  0  0 
 22  7  1  0  0  0  0 
 23 10  1  0  0  0  0 
M  END 
>  <HBA> 
2 
 
>  <HBD> 
1 
 
>  <TPSA> 
29.46 
 
>  <cid> 
6629 
 
>  <dipole> 
2.36 
 
>  <excitation_energy_1> 
5.292 
 
>  <excitation_energy_2> 
5.784 
 
>  <excitation_energy_3> 
5.969 
 
>  <excitation_energy_4> 
6.158 
 
>  <homo_energy> 
-6.773 
 
>  <homo_lumo_gap> 
6.482 
 
>  <logP> 
2.411 
 
>  <lumo_energy> 
-0.291 
 
>  <melting_point> 
42.28 
 
>  <molecular_refractivity> 
43.56 
 
>  <oscillator_strength_1> 
0.0004 
 
>  <oscillator_strength_2> 
0.0211 
 
>  <oscillator_strength_3> 
0.0043 
 
>  <oscillator_strength_4> 
0.0104 
 
>  <open_babel_can_smiles> 
OOC(c1ccccc1)(C)C 
 
>  <mulliken_charges> 
23 
1   -0.454846 
2   -0.463793 
3   -0.127589 
4   -0.12739 
5   -0.13174 
6   -0.212853 
7   -0.183964 
8   0.130313 
9   0.262892 
10   -0.411178 
11   -0.313071 
12   0.155653 
13   0.159913 
14   0.161298 
15   0.14101 
16   0.158507 
17   0.171558 
18   0.13222 
19   0.133162 
20   0.132627 
21   0.14691 
22   0.131605 
23   0.408756 
 
>  <lowdin_charges> 
23 
1   -0.441635 
2   -0.451973 
3   -0.158292 
4   -0.154599 
5   -0.15127 
6   -0.176019 
7   -0.166233 
8   -0.019581 
9   0.120482 
10   -0.33966 
11   -0.1635 
12   0.160114 
13   0.160792 
14   0.160794 
15   0.150626 
16   0.16293 
17   0.164209 
18   0.159517 
19   0.158989 
20   0.15863 
21   0.16338 
22   0.160939 
23   0.34136 
 
$$$$ 
 
