PCCDB-ID:  61584 
public computational chemistry database (PCCDB) project, http://pccdb.org 
 
 30 29  0  0  0  0  0  0  0  0999 V2000 
    0.6171   -0.1712    0.3847 C   0  0  0  0  0  0  0  0  0  0  0  0 
    2.1429   -0.0674    0.2936 C   0  0  0  0  0  0  0  0  0  0  0  0 
    2.8249   -1.4114    0.0071 C   0  0  0  0  0  0  0  0  0  0  0  0 
    4.3529   -1.3151   -0.0840 C   0  0  0  0  0  0  0  0  0  0  0  0 
    5.0283   -2.6606   -0.3758 C   0  0  0  0  0  0  0  0  0  0  0  0 
    6.5677   -2.5818   -0.4793 C   0  0  0  0  0  0  0  0  0  0  0  0 
    7.2373   -2.2108    0.8102 C   0  0  0  0  0  0  0  0  0  0  0  0 
    8.0650   -1.1640    0.9938 C   0  0  0  0  0  0  0  0  0  0  0  0 
    8.6941   -0.8565    2.2598 C   0  0  0  0  0  0  0  0  0  0  0  0 
    9.5316    0.1804    2.4865 C   0  0  0  0  0  0  0  0  0  0  0  0 
   10.1181    0.4083    3.8073 C   0  0  0  0  0  0  0  0  0  0  0  0 
   10.8773    1.3219    4.0816 O   0  0  0  0  0  0  0  0  0  0  0  0 
    0.1615    0.8041    0.5904 H   0  0  0  0  0  0  0  0  0  0  0  0 
    0.3133   -0.8561    1.1861 H   0  0  0  0  0  0  0  0  0  0  0  0 
    0.1881   -0.5479   -0.5520 H   0  0  0  0  0  0  0  0  0  0  0  0 
    2.5385    0.3461    1.2322 H   0  0  0  0  0  0  0  0  0  0  0  0 
    2.4149    0.6512   -0.4926 H   0  0  0  0  0  0  0  0  0  0  0  0 
    2.4285   -1.8259   -0.9320 H   0  0  0  0  0  0  0  0  0  0  0  0 
    2.5519   -2.1308    0.7938 H   0  0  0  0  0  0  0  0  0  0  0  0 
    4.7500   -0.9004    0.8530 H   0  0  0  0  0  0  0  0  0  0  0  0 
    4.6259   -0.5964   -0.8713 H   0  0  0  0  0  0  0  0  0  0  0  0 
    4.6393   -3.0682   -1.3187 H   0  0  0  0  0  0  0  0  0  0  0  0 
    4.7571   -3.3861    0.4051 H   0  0  0  0  0  0  0  0  0  0  0  0 
    6.8525   -1.8707   -1.2657 H   0  0  0  0  0  0  0  0  0  0  0  0 
    6.9404   -3.5680   -0.7960 H   0  0  0  0  0  0  0  0  0  0  0  0 
    7.0230   -2.8590    1.6632 H   0  0  0  0  0  0  0  0  0  0  0  0 
    8.2894   -0.5041    0.1557 H   0  0  0  0  0  0  0  0  0  0  0  0 
    8.4638   -1.5246    3.0924 H   0  0  0  0  0  0  0  0  0  0  0  0 
    9.8015    0.8819    1.6997 H   0  0  0  0  0  0  0  0  0  0  0  0 
    9.8169   -0.3347    4.5821 H   0  0  0  0  0  0  0  0  0  0  0  0 
  1 13  1  0  0  0  0 
  1 14  1  0  0  0  0 
  2  1  1  0  0  0  0 
  2 16  1  0  0  0  0 
  3  2  1  0  0  0  0 
  3 19  1  0  0  0  0 
  4  3  1  0  0  0  0 
  4 20  1  0  0  0  0 
  5  4  1  0  0  0  0 
  5 23  1  0  0  0  0 
  6  5  1  0  0  0  0 
  6  7  1  0  0  0  0 
  7  8  2  0  0  0  0 
  7 26  1  0  0  0  0 
  8  9  1  0  0  0  0 
  9 10  2  0  0  0  0 
  9 28  1  0  0  0  0 
 10 11  1  0  0  0  0 
 11 12  2  0  0  0  0 
 11 30  1  0  0  0  0 
 15  1  1  0  0  0  0 
 17  2  1  0  0  0  0 
 18  3  1  0  0  0  0 
 21  4  1  0  0  0  0 
 22  5  1  0  0  0  0 
 24  6  1  0  0  0  0 
 25  6  1  0  0  0  0 
 27  8  1  0  0  0  0 
 29 10  1  0  0  0  0 
M  END 
>  <HBA> 
1 
 
>  <HBD> 
0 
 
>  <TPSA> 
17.07 
 
>  <cid> 
61584 
 
>  <dipole> 
5.01 
 
>  <excitation_energy_1> 
3.43 
 
>  <excitation_energy_2> 
4.668 
 
>  <excitation_energy_3> 
5.991 
 
>  <excitation_energy_4> 
6.036 
 
>  <homo_energy> 
-6.523 
 
>  <homo_lumo_gap> 
4.599 
 
>  <logP> 
3.268 
 
>  <lumo_energy> 
-1.924 
 
>  <melting_point> 
21.42 
 
>  <molecular_refractivity> 
54.24 
 
>  <oscillator_strength_1> 
0.0001 
 
>  <oscillator_strength_2> 
0.9807 
 
>  <oscillator_strength_3> 
0.0216 
 
>  <oscillator_strength_4> 
0.0148 
 
>  <open_babel_can_smiles> 
CCCCCC/C=C/C=C/C=O 
 
>  <mulliken_charges> 
30 
1   -0.441831 
2   -0.247683 
3   -0.246271 
4   -0.25071 
5   -0.262874 
6   -0.312797 
7   -0.089654 
8   -0.109414 
9   -0.099121 
10   -0.16991 
11   0.227406 
12   -0.422438 
13   0.143621 
14   0.14164 
15   0.141571 
16   0.132141 
17   0.131239 
18   0.127463 
19   0.127064 
20   0.137549 
21   0.128286 
22   0.137356 
23   0.132957 
24   0.145187 
25   0.153373 
26   0.133612 
27   0.134124 
28   0.138438 
29   0.146665 
30   0.093014 
 
>  <lowdin_charges> 
30 
1   -0.445373 
2   -0.272836 
3   -0.275198 
4   -0.278372 
5   -0.273116 
6   -0.273824 
7   -0.124867 
8   -0.170779 
9   -0.1091 
10   -0.203342 
11   0.034199 
12   -0.236678 
13   0.150121 
14   0.147252 
15   0.146609 
16   0.139963 
17   0.14017 
18   0.137715 
19   0.138301 
20   0.143235 
21   0.139485 
22   0.145234 
23   0.141221 
24   0.150328 
25   0.157971 
26   0.154034 
27   0.158876 
28   0.159136 
29   0.167973 
30   0.111663 
 
$$$$ 
 
