PCCDB-ID:  11551 
public computational chemistry database (PCCDB) project, http://pccdb.org 
 
 26 25  0  0  0  0  0  0  0  0999 V2000 
    3.5627   -1.4115    0.1100 C   0  0  0  0  0  0  0  0  0  0  0  0 
    1.8923    2.4103   -3.5473 C   0  0  0  0  0  0  0  0  0  0  0  0 
    1.6835    3.6061   -1.3421 C   0  0  0  0  0  0  0  0  0  0  0  0 
    3.4997    4.2374   -2.9502 C   0  0  0  0  0  0  0  0  0  0  0  0 
    4.1383   -0.1394   -0.5206 C   0  0  0  0  0  0  0  0  0  0  0  0 
    3.0645    0.7835   -1.1150 C   0  0  0  0  0  0  0  0  0  0  0  0 
    3.6603    2.0504   -1.7459 C   0  0  0  0  0  0  0  0  0  0  0  0 
    2.6743    3.0617   -2.3895 C   0  0  0  0  0  0  0  0  0  0  0  0 
    4.3541   -2.0452    0.5269 H   0  0  0  0  0  0  0  0  0  0  0  0 
    3.0137   -2.0079   -0.6290 H   0  0  0  0  0  0  0  0  0  0  0  0 
    2.8660   -1.1716    0.9229 H   0  0  0  0  0  0  0  0  0  0  0  0 
    1.2533    3.1492   -4.0466 H   0  0  0  0  0  0  0  0  0  0  0  0 
    1.2443    1.5990   -3.1976 H   0  0  0  0  0  0  0  0  0  0  0  0 
    2.5731    1.9952   -4.3009 H   0  0  0  0  0  0  0  0  0  0  0  0 
    1.0380    4.3767   -1.7816 H   0  0  0  0  0  0  0  0  0  0  0  0 
    2.2129    4.0600   -0.4946 H   0  0  0  0  0  0  0  0  0  0  0  0 
    1.0309    2.8194   -0.9472 H   0  0  0  0  0  0  0  0  0  0  0  0 
    2.8503    4.9891   -3.4158 H   0  0  0  0  0  0  0  0  0  0  0  0 
    4.2121    3.8936   -3.7103 H   0  0  0  0  0  0  0  0  0  0  0  0 
    4.0715    4.7351   -2.1569 H   0  0  0  0  0  0  0  0  0  0  0  0 
    4.8554   -0.4143   -1.3075 H   0  0  0  0  0  0  0  0  0  0  0  0 
    4.7144    0.4152    0.2337 H   0  0  0  0  0  0  0  0  0  0  0  0 
    2.3520    1.0533   -0.3231 H   0  0  0  0  0  0  0  0  0  0  0  0 
    2.4909    0.2209   -1.8642 H   0  0  0  0  0  0  0  0  0  0  0  0 
    4.3883    1.7464   -2.5135 H   0  0  0  0  0  0  0  0  0  0  0  0 
    4.2404    2.5833   -0.9773 H   0  0  0  0  0  0  0  0  0  0  0  0 
  1  9  1  0  0  0  0 
  1 11  1  0  0  0  0 
  2 13  1  0  0  0  0 
  2  8  1  0  0  0  0 
  3 17  1  0  0  0  0 
  3 16  1  0  0  0  0 
  4  8  1  0  0  0  0 
  4 20  1  0  0  0  0 
  5  1  1  0  0  0  0 
  5 22  1  0  0  0  0 
  6  5  1  0  0  0  0 
  6 23  1  0  0  0  0 
  7  6  1  0  0  0  0 
  7 26  1  0  0  0  0 
  8  7  1  0  0  0  0 
  8  3  1  0  0  0  0 
 10  1  1  0  0  0  0 
 12  2  1  0  0  0  0 
 14  2  1  0  0  0  0 
 15  3  1  0  0  0  0 
 18  4  1  0  0  0  0 
 19  4  1  0  0  0  0 
 21  5  1  0  0  0  0 
 24  6  1  0  0  0  0 
 25  7  1  0  0  0  0 
M  END 
>  <HBA> 
0 
 
>  <HBD> 
0 
 
>  <TPSA> 
0.0 
 
>  <cid> 
11551 
 
>  <dipole> 
0.03 
 
>  <excitation_energy_1> 
7.614 
 
>  <excitation_energy_2> 
7.851 
 
>  <excitation_energy_3> 
7.949 
 
>  <excitation_energy_4> 
8.003 
 
>  <homo_energy> 
-8.057 
 
>  <homo_lumo_gap> 
10.185 
 
>  <logP> 
3.223 
 
>  <lumo_energy> 
2.128 
 
>  <melting_point> 
-9.2 
 
>  <molecular_refractivity> 
40.31 
 
>  <oscillator_strength_1> 
0.0285 
 
>  <oscillator_strength_2> 
0.0507 
 
>  <oscillator_strength_3> 
0.0539 
 
>  <oscillator_strength_4> 
0.0522 
 
>  <open_babel_can_smiles> 
CCCCC(C)(C)C 
 
>  <mulliken_charges> 
26 
1   -0.441723 
2   -0.44469 
3   -0.444976 
4   -0.440202 
5   -0.24683 
6   -0.257391 
7   -0.246911 
8   0.101391 
9   0.141046 
10   0.140735 
11   0.140639 
12   0.136422 
13   0.141798 
14   0.135801 
15   0.136416 
16   0.135737 
17   0.141867 
18   0.135744 
19   0.136401 
20   0.13627 
21   0.129578 
22   0.129666 
23   0.130385 
24   0.130467 
25   0.121123 
26   0.121236 
 
>  <lowdin_charges> 
26 
1   -0.447682 
2   -0.44741 
3   -0.447165 
4   -0.444524 
5   -0.273259 
6   -0.281437 
7   -0.276509 
8   0.013698 
9   0.149973 
10   0.147159 
11   0.146432 
12   0.14796 
13   0.147926 
14   0.146817 
15   0.147657 
16   0.146447 
17   0.148177 
18   0.146692 
19   0.146558 
20   0.146707 
21   0.139051 
22   0.139635 
23   0.13991 
24   0.140526 
25   0.138076 
26   0.138584 
 
$$$$ 
 
