PCCDB-ID:  14532 
public computational chemistry database (PCCDB) project, http://pccdb.org 
 
 23 23  0  0  0  0  0  0  0  0999 V2000 
    1.3761    0.1871    0.9418 C   0  0  0  0  0  0  0  0  0  0  0  0 
    2.8753    0.4058    1.0569 C   0  0  0  0  0  0  0  0  0  0  0  0 
    5.7067    0.1777    1.2499 C   0  0  0  0  0  0  0  0  0  0  0  0 
    7.0901   -0.0251    1.3539 C   0  0  0  0  0  0  0  0  0  0  0  0 
    5.4076   -2.2246    1.1896 C   0  0  0  0  0  0  0  0  0  0  0  0 
    4.8632   -0.9323    1.1823 C   0  0  0  0  0  0  0  0  0  0  0  0 
    7.6451   -1.2993    1.3713 C   0  0  0  0  0  0  0  0  0  0  0  0 
    6.7839   -2.4195    1.2713 C   0  0  0  0  0  0  0  0  0  0  0  0 
    9.0422   -1.5496    1.4258 N   0  0  0  0  0  0  0  0  0  0  0  0 
    7.3667   -3.6979    1.3099 N   0  0  0  0  0  0  0  0  0  0  0  0 
    3.4955   -0.8741    1.0967 O   0  0  0  0  0  0  0  0  0  0  0  0 
    0.8535    1.1497    0.9245 H   0  0  0  0  0  0  0  0  0  0  0  0 
    1.0062   -0.3942    1.7925 H   0  0  0  0  0  0  0  0  0  0  0  0 
    1.1347   -0.3567    0.0230 H   0  0  0  0  0  0  0  0  0  0  0  0 
    3.1184    0.9710    1.9690 H   0  0  0  0  0  0  0  0  0  0  0  0 
    3.2535    0.9806    0.1984 H   0  0  0  0  0  0  0  0  0  0  0  0 
    5.3166    1.1882    1.2405 H   0  0  0  0  0  0  0  0  0  0  0  0 
    7.7472    0.8396    1.4273 H   0  0  0  0  0  0  0  0  0  0  0  0 
    4.7316   -3.0723    1.1158 H   0  0  0  0  0  0  0  0  0  0  0  0 
    9.2758   -2.1933    2.1804 H   0  0  0  0  0  0  0  0  0  0  0  0 
    9.5759   -0.6948    1.5511 H   0  0  0  0  0  0  0  0  0  0  0  0 
    6.7414   -4.4344    1.0020 H   0  0  0  0  0  0  0  0  0  0  0  0 
    8.2405   -3.7301    0.7901 H   0  0  0  0  0  0  0  0  0  0  0  0 
  1  2  1  0  0  0  0 
  1 13  1  0  0  0  0 
  2 11  1  0  0  0  0 
  2 15  1  0  0  0  0 
  3  4  2  0  0  0  0 
  4  7  1  0  0  0  0 
  4 18  1  0  0  0  0 
  5  8  1  0  0  0  0 
  6  5  2  0  0  0  0 
  6  3  1  0  0  0  0 
  7  9  1  0  0  0  0 
  8 10  1  0  0  0  0 
  8  7  2  0  0  0  0 
  9 21  1  0  0  0  0 
  9 20  1  0  0  0  0 
 11  6  1  0  0  0  0 
 12  1  1  0  0  0  0 
 14  1  1  0  0  0  0 
 16  2  1  0  0  0  0 
 17  3  1  0  0  0  0 
 19  5  1  0  0  0  0 
 22 10  1  0  0  0  0 
 23 10  1  0  0  0  0 
M  END 
>  <HBA> 
3 
 
>  <HBD> 
2 
 
>  <TPSA> 
61.27 
 
>  <cid> 
14532 
 
>  <dipole> 
0.83 
 
>  <excitation_energy_1> 
4.289 
 
>  <excitation_energy_2> 
4.474 
 
>  <excitation_energy_3> 
4.78 
 
>  <excitation_energy_4> 
4.875 
 
>  <homo_energy> 
-4.797 
 
>  <homo_lumo_gap> 
5.361 
 
>  <logP> 
2.412 
 
>  <lumo_energy> 
0.563 
 
>  <melting_point> 
108.07 
 
>  <molecular_refractivity> 
46.55 
 
>  <oscillator_strength_1> 
0.0105 
 
>  <oscillator_strength_2> 
0.0823 
 
>  <oscillator_strength_3> 
0.0011 
 
>  <oscillator_strength_4> 
0.0046 
 
>  <open_babel_can_smiles> 
CCOc1ccc(c(c1)N)N 
 
>  <mulliken_charges> 
23 
1   -0.455867 
2   -0.021931 
3   -0.212559 
4   -0.196107 
5   -0.247827 
6   0.378245 
7   0.253344 
8   0.278668 
9   -0.810006 
10   -0.806668 
11   -0.528157 
12   0.144493 
13   0.161155 
14   0.160281 
15   0.135499 
16   0.135598 
17   0.122033 
18   0.111534 
19   0.119617 
20   0.321126 
21   0.312642 
22   0.316378 
23   0.328508 
 
>  <lowdin_charges> 
23 
1   -0.448599 
2   -0.124632 
3   -0.234055 
4   -0.185177 
5   -0.225411 
6   0.097867 
7   0.003557 
8   0.039716 
9   -0.515029 
10   -0.501035 
11   -0.212189 
12   0.154744 
13   0.159392 
14   0.158331 
15   0.135421 
16   0.136094 
17   0.158421 
18   0.150918 
19   0.160269 
20   0.272479 
21   0.268598 
22   0.273063 
23   0.277255 
 
$$$$ 
 
