PCCDB-ID:  69835 
public computational chemistry database (PCCDB) project, http://pccdb.org 
 
 20 20  0  0  0  0  0  0  0  0999 V2000 
    0.7046    1.3119   -0.2287 C   0  0  0  0  0  0  0  0  0  0  0  0 
    1.4484    0.0568    0.2536 C   0  0  0  0  0  0  0  0  0  0  0  0 
   -0.7668    1.2932    0.2147 C   0  0  0  0  0  0  0  0  0  0  0  0 
    0.7390   -1.2289   -0.2026 C   0  0  0  0  0  0  0  0  0  0  0  0 
   -1.4810    0.0165   -0.2561 C   0  0  0  0  0  0  0  0  0  0  0  0 
   -0.7463   -1.2559    0.1865 C   0  0  0  0  0  0  0  0  0  0  0  0 
   -2.1168   -1.6766    2.0258 O   0  0  0  0  0  0  0  0  0  0  0  0 
   -0.7446   -1.4079    1.6159 O   0  0  0  0  0  0  0  0  0  0  0  0 
    0.7509    1.3628   -1.3271 H   0  0  0  0  0  0  0  0  0  0  0  0 
    1.2026    2.2149    0.1467 H   0  0  0  0  0  0  0  0  0  0  0  0 
    1.5088    0.0675    1.3494 H   0  0  0  0  0  0  0  0  0  0  0  0 
    2.4805    0.0582   -0.1189 H   0  0  0  0  0  0  0  0  0  0  0  0 
   -1.2935    2.1777   -0.1648 H   0  0  0  0  0  0  0  0  0  0  0  0 
   -0.8101    1.3482    1.3112 H   0  0  0  0  0  0  0  0  0  0  0  0 
    1.2342   -2.1159    0.2089 H   0  0  0  0  0  0  0  0  0  0  0  0 
    0.7905   -1.3107   -1.2971 H   0  0  0  0  0  0  0  0  0  0  0  0 
   -1.5431    0.0083   -1.3537 H   0  0  0  0  0  0  0  0  0  0  0  0 
   -2.5117   -0.0193    0.1149 H   0  0  0  0  0  0  0  0  0  0  0  0 
   -1.2305   -2.1423   -0.2444 H   0  0  0  0  0  0  0  0  0  0  0  0 
   -2.2896   -0.8847    2.5656 H   0  0  0  0  0  0  0  0  0  0  0  0 
  1 10  1  0  0  0  0 
  1  3  1  0  0  0  0 
  1  2  1  0  0  0  0 
  2 11  1  0  0  0  0 
  3 14  1  0  0  0  0 
  4  6  1  0  0  0  0 
  4 15  1  0  0  0  0 
  4  2  1  0  0  0  0 
  5 18  1  0  0  0  0 
  5  6  1  0  0  0  0 
  5  3  1  0  0  0  0 
  6  8  1  0  0  0  0 
  7 20  1  0  0  0  0 
  8  7  1  0  0  0  0 
  9  1  1  0  0  0  0 
 12  2  1  0  0  0  0 
 13  3  1  0  0  0  0 
 16  4  1  0  0  0  0 
 17  5  1  0  0  0  0 
 19  6  1  0  0  0  0 
M  END 
>  <HBA> 
2 
 
>  <HBD> 
1 
 
>  <TPSA> 
29.46 
 
>  <cid> 
69835 
 
>  <dipole> 
1.74 
 
>  <excitation_energy_1> 
5.459 
 
>  <excitation_energy_2> 
6.367 
 
>  <excitation_energy_3> 
6.656 
 
>  <excitation_energy_4> 
6.883 
 
>  <homo_energy> 
-6.844 
 
>  <homo_lumo_gap> 
7.595 
 
>  <logP> 
1.809 
 
>  <lumo_energy> 
0.751 
 
>  <melting_point> 
25.53 
 
>  <molecular_refractivity> 
31.5 
 
>  <oscillator_strength_1> 
0.0008 
 
>  <oscillator_strength_2> 
0.0033 
 
>  <oscillator_strength_3> 
0.0025 
 
>  <oscillator_strength_4> 
0.0085 
 
>  <open_babel_can_smiles> 
OOC1CCCCC1 
 
>  <mulliken_charges> 
20 
1   -0.258226 
2   -0.261512 
3   -0.258402 
4   -0.290061 
5   -0.286482 
6   0.173584 
7   -0.408402 
8   -0.31516 
9   0.125885 
10   0.131942 
11   0.148078 
12   0.131871 
13   0.131652 
14   0.130246 
15   0.15218 
16   0.137384 
17   0.131201 
18   0.141286 
19   0.131298 
20   0.41164 
 
>  <lowdin_charges> 
20 
1   -0.276081 
2   -0.276497 
3   -0.27849 
4   -0.283093 
5   -0.293927 
6   -0.006058 
7   -0.345202 
8   -0.172476 
9   0.133939 
10   0.144642 
11   0.144985 
12   0.143444 
13   0.145061 
14   0.136438 
15   0.156044 
16   0.14629 
17   0.143072 
18   0.147964 
19   0.140584 
20   0.349363 
 
$$$$ 
 
