PCCDB-ID:  60268 
public computational chemistry database (PCCDB) project, http://pccdb.org 
 
 38 38  0  0  1  0  0  0  0  0999 V2000 
   10.4952   -3.9740   -3.5550 C   0  0  0  0  0  0  0  0  0  0  0  0 
    9.3936   -2.9180   -3.4193 C   0  0  0  0  0  0  0  0  0  0  0  0 
    8.3511   -3.2840   -2.3523 C   0  0  0  0  0  0  0  0  0  0  0  0 
    7.2765   -2.2113   -2.0860 C   0  0  0  0  0  0  0  0  0  0  0  0 
   12.5764    2.2001   -1.1902 C   0  0  0  0  0  0  0  0  0  0  0  0 
   13.8951    1.8290   -1.4585 C   0  0  0  0  0  0  0  0  0  0  0  0 
    7.6441   -1.1567   -1.0349 C   0  0  0  0  0  0  0  0  0  0  0  0 
   11.8755   -0.0696   -1.5580 C   0  0  0  0  0  0  0  0  0  0  0  0 
    9.1464    0.6638   -0.4152 C   0  0  0  0  0  0  0  0  0  0  0  0 
   11.5483    1.2556   -1.2372 C   0  0  0  0  0  0  0  0  0  0  0  0 
   14.2160    0.5110   -1.7802 C   0  0  0  0  0  0  0  0  0  0  0  0 
   13.1874   -0.4488   -1.8308 C   0  0  0  0  0  0  0  0  0  0  0  0 
   10.1261    1.7122   -0.9733 C   0  0  1  0  0  0  0  0  0  0  0  0 
    8.8004   -0.3459   -1.4081 N   0  0  0  0  0  0  0  0  0  0  0  0 
   15.4872    0.0879   -2.0524 O   0  0  0  0  0  0  0  0  0  0  0  0 
   13.5420   -1.7299   -2.1537 O   0  0  0  0  0  0  0  0  0  0  0  0 
    9.6014    2.2477   -2.2070 O   0  0  0  0  0  0  0  0  0  0  0  0 
   11.2256   -3.7010   -4.3258 H   0  0  0  0  0  0  0  0  0  0  0  0 
   10.0826   -4.9548   -3.8227 H   0  0  0  0  0  0  0  0  0  0  0  0 
   11.0367   -4.1047   -2.6073 H   0  0  0  0  0  0  0  0  0  0  0  0 
    8.8881   -2.7913   -4.3874 H   0  0  0  0  0  0  0  0  0  0  0  0 
    9.8378   -1.9472   -3.1756 H   0  0  0  0  0  0  0  0  0  0  0  0 
    8.8643   -3.5144   -1.4067 H   0  0  0  0  0  0  0  0  0  0  0  0 
    7.8554   -4.2156   -2.6602 H   0  0  0  0  0  0  0  0  0  0  0  0 
    6.3582   -2.7004   -1.7348 H   0  0  0  0  0  0  0  0  0  0  0  0 
    7.0061   -1.7121   -3.0289 H   0  0  0  0  0  0  0  0  0  0  0  0 
   12.3525    3.2354   -0.9468 H   0  0  0  0  0  0  0  0  0  0  0  0 
   14.6900    2.5723   -1.4177 H   0  0  0  0  0  0  0  0  0  0  0  0 
    7.8839   -1.6670   -0.0910 H   0  0  0  0  0  0  0  0  0  0  0  0 
    6.7521   -0.5318   -0.8250 H   0  0  0  0  0  0  0  0  0  0  0  0 
   11.0817   -0.8106   -1.5987 H   0  0  0  0  0  0  0  0  0  0  0  0 
    8.2488    1.2107   -0.0538 H   0  0  0  0  0  0  0  0  0  0  0  0 
    9.5859    0.1788    0.4667 H   0  0  0  0  0  0  0  0  0  0  0  0 
   10.1800    2.5213   -0.2287 H   0  0  0  0  0  0  0  0  0  0  0  0 
    8.6201    0.1389   -2.2872 H   0  0  0  0  0  0  0  0  0  0  0  0 
   16.0825    0.8505   -1.9847 H   0  0  0  0  0  0  0  0  0  0  0  0 
   12.7346   -2.2664   -2.1946 H   0  0  0  0  0  0  0  0  0  0  0  0 
    8.8030    2.7540   -1.9814 H   0  0  0  0  0  0  0  0  0  0  0  0 
  1  2  1  0  0  0  0 
  1 20  1  0  0  0  0 
  2 22  1  0  0  0  0 
  2  3  1  0  0  0  0 
  3  4  1  0  0  0  0 
  3 23  1  0  0  0  0 
  4 25  1  0  0  0  0 
  4  7  1  0  0  0  0 
  5 27  1  0  0  0  0 
  6 28  1  0  0  0  0 
  6  5  2  0  0  0  0 
  7 30  1  0  0  0  0 
  7 29  1  0  0  0  0 
  8 10  2  0  0  0  0 
  9 32  1  0  0  0  0 
  9 33  1  0  0  0  0 
 10  5  1  0  0  0  0 
 10 13  1  0  0  0  0 
 11  6  1  0  0  0  0 
 12 11  2  0  0  0  0 
 12  8  1  0  0  0  0 
 13  9  1  0  0  0  0 
 13 34  1  1  0  0  0 
 14  7  1  0  0  0  0 
 14  9  1  0  0  0  0 
 15 36  1  0  0  0  0 
 15 11  1  0  0  0  0 
 16 12  1  0  0  0  0 
 17 38  1  0  0  0  0 
 17 13  1  0  0  0  0 
 18  1  1  0  0  0  0 
 19  1  1  0  0  0  0 
 21  2  1  0  0  0  0 
 24  3  1  0  0  0  0 
 26  4  1  0  0  0  0 
 31  8  1  0  0  0  0 
 35 14  1  0  0  0  0 
 37 16  1  0  0  0  0 
M  END 
>  <HBA> 
4 
 
>  <HBD> 
4 
 
>  <TPSA> 
72.72 
 
>  <cid> 
60268 
 
>  <dipole> 
3.28 
 
>  <excitation_energy_1> 
4.701 
 
>  <excitation_energy_2> 
4.837 
 
>  <excitation_energy_3> 
4.942 
 
>  <excitation_energy_4> 
5.048 
 
>  <homo_energy> 
-5.369 
 
>  <homo_lumo_gap> 
5.649 
 
>  <logP> 
2.302 
 
>  <lumo_energy> 
0.28 
 
>  <melting_point> 
130.91 
 
>  <molecular_refractivity> 
68.26 
 
>  <oscillator_strength_1> 
0.0611 
 
>  <oscillator_strength_2> 
0.0073 
 
>  <oscillator_strength_3> 
0.0098 
 
>  <oscillator_strength_4> 
0.0067 
 
>  <open_babel_can_smiles> 
CCCCCNC[C@@H](c1ccc(c(c1)O)O)O 
 
>  <mulliken_charges> 
38 
1   -0.455388 
2   -0.263069 
3   -0.236268 
4   -0.275981 
5   -0.184245 
6   -0.199647 
7   -0.111294 
8   -0.271982 
9   -0.133264 
10   0.160215 
11   0.321437 
12   0.320763 
13   0.014803 
14   -0.557381 
15   -0.632638 
16   -0.643432 
17   -0.614784 
18   0.149702 
19   0.145626 
20   0.130957 
21   0.128887 
22   0.162014 
23   0.127597 
24   0.127123 
25   0.13347 
26   0.129775 
27   0.119923 
28   0.115074 
29   0.135971 
30   0.104694 
31   0.174184 
32   0.097521 
33   0.147135 
34   0.12042 
35   0.308201 
36   0.405496 
37   0.412506 
38   0.385881 
 
>  <lowdin_charges> 
38 
1   -0.448606 
2   -0.281514 
3   -0.273636 
4   -0.281372 
5   -0.166503 
6   -0.210158 
7   -0.200488 
8   -0.215046 
9   -0.219445 
10   -0.022951 
11   0.079306 
12   0.077539 
13   -0.003983 
14   -0.361736 
15   -0.37123 
16   -0.374758 
17   -0.466193 
18   0.152826 
19   0.148487 
20   0.138132 
21   0.137994 
22   0.150508 
23   0.138944 
24   0.139549 
25   0.147699 
26   0.139665 
27   0.154065 
28   0.153248 
29   0.13811 
30   0.114997 
31   0.176099 
32   0.113703 
33   0.149186 
34   0.13561 
35   0.256899 
36   0.357559 
37   0.357753 
38   0.33974 
 
$$$$ 
 
