PCCDB-ID:  15317 
public computational chemistry database (PCCDB) project, http://pccdb.org 
 
 22 22  0  0  0  0  0  0  0  0999 V2000 
    2.0531   -0.0893    2.9062 C   0  0  0  0  0  0  0  0  0  0  0  0 
    4.7412   -1.8009    0.8643 C   0  0  0  0  0  0  0  0  0  0  0  0 
    2.8818    0.7571    2.2933 C   0  0  0  0  0  0  0  0  0  0  0  0 
    7.4391    0.7523   -0.0106 C   0  0  0  0  0  0  0  0  0  0  0  0 
    6.7144    1.9415   -0.0543 C   0  0  0  0  0  0  0  0  0  0  0  0 
    3.1849    0.7649    0.8115 C   0  0  0  0  0  0  0  0  0  0  0  0 
    6.7832   -0.4423    0.2881 C   0  0  0  0  0  0  0  0  0  0  0  0 
    5.3434    1.9172    0.2029 C   0  0  0  0  0  0  0  0  0  0  0  0 
    5.4084   -0.4810    0.5515 C   0  0  0  0  0  0  0  0  0  0  0  0 
    4.6755    0.7252    0.5081 C   0  0  0  0  0  0  0  0  0  0  0  0 
    1.8665   -0.0335    3.9754 H   0  0  0  0  0  0  0  0  0  0  0  0 
    1.5237   -0.8680    2.3602 H   0  0  0  0  0  0  0  0  0  0  0  0 
    5.4744   -2.6132    0.8848 H   0  0  0  0  0  0  0  0  0  0  0  0 
    3.9842   -2.0609    0.1123 H   0  0  0  0  0  0  0  0  0  0  0  0 
    4.2311   -1.7774    1.8337 H   0  0  0  0  0  0  0  0  0  0  0  0 
    3.3960    1.5209    2.8779 H   0  0  0  0  0  0  0  0  0  0  0  0 
    8.5073    0.7503   -0.2108 H   0  0  0  0  0  0  0  0  0  0  0  0 
    7.2078    2.8805   -0.2906 H   0  0  0  0  0  0  0  0  0  0  0  0 
    2.7696    1.6839    0.3740 H   0  0  0  0  0  0  0  0  0  0  0  0 
    2.6630   -0.0713    0.3303 H   0  0  0  0  0  0  0  0  0  0  0  0 
    7.3488   -1.3711    0.3178 H   0  0  0  0  0  0  0  0  0  0  0  0 
    4.7743    2.8441    0.1641 H   0  0  0  0  0  0  0  0  0  0  0  0 
  1 11  1  0  0  0  0 
  2 13  1  0  0  0  0 
  2 15  1  0  0  0  0 
  3 16  1  0  0  0  0 
  3  1  2  0  0  0  0 
  4  7  1  0  0  0  0 
  5  4  2  0  0  0  0 
  5  8  1  0  0  0  0 
  6  3  1  0  0  0  0 
  7 21  1  0  0  0  0 
  7  9  2  0  0  0  0 
  8 10  2  0  0  0  0 
  9  2  1  0  0  0  0 
 10  9  1  0  0  0  0 
 10  6  1  0  0  0  0 
 12  1  1  0  0  0  0 
 14  2  1  0  0  0  0 
 17  4  1  0  0  0  0 
 18  5  1  0  0  0  0 
 19  6  1  0  0  0  0 
 20  6  1  0  0  0  0 
 22  8  1  0  0  0  0 
M  END 
>  <HBA> 
0 
 
>  <HBD> 
0 
 
>  <TPSA> 
0.0 
 
>  <cid> 
15317 
 
>  <dipole> 
0.24 
 
>  <excitation_energy_1> 
5.17 
 
>  <excitation_energy_2> 
5.673 
 
>  <excitation_energy_3> 
5.861 
 
>  <excitation_energy_4> 
6.012 
 
>  <homo_energy> 
-6.305 
 
>  <homo_lumo_gap> 
6.305 
 
>  <logP> 
2.724 
 
>  <lumo_energy> 
0.0 
 
>  <melting_point> 
-9.94 
 
>  <molecular_refractivity> 
45.51 
 
>  <oscillator_strength_1> 
0.0129 
 
>  <oscillator_strength_2> 
0.0606 
 
>  <oscillator_strength_3> 
0.025 
 
>  <oscillator_strength_4> 
0.0141 
 
>  <open_babel_can_smiles> 
C=CCc1ccccc1C 
 
>  <mulliken_charges> 
22 
1   -0.343362 
2   -0.540948 
3   -0.029132 
4   -0.126192 
5   -0.128503 
6   -0.395376 
7   -0.184936 
8   -0.187863 
9   0.14146 
10   0.113039 
11   0.140756 
12   0.135695 
13   0.151597 
14   0.156478 
15   0.172416 
16   0.132712 
17   0.125562 
18   0.125352 
19   0.154243 
20   0.147052 
21   0.119861 
22   0.120089 
 
>  <lowdin_charges> 
22 
1   -0.345749 
2   -0.447888 
3   -0.140389 
4   -0.156927 
5   -0.162328 
6   -0.272757 
7   -0.167862 
8   -0.168797 
9   -0.003028 
10   -0.011076 
11   0.157691 
12   0.154885 
13   0.156166 
14   0.157463 
15   0.166075 
16   0.154606 
17   0.154287 
18   0.156203 
19   0.158381 
20   0.155158 
21   0.153307 
22   0.152581 
 
$$$$ 
 
