PCCDB-ID:  10979 
public computational chemistry database (PCCDB) project, http://pccdb.org 
 
 13 12  0  0  0  0  0  0  0  0999 V2000 
    0.3738    1.5673    0.7594 C   0  0  0  0  0  0  0  0  0  0  0  0 
    1.7630    1.0948    0.3175 C   0  0  0  0  0  0  0  0  0  0  0  0 
    1.7515   -0.3575   -0.1482 C   0  0  0  0  0  0  0  0  0  0  0  0 
    3.2450   -0.9085   -1.8778 N   0  0  0  0  0  0  0  0  0  0  0  0 
    4.3440   -1.2459   -2.1506 O   0  0  0  0  0  0  0  0  0  0  0  0 
    3.0826   -0.8046   -0.4691 O   0  0  0  0  0  0  0  0  0  0  0  0 
    0.4037    2.6110    1.0885 H   0  0  0  0  0  0  0  0  0  0  0  0 
   -0.0051    0.9669    1.5952 H   0  0  0  0  0  0  0  0  0  0  0  0 
   -0.3532    1.4976   -0.0587 H   0  0  0  0  0  0  0  0  0  0  0  0 
    2.4780    1.1946    1.1435 H   0  0  0  0  0  0  0  0  0  0  0  0 
    2.1369    1.7235   -0.5005 H   0  0  0  0  0  0  0  0  0  0  0  0 
    1.1187   -0.4887   -1.0340 H   0  0  0  0  0  0  0  0  0  0  0  0 
    1.3904   -1.0263    0.6408 H   0  0  0  0  0  0  0  0  0  0  0  0 
  1  7  1  0  0  0  0 
  1  8  1  0  0  0  0 
  2  1  1  0  0  0  0 
  2 10  1  0  0  0  0 
  3  2  1  0  0  0  0 
  3 13  1  0  0  0  0 
  4  6  1  0  0  0  0 
  5  4  1  0  0  0  0 
  6  3  1  0  0  0  0 
  9  1  1  0  0  0  0 
 11  2  1  0  0  0  0 
 12  3  1  0  0  0  0 
M  RAD  2   4   2   5   2 
M  END 
>  <HBA> 
1 
 
>  <HBD> 
0 
 
>  <TPSA> 
38.66 
 
>  <cid> 
10979 
 
>  <dipole> 
2.72 
 
>  <excitation_energy_1> 
3.396 
 
>  <excitation_energy_2> 
5.475 
 
>  <excitation_energy_3> 
6.212 
 
>  <excitation_energy_4> 
6.508 
 
>  <homo_energy> 
-7.339 
 
>  <homo_lumo_gap> 
5.312 
 
>  <logP> 
1.094 
 
>  <lumo_energy> 
-2.027 
 
>  <melting_point> 
-12.12 
 
>  <molecular_refractivity> 
22.36 
 
>  <oscillator_strength_1> 
0.0009 
 
>  <oscillator_strength_2> 
0.0834 
 
>  <oscillator_strength_3> 
0.0015 
 
>  <oscillator_strength_4> 
0.0009 
 
>  <open_babel_can_smiles> 
CCCO[N][O] 
 
>  <mulliken_charges> 
13 
1   -0.45434 
2   -0.264395 
3   -0.036222 
4   0.278418 
5   -0.240064 
6   -0.355091 
7   0.156779 
8   0.149136 
9   0.149782 
10   0.155415 
11   0.149197 
12   0.155359 
13   0.156023 
 
>  <lowdin_charges> 
13 
1   -0.445348 
2   -0.285266 
3   -0.148467 
4   0.132057 
5   -0.126528 
6   -0.192793 
7   0.157178 
8   0.151233 
9   0.151124 
10   0.153402 
11   0.150962 
12   0.149197 
13   0.15325 
 
$$$$ 
 
