PCCDB-ID:  21894 
public computational chemistry database (PCCDB) project, http://pccdb.org 
 
 14 14  0  0  0  0  0  0  0  0999 V2000 
   -0.7882   -0.9129   -0.1492 C   0  0  0  0  0  0  0  0  0  0  0  0 
    0.7499   -0.8944   -0.0486 C   0  0  0  0  0  0  0  0  0  0  0  0 
   -1.2463    3.2144   -1.0056 C   0  0  0  0  0  0  0  0  0  0  0  0 
    1.2180    3.2426   -0.8476 C   0  0  0  0  0  0  0  0  0  0  0  0 
   -0.0151    2.5310   -0.7867 C   0  0  0  0  0  0  0  0  0  0  0  0 
   -0.0170    1.1872   -0.5169 C   0  0  0  0  0  0  0  0  0  0  0  0 
   -2.2487    3.7780   -1.1854 N   0  0  0  0  0  0  0  0  0  0  0  0 
    2.2221    3.8290   -0.8985 N   0  0  0  0  0  0  0  0  0  0  0  0 
   -1.1310    0.4593   -0.4425 O   0  0  0  0  0  0  0  0  0  0  0  0 
    1.0955    0.4848   -0.3035 O   0  0  0  0  0  0  0  0  0  0  0  0 
   -1.2817   -1.1919    0.7842 H   0  0  0  0  0  0  0  0  0  0  0  0 
   -1.1630   -1.5363   -0.9639 H   0  0  0  0  0  0  0  0  0  0  0  0 
    1.2424   -1.5108   -0.8037 H   0  0  0  0  0  0  0  0  0  0  0  0 
    1.1242   -1.1587    0.9428 H   0  0  0  0  0  0  0  0  0  0  0  0 
  1  2  1  0  0  0  0 
  1 11  1  0  0  0  0 
  2 14  1  0  0  0  0 
  3  5  1  0  0  0  0 
  4  5  1  0  0  0  0 
  5  6  2  0  0  0  0 
  6  9  1  0  0  0  0 
  6 10  1  0  0  0  0 
  7  3  3  0  0  0  0 
  8  4  3  0  0  0  0 
  9  1  1  0  0  0  0 
 10  2  1  0  0  0  0 
 12  1  1  0  0  0  0 
 13  2  1  0  0  0  0 
M  END 
>  <HBA> 
4 
 
>  <HBD> 
0 
 
>  <TPSA> 
66.04 
 
>  <cid> 
21894 
 
>  <dipole> 
9.65 
 
>  <excitation_energy_1> 
5.421 
 
>  <excitation_energy_2> 
5.456 
 
>  <excitation_energy_3> 
5.544 
 
>  <excitation_energy_4> 
5.8 
 
>  <homo_energy> 
-6.757 
 
>  <homo_lumo_gap> 
5.567 
 
>  <logP> 
0.292 
 
>  <lumo_energy> 
-1.189 
 
>  <melting_point> 
62.55 
 
>  <molecular_refractivity> 
30.04 
 
>  <oscillator_strength_1> 
0.0008 
 
>  <oscillator_strength_2> 
0.4812 
 
>  <oscillator_strength_3> 
0.0003 
 
>  <oscillator_strength_4> 
0.0031 
 
>  <open_babel_can_smiles> 
N#CC(=C1OCCO1)C#N 
 
>  <mulliken_charges> 
14 
1   -0.078886 
2   -0.078868 
3   0.296108 
4   0.29608 
5   -0.014542 
6   0.66889 
7   -0.478872 
8   -0.478887 
9   -0.458865 
10   -0.458826 
11   0.196705 
12   0.196647 
13   0.196676 
14   0.196638 
 
>  <lowdin_charges> 
14 
1   -0.128087 
2   -0.127762 
3   -0.005079 
4   -0.005165 
5   -0.132418 
6   0.226157 
7   -0.115532 
8   -0.115491 
9   -0.145441 
10   -0.145454 
11   0.173265 
12   0.174064 
13   0.174476 
14   0.172468 
 
$$$$ 
 
