PCCDB-ID:  66970 
public computational chemistry database (PCCDB) project, http://pccdb.org 
 
 17 16  0  0  0  0  0  0  0  0999 V2000 
    1.3221   -0.7283    1.9746 C   0  0  0  0  0  0  0  0  0  0  0  0 
    2.6097   -0.6581    1.1697 C   0  0  0  0  0  0  0  0  0  0  0  0 
    5.7079   -2.5387    1.8007 C   0  0  0  0  0  0  0  0  0  0  0  0 
    4.8200   -1.5172    1.1091 C   0  0  0  0  0  0  0  0  0  0  0  0 
    5.1375   -3.8781    1.6395 N   0  0  0  0  0  0  0  0  0  0  0  0 
    3.5715   -1.4984    1.7842 O   0  0  0  0  0  0  0  0  0  0  0  0 
    0.5546   -0.0874    1.5268 H   0  0  0  0  0  0  0  0  0  0  0  0 
    1.4943   -0.3975    3.0040 H   0  0  0  0  0  0  0  0  0  0  0  0 
    0.9435   -1.7553    2.0033 H   0  0  0  0  0  0  0  0  0  0  0  0 
    2.9849    0.3792    1.1288 H   0  0  0  0  0  0  0  0  0  0  0  0 
    2.4353   -0.9797    0.1288 H   0  0  0  0  0  0  0  0  0  0  0  0 
    5.8415   -2.2216    2.8507 H   0  0  0  0  0  0  0  0  0  0  0  0 
    6.6976   -2.5165    1.3269 H   0  0  0  0  0  0  0  0  0  0  0  0 
    4.6801   -1.8020    0.0539 H   0  0  0  0  0  0  0  0  0  0  0  0 
    5.2873   -0.5182    1.1387 H   0  0  0  0  0  0  0  0  0  0  0  0 
    4.2026   -3.8714    2.0446 H   0  0  0  0  0  0  0  0  0  0  0  0 
    5.6805   -4.5532    2.1749 H   0  0  0  0  0  0  0  0  0  0  0  0 
  1  9  1  0  0  0  0 
  1  8  1  0  0  0  0 
  2  6  1  0  0  0  0 
  2  1  1  0  0  0  0 
  3 12  1  0  0  0  0 
  4 15  1  0  0  0  0 
  4  6  1  0  0  0  0 
  4  3  1  0  0  0  0 
  5  3  1  0  0  0  0 
  5 16  1  0  0  0  0 
  5 17  1  0  0  0  0 
  7  1  1  0  0  0  0 
 10  2  1  0  0  0  0 
 11  2  1  0  0  0  0 
 13  3  1  0  0  0  0 
 14  4  1  0  0  0  0 
M  END 
>  <HBA> 
2 
 
>  <HBD> 
1 
 
>  <TPSA> 
35.25 
 
>  <cid> 
66970 
 
>  <dipole> 
0.95 
 
>  <excitation_energy_1> 
5.755 
 
>  <excitation_energy_2> 
6.378 
 
>  <excitation_energy_3> 
6.504 
 
>  <excitation_energy_4> 
6.603 
 
>  <homo_energy> 
-6.174 
 
>  <homo_lumo_gap> 
8.563 
 
>  <logP> 
0.682 
 
>  <lumo_energy> 
2.389 
 
>  <melting_point> 
20.06 
 
>  <molecular_refractivity> 
25.13 
 
>  <oscillator_strength_1> 
0.0082 
 
>  <oscillator_strength_2> 
0.0158 
 
>  <oscillator_strength_3> 
0.0055 
 
>  <oscillator_strength_4> 
0.0145 
 
>  <open_babel_can_smiles> 
NCCOCC 
 
>  <mulliken_charges> 
17 
1   -0.454002 
2   -0.000184 
3   -0.144619 
4   -0.005382 
5   -0.72104 
6   -0.480632 
7   0.143246 
8   0.157109 
9   0.156386 
10   0.117272 
11   0.121975 
12   0.123479 
13   0.137774 
14   0.131772 
15   0.115161 
16   0.308276 
17   0.293409 
 
>  <lowdin_charges> 
17 
1   -0.448308 
2   -0.121301 
3   -0.207817 
4   -0.130982 
5   -0.56272 
6   -0.282018 
7   0.155281 
8   0.155249 
9   0.154975 
10   0.122879 
11   0.12525 
12   0.123145 
13   0.144845 
14   0.13225 
15   0.126306 
16   0.258166 
17   0.2548 
 
$$$$ 
 
