PCCDB-ID:  38109 
public computational chemistry database (PCCDB) project, http://pccdb.org 
 
 34 35  0  0  0  0  0  0  0  0999 V2000 
    1.4088   -0.9285    1.0463 C   0  0  0  0  0  0  0  0  0  0  0  0 
    7.1132    7.6447    1.3329 C   0  0  0  0  0  0  0  0  0  0  0  0 
    7.2606    6.5770    0.2370 C   0  0  0  0  0  0  0  0  0  0  0  0 
    5.6542    7.7335    1.8067 C   0  0  0  0  0  0  0  0  0  0  0  0 
    3.2952    3.4842    1.3367 C   0  0  0  0  0  0  0  0  0  0  0  0 
    3.0160    2.4918   -0.8476 C   0  0  0  0  0  0  0  0  0  0  0  0 
    2.7569    2.3491    1.9220 C   0  0  0  0  0  0  0  0  0  0  0  0 
    2.4743    1.3456   -0.2715 C   0  0  0  0  0  0  0  0  0  0  0  0 
    6.2618    6.8221   -0.9024 C   0  0  0  0  0  0  0  0  0  0  0  0 
    4.7032    7.9303    0.6144 C   0  0  0  0  0  0  0  0  0  0  0  0 
    3.4343    3.5699   -0.0599 C   0  0  0  0  0  0  0  0  0  0  0  0 
    2.3446    1.2696    1.1227 C   0  0  0  0  0  0  0  0  0  0  0  0 
    4.0003    4.7562   -0.7566 C   0  0  0  0  0  0  0  0  0  0  0  0 
    4.8542    6.9507   -0.4735 N   0  0  0  0  0  0  0  0  0  0  0  0 
    4.0798    4.8765   -1.9602 O   0  0  0  0  0  0  0  0  0  0  0  0 
    1.8362    0.2015    1.7942 O   0  0  0  0  0  0  0  0  0  0  0  0 
    4.4558    5.6796    0.1408 O   0  0  0  0  0  0  0  0  0  0  0  0 
    1.0495   -1.6519    1.7799 H   0  0  0  0  0  0  0  0  0  0  0  0 
    2.2366   -1.3690    0.4760 H   0  0  0  0  0  0  0  0  0  0  0  0 
    0.5921   -0.6711    0.3597 H   0  0  0  0  0  0  0  0  0  0  0  0 
    7.4250    8.6212    0.9317 H   0  0  0  0  0  0  0  0  0  0  0  0 
    7.7796    7.4267    2.1764 H   0  0  0  0  0  0  0  0  0  0  0  0 
    7.0840    5.5816    0.6632 H   0  0  0  0  0  0  0  0  0  0  0  0 
    8.2801    6.5741   -0.1690 H   0  0  0  0  0  0  0  0  0  0  0  0 
    5.5217    8.5616    2.5144 H   0  0  0  0  0  0  0  0  0  0  0  0 
    5.3809    6.8123    2.3355 H   0  0  0  0  0  0  0  0  0  0  0  0 
    3.6099    4.3135    1.9601 H   0  0  0  0  0  0  0  0  0  0  0  0 
    3.1221    2.5675   -1.9249 H   0  0  0  0  0  0  0  0  0  0  0  0 
    2.6435    2.2679    2.9984 H   0  0  0  0  0  0  0  0  0  0  0  0 
    2.1599    0.5262   -0.9075 H   0  0  0  0  0  0  0  0  0  0  0  0 
    6.2940    6.0384   -1.6622 H   0  0  0  0  0  0  0  0  0  0  0  0 
    6.4856    7.7721   -1.4062 H   0  0  0  0  0  0  0  0  0  0  0  0 
    4.8865    8.9041    0.1413 H   0  0  0  0  0  0  0  0  0  0  0  0 
    3.6550    7.9103    0.9275 H   0  0  0  0  0  0  0  0  0  0  0  0 
  1 18  1  0  0  0  0 
  1 16  1  0  0  0  0 
  2  4  1  0  0  0  0 
  2 22  1  0  0  0  0 
  3 23  1  0  0  0  0 
  3  2  1  0  0  0  0 
  4 26  1  0  0  0  0 
  4 25  1  0  0  0  0 
  5  7  1  0  0  0  0 
  5 27  1  0  0  0  0 
  6  8  2  0  0  0  0 
  6 11  1  0  0  0  0 
  7 29  1  0  0  0  0 
  8 12  1  0  0  0  0 
  9 14  1  0  0  0  0 
  9  3  1  0  0  0  0 
 10 34  1  0  0  0  0 
 10  4  1  0  0  0  0 
 11  5  2  0  0  0  0 
 12 16  1  0  0  0  0 
 12  7  2  0  0  0  0 
 13 11  1  0  0  0  0 
 13 17  1  0  0  0  0 
 14 17  1  0  0  0  0 
 14 10  1  0  0  0  0 
 15 13  2  0  0  0  0 
 19  1  1  0  0  0  0 
 20  1  1  0  0  0  0 
 21  2  1  0  0  0  0 
 24  3  1  0  0  0  0 
 28  6  1  0  0  0  0 
 30  8  1  0  0  0  0 
 31  9  1  0  0  0  0 
 32  9  1  0  0  0  0 
 33 10  1  0  0  0  0 
M  END 
>  <HBA> 
4 
 
>  <HBD> 
0 
 
>  <TPSA> 
38.77 
 
>  <cid> 
38109 
 
>  <dipole> 
2.53 
 
>  <excitation_energy_1> 
4.379 
 
>  <excitation_energy_2> 
4.886 
 
>  <excitation_energy_3> 
4.904 
 
>  <excitation_energy_4> 
4.979 
 
>  <homo_energy> 
-6.0 
 
>  <homo_lumo_gap> 
5.157 
 
>  <logP> 
2.191 
 
>  <lumo_energy> 
-0.844 
 
>  <melting_point> 
60.27 
 
>  <molecular_refractivity> 
68.14 
 
>  <oscillator_strength_1> 
0.1158 
 
>  <oscillator_strength_2> 
0.0054 
 
>  <oscillator_strength_3> 
0.0006 
 
>  <oscillator_strength_4> 
0.3327 
 
>  <open_babel_can_smiles> 
COc1ccc(cc1)C(=O)ON1CCCCC1 
 
>  <mulliken_charges> 
34 
1   -0.218651 
2   -0.26279 
3   -0.268506 
4   -0.270821 
5   -0.166848 
6   -0.164287 
7   -0.179636 
8   -0.202756 
9   -0.149264 
10   -0.134997 
11   0.044026 
12   0.387262 
13   0.622515 
14   -0.167956 
15   -0.484633 
16   -0.502188 
17   -0.431565 
18   0.173769 
19   0.156913 
20   0.157343 
21   0.127482 
22   0.136458 
23   0.148088 
24   0.135707 
25   0.134267 
26   0.150586 
27   0.154223 
28   0.164407 
29   0.142474 
30   0.137804 
31   0.178617 
32   0.146699 
33   0.149403 
34   0.156857 
 
>  <lowdin_charges> 
34 
1   -0.280619 
2   -0.279155 
3   -0.292688 
4   -0.295302 
5   -0.134626 
6   -0.11672 
7   -0.18239 
8   -0.215545 
9   -0.217684 
10   -0.211851 
11   -0.065537 
12   0.113968 
13   0.190563 
14   -0.041308 
15   -0.259677 
16   -0.190126 
17   -0.166406 
18   0.166402 
19   0.1495 
20   0.149036 
21   0.136609 
22   0.146802 
23   0.147385 
24   0.147852 
25   0.148373 
26   0.14802 
27   0.171415 
28   0.175868 
29   0.16697 
30   0.166161 
31   0.166905 
32   0.151291 
33   0.151837 
34   0.154676 
 
$$$$ 
 
