PCCDB-ID:  17446 
public computational chemistry database (PCCDB) project, http://pccdb.org 
 
 26 26  0  0  0  0  0  0  0  0999 V2000 
    1.0256   -0.3814   -0.0649 C   0  0  0  0  0  0  0  0  0  0  0  0 
    4.5507   -1.8816   -0.0603 C   0  0  0  0  0  0  0  0  0  0  0  0 
    5.3337   -0.7320   -0.0307 C   0  0  0  0  0  0  0  0  0  0  0  0 
    3.1575   -1.7611   -0.0727 C   0  0  0  0  0  0  0  0  0  0  0  0 
    4.7337    0.5311   -0.0131 C   0  0  0  0  0  0  0  0  0  0  0  0 
    2.3852    4.1753    0.0944 C   0  0  0  0  0  0  0  0  0  0  0  0 
    3.3995    3.0385    0.0630 C   0  0  0  0  0  0  0  0  0  0  0  0 
    2.5270   -0.5169   -0.0556 C   0  0  0  0  0  0  0  0  0  0  0  0 
    3.3402    0.6361   -0.0243 C   0  0  0  0  0  0  0  0  0  0  0  0 
    2.0822    6.5331    0.1175 N   0  0  0  0  0  0  0  0  0  0  0  0 
    3.0923    5.4539    0.2027 N   0  0  0  0  0  0  0  0  0  0  0  0 
    2.6601    1.8258   -0.0096 O   0  0  0  0  0  0  0  0  0  0  0  0 
    0.5464   -1.3588   -0.1755 H   0  0  0  0  0  0  0  0  0  0  0  0 
    0.6866    0.2651   -0.8825 H   0  0  0  0  0  0  0  0  0  0  0  0 
    0.6586    0.0753    0.8631 H   0  0  0  0  0  0  0  0  0  0  0  0 
    5.0135   -2.8643   -0.0728 H   0  0  0  0  0  0  0  0  0  0  0  0 
    6.4180   -0.8047   -0.0206 H   0  0  0  0  0  0  0  0  0  0  0  0 
    2.5391   -2.6558   -0.0961 H   0  0  0  0  0  0  0  0  0  0  0  0 
    5.3556    1.4189    0.0109 H   0  0  0  0  0  0  0  0  0  0  0  0 
    1.7554    4.0528    0.9849 H   0  0  0  0  0  0  0  0  0  0  0  0 
    1.7240    4.1188   -0.7844 H   0  0  0  0  0  0  0  0  0  0  0  0 
    4.0260    3.0605    0.9640 H   0  0  0  0  0  0  0  0  0  0  0  0 
    4.0615    3.1312   -0.8120 H   0  0  0  0  0  0  0  0  0  0  0  0 
    2.6283    7.3839    0.2771 H   0  0  0  0  0  0  0  0  0  0  0  0 
    1.5543    6.4368    0.9897 H   0  0  0  0  0  0  0  0  0  0  0  0 
    3.6139    5.5672   -0.6694 H   0  0  0  0  0  0  0  0  0  0  0  0 
  1  8  1  0  0  0  0 
  1 15  1  0  0  0  0 
  2  3  1  0  0  0  0 
  3 17  1  0  0  0  0 
  3  5  2  0  0  0  0 
  4  2  2  0  0  0  0 
  4  8  1  0  0  0  0 
  5 19  1  0  0  0  0 
  6 11  1  0  0  0  0 
  6 20  1  0  0  0  0 
  7  6  1  0  0  0  0 
  7 22  1  0  0  0  0 
  8  9  2  0  0  0  0 
  9  5  1  0  0  0  0 
  9 12  1  0  0  0  0 
 10 11  1  0  0  0  0 
 10 24  1  0  0  0  0 
 10 25  1  0  0  0  0 
 12  7  1  0  0  0  0 
 13  1  1  0  0  0  0 
 14  1  1  0  0  0  0 
 16  2  1  0  0  0  0 
 18  4  1  0  0  0  0 
 21  6  1  0  0  0  0 
 23  7  1  0  0  0  0 
 26 11  1  0  0  0  0 
M  END 
>  <HBA> 
3 
 
>  <HBD> 
2 
 
>  <TPSA> 
47.28 
 
>  <cid> 
17446 
 
>  <dipole> 
1.43 
 
>  <excitation_energy_1> 
4.826 
 
>  <excitation_energy_2> 
5.034 
 
>  <excitation_energy_3> 
5.262 
 
>  <excitation_energy_4> 
5.323 
 
>  <homo_energy> 
-5.51 
 
>  <homo_lumo_gap> 
5.733 
 
>  <logP> 
1.928 
 
>  <lumo_energy> 
0.223 
 
>  <melting_point> 
94.02 
 
>  <molecular_refractivity> 
48.22 
 
>  <oscillator_strength_1> 
0.0023 
 
>  <oscillator_strength_2> 
0.0333 
 
>  <oscillator_strength_3> 
0.0013 
 
>  <oscillator_strength_4> 
0.014 
 
>  <open_babel_can_smiles> 
NNCCOc1ccccc1C 
 
>  <mulliken_charges> 
26 
1   -0.512923 
2   -0.127911 
3   -0.142506 
4   -0.190078 
5   -0.193381 
6   -0.13331 
7   -0.036142 
8   0.12293 
9   0.327309 
10   -0.590736 
11   -0.479101 
12   -0.527109 
13   0.146144 
14   0.164842 
15   0.162269 
16   0.122473 
17   0.12589 
18   0.12039 
19   0.132446 
20   0.15072 
21   0.14825 
22   0.155373 
23   0.134018 
24   0.306336 
25   0.306496 
26   0.307311 
 
>  <lowdin_charges> 
26 
1   -0.438009 
2   -0.177479 
3   -0.150842 
4   -0.1615 
5   -0.21431 
6   -0.215464 
7   -0.130029 
8   -0.024202 
9   0.094323 
10   -0.492588 
11   -0.321925 
12   -0.202067 
13   0.153203 
14   0.163429 
15   0.161394 
16   0.15534 
17   0.154059 
18   0.154832 
19   0.161986 
20   0.147813 
21   0.138456 
22   0.146552 
23   0.135213 
24   0.255824 
25   0.253851 
26   0.25214 
 
$$$$ 
 
