PCCDB-ID:  7135 
public computational chemistry database (PCCDB) project, http://pccdb.org 
 
 23 23  0  0  0  0  0  0  0  0999 V2000 
    0.5377   -0.4073    2.8334 C   0  0  0  0  0  0  0  0  0  0  0  0 
    2.4665    1.5453    5.9984 C   0  0  0  0  0  0  0  0  0  0  0  0 
    1.0827    4.5187    2.1682 C   0  0  0  0  0  0  0  0  0  0  0  0 
    1.1039    4.7045    3.5480 C   0  0  0  0  0  0  0  0  0  0  0  0 
    1.4754    3.2923    1.6306 C   0  0  0  0  0  0  0  0  0  0  0  0 
    1.5127    3.6648    4.3887 C   0  0  0  0  0  0  0  0  0  0  0  0 
    1.7933   -0.0845    2.0564 C   0  0  0  0  0  0  0  0  0  0  0  0 
    1.8648    2.2262    2.4495 C   0  0  0  0  0  0  0  0  0  0  0  0 
    1.8902    2.4307    3.8524 C   0  0  0  0  0  0  0  0  0  0  0  0 
    2.3359    1.0446    1.8606 N   0  0  0  0  0  0  0  0  0  0  0  0 
    2.4098   -1.1562    1.4792 O   0  0  0  0  0  0  0  0  0  0  0  0 
    2.3018    1.3590    4.6035 O   0  0  0  0  0  0  0  0  0  0  0  0 
   -0.0087    0.5031    3.0839 H   0  0  0  0  0  0  0  0  0  0  0  0 
    0.7924   -0.9215    3.7671 H   0  0  0  0  0  0  0  0  0  0  0  0 
   -0.1202   -1.0607    2.2461 H   0  0  0  0  0  0  0  0  0  0  0  0 
    2.8537    0.5999    6.3840 H   0  0  0  0  0  0  0  0  0  0  0  0 
    1.5136    1.7744    6.4951 H   0  0  0  0  0  0  0  0  0  0  0  0 
    3.1852    2.3463    6.2158 H   0  0  0  0  0  0  0  0  0  0  0  0 
    0.7732    5.3241    1.5083 H   0  0  0  0  0  0  0  0  0  0  0  0 
    0.8097    5.6563    3.9817 H   0  0  0  0  0  0  0  0  0  0  0  0 
    1.4919    3.1341    0.5562 H   0  0  0  0  0  0  0  0  0  0  0  0 
    1.5323    3.8232    5.4612 H   0  0  0  0  0  0  0  0  0  0  0  0 
    1.8920   -1.9553    1.6603 H   0  0  0  0  0  0  0  0  0  0  0  0 
  1 13  1  0  0  0  0 
  1 14  1  0  0  0  0 
  2 18  1  0  0  0  0 
  2 16  1  0  0  0  0 
  2 17  1  0  0  0  0 
  3  4  1  0  0  0  0 
  4 20  1  0  0  0  0 
  4  6  2  0  0  0  0 
  5  3  2  0  0  0  0 
  5  8  1  0  0  0  0 
  6 22  1  0  0  0  0 
  7  1  1  0  0  0  0 
  8  9  2  0  0  0  0 
  9  6  1  0  0  0  0 
  9 12  1  0  0  0  0 
 10  7  2  0  0  0  0 
 10  8  1  0  0  0  0 
 11 23  1  0  0  0  0 
 11  7  1  0  0  0  0 
 12  2  1  0  0  0  0 
 15  1  1  0  0  0  0 
 19  3  1  0  0  0  0 
 21  5  1  0  0  0  0 
M  END 
>  <HBA> 
3 
 
>  <HBD> 
1 
 
>  <TPSA> 
38.33 
 
>  <cid> 
7135 
 
>  <dipole> 
4.13 
 
>  <excitation_energy_1> 
4.498 
 
>  <excitation_energy_2> 
4.716 
 
>  <excitation_energy_3> 
4.965 
 
>  <excitation_energy_4> 
5.13 
 
>  <homo_energy> 
-5.353 
 
>  <homo_lumo_gap> 
5.344 
 
>  <logP> 
1.727 
 
>  <lumo_energy> 
-0.008 
 
>  <melting_point> 
64.7 
 
>  <molecular_refractivity> 
47.25 
 
>  <oscillator_strength_1> 
0.1165 
 
>  <oscillator_strength_2> 
0.01 
 
>  <oscillator_strength_3> 
0.0143 
 
>  <oscillator_strength_4> 
0.0019 
 
>  <open_babel_can_smiles> 
COc1ccccc1/N=C(/O)\C 
 
>  <mulliken_charges> 
23 
1   -0.541781 
2   -0.213223 
3   -0.138869 
4   -0.140273 
5   -0.162555 
6   -0.204562 
7   0.498343 
8   0.184759 
9   0.357896 
10   -0.460174 
11   -0.572784 
12   -0.519091 
13   0.191378 
14   0.184236 
15   0.155749 
16   0.165558 
17   0.147282 
18   0.155601 
19   0.123191 
20   0.123006 
21   0.13209 
22   0.128022 
23   0.4062 
 
>  <lowdin_charges> 
23 
1   -0.481111 
2   -0.277261 
3   -0.173638 
4   -0.164846 
5   -0.16558 
6   -0.209433 
7   0.153924 
8   0.022502 
9   0.073629 
10   -0.170259 
11   -0.360212 
12   -0.205009 
13   0.181675 
14   0.17539 
15   0.161124 
16   0.160615 
17   0.141904 
18   0.148148 
19   0.157173 
20   0.155416 
21   0.161386 
22   0.158429 
23   0.356034 
 
$$$$ 
 
