PCCDB-ID:  70130 
public computational chemistry database (PCCDB) project, http://pccdb.org 
 
 22 23  0  0  0  0  0  0  0  0999 V2000 
    0.8252    0.0186   -0.0498 C   0  0  0  0  0  0  0  0  0  0  0  0 
    5.6352   -1.5563   -0.0611 C   0  0  0  0  0  0  0  0  0  0  0  0 
    4.0467    3.4296   -0.0467 C   0  0  0  0  0  0  0  0  0  0  0  0 
    5.3673    2.9368   -0.0521 C   0  0  0  0  0  0  0  0  0  0  0  0 
    2.9589    2.5642   -0.0474 C   0  0  0  0  0  0  0  0  0  0  0  0 
    5.6272    1.5701   -0.0568 C   0  0  0  0  0  0  0  0  0  0  0  0 
    3.1550   -1.0678   -0.0581 C   0  0  0  0  0  0  0  0  0  0  0  0 
    2.3244    0.0232   -0.0516 C   0  0  0  0  0  0  0  0  0  0  0  0 
    3.1871    1.1781   -0.0523 C   0  0  0  0  0  0  0  0  0  0  0  0 
    4.5288    0.7026   -0.0582 C   0  0  0  0  0  0  0  0  0  0  0  0 
    4.4860   -0.6775   -0.0636 N   0  0  0  0  0  0  0  0  0  0  0  0 
    0.4329   -1.0040   -0.0414 H   0  0  0  0  0  0  0  0  0  0  0  0 
    0.4152    0.5222   -0.9354 H   0  0  0  0  0  0  0  0  0  0  0  0 
    0.4175    0.5359    0.8288 H   0  0  0  0  0  0  0  0  0  0  0  0 
    5.2908   -2.5925   -0.0875 H   0  0  0  0  0  0  0  0  0  0  0  0 
    6.2421   -1.4148    0.8419 H   0  0  0  0  0  0  0  0  0  0  0  0 
    6.2691   -1.3792   -0.9386 H   0  0  0  0  0  0  0  0  0  0  0  0 
    3.8804    4.5035   -0.0433 H   0  0  0  0  0  0  0  0  0  0  0  0 
    6.1984    3.6369   -0.0510 H   0  0  0  0  0  0  0  0  0  0  0  0 
    1.9442    2.9549   -0.0432 H   0  0  0  0  0  0  0  0  0  0  0  0 
    6.6471    1.1953   -0.0601 H   0  0  0  0  0  0  0  0  0  0  0  0 
    2.9044   -2.1211   -0.0613 H   0  0  0  0  0  0  0  0  0  0  0  0 
  1 12  1  0  0  0  0 
  1 14  1  0  0  0  0 
  2 16  1  0  0  0  0 
  3 18  1  0  0  0  0 
  4 19  1  0  0  0  0 
  4  3  2  0  0  0  0 
  5  3  1  0  0  0  0 
  5 20  1  0  0  0  0 
  6  4  1  0  0  0  0 
  7  8  2  0  0  0  0 
  8  1  1  0  0  0  0 
  9  8  1  0  0  0  0 
  9  5  2  0  0  0  0 
 10  6  2  0  0  0  0 
 10  9  1  0  0  0  0 
 11  2  1  0  0  0  0 
 11 10  1  0  0  0  0 
 11  7  1  0  0  0  0 
 13  1  1  0  0  0  0 
 15  2  1  0  0  0  0 
 17  2  1  0  0  0  0 
 21  6  1  0  0  0  0 
 22  7  1  0  0  0  0 
M  END 
>  <HBA> 
1 
 
>  <HBD> 
0 
 
>  <TPSA> 
4.93 
 
>  <cid> 
70130 
 
>  <dipole> 
2.23 
 
>  <excitation_energy_1> 
4.393 
 
>  <excitation_energy_2> 
4.71 
 
>  <excitation_energy_3> 
4.766 
 
>  <excitation_energy_4> 
5.152 
 
>  <homo_energy> 
-5.135 
 
>  <homo_lumo_gap> 
5.14 
 
>  <logP> 
2.487 
 
>  <lumo_energy> 
0.005 
 
>  <melting_point> 
55.66 
 
>  <molecular_refractivity> 
48.17 
 
>  <oscillator_strength_1> 
0.0845 
 
>  <oscillator_strength_2> 
0.0103 
 
>  <oscillator_strength_3> 
0.0182 
 
>  <oscillator_strength_4> 
0.0033 
 
>  <open_babel_can_smiles> 
Cn1cc(c2c1cccc2)C 
 
>  <mulliken_charges> 
22 
1   -0.528327 
2   -0.320229 
3   -0.138923 
4   -0.152102 
5   -0.213448 
6   -0.168801 
7   -0.017749 
8   0.079364 
9   0.074184 
10   0.30127 
11   -0.497652 
12   0.147932 
13   0.156108 
14   0.155927 
15   0.167103 
16   0.169283 
17   0.169502 
18   0.117341 
19   0.119447 
20   0.120416 
21   0.120307 
22   0.139045 
 
>  <lowdin_charges> 
22 
1   -0.436523 
2   -0.34508 
3   -0.175191 
4   -0.167011 
5   -0.163044 
6   -0.191421 
7   -0.139933 
8   -0.060613 
9   -0.034178 
10   0.026502 
11   -0.033259 
12   0.154773 
13   0.156389 
14   0.156404 
15   0.164215 
16   0.157581 
17   0.158322 
18   0.151219 
19   0.154768 
20   0.153995 
21   0.154366 
22   0.157722 
 
$$$$ 
 
