PCCDB-ID:  35691 
public computational chemistry database (PCCDB) project, http://pccdb.org 
 
 24 24  0  0  0  0  0  0  0  0999 V2000 
   -1.3275    0.4892    0.1840 C   0  0  0  0  0  0  0  0  0  0  0  0 
   -0.3864    1.4783    0.2636 C   0  0  0  0  0  0  0  0  0  0  0  0 
   -0.8986   -0.8675   -0.0405 C   0  0  0  0  0  0  0  0  0  0  0  0 
   -2.9291   -2.0747   -0.0975 C   0  0  0  0  0  0  0  0  0  0  0  0 
    3.3912   -1.3522   -0.3638 C   0  0  0  0  0  0  0  0  0  0  0  0 
    1.3397    0.0572   -0.0429 C   0  0  0  0  0  0  0  0  0  0  0  0 
   -3.7382   -1.0759    0.0364 N   0  0  0  0  0  0  0  0  0  0  0  0 
   -3.3212   -3.4160   -0.1523 N   0  0  0  0  0  0  0  0  0  0  0  0 
    2.7531   -2.4416   -0.5983 N   0  0  0  0  0  0  0  0  0  0  0  0 
    4.7727   -1.1658   -0.3509 N   0  0  0  0  0  0  0  0  0  0  0  0 
    0.9662    1.2998    0.1584 N   0  0  0  0  0  0  0  0  0  0  0  0 
   -1.5407   -1.9931   -0.1641 N   0  0  0  0  0  0  0  0  0  0  0  0 
    0.4967   -0.9904   -0.1482 N   0  0  0  0  0  0  0  0  0  0  0  0 
    2.7083   -0.1619   -0.1416 N   0  0  0  0  0  0  0  0  0  0  0  0 
   -2.3884    0.6724    0.2712 H   0  0  0  0  0  0  0  0  0  0  0  0 
   -0.6947    2.5091    0.4244 H   0  0  0  0  0  0  0  0  0  0  0  0 
   -4.7063   -1.4064    0.0698 H   0  0  0  0  0  0  0  0  0  0  0  0 
   -4.2562   -3.5889   -0.4978 H   0  0  0  0  0  0  0  0  0  0  0  0 
   -2.6181   -4.0270   -0.5475 H   0  0  0  0  0  0  0  0  0  0  0  0 
    3.3758   -3.2431   -0.6811 H   0  0  0  0  0  0  0  0  0  0  0  0 
    5.3069   -2.0250   -0.3711 H   0  0  0  0  0  0  0  0  0  0  0  0 
    5.1269   -0.5168    0.3432 H   0  0  0  0  0  0  0  0  0  0  0  0 
    0.9015   -1.9130   -0.3439 H   0  0  0  0  0  0  0  0  0  0  0  0 
    3.2252    0.7073   -0.1586 H   0  0  0  0  0  0  0  0  0  0  0  0 
  1  2  1  0  0  0  0 
  1 15  1  0  0  0  0 
  2 16  1  0  0  0  0 
  3  1  2  0  0  0  0 
  4  7  1  0  0  0  0 
  5 10  2  0  0  0  0 
  5 14  1  0  0  0  0 
  6 11  2  0  0  0  0 
  7 17  1  0  0  0  0 
  8  4  1  0  0  0  0 
  9  5  1  0  0  0  0 
 10 22  1  0  0  0  0 
 11  2  1  0  0  0  0 
 12  4  2  3  0  0  0 
 12  3  1  0  0  0  0 
 13  6  1  0  0  0  0 
 13  3  1  0  0  0  0 
 14  6  1  0  0  0  0 
 18  8  1  0  0  0  0 
 19  8  1  0  0  0  0 
 20  9  1  0  0  0  0 
 21 10  1  0  0  0  0 
 23 13  1  0  0  0  0 
 24 14  1  0  0  0  0 
M  RAD  2   7   2   9   2 
M  END 
>  <HBA> 
8 
 
>  <HBD> 
4 
 
>  <TPSA> 
154.58 
 
>  <cid> 
35691 
 
>  <dipole> 
6.75 
 
>  <excitation_energy_1> 
3.852 
 
>  <excitation_energy_2> 
4.346 
 
>  <excitation_energy_3> 
4.469 
 
>  <excitation_energy_4> 
4.6 
 
>  <homo_energy> 
-5.241 
 
>  <homo_lumo_gap> 
4.512 
 
>  <logP> 
1.088 
 
>  <lumo_energy> 
-0.729 
 
>  <melting_point> 
302.8 
 
>  <molecular_refractivity> 
51.28 
 
>  <oscillator_strength_1> 
0.1154 
 
>  <oscillator_strength_2> 
0.0019 
 
>  <oscillator_strength_3> 
0.0236 
 
>  <oscillator_strength_4> 
0.0023 
 
>  <open_babel_can_smiles> 
[NH]C(=[NH2])NC1=NCC=C(N1)/N=C(/N)\[NH] 
 
>  <mulliken_charges> 
24 
1   -0.175876 
2   0.031971 
3   0.544636 
4   0.581417 
5   0.674704 
6   0.771886 
7   -0.662061 
8   -0.748388 
9   -0.680084 
10   -0.759954 
11   -0.532703 
12   -0.607751 
13   -0.691314 
14   -0.698202 
15   0.204434 
16   0.148012 
17   0.256527 
18   0.307341 
19   0.323685 
20   0.290811 
21   0.335796 
22   0.335283 
23   0.395738 
24   0.354092 
 
>  <lowdin_charges> 
24 
1   -0.23091 
2   -0.06563 
3   0.135236 
4   0.129595 
5   0.148618 
6   0.160052 
7   -0.488261 
8   -0.502026 
9   -0.468912 
10   -0.494702 
11   -0.237913 
12   -0.276029 
13   -0.184582 
14   -0.238822 
15   0.20306 
16   0.160571 
17   0.239361 
18   0.267976 
19   0.281238 
20   0.263782 
21   0.286815 
22   0.287646 
23   0.318598 
24   0.305238 
 
$$$$ 
 
