PCCDB-ID:  72915 
public computational chemistry database (PCCDB) project, http://pccdb.org 
 
 18 19  0  0  0  0  0  0  0  0999 V2000 
    2.1583    0.7111   -0.0515 C   0  0  0  0  0  0  0  0  0  0  0  0 
    0.9586    1.4272   -0.0208 C   0  0  0  0  0  0  0  0  0  0  0  0 
    0.9468   -1.4098   -0.0560 C   0  0  0  0  0  0  0  0  0  0  0  0 
    2.1741   -0.6997   -0.0697 C   0  0  0  0  0  0  0  0  0  0  0  0 
   -0.2344    0.7147   -0.0069 C   0  0  0  0  0  0  0  0  0  0  0  0 
   -0.2201   -0.6832   -0.0234 C   0  0  0  0  0  0  0  0  0  0  0  0 
   -1.6750    1.0576    0.0287 C   0  0  0  0  0  0  0  0  0  0  0  0 
   -1.6750   -1.1146    0.0070 C   0  0  0  0  0  0  0  0  0  0  0  0 
    3.3716   -1.3878   -0.1539 N   0  0  0  0  0  0  0  0  0  0  0  0 
   -2.4906    0.0500    0.0366 N   0  0  0  0  0  0  0  0  0  0  0  0 
   -2.1397    2.3113    0.0523 O   0  0  0  0  0  0  0  0  0  0  0  0 
   -2.0772   -2.2570    0.0083 O   0  0  0  0  0  0  0  0  0  0  0  0 
    3.1034    1.2481   -0.0653 H   0  0  0  0  0  0  0  0  0  0  0  0 
    0.9924    2.5151   -0.0053 H   0  0  0  0  0  0  0  0  0  0  0  0 
    0.9274   -2.4966   -0.0710 H   0  0  0  0  0  0  0  0  0  0  0  0 
    4.2063   -0.8970    0.1364 H   0  0  0  0  0  0  0  0  0  0  0  0 
    3.3597   -2.3584    0.1288 H   0  0  0  0  0  0  0  0  0  0  0  0 
   -1.3946    2.9335    0.0369 H   0  0  0  0  0  0  0  0  0  0  0  0 
  1  2  2  0  0  0  0 
  2  5  1  0  0  0  0 
  2 14  1  0  0  0  0 
  3  6  1  0  0  0  0 
  4  3  2  0  0  0  0 
  4  1  1  0  0  0  0 
  5  7  1  0  0  0  0 
  6  5  2  0  0  0  0 
  6  8  1  0  0  0  0 
  7 10  2  0  0  0  0 
  7 11  1  0  0  0  0 
  8 12  2  0  0  0  0 
  8 10  1  0  0  0  0 
  9  4  1  0  0  0  0 
  9 17  1  0  0  0  0 
  9 16  1  0  0  0  0 
 13  1  1  0  0  0  0 
 15  3  1  0  0  0  0 
 18 11  1  0  0  0  0 
M  END 
>  <HBA> 
4 
 
>  <HBD> 
2 
 
>  <TPSA> 
72.19 
 
>  <cid> 
72915 
 
>  <dipole> 
8.43 
 
>  <excitation_energy_1> 
3.293 
 
>  <excitation_energy_2> 
3.349 
 
>  <excitation_energy_3> 
4.304 
 
>  <excitation_energy_4> 
4.421 
 
>  <homo_energy> 
-6.06 
 
>  <homo_lumo_gap> 
3.987 
 
>  <logP> 
1.062 
 
>  <lumo_energy> 
-2.074 
 
>  <melting_point> 
175.35 
 
>  <molecular_refractivity> 
46.22 
 
>  <oscillator_strength_1> 
0.0545 
 
>  <oscillator_strength_2> 
0.0005 
 
>  <oscillator_strength_3> 
0.007 
 
>  <oscillator_strength_4> 
0.0002 
 
>  <open_babel_can_smiles> 
Nc1ccc2c(c1)C(=O)N=C2O 
 
>  <mulliken_charges> 
18 
1   -0.17552 
2   -0.208669 
3   -0.236139 
4   0.338686 
5   0.056408 
6   0.049344 
7   0.478588 
8   0.513214 
9   -0.791812 
10   -0.507545 
11   -0.573139 
12   -0.449195 
13   0.129762 
14   0.128096 
15   0.155681 
16   0.332123 
17   0.336905 
18   0.423212 
 
>  <lowdin_charges> 
18 
1   -0.195174 
2   -0.141346 
3   -0.166892 
4   0.078981 
5   -0.092332 
6   -0.024561 
7   0.159773 
8   0.167868 
9   -0.466779 
10   -0.220232 
11   -0.310997 
12   -0.210209 
13   0.159664 
14   0.153368 
15   0.171062 
16   0.284375 
17   0.284997 
18   0.368436 
 
$$$$ 
 
