PCCDB-ID:  24988 
public computational chemistry database (PCCDB) project, http://pccdb.org 
 
 20 19  0  0  0  0  0  0  0  0999 V2000 
    1.2853    0.8935    0.7850 C   0  0  0  0  0  0  0  0  0  0  0  0 
    7.7097   -0.5331   -0.9767 C   0  0  0  0  0  0  0  0  0  0  0  0 
    2.7196    0.6111    0.3403 C   0  0  0  0  0  0  0  0  0  0  0  0 
    5.2818    0.3326   -0.9042 C   0  0  0  0  0  0  0  0  0  0  0  0 
    6.5865    0.1981   -1.6790 C   0  0  0  0  0  0  0  0  0  0  0  0 
    4.0690    1.0035   -1.5621 C   0  0  0  0  0  0  0  0  0  0  0  0 
    2.9356    1.1238   -1.0033 N   0  0  0  0  0  0  0  0  0  0  0  0 
    6.7434    0.6512   -2.8047 O   0  0  0  0  0  0  0  0  0  0  0  0 
    4.2261    1.4972   -2.8067 O   0  0  0  0  0  0  0  0  0  0  0  0 
    1.1067    0.5187    1.7998 H   0  0  0  0  0  0  0  0  0  0  0  0 
    0.5741    0.4138    0.1048 H   0  0  0  0  0  0  0  0  0  0  0  0 
    1.0871    1.9701    0.7700 H   0  0  0  0  0  0  0  0  0  0  0  0 
    7.9511   -0.0427   -0.0258 H   0  0  0  0  0  0  0  0  0  0  0  0 
    8.5943   -0.5517   -1.6158 H   0  0  0  0  0  0  0  0  0  0  0  0 
    7.4058   -1.5598   -0.7385 H   0  0  0  0  0  0  0  0  0  0  0  0 
    2.9030   -0.4770    0.3898 H   0  0  0  0  0  0  0  0  0  0  0  0 
    3.4174    1.0683    1.0642 H   0  0  0  0  0  0  0  0  0  0  0  0 
    5.5133    0.8657    0.0304 H   0  0  0  0  0  0  0  0  0  0  0  0 
    4.9901   -0.6729   -0.5678 H   0  0  0  0  0  0  0  0  0  0  0  0 
    5.1473    1.3234   -3.1018 H   0  0  0  0  0  0  0  0  0  0  0  0 
  1 10  1  0  0  0  0 
  2 15  1  0  0  0  0 
  2 13  1  0  0  0  0 
  3 16  1  0  0  0  0 
  3  1  1  0  0  0  0 
  3 17  1  0  0  0  0 
  4 19  1  0  0  0  0 
  4 18  1  0  0  0  0 
  5  2  1  0  0  0  0 
  5  4  1  0  0  0  0 
  6  7  2  0  0  0  0 
  6  4  1  0  0  0  0 
  7  3  1  0  0  0  0 
  8  5  2  0  0  0  0 
  9  6  1  0  0  0  0 
 11  1  1  0  0  0  0 
 12  1  1  0  0  0  0 
 14  2  1  0  0  0  0 
 20  9  1  0  0  0  0 
M  END 
>  <HBA> 
3 
 
>  <HBD> 
1 
 
>  <TPSA> 
46.17 
 
>  <cid> 
24988 
 
>  <dipole> 
5.62 
 
>  <excitation_energy_1> 
4.27 
 
>  <excitation_energy_2> 
4.356 
 
>  <excitation_energy_3> 
4.686 
 
>  <excitation_energy_4> 
5.647 
 
>  <homo_energy> 
-6.46 
 
>  <homo_lumo_gap> 
5.105 
 
>  <logP> 
0.492 
 
>  <lumo_energy> 
-1.355 
 
>  <melting_point> 
43.4 
 
>  <molecular_refractivity> 
34.16 
 
>  <oscillator_strength_1> 
0.0001 
 
>  <oscillator_strength_2> 
0.0023 
 
>  <oscillator_strength_3> 
0.0003 
 
>  <oscillator_strength_4> 
0.0031 
 
>  <open_babel_can_smiles> 
CC/N=C(\CC(=O)C)/O 
 
>  <mulliken_charges> 
20 
1   -0.430325 
2   -0.528885 
3   -0.133622 
4   -0.469303 
5   0.468626 
6   0.505465 
7   -0.42285 
8   -0.453346 
9   -0.600927 
10   0.127637 
11   0.155036 
12   0.155168 
13   0.181055 
14   0.193758 
15   0.18224 
16   0.120966 
17   0.12002 
18   0.198691 
19   0.195191 
20   0.435405 
 
>  <lowdin_charges> 
20 
1   -0.443204 
2   -0.467492 
3   -0.196658 
4   -0.345465 
5   0.182075 
6   0.125023 
7   -0.218555 
8   -0.23493 
9   -0.3687 
10   0.142071 
11   0.156459 
12   0.153662 
13   0.177213 
14   0.180942 
15   0.177206 
16   0.124471 
17   0.127321 
18   0.187474 
19   0.184497 
20   0.356589 
 
$$$$ 
 
