PCCDB-ID:  27683 
public computational chemistry database (PCCDB) project, http://pccdb.org 
 
 24 23  0  0  1  0  0  0  0  0999 V2000 
    1.2473   -0.1902   -0.6195 C   0  0  0  0  0  0  0  0  0  0  0  0 
    7.0495    1.9802   -0.8183 C   0  0  0  0  0  0  0  0  0  0  0  0 
    5.5388    2.3651   -2.8047 C   0  0  0  0  0  0  0  0  0  0  0  0 
    4.9837   -0.3382   -1.2552 C   0  0  0  0  0  0  0  0  0  0  0  0 
    2.2112    0.6037   -0.1505 C   0  0  0  0  0  0  0  0  0  0  0  0 
    3.1623    1.4162   -0.9870 C   0  0  0  0  0  0  0  0  0  0  0  0 
    5.5968    2.1817   -1.2791 C   0  0  0  0  0  0  0  0  0  0  0  0 
    4.6534    1.0709   -0.7383 C   0  0  2  0  0  0  0  0  0  0  0  0 
    0.5894   -0.7471    0.0426 H   0  0  0  0  0  0  0  0  0  0  0  0 
    1.0750   -0.3097   -1.6875 H   0  0  0  0  0  0  0  0  0  0  0  0 
    7.6601    2.8563   -1.0669 H   0  0  0  0  0  0  0  0  0  0  0  0 
    7.5130    1.1127   -1.3028 H   0  0  0  0  0  0  0  0  0  0  0  0 
    7.1092    1.8291    0.2667 H   0  0  0  0  0  0  0  0  0  0  0  0 
    6.1763    3.2023   -3.1129 H   0  0  0  0  0  0  0  0  0  0  0  0 
    4.5237    2.5791   -3.1568 H   0  0  0  0  0  0  0  0  0  0  0  0 
    5.8960    1.4728   -3.3325 H   0  0  0  0  0  0  0  0  0  0  0  0 
    4.3013   -1.0753   -0.8195 H   0  0  0  0  0  0  0  0  0  0  0  0 
    6.0055   -0.6381   -0.9993 H   0  0  0  0  0  0  0  0  0  0  0  0 
    4.8786   -0.4017   -2.3451 H   0  0  0  0  0  0  0  0  0  0  0  0 
    2.3440    0.6892    0.9303 H   0  0  0  0  0  0  0  0  0  0  0  0 
    3.0131    2.4828   -0.7568 H   0  0  0  0  0  0  0  0  0  0  0  0 
    2.9157    1.2859   -2.0487 H   0  0  0  0  0  0  0  0  0  0  0  0 
    5.2442    3.1216   -0.8263 H   0  0  0  0  0  0  0  0  0  0  0  0 
    4.7973    1.0609    0.3540 H   0  0  0  0  0  0  0  0  0  0  0  0 
  1  5  2  0  0  0  0 
  1  9  1  0  0  0  0 
  2 13  1  0  0  0  0 
  3  7  1  0  0  0  0 
  4 18  1  0  0  0  0 
  4 17  1  0  0  0  0 
  4  8  1  0  0  0  0 
  5 20  1  0  0  0  0 
  6 21  1  0  0  0  0 
  6  8  1  0  0  0  0 
  6  5  1  0  0  0  0 
  7 23  1  0  0  0  0 
  7  2  1  0  0  0  0 
  7  8  1  0  0  0  0 
  8 24  1  1  0  0  0 
 10  1  1  0  0  0  0 
 11  2  1  0  0  0  0 
 12  2  1  0  0  0  0 
 14  3  1  0  0  0  0 
 15  3  1  0  0  0  0 
 16  3  1  0  0  0  0 
 19  4  1  0  0  0  0 
 22  6  1  0  0  0  0 
M  END 
>  <HBA> 
0 
 
>  <HBD> 
0 
 
>  <TPSA> 
0.0 
 
>  <cid> 
27683 
 
>  <dipole> 
0.34 
 
>  <excitation_energy_1> 
6.386 
 
>  <excitation_energy_2> 
6.733 
 
>  <excitation_energy_3> 
6.767 
 
>  <excitation_energy_4> 
6.881 
 
>  <homo_energy> 
-6.768 
 
>  <homo_lumo_gap> 
7.451 
 
>  <logP> 
2.855 
 
>  <lumo_energy> 
0.683 
 
>  <melting_point> 
-48.49 
 
>  <molecular_refractivity> 
40.1 
 
>  <oscillator_strength_1> 
0.0268 
 
>  <oscillator_strength_2> 
0.0945 
 
>  <oscillator_strength_3> 
0.0374 
 
>  <oscillator_strength_4> 
0.117 
 
>  <open_babel_can_smiles> 
C=CC[C@H](C(C)C)C 
 
>  <mulliken_charges> 
24 
1   -0.342519 
2   -0.449573 
3   -0.452892 
4   -0.457913 
5   -0.041876 
6   -0.307496 
7   -0.065193 
8   -0.068177 
9   0.136689 
10   0.133991 
11   0.139664 
12   0.143548 
13   0.138272 
14   0.140024 
15   0.144629 
16   0.143515 
17   0.152535 
18   0.142826 
19   0.140344 
20   0.122231 
21   0.137474 
22   0.137108 
23   0.117151 
24   0.115638 
 
>  <lowdin_charges> 
24 
1   -0.345984 
2   -0.446101 
3   -0.450234 
4   -0.450364 
5   -0.140833 
6   -0.272166 
7   -0.122035 
8   -0.120933 
9   0.158413 
10   0.151671 
11   0.14895 
12   0.147469 
13   0.144706 
14   0.149923 
15   0.147916 
16   0.147593 
17   0.157273 
18   0.147991 
19   0.143894 
20   0.145468 
21   0.146686 
22   0.143796 
23   0.134686 
24   0.132216 
 
$$$$ 
 
