PCCDB-ID:  49981 
public computational chemistry database (PCCDB) project, http://pccdb.org 
 
 23 23  0  0  0  0  0  0  0  0999 V2000 
    2.1039   -0.4359    1.3814 C   0  0  0  0  0  0  0  0  0  0  0  0 
    3.2030   -1.3241    0.8227 C   0  0  0  0  0  0  0  0  0  0  0  0 
    6.9011   -3.1370   -0.2911 C   0  0  0  0  0  0  0  0  0  0  0  0 
    5.6679   -2.5756    0.0612 C   0  0  0  0  0  0  0  0  0  0  0  0 
    8.0254   -1.3854    0.9301 C   0  0  0  0  0  0  0  0  0  0  0  0 
    8.0918   -2.5456    0.1414 C   0  0  0  0  0  0  0  0  0  0  0  0 
    6.8017   -0.8183    1.2901 C   0  0  0  0  0  0  0  0  0  0  0  0 
    5.6062   -1.4275    0.8423 C   0  0  0  0  0  0  0  0  0  0  0  0 
    9.3391   -3.1315   -0.1483 N   0  0  0  0  0  0  0  0  0  0  0  0 
    6.7212    0.3026    2.1196 N   0  0  0  0  0  0  0  0  0  0  0  0 
    4.4505   -0.7800    1.2323 O   0  0  0  0  0  0  0  0  0  0  0  0 
    1.1209   -0.8209    1.0892 H   0  0  0  0  0  0  0  0  0  0  0  0 
    2.2027    0.5859    1.0006 H   0  0  0  0  0  0  0  0  0  0  0  0 
    2.1540   -0.4029    2.4743 H   0  0  0  0  0  0  0  0  0  0  0  0 
    3.1529   -1.3644   -0.2760 H   0  0  0  0  0  0  0  0  0  0  0  0 
    3.1029   -2.3530    1.1989 H   0  0  0  0  0  0  0  0  0  0  0  0 
    6.9288   -4.0384   -0.8979 H   0  0  0  0  0  0  0  0  0  0  0  0 
    4.7572   -3.0478   -0.2907 H   0  0  0  0  0  0  0  0  0  0  0  0 
    8.9447   -0.9242    1.2875 H   0  0  0  0  0  0  0  0  0  0  0  0 
    9.3324   -3.6989   -0.9882 H   0  0  0  0  0  0  0  0  0  0  0  0 
   10.1032   -2.4662   -0.1849 H   0  0  0  0  0  0  0  0  0  0  0  0 
    7.5105    0.9331    2.0560 H   0  0  0  0  0  0  0  0  0  0  0  0 
    5.8344    0.7865    2.0527 H   0  0  0  0  0  0  0  0  0  0  0  0 
  1 14  1  0  0  0  0 
  2 16  1  0  0  0  0 
  2 11  1  0  0  0  0 
  2  1  1  0  0  0  0 
  3  4  2  0  0  0  0 
  3  6  1  0  0  0  0 
  4  8  1  0  0  0  0 
  5 19  1  0  0  0  0 
  5  7  1  0  0  0  0 
  6  5  2  0  0  0  0 
  7 10  1  0  0  0  0 
  8 11  1  0  0  0  0 
  8  7  2  0  0  0  0 
  9  6  1  0  0  0  0 
 12  1  1  0  0  0  0 
 13  1  1  0  0  0  0 
 15  2  1  0  0  0  0 
 17  3  1  0  0  0  0 
 18  4  1  0  0  0  0 
 20  9  1  0  0  0  0 
 21  9  1  0  0  0  0 
 22 10  1  0  0  0  0 
 23 10  1  0  0  0  0 
M  END 
>  <HBA> 
3 
 
>  <HBD> 
2 
 
>  <TPSA> 
61.27 
 
>  <cid> 
49981 
 
>  <dipole> 
2.36 
 
>  <excitation_energy_1> 
4.174 
 
>  <excitation_energy_2> 
4.352 
 
>  <excitation_energy_3> 
4.486 
 
>  <excitation_energy_4> 
4.609 
 
>  <homo_energy> 
-4.574 
 
>  <homo_lumo_gap> 
5.211 
 
>  <logP> 
2.412 
 
>  <lumo_energy> 
0.637 
 
>  <melting_point> 
108.07 
 
>  <molecular_refractivity> 
46.55 
 
>  <oscillator_strength_1> 
0.0118 
 
>  <oscillator_strength_2> 
0.0463 
 
>  <oscillator_strength_3> 
0.0157 
 
>  <oscillator_strength_4> 
0.0043 
 
>  <open_babel_can_smiles> 
CCOc1ccc(cc1N)N 
 
>  <mulliken_charges> 
23 
1   -0.45846 
2   -0.018947 
3   -0.196238 
4   -0.206984 
5   -0.235605 
6   0.302858 
7   0.256938 
8   0.346103 
9   -0.78872 
10   -0.792672 
11   -0.552282 
12   0.147281 
13   0.15664 
14   0.162895 
15   0.134694 
16   0.138893 
17   0.106369 
18   0.125855 
19   0.102758 
20   0.312189 
21   0.310847 
22   0.31281 
23   0.332777 
 
>  <lowdin_charges> 
23 
1   -0.445439 
2   -0.117126 
3   -0.224327 
4   -0.195785 
5   -0.240039 
6   0.053952 
7   0.049648 
8   0.046638 
9   -0.498043 
10   -0.491513 
11   -0.225252 
12   0.156144 
13   0.155205 
14   0.157224 
15   0.131869 
16   0.135699 
17   0.149268 
18   0.15985 
19   0.148523 
20   0.269802 
21   0.269914 
22   0.272866 
23   0.280924 
 
$$$$ 
 
