PCCDB-ID:  24254 
public computational chemistry database (PCCDB) project, http://pccdb.org 
 
 32 33  0  0  1  0  0  0  0  0999 V2000 
    0.9561   -0.1174    0.0400 C   0  0  0  0  0  0  0  0  0  0  0  0 
    6.3378   -4.7238    2.5321 C   0  0  0  0  0  0  0  0  0  0  0  0 
    3.1935    0.9255   -4.4606 C   0  0  0  0  0  0  0  0  0  0  0  0 
    5.4843   -4.8720    1.4346 C   0  0  0  0  0  0  0  0  0  0  0  0 
    6.4610   -3.4736    3.1386 C   0  0  0  0  0  0  0  0  0  0  0  0 
    3.6730    1.7625   -3.4530 C   0  0  0  0  0  0  0  0  0  0  0  0 
    2.4742   -0.2208   -4.1159 C   0  0  0  0  0  0  0  0  0  0  0  0 
    4.7615   -3.7857    0.9508 C   0  0  0  0  0  0  0  0  0  0  0  0 
    5.7362   -2.3865    2.6525 C   0  0  0  0  0  0  0  0  0  0  0  0 
    3.4348    1.4528   -2.1126 C   0  0  0  0  0  0  0  0  0  0  0  0 
    2.2368   -0.5242   -2.7754 C   0  0  0  0  0  0  0  0  0  0  0  0 
    3.1899   -1.2775    0.1322 C   0  0  0  0  0  0  0  0  0  0  0  0 
    4.1270   -1.3353    1.0900 C   0  0  0  0  0  0  0  0  0  0  0  0 
    2.4649   -0.0161   -0.2794 C   0  0  1  0  0  0  0  0  0  0  0  0 
    4.8698   -2.5179    1.5528 C   0  0  0  0  0  0  0  0  0  0  0  0 
    2.7131    0.3084   -1.7519 C   0  0  0  0  0  0  0  0  0  0  0  0 
    0.8033   -0.2801    1.1123 H   0  0  0  0  0  0  0  0  0  0  0  0 
    0.4886   -0.9519   -0.4948 H   0  0  0  0  0  0  0  0  0  0  0  0 
    0.4358    0.8013   -0.2529 H   0  0  0  0  0  0  0  0  0  0  0  0 
    6.9009   -5.5741    2.9069 H   0  0  0  0  0  0  0  0  0  0  0  0 
    3.3775    1.1630   -5.5050 H   0  0  0  0  0  0  0  0  0  0  0  0 
    5.3841   -5.8407    0.9514 H   0  0  0  0  0  0  0  0  0  0  0  0 
    7.1234   -3.3424    3.9904 H   0  0  0  0  0  0  0  0  0  0  0  0 
    4.2341    2.6580   -3.7079 H   0  0  0  0  0  0  0  0  0  0  0  0 
    2.0957   -0.8804   -4.8927 H   0  0  0  0  0  0  0  0  0  0  0  0 
    4.1118   -3.9221    0.0911 H   0  0  0  0  0  0  0  0  0  0  0  0 
    5.8378   -1.4147    3.1308 H   0  0  0  0  0  0  0  0  0  0  0  0 
    3.8154    2.1098   -1.3335 H   0  0  0  0  0  0  0  0  0  0  0  0 
    1.6714   -1.4192   -2.5261 H   0  0  0  0  0  0  0  0  0  0  0  0 
    2.8986   -2.1811   -0.4039 H   0  0  0  0  0  0  0  0  0  0  0  0 
    4.3819   -0.4092    1.6080 H   0  0  0  0  0  0  0  0  0  0  0  0 
    2.8734    0.8124    0.3136 H   0  0  0  0  0  0  0  0  0  0  0  0 
  1 17  1  0  0  0  0 
  2 20  1  0  0  0  0 
  2  5  2  0  0  0  0 
  3  7  2  0  0  0  0 
  3  6  1  0  0  0  0 
  4  2  1  0  0  0  0 
  5 23  1  0  0  0  0 
  6 10  2  0  0  0  0 
  7 11  1  0  0  0  0 
  8  4  2  0  0  0  0 
  8 15  1  0  0  0  0 
  9 27  1  0  0  0  0 
  9  5  1  0  0  0  0 
 10 16  1  0  0  0  0 
 10 28  1  0  0  0  0 
 11 29  1  0  0  0  0 
 11 16  2  0  0  0  0 
 12 13  2  0  0  0  0 
 13 15  1  0  0  0  0 
 13 31  1  0  0  0  0 
 14  1  1  0  0  0  0 
 14 12  1  0  0  0  0 
 14 32  1  1  0  0  0 
 15  9  2  0  0  0  0 
 16 14  1  0  0  0  0 
 18  1  1  0  0  0  0 
 19  1  1  0  0  0  0 
 21  3  1  0  0  0  0 
 22  4  1  0  0  0  0 
 24  6  1  0  0  0  0 
 25  7  1  0  0  0  0 
 26  8  1  0  0  0  0 
 30 12  1  0  0  0  0 
M  END 
>  <HBA> 
0 
 
>  <HBD> 
0 
 
>  <TPSA> 
0.0 
 
>  <cid> 
24254 
 
>  <dipole> 
0.23 
 
>  <excitation_energy_1> 
4.592 
 
>  <excitation_energy_2> 
4.8 
 
>  <excitation_energy_3> 
5.059 
 
>  <excitation_energy_4> 
5.106 
 
>  <homo_energy> 
-5.804 
 
>  <homo_lumo_gap> 
5.034 
 
>  <logP> 
4.503 
 
>  <lumo_energy> 
-0.77 
 
>  <melting_point> 
55.9 
 
>  <molecular_refractivity> 
70.63 
 
>  <oscillator_strength_1> 
0.5273 
 
>  <oscillator_strength_2> 
0.1025 
 
>  <oscillator_strength_3> 
0.0045 
 
>  <oscillator_strength_4> 
0.0148 
 
>  <open_babel_can_smiles> 
C[C@H](c1ccccc1)/C=C/c1ccccc1 
 
>  <mulliken_charges> 
32 
1   -0.440822 
2   -0.130287 
3   -0.130939 
4   -0.129861 
5   -0.129366 
6   -0.125686 
7   -0.129009 
8   -0.182896 
9   -0.197196 
10   -0.18859 
11   -0.184155 
12   -0.084404 
13   -0.181044 
14   -0.221515 
15   0.177946 
16   0.184509 
17   0.151059 
18   0.144858 
19   0.151735 
20   0.128165 
21   0.127719 
22   0.128637 
23   0.12872 
24   0.128237 
25   0.127859 
26   0.127103 
27   0.125705 
28   0.123353 
29   0.123021 
30   0.125167 
31   0.118643 
32   0.133335 
 
>  <lowdin_charges> 
32 
1   -0.439908 
2   -0.160959 
3   -0.159869 
4   -0.15412 
5   -0.154913 
6   -0.153847 
7   -0.155758 
8   -0.156773 
9   -0.162465 
10   -0.168896 
11   -0.166718 
12   -0.149165 
13   -0.169933 
14   -0.117101 
15   5.5e-05 
16   0.003163 
17   0.152246 
18   0.14954 
19   0.154578 
20   0.158159 
21   0.155657 
22   0.156787 
23   0.157484 
24   0.157218 
25   0.157832 
26   0.15628 
27   0.154652 
28   0.155285 
29   0.153179 
30   0.150148 
31   0.150478 
32   0.147685 
 
$$$$ 
 
