PCCDB-ID:  26766 
public computational chemistry database (PCCDB) project, http://pccdb.org 
 
 28 28  0  0  0  0  0  0  0  0999 V2000 
    1.9292   -0.7406    0.6816 C   0  0  0  0  0  0  0  0  0  0  0  0 
   11.4170    3.3024   -2.3871 C   0  0  0  0  0  0  0  0  0  0  0  0 
    3.2718   -0.6094   -0.0427 C   0  0  0  0  0  0  0  0  0  0  0  0 
    3.2684    0.5374   -1.0750 C   0  0  0  0  0  0  0  0  0  0  0  0 
    8.7128    2.9441   -1.6170 C   0  0  0  0  0  0  0  0  0  0  0  0 
    8.9231    0.6406   -2.3344 C   0  0  0  0  0  0  0  0  0  0  0  0 
    7.3814    2.6977   -1.2701 C   0  0  0  0  0  0  0  0  0  0  0  0 
    7.6014    0.3968   -1.9842 C   0  0  0  0  0  0  0  0  0  0  0  0 
    9.4889    1.9121   -2.1557 C   0  0  0  0  0  0  0  0  0  0  0  0 
    6.8316    1.4356   -1.4540 C   0  0  0  0  0  0  0  0  0  0  0  0 
    4.5887    0.6414   -1.8068 C   0  0  0  0  0  0  0  0  0  0  0  0 
    4.8150    0.2238   -2.9166 O   0  0  0  0  0  0  0  0  0  0  0  0 
   10.7957    2.0366   -2.5343 O   0  0  0  0  0  0  0  0  0  0  0  0 
    5.5190    1.2519   -1.0054 O   0  0  0  0  0  0  0  0  0  0  0  0 
    1.9511   -1.5658    1.4018 H   0  0  0  0  0  0  0  0  0  0  0  0 
    1.1133   -0.9350   -0.0249 H   0  0  0  0  0  0  0  0  0  0  0  0 
    1.6831    0.1760    1.2311 H   0  0  0  0  0  0  0  0  0  0  0  0 
   12.4399    3.1782   -2.7472 H   0  0  0  0  0  0  0  0  0  0  0  0 
   11.4397    3.6228   -1.3367 H   0  0  0  0  0  0  0  0  0  0  0  0 
   10.9128    4.0725   -2.9863 H   0  0  0  0  0  0  0  0  0  0  0  0 
    3.5104   -1.5501   -0.5553 H   0  0  0  0  0  0  0  0  0  0  0  0 
    4.0733   -0.4329    0.6846 H   0  0  0  0  0  0  0  0  0  0  0  0 
    3.0594    1.4861   -0.5676 H   0  0  0  0  0  0  0  0  0  0  0  0 
    2.4937    0.3654   -1.8281 H   0  0  0  0  0  0  0  0  0  0  0  0 
    9.1234    3.9352   -1.4641 H   0  0  0  0  0  0  0  0  0  0  0  0 
    9.5420   -0.1473   -2.7517 H   0  0  0  0  0  0  0  0  0  0  0  0 
    6.7670    3.4872   -0.8487 H   0  0  0  0  0  0  0  0  0  0  0  0 
    7.1695   -0.5856   -2.1299 H   0  0  0  0  0  0  0  0  0  0  0  0 
  1 17  1  0  0  0  0 
  1 15  1  0  0  0  0 
  2 19  1  0  0  0  0 
  3  1  1  0  0  0  0 
  3 22  1  0  0  0  0 
  4 23  1  0  0  0  0 
  4  3  1  0  0  0  0 
  5 25  1  0  0  0  0 
  5  7  2  0  0  0  0 
  6  9  2  0  0  0  0 
  6  8  1  0  0  0  0 
  7 27  1  0  0  0  0 
  8 10  2  0  0  0  0 
  9  5  1  0  0  0  0 
 10  7  1  0  0  0  0 
 10 14  1  0  0  0  0 
 11  4  1  0  0  0  0 
 11 14  1  0  0  0  0 
 12 11  2  0  0  0  0 
 13  2  1  0  0  0  0 
 13  9  1  0  0  0  0 
 16  1  1  0  0  0  0 
 18  2  1  0  0  0  0 
 20  2  1  0  0  0  0 
 21  3  1  0  0  0  0 
 24  4  1  0  0  0  0 
 26  6  1  0  0  0  0 
 28  8  1  0  0  0  0 
M  END 
>  <HBA> 
3 
 
>  <HBD> 
0 
 
>  <TPSA> 
35.53 
 
>  <cid> 
26766 
 
>  <dipole> 
2.53 
 
>  <excitation_energy_1> 
4.884 
 
>  <excitation_energy_2> 
5.026 
 
>  <excitation_energy_3> 
5.402 
 
>  <excitation_energy_4> 
5.545 
 
>  <homo_energy> 
-5.802 
 
>  <homo_lumo_gap> 
5.714 
 
>  <logP> 
2.401 
 
>  <lumo_energy> 
-0.087 
 
>  <melting_point> 
33.93 
 
>  <molecular_refractivity> 
54.05 
 
>  <oscillator_strength_1> 
0.0325 
 
>  <oscillator_strength_2> 
0.1678 
 
>  <oscillator_strength_3> 
0.0046 
 
>  <oscillator_strength_4> 
0.008 
 
>  <open_babel_can_smiles> 
CCCC(=O)Oc1ccc(cc1)OC 
 
>  <mulliken_charges> 
28 
1   -0.442549 
2   -0.214945 
3   -0.265161 
4   -0.327774 
5   -0.204701 
6   -0.187419 
7   -0.172668 
8   -0.138398 
9   0.382436 
10   0.343915 
11   0.590355 
12   -0.454295 
13   -0.508147 
14   -0.525287 
15   0.150269 
16   0.14826 
17   0.146572 
18   0.170579 
19   0.150856 
20   0.152311 
21   0.151061 
22   0.156215 
23   0.160223 
24   0.1665 
25   0.135035 
26   0.144196 
27   0.139631 
28   0.152929 
 
>  <lowdin_charges> 
28 
1   -0.444575 
2   -0.276526 
3   -0.267978 
4   -0.295169 
5   -0.208912 
6   -0.175721 
7   -0.163528 
8   -0.155499 
9   0.099742 
10   0.084769 
11   0.202913 
12   -0.244678 
13   -0.200014 
14   -0.168618 
15   0.154818 
16   0.150521 
17   0.149382 
18   0.162177 
19   0.143108 
20   0.146462 
21   0.149117 
22   0.151872 
23   0.162746 
24   0.166098 
25   0.163933 
26   0.17102 
27   0.168329 
28   0.174211 
 
$$$$ 
 
