PCCDB-ID:  22539 
public computational chemistry database (PCCDB) project, http://pccdb.org 
 
 23 23  0  0  0  0  0  0  0  0999 V2000 
    1.0148   -0.7505   -0.3427 C   0  0  0  0  0  0  0  0  0  0  0  0 
    4.7227   -1.6577   -0.0256 C   0  0  0  0  0  0  0  0  0  0  0  0 
    5.3073   -0.3965    0.0266 C   0  0  0  0  0  0  0  0  0  0  0  0 
    3.3337   -1.7646   -0.1467 C   0  0  0  0  0  0  0  0  0  0  0  0 
    4.5140    0.7531   -0.0420 C   0  0  0  0  0  0  0  0  0  0  0  0 
    1.5935    3.9556   -0.2161 C   0  0  0  0  0  0  0  0  0  0  0  0 
    2.7953    3.0245   -0.1722 C   0  0  0  0  0  0  0  0  0  0  0  0 
    2.5132   -0.6385   -0.2162 C   0  0  0  0  0  0  0  0  0  0  0  0 
    3.1275    0.6300   -0.1619 C   0  0  0  0  0  0  0  0  0  0  0  0 
    0.7288    3.7484    0.8858 O   0  0  0  0  0  0  0  0  0  0  0  0 
    2.2703    1.6991   -0.2408 O   0  0  0  0  0  0  0  0  0  0  0  0 
    0.7095   -1.7973   -0.4339 H   0  0  0  0  0  0  0  0  0  0  0  0 
    0.6434   -0.2057   -1.2185 H   0  0  0  0  0  0  0  0  0  0  0  0 
    0.5045   -0.3252    0.5311 H   0  0  0  0  0  0  0  0  0  0  0  0 
    5.3359   -2.5527    0.0256 H   0  0  0  0  0  0  0  0  0  0  0  0 
    6.3851   -0.2931    0.1199 H   0  0  0  0  0  0  0  0  0  0  0  0 
    2.8705   -2.7478   -0.1892 H   0  0  0  0  0  0  0  0  0  0  0  0 
    4.9815    1.7301   -0.0000 H   0  0  0  0  0  0  0  0  0  0  0  0 
    1.0683    3.8209   -1.1754 H   0  0  0  0  0  0  0  0  0  0  0  0 
    1.9359    4.9942   -0.1614 H   0  0  0  0  0  0  0  0  0  0  0  0 
    3.3466    3.1635    0.7674 H   0  0  0  0  0  0  0  0  0  0  0  0 
    3.4734    3.2157   -1.0163 H   0  0  0  0  0  0  0  0  0  0  0  0 
    0.5228    2.7994    0.8879 H   0  0  0  0  0  0  0  0  0  0  0  0 
  1  8  1  0  0  0  0 
  1 14  1  0  0  0  0 
  2 15  1  0  0  0  0 
  2  3  1  0  0  0  0 
  3 16  1  0  0  0  0 
  4  2  2  0  0  0  0 
  5 18  1  0  0  0  0 
  5  3  2  0  0  0  0 
  6  7  1  0  0  0  0 
  6 20  1  0  0  0  0 
  6 10  1  0  0  0  0 
  7 21  1  0  0  0  0 
  8  9  2  0  0  0  0 
  8  4  1  0  0  0  0 
  9  5  1  0  0  0  0 
 10 23  1  0  0  0  0 
 11  7  1  0  0  0  0 
 11  9  1  0  0  0  0 
 12  1  1  0  0  0  0 
 13  1  1  0  0  0  0 
 17  4  1  0  0  0  0 
 19  6  1  0  0  0  0 
 22  7  1  0  0  0  0 
M  END 
>  <HBA> 
2 
 
>  <HBD> 
1 
 
>  <TPSA> 
29.46 
 
>  <cid> 
22539 
 
>  <dipole> 
1.43 
 
>  <excitation_energy_1> 
5.072 
 
>  <excitation_energy_2> 
5.539 
 
>  <excitation_energy_3> 
5.629 
 
>  <excitation_energy_4> 
5.72 
 
>  <homo_energy> 
-5.935 
 
>  <homo_lumo_gap> 
6.008 
 
>  <logP> 
1.366 
 
>  <lumo_energy> 
0.073 
 
>  <melting_point> 
31.21 
 
>  <molecular_refractivity> 
43.87 
 
>  <oscillator_strength_1> 
0.0335 
 
>  <oscillator_strength_2> 
0.0002 
 
>  <oscillator_strength_3> 
0.0009 
 
>  <oscillator_strength_4> 
0.0735 
 
>  <open_babel_can_smiles> 
OCCOc1ccccc1C 
 
>  <mulliken_charges> 
23 
1   -0.517145 
2   -0.126828 
3   -0.141762 
4   -0.190193 
5   -0.190888 
6   -0.040026 
7   -0.052077 
8   0.127307 
9   0.327121 
10   -0.617311 
11   -0.541003 
12   0.151044 
13   0.165036 
14   0.157256 
15   0.125246 
16   0.128668 
17   0.122706 
18   0.133961 
19   0.134446 
20   0.150123 
21   0.152931 
22   0.139897 
23   0.40149 
 
>  <lowdin_charges> 
23 
1   -0.43781 
2   -0.176311 
3   -0.14945 
4   -0.159104 
5   -0.21041 
6   -0.137076 
7   -0.146655 
8   -0.024584 
9   0.092815 
10   -0.462321 
11   -0.214712 
12   0.154837 
13   0.162798 
14   0.158289 
15   0.157558 
16   0.155569 
17   0.155087 
18   0.161875 
19   0.134321 
20   0.152027 
21   0.146394 
22   0.143715 
23   0.343148 
 
$$$$ 
 
