PCCDB-ID:  60241 
public computational chemistry database (PCCDB) project, http://pccdb.org 
 
 32 32  0  0  1  0  0  0  0  0999 V2000 
    0.7091   -0.0188    0.5937 C   0  0  0  0  0  0  0  0  0  0  0  0 
    5.7675    0.2929   -3.8964 C   0  0  0  0  0  0  0  0  0  0  0  0 
    7.3484   -0.7258   -2.2358 C   0  0  0  0  0  0  0  0  0  0  0  0 
    6.8103    0.8166    0.7630 C   0  0  0  0  0  0  0  0  0  0  0  0 
    5.5888    1.0238   -1.5161 C   0  0  0  0  0  0  0  0  0  0  0  0 
    4.8964   -1.2961   -2.1951 C   0  0  0  0  0  0  0  0  0  0  0  0 
    2.1606    0.1697    0.9446 C   0  0  0  0  0  0  0  0  0  0  0  0 
    5.9222   -0.1778   -2.4362 C   0  0  0  0  0  0  0  0  0  0  0  0 
    5.4666    0.8145    0.0165 C   0  0  2  0  0  0  0  0  0  0  0  0 
    2.5815    0.8148    1.8759 O   0  0  0  0  0  0  0  0  0  0  0  0 
    4.6869    1.9271    0.4466 O   0  0  0  0  0  0  0  0  0  0  0  0 
    4.8415   -1.3976    1.7237 O   0  0  0  0  0  0  0  0  0  0  0  0 
    4.9315   -1.7822   -0.8315 O   0  0  0  0  0  0  0  0  0  0  0  0 
    2.9691   -0.4981    0.0599 O   0  0  0  0  0  0  0  0  0  0  0  0 
    4.5915   -0.7985    0.3979 P   0  0  2  0  0  0  0  0  0  0  0  0 
    0.0904    0.5832    1.2595 H   0  0  0  0  0  0  0  0  0  0  0  0 
    0.4458   -1.0772    0.6931 H   0  0  0  0  0  0  0  0  0  0  0  0 
    0.5327    0.2661   -0.4483 H   0  0  0  0  0  0  0  0  0  0  0  0 
    6.4816    1.0932   -4.1215 H   0  0  0  0  0  0  0  0  0  0  0  0 
    4.7607    0.6810   -4.0912 H   0  0  0  0  0  0  0  0  0  0  0  0 
    5.9582   -0.5274   -4.5989 H   0  0  0  0  0  0  0  0  0  0  0  0 
    8.0886    0.0806   -2.2886 H   0  0  0  0  0  0  0  0  0  0  0  0 
    7.5896   -1.4520   -3.0213 H   0  0  0  0  0  0  0  0  0  0  0  0 
    7.4644   -1.2357   -1.2764 H   0  0  0  0  0  0  0  0  0  0  0  0 
    7.3128    1.7667    0.5534 H   0  0  0  0  0  0  0  0  0  0  0  0 
    7.4672   -0.0043    0.4648 H   0  0  0  0  0  0  0  0  0  0  0  0 
    6.6433    0.7350    1.8406 H   0  0  0  0  0  0  0  0  0  0  0  0 
    4.6193    1.4309   -1.8275 H   0  0  0  0  0  0  0  0  0  0  0  0 
    6.3236    1.8234   -1.6775 H   0  0  0  0  0  0  0  0  0  0  0  0 
    5.1157   -2.1714   -2.8124 H   0  0  0  0  0  0  0  0  0  0  0  0 
    3.8791   -0.9560   -2.4236 H   0  0  0  0  0  0  0  0  0  0  0  0 
    4.3145    1.7481    1.3296 H   0  0  0  0  0  0  0  0  0  0  0  0 
  1 17  1  0  0  0  0 
  1  7  1  0  0  0  0 
  1 16  1  0  0  0  0 
  2  8  1  0  0  0  0 
  3 24  1  0  0  0  0 
  4 27  1  0  0  0  0 
  5  9  1  0  0  0  0 
  6 13  1  0  0  0  0 
  7 10  2  0  0  0  0 
  8  3  1  0  0  0  0 
  8  6  1  0  0  0  0 
  8  5  1  0  0  0  0 
  9 15  1  0  0  0  0 
  9 11  1  1  0  0  0 
  9  4  1  0  0  0  0 
 11 32  1  0  0  0  0 
 13 15  1  0  0  0  0 
 14 15  1  0  0  0  0 
 14  7  1  0  0  0  0 
 15 12  2  1  0  0  0 
 18  1  1  0  0  0  0 
 19  2  1  0  0  0  0 
 20  2  1  0  0  0  0 
 21  2  1  0  0  0  0 
 22  3  1  0  0  0  0 
 23  3  1  0  0  0  0 
 25  4  1  0  0  0  0 
 26  4  1  0  0  0  0 
 28  5  1  0  0  0  0 
 29  5  1  0  0  0  0 
 30  6  1  0  0  0  0 
 31  6  1  0  0  0  0 
M  END 
>  <HBA> 
5 
 
>  <HBD> 
1 
 
>  <TPSA> 
82.64 
 
>  <cid> 
60241 
 
>  <dipole> 
4.85 
 
>  <excitation_energy_1> 
5.616 
 
>  <excitation_energy_2> 
5.914 
 
>  <excitation_energy_3> 
6.624 
 
>  <excitation_energy_4> 
6.646 
 
>  <homo_energy> 
-7.165 
 
>  <homo_lumo_gap> 
6.705 
 
>  <logP> 
1.898 
 
>  <lumo_energy> 
-0.46 
 
>  <melting_point> 
61.27 
 
>  <molecular_refractivity> 
55.24 
 
>  <oscillator_strength_1> 
0.0006 
 
>  <oscillator_strength_2> 
0.0013 
 
>  <oscillator_strength_3> 
0.0068 
 
>  <oscillator_strength_4> 
0.0069 
 
>  <open_babel_can_smiles> 
CC(=O)O[P@@]1(=O)OCC(C[C@@]1(C)O)(C)C 
 
>  <mulliken_charges> 
32 
1   -0.521505 
2   -0.454015 
3   -0.458275 
4   -0.468784 
5   -0.290305 
6   -0.048385 
7   0.631476 
8   0.053977 
9   0.089964 
10   -0.450789 
11   -0.652368 
12   -0.52091 
13   -0.52321 
14   -0.557337 
15   1.130643 
16   0.190701 
17   0.197931 
18   0.187633 
19   0.155719 
20   0.147033 
21   0.147094 
22   0.147761 
23   0.144365 
24   0.171805 
25   0.156807 
26   0.15908 
27   0.179018 
28   0.158179 
29   0.151797 
30   0.161073 
31   0.156178 
32   0.42765 
 
>  <lowdin_charges> 
32 
1   -0.457428 
2   -0.441051 
3   -0.449127 
4   -0.453151 
5   -0.283964 
6   -0.124435 
7   0.232234 
8   -0.005039 
9   -0.025745 
10   -0.234408 
11   -0.454676 
12   -0.557625 
13   -0.384026 
14   -0.354528 
15   1.045767 
16   0.181867 
17   0.186137 
18   0.180642 
19   0.158344 
20   0.150147 
21   0.152273 
22   0.153581 
23   0.152228 
24   0.160084 
25   0.159311 
26   0.162507 
27   0.169713 
28   0.15998 
29   0.157058 
30   0.160292 
31   0.149849 
32   0.353192 
 
$$$$ 
 
