PCCDB-ID:  15693 
public computational chemistry database (PCCDB) project, http://pccdb.org 
 
 18 18  0  0  0  0  0  0  0  0999 V2000 
    1.1929   -0.5662    0.3752 C   0  0  0  0  0  0  0  0  0  0  0  0 
    4.5865    0.2185    3.6795 C   0  0  0  0  0  0  0  0  0  0  0  0 
    4.3694    1.5578    3.9917 C   0  0  0  0  0  0  0  0  0  0  0  0 
    4.1484   -0.3167    2.4666 C   0  0  0  0  0  0  0  0  0  0  0  0 
    3.2685    1.8625    1.8618 C   0  0  0  0  0  0  0  0  0  0  0  0 
    3.7051    2.4004    3.0838 C   0  0  0  0  0  0  0  0  0  0  0  0 
    3.4813    0.5148    1.5589 C   0  0  0  0  0  0  0  0  0  0  0  0 
    3.4361    3.7334    3.4102 N   0  0  0  0  0  0  0  0  0  0  0  0 
    2.9321   -0.1379   -0.0265 S   0  0  0  0  0  0  0  0  0  0  0  0 
    0.7507   -0.9733   -0.5386 H   0  0  0  0  0  0  0  0  0  0  0  0 
    0.6313    0.3201    0.6815 H   0  0  0  0  0  0  0  0  0  0  0  0 
    1.1485   -1.3221    1.1636 H   0  0  0  0  0  0  0  0  0  0  0  0 
    5.1079   -0.4157    4.3919 H   0  0  0  0  0  0  0  0  0  0  0  0 
    4.7149    1.9604    4.9414 H   0  0  0  0  0  0  0  0  0  0  0  0 
    4.3223   -1.3589    2.2208 H   0  0  0  0  0  0  0  0  0  0  0  0 
    2.7623    2.5000    1.1413 H   0  0  0  0  0  0  0  0  0  0  0  0 
    4.0708    4.1415    4.0856 H   0  0  0  0  0  0  0  0  0  0  0  0 
    3.3034    4.3466    2.6152 H   0  0  0  0  0  0  0  0  0  0  0  0 
  1 11  1  0  0  0  0 
  1 12  1  0  0  0  0 
  2  3  1  0  0  0  0 
  2 13  1  0  0  0  0 
  3 14  1  0  0  0  0 
  4  2  2  0  0  0  0 
  5  6  1  0  0  0  0 
  6  8  1  0  0  0  0 
  6  3  2  0  0  0  0 
  7  5  2  0  0  0  0 
  7  4  1  0  0  0  0 
  8 17  1  0  0  0  0 
  9  1  1  0  0  0  0 
  9  7  1  0  0  0  0 
 10  1  1  0  0  0  0 
 15  4  1  0  0  0  0 
 16  5  1  0  0  0  0 
 18  8  1  0  0  0  0 
M  END 
>  <HBA> 
2 
 
>  <HBD> 
1 
 
>  <TPSA> 
51.32 
 
>  <cid> 
15693 
 
>  <dipole> 
2.32 
 
>  <excitation_energy_1> 
4.454 
 
>  <excitation_energy_2> 
4.535 
 
>  <excitation_energy_3> 
4.864 
 
>  <excitation_energy_4> 
5.19 
 
>  <homo_energy> 
-5.597 
 
>  <homo_lumo_gap> 
5.32 
 
>  <logP> 
2.572 
 
>  <lumo_energy> 
-0.278 
 
>  <melting_point> 
66.29 
 
>  <molecular_refractivity> 
42.57 
 
>  <oscillator_strength_1> 
0.0002 
 
>  <oscillator_strength_2> 
0.0503 
 
>  <oscillator_strength_3> 
0.0052 
 
>  <oscillator_strength_4> 
0.0025 
 
>  <open_babel_can_smiles> 
CSc1cccc(c1)N 
 
>  <mulliken_charges> 
18 
1   -0.574372 
2   -0.127204 
3   -0.171853 
4   -0.152253 
5   -0.187659 
6   0.321277 
7   -0.097004 
8   -0.787361 
9   0.069829 
10   0.178125 
11   0.180703 
12   0.182335 
13   0.130621 
14   0.119847 
15   0.139924 
16   0.132709 
17   0.32045 
18   0.321885 
 
>  <lowdin_charges> 
18 
1   -0.54221 
2   -0.146665 
3   -0.195502 
4   -0.183888 
5   -0.201029 
6   0.062282 
7   -0.116337 
8   -0.490979 
9   0.117688 
10   0.172742 
11   0.164129 
12   0.16507 
13   0.160338 
14   0.15396 
15   0.163905 
16   0.162573 
17   0.276917 
18   0.277006 
 
$$$$ 
 
