PCCDB-ID:  67162 
public computational chemistry database (PCCDB) project, http://pccdb.org 
 
 24 23  0  0  0  0  0  0  0  0999 V2000 
    0.5917    0.0920    0.7278 C   0  0  0  0  0  0  0  0  0  0  0  0 
    6.9506   -0.8765    2.8002 C   0  0  0  0  0  0  0  0  0  0  0  0 
    6.8368   -3.2446    2.4477 C   0  0  0  0  0  0  0  0  0  0  0  0 
    2.1059    0.2894    0.7334 C   0  0  0  0  0  0  0  0  0  0  0  0 
    4.2353   -0.7244    1.3779 C   0  0  0  0  0  0  0  0  0  0  0  0 
    4.8556   -1.9088    2.1267 C   0  0  0  0  0  0  0  0  0  0  0  0 
    2.7785   -0.8331    1.3854 N   0  0  0  0  0  0  0  0  0  0  0  0 
    6.3151   -1.9467    2.0416 N   0  0  0  0  0  0  0  0  0  0  0  0 
    0.0873    0.9508    0.2717 H   0  0  0  0  0  0  0  0  0  0  0  0 
    0.2170   -0.0332    1.7489 H   0  0  0  0  0  0  0  0  0  0  0  0 
    0.3112   -0.8003    0.1533 H   0  0  0  0  0  0  0  0  0  0  0  0 
    8.0371   -0.9362    2.6739 H   0  0  0  0  0  0  0  0  0  0  0  0 
    6.7290   -0.9231    3.8857 H   0  0  0  0  0  0  0  0  0  0  0  0 
    6.6276    0.1010    2.4311 H   0  0  0  0  0  0  0  0  0  0  0  0 
    7.9242   -3.2622    2.3133 H   0  0  0  0  0  0  0  0  0  0  0  0 
    6.4046   -4.0318    1.8203 H   0  0  0  0  0  0  0  0  0  0  0  0 
    6.6225   -3.4943    3.5065 H   0  0  0  0  0  0  0  0  0  0  0  0 
    2.3561    1.1987    1.2964 H   0  0  0  0  0  0  0  0  0  0  0  0 
    2.4631    0.4583   -0.3019 H   0  0  0  0  0  0  0  0  0  0  0  0 
    4.6724   -0.6784    0.3626 H   0  0  0  0  0  0  0  0  0  0  0  0 
    4.4931    0.2197    1.8739 H   0  0  0  0  0  0  0  0  0  0  0  0 
    4.4792   -2.8346    1.6704 H   0  0  0  0  0  0  0  0  0  0  0  0 
    4.4938   -1.9050    3.1736 H   0  0  0  0  0  0  0  0  0  0  0  0 
    2.5107   -1.6929    0.9053 H   0  0  0  0  0  0  0  0  0  0  0  0 
  1  4  1  0  0  0  0 
  1 10  1  0  0  0  0 
  2 13  1  0  0  0  0 
  3 17  1  0  0  0  0 
  4 18  1  0  0  0  0 
  4  7  1  0  0  0  0 
  5  7  1  0  0  0  0 
  5 21  1  0  0  0  0 
  5  6  1  0  0  0  0 
  6 23  1  0  0  0  0 
  8  6  1  0  0  0  0 
  8  3  1  0  0  0  0 
  8  2  1  0  0  0  0 
  9  1  1  0  0  0  0 
 11  1  1  0  0  0  0 
 12  2  1  0  0  0  0 
 14  2  1  0  0  0  0 
 15  3  1  0  0  0  0 
 16  3  1  0  0  0  0 
 19  4  1  0  0  0  0 
 20  5  1  0  0  0  0 
 22  6  1  0  0  0  0 
 24  7  1  0  0  0  0 
M  END 
>  <HBA> 
2 
 
>  <HBD> 
1 
 
>  <TPSA> 
15.27 
 
>  <cid> 
67162 
 
>  <dipole> 
0.39 
 
>  <excitation_energy_1> 
5.312 
 
>  <excitation_energy_2> 
5.503 
 
>  <excitation_energy_3> 
5.635 
 
>  <excitation_energy_4> 
5.726 
 
>  <homo_energy> 
-5.633 
 
>  <homo_lumo_gap> 
7.987 
 
>  <logP> 
0.548 
 
>  <lumo_energy> 
2.354 
 
>  <melting_point> 
3.25 
 
>  <molecular_refractivity> 
36.65 
 
>  <oscillator_strength_1> 
0.0132 
 
>  <oscillator_strength_2> 
0.0036 
 
>  <oscillator_strength_3> 
0.007 
 
>  <oscillator_strength_4> 
0.0077 
 
>  <open_babel_can_smiles> 
CCNCCN(C)C 
 
>  <mulliken_charges> 
24 
1   -0.450956 
2   -0.300817 
3   -0.291888 
4   -0.103761 
5   -0.120186 
6   -0.116599 
7   -0.556051 
8   -0.37042 
9   0.143618 
10   0.15893 
11   0.137388 
12   0.147272 
13   0.117306 
14   0.153172 
15   0.146226 
16   0.146793 
17   0.116905 
18   0.138707 
19   0.109861 
20   0.122669 
21   0.137786 
22   0.124978 
23   0.12292 
24   0.286147 
 
>  <lowdin_charges> 
24 
1   -0.44895 
2   -0.353684 
3   -0.352891 
4   -0.195857 
5   -0.206371 
6   -0.201951 
7   -0.364794 
8   -0.184726 
9   0.153184 
10   0.155292 
11   0.144829 
12   0.147852 
13   0.117963 
14   0.150138 
15   0.14645 
16   0.149435 
17   0.118152 
18   0.140577 
19   0.113587 
20   0.121719 
21   0.140522 
22   0.139387 
23   0.122512 
24   0.247625 
 
$$$$ 
 
