PCCDB-ID:  13175 
public computational chemistry database (PCCDB) project, http://pccdb.org 
 
 31 30  0  0  0  0  0  0  0  0999 V2000 
    1.8299   -1.9072   -0.3607 C   0  0  0  0  0  0  0  0  0  0  0  0 
    7.7918    5.7258   -1.8016 C   0  0  0  0  0  0  0  0  0  0  0  0 
    3.2367   -1.3838   -0.0548 C   0  0  0  0  0  0  0  0  0  0  0  0 
    8.4365    4.7796   -0.7817 C   0  0  0  0  0  0  0  0  0  0  0  0 
    3.3359    0.1465   -0.0966 C   0  0  0  0  0  0  0  0  0  0  0  0 
    7.7788    4.7952    0.6089 C   0  0  0  0  0  0  0  0  0  0  0  0 
    4.7436    0.6709    0.2112 C   0  0  0  0  0  0  0  0  0  0  0  0 
    6.3445    4.2529    0.6526 C   0  0  0  0  0  0  0  0  0  0  0  0 
    4.8372    2.1972    0.1734 C   0  0  0  0  0  0  0  0  0  0  0  0 
    6.2351    2.7432    0.4475 C   0  0  0  0  0  0  0  0  0  0  0  0 
    7.2066    2.0118    0.5160 O   0  0  0  0  0  0  0  0  0  0  0  0 
    1.7924   -3.0018   -0.3207 H   0  0  0  0  0  0  0  0  0  0  0  0 
    1.5002   -1.5994   -1.3609 H   0  0  0  0  0  0  0  0  0  0  0  0 
    1.0979   -1.5227    0.3604 H   0  0  0  0  0  0  0  0  0  0  0  0 
    8.3394    5.7112   -2.7509 H   0  0  0  0  0  0  0  0  0  0  0  0 
    7.7887    6.7609   -1.4366 H   0  0  0  0  0  0  0  0  0  0  0  0 
    6.7536    5.4513   -2.0237 H   0  0  0  0  0  0  0  0  0  0  0  0 
    3.9517   -1.8113   -0.7717 H   0  0  0  0  0  0  0  0  0  0  0  0 
    3.5523   -1.7390    0.9364 H   0  0  0  0  0  0  0  0  0  0  0  0 
    9.4924    5.0565   -0.6619 H   0  0  0  0  0  0  0  0  0  0  0  0 
    8.4358    3.7536   -1.1689 H   0  0  0  0  0  0  0  0  0  0  0  0 
    2.6178    0.5748    0.6192 H   0  0  0  0  0  0  0  0  0  0  0  0 
    3.0204    0.5020   -1.0895 H   0  0  0  0  0  0  0  0  0  0  0  0 
    7.7754    5.8237    0.9949 H   0  0  0  0  0  0  0  0  0  0  0  0 
    8.3886    4.1980    1.2957 H   0  0  0  0  0  0  0  0  0  0  0  0 
    5.4651    0.2528   -0.5011 H   0  0  0  0  0  0  0  0  0  0  0  0 
    5.0652    0.3169    1.1994 H   0  0  0  0  0  0  0  0  0  0  0  0 
    5.6903    4.7606   -0.0691 H   0  0  0  0  0  0  0  0  0  0  0  0 
    5.8951    4.4623    1.6362 H   0  0  0  0  0  0  0  0  0  0  0  0 
    4.1363    2.6556    0.8873 H   0  0  0  0  0  0  0  0  0  0  0  0 
    4.5260    2.5792   -0.8123 H   0  0  0  0  0  0  0  0  0  0  0  0 
  1 12  1  0  0  0  0 
  1  3  1  0  0  0  0 
  1 14  1  0  0  0  0 
  2 16  1  0  0  0  0 
  2  4  1  0  0  0  0 
  3 19  1  0  0  0  0 
  4 20  1  0  0  0  0 
  4  6  1  0  0  0  0 
  5  3  1  0  0  0  0 
  5  7  1  0  0  0  0 
  5 22  1  0  0  0  0 
  6  8  1  0  0  0  0 
  6 24  1  0  0  0  0 
  6 25  1  0  0  0  0 
  7 27  1  0  0  0  0 
  8 29  1  0  0  0  0 
  9  7  1  0  0  0  0 
  9 10  1  0  0  0  0 
  9 30  1  0  0  0  0 
 10 11  2  0  0  0  0 
 10  8  1  0  0  0  0 
 13  1  1  0  0  0  0 
 15  2  1  0  0  0  0 
 17  2  1  0  0  0  0 
 18  3  1  0  0  0  0 
 21  4  1  0  0  0  0 
 23  5  1  0  0  0  0 
 26  7  1  0  0  0  0 
 28  8  1  0  0  0  0 
 31  9  1  0  0  0  0 
M  END 
>  <HBA> 
1 
 
>  <HBD> 
0 
 
>  <TPSA> 
17.07 
 
>  <cid> 
13175 
 
>  <dipole> 
2.31 
 
>  <excitation_energy_1> 
4.412 
 
>  <excitation_energy_2> 
6.004 
 
>  <excitation_energy_3> 
6.637 
 
>  <excitation_energy_4> 
6.738 
 
>  <homo_energy> 
-6.55 
 
>  <homo_lumo_gap> 
6.316 
 
>  <logP> 
3.326 
 
>  <lumo_energy> 
-0.234 
 
>  <melting_point> 
-7.83 
 
>  <molecular_refractivity> 
50.38 
 
>  <oscillator_strength_1> 
0.0 
 
>  <oscillator_strength_2> 
0.0072 
 
>  <oscillator_strength_3> 
0.0004 
 
>  <oscillator_strength_4> 
0.008 
 
>  <open_babel_can_smiles> 
CCCCCC(=O)CCCC 
 
>  <mulliken_charges> 
31 
1   -0.441766 
2   -0.44396 
3   -0.247212 
4   -0.2558 
5   -0.249626 
6   -0.244978 
7   -0.245995 
8   -0.360463 
9   -0.361123 
10   0.461691 
11   -0.452317 
12   0.142959 
13   0.140799 
14   0.140546 
15   0.144791 
16   0.139582 
17   0.136651 
18   0.133449 
19   0.132587 
20   0.133204 
21   0.152823 
22   0.124388 
23   0.124879 
24   0.124931 
25   0.153915 
26   0.15104 
27   0.142521 
28   0.15215 
29   0.160997 
30   0.151128 
31   0.158209 
 
>  <lowdin_charges> 
31 
1   -0.442968 
2   -0.445485 
3   -0.272559 
4   -0.273687 
5   -0.27615 
6   -0.274421 
7   -0.271365 
8   -0.316187 
9   -0.311953 
10   0.166856 
11   -0.241122 
12   0.147889 
13   0.145395 
14   0.146818 
15   0.150964 
16   0.143738 
17   0.140805 
18   0.141823 
19   0.139772 
20   0.142539 
21   0.148792 
22   0.136979 
23   0.135767 
24   0.139783 
25   0.157602 
26   0.153012 
27   0.147141 
28   0.156758 
29   0.165519 
30   0.157235 
31   0.160711 
 
$$$$ 
 
