PCCDB-ID:  23272 
public computational chemistry database (PCCDB) project, http://pccdb.org 
 
 15 14  0  0  0  0  0  0  0  0999 V2000 
    0.8634    0.0828    0.0430 C   0  0  0  0  0  0  0  0  0  0  0  0 
    2.9432    1.5541    0.0036 C   0  0  0  0  0  0  0  0  0  0  0  0 
    2.9770   -0.6998    1.1913 C   0  0  0  0  0  0  0  0  0  0  0  0 
    2.4020    0.1279    0.0277 C   0  0  0  0  0  0  0  0  0  0  0  0 
    2.7796   -0.6692   -1.2098 N   0  0  0  0  0  0  0  0  0  0  0  0 
    3.4435   -0.0644   -2.0204 O   0  0  0  0  0  0  0  0  0  0  0  0 
    0.4873    0.5107    0.9787 H   0  0  0  0  0  0  0  0  0  0  0  0 
    0.5034   -0.9482   -0.0358 H   0  0  0  0  0  0  0  0  0  0  0  0 
    0.4449    0.6582   -0.7900 H   0  0  0  0  0  0  0  0  0  0  0  0 
    2.6435    2.0817    0.9155 H   0  0  0  0  0  0  0  0  0  0  0  0 
    2.5593    2.1093   -0.8576 H   0  0  0  0  0  0  0  0  0  0  0  0 
    4.0359    1.5626   -0.0557 H   0  0  0  0  0  0  0  0  0  0  0  0 
    2.6401   -0.2835    2.1470 H   0  0  0  0  0  0  0  0  0  0  0  0 
    4.0724   -0.6875    1.1791 H   0  0  0  0  0  0  0  0  0  0  0  0 
    2.6441   -1.7411    1.1306 H   0  0  0  0  0  0  0  0  0  0  0  0 
  1  7  1  0  0  0  0 
  2  4  1  0  0  0  0 
  2 10  1  0  0  0  0 
  3 13  1  0  0  0  0 
  4  1  1  0  0  0  0 
  4  3  1  0  0  0  0 
  5  4  1  0  0  0  0 
  6  5  1  0  0  0  0 
  8  1  1  0  0  0  0 
  9  1  1  0  0  0  0 
 11  2  1  0  0  0  0 
 12  2  1  0  0  0  0 
 14  3  1  0  0  0  0 
 15  3  1  0  0  0  0 
M  RAD  2   5   2   6   2 
M  END 
>  <HBA> 
2 
 
>  <HBD> 
0 
 
>  <TPSA> 
29.43 
 
>  <cid> 
23272 
 
>  <dipole> 
2.48 
 
>  <excitation_energy_1> 
1.772 
 
>  <excitation_energy_2> 
5.606 
 
>  <excitation_energy_3> 
5.795 
 
>  <excitation_energy_4> 
6.163 
 
>  <homo_energy> 
-5.85 
 
>  <homo_lumo_gap> 
3.788 
 
>  <logP> 
1.551 
 
>  <lumo_energy> 
-2.063 
 
>  <melting_point> 
4.84 
 
>  <molecular_refractivity> 
26.12 
 
>  <oscillator_strength_1> 
0.0001 
 
>  <oscillator_strength_2> 
0.0095 
 
>  <oscillator_strength_3> 
0.0048 
 
>  <oscillator_strength_4> 
0.0204 
 
>  <open_babel_can_smiles> 
[O][N]C(C)(C)C 
 
>  <mulliken_charges> 
15 
1   -0.448592 
2   -0.440193 
3   -0.448553 
4   0.135572 
5   0.048926 
6   -0.258809 
7   0.155393 
8   0.163835 
9   0.157145 
10   0.145459 
11   0.156751 
12   0.156767 
13   0.155357 
14   0.157157 
15   0.163786 
 
>  <lowdin_charges> 
15 
1   -0.442789 
2   -0.451134 
3   -0.439138 
4   0.021064 
5   0.042432 
6   -0.153903 
7   0.159179 
8   0.16022 
9   0.157858 
10   0.155879 
11   0.159652 
12   0.156968 
13   0.158845 
14   0.154901 
15   0.159967 
 
$$$$ 
 
