PCCDB-ID:  7141 
public computational chemistry database (PCCDB) project, http://pccdb.org 
 
 31 33  0  0  0  0  0  0  0  0999 V2000 
    2.9922    0.7733   -0.1295 C   0  0  0  0  0  0  0  0  0  0  0  0 
    2.9024   -0.6237    0.0837 C   0  0  0  0  0  0  0  0  0  0  0  0 
    1.8439    1.5298   -0.2188 C   0  0  0  0  0  0  0  0  0  0  0  0 
    1.6746   -1.2359    0.2062 C   0  0  0  0  0  0  0  0  0  0  0  0 
   -0.6432    1.6713   -0.1938 C   0  0  0  0  0  0  0  0  0  0  0  0 
   -1.8649    1.0619   -0.0687 C   0  0  0  0  0  0  0  0  0  0  0  0 
   -3.0290   -2.8574    1.7007 C   0  0  0  0  0  0  0  0  0  0  0  0 
   -4.7296   -2.7865   -0.0050 C   0  0  0  0  0  0  0  0  0  0  0  0 
   -3.4759   -4.1213    2.0833 C   0  0  0  0  0  0  0  0  0  0  0  0 
   -5.1934   -4.0359    0.3914 C   0  0  0  0  0  0  0  0  0  0  0  0 
   -0.8047   -1.0955    0.2366 C   0  0  0  0  0  0  0  0  0  0  0  0 
    0.5651    0.9285   -0.0990 C   0  0  0  0  0  0  0  0  0  0  0  0 
    0.4702   -0.4841    0.1221 C   0  0  0  0  0  0  0  0  0  0  0  0 
   -3.6420   -2.1739    0.6401 C   0  0  0  0  0  0  0  0  0  0  0  0 
   -1.9680   -0.3457    0.1527 C   0  0  0  0  0  0  0  0  0  0  0  0 
   -4.5600   -4.7182    1.4343 C   0  0  0  0  0  0  0  0  0  0  0  0 
   -3.2544   -0.8774    0.2552 N   0  0  0  0  0  0  0  0  0  0  0  0 
   -5.0443   -5.9555    1.7718 O   0  0  0  0  0  0  0  0  0  0  0  0 
    3.9669    1.2438   -0.2251 H   0  0  0  0  0  0  0  0  0  0  0  0 
    3.8116   -1.2155    0.1506 H   0  0  0  0  0  0  0  0  0  0  0  0 
    1.9027    2.6032   -0.3858 H   0  0  0  0  0  0  0  0  0  0  0  0 
    1.6102   -2.3093    0.3693 H   0  0  0  0  0  0  0  0  0  0  0  0 
   -0.5889    2.7442   -0.3633 H   0  0  0  0  0  0  0  0  0  0  0  0 
   -2.7778    1.6512   -0.1272 H   0  0  0  0  0  0  0  0  0  0  0  0 
   -2.2120   -2.3930    2.2420 H   0  0  0  0  0  0  0  0  0  0  0  0 
   -5.2164   -2.2737   -0.8317 H   0  0  0  0  0  0  0  0  0  0  0  0 
   -2.9837   -4.6363    2.9068 H   0  0  0  0  0  0  0  0  0  0  0  0 
   -6.0362   -4.5023   -0.1089 H   0  0  0  0  0  0  0  0  0  0  0  0 
   -0.8544   -2.1706    0.3710 H   0  0  0  0  0  0  0  0  0  0  0  0 
   -3.9794   -0.3259   -0.1814 H   0  0  0  0  0  0  0  0  0  0  0  0 
   -4.5185   -6.3076    2.5063 H   0  0  0  0  0  0  0  0  0  0  0  0 
  1  2  1  0  0  0  0 
  2 20  1  0  0  0  0 
  2  4  2  0  0  0  0 
  3  1  2  0  0  0  0 
  3 12  1  0  0  0  0 
  4 22  1  0  0  0  0 
  5 12  2  0  0  0  0 
  5  6  1  0  0  0  0 
  6 15  2  0  0  0  0 
  7  9  1  0  0  0  0 
  7 25  1  0  0  0  0 
  8 10  2  0  0  0  0 
  8 14  1  0  0  0  0 
  9 27  1  0  0  0  0 
 10 16  1  0  0  0  0 
 11 29  1  0  0  0  0 
 12 13  1  0  0  0  0 
 13  4  1  0  0  0  0 
 13 11  2  0  0  0  0 
 14  7  2  0  0  0  0 
 15 11  1  0  0  0  0 
 15 17  1  0  0  0  0 
 16 18  1  0  0  0  0 
 16  9  2  0  0  0  0 
 17 14  1  0  0  0  0 
 18 31  1  0  0  0  0 
 19  1  1  0  0  0  0 
 21  3  1  0  0  0  0 
 23  5  1  0  0  0  0 
 24  6  1  0  0  0  0 
 26  8  1  0  0  0  0 
 28 10  1  0  0  0  0 
 30 17  1  0  0  0  0 
M  END 
>  <HBA> 
1 
 
>  <HBD> 
2 
 
>  <TPSA> 
32.26 
 
>  <cid> 
7141 
 
>  <dipole> 
0.83 
 
>  <excitation_energy_1> 
3.476 
 
>  <excitation_energy_2> 
3.921 
 
>  <excitation_energy_3> 
4.042 
 
>  <excitation_energy_4> 
4.356 
 
>  <homo_energy> 
-4.849 
 
>  <homo_lumo_gap> 
4.038 
 
>  <logP> 
4.362 
 
>  <lumo_energy> 
-0.811 
 
>  <melting_point> 
163.75 
 
>  <molecular_refractivity> 
75.51 
 
>  <oscillator_strength_1> 
0.067 
 
>  <oscillator_strength_2> 
0.0297 
 
>  <oscillator_strength_3> 
0.2924 
 
>  <oscillator_strength_4> 
0.001 
 
>  <open_babel_can_smiles> 
Oc1ccc(cc1)Nc1ccc2c(c1)cccc2 
 
>  <mulliken_charges> 
31 
1   -0.140796 
2   -0.134767 
3   -0.192815 
4   -0.197113 
5   -0.198156 
6   -0.189254 
7   -0.171857 
8   -0.190869 
9   -0.205667 
10   -0.163373 
11   -0.269315 
12   0.135761 
13   0.136017 
14   0.354227 
15   0.369866 
16   0.349562 
17   -0.798771 
18   -0.647215 
19   0.124542 
20   0.125536 
21   0.124702 
22   0.124084 
23   0.129599 
24   0.121086 
25   0.150196 
26   0.125766 
27   0.120973 
28   0.141606 
29   0.138119 
30   0.321944 
31   0.40638 
 
>  <lowdin_charges> 
31 
1   -0.170496 
2   -0.157457 
3   -0.152981 
4   -0.163343 
5   -0.144838 
6   -0.188005 
7   -0.173676 
8   -0.177122 
9   -0.20694 
10   -0.177651 
11   -0.212921 
12   -0.016157 
13   0.010026 
14   0.037235 
15   0.059236 
16   0.091197 
17   -0.257758 
18   -0.385131 
19   0.156056 
20   0.156916 
21   0.153187 
22   0.153114 
23   0.156252 
24   0.154368 
25   0.170033 
26   0.157432 
27   0.155421 
28   0.16946 
29   0.161826 
30   0.284625 
31   0.358092 
 
$$$$ 
 
