PCCDB-ID:  61380 
public computational chemistry database (PCCDB) project, http://pccdb.org 
 
 22 22  0  0  1  0  0  0  0  0999 V2000 
    3.4824    0.1484   -1.2257 C   0  0  0  0  0  0  0  0  0  0  0  0 
    4.6870   -0.0843    3.4533 C   0  0  0  0  0  0  0  0  0  0  0  0 
    2.8188   -1.5782    0.5363 C   0  0  0  0  0  0  0  0  0  0  0  0 
    3.1273    0.9834    1.7639 C   0  0  0  0  0  0  0  0  0  0  0  0 
    2.4129   -0.3003   -0.2132 C   0  0  1  0  0  0  0  0  0  0  0  0 
    3.5317   -0.3099    2.4806 C   0  0  1  0  0  0  0  0  0  0  0  0 
    2.0544    0.7035    0.8043 N   0  0  0  0  0  0  0  0  0  0  0  0 
    3.9241   -1.2827    1.4520 N   0  0  0  0  0  0  0  0  0  0  0  0 
    3.6000   -0.5986   -2.0207 H   0  0  0  0  0  0  0  0  0  0  0  0 
    4.4559    0.2805   -0.7458 H   0  0  0  0  0  0  0  0  0  0  0  0 
    3.1941    1.0948   -1.7007 H   0  0  0  0  0  0  0  0  0  0  0  0 
    4.4160    0.6519    4.2185 H   0  0  0  0  0  0  0  0  0  0  0  0 
    5.5755    0.2730    2.9213 H   0  0  0  0  0  0  0  0  0  0  0  0 
    4.9534   -1.0155    3.9689 H   0  0  0  0  0  0  0  0  0  0  0  0 
    3.1482   -2.3417   -0.1780 H   0  0  0  0  0  0  0  0  0  0  0  0 
    1.9263   -1.9648    1.0621 H   0  0  0  0  0  0  0  0  0  0  0  0 
    4.0328    1.4219    1.3068 H   0  0  0  0  0  0  0  0  0  0  0  0 
    2.7463    1.7029    2.4988 H   0  0  0  0  0  0  0  0  0  0  0  0 
    1.4899   -0.5237   -0.7657 H   0  0  0  0  0  0  0  0  0  0  0  0 
    2.6447   -0.6586    3.0455 H   0  0  0  0  0  0  0  0  0  0  0  0 
    1.7697    1.5674    0.3465 H   0  0  0  0  0  0  0  0  0  0  0  0 
    4.2367   -2.1427    1.8997 H   0  0  0  0  0  0  0  0  0  0  0  0 
  1 10  1  0  0  0  0 
  1  5  1  0  0  0  0 
  2 14  1  0  0  0  0 
  2 12  1  0  0  0  0 
  3 16  1  0  0  0  0 
  3  8  1  0  0  0  0 
  4  6  1  0  0  0  0 
  4 18  1  0  0  0  0 
  5 19  1  6  0  0  0 
  5  3  1  0  0  0  0 
  5  7  1  0  0  0  0 
  6 20  1  1  0  0  0 
  6  2  1  0  0  0  0 
  7  4  1  0  0  0  0 
  8 22  1  0  0  0  0 
  8  6  1  0  0  0  0 
  9  1  1  0  0  0  0 
 11  1  1  0  0  0  0 
 13  2  1  0  0  0  0 
 15  3  1  0  0  0  0 
 17  4  1  0  0  0  0 
 21  7  1  0  0  0  0 
M  END 
>  <HBA> 
2 
 
>  <HBD> 
2 
 
>  <TPSA> 
24.06 
 
>  <cid> 
61380 
 
>  <dipole> 
0.16 
 
>  <excitation_energy_1> 
5.182 
 
>  <excitation_energy_2> 
5.37 
 
>  <excitation_energy_3> 
5.637 
 
>  <excitation_energy_4> 
5.799 
 
>  <homo_energy> 
-5.709 
 
>  <homo_lumo_gap> 
7.802 
 
>  <logP> 
0.614 
 
>  <lumo_energy> 
2.093 
 
>  <melting_point> 
50.37 
 
>  <molecular_refractivity> 
42.28 
 
>  <oscillator_strength_1> 
0.0125 
 
>  <oscillator_strength_2> 
0.0025 
 
>  <oscillator_strength_3> 
0.0041 
 
>  <oscillator_strength_4> 
0.005 
 
>  <open_babel_can_smiles> 
C[C@@H]1NC[C@@H](NC1)C 
 
>  <mulliken_charges> 
22 
1   -0.451028 
2   -0.45637 
3   -0.123258 
4   -0.114909 
5   0.040557 
6   0.057315 
7   -0.566057 
8   -0.564713 
9   0.135315 
10   0.167009 
11   0.127797 
12   0.142989 
13   0.154209 
14   0.136652 
15   0.130365 
16   0.120652 
17   0.11889 
18   0.129665 
19   0.122906 
20   0.110387 
21   0.290258 
22   0.291367 
 
>  <lowdin_charges> 
22 
1   -0.464582 
2   -0.44843 
3   -0.208939 
4   -0.210597 
5   -0.068396 
6   -0.065139 
7   -0.369569 
8   -0.368882 
9   0.148846 
10   0.158387 
11   0.142148 
12   0.152656 
13   0.154663 
14   0.147433 
15   0.14439 
16   0.124742 
17   0.122558 
18   0.144751 
19   0.139988 
20   0.119185 
21   0.251923 
22   0.252864 
 
$$$$ 
 
