PCCDB-ID:  8076 
public computational chemistry database (PCCDB) project, http://pccdb.org 
 
 16 15  0  0  0  0  0  0  0  0999 V2000 
    1.1010    0.8001   -0.4383 C   0  0  0  0  0  0  0  0  0  0  0  0 
    2.5697    0.4808   -0.2147 C   0  0  0  0  0  0  0  0  0  0  0  0 
    5.3690    1.6045   -2.3055 C   0  0  0  0  0  0  0  0  0  0  0  0 
    4.7188    0.8127   -1.1810 C   0  0  0  0  0  0  0  0  0  0  0  0 
    5.0762    2.9864   -2.1937 O   0  0  0  0  0  0  0  0  0  0  0  0 
    3.3204    1.0363   -1.2841 O   0  0  0  0  0  0  0  0  0  0  0  0 
    0.4921    0.3826    0.3710 H   0  0  0  0  0  0  0  0  0  0  0  0 
    0.7552    0.3770   -1.3869 H   0  0  0  0  0  0  0  0  0  0  0  0 
    0.9425    1.8832   -0.4671 H   0  0  0  0  0  0  0  0  0  0  0  0 
    2.7283   -0.6097   -0.1730 H   0  0  0  0  0  0  0  0  0  0  0  0 
    2.9180    0.8971    0.7454 H   0  0  0  0  0  0  0  0  0  0  0  0 
    5.0311    1.1986   -3.2731 H   0  0  0  0  0  0  0  0  0  0  0  0 
    6.4579    1.4995   -2.2563 H   0  0  0  0  0  0  0  0  0  0  0  0 
    5.0910    1.1693   -0.2070 H   0  0  0  0  0  0  0  0  0  0  0  0 
    4.9529   -0.2619   -1.2674 H   0  0  0  0  0  0  0  0  0  0  0  0 
    4.1131    3.0328   -2.0710 H   0  0  0  0  0  0  0  0  0  0  0  0 
  1  2  1  0  0  0  0 
  1  7  1  0  0  0  0 
  2 10  1  0  0  0  0 
  2 11  1  0  0  0  0 
  3 13  1  0  0  0  0 
  3  5  1  0  0  0  0 
  3  4  1  0  0  0  0 
  4 14  1  0  0  0  0 
  5 16  1  0  0  0  0 
  6  4  1  0  0  0  0 
  6  2  1  0  0  0  0 
  8  1  1  0  0  0  0 
  9  1  1  0  0  0  0 
 12  3  1  0  0  0  0 
 15  4  1  0  0  0  0 
M  END 
>  <HBA> 
2 
 
>  <HBD> 
1 
 
>  <TPSA> 
29.46 
 
>  <cid> 
8076 
 
>  <dipole> 
2.42 
 
>  <excitation_energy_1> 
6.79 
 
>  <excitation_energy_2> 
6.879 
 
>  <excitation_energy_3> 
7.101 
 
>  <excitation_energy_4> 
7.132 
 
>  <homo_energy> 
-7.048 
 
>  <homo_lumo_gap> 
9.315 
 
>  <logP> 
0.015 
 
>  <lumo_energy> 
2.267 
 
>  <melting_point> 
-15.57 
 
>  <molecular_refractivity> 
23.59 
 
>  <oscillator_strength_1> 
0.0184 
 
>  <oscillator_strength_2> 
0.0093 
 
>  <oscillator_strength_3> 
0.0142 
 
>  <oscillator_strength_4> 
0.0172 
 
>  <open_babel_can_smiles> 
OCCOCC 
 
>  <mulliken_charges> 
16 
1   -0.455055 
2   -0.003283 
3   -0.033755 
4   -0.032505 
5   -0.622468 
6   -0.487177 
7   0.146809 
8   0.160392 
9   0.156833 
10   0.122936 
11   0.12478 
12   0.129489 
13   0.143605 
14   0.130348 
15   0.119739 
16   0.399313 
 
>  <lowdin_charges> 
16 
1   -0.448352 
2   -0.121661 
3   -0.136752 
4   -0.145721 
5   -0.46729 
6   -0.285174 
7   0.157194 
8   0.158037 
9   0.154401 
10   0.125327 
11   0.127998 
12   0.131658 
13   0.147386 
14   0.132663 
15   0.128993 
16   0.341293 
 
$$$$ 
 
