PCCDB-ID:  69976 
public computational chemistry database (PCCDB) project, http://pccdb.org 
 
 18 18  0  0  0  0  0  0  0  0999 V2000 
    0.8195   -0.0909   -0.0073 C   0  0  0  0  0  0  0  0  0  0  0  0 
    2.7883    2.6101    0.0110 C   0  0  0  0  0  0  0  0  0  0  0  0 
    5.5680   -1.5686   -0.0186 C   0  0  0  0  0  0  0  0  0  0  0  0 
    2.3131    0.0183   -0.0051 C   0  0  0  0  0  0  0  0  0  0  0  0 
    3.0993    1.1490    0.0034 C   0  0  0  0  0  0  0  0  0  0  0  0 
    4.3508   -0.7007   -0.0076 C   0  0  0  0  0  0  0  0  0  0  0  0 
    3.1033   -1.1195   -0.0119 N   0  0  0  0  0  0  0  0  0  0  0  0 
    4.4030    0.6690    0.0005 N   0  0  0  0  0  0  0  0  0  0  0  0 
    0.3403    0.8936   -0.0088 H   0  0  0  0  0  0  0  0  0  0  0  0 
    0.4634   -0.6384    0.8739 H   0  0  0  0  0  0  0  0  0  0  0  0 
    0.4668   -0.6394   -0.8892 H   0  0  0  0  0  0  0  0  0  0  0  0 
    1.7061    2.7644    0.0292 H   0  0  0  0  0  0  0  0  0  0  0  0 
    3.1766    3.1231   -0.8799 H   0  0  0  0  0  0  0  0  0  0  0  0 
    3.2056    3.1194    0.8907 H   0  0  0  0  0  0  0  0  0  0  0  0 
    5.2489   -2.6123    0.0152 H   0  0  0  0  0  0  0  0  0  0  0  0 
    6.2182   -1.3787    0.8452 H   0  0  0  0  0  0  0  0  0  0  0  0 
    6.1701   -1.4231   -0.9251 H   0  0  0  0  0  0  0  0  0  0  0  0 
    5.2390    1.2357    0.0121 H   0  0  0  0  0  0  0  0  0  0  0  0 
  1  4  1  0  0  0  0 
  1 10  1  0  0  0  0 
  2 12  1  0  0  0  0 
  2 14  1  0  0  0  0 
  3  6  1  0  0  0  0 
  3 15  1  0  0  0  0 
  3 16  1  0  0  0  0 
  4  5  2  0  0  0  0 
  5  2  1  0  0  0  0 
  6  8  1  0  0  0  0 
  7  6  2  0  0  0  0 
  7  4  1  0  0  0  0 
  8  5  1  0  0  0  0 
  8 18  1  0  0  0  0 
  9  1  1  0  0  0  0 
 11  1  1  0  0  0  0 
 13  2  1  0  0  0  0 
 17  3  1  0  0  0  0 
M  END 
>  <HBA> 
1 
 
>  <HBD> 
1 
 
>  <TPSA> 
28.68 
 
>  <cid> 
69976 
 
>  <dipole> 
3.4 
 
>  <excitation_energy_1> 
4.703 
 
>  <excitation_energy_2> 
5.341 
 
>  <excitation_energy_3> 
5.614 
 
>  <excitation_energy_4> 
5.901 
 
>  <homo_energy> 
-5.377 
 
>  <homo_lumo_gap> 
6.455 
 
>  <logP> 
1.335 
 
>  <lumo_energy> 
1.078 
 
>  <melting_point> 
79.61 
 
>  <molecular_refractivity> 
33.49 
 
>  <oscillator_strength_1> 
0.0002 
 
>  <oscillator_strength_2> 
0.0016 
 
>  <oscillator_strength_3> 
0.0015 
 
>  <oscillator_strength_4> 
0.1967 
 
>  <open_babel_can_smiles> 
Cc1[nH]c(c(n1)C)C 
 
>  <mulliken_charges> 
18 
1   -0.521903 
2   -0.538161 
3   -0.533359 
4   0.191687 
5   0.301275 
6   0.487943 
7   -0.510697 
8   -0.649379 
9   0.139929 
10   0.160941 
11   0.161183 
12   0.171756 
13   0.157255 
14   0.1564 
15   0.190062 
16   0.156776 
17   0.159116 
18   0.319176 
 
>  <lowdin_charges> 
18 
1   -0.440313 
2   -0.443529 
3   -0.448773 
4   -0.016873 
5   -0.023868 
6   0.054303 
7   -0.213821 
8   -0.204802 
9   0.149599 
10   0.161217 
11   0.161424 
12   0.167001 
13   0.156616 
14   0.156459 
15   0.179801 
16   0.158923 
17   0.159662 
18   0.286973 
 
$$$$ 
 
