PCCDB-ID:  33065 
public computational chemistry database (PCCDB) project, http://pccdb.org 
 
 35 36  0  0  0  0  0  0  0  0999 V2000 
    2.4674    0.7311    4.2436 C   0  0  0  0  0  0  0  0  0  0  0  0 
    7.9564    5.6033   -2.4343 C   0  0  0  0  0  0  0  0  0  0  0  0 
    7.2338    5.6526   -1.0771 C   0  0  0  0  0  0  0  0  0  0  0  0 
    8.2091    4.1530   -2.8832 C   0  0  0  0  0  0  0  0  0  0  0  0 
    3.0205   -0.0472    1.8905 C   0  0  0  0  0  0  0  0  0  0  0  0 
    4.5694    1.4100    3.0086 C   0  0  0  0  0  0  0  0  0  0  0  0 
    3.8484   -0.0691    0.7729 C   0  0  0  0  0  0  0  0  0  0  0  0 
    5.3986    1.4020    1.8899 C   0  0  0  0  0  0  0  0  0  0  0  0 
    7.9709    4.8027   -0.0287 C   0  0  0  0  0  0  0  0  0  0  0  0 
    8.9314    3.3713   -1.7731 C   0  0  0  0  0  0  0  0  0  0  0  0 
    6.9781    1.4835   -0.8291 C   0  0  0  0  0  0  0  0  0  0  0  0 
    3.3648    0.6938    3.0296 C   0  0  0  0  0  0  0  0  0  0  0  0 
    5.0457    0.6631    0.7485 C   0  0  0  0  0  0  0  0  0  0  0  0 
    5.8854    0.5450   -0.4886 C   0  0  0  0  0  0  0  0  0  0  0  0 
    7.1786    2.5970   -0.2029 N   0  0  0  0  0  0  0  0  0  0  0  0 
    8.1810    3.4333   -0.5095 N   0  0  0  0  0  0  0  0  0  0  0  0 
    5.6724   -0.3612   -1.2965 O   0  0  0  0  0  0  0  0  0  0  0  0 
    1.6646   -0.0096    4.1733 H   0  0  0  0  0  0  0  0  0  0  0  0 
    1.9986    1.7169    4.3614 H   0  0  0  0  0  0  0  0  0  0  0  0 
    3.0303    0.5326    5.1635 H   0  0  0  0  0  0  0  0  0  0  0  0 
    8.9209    6.1261   -2.3496 H   0  0  0  0  0  0  0  0  0  0  0  0 
    7.3758    6.1399   -3.1941 H   0  0  0  0  0  0  0  0  0  0  0  0 
    6.2125    5.2635   -1.1838 H   0  0  0  0  0  0  0  0  0  0  0  0 
    7.1508    6.6874   -0.7219 H   0  0  0  0  0  0  0  0  0  0  0  0 
    8.8099    4.1303   -3.8008 H   0  0  0  0  0  0  0  0  0  0  0  0 
    7.2557    3.6586   -3.1097 H   0  0  0  0  0  0  0  0  0  0  0  0 
    2.0941   -0.6173    1.8839 H   0  0  0  0  0  0  0  0  0  0  0  0 
    4.8655    1.9813    3.8862 H   0  0  0  0  0  0  0  0  0  0  0  0 
    3.5886   -0.6568   -0.1013 H   0  0  0  0  0  0  0  0  0  0  0  0 
    6.3216    1.9664    1.9008 H   0  0  0  0  0  0  0  0  0  0  0  0 
    7.4095    4.7376    0.9055 H   0  0  0  0  0  0  0  0  0  0  0  0 
    8.9562    5.2374    0.1875 H   0  0  0  0  0  0  0  0  0  0  0  0 
    9.9127    3.8214   -1.5756 H   0  0  0  0  0  0  0  0  0  0  0  0 
    9.1110    2.3298   -2.0456 H   0  0  0  0  0  0  0  0  0  0  0  0 
    7.5463    1.1584   -1.7027 H   0  0  0  0  0  0  0  0  0  0  0  0 
  1 19  1  0  0  0  0 
  1 20  1  0  0  0  0 
  2 21  1  0  0  0  0 
  2  3  1  0  0  0  0 
  3 24  1  0  0  0  0 
  3  9  1  0  0  0  0 
  4  2  1  0  0  0  0 
  4 10  1  0  0  0  0 
  5 12  2  0  0  0  0 
  6 12  1  0  0  0  0 
  6 28  1  0  0  0  0 
  7  5  1  0  0  0  0 
  8 30  1  0  0  0  0 
  8  6  2  0  0  0  0 
  9 32  1  0  0  0  0 
  9 31  1  0  0  0  0 
 10 33  1  0  0  0  0 
 10 16  1  0  0  0  0 
 11 14  1  0  0  0  0 
 11 15  2  0  0  0  0 
 12  1  1  0  0  0  0 
 13  7  2  0  0  0  0 
 13  8  1  0  0  0  0 
 14 13  1  0  0  0  0 
 16 15  1  0  0  0  0 
 16  9  1  0  0  0  0 
 17 14  2  0  0  0  0 
 18  1  1  0  0  0  0 
 22  2  1  0  0  0  0 
 23  3  1  0  0  0  0 
 25  4  1  0  0  0  0 
 26  4  1  0  0  0  0 
 27  5  1  0  0  0  0 
 29  7  1  0  0  0  0 
 34 10  1  0  0  0  0 
 35 11  1  0  0  0  0 
M  END 
>  <HBA> 
3 
 
>  <HBD> 
0 
 
>  <TPSA> 
32.67 
 
>  <cid> 
33065 
 
>  <dipole> 
4.65 
 
>  <excitation_energy_1> 
3.521 
 
>  <excitation_energy_2> 
4.02 
 
>  <excitation_energy_3> 
4.337 
 
>  <excitation_energy_4> 
4.503 
 
>  <homo_energy> 
-5.916 
 
>  <homo_lumo_gap> 
4.465 
 
>  <logP> 
2.587 
 
>  <lumo_energy> 
-1.45 
 
>  <melting_point> 
82.81 
 
>  <molecular_refractivity> 
74.02 
 
>  <oscillator_strength_1> 
0.0021 
 
>  <oscillator_strength_2> 
0.4322 
 
>  <oscillator_strength_3> 
0.0155 
 
>  <oscillator_strength_4> 
0.0908 
 
>  <open_babel_can_smiles> 
O=C(c1ccc(cc1)C)/C=N/N1CCCCC1 
 
>  <mulliken_charges> 
35 
1   -0.53148 
2   -0.26668 
3   -0.267174 
4   -0.265223 
5   -0.188762 
6   -0.192059 
7   -0.151947 
8   -0.15815 
9   -0.134188 
10   -0.166271 
11   -0.026845 
12   0.187922 
13   0.057673 
14   0.385435 
15   -0.235977 
16   -0.227012 
17   -0.497809 
18   0.156742 
19   0.16504 
20   0.161775 
21   0.132067 
22   0.145084 
23   0.154726 
24   0.140672 
25   0.143813 
26   0.156897 
27   0.123176 
28   0.119116 
29   0.156922 
30   0.154142 
31   0.169722 
32   0.142961 
33   0.154238 
34   0.170667 
35   0.130788 
 
>  <lowdin_charges> 
35 
1   -0.442968 
2   -0.280552 
3   -0.286934 
4   -0.28744 
5   -0.171734 
6   -0.174085 
7   -0.130744 
8   -0.143762 
9   -0.199943 
10   -0.213254 
11   -0.189802 
12   0.012749 
13   -0.047881 
14   0.145831 
15   -0.067817 
16   -0.05116 
17   -0.270039 
18   0.158077 
19   0.162018 
20   0.161076 
21   0.139019 
22   0.152252 
23   0.150394 
24   0.149693 
25   0.152129 
26   0.152382 
27   0.154502 
28   0.153415 
29   0.174231 
30   0.170247 
31   0.164955 
32   0.143709 
33   0.15296 
34   0.16096 
35   0.147515 
 
$$$$ 
 
