PCCDB-ID:  29024 
public computational chemistry database (PCCDB) project, http://pccdb.org 
 
 29 29  0  0  0  0  0  0  0  0999 V2000 
    3.1092    3.9523    0.5622 C   0  0  0  0  0  0  0  0  0  0  0  0 
    4.1103   -1.8005    0.8573 C   0  0  0  0  0  0  0  0  0  0  0  0 
    3.0718    3.1230   -0.7124 C   0  0  0  0  0  0  0  0  0  0  0  0 
    8.8699   -3.4952   -0.0612 C   0  0  0  0  0  0  0  0  0  0  0  0 
    7.6388   -4.0302   -0.4466 C   0  0  0  0  0  0  0  0  0  0  0  0 
    8.9366   -2.1836    0.4103 C   0  0  0  0  0  0  0  0  0  0  0  0 
    6.4819   -3.2610   -0.3512 C   0  0  0  0  0  0  0  0  0  0  0  0 
    7.7844   -1.4033    0.4830 C   0  0  0  0  0  0  0  0  0  0  0  0 
    6.3293    0.7440   -0.9938 C   0  0  0  0  0  0  0  0  0  0  0  0 
    5.2922   -1.1283    0.1973 C   0  0  0  0  0  0  0  0  0  0  0  0 
    6.5385   -1.9296    0.1013 C   0  0  0  0  0  0  0  0  0  0  0  0 
    5.2289    0.1521   -0.2871 C   0  0  0  0  0  0  0  0  0  0  0  0 
    4.0063    1.0032   -0.1534 C   0  0  0  0  0  0  0  0  0  0  0  0 
    7.2065    1.2383   -1.5773 N   0  0  0  0  0  0  0  0  0  0  0  0 
    2.9854    0.6794    0.4251 O   0  0  0  0  0  0  0  0  0  0  0  0 
    4.1791    2.1906   -0.7656 O   0  0  0  0  0  0  0  0  0  0  0  0 
    2.3065    4.6983    0.5409 H   0  0  0  0  0  0  0  0  0  0  0  0 
    4.0652    4.4771    0.6563 H   0  0  0  0  0  0  0  0  0  0  0  0 
    2.9637    3.3178    1.4411 H   0  0  0  0  0  0  0  0  0  0  0  0 
    4.3527   -2.8319    1.1182 H   0  0  0  0  0  0  0  0  0  0  0  0 
    3.2192   -1.7754    0.2243 H   0  0  0  0  0  0  0  0  0  0  0  0 
    3.8338   -1.2655    1.7716 H   0  0  0  0  0  0  0  0  0  0  0  0 
    3.2084    3.7447   -1.6000 H   0  0  0  0  0  0  0  0  0  0  0  0 
    2.1371    2.5637   -0.7979 H   0  0  0  0  0  0  0  0  0  0  0  0 
    9.7711   -4.0985   -0.1261 H   0  0  0  0  0  0  0  0  0  0  0  0 
    7.5780   -5.0488   -0.8194 H   0  0  0  0  0  0  0  0  0  0  0  0 
    9.8885   -1.7620    0.7203 H   0  0  0  0  0  0  0  0  0  0  0  0 
    5.5304   -3.6865   -0.6568 H   0  0  0  0  0  0  0  0  0  0  0  0 
    7.8482   -0.3871    0.8564 H   0  0  0  0  0  0  0  0  0  0  0  0 
  1 18  1  0  0  0  0 
  1 19  1  0  0  0  0 
  2 20  1  0  0  0  0 
  2 22  1  0  0  0  0 
  3  1  1  0  0  0  0 
  4  6  2  0  0  0  0 
  5  7  2  0  0  0  0 
  5  4  1  0  0  0  0 
  6  8  1  0  0  0  0 
  6 27  1  0  0  0  0 
  7 11  1  0  0  0  0 
  8 29  1  0  0  0  0 
  9 12  1  0  0  0  0 
 10  2  1  0  0  0  0 
 11 10  1  0  0  0  0 
 11  8  2  0  0  0  0 
 12 13  1  0  0  0  0 
 12 10  2  0  0  0  0 
 13 15  2  0  0  0  0 
 14  9  3  0  0  0  0 
 16  3  1  0  0  0  0 
 16 13  1  0  0  0  0 
 17  1  1  0  0  0  0 
 21  2  1  0  0  0  0 
 23  3  1  0  0  0  0 
 24  3  1  0  0  0  0 
 25  4  1  0  0  0  0 
 26  5  1  0  0  0  0 
 28  7  1  0  0  0  0 
M  END 
>  <HBA> 
3 
 
>  <HBD> 
0 
 
>  <TPSA> 
50.09 
 
>  <cid> 
29024 
 
>  <dipole> 
2.85 
 
>  <excitation_energy_1> 
4.12 
 
>  <excitation_energy_2> 
4.265 
 
>  <excitation_energy_3> 
4.375 
 
>  <excitation_energy_4> 
5.106 
 
>  <homo_energy> 
-6.716 
 
>  <homo_lumo_gap> 
4.607 
 
>  <logP> 
2.547 
 
>  <lumo_energy> 
-2.109 
 
>  <melting_point> 
65.79 
 
>  <molecular_refractivity> 
61.6 
 
>  <oscillator_strength_1> 
0.3366 
 
>  <oscillator_strength_2> 
0.0359 
 
>  <oscillator_strength_3> 
0.0219 
 
>  <oscillator_strength_4> 
0.0856 
 
>  <open_babel_can_smiles> 
CCOC(=O)/C(=C(\c1ccccc1)/C)/C#N 
 
>  <mulliken_charges> 
29 
1   -0.463939 
2   -0.494987 
3   -0.045605 
4   -0.120028 
5   -0.13183 
6   -0.13313 
7   -0.163643 
8   -0.143703 
9   0.270955 
10   0.071031 
11   0.075821 
12   0.014373 
13   0.637486 
14   -0.496399 
15   -0.499421 
16   -0.469047 
17   0.152756 
18   0.164947 
19   0.173897 
20   0.15783 
21   0.191346 
22   0.197104 
23   0.162299 
24   0.170894 
25   0.140029 
26   0.139306 
27   0.1438 
28   0.142375 
29   0.155482 
 
>  <lowdin_charges> 
29 
1   -0.4552 
2   -0.443424 
3   -0.126183 
4   -0.143031 
5   -0.15096 
6   -0.149159 
7   -0.151498 
8   -0.135257 
9   -0.011255 
10   0.084383 
11   -0.015301 
12   -0.089617 
13   0.202649 
14   -0.125162 
15   -0.271627 
16   -0.175511 
17   0.160818 
18   0.159877 
19   0.164647 
20   0.159587 
21   0.181591 
22   0.187351 
23   0.158173 
24   0.159203 
25   0.163524 
26   0.161551 
27   0.16522 
28   0.163448 
29   0.171165 
 
$$$$ 
 
