PCCDB-ID:  7438 
public computational chemistry database (PCCDB) project, http://pccdb.org 
 
 27 27  0  0  1  0  0  0  0  0999 V2000 
    3.1676    1.1633    0.0620 C   0  0  0  0  0  0  0  0  0  0  0  0 
    0.8558    0.3036   -0.2210 C   0  0  0  0  0  0  0  0  0  0  0  0 
    3.4311   -5.5742    1.1361 C   0  0  0  0  0  0  0  0  0  0  0  0 
    2.7157   -3.2932    1.8786 C   0  0  0  0  0  0  0  0  0  0  0  0 
    2.3706   -1.8366    1.6931 C   0  0  0  0  0  0  0  0  0  0  0  0 
    2.4758   -2.3011   -0.7698 C   0  0  0  0  0  0  0  0  0  0  0  0 
    2.3304    0.1201    0.0557 C   0  0  0  0  0  0  0  0  0  0  0  0 
    3.0664   -4.1323    0.8931 C   0  0  0  0  0  0  0  0  0  0  0  0 
    2.8411   -1.2856    0.3296 C   0  0  1  0  0  0  0  0  0  0  0  0 
    3.1649   -3.6549   -0.5448 C   0  0  2  0  0  0  0  0  0  0  0  0 
    4.5381   -3.6414   -0.9767 O   0  0  0  0  0  0  0  0  0  0  0  0 
    2.8216    2.1775   -0.1224 H   0  0  0  0  0  0  0  0  0  0  0  0 
    4.2323    1.0420    0.2481 H   0  0  0  0  0  0  0  0  0  0  0  0 
    0.6063    1.3627   -0.3363 H   0  0  0  0  0  0  0  0  0  0  0  0 
    0.2329   -0.1024    0.5864 H   0  0  0  0  0  0  0  0  0  0  0  0 
    0.5522   -0.2142   -1.1401 H   0  0  0  0  0  0  0  0  0  0  0  0 
    3.4430   -5.8176    2.2033 H   0  0  0  0  0  0  0  0  0  0  0  0 
    4.4191   -5.7956    0.7147 H   0  0  0  0  0  0  0  0  0  0  0  0 
    2.7206   -6.2507    0.6404 H   0  0  0  0  0  0  0  0  0  0  0  0 
    2.6635   -3.6733    2.8996 H   0  0  0  0  0  0  0  0  0  0  0  0 
    2.8141   -1.2425    2.5034 H   0  0  0  0  0  0  0  0  0  0  0  0 
    1.2817   -1.7082    1.7983 H   0  0  0  0  0  0  0  0  0  0  0  0 
    2.7621   -1.9256   -1.7588 H   0  0  0  0  0  0  0  0  0  0  0  0 
    1.3884   -2.4582   -0.7803 H   0  0  0  0  0  0  0  0  0  0  0  0 
    3.9387   -1.2232    0.3682 H   0  0  0  0  0  0  0  0  0  0  0  0 
    2.6996   -4.3981   -1.2044 H   0  0  0  0  0  0  0  0  0  0  0  0 
    5.0337   -3.1228   -0.3227 H   0  0  0  0  0  0  0  0  0  0  0  0 
  1 13  1  0  0  0  0 
  2  7  1  0  0  0  0 
  2 15  1  0  0  0  0 
  3 17  1  0  0  0  0 
  4 20  1  0  0  0  0 
  5 22  1  0  0  0  0 
  5  4  1  0  0  0  0 
  5 21  1  0  0  0  0 
  6 10  1  0  0  0  0 
  6  9  1  0  0  0  0 
  7  1  2  0  0  0  0 
  7  9  1  0  0  0  0 
  8  3  1  0  0  0  0 
  8  4  2  0  0  0  0 
  9 25  1  1  0  0  0 
  9  5  1  0  0  0  0 
 10 26  1  6  0  0  0 
 10  8  1  0  0  0  0 
 11 10  1  0  0  0  0 
 11 27  1  0  0  0  0 
 12  1  1  0  0  0  0 
 14  2  1  0  0  0  0 
 16  2  1  0  0  0  0 
 18  3  1  0  0  0  0 
 19  3  1  0  0  0  0 
 23  6  1  0  0  0  0 
 24  6  1  0  0  0  0 
M  END 
>  <HBA> 
1 
 
>  <HBD> 
1 
 
>  <TPSA> 
20.23 
 
>  <cid> 
7438 
 
>  <dipole> 
1.63 
 
>  <excitation_energy_1> 
5.881 
 
>  <excitation_energy_2> 
6.059 
 
>  <excitation_energy_3> 
6.086 
 
>  <excitation_energy_4> 
6.211 
 
>  <homo_energy> 
-6.452 
 
>  <homo_lumo_gap> 
6.906 
 
>  <logP> 
2.28 
 
>  <lumo_energy> 
0.454 
 
>  <melting_point> 
8.01 
 
>  <molecular_refractivity> 
48.28 
 
>  <oscillator_strength_1> 
0.0067 
 
>  <oscillator_strength_2> 
0.0474 
 
>  <oscillator_strength_3> 
0.0317 
 
>  <oscillator_strength_4> 
0.0205 
 
>  <open_babel_can_smiles> 
CC(=C)[C@H]1CC=C([C@@H](C1)O)C 
 
>  <mulliken_charges> 
27 
1   -0.407516 
2   -0.523477 
3   -0.510449 
4   -0.174812 
5   -0.298848 
6   -0.281789 
7   0.246598 
8   0.146514 
9   -0.173573 
10   0.075958 
11   -0.627723 
12   0.131423 
13   0.131265 
14   0.15414 
15   0.154091 
16   0.160907 
17   0.148205 
18   0.167611 
19   0.151423 
20   0.118756 
21   0.14755 
22   0.146784 
23   0.150292 
24   0.133499 
25   0.112445 
26   0.134309 
27   0.386415 
 
>  <lowdin_charges> 
27 
1   -0.360483 
2   -0.444495 
3   -0.440315 
4   -0.183342 
5   -0.275396 
6   -0.289234 
7   0.009963 
8   -0.039112 
9   -0.12259 
10   -0.001355 
11   -0.468859 
12   0.152592 
13   0.150742 
14   0.15694 
15   0.155054 
16   0.158817 
17   0.152119 
18   0.162604 
19   0.15601 
20   0.149083 
21   0.154421 
22   0.148272 
23   0.154778 
24   0.143606 
25   0.133344 
26   0.148448 
27   0.338387 
 
$$$$ 
 
