PCCDB-ID:  12178 
public computational chemistry database (PCCDB) project, http://pccdb.org 
 
 21 20  0  0  1  0  0  0  0  0999 V2000 
    1.1894   -0.4159    2.3241 C   0  0  0  0  0  0  0  0  0  0  0  0 
    6.4992    1.9567   -0.4768 C   0  0  0  0  0  0  0  0  0  0  0  0 
    2.5448   -0.5510    1.6235 C   0  0  0  0  0  0  0  0  0  0  0  0 
    5.1509    2.0525    0.2425 C   0  0  0  0  0  0  0  0  0  0  0  0 
    3.1872    0.8010    1.2907 C   0  0  0  0  0  0  0  0  0  0  0  0 
    4.5702    0.6858    0.6340 C   0  0  2  0  0  0  0  0  0  0  0  0 
    5.4816   -0.0473    1.4631 O   0  0  0  0  0  0  0  0  0  0  0  0 
    0.7557   -1.3979    2.5452 H   0  0  0  0  0  0  0  0  0  0  0  0 
    0.4707    0.1326    1.7024 H   0  0  0  0  0  0  0  0  0  0  0  0 
    1.2843    0.1261    3.2734 H   0  0  0  0  0  0  0  0  0  0  0  0 
    6.9008    2.9510   -0.7019 H   0  0  0  0  0  0  0  0  0  0  0  0 
    6.4012    1.4130   -1.4244 H   0  0  0  0  0  0  0  0  0  0  0  0 
    7.2279    1.4199    0.1378 H   0  0  0  0  0  0  0  0  0  0  0  0 
    2.4231   -1.1275    0.6955 H   0  0  0  0  0  0  0  0  0  0  0  0 
    3.2369   -1.1267    2.2490 H   0  0  0  0  0  0  0  0  0  0  0  0 
    4.4224    2.5780   -0.3901 H   0  0  0  0  0  0  0  0  0  0  0  0 
    5.2560    2.6617    1.1545 H   0  0  0  0  0  0  0  0  0  0  0  0 
    3.2834    1.4007    2.2112 H   0  0  0  0  0  0  0  0  0  0  0  0 
    2.5247    1.3738    0.6257 H   0  0  0  0  0  0  0  0  0  0  0  0 
    4.4834    0.0676   -0.2698 H   0  0  0  0  0  0  0  0  0  0  0  0 
    5.5883    0.4606    2.2847 H   0  0  0  0  0  0  0  0  0  0  0  0 
  1  8  1  0  0  0  0 
  1 10  1  0  0  0  0 
  2 13  1  0  0  0  0 
  2  4  1  0  0  0  0 
  3 15  1  0  0  0  0 
  3  1  1  0  0  0  0 
  4  6  1  0  0  0  0 
  4 17  1  0  0  0  0 
  5  3  1  0  0  0  0 
  5 18  1  0  0  0  0 
  6 20  1  6  0  0  0 
  6  5  1  0  0  0  0 
  6  7  1  0  0  0  0 
  7 21  1  0  0  0  0 
  9  1  1  0  0  0  0 
 11  2  1  0  0  0  0 
 12  2  1  0  0  0  0 
 14  3  1  0  0  0  0 
 16  4  1  0  0  0  0 
 19  5  1  0  0  0  0 
M  END 
>  <HBA> 
1 
 
>  <HBD> 
1 
 
>  <TPSA> 
20.23 
 
>  <cid> 
12178 
 
>  <dipole> 
1.49 
 
>  <excitation_energy_1> 
6.598 
 
>  <excitation_energy_2> 
7.117 
 
>  <excitation_energy_3> 
7.332 
 
>  <excitation_energy_4> 
7.364 
 
>  <homo_energy> 
-7.08 
 
>  <homo_lumo_gap> 
9.004 
 
>  <logP> 
1.557 
 
>  <lumo_energy> 
1.924 
 
>  <melting_point> 
-7.94 
 
>  <molecular_refractivity> 
32.12 
 
>  <oscillator_strength_1> 
0.0094 
 
>  <oscillator_strength_2> 
0.0011 
 
>  <oscillator_strength_3> 
0.0059 
 
>  <oscillator_strength_4> 
0.0133 
 
>  <open_babel_can_smiles> 
CCC[C@@H](CC)O 
 
>  <mulliken_charges> 
21 
1   -0.442682 
2   -0.439688 
3   -0.244989 
4   -0.265731 
5   -0.266223 
6   0.139046 
7   -0.620029 
8   0.143398 
9   0.13944 
10   0.138648 
11   0.138837 
12   0.141749 
13   0.157938 
14   0.130314 
15   0.147489 
16   0.13178 
17   0.117682 
18   0.113925 
19   0.128391 
20   0.130613 
21   0.380092 
 
>  <lowdin_charges> 
21 
1   -0.4455 
2   -0.446778 
3   -0.275425 
4   -0.290785 
5   -0.293204 
6   -0.002446 
7   -0.463 
8   0.149803 
9   0.146194 
10   0.144604 
11   0.14786 
12   0.147444 
13   0.156653 
14   0.140188 
15   0.149643 
16   0.146054 
17   0.134252 
18   0.132678 
19   0.144718 
20   0.140339 
21   0.336707 
 
$$$$ 
 
