PCCDB-ID:  10382 
public computational chemistry database (PCCDB) project, http://pccdb.org 
 
 20 20  0  0  0  0  0  0  0  0999 V2000 
   -2.8157    0.0212    0.0685 C   0  0  0  0  0  0  0  0  0  0  0  0 
   -2.0773    0.5455   -0.9963 C   0  0  0  0  0  0  0  0  0  0  0  0 
   -2.1459   -0.4407    1.2021 C   0  0  0  0  0  0  0  0  0  0  0  0 
   -0.6875    0.6081   -0.9315 C   0  0  0  0  0  0  0  0  0  0  0  0 
   -0.7529   -0.3944    1.2692 C   0  0  0  0  0  0  0  0  0  0  0  0 
    1.7825   -2.2092    0.3543 C   0  0  0  0  0  0  0  0  0  0  0  0 
   -0.0047    0.1202    0.1961 C   0  0  0  0  0  0  0  0  0  0  0  0 
    2.1801   -0.7348    0.3559 C   0  0  0  0  0  0  0  0  0  0  0  0 
    1.3920    0.2559    0.2536 N   0  0  0  0  0  0  0  0  0  0  0  0 
    3.4987   -0.4760    0.4978 O   0  0  0  0  0  0  0  0  0  0  0  0 
    2.9865   -3.3242   -0.4915 S   0  0  0  0  0  0  0  0  0  0  0  0 
   -3.9002   -0.0159    0.0186 H   0  0  0  0  0  0  0  0  0  0  0  0 
   -2.5881    0.9171   -1.8810 H   0  0  0  0  0  0  0  0  0  0  0  0 
   -2.7081   -0.8384    2.0433 H   0  0  0  0  0  0  0  0  0  0  0  0 
   -0.1093    1.0317   -1.7474 H   0  0  0  0  0  0  0  0  0  0  0  0 
   -0.2354   -0.7304    2.1639 H   0  0  0  0  0  0  0  0  0  0  0  0 
    0.7868   -2.3322   -0.0716 H   0  0  0  0  0  0  0  0  0  0  0  0 
    1.7523   -2.5861    1.3824 H   0  0  0  0  0  0  0  0  0  0  0  0 
    3.9908   -1.3118    0.3818 H   0  0  0  0  0  0  0  0  0  0  0  0 
    2.8217   -2.8265   -1.7364 H   0  0  0  0  0  0  0  0  0  0  0  0 
  1  3  2  0  0  0  0 
  2  4  2  0  0  0  0 
  2  1  1  0  0  0  0 
  3  5  1  0  0  0  0 
  3 14  1  0  0  0  0 
  4  7  1  0  0  0  0 
  5 16  1  0  0  0  0 
  6  8  1  0  0  0  0 
  6 18  1  0  0  0  0 
  7  9  1  0  0  0  0 
  7  5  2  0  0  0  0 
  8 10  1  0  0  0  0 
  9  8  2  0  0  0  0 
 11  6  1  0  0  0  0 
 12  1  1  0  0  0  0 
 13  2  1  0  0  0  0 
 15  4  1  0  0  0  0 
 17  6  1  0  0  0  0 
 19 10  1  0  0  0  0 
 20 11  1  0  0  0  0 
M  END 
>  <HBA> 
3 
 
>  <HBD> 
2 
 
>  <TPSA> 
67.9 
 
>  <cid> 
10382 
 
>  <dipole> 
2.71 
 
>  <excitation_energy_1> 
4.415 
 
>  <excitation_energy_2> 
4.805 
 
>  <excitation_energy_3> 
4.912 
 
>  <excitation_energy_4> 
5.408 
 
>  <homo_energy> 
-5.872 
 
>  <homo_lumo_gap> 
5.369 
 
>  <logP> 
1.628 
 
>  <lumo_energy> 
-0.503 
 
>  <melting_point> 
78.85 
 
>  <molecular_refractivity> 
48.68 
 
>  <oscillator_strength_1> 
0.0693 
 
>  <oscillator_strength_2> 
0.001 
 
>  <oscillator_strength_3> 
0.0299 
 
>  <oscillator_strength_4> 
0.0675 
 
>  <open_babel_can_smiles> 
SC/C(=N\c1ccccc1)/O 
 
>  <mulliken_charges> 
20 
1   -0.130984 
2   -0.137358 
3   -0.136752 
4   -0.150441 
5   -0.157653 
6   -0.516563 
7   0.2274 
8   0.486551 
9   -0.460629 
10   -0.571535 
11   -0.08589 
12   0.126713 
13   0.130214 
14   0.129316 
15   0.133241 
16   0.123303 
17   0.222912 
18   0.216314 
19   0.425612 
20   0.126228 
 
>  <lowdin_charges> 
20 
1   -0.169972 
2   -0.151214 
3   -0.153194 
4   -0.176348 
5   -0.190935 
6   -0.409027 
7   0.044766 
8   0.131617 
9   -0.16854 
10   -0.355128 
11   -0.057182 
12   0.155052 
13   0.158652 
14   0.15844 
15   0.163904 
16   0.156226 
17   0.190639 
18   0.190147 
19   0.354768 
20   0.12733 
 
$$$$ 
 
