PCCDB-ID:  19801 
public computational chemistry database (PCCDB) project, http://pccdb.org 
 
 29 28  0  0  0  0  0  0  0  0999 V2000 
    2.2968   -1.5806   -2.1289 C   0  0  0  0  0  0  0  0  0  0  0  0 
    2.8962   -0.2186   -1.7638 C   0  0  0  0  0  0  0  0  0  0  0  0 
    4.4315   -0.2250   -1.7551 C   0  0  0  0  0  0  0  0  0  0  0  0 
    5.0825    1.0964   -1.3135 C   0  0  0  0  0  0  0  0  0  0  0  0 
    4.8473    2.2779   -2.2654 C   0  0  0  0  0  0  0  0  0  0  0  0 
    5.5757    3.5547   -1.8258 C   0  0  0  0  0  0  0  0  0  0  0  0 
    5.3371    4.7414   -2.7831 C   0  0  0  0  0  0  0  0  0  0  0  0 
    6.0003    6.0016   -2.3180 C   0  0  0  0  0  0  0  0  0  0  0  0 
    6.9440    6.6906   -2.9795 C   0  0  0  0  0  0  0  0  0  0  0  0 
    7.5336    7.9115   -2.4136 C   0  0  0  0  0  0  0  0  0  0  0  0 
    8.3889    8.5835   -2.9599 O   0  0  0  0  0  0  0  0  0  0  0  0 
    1.2013   -1.5491   -2.1286 H   0  0  0  0  0  0  0  0  0  0  0  0 
    2.6081   -2.3545   -1.4164 H   0  0  0  0  0  0  0  0  0  0  0  0 
    2.6197   -1.9018   -3.1270 H   0  0  0  0  0  0  0  0  0  0  0  0 
    2.5315    0.0879   -0.7726 H   0  0  0  0  0  0  0  0  0  0  0  0 
    2.5286    0.5372   -2.4705 H   0  0  0  0  0  0  0  0  0  0  0  0 
    4.7981   -0.4930   -2.7575 H   0  0  0  0  0  0  0  0  0  0  0  0 
    4.7753   -1.0254   -1.0846 H   0  0  0  0  0  0  0  0  0  0  0  0 
    6.1654    0.9381   -1.2108 H   0  0  0  0  0  0  0  0  0  0  0  0 
    4.7190    1.3621   -0.3095 H   0  0  0  0  0  0  0  0  0  0  0  0 
    3.7723    2.4899   -2.3444 H   0  0  0  0  0  0  0  0  0  0  0  0 
    5.1794    1.9998   -3.2768 H   0  0  0  0  0  0  0  0  0  0  0  0 
    6.6546    3.3608   -1.7566 H   0  0  0  0  0  0  0  0  0  0  0  0 
    5.2482    3.8330   -0.8138 H   0  0  0  0  0  0  0  0  0  0  0  0 
    4.2525    4.9168   -2.8554 H   0  0  0  0  0  0  0  0  0  0  0  0 
    5.6841    4.4839   -3.7914 H   0  0  0  0  0  0  0  0  0  0  0  0 
    5.6874    6.3724   -1.3384 H   0  0  0  0  0  0  0  0  0  0  0  0 
    7.3077    6.3792   -3.9570 H   0  0  0  0  0  0  0  0  0  0  0  0 
    7.1345    8.1976   -1.4128 H   0  0  0  0  0  0  0  0  0  0  0  0 
  1 12  1  0  0  0  0 
  1  2  1  0  0  0  0 
  1 13  1  0  0  0  0 
  2  3  1  0  0  0  0 
  2 15  1  0  0  0  0 
  3  4  1  0  0  0  0 
  3 18  1  0  0  0  0 
  4 19  1  0  0  0  0 
  4 20  1  0  0  0  0 
  5  6  1  0  0  0  0 
  5  4  1  0  0  0  0 
  6 23  1  0  0  0  0 
  6 24  1  0  0  0  0 
  7  8  1  0  0  0  0 
  7  6  1  0  0  0  0 
  8 27  1  0  0  0  0 
  9 10  1  0  0  0  0 
  9  8  2  0  0  0  0 
 10 29  1  0  0  0  0 
 11 10  2  0  0  0  0 
 14  1  1  0  0  0  0 
 16  2  1  0  0  0  0 
 17  3  1  0  0  0  0 
 21  5  1  0  0  0  0 
 22  5  1  0  0  0  0 
 25  7  1  0  0  0  0 
 26  7  1  0  0  0  0 
 28  9  1  0  0  0  0 
M  END 
>  <HBA> 
1 
 
>  <HBD> 
0 
 
>  <TPSA> 
17.07 
 
>  <cid> 
19801 
 
>  <dipole> 
4.23 
 
>  <excitation_energy_1> 
3.709 
 
>  <excitation_energy_2> 
5.805 
 
>  <excitation_energy_3> 
6.487 
 
>  <excitation_energy_4> 
6.506 
 
>  <homo_energy> 
-6.719 
 
>  <homo_lumo_gap> 
5.263 
 
>  <logP> 
3.102 
 
>  <lumo_energy> 
-1.456 
 
>  <melting_point> 
12.3 
 
>  <molecular_refractivity> 
49.91 
 
>  <oscillator_strength_1> 
0.0003 
 
>  <oscillator_strength_2> 
0.6274 
 
>  <oscillator_strength_3> 
0.0024 
 
>  <oscillator_strength_4> 
0.008 
 
>  <open_babel_can_smiles> 
CCCCCCC/C=C/C=O 
 
>  <mulliken_charges> 
29 
1   -0.441756 
2   -0.249372 
3   -0.248487 
4   -0.256855 
5   -0.254751 
6   -0.259954 
7   -0.312593 
8   -0.07795 
9   -0.151536 
10   0.230213 
11   -0.417134 
12   0.142513 
13   0.142377 
14   0.142284 
15   0.129617 
16   0.134413 
17   0.12741 
18   0.129449 
19   0.130436 
20   0.128234 
21   0.135488 
22   0.131414 
23   0.144296 
24   0.135148 
25   0.154011 
26   0.150574 
27   0.140671 
28   0.146143 
29   0.095697 
 
>  <lowdin_charges> 
29 
1   -0.442298 
2   -0.275536 
3   -0.275769 
4   -0.272467 
5   -0.273766 
6   -0.268592 
7   -0.270149 
8   -0.103526 
9   -0.205453 
10   0.042134 
11   -0.232052 
12   0.147596 
13   0.147475 
14   0.146287 
15   0.137969 
16   0.140524 
17   0.137333 
18   0.142477 
19   0.139988 
20   0.137558 
21   0.138844 
22   0.13896 
23   0.143892 
24   0.140771 
25   0.154936 
26   0.151278 
27   0.15522 
28   0.165738 
29   0.110629 
 
$$$$ 
 
