PCCDB-ID:  27949 
public computational chemistry database (PCCDB) project, http://pccdb.org 
 
 24 24  0  0  0  0  0  0  0  0999 V2000 
    0.9183    0.3014   -0.4001 C   0  0  0  0  0  0  0  0  0  0  0  0 
    3.9245   -3.2865    0.7104 C   0  0  0  0  0  0  0  0  0  0  0  0 
    3.8081    1.1581    1.7006 C   0  0  0  0  0  0  0  0  0  0  0  0 
    4.6081   -0.0235    2.2514 C   0  0  0  0  0  0  0  0  0  0  0  0 
    3.2237    0.8926    0.3105 C   0  0  0  0  0  0  0  0  0  0  0  0 
    3.8209   -1.3370    2.2466 C   0  0  0  0  0  0  0  0  0  0  0  0 
    2.4458   -1.4638    0.1806 C   0  0  0  0  0  0  0  0  0  0  0  0 
    2.1426   -0.1080    0.2850 N   0  0  0  0  0  0  0  0  0  0  0  0 
    3.5590   -1.8849    0.9046 N   0  0  0  0  0  0  0  0  0  0  0  0 
    1.7769   -2.2354   -0.5035 O   0  0  0  0  0  0  0  0  0  0  0  0 
    0.5698    1.2466    0.0282 H   0  0  0  0  0  0  0  0  0  0  0  0 
    0.1548   -0.4629   -0.2581 H   0  0  0  0  0  0  0  0  0  0  0  0 
    1.0661    0.4327   -1.4821 H   0  0  0  0  0  0  0  0  0  0  0  0 
    4.9730   -3.4233    0.9932 H   0  0  0  0  0  0  0  0  0  0  0  0 
    3.7959   -3.5486   -0.3394 H   0  0  0  0  0  0  0  0  0  0  0  0 
    3.3018   -3.9696    1.3067 H   0  0  0  0  0  0  0  0  0  0  0  0 
    4.4536    2.0446    1.6439 H   0  0  0  0  0  0  0  0  0  0  0  0 
    2.9842    1.4040    2.3840 H   0  0  0  0  0  0  0  0  0  0  0  0 
    4.9206    0.1923    3.2818 H   0  0  0  0  0  0  0  0  0  0  0  0 
    5.5236   -0.1637    1.6610 H   0  0  0  0  0  0  0  0  0  0  0  0 
    4.0267    0.5990   -0.3812 H   0  0  0  0  0  0  0  0  0  0  0  0 
    2.7972    1.8226   -0.0773 H   0  0  0  0  0  0  0  0  0  0  0  0 
    2.8753   -1.2059    2.7925 H   0  0  0  0  0  0  0  0  0  0  0  0 
    4.3952   -2.0957    2.7867 H   0  0  0  0  0  0  0  0  0  0  0  0 
  1 12  1  0  0  0  0 
  1 11  1  0  0  0  0 
  1  8  1  0  0  0  0 
  2  9  1  0  0  0  0 
  2 14  1  0  0  0  0 
  2 16  1  0  0  0  0 
  3  4  1  0  0  0  0 
  3 18  1  0  0  0  0 
  4 19  1  0  0  0  0 
  5  3  1  0  0  0  0 
  6  4  1  0  0  0  0 
  6 24  1  0  0  0  0 
  6 23  1  0  0  0  0 
  7  8  1  0  0  0  0 
  7  9  1  0  0  0  0 
  8  5  1  0  0  0  0 
  9  6  1  0  0  0  0 
 10  7  2  0  0  0  0 
 13  1  1  0  0  0  0 
 15  2  1  0  0  0  0 
 17  3  1  0  0  0  0 
 20  4  1  0  0  0  0 
 21  5  1  0  0  0  0 
 22  5  1  0  0  0  0 
M  END 
>  <HBA> 
3 
 
>  <HBD> 
0 
 
>  <TPSA> 
23.55 
 
>  <cid> 
27949 
 
>  <dipole> 
3.41 
 
>  <excitation_energy_1> 
5.658 
 
>  <excitation_energy_2> 
5.692 
 
>  <excitation_energy_3> 
5.806 
 
>  <excitation_energy_4> 
5.942 
 
>  <homo_energy> 
-6.055 
 
>  <homo_lumo_gap> 
7.377 
 
>  <logP> 
0.64 
 
>  <lumo_energy> 
1.322 
 
>  <melting_point> 
32.35 
 
>  <molecular_refractivity> 
47.86 
 
>  <oscillator_strength_1> 
0.0296 
 
>  <oscillator_strength_2> 
0.0152 
 
>  <oscillator_strength_3> 
0.0004 
 
>  <oscillator_strength_4> 
0.0632 
 
>  <open_babel_can_smiles> 
O=C1N(C)CCCCN1C 
 
>  <mulliken_charges> 
24 
1   -0.302577 
2   -0.302546 
3   -0.252103 
4   -0.2522 
5   -0.14303 
6   -0.143062 
7   0.730394 
8   -0.442775 
9   -0.442836 
10   -0.545721 
11   0.142508 
12   0.184905 
13   0.149158 
14   0.142493 
15   0.185028 
16   0.149152 
17   0.134345 
18   0.139779 
19   0.134329 
20   0.139766 
21   0.149757 
22   0.14766 
23   0.149916 
24   0.147661 
 
>  <lowdin_charges> 
24 
1   -0.34792 
2   -0.347896 
3   -0.284535 
4   -0.282756 
5   -0.19576 
6   -0.194992 
7   0.17366 
8   -0.146331 
9   -0.146658 
10   -0.333008 
11   0.14629 
12   0.173791 
13   0.140728 
14   0.144882 
15   0.171938 
16   0.144197 
17   0.147723 
18   0.145814 
19   0.1464 
20   0.145103 
21   0.145029 
22   0.154429 
23   0.144357 
24   0.155514 
 
$$$$ 
 
