PCCDB-ID:  67491 
public computational chemistry database (PCCDB) project, http://pccdb.org 
 
 15 16  0  0  0  0  0  0  0  0999 V2000 
   -2.3531   -0.7473   -0.0261 C   0  0  0  0  0  0  0  0  0  0  0  0 
   -2.3670    0.6754   -0.0364 C   0  0  0  0  0  0  0  0  0  0  0  0 
   -1.1690   -1.4481   -0.0022 C   0  0  0  0  0  0  0  0  0  0  0  0 
   -1.1915    1.3877   -0.0220 C   0  0  0  0  0  0  0  0  0  0  0  0 
    2.3084   -0.6141    0.0517 C   0  0  0  0  0  0  0  0  0  0  0  0 
    0.0583   -0.7372    0.0129 C   0  0  0  0  0  0  0  0  0  0  0  0 
    0.0433    0.6881    0.0035 C   0  0  0  0  0  0  0  0  0  0  0  0 
    1.2480   -1.3931    0.0372 N   0  0  0  0  0  0  0  0  0  0  0  0 
    2.3400    0.7529    0.0456 N   0  0  0  0  0  0  0  0  0  0  0  0 
    1.2069    1.4008    0.0211 N   0  0  0  0  0  0  0  0  0  0  0  0 
   -3.2978   -1.2839   -0.0370 H   0  0  0  0  0  0  0  0  0  0  0  0 
   -3.3200    1.1961   -0.0557 H   0  0  0  0  0  0  0  0  0  0  0  0 
   -1.1369   -2.5330    0.0063 H   0  0  0  0  0  0  0  0  0  0  0  0 
   -1.1663    2.4728   -0.0283 H   0  0  0  0  0  0  0  0  0  0  0  0 
    3.2875   -1.0861    0.0716 H   0  0  0  0  0  0  0  0  0  0  0  0 
  1  3  1  0  0  0  0 
  2  1  2  0  0  0  0 
  2  4  1  0  0  0  0 
  3 13  1  0  0  0  0 
  3  6  2  0  0  0  0 
  4  7  2  0  0  0  0 
  5 15  1  0  0  0  0 
  6  8  1  0  0  0  0 
  7  6  1  0  0  0  0 
  7 10  1  0  0  0  0 
  8  5  2  0  0  0  0 
  9  5  1  0  0  0  0 
 10  9  2  0  0  0  0 
 11  1  1  0  0  0  0 
 12  2  1  0  0  0  0 
 14  4  1  0  0  0  0 
M  END 
>  <HBA> 
3 
 
>  <HBD> 
0 
 
>  <TPSA> 
38.67 
 
>  <cid> 
67491 
 
>  <dipole> 
3.53 
 
>  <excitation_energy_1> 
2.6 
 
>  <excitation_energy_2> 
3.96 
 
>  <excitation_energy_3> 
3.998 
 
>  <excitation_energy_4> 
4.519 
 
>  <homo_energy> 
-6.389 
 
>  <homo_lumo_gap> 
3.85 
 
>  <logP> 
1.025 
 
>  <lumo_energy> 
-2.539 
 
>  <melting_point> 
94.17 
 
>  <molecular_refractivity> 
37.33 
 
>  <oscillator_strength_1> 
0.003 
 
>  <oscillator_strength_2> 
0.0304 
 
>  <oscillator_strength_3> 
0.0002 
 
>  <oscillator_strength_4> 
0.0423 
 
>  <open_babel_can_smiles> 
c1ccc2c(c1)nncn2 
 
>  <mulliken_charges> 
15 
1   -0.129541 
2   -0.136169 
3   -0.14663 
4   -0.135915 
5   0.171481 
6   0.291126 
7   0.276571 
8   -0.449753 
9   -0.222571 
10   -0.311983 
11   0.15077 
12   0.14997 
13   0.158566 
14   0.163092 
15   0.170987 
 
>  <lowdin_charges> 
15 
1   -0.132135 
2   -0.145912 
3   -0.149652 
4   -0.134689 
5   -0.061584 
6   0.044302 
7   0.006536 
8   -0.124437 
9   -0.100332 
10   -0.059549 
11   0.168617 
12   0.168307 
13   0.174073 
14   0.176141 
15   0.170314 
 
$$$$ 
 
