PCCDB-ID:  66563 
public computational chemistry database (PCCDB) project, http://pccdb.org 
 
 30 31  0  0  0  0  0  0  0  0999 V2000 
    1.1977   -1.9429    1.2158 C   0  0  0  0  0  0  0  0  0  0  0  0 
    5.7545    4.3837    0.5828 C   0  0  0  0  0  0  0  0  0  0  0  0 
    6.4331    5.0123   -0.4595 C   0  0  0  0  0  0  0  0  0  0  0  0 
    5.6632    2.9948    0.5998 C   0  0  0  0  0  0  0  0  0  0  0  0 
    7.0267    4.2447   -1.4576 C   0  0  0  0  0  0  0  0  0  0  0  0 
    2.4587    0.0399    0.2632 C   0  0  0  0  0  0  0  0  0  0  0  0 
    3.7243   -1.8256    1.1099 C   0  0  0  0  0  0  0  0  0  0  0  0 
    3.6417    0.6994   -0.0646 C   0  0  0  0  0  0  0  0  0  0  0  0 
    4.9068   -1.1846    0.7708 C   0  0  0  0  0  0  0  0  0  0  0  0 
    2.4771   -1.2262    0.8608 C   0  0  0  0  0  0  0  0  0  0  0  0 
    4.8836    0.0969    0.1900 C   0  0  0  0  0  0  0  0  0  0  0  0 
    6.2767    2.2026   -0.3883 C   0  0  0  0  0  0  0  0  0  0  0  0 
    6.9944    2.8435   -1.4321 C   0  0  0  0  0  0  0  0  0  0  0  0 
    6.1777    0.7140   -0.2071 C   0  0  0  0  0  0  0  0  0  0  0  0 
    7.7068    2.2025   -2.6183 C   0  0  0  0  0  0  0  0  0  0  0  0 
    7.1713   -0.0081   -0.3462 O   0  0  0  0  0  0  0  0  0  0  0  0 
    7.7778    2.7967   -3.6738 O   0  0  0  0  0  0  0  0  0  0  0  0 
    8.2978    1.0171   -2.4568 O   0  0  0  0  0  0  0  0  0  0  0  0 
    0.3229   -1.3029    1.0678 H   0  0  0  0  0  0  0  0  0  0  0  0 
    1.2038   -2.2733    2.2613 H   0  0  0  0  0  0  0  0  0  0  0  0 
    1.0644   -2.8396    0.5975 H   0  0  0  0  0  0  0  0  0  0  0  0 
    5.2875    4.9663    1.3718 H   0  0  0  0  0  0  0  0  0  0  0  0 
    6.4965    6.0960   -0.5012 H   0  0  0  0  0  0  0  0  0  0  0  0 
    5.1248    2.5054    1.4045 H   0  0  0  0  0  0  0  0  0  0  0  0 
    7.5351    4.7177   -2.2901 H   0  0  0  0  0  0  0  0  0  0  0  0 
    1.5053    0.5161    0.0490 H   0  0  0  0  0  0  0  0  0  0  0  0 
    3.7607   -2.8109    1.5686 H   0  0  0  0  0  0  0  0  0  0  0  0 
    3.5968    1.6725   -0.5422 H   0  0  0  0  0  0  0  0  0  0  0  0 
    5.8668   -1.6572    0.9496 H   0  0  0  0  0  0  0  0  0  0  0  0 
    8.1251    0.6462   -1.5556 H   0  0  0  0  0  0  0  0  0  0  0  0 
  1 20  1  0  0  0  0 
  2  4  1  0  0  0  0 
  2 22  1  0  0  0  0 
  3  2  2  0  0  0  0 
  4 24  1  0  0  0  0 
  5 13  2  0  0  0  0 
  5  3  1  0  0  0  0 
  6 10  2  0  0  0  0 
  7 27  1  0  0  0  0 
  8 11  2  0  0  0  0 
  8  6  1  0  0  0  0 
  9 29  1  0  0  0  0 
  9  7  2  0  0  0  0 
 10  7  1  0  0  0  0 
 10  1  1  0  0  0  0 
 11  9  1  0  0  0  0 
 12 14  1  0  0  0  0 
 12  4  2  0  0  0  0 
 13 12  1  0  0  0  0 
 14 11  1  0  0  0  0 
 15 18  1  0  0  0  0 
 15 13  1  0  0  0  0 
 16 14  2  0  0  0  0 
 17 15  2  0  0  0  0 
 18 30  1  0  0  0  0 
 19  1  1  0  0  0  0 
 21  1  1  0  0  0  0 
 23  3  1  0  0  0  0 
 25  5  1  0  0  0  0 
 26  6  1  0  0  0  0 
 28  8  1  0  0  0  0 
M  END 
>  <HBA> 
3 
 
>  <HBD> 
1 
 
>  <TPSA> 
54.37 
 
>  <cid> 
66563 
 
>  <dipole> 
7.77 
 
>  <excitation_energy_1> 
3.814 
 
>  <excitation_energy_2> 
3.903 
 
>  <excitation_energy_3> 
4.267 
 
>  <excitation_energy_4> 
4.33 
 
>  <homo_energy> 
-6.909 
 
>  <homo_lumo_gap> 
4.563 
 
>  <logP> 
2.924 
 
>  <lumo_energy> 
-2.346 
 
>  <melting_point> 
160.92 
 
>  <molecular_refractivity> 
68.24 
 
>  <oscillator_strength_1> 
0.0031 
 
>  <oscillator_strength_2> 
0.0072 
 
>  <oscillator_strength_3> 
0.0415 
 
>  <oscillator_strength_4> 
0.3356 
 
>  <open_babel_can_smiles> 
Cc1ccc(cc1)C(=O)c1ccccc1C(=O)O 
 
>  <mulliken_charges> 
30 
1   -0.53363 
2   -0.125038 
3   -0.119352 
4   -0.175954 
5   -0.163332 
6   -0.18806 
7   -0.179424 
8   -0.167827 
9   -0.147634 
10   0.186649 
11   0.066657 
12   0.026149 
13   0.006538 
14   0.336827 
15   0.550524 
16   -0.5043 
17   -0.460654 
18   -0.591435 
19   0.162828 
20   0.170216 
21   0.175942 
22   0.145304 
23   0.148192 
24   0.155965 
25   0.179164 
26   0.13655 
27   0.137444 
28   0.157817 
29   0.166715 
30   0.447157 
 
>  <lowdin_charges> 
30 
1   -0.44214 
2   -0.147557 
3   -0.136939 
4   -0.150743 
5   -0.128515 
6   -0.16883 
7   -0.160137 
8   -0.137211 
9   -0.122223 
10   0.025581 
11   -0.054408 
12   -0.042563 
13   -0.038474 
14   0.174663 
15   0.187264 
16   -0.26378 
17   -0.260573 
18   -0.352966 
19   0.161487 
20   0.165023 
21   0.169335 
22   0.166848 
23   0.165095 
24   0.171269 
25   0.185761 
26   0.1615 
27   0.161187 
28   0.171206 
29   0.177796 
30   0.363043 
 
$$$$ 
 
