PCCDB-ID:  38621 
public computational chemistry database (PCCDB) project, http://pccdb.org 
 
 27 27  0  0  1  0  0  0  0  0999 V2000 
    1.0534    0.0646   -0.4597 C   0  0  0  0  0  0  0  0  0  0  0  0 
    2.5798   -2.5022    0.3168 C   0  0  0  0  0  0  0  0  0  0  0  0 
    5.7073    0.1160   -1.4103 C   0  0  0  0  0  0  0  0  0  0  0  0 
    3.2028    1.3555   -0.1395 C   0  0  0  0  0  0  0  0  0  0  0  0 
    4.5896    1.3861    0.5103 C   0  0  0  0  0  0  0  0  0  0  0  0 
    4.6721   -1.1148    0.5553 C   0  0  0  0  0  0  0  0  0  0  0  0 
    6.7718    0.1690    0.8156 C   0  0  0  0  0  0  0  0  0  0  0  0 
    2.5185    0.0013   -0.0984 C   0  0  0  0  0  0  0  0  0  0  0  0 
    3.1883   -1.1229    0.2195 C   0  0  0  0  0  0  0  0  0  0  0  0 
    5.4245    0.1636    0.1082 C   0  0  1  0  0  0  0  0  0  0  0  0 
    7.1668    1.0243    1.5766 O   0  0  0  0  0  0  0  0  0  0  0  0 
    0.4917    0.6390    0.2906 H   0  0  0  0  0  0  0  0  0  0  0  0 
    0.5773   -0.9127   -0.5575 H   0  0  0  0  0  0  0  0  0  0  0  0 
    0.9202    0.5937   -1.4138 H   0  0  0  0  0  0  0  0  0  0  0  0 
    3.0064   -3.1742   -0.4415 H   0  0  0  0  0  0  0  0  0  0  0  0 
    1.4945   -2.5136    0.2008 H   0  0  0  0  0  0  0  0  0  0  0  0 
    2.8108   -2.9532    1.2922 H   0  0  0  0  0  0  0  0  0  0  0  0 
    4.7866   -0.0731   -1.9705 H   0  0  0  0  0  0  0  0  0  0  0  0 
    6.4131   -0.6879   -1.6542 H   0  0  0  0  0  0  0  0  0  0  0  0 
    6.1378    1.0609   -1.7615 H   0  0  0  0  0  0  0  0  0  0  0  0 
    3.2661    1.6872   -1.1885 H   0  0  0  0  0  0  0  0  0  0  0  0 
    2.5560    2.0971    0.3511 H   0  0  0  0  0  0  0  0  0  0  0  0 
    4.4883    1.3923    1.6022 H   0  0  0  0  0  0  0  0  0  0  0  0 
    5.1180    2.3096    0.2481 H   0  0  0  0  0  0  0  0  0  0  0  0 
    5.1470   -1.9990    0.1044 H   0  0  0  0  0  0  0  0  0  0  0  0 
    4.7850   -1.2487    1.6438 H   0  0  0  0  0  0  0  0  0  0  0  0 
    7.4119   -0.7156    0.5806 H   0  0  0  0  0  0  0  0  0  0  0  0 
  1  8  1  0  0  0  0 
  1 12  1  0  0  0  0 
  2 17  1  0  0  0  0 
  3 10  1  0  0  0  0 
  4  8  1  0  0  0  0 
  4 22  1  0  0  0  0 
  4  5  1  0  0  0  0 
  5 23  1  0  0  0  0 
  6 26  1  0  0  0  0 
  7 11  2  0  0  0  0 
  8  9  2  0  0  0  0 
  9  2  1  0  0  0  0 
  9  6  1  0  0  0  0 
 10  5  1  0  0  0  0 
 10  6  1  0  0  0  0 
 10  7  1  1  0  0  0 
 13  1  1  0  0  0  0 
 14  1  1  0  0  0  0 
 15  2  1  0  0  0  0 
 16  2  1  0  0  0  0 
 18  3  1  0  0  0  0 
 19  3  1  0  0  0  0 
 20  3  1  0  0  0  0 
 21  4  1  0  0  0  0 
 24  5  1  0  0  0  0 
 25  6  1  0  0  0  0 
 27  7  1  0  0  0  0 
M  END 
>  <HBA> 
1 
 
>  <HBD> 
0 
 
>  <TPSA> 
17.07 
 
>  <cid> 
38621 
 
>  <dipole> 
2.79 
 
>  <excitation_energy_1> 
4.233 
 
>  <excitation_energy_2> 
4.741 
 
>  <excitation_energy_3> 
5.586 
 
>  <excitation_energy_4> 
6.021 
 
>  <homo_energy> 
-6.182 
 
>  <homo_lumo_gap> 
5.687 
 
>  <logP> 
2.712 
 
>  <lumo_energy> 
-0.495 
 
>  <melting_point> 
60.4 
 
>  <molecular_refractivity> 
47.54 
 
>  <oscillator_strength_1> 
0.0002 
 
>  <oscillator_strength_2> 
0.0001 
 
>  <oscillator_strength_3> 
0.0081 
 
>  <oscillator_strength_4> 
0.0017 
 
>  <open_babel_can_smiles> 
O=C[C@]1(C)CCC(=C(C1)C)C 
 
>  <mulliken_charges> 
27 
1   -0.517358 
2   -0.51945 
3   -0.471436 
4   -0.337364 
5   -0.261665 
6   -0.341852 
7   0.248266 
8   0.120037 
9   0.11283 
10   0.012628 
11   -0.390832 
12   0.15423 
13   0.153202 
14   0.151057 
15   0.151741 
16   0.155339 
17   0.15256 
18   0.166132 
19   0.14444 
20   0.155003 
21   0.142248 
22   0.142643 
23   0.148064 
24   0.142295 
25   0.138294 
26   0.152831 
27   0.096118 
 
>  <lowdin_charges> 
27 
1   -0.443984 
2   -0.441762 
3   -0.444892 
4   -0.276895 
5   -0.269523 
6   -0.271021 
7   0.054115 
8   -0.032012 
9   -0.037061 
10   -0.027293 
11   -0.217465 
12   0.156863 
13   0.15478 
14   0.154345 
15   0.154956 
16   0.154458 
17   0.154577 
18   0.162391 
19   0.151126 
20   0.155013 
21   0.144195 
22   0.151875 
23   0.15004 
24   0.151966 
25   0.147818 
26   0.15048 
27   0.112911 
 
$$$$ 
 
