PCCDB-ID:  14912 
public computational chemistry database (PCCDB) project, http://pccdb.org 
 
 28 28  0  0  0  0  0  0  0  0999 V2000 
    1.0216    0.5572    0.3519 C   0  0  0  0  0  0  0  0  0  0  0  0 
    1.8586   -2.6710    1.2563 C   0  0  0  0  0  0  0  0  0  0  0  0 
    0.9445   -2.2685   -1.0809 C   0  0  0  0  0  0  0  0  0  0  0  0 
    3.0449   -3.5277   -0.7454 C   0  0  0  0  0  0  0  0  0  0  0  0 
    5.2066    0.0891   -0.6363 C   0  0  0  0  0  0  0  0  0  0  0  0 
    4.3934   -1.0424   -0.5878 C   0  0  0  0  0  0  0  0  0  0  0  0 
    3.3008    1.4095   -0.0247 C   0  0  0  0  0  0  0  0  0  0  0  0 
    2.4778    0.2786    0.0207 C   0  0  0  0  0  0  0  0  0  0  0  0 
    4.6543    1.3334   -0.3509 C   0  0  0  0  0  0  0  0  0  0  0  0 
    3.0273   -1.0041   -0.2665 C   0  0  0  0  0  0  0  0  0  0  0  0 
    2.2243   -2.3311   -0.2107 C   0  0  0  0  0  0  0  0  0  0  0  0 
    5.3710    2.5002   -0.3703 O   0  0  0  0  0  0  0  0  0  0  0  0 
    0.9291    1.5370    0.8304 H   0  0  0  0  0  0  0  0  0  0  0  0 
    0.5769   -0.1770    1.0264 H   0  0  0  0  0  0  0  0  0  0  0  0 
    0.4024    0.5823   -0.5531 H   0  0  0  0  0  0  0  0  0  0  0  0 
    1.3025   -3.6161    1.3008 H   0  0  0  0  0  0  0  0  0  0  0  0 
    1.2419   -1.9030    1.7299 H   0  0  0  0  0  0  0  0  0  0  0  0 
    2.7659   -2.7843    1.8605 H   0  0  0  0  0  0  0  0  0  0  0  0 
    0.4733   -3.2582   -1.1202 H   0  0  0  0  0  0  0  0  0  0  0  0 
    1.1873   -1.9723   -2.1081 H   0  0  0  0  0  0  0  0  0  0  0  0 
    0.1982   -1.5718   -0.6974 H   0  0  0  0  0  0  0  0  0  0  0  0 
    2.4251   -4.4306   -0.7158 H   0  0  0  0  0  0  0  0  0  0  0  0 
    3.9348   -3.7277   -0.1391 H   0  0  0  0  0  0  0  0  0  0  0  0 
    3.3616   -3.3764   -1.7837 H   0  0  0  0  0  0  0  0  0  0  0  0 
    6.2604   -0.0063   -0.8933 H   0  0  0  0  0  0  0  0  0  0  0  0 
    4.8638   -1.9907   -0.8143 H   0  0  0  0  0  0  0  0  0  0  0  0 
    2.8856    2.3885    0.1972 H   0  0  0  0  0  0  0  0  0  0  0  0 
    6.2889    2.2962   -0.6078 H   0  0  0  0  0  0  0  0  0  0  0  0 
  1 13  1  0  0  0  0 
  1 14  1  0  0  0  0 
  2 16  1  0  0  0  0 
  2 17  1  0  0  0  0 
  2 18  1  0  0  0  0 
  3 21  1  0  0  0  0 
  3 11  1  0  0  0  0 
  4 22  1  0  0  0  0 
  4 11  1  0  0  0  0 
  4 23  1  0  0  0  0 
  5  6  2  0  0  0  0 
  5  9  1  0  0  0  0 
  6 10  1  0  0  0  0 
  7  8  1  0  0  0  0 
  7 27  1  0  0  0  0 
  8  1  1  0  0  0  0 
  9  7  2  0  0  0  0 
 10 11  1  0  0  0  0 
 10  8  2  0  0  0  0 
 11  2  1  0  0  0  0 
 12  9  1  0  0  0  0 
 15  1  1  0  0  0  0 
 19  3  1  0  0  0  0 
 20  3  1  0  0  0  0 
 24  4  1  0  0  0  0 
 25  5  1  0  0  0  0 
 26  6  1  0  0  0  0 
 28 12  1  0  0  0  0 
M  END 
>  <HBA> 
1 
 
>  <HBD> 
1 
 
>  <TPSA> 
20.23 
 
>  <cid> 
14912 
 
>  <dipole> 
1.14 
 
>  <excitation_energy_1> 
4.937 
 
>  <excitation_energy_2> 
5.042 
 
>  <excitation_energy_3> 
5.501 
 
>  <excitation_energy_4> 
5.636 
 
>  <homo_energy> 
-5.695 
 
>  <homo_lumo_gap> 
5.853 
 
>  <logP> 
2.998 
 
>  <lumo_energy> 
0.158 
 
>  <melting_point> 
57.92 
 
>  <molecular_refractivity> 
52.7 
 
>  <oscillator_strength_1> 
0.0292 
 
>  <oscillator_strength_2> 
0.0001 
 
>  <oscillator_strength_3> 
0.0062 
 
>  <oscillator_strength_4> 
0.0577 
 
>  <open_babel_can_smiles> 
Oc1ccc(c(c1)C)C(C)(C)C 
 
>  <mulliken_charges> 
28 
1   -0.543917 
2   -0.443244 
3   -0.449434 
4   -0.456613 
5   -0.199464 
6   -0.201403 
7   -0.221002 
8   0.120591 
9   0.360343 
10   0.114889 
11   0.025052 
12   -0.648318 
13   0.155951 
14   0.161432 
15   0.168077 
16   0.136201 
17   0.146681 
18   0.145997 
19   0.135393 
20   0.145415 
21   0.146363 
22   0.139592 
23   0.144148 
24   0.145772 
25   0.112424 
26   0.124888 
27   0.128653 
28   0.405532 
 
>  <lowdin_charges> 
28 
1   -0.447915 
2   -0.44348 
3   -0.445302 
4   -0.443393 
5   -0.219216 
6   -0.161008 
7   -0.196662 
8   0.007137 
9   0.097129 
10   -0.031886 
11   0.020089 
12   -0.380013 
13   0.156743 
14   0.157451 
15   0.161765 
16   0.145466 
17   0.149834 
18   0.151345 
19   0.145676 
20   0.150045 
21   0.153671 
22   0.149302 
23   0.147775 
24   0.148341 
25   0.148998 
26   0.160915 
27   0.161691 
28   0.355501 
 
$$$$ 
 
