PCCDB-ID:  11904 
public computational chemistry database (PCCDB) project, http://pccdb.org 
 
 19 19  0  0  0  0  0  0  0  0999 V2000 
    2.2571   -0.7312    1.0112 C   0  0  0  0  0  0  0  0  0  0  0  0 
    4.8004    0.0266   -2.2727 C   0  0  0  0  0  0  0  0  0  0  0  0 
    2.7616   -0.3202   -0.1594 C   0  0  0  0  0  0  0  0  0  0  0  0 
    4.3342    3.5860   -0.9842 C   0  0  0  0  0  0  0  0  0  0  0  0 
    3.3688    3.4160    0.0083 C   0  0  0  0  0  0  0  0  0  0  0  0 
    4.7753    2.4802   -1.7106 C   0  0  0  0  0  0  0  0  0  0  0  0 
    2.8605    2.1454    0.2622 C   0  0  0  0  0  0  0  0  0  0  0  0 
    4.2775    1.1953   -1.4672 C   0  0  0  0  0  0  0  0  0  0  0  0 
    3.3053    1.0198   -0.4522 C   0  0  0  0  0  0  0  0  0  0  0  0 
    1.8596   -1.7350    1.1291 H   0  0  0  0  0  0  0  0  0  0  0  0 
    2.2318   -0.0942    1.8916 H   0  0  0  0  0  0  0  0  0  0  0  0 
    5.5791    0.3529   -2.9688 H   0  0  0  0  0  0  0  0  0  0  0  0 
    4.0093   -0.4502   -2.8662 H   0  0  0  0  0  0  0  0  0  0  0  0 
    5.2310   -0.7514   -1.6309 H   0  0  0  0  0  0  0  0  0  0  0  0 
    2.7867   -1.0354   -0.9797 H   0  0  0  0  0  0  0  0  0  0  0  0 
    4.7365    4.5727   -1.1981 H   0  0  0  0  0  0  0  0  0  0  0  0 
    3.0043    4.2694    0.5739 H   0  0  0  0  0  0  0  0  0  0  0  0 
    5.5280    2.6133   -2.4845 H   0  0  0  0  0  0  0  0  0  0  0  0 
    2.0855    2.0187    1.0129 H   0  0  0  0  0  0  0  0  0  0  0  0 
  1 10  1  0  0  0  0 
  1 11  1  0  0  0  0 
  2 14  1  0  0  0  0 
  2  8  1  0  0  0  0 
  3  1  2  0  0  0  0 
  4  5  2  0  0  0  0 
  5  7  1  0  0  0  0 
  5 17  1  0  0  0  0 
  6  8  2  0  0  0  0 
  6  4  1  0  0  0  0 
  7 19  1  0  0  0  0 
  8  9  1  0  0  0  0 
  9  3  1  0  0  0  0 
  9  7  2  0  0  0  0 
 12  2  1  0  0  0  0 
 13  2  1  0  0  0  0 
 15  3  1  0  0  0  0 
 16  4  1  0  0  0  0 
 18  6  1  0  0  0  0 
M  END 
>  <HBA> 
0 
 
>  <HBD> 
0 
 
>  <TPSA> 
0.0 
 
>  <cid> 
11904 
 
>  <dipole> 
0.34 
 
>  <excitation_energy_1> 
4.718 
 
>  <excitation_energy_2> 
4.906 
 
>  <excitation_energy_3> 
5.686 
 
>  <excitation_energy_4> 
5.735 
 
>  <homo_energy> 
-5.992 
 
>  <homo_lumo_gap> 
5.263 
 
>  <logP> 
2.638 
 
>  <lumo_energy> 
-0.729 
 
>  <melting_point> 
1.29 
 
>  <molecular_refractivity> 
41.5 
 
>  <oscillator_strength_1> 
0.0862 
 
>  <oscillator_strength_2> 
0.2627 
 
>  <oscillator_strength_3> 
0.1492 
 
>  <oscillator_strength_4> 
0.0333 
 
>  <open_babel_can_smiles> 
C=Cc1ccccc1C 
 
>  <mulliken_charges> 
19 
1   -0.339815 
2   -0.53649 
3   -0.12615 
4   -0.123556 
5   -0.132403 
6   -0.188157 
7   -0.184591 
8   0.124654 
9   0.103832 
10   0.141883 
11   0.142965 
12   0.155326 
13   0.161859 
14   0.166298 
15   0.129973 
16   0.127415 
17   0.127322 
18   0.121501 
19   0.128134 
 
>  <lowdin_charges> 
19 
1   -0.330574 
2   -0.447147 
3   -0.149675 
4   -0.156028 
5   -0.162453 
6   -0.167447 
7   -0.153609 
8   -0.002464 
9   -0.014531 
10   0.160328 
11   0.157994 
12   0.158272 
13   0.159781 
14   0.163044 
15   0.15767 
16   0.156709 
17   0.157782 
18   0.154033 
19   0.158316 
 
$$$$ 
 
