PCCDB-ID:  21258 
public computational chemistry database (PCCDB) project, http://pccdb.org 
 
 22 21  0  0  0  0  0  0  0  0999 V2000 
    4.7248    1.1732   -0.9965 C   0  0  0  0  0  0  0  0  0  0  0  0 
   -0.1896    0.8171    5.5922 C   0  0  0  0  0  0  0  0  0  0  0  0 
    2.0644    0.2808    1.7960 C   0  0  0  0  0  0  0  0  0  0  0  0 
    3.2769    0.1190    0.8728 C   0  0  0  0  0  0  0  0  0  0  0  0 
    2.2750    1.3445    2.8725 C   0  0  0  0  0  0  0  0  0  0  0  0 
    3.5200    1.2882   -0.0776 C   0  0  0  0  0  0  0  0  0  0  0  0 
    1.0522    0.5726    4.7657 C   0  0  0  0  0  0  0  0  0  0  0  0 
    2.7864    2.2595   -0.1084 O   0  0  0  0  0  0  0  0  0  0  0  0 
    1.8903   -0.2732    4.9938 O   0  0  0  0  0  0  0  0  0  0  0  0 
    1.1187    1.4469    3.7350 O   0  0  0  0  0  0  0  0  0  0  0  0 
    4.6593    0.2656   -1.6094 H   0  0  0  0  0  0  0  0  0  0  0  0 
    5.6482    1.0942   -0.4089 H   0  0  0  0  0  0  0  0  0  0  0  0 
    4.7795    2.0499   -1.6447 H   0  0  0  0  0  0  0  0  0  0  0  0 
   -0.3042    0.0154    6.3225 H   0  0  0  0  0  0  0  0  0  0  0  0 
   -1.0732    0.8749    4.9494 H   0  0  0  0  0  0  0  0  0  0  0  0 
   -0.1020    1.7763    6.1146 H   0  0  0  0  0  0  0  0  0  0  0  0 
    1.8668   -0.6770    2.2884 H   0  0  0  0  0  0  0  0  0  0  0  0 
    1.1827    0.5454    1.2028 H   0  0  0  0  0  0  0  0  0  0  0  0 
    3.1642   -0.7849    0.2566 H   0  0  0  0  0  0  0  0  0  0  0  0 
    4.1956   -0.0516    1.4545 H   0  0  0  0  0  0  0  0  0  0  0  0 
    2.3790    2.3347    2.4283 H   0  0  0  0  0  0  0  0  0  0  0  0 
    3.1515    1.1125    3.4849 H   0  0  0  0  0  0  0  0  0  0  0  0 
  1 12  1  0  0  0  0 
  1  6  1  0  0  0  0 
  2 16  1  0  0  0  0 
  2 14  1  0  0  0  0 
  3 17  1  0  0  0  0 
  3  5  1  0  0  0  0 
  4 20  1  0  0  0  0 
  4  3  1  0  0  0  0 
  5 22  1  0  0  0  0 
  5 10  1  0  0  0  0 
  6  4  1  0  0  0  0 
  7  9  2  0  0  0  0 
  7  2  1  0  0  0  0 
  8  6  2  0  0  0  0 
 10  7  1  0  0  0  0 
 11  1  1  0  0  0  0 
 13  1  1  0  0  0  0 
 15  2  1  0  0  0  0 
 18  3  1  0  0  0  0 
 19  4  1  0  0  0  0 
 21  5  1  0  0  0  0 
M  END 
>  <HBA> 
3 
 
>  <HBD> 
0 
 
>  <TPSA> 
43.37 
 
>  <cid> 
21258 
 
>  <dipole> 
1.57 
 
>  <excitation_energy_1> 
4.415 
 
>  <excitation_energy_2> 
5.815 
 
>  <excitation_energy_3> 
6.199 
 
>  <excitation_energy_4> 
6.229 
 
>  <homo_energy> 
-6.838 
 
>  <homo_lumo_gap> 
6.321 
 
>  <logP> 
0.919 
 
>  <lumo_energy> 
-0.517 
 
>  <melting_point> 
6.61 
 
>  <molecular_refractivity> 
37.25 
 
>  <oscillator_strength_1> 
0.0001 
 
>  <oscillator_strength_2> 
0.0013 
 
>  <oscillator_strength_3> 
0.0252 
 
>  <oscillator_strength_4> 
0.0003 
 
>  <open_babel_can_smiles> 
CC(=O)CCCOC(=O)C 
 
>  <mulliken_charges> 
22 
1   -0.527967 
2   -0.522516 
3   -0.271472 
4   -0.370946 
5   -0.048466 
6   0.453492 
7   0.600028 
8   -0.435422 
9   -0.473767 
10   -0.453503 
11   0.169266 
12   0.170601 
13   0.18217 
14   0.180385 
15   0.179965 
16   0.183435 
17   0.160137 
18   0.161531 
19   0.166326 
20   0.163666 
21   0.176483 
22   0.156574 
 
>  <lowdin_charges> 
22 
1   -0.476384 
2   -0.465752 
3   -0.285003 
4   -0.312994 
5   -0.135811 
6   0.167215 
7   0.200414 
8   -0.237164 
9   -0.272161 
10   -0.195534 
11   0.170242 
12   0.171095 
13   0.174568 
14   0.175124 
15   0.176539 
16   0.179016 
17   0.159668 
18   0.159162 
19   0.168535 
20   0.163404 
21   0.163878 
22   0.151941 
 
$$$$ 
 
