PCCDB-ID:  61249 
public computational chemistry database (PCCDB) project, http://pccdb.org 
 
 19 18  0  0  1  0  0  0  0  0999 V2000 
    5.1850   -2.2114    2.2623 C   0  0  0  0  0  0  0  0  0  0  0  0 
    7.7975    4.1124    1.1591 C   0  0  0  0  0  0  0  0  0  0  0  0 
    5.3153   -1.2482    1.3473 C   0  0  0  0  0  0  0  0  0  0  0  0 
    6.0475    2.3316    0.9094 C   0  0  0  0  0  0  0  0  0  0  0  0 
    7.5501    2.6132    0.9570 C   0  0  2  0  0  0  0  0  0  0  0  0 
    5.6837    0.1305    1.7466 C   0  0  0  0  0  0  0  0  0  0  0  0 
    8.2136    1.8478    1.9531 O   0  0  0  0  0  0  0  0  0  0  0  0 
    5.8821    0.5016    2.8927 O   0  0  0  0  0  0  0  0  0  0  0  0 
    5.7557    0.9376    0.6670 O   0  0  0  0  0  0  0  0  0  0  0  0 
    4.9146   -3.2262    1.9872 H   0  0  0  0  0  0  0  0  0  0  0  0 
    5.3490   -1.9975    3.3145 H   0  0  0  0  0  0  0  0  0  0  0  0 
    7.3817    4.7094    0.3379 H   0  0  0  0  0  0  0  0  0  0  0  0 
    8.8743    4.2966    1.2098 H   0  0  0  0  0  0  0  0  0  0  0  0 
    7.3520    4.4569    2.1003 H   0  0  0  0  0  0  0  0  0  0  0  0 
    5.1619   -1.4254    0.2872 H   0  0  0  0  0  0  0  0  0  0  0  0 
    5.5851    2.8644    0.0749 H   0  0  0  0  0  0  0  0  0  0  0  0 
    5.5670    2.6370    1.8448 H   0  0  0  0  0  0  0  0  0  0  0  0 
    7.9850    2.3043   -0.0036 H   0  0  0  0  0  0  0  0  0  0  0  0 
    7.5677    1.6150    2.6432 H   0  0  0  0  0  0  0  0  0  0  0  0 
  1 11  1  0  0  0  0 
  2 13  1  0  0  0  0 
  2 14  1  0  0  0  0 
  3  6  1  0  0  0  0 
  3  1  2  0  0  0  0 
  4  5  1  0  0  0  0 
  4 17  1  0  0  0  0 
  5 18  1  6  0  0  0 
  5  2  1  0  0  0  0 
  5  7  1  0  0  0  0 
  6  8  2  0  0  0  0 
  7 19  1  0  0  0  0 
  9  4  1  0  0  0  0 
  9  6  1  0  0  0  0 
 10  1  1  0  0  0  0 
 12  2  1  0  0  0  0 
 15  3  1  0  0  0  0 
 16  4  1  0  0  0  0 
M  END 
>  <HBA> 
3 
 
>  <HBD> 
1 
 
>  <TPSA> 
46.53 
 
>  <cid> 
61249 
 
>  <dipole> 
2.4 
 
>  <excitation_energy_1> 
4.804 
 
>  <excitation_energy_2> 
4.883 
 
>  <excitation_energy_3> 
5.892 
 
>  <excitation_energy_4> 
6.17 
 
>  <homo_energy> 
-7.012 
 
>  <homo_lumo_gap> 
5.54 
 
>  <logP> 
0.096 
 
>  <lumo_energy> 
-1.472 
 
>  <melting_point> 
-16.1 
 
>  <molecular_refractivity> 
32.93 
 
>  <oscillator_strength_1> 
0.0033 
 
>  <oscillator_strength_2> 
0.0012 
 
>  <oscillator_strength_3> 
0.028 
 
>  <oscillator_strength_4> 
0.4219 
 
>  <open_babel_can_smiles> 
C[C@H](COC(=O)C=C)O 
 
>  <mulliken_charges> 
19 
1   -0.298998 
2   -0.454199 
3   -0.130467 
4   -0.093063 
5   0.149448 
6   0.629 
7   -0.646592 
8   -0.517003 
9   -0.465047 
10   0.161855 
11   0.183884 
12   0.134891 
13   0.167172 
14   0.144679 
15   0.159061 
16   0.158554 
17   0.165577 
18   0.137168 
19   0.414083 
 
>  <lowdin_charges> 
19 
1   -0.255538 
2   -0.458657 
3   -0.181408 
4   -0.154067 
5   -0.003339 
6   0.204006 
7   -0.475156 
8   -0.288895 
9   -0.179291 
10   0.17043 
11   0.179732 
12   0.149189 
13   0.163614 
14   0.150526 
15   0.171313 
16   0.162224 
17   0.156967 
18   0.14054 
19   0.347812 
 
$$$$ 
 
