PCCDB-ID:  71006 
public computational chemistry database (PCCDB) project, http://pccdb.org 
 
 24 24  0  0  0  0  0  0  0  0999 V2000 
    0.9352    0.2257    1.7158 C   0  0  0  0  0  0  0  0  0  0  0  0 
   10.5783   -1.4286   -0.7841 C   0  0  0  0  0  0  0  0  0  0  0  0 
    4.8101   -1.5211   -0.1341 C   0  0  0  0  0  0  0  0  0  0  0  0 
    5.3543   -0.1517    1.7918 C   0  0  0  0  0  0  0  0  0  0  0  0 
    6.1641   -1.7056   -0.4081 C   0  0  0  0  0  0  0  0  0  0  0  0 
    6.7081   -0.3292    1.5131 C   0  0  0  0  0  0  0  0  0  0  0  0 
    2.4182    0.4678    1.5728 C   0  0  0  0  0  0  0  0  0  0  0  0 
    9.0877   -1.2595   -0.9516 C   0  0  0  0  0  0  0  0  0  0  0  0 
    4.4107   -0.7482    0.9547 C   0  0  0  0  0  0  0  0  0  0  0  0 
    7.1076   -1.0969    0.4205 C   0  0  0  0  0  0  0  0  0  0  0  0 
    2.9863    1.5137    1.7665 O   0  0  0  0  0  0  0  0  0  0  0  0 
    8.5045   -1.1298   -1.9991 O   0  0  0  0  0  0  0  0  0  0  0  0 
    3.0347   -0.6935    1.1843 O   0  0  0  0  0  0  0  0  0  0  0  0 
    8.4855   -1.2719    0.2796 O   0  0  0  0  0  0  0  0  0  0  0  0 
    0.4485    1.1482    2.0332 H   0  0  0  0  0  0  0  0  0  0  0  0 
    0.7522   -0.5659    2.4498 H   0  0  0  0  0  0  0  0  0  0  0  0 
    0.5140   -0.1099    0.7626 H   0  0  0  0  0  0  0  0  0  0  0  0 
   11.0512   -1.4512   -1.7663 H   0  0  0  0  0  0  0  0  0  0  0  0 
   10.7960   -2.3542   -0.2414 H   0  0  0  0  0  0  0  0  0  0  0  0 
   10.9856   -0.6011   -0.1938 H   0  0  0  0  0  0  0  0  0  0  0  0 
    4.0526   -1.9805   -0.7609 H   0  0  0  0  0  0  0  0  0  0  0  0 
    5.0435    0.4490    2.6359 H   0  0  0  0  0  0  0  0  0  0  0  0 
    6.4748   -2.3003   -1.2562 H   0  0  0  0  0  0  0  0  0  0  0  0 
    7.4657    0.1230    2.1450 H   0  0  0  0  0  0  0  0  0  0  0  0 
  1 15  1  0  0  0  0 
  1 16  1  0  0  0  0 
  2 19  1  0  0  0  0 
  2 20  1  0  0  0  0 
  3  9  1  0  0  0  0 
  4 22  1  0  0  0  0 
  5  3  2  0  0  0  0 
  5 10  1  0  0  0  0 
  6  4  1  0  0  0  0 
  6 24  1  0  0  0  0 
  7  1  1  0  0  0  0 
  7 11  2  0  0  0  0 
  8  2  1  0  0  0  0 
  8 14  1  0  0  0  0 
  9 13  1  0  0  0  0 
  9  4  2  0  0  0  0 
 10  6  2  0  0  0  0 
 12  8  2  0  0  0  0 
 13  7  1  0  0  0  0 
 14 10  1  0  0  0  0 
 17  1  1  0  0  0  0 
 18  2  1  0  0  0  0 
 21  3  1  0  0  0  0 
 23  5  1  0  0  0  0 
M  END 
>  <HBA> 
4 
 
>  <HBD> 
0 
 
>  <TPSA> 
52.6 
 
>  <cid> 
71006 
 
>  <dipole> 
2.12 
 
>  <excitation_energy_1> 
5.066 
 
>  <excitation_energy_2> 
5.192 
 
>  <excitation_energy_3> 
5.56 
 
>  <excitation_energy_4> 
5.579 
 
>  <homo_energy> 
-6.365 
 
>  <homo_lumo_gap> 
5.856 
 
>  <logP> 
1.537 
 
>  <lumo_energy> 
-0.509 
 
>  <melting_point> 
55.98 
 
>  <molecular_refractivity> 
49.44 
 
>  <oscillator_strength_1> 
0.0157 
 
>  <oscillator_strength_2> 
0.2602 
 
>  <oscillator_strength_3> 
0.0 
 
>  <oscillator_strength_4> 
0.0154 
 
>  <open_babel_can_smiles> 
CC(=O)Oc1ccc(cc1)OC(=O)C 
 
>  <mulliken_charges> 
24 
1   -0.525808 
2   -0.525706 
3   -0.181963 
4   -0.147631 
5   -0.148209 
6   -0.182409 
7   0.592789 
8   0.592929 
9   0.352089 
10   0.351501 
11   -0.443816 
12   -0.44389 
13   -0.51513 
14   -0.51465 
15   0.186043 
16   0.185859 
17   0.186481 
18   0.18598 
19   0.18556 
20   0.186689 
21   0.147066 
22   0.164081 
23   0.165084 
24   0.147063 
 
>  <lowdin_charges> 
24 
1   -0.464416 
2   -0.464209 
3   -0.166006 
4   -0.163344 
5   -0.163673 
6   -0.166035 
7   0.211078 
8   0.211748 
9   0.097648 
10   0.097519 
11   -0.240412 
12   -0.240731 
13   -0.166499 
14   -0.166303 
15   0.17795 
16   0.18084 
17   0.180559 
18   0.177284 
19   0.180106 
20   0.181584 
21   0.172175 
22   0.180254 
23   0.180727 
24   0.172155 
 
$$$$ 
 
