PCCDB-ID:  22801 
public computational chemistry database (PCCDB) project, http://pccdb.org 
 
 33 32  0  0  0  0  0  0  0  0999 V2000 
    3.9576   -3.2016   -2.3446 C   0  0  0  0  0  0  0  0  0  0  0  0 
    2.5821   -0.9309    3.1877 C   0  0  0  0  0  0  0  0  0  0  0  0 
    4.1219    4.7530   -1.6398 C   0  0  0  0  0  0  0  0  0  0  0  0 
    4.3305   -1.8079   -2.8256 C   0  0  0  0  0  0  0  0  0  0  0  0 
    4.0991   -1.0198    3.2481 C   0  0  0  0  0  0  0  0  0  0  0  0 
    5.7907    1.6891   -0.5283 C   0  0  0  0  0  0  0  0  0  0  0  0 
    4.5998    2.5973   -0.8276 C   0  0  0  0  0  0  0  0  0  0  0  0 
    5.4374    0.2964    0.0393 C   0  0  0  0  0  0  0  0  0  0  0  0 
    4.4661   -0.4495   -0.8726 C   0  0  0  0  0  0  0  0  0  0  0  0 
    4.8735    0.3517    1.4586 C   0  0  0  0  0  0  0  0  0  0  0  0 
    3.2580   -0.4115   -0.7739 O   0  0  0  0  0  0  0  0  0  0  0  0 
    4.6652    1.3616    2.0940 O   0  0  0  0  0  0  0  0  0  0  0  0 
    5.1252    3.8025   -1.3591 O   0  0  0  0  0  0  0  0  0  0  0  0 
    5.1344   -1.1094   -1.8400 O   0  0  0  0  0  0  0  0  0  0  0  0 
    4.6824   -0.8977    1.9262 O   0  0  0  0  0  0  0  0  0  0  0  0 
    3.4119   -3.7318   -3.1336 H   0  0  0  0  0  0  0  0  0  0  0  0 
    3.3157   -3.1449   -1.4611 H   0  0  0  0  0  0  0  0  0  0  0  0 
    4.8526   -3.7809   -2.0961 H   0  0  0  0  0  0  0  0  0  0  0  0 
    2.1609   -1.1025    4.1851 H   0  0  0  0  0  0  0  0  0  0  0  0 
    2.1759   -1.6829    2.5042 H   0  0  0  0  0  0  0  0  0  0  0  0 
    2.2672    0.0585    2.8455 H   0  0  0  0  0  0  0  0  0  0  0  0 
    4.6200    5.6405   -2.0401 H   0  0  0  0  0  0  0  0  0  0  0  0 
    3.5611    5.0359   -0.7343 H   0  0  0  0  0  0  0  0  0  0  0  0 
    3.4021    4.3807   -2.3876 H   0  0  0  0  0  0  0  0  0  0  0  0 
    3.4414   -1.2101   -3.0397 H   0  0  0  0  0  0  0  0  0  0  0  0 
    4.9675   -1.8446   -3.7124 H   0  0  0  0  0  0  0  0  0  0  0  0 
    4.4326   -2.0000    3.5974 H   0  0  0  0  0  0  0  0  0  0  0  0 
    4.5208   -0.2429    3.8904 H   0  0  0  0  0  0  0  0  0  0  0  0 
    6.4407    2.1981    0.1903 H   0  0  0  0  0  0  0  0  0  0  0  0 
    6.3663    1.5505   -1.4499 H   0  0  0  0  0  0  0  0  0  0  0  0 
    4.0278    2.7921    0.0902 H   0  0  0  0  0  0  0  0  0  0  0  0 
    3.9153    2.1290   -1.5541 H   0  0  0  0  0  0  0  0  0  0  0  0 
    6.3574   -0.2971    0.0862 H   0  0  0  0  0  0  0  0  0  0  0  0 
  1 18  1  0  0  0  0 
  1 17  1  0  0  0  0 
  2  5  1  0  0  0  0 
  2 19  1  0  0  0  0 
  3 13  1  0  0  0  0 
  3 23  1  0  0  0  0 
  4  1  1  0  0  0  0 
  4 14  1  0  0  0  0 
  5 27  1  0  0  0  0 
  5 28  1  0  0  0  0 
  6  8  1  0  0  0  0 
  6 29  1  0  0  0  0 
  7  6  1  0  0  0  0 
  7 31  1  0  0  0  0 
  8 33  1  0  0  0  0 
  8 10  1  0  0  0  0 
  9 11  2  0  0  0  0 
  9  8  1  0  0  0  0 
 10 15  1  0  0  0  0 
 10 12  2  0  0  0  0 
 13  7  1  0  0  0  0 
 14  9  1  0  0  0  0 
 15  5  1  0  0  0  0 
 16  1  1  0  0  0  0 
 20  2  1  0  0  0  0 
 21  2  1  0  0  0  0 
 22  3  1  0  0  0  0 
 24  3  1  0  0  0  0 
 25  4  1  0  0  0  0 
 26  4  1  0  0  0  0 
 30  6  1  0  0  0  0 
 32  7  1  0  0  0  0 
M  END 
>  <HBA> 
5 
 
>  <HBD> 
0 
 
>  <TPSA> 
61.83 
 
>  <cid> 
22801 
 
>  <dipole> 
2.62 
 
>  <excitation_energy_1> 
5.69 
 
>  <excitation_energy_2> 
5.727 
 
>  <excitation_energy_3> 
5.902 
 
>  <excitation_energy_4> 
6.143 
 
>  <homo_energy> 
-6.67 
 
>  <homo_lumo_gap> 
6.678 
 
>  <logP> 
0.765 
 
>  <lumo_energy> 
0.008 
 
>  <melting_point> 
-13.29 
 
>  <molecular_refractivity> 
53.84 
 
>  <oscillator_strength_1> 
0.0017 
 
>  <oscillator_strength_2> 
0.0021 
 
>  <oscillator_strength_3> 
0.0014 
 
>  <oscillator_strength_4> 
0.0005 
 
>  <open_babel_can_smiles> 
COCCC(C(=O)OCC)C(=O)OCC 
 
>  <mulliken_charges> 
33 
1   -0.46188 
2   -0.458895 
3   -0.19 
4   -0.048509 
5   -0.049211 
6   -0.27876 
7   -0.022981 
8   -0.283216 
9   0.652627 
10   0.656121 
11   -0.487718 
12   -0.478983 
13   -0.468544 
14   -0.464641 
15   -0.462616 
16   0.152307 
17   0.178567 
18   0.159483 
19   0.14804 
20   0.164618 
21   0.180626 
22   0.154447 
23   0.132563 
24   0.126913 
25   0.171939 
26   0.156842 
27   0.153352 
28   0.171238 
29   0.171265 
30   0.159185 
31   0.154135 
32   0.125313 
33   0.186375 
 
>  <lowdin_charges> 
33 
1   -0.456036 
2   -0.453371 
3   -0.281765 
4   -0.128778 
5   -0.127401 
6   -0.272076 
7   -0.139117 
8   -0.174101 
9   0.197417 
10   0.205179 
11   -0.265505 
12   -0.258148 
13   -0.273732 
14   -0.186599 
15   -0.189263 
16   0.161159 
17   0.166976 
18   0.157858 
19   0.157357 
20   0.161399 
21   0.167731 
22   0.15363 
23   0.133551 
24   0.130652 
25   0.160145 
26   0.154898 
27   0.152645 
28   0.160048 
29   0.167543 
30   0.159163 
31   0.144573 
32   0.129981 
33   0.183986 
 
$$$$ 
 
