PCCDB-ID:  13388 
public computational chemistry database (PCCDB) project, http://pccdb.org 
 
 15 15  0  0  0  0  0  0  0  0999 V2000 
    1.1229   -0.7914   -0.2957 C   0  0  0  0  0  0  0  0  0  0  0  0 
    2.4158   -0.0033   -0.0204 C   0  0  0  0  0  0  0  0  0  0  0  0 
    3.4158    2.6152   -2.5969 C   0  0  0  0  0  0  0  0  0  0  0  0 
    2.8989    2.1712   -1.3399 C   0  0  0  0  0  0  0  0  0  0  0  0 
    3.8090    1.5829   -3.3998 C   0  0  0  0  0  0  0  0  0  0  0  0 
    2.9001    0.8094   -1.1901 C   0  0  0  0  0  0  0  0  0  0  0  0 
    3.5517    0.0475   -2.6277 S   0  0  0  0  0  0  0  0  0  0  0  0 
    0.8157   -1.3530    0.5939 H   0  0  0  0  0  0  0  0  0  0  0  0 
    1.2605   -1.5057   -1.1148 H   0  0  0  0  0  0  0  0  0  0  0  0 
    0.3071   -0.1162   -0.5752 H   0  0  0  0  0  0  0  0  0  0  0  0 
    3.2006   -0.6990    0.3057 H   0  0  0  0  0  0  0  0  0  0  0  0 
    2.2518    0.6864    0.8167 H   0  0  0  0  0  0  0  0  0  0  0  0 
    3.4886    3.6584   -2.8858 H   0  0  0  0  0  0  0  0  0  0  0  0 
    2.5377    2.8424   -0.5666 H   0  0  0  0  0  0  0  0  0  0  0  0 
    4.2351    1.6262   -4.3931 H   0  0  0  0  0  0  0  0  0  0  0  0 
  1  2  1  0  0  0  0 
  1  8  1  0  0  0  0 
  2 11  1  0  0  0  0 
  2 12  1  0  0  0  0 
  3  4  1  0  0  0  0 
  4  6  2  0  0  0  0 
  4 14  1  0  0  0  0 
  5  7  1  0  0  0  0 
  5  3  2  0  0  0  0 
  6  2  1  0  0  0  0 
  7  6  1  0  0  0  0 
  9  1  1  0  0  0  0 
 10  1  1  0  0  0  0 
 13  3  1  0  0  0  0 
 15  5  1  0  0  0  0 
M  END 
>  <HBA> 
1 
 
>  <HBD> 
0 
 
>  <TPSA> 
28.24 
 
>  <cid> 
13388 
 
>  <dipole> 
0.72 
 
>  <excitation_energy_1> 
5.351 
 
>  <excitation_energy_2> 
5.523 
 
>  <excitation_energy_3> 
5.686 
 
>  <excitation_energy_4> 
5.718 
 
>  <homo_energy> 
-6.025 
 
>  <homo_lumo_gap> 
5.902 
 
>  <logP> 
2.311 
 
>  <lumo_energy> 
-0.122 
 
>  <melting_point> 
5.72 
 
>  <molecular_refractivity> 
34.09 
 
>  <oscillator_strength_1> 
0.1257 
 
>  <oscillator_strength_2> 
0.0177 
 
>  <oscillator_strength_3> 
0.0581 
 
>  <oscillator_strength_4> 
0.0295 
 
>  <open_babel_can_smiles> 
CCc1cccs1 
 
>  <mulliken_charges> 
15 
1   -0.438349 
2   -0.315785 
3   -0.095748 
4   -0.129145 
5   -0.347577 
6   -0.105352 
7   0.227866 
8   0.14477 
9   0.157035 
10   0.154924 
11   0.155886 
12   0.153671 
13   0.137518 
14   0.131468 
15   0.168818 
 
>  <lowdin_charges> 
15 
1   -0.44393 
2   -0.268093 
3   -0.181008 
4   -0.200984 
5   -0.322488 
6   -0.15369 
7   0.292343 
8   0.151147 
9   0.154801 
10   0.154615 
11   0.156067 
12   0.157011 
13   0.162595 
14   0.162066 
15   0.179547 
 
$$$$ 
 
