PCCDB-ID:  44653 
public computational chemistry database (PCCDB) project, http://pccdb.org 
 
 33 32  0  0  1  0  0  0  0  0999 V2000 
    1.7678    1.4000    0.3660 C   0  0  0  0  0  0  0  0  0  0  0  0 
    5.0236    4.2754   -2.9253 C   0  0  0  0  0  0  0  0  0  0  0  0 
    2.3506    1.0148   -0.9992 C   0  0  0  0  0  0  0  0  0  0  0  0 
    3.1107    2.1525   -1.7070 C   0  0  0  0  0  0  0  0  0  0  0  0 
    5.5312    1.5179   -1.3844 C   0  0  0  0  0  0  0  0  0  0  0  0 
    4.9148    3.9766   -1.4335 C   0  0  2  0  0  0  0  0  0  0  0  0 
    4.4552    2.5530   -1.0570 C   0  0  1  0  0  0  0  0  0  0  0  0 
    7.7538    1.0215   -0.7645 C   0  0  0  0  0  0  0  0  0  0  0  0 
    4.3246    6.1119   -0.4978 C   0  0  0  0  0  0  0  0  0  0  0  0 
    7.7490    0.0205   -1.5522 N   0  0  0  0  0  0  0  0  0  0  0  0 
    5.4906    6.5715   -0.6860 N   0  0  0  0  0  0  0  0  0  0  0  0 
    8.7399    1.4839    0.0491 O   0  0  0  0  0  0  0  0  0  0  0  0 
    3.2945    6.7908    0.0686 O   0  0  0  0  0  0  0  0  0  0  0  0 
    6.7015    1.8318   -0.6057 O   0  0  0  0  0  0  0  0  0  0  0  0 
    3.9269    4.8683   -0.8341 O   0  0  0  0  0  0  0  0  0  0  0  0 
    1.1953    0.5702    0.7955 H   0  0  0  0  0  0  0  0  0  0  0  0 
    1.0920    2.2595    0.2752 H   0  0  0  0  0  0  0  0  0  0  0  0 
    2.5477    1.6672    1.0880 H   0  0  0  0  0  0  0  0  0  0  0  0 
    5.7532    3.6098   -3.3995 H   0  0  0  0  0  0  0  0  0  0  0  0 
    5.3686    5.3029   -3.0637 H   0  0  0  0  0  0  0  0  0  0  0  0 
    4.0610    4.1513   -3.4319 H   0  0  0  0  0  0  0  0  0  0  0  0 
    1.5305    0.6938   -1.6548 H   0  0  0  0  0  0  0  0  0  0  0  0 
    3.0003    0.1365   -0.8857 H   0  0  0  0  0  0  0  0  0  0  0  0 
    2.4626    3.0368   -1.7367 H   0  0  0  0  0  0  0  0  0  0  0  0 
    3.2862    1.8668   -2.7534 H   0  0  0  0  0  0  0  0  0  0  0  0 
    5.7984    1.5157   -2.4464 H   0  0  0  0  0  0  0  0  0  0  0  0 
    5.2030    0.5054   -1.1318 H   0  0  0  0  0  0  0  0  0  0  0  0 
    5.8704    4.1873   -0.9491 H   0  0  0  0  0  0  0  0  0  0  0  0 
    4.3346    2.5613    0.0336 H   0  0  0  0  0  0  0  0  0  0  0  0 
    8.6339   -0.4858   -1.5440 H   0  0  0  0  0  0  0  0  0  0  0  0 
    5.5500    7.5261   -0.3329 H   0  0  0  0  0  0  0  0  0  0  0  0 
    9.5181    0.9170   -0.0624 H   0  0  0  0  0  0  0  0  0  0  0  0 
    2.5288    6.1923    0.1040 H   0  0  0  0  0  0  0  0  0  0  0  0 
  1 16  1  0  0  0  0 
  1 18  1  0  0  0  0 
  2  6  1  0  0  0  0 
  3 23  1  0  0  0  0 
  3  1  1  0  0  0  0 
  4  7  1  0  0  0  0 
  4  3  1  0  0  0  0 
  5 27  1  0  0  0  0 
  5  7  1  0  0  0  0 
  5 14  1  0  0  0  0 
  6  7  1  0  0  0  0 
  6 28  1  1  0  0  0 
  6 15  1  0  0  0  0 
  7 29  1  1  0  0  0 
  8 14  1  0  0  0  0 
  8 12  1  0  0  0  0 
  9 13  1  0  0  0  0 
 10 30  1  0  0  0  0 
 10  8  2  0  0  0  0 
 11  9  2  0  0  0  0 
 11 31  1  0  0  0  0 
 13 33  1  0  0  0  0 
 15  9  1  0  0  0  0 
 17  1  1  0  0  0  0 
 19  2  1  0  0  0  0 
 20  2  1  0  0  0  0 
 21  2  1  0  0  0  0 
 22  3  1  0  0  0  0 
 24  4  1  0  0  0  0 
 25  4  1  0  0  0  0 
 26  5  1  0  0  0  0 
 32 12  1  0  0  0  0 
M  END 
>  <HBA> 
6 
 
>  <HBD> 
2 
 
>  <TPSA> 
104.64 
 
>  <cid> 
44653 
 
>  <dipole> 
2.12 
 
>  <excitation_energy_1> 
5.96 
 
>  <excitation_energy_2> 
6.238 
 
>  <excitation_energy_3> 
6.273 
 
>  <excitation_energy_4> 
6.464 
 
>  <homo_energy> 
-6.844 
 
>  <homo_lumo_gap> 
8.066 
 
>  <logP> 
2.382 
 
>  <lumo_energy> 
1.222 
 
>  <melting_point> 
125.49 
 
>  <molecular_refractivity> 
54.14 
 
>  <oscillator_strength_1> 
0.0051 
 
>  <oscillator_strength_2> 
0.0001 
 
>  <oscillator_strength_3> 
0.0029 
 
>  <oscillator_strength_4> 
0.0434 
 
>  <open_babel_can_smiles> 
CCC[C@H]([C@H](OC(=N)O)C)COC(=N)O 
 
>  <mulliken_charges> 
33 
1   -0.443249 
2   -0.479363 
3   -0.260334 
4   -0.279028 
5   -0.032942 
6   0.131331 
7   -0.123795 
8   0.647303 
9   0.686227 
10   -0.629537 
11   -0.639574 
12   -0.567971 
13   -0.594613 
14   -0.45314 
15   -0.509054 
16   0.145946 
17   0.139583 
18   0.14997 
19   0.151244 
20   0.184877 
21   0.149647 
22   0.136538 
23   0.13756 
24   0.147092 
25   0.135188 
26   0.161516 
27   0.166126 
28   0.192232 
29   0.150136 
30   0.276866 
31   0.29971 
32   0.408755 
33   0.414754 
 
>  <lowdin_charges> 
33 
1   -0.449001 
2   -0.460929 
3   -0.276037 
4   -0.279645 
5   -0.119304 
6   0.010831 
7   -0.142888 
8   0.187629 
9   0.189623 
10   -0.471056 
11   -0.453794 
12   -0.362222 
13   -0.374038 
14   -0.178835 
15   -0.215361 
16   0.152778 
17   0.145765 
18   0.149166 
19   0.158617 
20   0.172728 
21   0.152185 
22   0.146176 
23   0.141006 
24   0.149863 
25   0.142416 
26   0.150711 
27   0.156218 
28   0.170579 
29   0.15196 
30   0.256432 
31   0.270205 
32   0.362536 
33   0.365686 
 
$$$$ 
 
