PCCDB-ID:  12232 
public computational chemistry database (PCCDB) project, http://pccdb.org 
 
 10  9  0  0  0  0  0  0  0  0999 V2000 
    1.3701   -0.0773    0.2128 C   0  0  0  0  0  0  0  0  0  0  0  0 
    4.7254   -1.5514    1.3085 C   0  0  0  0  0  0  0  0  0  0  0  0 
    2.6704   -0.8080   -0.8588 S   0  0  0  0  0  0  0  0  0  0  0  0 
    3.4260   -2.3660    0.2980 S   0  0  0  0  0  0  0  0  0  0  0  0 
    0.9004    0.7148   -0.3797 H   0  0  0  0  0  0  0  0  0  0  0  0 
    1.7984    0.3607    1.1176 H   0  0  0  0  0  0  0  0  0  0  0  0 
    0.6201   -0.8261    0.4756 H   0  0  0  0  0  0  0  0  0  0  0  0 
    5.1942   -2.3477    1.8960 H   0  0  0  0  0  0  0  0  0  0  0  0 
    4.2966   -0.8117    1.9887 H   0  0  0  0  0  0  0  0  0  0  0  0 
    5.4763   -1.0839    0.6682 H   0  0  0  0  0  0  0  0  0  0  0  0 
  1  7  1  0  0  0  0 
  1  6  1  0  0  0  0 
  2  8  1  0  0  0  0 
  2  9  1  0  0  0  0 
  3  1  1  0  0  0  0 
  3  4  1  0  0  0  0 
  4  2  1  0  0  0  0 
  5  1  1  0  0  0  0 
 10  2  1  0  0  0  0 
M  END 
>  <HBA> 
2 
 
>  <HBD> 
0 
 
>  <TPSA> 
50.6 
 
>  <cid> 
12232 
 
>  <dipole> 
2.25 
 
>  <excitation_energy_1> 
4.562 
 
>  <excitation_energy_2> 
4.639 
 
>  <excitation_energy_3> 
5.72 
 
>  <excitation_energy_4> 
5.765 
 
>  <homo_energy> 
-6.455 
 
>  <homo_lumo_gap> 
5.845 
 
>  <logP> 
1.627 
 
>  <lumo_energy> 
-0.61 
 
>  <melting_point> 
-5.97 
 
>  <molecular_refractivity> 
26.91 
 
>  <oscillator_strength_1> 
0.0093 
 
>  <oscillator_strength_2> 
0.0017 
 
>  <oscillator_strength_3> 
0.0026 
 
>  <oscillator_strength_4> 
0.0012 
 
>  <open_babel_can_smiles> 
CSSC 
 
>  <mulliken_charges> 
10 
1   -0.582481 
2   -0.582585 
3   0.017263 
4   0.017175 
5   0.186663 
6   0.182794 
7   0.195807 
8   0.186701 
9   0.182874 
10   0.195788 
 
>  <lowdin_charges> 
10 
1   -0.553592 
2   -0.554503 
3   0.035602 
4   0.035773 
5   0.178524 
6   0.165576 
7   0.173741 
8   0.178497 
9   0.16627 
10   0.174112 
 
$$$$ 
 
