PCCDB-ID:  35117 
public computational chemistry database (PCCDB) project, http://pccdb.org 
 
 29 29  0  0  0  0  0  0  0  0999 V2000 
    3.0549    0.2626   -1.5191 C   0  0  0  0  0  0  0  0  0  0  0  0 
    2.4477   -0.1388   -0.1696 C   0  0  0  0  0  0  0  0  0  0  0  0 
    3.0910   -1.3761    0.4777 C   0  0  0  0  0  0  0  0  0  0  0  0 
    4.5539   -1.1766    0.9012 C   0  0  0  0  0  0  0  0  0  0  0  0 
    5.1034   -2.4083    1.6023 C   0  0  0  0  0  0  0  0  0  0  0  0 
    7.3805   -5.1383    3.6171 C   0  0  0  0  0  0  0  0  0  0  0  0 
    9.3140   -3.5416    3.5651 C   0  0  0  0  0  0  0  0  0  0  0  0 
    7.1425   -3.0833    2.6110 C   0  0  0  0  0  0  0  0  0  0  0  0 
    6.8814   -6.2678    3.9476 N   0  0  0  0  0  0  0  0  0  0  0  0 
   10.5047   -3.1341    3.7861 N   0  0  0  0  0  0  0  0  0  0  0  0 
    8.7182   -4.7467    3.9087 N   0  0  0  0  0  0  0  0  0  0  0  0 
    6.6075   -4.2091    2.9325 N   0  0  0  0  0  0  0  0  0  0  0  0 
    8.4314   -2.7052    2.8853 N   0  0  0  0  0  0  0  0  0  0  0  0 
    6.4826   -2.1270    1.9545 O   0  0  0  0  0  0  0  0  0  0  0  0 
    2.5205    1.1166   -1.9503 H   0  0  0  0  0  0  0  0  0  0  0  0 
    2.9971   -0.5633   -2.2393 H   0  0  0  0  0  0  0  0  0  0  0  0 
    4.1086    0.5494   -1.4269 H   0  0  0  0  0  0  0  0  0  0  0  0 
    1.3767   -0.3378   -0.3063 H   0  0  0  0  0  0  0  0  0  0  0  0 
    2.5119    0.7081    0.5283 H   0  0  0  0  0  0  0  0  0  0  0  0 
    3.0246   -2.2246   -0.2190 H   0  0  0  0  0  0  0  0  0  0  0  0 
    2.5004   -1.6596    1.3601 H   0  0  0  0  0  0  0  0  0  0  0  0 
    4.6328   -0.3151    1.5776 H   0  0  0  0  0  0  0  0  0  0  0  0 
    5.1821   -0.9549    0.0302 H   0  0  0  0  0  0  0  0  0  0  0  0 
    5.0814   -3.2956    0.9619 H   0  0  0  0  0  0  0  0  0  0  0  0 
    4.5516   -2.6458    2.5168 H   0  0  0  0  0  0  0  0  0  0  0  0 
    7.5663   -6.8443    4.4433 H   0  0  0  0  0  0  0  0  0  0  0  0 
   11.0546   -3.8302    4.2899 H   0  0  0  0  0  0  0  0  0  0  0  0 
    9.2965   -5.4075    4.4093 H   0  0  0  0  0  0  0  0  0  0  0  0 
    8.7821   -1.8031    2.5933 H   0  0  0  0  0  0  0  0  0  0  0  0 
  1 17  1  0  0  0  0 
  1  2  1  0  0  0  0 
  2  3  1  0  0  0  0 
  2 19  1  0  0  0  0 
  3  4  1  0  0  0  0 
  3 21  1  0  0  0  0 
  4 22  1  0  0  0  0 
  4  5  1  0  0  0  0 
  5 14  1  0  0  0  0 
  5 25  1  0  0  0  0 
  6 11  1  0  0  0  0 
  6  9  1  0  0  0  0 
  7 10  2  0  0  0  0 
  7 11  1  0  0  0  0 
  8 13  1  0  0  0  0 
  8 12  2  0  0  0  0 
  9 26  1  0  0  0  0 
 10 27  1  0  0  0  0 
 11 28  1  0  0  0  0 
 12  6  2  0  0  0  0 
 13  7  1  0  0  0  0 
 14  8  1  0  0  0  0 
 15  1  1  0  0  0  0 
 16  1  1  0  0  0  0 
 18  2  1  0  0  0  0 
 20  3  1  0  0  0  0 
 23  4  1  0  0  0  0 
 24  5  1  0  0  0  0 
 29 13  1  0  0  0  0 
M  RAD  1   9   2 
M  END 
>  <HBA> 
6 
 
>  <HBD> 
2 
 
>  <TPSA> 
99.94 
 
>  <cid> 
35117 
 
>  <dipole> 
1.67 
 
>  <excitation_energy_1> 
5.401 
 
>  <excitation_energy_2> 
5.546 
 
>  <excitation_energy_3> 
5.619 
 
>  <excitation_energy_4> 
5.669 
 
>  <homo_energy> 
-6.397 
 
>  <homo_lumo_gap> 
6.289 
 
>  <logP> 
1.767 
 
>  <lumo_energy> 
-0.109 
 
>  <melting_point> 
152.6 
 
>  <molecular_refractivity> 
54.36 
 
>  <oscillator_strength_1> 
0.0023 
 
>  <oscillator_strength_2> 
0.0768 
 
>  <oscillator_strength_3> 
0.0012 
 
>  <oscillator_strength_4> 
0.0175 
 
>  <open_babel_can_smiles> 
CCCCCOC1=[N]=C(NC(=N)N1)[NH] 
 
>  <mulliken_charges> 
29 
1   -0.445699 
2   -0.249322 
3   -0.261706 
4   -0.28141 
5   -0.030835 
6   0.613635 
7   0.693563 
8   0.779448 
9   -0.61479 
10   -0.65195 
11   -0.699512 
12   -0.519182 
13   -0.675205 
14   -0.507634 
15   0.146543 
16   0.143667 
17   0.146819 
18   0.136924 
19   0.133438 
20   0.13613 
21   0.137111 
22   0.146104 
23   0.151453 
24   0.169013 
25   0.170777 
26   0.263018 
27   0.279769 
28   0.328498 
29   0.361334 
 
>  <lowdin_charges> 
29 
1   -0.447511 
2   -0.270151 
3   -0.275969 
4   -0.285124 
5   -0.117068 
6   0.131876 
7   0.137953 
8   0.186412 
9   -0.416786 
10   -0.459696 
11   -0.286486 
12   -0.23191 
13   -0.228367 
14   -0.18307 
15   0.153084 
16   0.147927 
17   0.146093 
18   0.14334 
19   0.141062 
20   0.142416 
21   0.145291 
22   0.149055 
23   0.151071 
24   0.15794 
25   0.158965 
26   0.245231 
27   0.258354 
28   0.291892 
29   0.314176 
 
$$$$ 
 
