PCCDB-ID:  32898 
public computational chemistry database (PCCDB) project, http://pccdb.org 
 
 33 32  0  0  0  0  0  0  0  0999 V2000 
    0.0172    0.9117    2.5681 C   0  0  0  0  0  0  0  0  0  0  0  0 
    2.0719    0.6862    4.0154 C   0  0  0  0  0  0  0  0  0  0  0  0 
    5.0035   -2.6605    0.5730 C   0  0  0  0  0  0  0  0  0  0  0  0 
    3.5327   -2.3403    0.8890 C   0  0  0  0  0  0  0  0  0  0  0  0 
    5.8653   -2.9941    1.7983 C   0  0  0  0  0  0  0  0  0  0  0  0 
    3.3108   -1.0396    1.6755 C   0  0  0  0  0  0  0  0  0  0  0  0 
    7.3105   -3.3580    1.4374 C   0  0  0  0  0  0  0  0  0  0  0  0 
    1.8238   -0.7232    1.8908 C   0  0  0  0  0  0  0  0  0  0  0  0 
    8.1639   -3.7517    2.6455 C   0  0  0  0  0  0  0  0  0  0  0  0 
    1.5260    0.6232    2.5804 C   0  0  0  0  0  0  0  0  0  0  0  0 
    7.6521   -4.8769    3.3557 O   0  0  0  0  0  0  0  0  0  0  0  0 
   -0.2060    1.8845    3.0226 H   0  0  0  0  0  0  0  0  0  0  0  0 
   -0.5327    0.1479    3.1335 H   0  0  0  0  0  0  0  0  0  0  0  0 
   -0.3810    0.9197    1.5463 H   0  0  0  0  0  0  0  0  0  0  0  0 
    1.8355    1.6498    4.4822 H   0  0  0  0  0  0  0  0  0  0  0  0 
    3.1595    0.5621    4.0502 H   0  0  0  0  0  0  0  0  0  0  0  0 
    1.6258   -0.1016    4.6372 H   0  0  0  0  0  0  0  0  0  0  0  0 
    5.4501   -1.8126    0.0318 H   0  0  0  0  0  0  0  0  0  0  0  0 
    5.0355   -3.5122   -0.1220 H   0  0  0  0  0  0  0  0  0  0  0  0 
    3.0917   -3.1807    1.4455 H   0  0  0  0  0  0  0  0  0  0  0  0 
    2.9756   -2.2782   -0.0568 H   0  0  0  0  0  0  0  0  0  0  0  0 
    5.4174   -3.8298    2.3514 H   0  0  0  0  0  0  0  0  0  0  0  0 
    5.8800   -2.1429    2.4928 H   0  0  0  0  0  0  0  0  0  0  0  0 
    3.7836   -0.2065    1.1328 H   0  0  0  0  0  0  0  0  0  0  0  0 
    3.8211   -1.1028    2.6445 H   0  0  0  0  0  0  0  0  0  0  0  0 
    7.7973   -2.5125    0.9291 H   0  0  0  0  0  0  0  0  0  0  0  0 
    7.3139   -4.1873    0.7116 H   0  0  0  0  0  0  0  0  0  0  0  0 
    1.3603   -1.5332    2.4754 H   0  0  0  0  0  0  0  0  0  0  0  0 
    1.3198   -0.7316    0.9129 H   0  0  0  0  0  0  0  0  0  0  0  0 
    8.1812   -2.9355    3.3766 H   0  0  0  0  0  0  0  0  0  0  0  0 
    9.2049   -3.9282    2.3288 H   0  0  0  0  0  0  0  0  0  0  0  0 
    2.0228    1.4135    1.9957 H   0  0  0  0  0  0  0  0  0  0  0  0 
    7.6557   -5.6299    2.7440 H   0  0  0  0  0  0  0  0  0  0  0  0 
  1 10  1  0  0  0  0 
  1 12  1  0  0  0  0 
  1 13  1  0  0  0  0 
  2 16  1  0  0  0  0 
  2 15  1  0  0  0  0 
  2 17  1  0  0  0  0 
  3  4  1  0  0  0  0 
  3  5  1  0  0  0  0 
  4 20  1  0  0  0  0 
  4  6  1  0  0  0  0 
  5 22  1  0  0  0  0 
  5 23  1  0  0  0  0 
  6  8  1  0  0  0  0 
  6 25  1  0  0  0  0 
  7  5  1  0  0  0  0 
  7  9  1  0  0  0  0 
  8 28  1  0  0  0  0 
  8 10  1  0  0  0  0 
  9 11  1  0  0  0  0 
  9 30  1  0  0  0  0 
 10  2  1  0  0  0  0 
 14  1  1  0  0  0  0 
 18  3  1  0  0  0  0 
 19  3  1  0  0  0  0 
 21  4  1  0  0  0  0 
 24  6  1  0  0  0  0 
 26  7  1  0  0  0  0 
 27  7  1  0  0  0  0 
 29  8  1  0  0  0  0 
 31  9  1  0  0  0  0 
 32 10  1  0  0  0  0 
 33 11  1  0  0  0  0 
M  END 
>  <HBA> 
1 
 
>  <HBD> 
1 
 
>  <TPSA> 
20.23 
 
>  <cid> 
32898 
 
>  <dipole> 
1.62 
 
>  <excitation_energy_1> 
6.49 
 
>  <excitation_energy_2> 
7.14 
 
>  <excitation_energy_3> 
7.232 
 
>  <excitation_energy_4> 
7.306 
 
>  <homo_energy> 
-7.102 
 
>  <homo_lumo_gap> 
9.11 
 
>  <logP> 
2.975 
 
>  <lumo_energy> 
2.008 
 
>  <melting_point> 
-10.6 
 
>  <molecular_refractivity> 
51.35 
 
>  <oscillator_strength_1> 
0.0055 
 
>  <oscillator_strength_2> 
0.0172 
 
>  <oscillator_strength_3> 
0.0023 
 
>  <oscillator_strength_4> 
0.0064 
 
>  <open_babel_can_smiles> 
OCCCCCCCC(C)C 
 
>  <mulliken_charges> 
33 
1   -0.441567 
2   -0.444614 
3   -0.254418 
4   -0.254533 
5   -0.246707 
6   -0.261683 
7   -0.280975 
8   -0.245454 
9   -0.032234 
10   -0.065442 
11   -0.610679 
12   0.138114 
13   0.137925 
14   0.138257 
15   0.138633 
16   0.144421 
17   0.137756 
18   0.124206 
19   0.123787 
20   0.127686 
21   0.125734 
22   0.143523 
23   0.132458 
24   0.123735 
25   0.139584 
26   0.130023 
27   0.119318 
28   0.123373 
29   0.123221 
30   0.144436 
31   0.1191 
32   0.118151 
33   0.384867 
 
>  <lowdin_charges> 
33 
1   -0.444696 
2   -0.446159 
3   -0.276401 
4   -0.275357 
5   -0.280083 
6   -0.279745 
7   -0.294996 
8   -0.275641 
9   -0.134395 
10   -0.120978 
11   -0.46975 
12   0.146597 
13   0.146241 
14   0.145644 
15   0.147549 
16   0.146435 
17   0.146104 
18   0.136835 
19   0.1389 
20   0.139073 
21   0.139215 
22   0.147197 
23   0.140528 
24   0.136958 
25   0.141375 
26   0.145317 
27   0.13362 
28   0.137625 
29   0.137397 
30   0.146061 
31   0.124886 
32   0.134631 
33   0.340014 
 
$$$$ 
 
