PCCDB-ID:  29462 
public computational chemistry database (PCCDB) project, http://pccdb.org 
 
 34 36  0  0  1  0  0  0  0  0999 V2000 
    3.9503   -1.3443    0.6424 C   0  0  0  0  0  0  0  0  0  0  0  0 
    3.7024   -0.2030   -0.3443 C   0  0  0  0  0  0  0  0  0  0  0  0 
   -1.2909   -0.1851    0.5301 C   0  0  0  0  0  0  0  0  0  0  0  0 
   -2.1275   -0.3753   -0.5891 C   0  0  0  0  0  0  0  0  0  0  0  0 
    5.0343    2.6570   -0.2892 C   0  0  0  0  0  0  0  0  0  0  0  0 
   -0.0566    0.4416    0.4076 C   0  0  0  0  0  0  0  0  0  0  0  0 
   -1.7466    0.0546   -1.8551 C   0  0  0  0  0  0  0  0  0  0  0  0 
    3.8415    2.7643   -1.2738 C   0  0  0  0  0  0  0  0  0  0  0  0 
    4.4873    1.7722    0.8733 C   0  0  0  0  0  0  0  0  0  0  0  0 
    1.3503    1.7434   -2.6951 C   0  0  0  0  0  0  0  0  0  0  0  0 
    0.3526    0.8946   -0.8589 C   0  0  0  0  0  0  0  0  0  0  0  0 
    1.5338    1.5727   -1.3449 C   0  0  0  0  0  0  0  0  0  0  0  0 
   -0.5050    0.6882   -1.9731 C   0  0  0  0  0  0  0  0  0  0  0  0 
    2.6803    2.0660   -0.5145 C   0  0  1  0  0  0  0  0  0  0  0  0 
    0.1310    1.2159   -3.0791 N   0  0  0  0  0  0  0  0  0  0  0  0 
    3.3236    1.0399    0.3490 N   0  0  0  0  0  0  0  0  0  0  0  0 
    4.1977   -2.2674    0.1047 H   0  0  0  0  0  0  0  0  0  0  0  0 
    3.0554   -1.5212    1.2476 H   0  0  0  0  0  0  0  0  0  0  0  0 
    4.7804   -1.1290    1.3258 H   0  0  0  0  0  0  0  0  0  0  0  0 
    2.8736   -0.4783   -1.0018 H   0  0  0  0  0  0  0  0  0  0  0  0 
    4.5887   -0.0742   -0.9940 H   0  0  0  0  0  0  0  0  0  0  0  0 
   -1.6192   -0.5396    1.5035 H   0  0  0  0  0  0  0  0  0  0  0  0 
   -3.0867   -0.8702   -0.4620 H   0  0  0  0  0  0  0  0  0  0  0  0 
    5.3626    3.6355    0.0766 H   0  0  0  0  0  0  0  0  0  0  0  0 
    5.9002    2.1895   -0.7688 H   0  0  0  0  0  0  0  0  0  0  0  0 
    0.5981    0.5705    1.2642 H   0  0  0  0  0  0  0  0  0  0  0  0 
   -2.3901   -0.0956   -2.7184 H   0  0  0  0  0  0  0  0  0  0  0  0 
    4.0589    2.2339   -2.2079 H   0  0  0  0  0  0  0  0  0  0  0  0 
    3.5941    3.7987   -1.5346 H   0  0  0  0  0  0  0  0  0  0  0  0 
    4.1517    2.4098    1.7015 H   0  0  0  0  0  0  0  0  0  0  0  0 
    5.2329    1.0821    1.2762 H   0  0  0  0  0  0  0  0  0  0  0  0 
    1.9892    2.2191   -3.4257 H   0  0  0  0  0  0  0  0  0  0  0  0 
    2.2782    2.8044    0.1980 H   0  0  0  0  0  0  0  0  0  0  0  0 
   -0.2378    1.2270   -4.0167 H   0  0  0  0  0  0  0  0  0  0  0  0 
  1 18  1  0  0  0  0 
  1 19  1  0  0  0  0 
  2 16  1  0  0  0  0 
  2  1  1  0  0  0  0 
  3 22  1  0  0  0  0 
  4 23  1  0  0  0  0 
  4  3  2  0  0  0  0 
  5 24  1  0  0  0  0 
  5  9  1  0  0  0  0 
  6  3  1  0  0  0  0 
  6 26  1  0  0  0  0 
  7  4  1  0  0  0  0 
  8 14  1  0  0  0  0 
  8  5  1  0  0  0  0 
  9 31  1  0  0  0  0 
  9 30  1  0  0  0  0 
 10 12  2  0  0  0  0 
 11  6  2  0  0  0  0 
 12 11  1  0  0  0  0 
 12 14  1  0  0  0  0 
 13  7  2  0  0  0  0 
 13 11  1  0  0  0  0 
 14 33  1  1  0  0  0 
 14 16  1  0  0  0  0 
 15 10  1  0  0  0  0 
 15 13  1  0  0  0  0 
 16  9  1  0  0  0  0 
 17  1  1  0  0  0  0 
 20  2  1  0  0  0  0 
 21  2  1  0  0  0  0 
 25  5  1  0  0  0  0 
 27  7  1  0  0  0  0 
 28  8  1  0  0  0  0 
 29  8  1  0  0  0  0 
 32 10  1  0  0  0  0 
 34 15  1  0  0  0  0 
M  END 
>  <HBA> 
1 
 
>  <HBD> 
1 
 
>  <TPSA> 
19.03 
 
>  <cid> 
29462 
 
>  <dipole> 
2.73 
 
>  <excitation_energy_1> 
4.624 
 
>  <excitation_energy_2> 
4.632 
 
>  <excitation_energy_3> 
4.689 
 
>  <excitation_energy_4> 
4.85 
 
>  <homo_energy> 
-5.331 
 
>  <homo_lumo_gap> 
5.29 
 
>  <logP> 
3.263 
 
>  <lumo_energy> 
-0.041 
 
>  <melting_point> 
121.66 
 
>  <molecular_refractivity> 
72.0 
 
>  <oscillator_strength_1> 
0.0415 
 
>  <oscillator_strength_2> 
0.0259 
 
>  <oscillator_strength_3> 
0.0007 
 
>  <oscillator_strength_4> 
0.0283 
 
>  <open_babel_can_smiles> 
CCN1CCC[C@H]1c1c[nH]c2c1cccc2 
 
>  <mulliken_charges> 
34 
1   -0.439153 
2   -0.124409 
3   -0.142619 
4   -0.149478 
5   -0.292934 
6   -0.205013 
7   -0.165451 
8   -0.286295 
9   -0.140444 
10   -0.003763 
11   0.079828 
12   0.043373 
13   0.314547 
14   -0.035043 
15   -0.699387 
16   -0.391187 
17   0.135225 
18   0.156304 
19   0.138876 
20   0.156504 
21   0.10696 
22   0.118924 
23   0.120495 
24   0.136572 
25   0.140431 
26   0.144088 
27   0.117999 
28   0.1352 
29   0.137578 
30   0.14033 
31   0.14031 
32   0.14837 
33   0.138251 
34   0.325011 
 
>  <lowdin_charges> 
34 
1   -0.448566 
2   -0.204943 
3   -0.177695 
4   -0.16276 
5   -0.302936 
6   -0.160443 
7   -0.191654 
8   -0.297564 
9   -0.21416 
10   -0.139573 
11   -0.032453 
12   -0.06757 
13   0.030805 
14   -0.060293 
15   -0.2006 
16   -0.193936 
17   0.147842 
18   0.155301 
19   0.144185 
20   0.156875 
21   0.116453 
22   0.153561 
23   0.154003 
24   0.146778 
25   0.14628 
26   0.166478 
27   0.15442 
28   0.142066 
29   0.146617 
30   0.142378 
31   0.148713 
32   0.166184 
33   0.146733 
34   0.289475 
 
$$$$ 
 
