PCCDB-ID:  20330 
public computational chemistry database (PCCDB) project, http://pccdb.org 
 
 24 24  0  0  1  0  0  0  0  0999 V2000 
    0.8529    0.1421    0.0694 C   0  0  0  0  0  0  0  0  0  0  0  0 
    2.9950    1.2645   -0.7097 C   0  0  0  0  0  0  0  0  0  0  0  0 
    2.8977   -1.2488   -0.5276 C   0  0  0  0  0  0  0  0  0  0  0  0 
    4.5292    1.2105   -0.7482 C   0  0  0  0  0  0  0  0  0  0  0  0 
    4.4307   -1.3190   -0.5658 C   0  0  0  0  0  0  0  0  0  0  0  0 
    2.3842    0.0787    0.0581 C   0  0  2  0  0  0  0  0  0  0  0  0 
    5.0338   -0.1332   -1.3320 C   0  0  2  0  0  0  0  0  0  0  0  0 
    6.5608   -0.1831   -1.3205 C   0  0  0  0  0  0  0  0  0  0  0  0 
    7.2237   -0.8956   -0.6090 O   0  0  0  0  0  0  0  0  0  0  0  0 
    7.1823    0.6798   -2.1767 O   0  0  0  0  0  0  0  0  0  0  0  0 
    0.4948    1.0779    0.5152 H   0  0  0  0  0  0  0  0  0  0  0  0 
    0.4257   -0.6881    0.6441 H   0  0  0  0  0  0  0  0  0  0  0  0 
    0.4493    0.0830   -0.9498 H   0  0  0  0  0  0  0  0  0  0  0  0 
    2.6049    1.2619   -1.7394 H   0  0  0  0  0  0  0  0  0  0  0  0 
    2.6726    2.2118   -0.2582 H   0  0  0  0  0  0  0  0  0  0  0  0 
    2.5060   -2.0907    0.0580 H   0  0  0  0  0  0  0  0  0  0  0  0 
    2.4957   -1.3683   -1.5459 H   0  0  0  0  0  0  0  0  0  0  0  0 
    4.9297    1.3214    0.2688 H   0  0  0  0  0  0  0  0  0  0  0  0 
    4.9184    2.0587   -1.3275 H   0  0  0  0  0  0  0  0  0  0  0  0 
    4.7628   -2.2596   -1.0195 H   0  0  0  0  0  0  0  0  0  0  0  0 
    4.8357   -1.3138    0.4535 H   0  0  0  0  0  0  0  0  0  0  0  0 
    2.7368    0.1410    1.1001 H   0  0  0  0  0  0  0  0  0  0  0  0 
    4.7077   -0.1866   -2.3842 H   0  0  0  0  0  0  0  0  0  0  0  0 
    6.5196    1.1747   -2.6861 H   0  0  0  0  0  0  0  0  0  0  0  0 
  1 11  1  0  0  0  0 
  1 12  1  0  0  0  0 
  2 15  1  0  0  0  0 
  2  6  1  0  0  0  0 
  3 16  1  0  0  0  0 
  3  6  1  0  0  0  0 
  4  2  1  0  0  0  0 
  4 18  1  0  0  0  0 
  5  3  1  0  0  0  0 
  5 21  1  0  0  0  0 
  6  1  1  0  0  0  0 
  6 22  1  1  0  0  0 
  7 23  1  6  0  0  0 
  7  8  1  0  0  0  0 
  7  4  1  0  0  0  0 
  7  5  1  0  0  0  0 
  8  9  2  0  0  0  0 
 10  8  1  0  0  0  0 
 13  1  1  0  0  0  0 
 14  2  1  0  0  0  0 
 17  3  1  0  0  0  0 
 19  4  1  0  0  0  0 
 20  5  1  0  0  0  0 
 24 10  1  0  0  0  0 
M  END 
>  <HBA> 
2 
 
>  <HBD> 
1 
 
>  <TPSA> 
37.3 
 
>  <cid> 
20330 
 
>  <dipole> 
4.3 
 
>  <excitation_energy_1> 
5.631 
 
>  <excitation_energy_2> 
6.336 
 
>  <excitation_energy_3> 
7.098 
 
>  <excitation_energy_4> 
7.251 
 
>  <homo_energy> 
-7.2 
 
>  <homo_lumo_gap> 
7.543 
 
>  <logP> 
1.897 
 
>  <lumo_energy> 
0.343 
 
>  <melting_point> 
71.85 
 
>  <molecular_refractivity> 
40.23 
 
>  <oscillator_strength_1> 
0.0012 
 
>  <oscillator_strength_2> 
0.0097 
 
>  <oscillator_strength_3> 
0.0129 
 
>  <oscillator_strength_4> 
0.0024 
 
>  <open_babel_can_smiles> 
C[C@@H]1CC[C@H](CC1)C(=O)O 
 
>  <mulliken_charges> 
24 
1   -0.446162 
2   -0.255809 
3   -0.265909 
4   -0.273579 
5   -0.257659 
6   -0.071563 
7   -0.219724 
8   0.612377 
9   -0.4436 
10   -0.575833 
11   0.141864 
12   0.14429 
13   0.13944 
14   0.125602 
15   0.137205 
16   0.136604 
17   0.123803 
18   0.155388 
19   0.123561 
20   0.147891 
21   0.156255 
22   0.123698 
23   0.133951 
24   0.407912 
 
>  <lowdin_charges> 
24 
1   -0.443815 
2   -0.276061 
3   -0.278945 
4   -0.276856 
5   -0.27246 
6   -0.12452 
7   -0.170025 
8   0.196336 
9   -0.238777 
10   -0.362327 
11   0.149334 
12   0.151539 
13   0.145265 
14   0.13617 
15   0.147282 
16   0.148194 
17   0.135285 
18   0.151008 
19   0.139333 
20   0.154609 
21   0.154006 
22   0.135164 
23   0.143162 
24   0.357098 
 
$$$$ 
 
