PCCDB-ID:  25055 
public computational chemistry database (PCCDB) project, http://pccdb.org 
 
 22 21  0  0  1  0  0  0  0  0999 V2000 
    1.4032   -0.6098    0.1709 C   0  0  0  0  0  0  0  0  0  0  0  0 
    4.7305    2.2497    3.5904 C   0  0  0  0  0  0  0  0  0  0  0  0 
    2.8889   -0.3862    0.4702 C   0  0  0  0  0  0  0  0  0  0  0  0 
    3.1421    0.9104    1.2296 C   0  0  0  0  0  0  0  0  0  0  0  0 
    6.4364    2.3888    1.7078 C   0  0  0  0  0  0  0  0  0  0  0  0 
    4.9592    2.2549    2.0797 C   0  0  1  0  0  0  0  0  0  0  0  0 
    6.6191    2.3510    0.3055 O   0  0  0  0  0  0  0  0  0  0  0  0 
    4.5384    1.0303    1.4650 O   0  0  0  0  0  0  0  0  0  0  0  0 
    1.2510   -1.5449   -0.3780 H   0  0  0  0  0  0  0  0  0  0  0  0 
    0.9902    0.2035   -0.4382 H   0  0  0  0  0  0  0  0  0  0  0  0 
    0.8130   -0.6668    1.0936 H   0  0  0  0  0  0  0  0  0  0  0  0 
    5.0660    3.1954    4.0322 H   0  0  0  0  0  0  0  0  0  0  0  0 
    5.2864    1.4303    4.0595 H   0  0  0  0  0  0  0  0  0  0  0  0 
    3.6708    2.1277    3.8367 H   0  0  0  0  0  0  0  0  0  0  0  0 
    3.4640   -0.3624   -0.4642 H   0  0  0  0  0  0  0  0  0  0  0  0 
    3.2868   -1.2199    1.0619 H   0  0  0  0  0  0  0  0  0  0  0  0 
    2.5863    0.9046    2.1806 H   0  0  0  0  0  0  0  0  0  0  0  0 
    2.7828    1.7758    0.6470 H   0  0  0  0  0  0  0  0  0  0  0  0 
    7.0033    1.5867    2.2108 H   0  0  0  0  0  0  0  0  0  0  0  0 
    6.8266    3.3491    2.0613 H   0  0  0  0  0  0  0  0  0  0  0  0 
    4.4092    3.0895    1.6153 H   0  0  0  0  0  0  0  0  0  0  0  0 
    6.0941    1.5859    0.0131 H   0  0  0  0  0  0  0  0  0  0  0  0 
  1  3  1  0  0  0  0 
  1 11  1  0  0  0  0 
  2 14  1  0  0  0  0 
  2 12  1  0  0  0  0 
  2 13  1  0  0  0  0 
  3 16  1  0  0  0  0 
  3  4  1  0  0  0  0 
  4  8  1  0  0  0  0 
  4 17  1  0  0  0  0 
  5 20  1  0  0  0  0 
  5  6  1  0  0  0  0 
  5 19  1  0  0  0  0 
  6 21  1  6  0  0  0 
  6  2  1  0  0  0  0 
  7  5  1  0  0  0  0 
  8  6  1  0  0  0  0 
  9  1  1  0  0  0  0 
 10  1  1  0  0  0  0 
 15  3  1  0  0  0  0 
 18  4  1  0  0  0  0 
 22  7  1  0  0  0  0 
M  END 
>  <HBA> 
2 
 
>  <HBD> 
1 
 
>  <TPSA> 
29.46 
 
>  <cid> 
25055 
 
>  <dipole> 
2.48 
 
>  <excitation_energy_1> 
6.701 
 
>  <excitation_energy_2> 
6.785 
 
>  <excitation_energy_3> 
6.926 
 
>  <excitation_energy_4> 
7.015 
 
>  <homo_energy> 
-6.909 
 
>  <homo_lumo_gap> 
9.173 
 
>  <logP> 
0.794 
 
>  <lumo_energy> 
2.264 
 
>  <melting_point> 
-16.89 
 
>  <molecular_refractivity> 
33.2 
 
>  <oscillator_strength_1> 
0.0028 
 
>  <oscillator_strength_2> 
0.0066 
 
>  <oscillator_strength_3> 
0.0016 
 
>  <oscillator_strength_4> 
0.0084 
 
>  <open_babel_can_smiles> 
CCCO[C@H](CO)C 
 
>  <mulliken_charges> 
22 
1   -0.452487 
2   -0.464681 
3   -0.267115 
4   -0.00226 
5   -0.021348 
6   0.129607 
7   -0.628231 
8   -0.507818 
9   0.152202 
10   0.146343 
11   0.145698 
12   0.147449 
13   0.155893 
14   0.151453 
15   0.142652 
16   0.14904 
17   0.122017 
18   0.12193 
19   0.121796 
20   0.139411 
21   0.121644 
22   0.396804 
 
>  <lowdin_charges> 
22 
1   -0.44614 
2   -0.458794 
3   -0.279072 
4   -0.129396 
5   -0.142594 
6   -0.014338 
7   -0.470529 
8   -0.283144 
9   0.155592 
10   0.149642 
11   0.148523 
12   0.156342 
13   0.157173 
14   0.153478 
15   0.14634 
16   0.150782 
17   0.127277 
18   0.127981 
19   0.130058 
20   0.147752 
21   0.131691 
22   0.341375 
 
$$$$ 
 
