PCCDB-ID:  41244 
public computational chemistry database (PCCDB) project, http://pccdb.org 
 
 37 38  0  0  0  0  0  0  0  0999 V2000 
    2.2390   -1.4558   -1.2060 C   0  0  0  0  0  0  0  0  0  0  0  0 
    3.0189    0.5622   -0.1690 C   0  0  0  0  0  0  0  0  0  0  0  0 
    6.3605   -6.1282    2.5117 C   0  0  0  0  0  0  0  0  0  0  0  0 
    7.0578   -5.1425    1.8130 C   0  0  0  0  0  0  0  0  0  0  0  0 
    3.9563   -3.2628    5.4371 C   0  0  0  0  0  0  0  0  0  0  0  0 
    5.2494   -5.7720    3.2753 C   0  0  0  0  0  0  0  0  0  0  0  0 
    3.5938   -4.0679    4.1694 C   0  0  0  0  0  0  0  0  0  0  0  0 
    6.6448   -3.8139    1.8876 C   0  0  0  0  0  0  0  0  0  0  0  0 
    5.0436   -2.1995    5.1653 C   0  0  0  0  0  0  0  0  0  0  0  0 
    3.4872   -1.5842    0.8643 C   0  0  0  0  0  0  0  0  0  0  0  0 
    4.8946   -1.3514    1.4357 C   0  0  0  0  0  0  0  0  0  0  0  0 
    4.8048   -4.4476    3.3493 C   0  0  0  0  0  0  0  0  0  0  0  0 
    5.5234   -3.4552    2.6476 C   0  0  0  0  0  0  0  0  0  0  0  0 
    4.8007   -1.4269    3.8751 C   0  0  0  0  0  0  0  0  0  0  0  0 
    3.2846   -0.8560   -0.3875 N   0  0  0  0  0  0  0  0  0  0  0  0 
    5.1066   -2.0869    2.6920 N   0  0  0  0  0  0  0  0  0  0  0  0 
    4.3651   -0.2809    3.8732 O   0  0  0  0  0  0  0  0  0  0  0  0 
    2.1670   -0.9188   -2.1585 H   0  0  0  0  0  0  0  0  0  0  0  0 
    1.2387   -1.4331   -0.7294 H   0  0  0  0  0  0  0  0  0  0  0  0 
    2.4886   -2.4998   -1.4241 H   0  0  0  0  0  0  0  0  0  0  0  0 
    2.9733    1.0785   -1.1342 H   0  0  0  0  0  0  0  0  0  0  0  0 
    3.8213    1.0184    0.4170 H   0  0  0  0  0  0  0  0  0  0  0  0 
    2.0656    0.7435    0.3651 H   0  0  0  0  0  0  0  0  0  0  0  0 
    6.6781   -7.1659    2.4629 H   0  0  0  0  0  0  0  0  0  0  0  0 
    7.9303   -5.4019    1.2197 H   0  0  0  0  0  0  0  0  0  0  0  0 
    4.3194   -3.9387    6.2211 H   0  0  0  0  0  0  0  0  0  0  0  0 
    3.0514   -2.7800    5.8241 H   0  0  0  0  0  0  0  0  0  0  0  0 
    4.6994   -6.5378    3.8177 H   0  0  0  0  0  0  0  0  0  0  0  0 
    2.9233   -3.4577    3.5499 H   0  0  0  0  0  0  0  0  0  0  0  0 
    3.0339   -4.9677    4.4468 H   0  0  0  0  0  0  0  0  0  0  0  0 
    7.2036   -3.0436    1.3651 H   0  0  0  0  0  0  0  0  0  0  0  0 
    6.0249   -2.6854    5.1228 H   0  0  0  0  0  0  0  0  0  0  0  0 
    5.0642   -1.4626    5.9715 H   0  0  0  0  0  0  0  0  0  0  0  0 
    2.7356   -1.3188    1.6315 H   0  0  0  0  0  0  0  0  0  0  0  0 
    3.3758   -2.6552    0.6571 H   0  0  0  0  0  0  0  0  0  0  0  0 
    5.0556   -0.2959    1.6553 H   0  0  0  0  0  0  0  0  0  0  0  0 
    5.6345   -1.6697    0.6988 H   0  0  0  0  0  0  0  0  0  0  0  0 
  1 19  1  0  0  0  0 
  1 15  1  0  0  0  0 
  2 23  1  0  0  0  0 
  2 22  1  0  0  0  0 
  3  6  2  0  0  0  0 
  4  8  2  0  0  0  0 
  4  3  1  0  0  0  0 
  5 27  1  0  0  0  0 
  5 26  1  0  0  0  0 
  6 12  1  0  0  0  0 
  6 28  1  0  0  0  0 
  7 30  1  0  0  0  0 
  7  5  1  0  0  0  0 
  8 13  1  0  0  0  0 
  9  5  1  0  0  0  0 
  9 33  1  0  0  0  0 
 10 11  1  0  0  0  0 
 10 34  1  0  0  0  0 
 11 36  1  0  0  0  0 
 11 16  1  0  0  0  0 
 12  7  1  0  0  0  0 
 13 16  1  0  0  0  0 
 13 12  2  0  0  0  0 
 14  9  1  0  0  0  0 
 15  2  1  0  0  0  0 
 15 10  1  0  0  0  0 
 16 14  1  0  0  0  0 
 17 14  2  0  0  0  0 
 18  1  1  0  0  0  0 
 20  1  1  0  0  0  0 
 21  2  1  0  0  0  0 
 24  3  1  0  0  0  0 
 25  4  1  0  0  0  0 
 29  7  1  0  0  0  0 
 31  8  1  0  0  0  0 
 32  9  1  0  0  0  0 
 35 10  1  0  0  0  0 
 37 11  1  0  0  0  0 
M  END 
>  <HBA> 
3 
 
>  <HBD> 
0 
 
>  <TPSA> 
23.55 
 
>  <cid> 
41244 
 
>  <dipole> 
2.96 
 
>  <excitation_energy_1> 
4.628 
 
>  <excitation_energy_2> 
4.762 
 
>  <excitation_energy_3> 
4.933 
 
>  <excitation_energy_4> 
5.038 
 
>  <homo_energy> 
-5.668 
 
>  <homo_lumo_gap> 
5.309 
 
>  <logP> 
1.982 
 
>  <lumo_energy> 
-0.359 
 
>  <melting_point> 
60.78 
 
>  <molecular_refractivity> 
73.57 
 
>  <oscillator_strength_1> 
0.0193 
 
>  <oscillator_strength_2> 
0.0076 
 
>  <oscillator_strength_3> 
0.025 
 
>  <oscillator_strength_4> 
0.1222 
 
>  <open_babel_can_smiles> 
CN(CCN1C(=O)CCCc2c1cccc2)C 
 
>  <mulliken_charges> 
37 
1   -0.294574 
2   -0.303491 
3   -0.119297 
4   -0.144424 
5   -0.250373 
6   -0.209394 
7   -0.370045 
8   -0.155158 
9   -0.358768 
10   -0.119681 
11   -0.156256 
12   0.169543 
13   0.225916 
14   0.566289 
15   -0.373012 
16   -0.522092 
17   -0.515149 
18   0.147432 
19   0.118366 
20   0.14854 
21   0.146689 
22   0.160957 
23   0.123562 
24   0.131351 
25   0.134021 
26   0.14407 
27   0.153044 
28   0.128023 
29   0.163521 
30   0.146053 
31   0.142557 
32   0.163219 
33   0.170443 
34   0.133228 
35   0.138034 
36   0.182007 
37   0.15485 
 
>  <lowdin_charges> 
37 
1   -0.352993 
2   -0.358033 
3   -0.159085 
4   -0.154985 
5   -0.268904 
6   -0.164249 
7   -0.283299 
8   -0.171238 
9   -0.304877 
10   -0.207927 
11   -0.201671 
12   -0.016174 
13   0.034065 
14   0.157251 
15   -0.185412 
16   -0.089528 
17   -0.306249 
18   0.148877 
19   0.119704 
20   0.147637 
21   0.149005 
22   0.156158 
23   0.123604 
24   0.158384 
25   0.160615 
26   0.149367 
27   0.153025 
28   0.158407 
29   0.158947 
30   0.154437 
31   0.165447 
32   0.161862 
33   0.171302 
34   0.130207 
35   0.143779 
36   0.167163 
37   0.155381 
 
$$$$ 
 
