PCCDB-ID:  70214 
public computational chemistry database (PCCDB) project, http://pccdb.org 
 
 38 37  0  0  0  0  0  0  0  0999 V2000 
    4.8772   -0.9105   -3.2394 C   0  0  0  0  0  0  0  0  0  0  0  0 
    5.0614   -3.4157   -2.8676 C   0  0  0  0  0  0  0  0  0  0  0  0 
    0.2945   -7.3790    6.3836 C   0  0  0  0  0  0  0  0  0  0  0  0 
   -0.4459   -5.0487    5.6977 C   0  0  0  0  0  0  0  0  0  0  0  0 
    4.2084   -3.8366    1.8332 C   0  0  0  0  0  0  0  0  0  0  0  0 
    3.2670   -3.5687    3.0045 C   0  0  0  0  0  0  0  0  0  0  0  0 
    5.4924   -1.7775   -0.9768 C   0  0  0  0  0  0  0  0  0  0  0  0 
    2.0152   -5.6591    5.8081 C   0  0  0  0  0  0  0  0  0  0  0  0 
    4.6843   -2.0650   -2.2451 C   0  0  0  0  0  0  0  0  0  0  0  0 
    0.5988   -6.1558    5.5061 C   0  0  0  0  0  0  0  0  0  0  0  0 
    4.2749   -2.6684    0.8700 C   0  0  0  0  0  0  0  0  0  0  0  0 
    2.9453   -4.8331    3.7766 C   0  0  0  0  0  0  0  0  0  0  0  0 
    3.4928   -1.7409    0.8366 O   0  0  0  0  0  0  0  0  0  0  0  0 
    3.1366   -5.9627    3.3765 O   0  0  0  0  0  0  0  0  0  0  0  0 
    5.3261   -2.8036    0.0308 O   0  0  0  0  0  0  0  0  0  0  0  0 
    2.3975   -4.5370    4.9761 O   0  0  0  0  0  0  0  0  0  0  0  0 
    4.2833   -1.0751   -4.1451 H   0  0  0  0  0  0  0  0  0  0  0  0 
    5.9281   -0.8224   -3.5454 H   0  0  0  0  0  0  0  0  0  0  0  0 
    4.5700    0.0493   -2.8077 H   0  0  0  0  0  0  0  0  0  0  0  0 
    4.4384   -3.6282   -3.7439 H   0  0  0  0  0  0  0  0  0  0  0  0 
    4.9334   -4.2345   -2.1528 H   0  0  0  0  0  0  0  0  0  0  0  0 
    6.1096   -3.4173   -3.1953 H   0  0  0  0  0  0  0  0  0  0  0  0 
   -0.7033   -7.7750    6.1647 H   0  0  0  0  0  0  0  0  0  0  0  0 
    0.3192   -7.1183    7.4499 H   0  0  0  0  0  0  0  0  0  0  0  0 
    1.0185   -8.1851    6.2166 H   0  0  0  0  0  0  0  0  0  0  0  0 
   -1.4463   -5.4055    5.4268 H   0  0  0  0  0  0  0  0  0  0  0  0 
   -0.2183   -4.1741    5.0803 H   0  0  0  0  0  0  0  0  0  0  0  0 
   -0.4813   -4.7204    6.7449 H   0  0  0  0  0  0  0  0  0  0  0  0 
    3.8691   -4.7201    1.2789 H   0  0  0  0  0  0  0  0  0  0  0  0 
    5.2213   -4.0771    2.1725 H   0  0  0  0  0  0  0  0  0  0  0  0 
    2.3267   -3.1407    2.6358 H   0  0  0  0  0  0  0  0  0  0  0  0 
    3.6766   -2.8232    3.6939 H   0  0  0  0  0  0  0  0  0  0  0  0 
    5.2072   -0.8149   -0.5444 H   0  0  0  0  0  0  0  0  0  0  0  0 
    6.5660   -1.7781   -1.1902 H   0  0  0  0  0  0  0  0  0  0  0  0 
    2.7453   -6.4604    5.6691 H   0  0  0  0  0  0  0  0  0  0  0  0 
    2.0845   -5.2749    6.8309 H   0  0  0  0  0  0  0  0  0  0  0  0 
    3.6261   -2.0924   -1.9528 H   0  0  0  0  0  0  0  0  0  0  0  0 
    0.5879   -6.4762    4.4559 H   0  0  0  0  0  0  0  0  0  0  0  0 
  1 19  1  0  0  0  0 
  1  9  1  0  0  0  0 
  2  9  1  0  0  0  0 
  2 21  1  0  0  0  0 
  3 24  1  0  0  0  0 
  4 28  1  0  0  0  0 
  5 30  1  0  0  0  0 
  5  6  1  0  0  0  0 
  6 32  1  0  0  0  0 
  6 12  1  0  0  0  0 
  7 33  1  0  0  0  0 
  7 15  1  0  0  0  0 
  8 36  1  0  0  0  0 
  9 37  1  0  0  0  0 
  9  7  1  0  0  0  0 
 10  4  1  0  0  0  0 
 10  8  1  0  0  0  0 
 10  3  1  0  0  0  0 
 11  5  1  0  0  0  0 
 12 16  1  0  0  0  0 
 13 11  2  0  0  0  0 
 14 12  2  0  0  0  0 
 15 11  1  0  0  0  0 
 16  8  1  0  0  0  0 
 17  1  1  0  0  0  0 
 18  1  1  0  0  0  0 
 20  2  1  0  0  0  0 
 22  2  1  0  0  0  0 
 23  3  1  0  0  0  0 
 25  3  1  0  0  0  0 
 26  4  1  0  0  0  0 
 27  4  1  0  0  0  0 
 29  5  1  0  0  0  0 
 31  6  1  0  0  0  0 
 34  7  1  0  0  0  0 
 35  8  1  0  0  0  0 
 38 10  1  0  0  0  0 
M  END 
>  <HBA> 
4 
 
>  <HBD> 
0 
 
>  <TPSA> 
52.6 
 
>  <cid> 
70214 
 
>  <dipole> 
0.4 
 
>  <excitation_energy_1> 
5.827 
 
>  <excitation_energy_2> 
5.866 
 
>  <excitation_energy_3> 
6.936 
 
>  <excitation_energy_4> 
7.012 
 
>  <homo_energy> 
-7.325 
 
>  <homo_lumo_gap> 
7.532 
 
>  <logP> 
2.165 
 
>  <lumo_energy> 
0.207 
 
>  <melting_point> 
-5.66 
 
>  <molecular_refractivity> 
62.37 
 
>  <oscillator_strength_1> 
0.0005 
 
>  <oscillator_strength_2> 
0.0002 
 
>  <oscillator_strength_3> 
0.0728 
 
>  <oscillator_strength_4> 
0.0003 
 
>  <open_babel_can_smiles> 
CC(COC(=O)CCC(=O)OCC(C)C)C 
 
>  <mulliken_charges> 
38 
1   -0.452208 
2   -0.443406 
3   -0.452279 
4   -0.443461 
5   -0.36547 
6   -0.365409 
7   -0.039553 
8   -0.040276 
9   -0.097616 
10   -0.097109 
11   0.630092 
12   0.630335 
13   -0.484025 
14   -0.483731 
15   -0.471074 
16   -0.47087 
17   0.150401 
18   0.140793 
19   0.150262 
20   0.144299 
21   0.155723 
22   0.137938 
23   0.150331 
24   0.140798 
25   0.150434 
26   0.144267 
27   0.155826 
28   0.137892 
29   0.201974 
30   0.179645 
31   0.201373 
32   0.179441 
33   0.166029 
34   0.145133 
35   0.166405 
36   0.145165 
37   0.150996 
38   0.150936 
 
>  <lowdin_charges> 
38 
1   -0.442728 
2   -0.446846 
3   -0.442473 
4   -0.445661 
5   -0.298348 
6   -0.298457 
7   -0.132784 
8   -0.135239 
9   -0.13155 
10   -0.131273 
11   0.19859 
12   0.198163 
13   -0.271893 
14   -0.272023 
15   -0.192233 
16   -0.192184 
17   0.154936 
18   0.145206 
19   0.152403 
20   0.151266 
21   0.155579 
22   0.144299 
23   0.154186 
24   0.144888 
25   0.15323 
26   0.15018 
27   0.155529 
28   0.144314 
29   0.186103 
30   0.172519 
31   0.185318 
32   0.174139 
33   0.158239 
34   0.14791 
35   0.159492 
36   0.148681 
37   0.149212 
38   0.149311 
 
$$$$ 
 
