PCCDB-ID:  43513 
public computational chemistry database (PCCDB) project, http://pccdb.org 
 
 32 35  0  0  0  0  0  0  0  0999 V2000 
   13.1016    0.5627    1.0883 C   0  0  0  0  0  0  0  0  0  0  0  0 
   13.0424   -0.8623    1.0894 C   0  0  0  0  0  0  0  0  0  0  0  0 
    4.2246   -2.4881    0.8012 C   0  0  0  0  0  0  0  0  0  0  0  0 
    5.4115   -3.3319    0.4146 C   0  0  0  0  0  0  0  0  0  0  0  0 
    4.3879   -1.1894    1.0927 C   0  0  0  0  0  0  0  0  0  0  0  0 
   11.9495    1.3043    1.0779 C   0  0  0  0  0  0  0  0  0  0  0  0 
   11.8335   -1.5070    1.0794 C   0  0  0  0  0  0  0  0  0  0  0  0 
    6.7070   -2.8342    1.0780 C   0  0  0  0  0  0  0  0  0  0  0  0 
    5.7985    0.8790    1.0898 C   0  0  0  0  0  0  0  0  0  0  0  0 
    7.0080    1.5113    1.0762 C   0  0  0  0  0  0  0  0  0  0  0  0 
    9.4695    1.3916    1.0623 C   0  0  0  0  0  0  0  0  0  0  0  0 
    9.3580   -1.4058    1.0542 C   0  0  0  0  0  0  0  0  0  0  0  0 
    5.7079   -0.5484    1.0664 C   0  0  0  0  0  0  0  0  0  0  0  0 
   10.6688    0.6701    1.0680 C   0  0  0  0  0  0  0  0  0  0  0  0 
   10.6071   -0.7714    1.0677 C   0  0  0  0  0  0  0  0  0  0  0  0 
    8.2216    0.7588    1.0558 C   0  0  0  0  0  0  0  0  0  0  0  0 
    6.8593   -1.3233    1.0298 C   0  0  0  0  0  0  0  0  0  0  0  0 
    8.1500   -0.6892    1.0421 C   0  0  0  0  0  0  0  0  0  0  0  0 
   14.0695    1.0566    1.0958 H   0  0  0  0  0  0  0  0  0  0  0  0 
   13.9662   -1.4345    1.0982 H   0  0  0  0  0  0  0  0  0  0  0  0 
    3.2326   -2.9337    0.7852 H   0  0  0  0  0  0  0  0  0  0  0  0 
    5.5224   -3.3057   -0.6825 H   0  0  0  0  0  0  0  0  0  0  0  0 
    5.2474   -4.3839    0.6759 H   0  0  0  0  0  0  0  0  0  0  0  0 
    3.5311   -0.5595    1.3242 H   0  0  0  0  0  0  0  0  0  0  0  0 
   11.9906    2.3911    1.0776 H   0  0  0  0  0  0  0  0  0  0  0  0 
   11.7867   -2.5937    1.0799 H   0  0  0  0  0  0  0  0  0  0  0  0 
    7.5564   -3.3328    0.6027 H   0  0  0  0  0  0  0  0  0  0  0  0 
    6.7153   -3.1510    2.1336 H   0  0  0  0  0  0  0  0  0  0  0  0 
    4.8777    1.4572    1.1147 H   0  0  0  0  0  0  0  0  0  0  0  0 
    7.0684    2.5968    1.0912 H   0  0  0  0  0  0  0  0  0  0  0  0 
    9.5063    2.4794    1.0686 H   0  0  0  0  0  0  0  0  0  0  0  0 
    9.3438   -2.4909    1.0576 H   0  0  0  0  0  0  0  0  0  0  0  0 
  1  2  1  0  0  0  0 
  1 19  1  0  0  0  0 
  2 20  1  0  0  0  0 
  3  5  2  0  0  0  0 
  4 23  1  0  0  0  0 
  4  3  1  0  0  0  0 
  4  8  1  0  0  0  0 
  5 24  1  0  0  0  0 
  6  1  2  0  0  0  0 
  7 26  1  0  0  0  0 
  7  2  2  0  0  0  0 
  8 28  1  0  0  0  0 
  9 29  1  0  0  0  0 
 10  9  1  0  0  0  0 
 10 30  1  0  0  0  0 
 11 14  2  0  0  0  0 
 11 31  1  0  0  0  0 
 12 32  1  0  0  0  0 
 12 15  2  0  0  0  0 
 13  9  2  0  0  0  0 
 13  5  1  0  0  0  0 
 14  6  1  0  0  0  0 
 15 14  1  0  0  0  0 
 15  7  1  0  0  0  0 
 16 11  1  0  0  0  0 
 16 10  2  0  0  0  0 
 17 18  2  0  0  0  0 
 17 13  1  0  0  0  0 
 17  8  1  0  0  0  0 
 18 12  1  0  0  0  0 
 18 16  1  0  0  0  0 
 21  3  1  0  0  0  0 
 22  4  1  0  0  0  0 
 25  6  1  0  0  0  0 
 27  8  1  0  0  0  0 
M  END 
>  <HBA> 
0 
 
>  <HBD> 
0 
 
>  <TPSA> 
0.0 
 
>  <cid> 
43513 
 
>  <dipole> 
0.57 
 
>  <excitation_energy_1> 
2.944 
 
>  <excitation_energy_2> 
3.518 
 
>  <excitation_energy_3> 
4.123 
 
>  <excitation_energy_4> 
4.223 
 
>  <homo_energy> 
-5.01 
 
>  <homo_lumo_gap> 
3.328 
 
>  <logP> 
4.952 
 
>  <lumo_energy> 
-1.682 
 
>  <melting_point> 
144.27 
 
>  <molecular_refractivity> 
79.2 
 
>  <oscillator_strength_1> 
0.0482 
 
>  <oscillator_strength_2> 
0.0033 
 
>  <oscillator_strength_3> 
0.2951 
 
>  <oscillator_strength_4> 
0.3182 
 
>  <open_babel_can_smiles> 
C1C=Cc2c(C1)c1cc3ccccc3cc1cc2 
 
>  <mulliken_charges> 
32 
1   -0.140865 
2   -0.139345 
3   -0.130451 
4   -0.302722 
5   -0.153759 
6   -0.184036 
7   -0.187691 
8   -0.346104 
9   -0.193822 
10   -0.192689 
11   -0.307224 
12   -0.313585 
13   0.106865 
14   0.1503 
15   0.155488 
16   0.161831 
17   0.038097 
18   0.096005 
19   0.129295 
20   0.129114 
21   0.129542 
22   0.15471 
23   0.142527 
24   0.124357 
25   0.129051 
26   0.127943 
27   0.148701 
28   0.156927 
29   0.126823 
30   0.128182 
31   0.128023 
32   0.128513 
 
>  <lowdin_charges> 
32 
1   -0.160311 
2   -0.160783 
3   -0.159886 
4   -0.268973 
5   -0.172453 
6   -0.152482 
7   -0.152984 
8   -0.272234 
9   -0.161429 
10   -0.155357 
11   -0.156999 
12   -0.164974 
13   -0.014075 
14   -0.003139 
15   -0.000736 
16   5.3e-05 
17   -0.00744 
18   -0.007916 
19   0.158285 
20   0.158698 
21   0.155787 
22   0.151092 
23   0.151053 
24   0.156356 
25   0.15549 
26   0.154836 
27   0.154636 
28   0.153262 
29   0.157195 
30   0.15561 
31   0.154332 
32   0.155486 
 
$$$$ 
 
