PCCDB-ID:  19470 
public computational chemistry database (PCCDB) project, http://pccdb.org 
 
 18 18  0  0  0  0  0  0  0  0999 V2000 
    2.6865   -1.0139   -0.0503 C   0  0  0  0  0  0  0  0  0  0  0  0 
    0.5787   -0.0738    0.8396 C   0  0  0  0  0  0  0  0  0  0  0  0 
    2.1027    3.8010    0.3524 C   0  0  0  0  0  0  0  0  0  0  0  0 
    0.9533    3.1826   -0.3620 C   0  0  0  0  0  0  0  0  0  0  0  0 
    2.5280    1.3895    0.3019 C   0  0  0  0  0  0  0  0  0  0  0  0 
    1.9380    0.1553    0.3801 N   0  0  0  0  0  0  0  0  0  0  0  0 
    1.6672    2.4580    0.7083 N   0  0  0  0  0  0  0  0  0  0  0  0 
    3.6898    1.5652   -0.0474 O   0  0  0  0  0  0  0  0  0  0  0  0 
    2.7789   -1.7342    0.7734 H   0  0  0  0  0  0  0  0  0  0  0  0 
    3.6789   -0.6947   -0.3652 H   0  0  0  0  0  0  0  0  0  0  0  0 
    2.1790   -1.5133   -0.8871 H   0  0  0  0  0  0  0  0  0  0  0  0 
    0.5686   -0.9087    1.5520 H   0  0  0  0  0  0  0  0  0  0  0  0 
   -0.0903   -0.3324    0.0057 H   0  0  0  0  0  0  0  0  0  0  0  0 
    0.2036    0.8193    1.3366 H   0  0  0  0  0  0  0  0  0  0  0  0 
    1.9249    4.5527    1.1175 H   0  0  0  0  0  0  0  0  0  0  0  0 
    3.0485    3.8763   -0.1776 H   0  0  0  0  0  0  0  0  0  0  0  0 
    1.1226    2.8564   -1.3870 H   0  0  0  0  0  0  0  0  0  0  0  0 
   -0.0711    3.4662   -0.1301 H   0  0  0  0  0  0  0  0  0  0  0  0 
  1  6  1  0  0  0  0 
  1  9  1  0  0  0  0 
  2 14  1  0  0  0  0 
  2 12  1  0  0  0  0 
  3  7  1  0  0  0  0 
  3 15  1  0  0  0  0 
  4 18  1  0  0  0  0 
  4  3  1  0  0  0  0 
  4  7  1  0  0  0  0 
  5  6  1  0  0  0  0 
  5  7  1  0  0  0  0 
  6  2  1  0  0  0  0 
  8  5  2  0  0  0  0 
 10  1  1  0  0  0  0 
 11  1  1  0  0  0  0 
 13  2  1  0  0  0  0 
 16  3  1  0  0  0  0 
 17  4  1  0  0  0  0 
M  END 
>  <HBA> 
3 
 
>  <HBD> 
0 
 
>  <TPSA> 
23.32 
 
>  <cid> 
19470 
 
>  <dipole> 
2.92 
 
>  <excitation_energy_1> 
5.808 
 
>  <excitation_energy_2> 
5.879 
 
>  <excitation_energy_3> 
6.203 
 
>  <excitation_energy_4> 
6.356 
 
>  <homo_energy> 
-6.34 
 
>  <homo_lumo_gap> 
7.374 
 
>  <logP> 
-0.079 
 
>  <lumo_energy> 
1.034 
 
>  <melting_point> 
19.75 
 
>  <molecular_refractivity> 
34.33 
 
>  <oscillator_strength_1> 
0.0148 
 
>  <oscillator_strength_2> 
0.0255 
 
>  <oscillator_strength_3> 
0.0019 
 
>  <oscillator_strength_4> 
0.0686 
 
>  <open_babel_can_smiles> 
CN(C(=O)N1CC1)C 
 
>  <mulliken_charges> 
18 
1   -0.318476 
2   -0.31484 
3   -0.179938 
4   -0.201965 
5   0.698416 
6   -0.410831 
7   -0.431995 
8   -0.519218 
9   0.151586 
10   0.204034 
11   0.148267 
12   0.152897 
13   0.147825 
14   0.198854 
15   0.16018 
16   0.18803 
17   0.166446 
18   0.160727 
 
>  <lowdin_charges> 
18 
1   -0.355064 
2   -0.35607 
3   -0.224874 
4   -0.224466 
5   0.170753 
6   -0.102463 
7   -0.192153 
8   -0.322117 
9   0.149141 
10   0.183822 
11   0.146801 
12   0.150885 
13   0.144603 
14   0.179994 
15   0.162278 
16   0.172467 
17   0.158004 
18   0.15846 
 
$$$$ 
 
