PCCDB-ID:  16946 
public computational chemistry database (PCCDB) project, http://pccdb.org 
 
 33 33  0  0  0  0  0  0  0  0999 V2000 
    2.8692    3.4502   -2.3213 C   0  0  0  0  0  0  0  0  0  0  0  0 
    3.9678    2.4680   -1.9008 C   0  0  0  0  0  0  0  0  0  0  0  0 
    3.4156    1.2640   -1.1304 C   0  0  0  0  0  0  0  0  0  0  0  0 
    8.5365    1.6042   -2.3048 C   0  0  0  0  0  0  0  0  0  0  0  0 
    8.7299   -0.1845   -3.8913 C   0  0  0  0  0  0  0  0  0  0  0  0 
    7.2867    1.1286   -1.9082 C   0  0  0  0  0  0  0  0  0  0  0  0 
    7.4868   -0.6724   -3.4987 C   0  0  0  0  0  0  0  0  0  0  0  0 
    4.4478    0.2078   -0.7135 C   0  0  0  0  0  0  0  0  0  0  0  0 
   10.6451    1.4808   -3.7128 C   0  0  0  0  0  0  0  0  0  0  0  0 
    9.2826    0.9648   -3.3028 C   0  0  0  0  0  0  0  0  0  0  0  0 
    6.7449   -0.0207   -2.4993 C   0  0  0  0  0  0  0  0  0  0  0  0 
   11.7936    0.9059   -2.8968 C   0  0  0  0  0  0  0  0  0  0  0  0 
   12.9542    1.4323   -2.7767 N   0  0  0  0  0  0  0  0  0  0  0  0 
   11.6164   -0.2812   -2.2630 O   0  0  0  0  0  0  0  0  0  0  0  0 
   13.0298    2.6306   -3.5432 O   0  0  0  0  0  0  0  0  0  0  0  0 
    5.1755   -0.7690   -2.0966 S   0  0  0  0  0  0  0  0  0  0  0  0 
    3.2876    4.3038   -2.8660 H   0  0  0  0  0  0  0  0  0  0  0  0 
    2.3293    3.8419   -1.4504 H   0  0  0  0  0  0  0  0  0  0  0  0 
    2.1352    2.9647   -2.9758 H   0  0  0  0  0  0  0  0  0  0  0  0 
    4.7052    2.9939   -1.2779 H   0  0  0  0  0  0  0  0  0  0  0  0 
    4.5056    2.1165   -2.7900 H   0  0  0  0  0  0  0  0  0  0  0  0 
    2.6360    0.7745   -1.7291 H   0  0  0  0  0  0  0  0  0  0  0  0 
    2.9221    1.6173   -0.2124 H   0  0  0  0  0  0  0  0  0  0  0  0 
    8.9350    2.4978   -1.8299 H   0  0  0  0  0  0  0  0  0  0  0  0 
    9.2762   -0.7006   -4.6781 H   0  0  0  0  0  0  0  0  0  0  0  0 
    6.7422    1.6698   -1.1434 H   0  0  0  0  0  0  0  0  0  0  0  0 
    7.0860   -1.5642   -3.9732 H   0  0  0  0  0  0  0  0  0  0  0  0 
    3.9651   -0.5538   -0.0925 H   0  0  0  0  0  0  0  0  0  0  0  0 
    5.2552    0.6335   -0.1096 H   0  0  0  0  0  0  0  0  0  0  0  0 
   10.6978    2.5700   -3.6298 H   0  0  0  0  0  0  0  0  0  0  0  0 
   10.8369    1.2521   -4.7698 H   0  0  0  0  0  0  0  0  0  0  0  0 
   10.6681   -0.4959   -2.2904 H   0  0  0  0  0  0  0  0  0  0  0  0 
   13.9205    2.9389   -3.3194 H   0  0  0  0  0  0  0  0  0  0  0  0 
  1  2  1  0  0  0  0 
  1 18  1  0  0  0  0 
  2 20  1  0  0  0  0 
  2  3  1  0  0  0  0 
  3  8  1  0  0  0  0 
  3 23  1  0  0  0  0 
  4  6  1  0  0  0  0 
  4 24  1  0  0  0  0 
  5  7  2  0  0  0  0 
  5 10  1  0  0  0  0 
  6 26  1  0  0  0  0 
  7 11  1  0  0  0  0 
  8 29  1  0  0  0  0 
  8 28  1  0  0  0  0 
  9 30  1  0  0  0  0 
  9 10  1  0  0  0  0 
  9 12  1  0  0  0  0 
 10  4  2  0  0  0  0 
 11 16  1  0  0  0  0 
 11  6  2  0  0  0  0 
 12 13  2  0  0  0  0 
 12 14  1  0  0  0  0 
 15 33  1  0  0  0  0 
 15 13  1  0  0  0  0 
 16  8  1  0  0  0  0 
 17  1  1  0  0  0  0 
 19  1  1  0  0  0  0 
 21  2  1  0  0  0  0 
 22  3  1  0  0  0  0 
 25  5  1  0  0  0  0 
 27  7  1  0  0  0  0 
 31  9  1  0  0  0  0 
 32 14  1  0  0  0  0 
M  END 
>  <HBA> 
4 
 
>  <HBD> 
2 
 
>  <TPSA> 
74.63 
 
>  <cid> 
16946 
 
>  <dipole> 
3.75 
 
>  <excitation_energy_1> 
4.41 
 
>  <excitation_energy_2> 
4.776 
 
>  <excitation_energy_3> 
4.822 
 
>  <excitation_energy_4> 
4.894 
 
>  <homo_energy> 
-5.853 
 
>  <homo_lumo_gap> 
5.306 
 
>  <logP> 
3.018 
 
>  <lumo_energy> 
-0.547 
 
>  <melting_point> 
120.79 
 
>  <molecular_refractivity> 
66.09 
 
>  <oscillator_strength_1> 
0.0131 
 
>  <oscillator_strength_2> 
0.3348 
 
>  <oscillator_strength_3> 
0.0133 
 
>  <oscillator_strength_4> 
0.0141 
 
>  <open_babel_can_smiles> 
CCCCSc1ccc(cc1)C/C(=N\O)/O 
 
>  <mulliken_charges> 
33 
1   -0.44384 
2   -0.255441 
3   -0.241902 
4   -0.151953 
5   -0.179197 
6   -0.162315 
7   -0.160135 
8   -0.443647 
9   -0.413596 
10   0.075554 
11   -0.05676 
12   0.511433 
13   -0.249949 
14   -0.593296 
15   -0.5299 
16   0.128099 
17   0.147419 
18   0.142261 
19   0.147166 
20   0.129158 
21   0.15904 
22   0.149865 
23   0.13857 
24   0.141333 
25   0.142486 
26   0.137807 
27   0.14992 
28   0.18544 
29   0.1787 
30   0.194924 
31   0.186191 
32   0.419607 
33   0.416959 
 
>  <lowdin_charges> 
33 
1   -0.44621 
2   -0.278933 
3   -0.278734 
4   -0.152534 
5   -0.169747 
6   -0.177874 
7   -0.165609 
8   -0.378976 
9   -0.297581 
10   -0.036152 
11   -0.111559 
12   0.098235 
13   -0.107776 
14   -0.36165 
15   -0.40013 
16   0.155331 
17   0.153336 
18   0.147446 
19   0.15061 
20   0.138317 
21   0.154008 
22   0.151091 
23   0.146243 
24   0.163855 
25   0.164123 
26   0.162867 
27   0.169571 
28   0.174997 
29   0.165059 
30   0.180292 
31   0.175122 
32   0.35866 
33   0.354299 
 
$$$$ 
 
