PCCDB-ID:  25112 
public computational chemistry database (PCCDB) project, http://pccdb.org 
 
 33 32  0  0  0  0  0  0  0  0999 V2000 
    2.9559    0.4405   -2.9732 C   0  0  0  0  0  0  0  0  0  0  0  0 
    8.7932    4.7826    3.4759 C   0  0  0  0  0  0  0  0  0  0  0  0 
    3.6662    1.7993   -3.0247 C   0  0  0  0  0  0  0  0  0  0  0  0 
    8.2188    4.4569    2.0944 C   0  0  0  0  0  0  0  0  0  0  0  0 
    4.3329    2.2309   -1.7075 C   0  0  0  0  0  0  0  0  0  0  0  0 
    3.3445    2.5111   -0.5646 C   0  0  0  0  0  0  0  0  0  0  0  0 
    3.9828    2.9778    0.7569 C   0  0  0  0  0  0  0  0  0  0  0  0 
    7.1651    5.4858    1.6333 C   0  0  0  0  0  0  0  0  0  0  0  0 
    4.4122    4.4569    0.8209 C   0  0  0  0  0  0  0  0  0  0  0  0 
    6.6139    5.1878    0.2482 C   0  0  0  0  0  0  0  0  0  0  0  0 
    5.4752    4.7694   -0.1105 N   0  0  0  0  0  0  0  0  0  0  0  0 
    7.5234    5.3827   -0.7642 O   0  0  0  0  0  0  0  0  0  0  0  0 
    2.1356    0.4334   -2.2464 H   0  0  0  0  0  0  0  0  0  0  0  0 
    3.6541   -0.3577   -2.6902 H   0  0  0  0  0  0  0  0  0  0  0  0 
    2.5302    0.1787   -3.9491 H   0  0  0  0  0  0  0  0  0  0  0  0 
    9.5339    4.0354    3.7811 H   0  0  0  0  0  0  0  0  0  0  0  0 
    8.0050    4.8020    4.2380 H   0  0  0  0  0  0  0  0  0  0  0  0 
    9.2851    5.7630    3.4825 H   0  0  0  0  0  0  0  0  0  0  0  0 
    2.9503    2.5733   -3.3378 H   0  0  0  0  0  0  0  0  0  0  0  0 
    4.4349    1.7656   -3.8088 H   0  0  0  0  0  0  0  0  0  0  0  0 
    7.7590    3.4608    2.1059 H   0  0  0  0  0  0  0  0  0  0  0  0 
    9.0335    4.4033    1.3596 H   0  0  0  0  0  0  0  0  0  0  0  0 
    4.9326    3.1299   -1.8795 H   0  0  0  0  0  0  0  0  0  0  0  0 
    5.0356    1.4461   -1.3863 H   0  0  0  0  0  0  0  0  0  0  0  0 
    2.7643    1.6024   -0.3544 H   0  0  0  0  0  0  0  0  0  0  0  0 
    2.6130    3.2653   -0.8934 H   0  0  0  0  0  0  0  0  0  0  0  0 
    4.8494    2.3447    0.9956 H   0  0  0  0  0  0  0  0  0  0  0  0 
    3.2591    2.8284    1.5705 H   0  0  0  0  0  0  0  0  0  0  0  0 
    7.6144    6.4906    1.6204 H   0  0  0  0  0  0  0  0  0  0  0  0 
    6.3530    5.5264    2.3640 H   0  0  0  0  0  0  0  0  0  0  0  0 
    4.6508    4.6975    1.8705 H   0  0  0  0  0  0  0  0  0  0  0  0 
    3.5450    5.0766    0.5500 H   0  0  0  0  0  0  0  0  0  0  0  0 
    8.3341    5.7627   -0.3929 H   0  0  0  0  0  0  0  0  0  0  0  0 
  1 14  1  0  0  0  0 
  1 13  1  0  0  0  0 
  2 18  1  0  0  0  0 
  2 16  1  0  0  0  0 
  2 17  1  0  0  0  0 
  3  1  1  0  0  0  0 
  3  5  1  0  0  0  0 
  4 21  1  0  0  0  0 
  4  2  1  0  0  0  0 
  5 24  1  0  0  0  0 
  5  6  1  0  0  0  0 
  6 25  1  0  0  0  0 
  6  7  1  0  0  0  0 
  7  9  1  0  0  0  0 
  7 27  1  0  0  0  0 
  7 28  1  0  0  0  0 
  8  4  1  0  0  0  0 
  8 30  1  0  0  0  0 
  9 31  1  0  0  0  0 
 10  8  1  0  0  0  0 
 11 10  2  0  0  0  0 
 11  9  1  0  0  0  0 
 12 33  1  0  0  0  0 
 12 10  1  0  0  0  0 
 15  1  1  0  0  0  0 
 19  3  1  0  0  0  0 
 20  3  1  0  0  0  0 
 22  4  1  0  0  0  0 
 23  5  1  0  0  0  0 
 26  6  1  0  0  0  0 
 29  8  1  0  0  0  0 
 32  9  1  0  0  0  0 
M  END 
>  <HBA> 
2 
 
>  <HBD> 
1 
 
>  <TPSA> 
29.1 
 
>  <cid> 
25112 
 
>  <dipole> 
3.87 
 
>  <excitation_energy_1> 
5.45 
 
>  <excitation_energy_2> 
5.774 
 
>  <excitation_energy_3> 
5.882 
 
>  <excitation_energy_4> 
6.114 
 
>  <homo_energy> 
-6.376 
 
>  <homo_lumo_gap> 
7.094 
 
>  <logP> 
2.874 
 
>  <lumo_energy> 
0.718 
 
>  <melting_point> 
19.35 
 
>  <molecular_refractivity> 
53.19 
 
>  <oscillator_strength_1> 
0.0027 
 
>  <oscillator_strength_2> 
0.0016 
 
>  <oscillator_strength_3> 
0.0154 
 
>  <oscillator_strength_4> 
0.0132 
 
>  <open_babel_can_smiles> 
CCCCCC/N=C(\CCC)/O 
 
>  <mulliken_charges> 
33 
1   -0.442298 
2   -0.442783 
3   -0.249567 
4   -0.253197 
5   -0.255728 
6   -0.250121 
7   -0.253139 
8   -0.365429 
9   -0.149662 
10   0.491425 
11   -0.404736 
12   -0.585508 
13   0.141884 
14   0.136669 
15   0.137025 
16   0.152829 
17   0.149777 
18   0.144434 
19   0.126476 
20   0.128097 
21   0.156435 
22   0.133647 
23   0.17714 
24   0.112008 
25   0.126083 
26   0.124137 
27   0.127774 
28   0.124062 
29   0.145422 
30   0.164633 
31   0.107716 
32   0.142736 
33   0.401756 
 
>  <lowdin_charges> 
33 
1   -0.449384 
2   -0.445498 
3   -0.274957 
4   -0.270292 
5   -0.286684 
6   -0.27598 
7   -0.278524 
8   -0.312284 
9   -0.197849 
10   0.124691 
11   -0.198955 
12   -0.375213 
13   0.145041 
14   0.144388 
15   0.146597 
16   0.156402 
17   0.15131 
18   0.147603 
19   0.137913 
20   0.141156 
21   0.151144 
22   0.140059 
23   0.163505 
24   0.131935 
25   0.138359 
26   0.137913 
27   0.13948 
28   0.142381 
29   0.150073 
30   0.161895 
31   0.117843 
32   0.144737 
33   0.351193 
 
$$$$ 
 
