PCCDB-ID:  11181 
public computational chemistry database (PCCDB) project, http://pccdb.org 
 
 15 14  0  0  0  0  0  0  0  0999 V2000 
    0.7528   -0.0818    0.6789 C   0  0  0  0  0  0  0  0  0  0  0  0 
    1.6363    0.2140   -0.2740 C   0  0  0  0  0  0  0  0  0  0  0  0 
    2.9565   -0.4850   -0.4484 C   0  0  0  0  0  0  0  0  0  0  0  0 
    5.3356    0.1251   -0.7516 C   0  0  0  0  0  0  0  0  0  0  0  0 
    5.7800   -0.8894   -1.3903 N   0  0  0  0  0  0  0  0  0  0  0  0 
    4.0500    0.4757   -0.3997 N   0  0  0  0  0  0  0  0  0  0  0  0 
    6.2037    1.0880   -0.3364 O   0  0  0  0  0  0  0  0  0  0  0  0 
   -0.1961    0.4409    0.7603 H   0  0  0  0  0  0  0  0  0  0  0  0 
    0.9416   -0.8650    1.4104 H   0  0  0  0  0  0  0  0  0  0  0  0 
    1.4269    1.0070   -0.9914 H   0  0  0  0  0  0  0  0  0  0  0  0 
    2.9830   -0.9645   -1.4367 H   0  0  0  0  0  0  0  0  0  0  0  0 
    3.0671   -1.2842    0.3022 H   0  0  0  0  0  0  0  0  0  0  0  0 
    5.0458   -1.5507   -1.6361 H   0  0  0  0  0  0  0  0  0  0  0  0 
    3.9950    1.1719    0.3333 H   0  0  0  0  0  0  0  0  0  0  0  0 
    7.0756    0.7817   -0.6415 H   0  0  0  0  0  0  0  0  0  0  0  0 
  1  8  1  0  0  0  0 
  1  9  1  0  0  0  0 
  2  1  2  0  0  0  0 
  3  6  1  0  0  0  0 
  3  2  1  0  0  0  0 
  3 12  1  0  0  0  0 
  4  6  1  0  0  0  0 
  4  7  1  0  0  0  0 
  5  4  2  0  0  0  0 
  6 14  1  0  0  0  0 
 10  2  1  0  0  0  0 
 11  3  1  0  0  0  0 
 13  5  1  0  0  0  0 
 15  7  1  0  0  0  0 
M  END 
>  <HBA> 
3 
 
>  <HBD> 
2 
 
>  <TPSA> 
55.12 
 
>  <cid> 
11181 
 
>  <dipole> 
2.48 
 
>  <excitation_energy_1> 
5.394 
 
>  <excitation_energy_2> 
5.904 
 
>  <excitation_energy_3> 
6.327 
 
>  <excitation_energy_4> 
6.449 
 
>  <homo_energy> 
-6.291 
 
>  <homo_lumo_gap> 
6.332 
 
>  <logP> 
0.932 
 
>  <lumo_energy> 
0.041 
 
>  <melting_point> 
67.32 
 
>  <molecular_refractivity> 
26.97 
 
>  <oscillator_strength_1> 
0.0163 
 
>  <oscillator_strength_2> 
0.005 
 
>  <oscillator_strength_3> 
0.0103 
 
>  <oscillator_strength_4> 
0.0229 
 
>  <open_babel_can_smiles> 
OC(=N)NCC=C 
 
>  <mulliken_charges> 
15 
1   -0.332518 
2   -0.070711 
3   -0.165499 
4   0.646726 
5   -0.665135 
6   -0.59817 
7   -0.608557 
8   0.150937 
9   0.145556 
10   0.146782 
11   0.162344 
12   0.150627 
13   0.28229 
14   0.335624 
15   0.419703 
 
>  <lowdin_charges> 
15 
1   -0.326372 
2   -0.157661 
3   -0.189094 
4   0.160613 
5   -0.495791 
6   -0.303944 
7   -0.383501 
8   0.164222 
9   0.159217 
10   0.160875 
11   0.156233 
12   0.141892 
13   0.257152 
14   0.288949 
15   0.367211 
 
$$$$ 
 
