PCCDB-ID:  7823 
public computational chemistry database (PCCDB) project, http://pccdb.org 
 
 23 22  0  0  1  0  0  0  0  0999 V2000 
    0.9735   -0.7005   -0.3985 C   0  0  0  0  0  0  0  0  0  0  0  0 
    0.3709    0.4366    0.4467 C   0  0  0  0  0  0  0  0  0  0  0  0 
    2.4951   -0.8796   -0.2415 C   0  0  0  0  0  0  0  0  0  0  0  0 
    1.0047    1.8063    0.1976 C   0  0  0  0  0  0  0  0  0  0  0  0 
    3.0354   -0.6582   -2.7404 C   0  0  0  0  0  0  0  0  0  0  0  0 
    3.2227   -1.4826   -1.4570 C   0  0  1  0  0  0  0  0  0  0  0  0 
    1.1212    2.0235   -1.2202 O   0  0  0  0  0  0  0  0  0  0  0  0 
    3.4223    0.6986   -2.5437 O   0  0  0  0  0  0  0  0  0  0  0  0 
    4.6172   -1.5885   -1.1667 O   0  0  0  0  0  0  0  0  0  0  0  0 
    0.7239   -0.4917   -1.4435 H   0  0  0  0  0  0  0  0  0  0  0  0 
    0.4581   -1.6365   -0.1484 H   0  0  0  0  0  0  0  0  0  0  0  0 
    0.4683    0.2199    1.5195 H   0  0  0  0  0  0  0  0  0  0  0  0 
   -0.7034    0.4989    0.2327 H   0  0  0  0  0  0  0  0  0  0  0  0 
    2.7244   -1.4976    0.6342 H   0  0  0  0  0  0  0  0  0  0  0  0 
    2.9720    0.0906   -0.0572 H   0  0  0  0  0  0  0  0  0  0  0  0 
    1.9963    1.8681    0.6675 H   0  0  0  0  0  0  0  0  0  0  0  0 
    0.3775    2.5884    0.6473 H   0  0  0  0  0  0  0  0  0  0  0  0 
    2.0064   -0.7305   -3.1206 H   0  0  0  0  0  0  0  0  0  0  0  0 
    3.7006   -1.0688   -3.5074 H   0  0  0  0  0  0  0  0  0  0  0  0 
    2.8770   -2.5083   -1.6417 H   0  0  0  0  0  0  0  0  0  0  0  0 
    1.3375    2.9578   -1.3634 H   0  0  0  0  0  0  0  0  0  0  0  0 
    2.6731    1.1494   -2.1047 H   0  0  0  0  0  0  0  0  0  0  0  0 
    4.9603   -0.6814   -1.2498 H   0  0  0  0  0  0  0  0  0  0  0  0 
  1  3  1  0  0  0  0 
  1 11  1  0  0  0  0 
  1  2  1  0  0  0  0 
  2 12  1  0  0  0  0 
  3 15  1  0  0  0  0 
  3 14  1  0  0  0  0 
  4  2  1  0  0  0  0 
  4 17  1  0  0  0  0 
  4 16  1  0  0  0  0 
  5  8  1  0  0  0  0 
  5  6  1  0  0  0  0 
  6 20  1  6  0  0  0 
  6  9  1  0  0  0  0 
  6  3  1  0  0  0  0 
  7  4  1  0  0  0  0 
  8 22  1  0  0  0  0 
 10  1  1  0  0  0  0 
 13  2  1  0  0  0  0 
 18  5  1  0  0  0  0 
 19  5  1  0  0  0  0 
 21  7  1  0  0  0  0 
 23  9  1  0  0  0  0 
M  END 
>  <HBA> 
3 
 
>  <HBD> 
3 
 
>  <TPSA> 
60.69 
 
>  <cid> 
7823 
 
>  <dipole> 
4.06 
 
>  <excitation_energy_1> 
5.909 
 
>  <excitation_energy_2> 
6.54 
 
>  <excitation_energy_3> 
6.576 
 
>  <excitation_energy_4> 
6.691 
 
>  <homo_energy> 
-6.536 
 
>  <homo_lumo_gap> 
7.75 
 
>  <logP> 
-0.498 
 
>  <lumo_energy> 
1.214 
 
>  <melting_point> 
29.29 
 
>  <molecular_refractivity> 
34.44 
 
>  <oscillator_strength_1> 
0.0005 
 
>  <oscillator_strength_2> 
0.0061 
 
>  <oscillator_strength_3> 
0.0078 
 
>  <oscillator_strength_4> 
0.01 
 
>  <open_babel_can_smiles> 
OCCCC[C@@H](CO)O 
 
>  <mulliken_charges> 
23 
1   -0.27418 
2   -0.270873 
3   -0.285637 
4   -0.048772 
5   -0.07369 
6   0.132944 
7   -0.621172 
8   -0.665599 
9   -0.63474 
10   0.15364 
11   0.137619 
12   0.139329 
13   0.144138 
14   0.145069 
15   0.126547 
16   0.139806 
17   0.135186 
18   0.125006 
19   0.150393 
20   0.123314 
21   0.40702 
22   0.421482 
23   0.393169 
 
>  <lowdin_charges> 
23 
1   -0.28415 
2   -0.278461 
3   -0.301287 
4   -0.137466 
5   -0.155728 
6   -0.018041 
7   -0.465339 
8   -0.496001 
9   -0.468037 
10   0.147976 
11   0.147242 
12   0.147038 
13   0.147693 
14   0.151911 
15   0.139455 
16   0.132831 
17   0.139567 
18   0.130252 
19   0.151365 
20   0.138296 
21   0.351567 
22   0.338987 
23   0.34033 
 
$$$$ 
 
