PCCDB-ID:  22178 
public computational chemistry database (PCCDB) project, http://pccdb.org 
 
 30 31  0  0  1  0  0  0  0  0999 V2000 
    0.8683    0.0413    0.5865 C   0  0  0  0  0  0  0  0  0  0  0  0 
    4.3170   -4.5869    4.0835 C   0  0  0  0  0  0  0  0  0  0  0  0 
    6.9345   -1.3762    5.3601 C   0  0  0  0  0  0  0  0  0  0  0  0 
    3.0111   -1.3201    0.2018 C   0  0  0  0  0  0  0  0  0  0  0  0 
    3.8929   -2.3780    2.3592 C   0  0  0  0  0  0  0  0  0  0  0  0 
    4.7756    0.1212    3.2204 C   0  0  0  0  0  0  0  0  0  0  0  0 
    3.7908    1.1749    1.1625 C   0  0  0  0  0  0  0  0  0  0  0  0 
    2.2298   -0.0295   -0.1240 C   0  0  2  0  0  0  0  0  0  0  0  0 
    3.6592   -1.2545    1.5651 C   0  0  0  0  0  0  0  0  0  0  0  0 
    4.0905    0.0063    2.0028 C   0  0  0  0  0  0  0  0  0  0  0  0 
    4.5575   -2.2606    3.5868 C   0  0  0  0  0  0  0  0  0  0  0  0 
    5.0147   -0.9916    4.0158 C   0  0  0  0  0  0  0  0  0  0  0  0 
    2.9718    1.2088    0.1793 N   0  0  0  0  0  0  0  0  0  0  0  0 
    4.8037   -3.2996    4.4337 O   0  0  0  0  0  0  0  0  0  0  0  0 
    5.6220   -0.8237    5.2367 O   0  0  0  0  0  0  0  0  0  0  0  0 
    0.2222   -0.7842    0.2652 H   0  0  0  0  0  0  0  0  0  0  0  0 
    0.3694    0.9863    0.3511 H   0  0  0  0  0  0  0  0  0  0  0  0 
    0.9893   -0.0181    1.6739 H   0  0  0  0  0  0  0  0  0  0  0  0 
    4.7761   -4.9545    3.1565 H   0  0  0  0  0  0  0  0  0  0  0  0 
    3.2254   -4.5853    3.9713 H   0  0  0  0  0  0  0  0  0  0  0  0 
    4.5948   -5.2440    4.9094 H   0  0  0  0  0  0  0  0  0  0  0  0 
    7.2833   -1.1030    6.3587 H   0  0  0  0  0  0  0  0  0  0  0  0 
    7.6117   -0.9463    4.6098 H   0  0  0  0  0  0  0  0  0  0  0  0 
    6.9229   -2.4662    5.2621 H   0  0  0  0  0  0  0  0  0  0  0  0 
    3.7988   -1.4541   -0.5555 H   0  0  0  0  0  0  0  0  0  0  0  0 
    2.3502   -2.1920    0.1195 H   0  0  0  0  0  0  0  0  0  0  0  0 
    3.5499   -3.3482    2.0150 H   0  0  0  0  0  0  0  0  0  0  0  0 
    5.1171    1.0890    3.5785 H   0  0  0  0  0  0  0  0  0  0  0  0 
    4.2992    2.1104    1.4190 H   0  0  0  0  0  0  0  0  0  0  0  0 
    2.0419   -0.0152   -1.2044 H   0  0  0  0  0  0  0  0  0  0  0  0 
  1 18  1  0  0  0  0 
  2 14  1  0  0  0  0 
  2 21  1  0  0  0  0 
  3 22  1  0  0  0  0 
  4  9  1  0  0  0  0 
  5 11  2  0  0  0  0 
  6 28  1  0  0  0  0 
  6 12  2  0  0  0  0 
  7 29  1  0  0  0  0 
  7 10  1  0  0  0  0 
  8 30  1  6  0  0  0 
  8 13  1  0  0  0  0 
  8  4  1  0  0  0  0 
  8  1  1  0  0  0  0 
  9 10  2  0  0  0  0 
  9  5  1  0  0  0  0 
 10  6  1  0  0  0  0 
 11 12  1  0  0  0  0 
 11 14  1  0  0  0  0 
 12 15  1  0  0  0  0 
 13  7  2  0  0  0  0 
 15  3  1  0  0  0  0 
 16  1  1  0  0  0  0 
 17  1  1  0  0  0  0 
 19  2  1  0  0  0  0 
 20  2  1  0  0  0  0 
 23  3  1  0  0  0  0 
 24  3  1  0  0  0  0 
 25  4  1  0  0  0  0 
 26  4  1  0  0  0  0 
 27  5  1  0  0  0  0 
M  END 
>  <HBA> 
3 
 
>  <HBD> 
0 
 
>  <TPSA> 
30.82 
 
>  <cid> 
22178 
 
>  <dipole> 
4.01 
 
>  <excitation_energy_1> 
4.211 
 
>  <excitation_energy_2> 
4.368 
 
>  <excitation_energy_3> 
4.632 
 
>  <excitation_energy_4> 
5.24 
 
>  <homo_energy> 
-5.717 
 
>  <homo_lumo_gap> 
4.83 
 
>  <logP> 
1.503 
 
>  <lumo_energy> 
-0.887 
 
>  <melting_point> 
63.32 
 
>  <molecular_refractivity> 
63.87 
 
>  <oscillator_strength_1> 
0.0053 
 
>  <oscillator_strength_2> 
0.1538 
 
>  <oscillator_strength_3> 
0.0254 
 
>  <oscillator_strength_4> 
0.0098 
 
>  <open_babel_can_smiles> 
COc1cc2C[C@@H](C)N=Cc2cc1OC 
 
>  <mulliken_charges> 
30 
1   -0.442521 
2   -0.216447 
3   -0.210848 
4   -0.358755 
5   -0.285665 
6   -0.252518 
7   0.000665 
8   0.012727 
9   0.129827 
10   0.112081 
11   0.362204 
12   0.317762 
13   -0.375961 
14   -0.506388 
15   -0.522185 
16   0.136878 
17   0.161986 
18   0.153571 
19   0.15448 
20   0.158029 
21   0.17387 
22   0.159825 
23   0.139115 
24   0.160663 
25   0.157918 
26   0.140128 
27   0.130387 
28   0.140748 
29   0.132918 
30   0.135503 
 
>  <lowdin_charges> 
30 
1   -0.446441 
2   -0.274814 
3   -0.272822 
4   -0.286466 
5   -0.217971 
6   -0.162812 
7   -0.087449 
8   -0.064023 
9   0.005788 
10   -0.056484 
11   0.086522 
12   0.066911 
13   -0.174916 
14   -0.188825 
15   -0.223967 
16   0.148572 
17   0.160584 
18   0.151881 
19   0.146696 
20   0.146905 
21   0.165914 
22   0.156187 
23   0.139799 
24   0.146337 
25   0.158158 
26   0.152751 
27   0.161739 
28   0.16853 
29   0.149932 
30   0.143786 
 
$$$$ 
 
