PCCDB-ID:  28331 
public computational chemistry database (PCCDB) project, http://pccdb.org 
 
 34 35  0  0  1  0  0  0  0  0999 V2000 
    0.2025    0.5852    0.0926 C   0  0  0  0  0  0  0  0  0  0  0  0 
    2.0566    1.1409   -1.4589 C   0  0  0  0  0  0  0  0  0  0  0  0 
    4.5020    1.4135    0.5520 C   0  0  0  0  0  0  0  0  0  0  0  0 
    3.5345    2.5545    0.7854 C   0  0  0  0  0  0  0  0  0  0  0  0 
    4.5792   -3.6077   -2.2338 C   0  0  0  0  0  0  0  0  0  0  0  0 
    5.1478   -3.0099   -0.9558 C   0  0  0  0  0  0  0  0  0  0  0  0 
    2.2391    0.8494    2.1078 C   0  0  0  0  0  0  0  0  0  0  0  0 
    4.9363   -1.0430    0.3721 C   0  0  0  0  0  0  0  0  0  0  0  0 
    4.0545    0.1507    0.5817 C   0  0  0  0  0  0  0  0  0  0  0  0 
    2.1221    2.0066    1.0758 C   0  0  2  0  0  0  0  0  0  0  0  0 
    2.5797   -0.0587    0.8862 C   0  0  2  0  0  0  0  0  0  0  0  0 
    1.7003    0.9233    0.0135 C   0  0  0  0  0  0  0  0  0  0  0  0 
    4.7270   -2.7162   -3.3248 O   0  0  0  0  0  0  0  0  0  0  0  0 
    4.4357   -1.8023   -0.7262 O   0  0  0  0  0  0  0  0  0  0  0  0 
   -0.3935    1.3964   -0.3450 H   0  0  0  0  0  0  0  0  0  0  0  0 
   -0.1581    0.4278    1.1130 H   0  0  0  0  0  0  0  0  0  0  0  0 
   -0.0137   -0.3259   -0.4791 H   0  0  0  0  0  0  0  0  0  0  0  0 
    1.4925    1.9903   -1.8658 H   0  0  0  0  0  0  0  0  0  0  0  0 
    1.7858    0.2565   -2.0497 H   0  0  0  0  0  0  0  0  0  0  0  0 
    3.1200    1.3298   -1.6190 H   0  0  0  0  0  0  0  0  0  0  0  0 
    5.5478    1.6430    0.3520 H   0  0  0  0  0  0  0  0  0  0  0  0 
    3.5217    3.2226   -0.0890 H   0  0  0  0  0  0  0  0  0  0  0  0 
    3.8746    3.1749    1.6287 H   0  0  0  0  0  0  0  0  0  0  0  0 
    3.5212   -3.8698   -2.0682 H   0  0  0  0  0  0  0  0  0  0  0  0 
    5.1187   -4.5257   -2.4901 H   0  0  0  0  0  0  0  0  0  0  0  0 
    6.2218   -2.8000   -1.0844 H   0  0  0  0  0  0  0  0  0  0  0  0 
    5.0301   -3.7030   -0.1058 H   0  0  0  0  0  0  0  0  0  0  0  0 
    1.2865    0.6026    2.5807 H   0  0  0  0  0  0  0  0  0  0  0  0 
    3.0095    0.9394    2.8806 H   0  0  0  0  0  0  0  0  0  0  0  0 
    4.9399   -1.6811    1.2744 H   0  0  0  0  0  0  0  0  0  0  0  0 
    5.9767   -0.7338    0.1829 H   0  0  0  0  0  0  0  0  0  0  0  0 
    1.4111    2.8168    1.2782 H   0  0  0  0  0  0  0  0  0  0  0  0 
    2.2991   -1.1160    0.9040 H   0  0  0  0  0  0  0  0  0  0  0  0 
    4.3984   -1.8606   -3.0007 H   0  0  0  0  0  0  0  0  0  0  0  0 
  1 16  1  0  0  0  0 
  2 12  1  0  0  0  0 
  3  9  2  0  0  0  0 
  3  4  1  0  0  0  0 
  4 10  1  0  0  0  0 
  4 23  1  0  0  0  0 
  5 24  1  0  0  0  0 
  5  6  1  0  0  0  0 
  6 14  1  0  0  0  0 
  6 27  1  0  0  0  0 
  7 28  1  0  0  0  0 
  7 29  1  0  0  0  0 
  8  9  1  0  0  0  0 
  8 30  1  0  0  0  0 
  9 11  1  0  0  0  0 
 10 32  1  1  0  0  0 
 10  7  1  0  0  0  0 
 11 33  1  1  0  0  0 
 11  7  1  0  0  0  0 
 12  1  1  0  0  0  0 
 12 11  1  0  0  0  0 
 12 10  1  0  0  0  0 
 13 34  1  0  0  0  0 
 13  5  1  0  0  0  0 
 14  8  1  0  0  0  0 
 15  1  1  0  0  0  0 
 17  1  1  0  0  0  0 
 18  2  1  0  0  0  0 
 19  2  1  0  0  0  0 
 20  2  1  0  0  0  0 
 21  3  1  0  0  0  0 
 22  4  1  0  0  0  0 
 25  5  1  0  0  0  0 
 26  6  1  0  0  0  0 
 31  8  1  0  0  0  0 
M  END 
>  <HBA> 
2 
 
>  <HBD> 
1 
 
>  <TPSA> 
29.46 
 
>  <cid> 
28331 
 
>  <dipole> 
2.4 
 
>  <excitation_energy_1> 
5.766 
 
>  <excitation_energy_2> 
5.981 
 
>  <excitation_energy_3> 
6.101 
 
>  <excitation_energy_4> 
6.233 
 
>  <homo_energy> 
-6.324 
 
>  <homo_lumo_gap> 
6.618 
 
>  <logP> 
1.988 
 
>  <lumo_energy> 
0.294 
 
>  <melting_point> 
56.17 
 
>  <molecular_refractivity> 
57.08 
 
>  <oscillator_strength_1> 
0.0061 
 
>  <oscillator_strength_2> 
0.1398 
 
>  <oscillator_strength_3> 
0.0047 
 
>  <oscillator_strength_4> 
0.0073 
 
>  <open_babel_can_smiles> 
OCCOCC1=CC[C@@H]2C[C@H]1C2(C)C 
 
>  <mulliken_charges> 
34 
1   -0.464877 
2   -0.464138 
3   -0.207726 
4   -0.287641 
5   -0.03269 
6   -0.029332 
7   -0.278453 
8   -0.094033 
9   0.208393 
10   -0.128032 
11   -0.190286 
12   0.135642 
13   -0.623438 
14   -0.492123 
15   0.140873 
16   0.141937 
17   0.143658 
18   0.135169 
19   0.141149 
20   0.150737 
21   0.120871 
22   0.14727 
23   0.144228 
24   0.128567 
25   0.143343 
26   0.130931 
27   0.119961 
28   0.138478 
29   0.132157 
30   0.125584 
31   0.13002 
32   0.113106 
33   0.1192 
34   0.401496 
 
>  <lowdin_charges> 
34 
1   -0.442659 
2   -0.452042 
3   -0.181298 
4   -0.275809 
5   -0.137739 
6   -0.147947 
7   -0.283901 
8   -0.123099 
9   -0.021125 
10   -0.133349 
11   -0.133452 
12   0.014914 
13   -0.468836 
14   -0.28484 
15   0.149336 
16   0.147796 
17   0.149775 
18   0.147619 
19   0.150944 
20   0.154497 
21   0.150036 
22   0.151166 
23   0.151934 
24   0.129757 
25   0.149548 
26   0.131305 
27   0.13149 
28   0.146564 
29   0.141589 
30   0.132348 
31   0.133819 
32   0.136062 
33   0.140927 
34   0.344672 
 
$$$$ 
 
