PCCDB-ID:  61953 
public computational chemistry database (PCCDB) project, http://pccdb.org 
 
 36 37  0  0  1  0  0  0  0  0999 V2000 
    1.0694   -0.2648   -0.6919 C   0  0  0  0  0  0  0  0  0  0  0  0 
    2.2912   -3.8917   -1.9268 C   0  0  0  0  0  0  0  0  0  0  0  0 
    5.4366   -2.1739    1.3810 C   0  0  0  0  0  0  0  0  0  0  0  0 
    4.2122   -0.2440    2.3944 C   0  0  0  0  0  0  0  0  0  0  0  0 
    4.6007    1.2888   -0.1547 C   0  0  0  0  0  0  0  0  0  0  0  0 
    3.1564    1.0285   -0.4707 C   0  0  0  0  0  0  0  0  0  0  0  0 
    2.6780   -3.7479    0.6170 C   0  0  0  0  0  0  0  0  0  0  0  0 
    5.3529   -0.0090    0.1466 C   0  0  0  0  0  0  0  0  0  0  0  0 
    2.3215   -2.3308    1.1014 C   0  0  0  0  0  0  0  0  0  0  0  0 
    2.5125   -0.1292   -0.2633 C   0  0  0  0  0  0  0  0  0  0  0  0 
    3.2541   -3.5315   -0.7967 C   0  0  2  0  0  0  0  0  0  0  0  0 
    4.5477   -0.9572    1.0642 C   0  0  0  0  0  0  0  0  0  0  0  0 
    3.2374   -1.3709    0.2899 C   0  0  1  0  0  0  0  0  0  0  0  0 
    3.6052   -2.1422   -0.8880 O   0  0  0  0  0  0  0  0  0  0  0  0 
    0.7577    0.6119   -1.2683 H   0  0  0  0  0  0  0  0  0  0  0  0 
    0.3787   -0.3589    0.1566 H   0  0  0  0  0  0  0  0  0  0  0  0 
    0.9244   -1.1471   -1.3272 H   0  0  0  0  0  0  0  0  0  0  0  0 
    2.1255   -4.9755   -1.9603 H   0  0  0  0  0  0  0  0  0  0  0  0 
    2.7023   -3.5755   -2.8909 H   0  0  0  0  0  0  0  0  0  0  0  0 
    1.3200   -3.4012   -1.7917 H   0  0  0  0  0  0  0  0  0  0  0  0 
    6.3671   -1.8361    1.8538 H   0  0  0  0  0  0  0  0  0  0  0  0 
    5.7050   -2.7207    0.4720 H   0  0  0  0  0  0  0  0  0  0  0  0 
    4.9574   -2.8684    2.0795 H   0  0  0  0  0  0  0  0  0  0  0  0 
    5.1181    0.2117    2.8124 H   0  0  0  0  0  0  0  0  0  0  0  0 
    3.8323   -0.9444    3.1462 H   0  0  0  0  0  0  0  0  0  0  0  0 
    3.4653    0.5455    2.2682 H   0  0  0  0  0  0  0  0  0  0  0  0 
    4.6717    1.9862    0.6950 H   0  0  0  0  0  0  0  0  0  0  0  0 
    5.0722    1.8130   -0.9978 H   0  0  0  0  0  0  0  0  0  0  0  0 
    2.6009    1.8590   -0.9079 H   0  0  0  0  0  0  0  0  0  0  0  0 
    1.8034   -4.4071    0.6019 H   0  0  0  0  0  0  0  0  0  0  0  0 
    3.4217   -4.2141    1.2690 H   0  0  0  0  0  0  0  0  0  0  0  0 
    6.3230    0.2132    0.6103 H   0  0  0  0  0  0  0  0  0  0  0  0 
    5.5553   -0.5372   -0.7922 H   0  0  0  0  0  0  0  0  0  0  0  0 
    2.4549   -2.2194    2.1795 H   0  0  0  0  0  0  0  0  0  0  0  0 
    1.2704   -2.1242    0.8933 H   0  0  0  0  0  0  0  0  0  0  0  0 
    4.1784   -4.1116   -0.9281 H   0  0  0  0  0  0  0  0  0  0  0  0 
  1 10  1  0  0  0  0 
  1 16  1  0  0  0  0 
  2 20  1  0  0  0  0 
  2 11  1  0  0  0  0 
  3 21  1  0  0  0  0 
  3 23  1  0  0  0  0 
  4 24  1  0  0  0  0 
  4 25  1  0  0  0  0 
  5  8  1  0  0  0  0 
  5 27  1  0  0  0  0 
  6 10  2  0  0  0  0 
  6  5  1  0  0  0  0 
  7  9  1  0  0  0  0 
  7 31  1  0  0  0  0 
  8 32  1  0  0  0  0 
  8 12  1  0  0  0  0 
  9 34  1  0  0  0  0 
 10 13  1  0  0  0  0 
 11 36  1  6  0  0  0 
 11  7  1  0  0  0  0 
 12  3  1  0  0  0  0 
 12  4  1  0  0  0  0 
 13 14  1  6  0  0  0 
 13 12  1  0  0  0  0 
 13  9  1  0  0  0  0 
 14 11  1  0  0  0  0 
 15  1  1  0  0  0  0 
 17  1  1  0  0  0  0 
 18  2  1  0  0  0  0 
 19  2  1  0  0  0  0 
 22  3  1  0  0  0  0 
 26  4  1  0  0  0  0 
 28  5  1  0  0  0  0 
 29  6  1  0  0  0  0 
 30  7  1  0  0  0  0 
 33  8  1  0  0  0  0 
 35  9  1  0  0  0  0 
M  END 
>  <HBA> 
1 
 
>  <HBD> 
0 
 
>  <TPSA> 
9.23 
 
>  <cid> 
61953 
 
>  <dipole> 
1.2 
 
>  <excitation_energy_1> 
5.688 
 
>  <excitation_energy_2> 
5.939 
 
>  <excitation_energy_3> 
5.947 
 
>  <excitation_energy_4> 
6.008 
 
>  <homo_energy> 
-6.12 
 
>  <homo_lumo_gap> 
6.879 
 
>  <logP> 
3.69 
 
>  <lumo_energy> 
0.759 
 
>  <melting_point> 
47.91 
 
>  <molecular_refractivity> 
60.77 
 
>  <oscillator_strength_1> 
0.0024 
 
>  <oscillator_strength_2> 
0.0032 
 
>  <oscillator_strength_3> 
0.0397 
 
>  <oscillator_strength_4> 
0.0029 
 
>  <open_babel_can_smiles> 
C[C@@H]1CC[C@@]2(O1)C(=CCCC2(C)C)C 
 
>  <mulliken_charges> 
36 
1   -0.541796 
2   -0.458417 
3   -0.469623 
4   -0.466703 
5   -0.305092 
6   -0.171244 
7   -0.319838 
8   -0.273947 
9   -0.332764 
10   0.193339 
11   0.177777 
12   0.075063 
13   0.282144 
14   -0.533666 
15   0.151328 
16   0.150099 
17   0.163659 
18   0.135605 
19   0.157149 
20   0.145541 
21   0.137741 
22   0.15638 
23   0.134928 
24   0.139267 
25   0.138154 
26   0.152463 
27   0.1423 
28   0.14089 
29   0.11196 
30   0.142782 
31   0.147604 
32   0.119377 
33   0.156427 
34   0.149976 
35   0.149234 
36   0.121901 
 
>  <lowdin_charges> 
36 
1   -0.445897 
2   -0.453059 
3   -0.44803 
4   -0.452412 
5   -0.279077 
6   -0.179915 
7   -0.296635 
8   -0.276719 
9   -0.291575 
10   -0.024783 
11   0.005426 
12   0.000906 
13   0.125923 
14   -0.280629 
15   0.156525 
16   0.151045 
17   0.156409 
18   0.146661 
19   0.158176 
20   0.14693 
21   0.148427 
22   0.156118 
23   0.144973 
24   0.14947 
25   0.146216 
26   0.155425 
27   0.147277 
28   0.152149 
29   0.14761 
30   0.151016 
31   0.150079 
32   0.138426 
33   0.154433 
34   0.153434 
35   0.153222 
36   0.132456 
 
$$$$ 
 
