PCCDB-ID:  15739 
public computational chemistry database (PCCDB) project, http://pccdb.org 
 
 31 30  0  0  0  0  0  0  0  0999 V2000 
   10.0207    3.7936    0.7441 C   0  0  0  0  0  0  0  0  0  0  0  0 
    8.9631   -3.5305    1.9119 C   0  0  0  0  0  0  0  0  0  0  0  0 
    8.9504    4.7703    1.2470 C   0  0  0  0  0  0  0  0  0  0  0  0 
    9.9402   -3.0183    2.9778 C   0  0  0  0  0  0  0  0  0  0  0  0 
    8.2027    4.3242    2.5158 C   0  0  0  0  0  0  0  0  0  0  0  0 
   10.4444   -1.5785    2.7741 C   0  0  0  0  0  0  0  0  0  0  0  0 
    7.1954    3.1921    2.3378 C   0  0  0  0  0  0  0  0  0  0  0  0 
    9.4601   -0.4657    3.1161 C   0  0  0  0  0  0  0  0  0  0  0  0 
    6.2972    0.1473    1.0262 O   0  0  0  0  0  0  0  0  0  0  0  0 
    7.8661    1.9540    2.0409 O   0  0  0  0  0  0  0  0  0  0  0  0 
    8.3803   -0.4571    2.1662 O   0  0  0  0  0  0  0  0  0  0  0  0 
    7.0779    0.5336    2.4208 P   0  0  0  0  0  0  0  0  0  0  0  0 
   10.5369    4.2000   -0.1338 H   0  0  0  0  0  0  0  0  0  0  0  0 
    9.5863    2.8276    0.4756 H   0  0  0  0  0  0  0  0  0  0  0  0 
   10.7764    3.6123    1.5186 H   0  0  0  0  0  0  0  0  0  0  0  0 
    8.6922   -4.5751    2.1058 H   0  0  0  0  0  0  0  0  0  0  0  0 
    9.4177   -3.4857    0.9140 H   0  0  0  0  0  0  0  0  0  0  0  0 
    8.0468   -2.9364    1.8841 H   0  0  0  0  0  0  0  0  0  0  0  0 
    8.2170    4.9579    0.4496 H   0  0  0  0  0  0  0  0  0  0  0  0 
    9.4234    5.7398    1.4539 H   0  0  0  0  0  0  0  0  0  0  0  0 
   10.8140   -3.6832    3.0012 H   0  0  0  0  0  0  0  0  0  0  0  0 
    9.4770   -3.0959    3.9724 H   0  0  0  0  0  0  0  0  0  0  0  0 
    7.6386    5.1806    2.9118 H   0  0  0  0  0  0  0  0  0  0  0  0 
    8.9219    4.0371    3.2952 H   0  0  0  0  0  0  0  0  0  0  0  0 
   10.7838   -1.4398    1.7387 H   0  0  0  0  0  0  0  0  0  0  0  0 
   11.3246   -1.4172    3.4128 H   0  0  0  0  0  0  0  0  0  0  0  0 
    6.5020    3.4238    1.5170 H   0  0  0  0  0  0  0  0  0  0  0  0 
    6.5977    3.0797    3.2543 H   0  0  0  0  0  0  0  0  0  0  0  0 
    9.9653    0.5075    3.0864 H   0  0  0  0  0  0  0  0  0  0  0  0 
    9.0609   -0.6089    4.1321 H   0  0  0  0  0  0  0  0  0  0  0  0 
    6.9256    0.0587    0.2846 H   0  0  0  0  0  0  0  0  0  0  0  0 
  1  3  1  0  0  0  0 
  1 15  1  0  0  0  0 
  2 16  1  0  0  0  0 
  2  4  1  0  0  0  0 
  3 20  1  0  0  0  0 
  3  5  1  0  0  0  0 
  4 21  1  0  0  0  0 
  4 22  1  0  0  0  0 
  5 23  1  0  0  0  0 
  5 24  1  0  0  0  0 
  6  4  1  0  0  0  0 
  6  8  1  0  0  0  0 
  6 26  1  0  0  0  0 
  7  5  1  0  0  0  0 
  7 28  1  0  0  0  0 
  8 30  1  0  0  0  0 
  9 12  1  0  0  0  0 
 10  7  1  0  0  0  0 
 10 12  1  0  0  0  0 
 11 12  1  0  0  0  0 
 11  8  1  0  0  0  0 
 13  1  1  0  0  0  0 
 14  1  1  0  0  0  0 
 17  2  1  0  0  0  0 
 18  2  1  0  0  0  0 
 19  3  1  0  0  0  0 
 25  6  1  0  0  0  0 
 27  7  1  0  0  0  0 
 29  8  1  0  0  0  0 
 31  9  1  0  0  0  0 
M  END 
>  <HBA> 
3 
 
>  <HBD> 
1 
 
>  <TPSA> 
52.28 
 
>  <cid> 
15739 
 
>  <dipole> 
1.87 
 
>  <excitation_energy_1> 
6.077 
 
>  <excitation_energy_2> 
6.386 
 
>  <excitation_energy_3> 
6.419 
 
>  <excitation_energy_4> 
6.786 
 
>  <homo_energy> 
-6.686 
 
>  <homo_lumo_gap> 
7.508 
 
>  <logP> 
2.839 
 
>  <lumo_energy> 
0.822 
 
>  <melting_point> 
-14.59 
 
>  <molecular_refractivity> 
51.88 
 
>  <oscillator_strength_1> 
0.0966 
 
>  <oscillator_strength_2> 
0.0301 
 
>  <oscillator_strength_3> 
0.072 
 
>  <oscillator_strength_4> 
0.068 
 
>  <open_babel_can_smiles> 
CCCCOP(OCCCC)O 
 
>  <mulliken_charges> 
31 
1   -0.4392 
2   -0.441172 
3   -0.249212 
4   -0.248553 
5   -0.264265 
6   -0.269356 
7   -0.035471 
8   -0.032567 
9   -0.663878 
10   -0.567519 
11   -0.569403 
12   0.856293 
13   0.134387 
14   0.166519 
15   0.135581 
16   0.135345 
17   0.135565 
18   0.171412 
19   0.129867 
20   0.132621 
21   0.132464 
22   0.129579 
23   0.133531 
24   0.14089 
25   0.145191 
26   0.133078 
27   0.141416 
28   0.139871 
29   0.149299 
30   0.133843 
31   0.403844 
 
>  <lowdin_charges> 
31 
1   -0.450971 
2   -0.447639 
3   -0.272176 
4   -0.271247 
5   -0.284294 
6   -0.281287 
7   -0.131423 
8   -0.127269 
9   -0.586089 
10   -0.437589 
11   -0.430702 
12   0.75186 
13   0.145846 
14   0.15706 
15   0.144681 
16   0.144641 
17   0.143438 
18   0.159833 
19   0.139662 
20   0.141783 
21   0.142517 
22   0.138198 
23   0.149807 
24   0.147692 
25   0.148047 
26   0.149146 
27   0.140235 
28   0.142478 
29   0.145111 
30   0.135893 
31   0.352756 
 
$$$$ 
 
