PCCDB-ID:  19803 
public computational chemistry database (PCCDB) project, http://pccdb.org 
 
 18 17  0  0  0  0  0  0  0  0999 V2000 
    0.4077   -0.2874   -1.3379 C   0  0  0  0  0  0  0  0  0  0  0  0 
    7.8477    0.1274   -2.6224 C   0  0  0  0  0  0  0  0  0  0  0  0 
    1.8503   -0.3055   -0.9395 C   0  0  0  0  0  0  0  0  0  0  0  0 
    2.8914   -0.1493   -1.7790 C   0  0  0  0  0  0  0  0  0  0  0  0 
    4.2712   -0.1732   -1.3464 C   0  0  0  0  0  0  0  0  0  0  0  0 
    5.3435   -0.0226   -2.1531 C   0  0  0  0  0  0  0  0  0  0  0  0 
    6.7245   -0.0601   -1.6152 C   0  0  0  0  0  0  0  0  0  0  0  0 
    6.9579   -0.2288   -0.4250 O   0  0  0  0  0  0  0  0  0  0  0  0 
   -0.1347    0.5135   -0.8168 H   0  0  0  0  0  0  0  0  0  0  0  0 
   -0.0890   -1.2279   -1.0627 H   0  0  0  0  0  0  0  0  0  0  0  0 
    0.2855   -0.1381   -2.4155 H   0  0  0  0  0  0  0  0  0  0  0  0 
    7.7852   -0.6274   -3.4167 H   0  0  0  0  0  0  0  0  0  0  0  0 
    8.8130    0.0506   -2.1186 H   0  0  0  0  0  0  0  0  0  0  0  0 
    7.7657    1.1087   -3.1077 H   0  0  0  0  0  0  0  0  0  0  0  0 
    2.0585   -0.4582    0.1205 H   0  0  0  0  0  0  0  0  0  0  0  0 
    2.7024    0.0043   -2.8423 H   0  0  0  0  0  0  0  0  0  0  0  0 
    4.4668   -0.3250   -0.2849 H   0  0  0  0  0  0  0  0  0  0  0  0 
    5.2155    0.1318   -3.2236 H   0  0  0  0  0  0  0  0  0  0  0  0 
  1 10  1  0  0  0  0 
  1  3  1  0  0  0  0 
  1  9  1  0  0  0  0 
  2 13  1  0  0  0  0 
  2  7  1  0  0  0  0 
  3 15  1  0  0  0  0 
  4  5  1  0  0  0  0 
  4  3  2  0  0  0  0 
  5 17  1  0  0  0  0 
  6  7  1  0  0  0  0 
  6  5  2  0  0  0  0 
  7  8  2  0  0  0  0 
 11  1  1  0  0  0  0 
 12  2  1  0  0  0  0 
 14  2  1  0  0  0  0 
 16  4  1  0  0  0  0 
 18  6  1  0  0  0  0 
M  END 
>  <HBA> 
1 
 
>  <HBD> 
0 
 
>  <TPSA> 
17.07 
 
>  <cid> 
19803 
 
>  <dipole> 
3.37 
 
>  <excitation_energy_1> 
3.453 
 
>  <excitation_energy_2> 
4.586 
 
>  <excitation_energy_3> 
5.969 
 
>  <excitation_energy_4> 
6.038 
 
>  <homo_energy> 
-6.299 
 
>  <homo_lumo_gap> 
4.607 
 
>  <logP> 
1.708 
 
>  <lumo_energy> 
-1.693 
 
>  <melting_point> 
13.74 
 
>  <molecular_refractivity> 
35.02 
 
>  <oscillator_strength_1> 
0.0 
 
>  <oscillator_strength_2> 
0.7712 
 
>  <oscillator_strength_3> 
0.0008 
 
>  <oscillator_strength_4> 
0.0007 
 
>  <open_babel_can_smiles> 
C/C=C/C=C/C(=O)C 
 
>  <mulliken_charges> 
18 
1   -0.495118 
2   -0.537564 
3   -0.092144 
4   -0.104305 
5   -0.078854 
6   -0.212461 
7   0.433356 
8   -0.466046 
9   0.166727 
10   0.16648 
11   0.159696 
12   0.164929 
13   0.176385 
14   0.166779 
15   0.140525 
16   0.125613 
17   0.163204 
18   0.122799 
 
>  <lowdin_charges> 
18 
1   -0.438947 
2   -0.473125 
3   -0.124901 
4   -0.167319 
5   -0.091471 
6   -0.221846 
7   0.153852 
8   -0.258604 
9   0.165512 
10   0.164462 
11   0.156873 
12   0.167209 
13   0.17088 
14   0.167697 
15   0.155357 
16   0.151302 
17   0.171321 
18   0.151745 
 
$$$$ 
 
