PCCDB-ID:  23466 
public computational chemistry database (PCCDB) project, http://pccdb.org 
 
 29 30  0  0  0  0  0  0  0  0999 V2000 
    4.3197   -1.7310    0.2778 C   0  0  0  0  0  0  0  0  0  0  0  0 
    5.0129    2.1758    3.1337 C   0  0  0  0  0  0  0  0  0  0  0  0 
    4.1233    1.2113    3.6149 C   0  0  0  0  0  0  0  0  0  0  0  0 
    4.8991    2.6110    1.8122 C   0  0  0  0  0  0  0  0  0  0  0  0 
    5.5260   -0.3340   -3.0623 C   0  0  0  0  0  0  0  0  0  0  0  0 
    4.4937    0.5324   -3.4218 C   0  0  0  0  0  0  0  0  0  0  0  0 
    5.4475   -1.0515   -1.8693 C   0  0  0  0  0  0  0  0  0  0  0  0 
    3.1342    0.6881    2.7855 C   0  0  0  0  0  0  0  0  0  0  0  0 
    3.9221    2.0800    0.9705 C   0  0  0  0  0  0  0  0  0  0  0  0 
    3.3957    0.6704   -2.5762 C   0  0  0  0  0  0  0  0  0  0  0  0 
    4.3601   -0.9195   -0.9953 C   0  0  0  0  0  0  0  0  0  0  0  0 
    3.0336    1.0975    1.4434 C   0  0  0  0  0  0  0  0  0  0  0  0 
    3.3269   -0.0296   -1.3595 C   0  0  0  0  0  0  0  0  0  0  0  0 
    2.0987    0.1641   -0.5179 C   0  0  0  0  0  0  0  0  0  0  0  0 
    1.9804    0.5759    0.6785 N   0  0  0  0  0  0  0  0  0  0  0  0 
    0.9327   -0.1399   -1.1645 O   0  0  0  0  0  0  0  0  0  0  0  0 
    4.9896   -2.5933    0.2046 H   0  0  0  0  0  0  0  0  0  0  0  0 
    3.3120   -2.0981    0.4979 H   0  0  0  0  0  0  0  0  0  0  0  0 
    4.6343   -1.1318    1.1399 H   0  0  0  0  0  0  0  0  0  0  0  0 
    5.7755    2.5932    3.7852 H   0  0  0  0  0  0  0  0  0  0  0  0 
    4.1909    0.8741    4.6461 H   0  0  0  0  0  0  0  0  0  0  0  0 
    5.5734    3.3738    1.4307 H   0  0  0  0  0  0  0  0  0  0  0  0 
    6.3874   -0.4600   -3.7126 H   0  0  0  0  0  0  0  0  0  0  0  0 
    4.5396    1.0932   -4.3510 H   0  0  0  0  0  0  0  0  0  0  0  0 
    6.2467   -1.7403   -1.6063 H   0  0  0  0  0  0  0  0  0  0  0  0 
    2.4237   -0.0447    3.1563 H   0  0  0  0  0  0  0  0  0  0  0  0 
    3.8297    2.4368   -0.0503 H   0  0  0  0  0  0  0  0  0  0  0  0 
    2.5862    1.3450   -2.8450 H   0  0  0  0  0  0  0  0  0  0  0  0 
    1.1565   -0.5752   -2.0029 H   0  0  0  0  0  0  0  0  0  0  0  0 
  1 18  1  0  0  0  0 
  1 19  1  0  0  0  0 
  2  3  1  0  0  0  0 
  2 20  1  0  0  0  0 
  3 21  1  0  0  0  0 
  4  2  2  0  0  0  0 
  5  7  1  0  0  0  0 
  6  5  2  0  0  0  0 
  6 10  1  0  0  0  0 
  7 25  1  0  0  0  0 
  7 11  2  0  0  0  0 
  8 26  1  0  0  0  0 
  8  3  2  0  0  0  0 
  9 12  2  0  0  0  0 
  9  4  1  0  0  0  0 
 10 13  2  0  0  0  0 
 11  1  1  0  0  0  0 
 12  8  1  0  0  0  0 
 13 11  1  0  0  0  0 
 13 14  1  0  0  0  0 
 14 15  2  0  0  0  0 
 15 12  1  0  0  0  0 
 16 14  1  0  0  0  0 
 17  1  1  0  0  0  0 
 22  4  1  0  0  0  0 
 23  5  1  0  0  0  0 
 24  6  1  0  0  0  0 
 27  9  1  0  0  0  0 
 28 10  1  0  0  0  0 
 29 16  1  0  0  0  0 
M  END 
>  <HBA> 
2 
 
>  <HBD> 
1 
 
>  <TPSA> 
29.1 
 
>  <cid> 
23466 
 
>  <dipole> 
3.98 
 
>  <excitation_energy_1> 
3.967 
 
>  <excitation_energy_2> 
4.511 
 
>  <excitation_energy_3> 
4.764 
 
>  <excitation_energy_4> 
4.959 
 
>  <homo_energy> 
-5.69 
 
>  <homo_lumo_gap> 
4.757 
 
>  <logP> 
3.32 
 
>  <lumo_energy> 
-0.933 
 
>  <melting_point> 
104.82 
 
>  <molecular_refractivity> 
65.62 
 
>  <oscillator_strength_1> 
0.0653 
 
>  <oscillator_strength_2> 
0.0008 
 
>  <oscillator_strength_3> 
0.0072 
 
>  <oscillator_strength_4> 
0.0927 
 
>  <open_babel_can_smiles> 
Cc1ccccc1/C(=N\c1ccccc1)/O 
 
>  <mulliken_charges> 
29 
1   -0.539035 
2   -0.131212 
3   -0.137951 
4   -0.142282 
5   -0.116404 
6   -0.133252 
7   -0.188338 
8   -0.157007 
9   -0.146131 
10   -0.177845 
11   0.165049 
12   0.251979 
13   -0.016565 
14   0.403926 
15   -0.482425 
16   -0.5717 
17   0.153582 
18   0.16772 
19   0.194311 
20   0.123436 
21   0.126844 
22   0.126393 
23   0.137688 
24   0.138056 
25   0.132941 
26   0.132885 
27   0.129777 
28   0.148504 
29   0.407057 
 
>  <lowdin_charges> 
29 
1   -0.448419 
2   -0.174051 
3   -0.154812 
4   -0.154882 
5   -0.146322 
6   -0.158808 
7   -0.161177 
8   -0.174742 
9   -0.182508 
10   -0.165879 
11   0.015676 
12   0.046862 
13   -0.058346 
14   0.139854 
15   -0.167283 
16   -0.355012 
17   0.158133 
18   0.1644 
19   0.179384 
20   0.156573 
21   0.155285 
22   0.156956 
23   0.162509 
24   0.16206 
25   0.16049 
26   0.163674 
27   0.158919 
28   0.165104 
29   0.356363 
 
$$$$ 
 
