PCCDB-ID:  70284 
public computational chemistry database (PCCDB) project, http://pccdb.org 
 
 27 27  0  0  0  0  0  0  0  0999 V2000 
    0.8279    0.1606   -0.1785 C   0  0  0  0  0  0  0  0  0  0  0  0 
    6.9471   -1.2179   -2.2218 C   0  0  0  0  0  0  0  0  0  0  0  0 
    6.3811   -0.1556   -1.2731 C   0  0  0  0  0  0  0  0  0  0  0  0 
    2.8962    1.2234   -0.8350 C   0  0  0  0  0  0  0  0  0  0  0  0 
    2.7821   -1.1648   -0.6899 C   0  0  0  0  0  0  0  0  0  0  0  0 
    4.4177    1.1557   -0.7191 C   0  0  0  0  0  0  0  0  0  0  0  0 
    4.3044   -1.2287   -0.5781 C   0  0  0  0  0  0  0  0  0  0  0  0 
    8.4130   -1.1395   -2.2243 N   0  0  0  0  0  0  0  0  0  0  0  0 
    2.2793    0.0933   -0.1456 N   0  0  0  0  0  0  0  0  0  0  0  0 
    4.9198   -0.0997   -1.2784 N   0  0  0  0  0  0  0  0  0  0  0  0 
    0.4908    1.0945    0.2854 H   0  0  0  0  0  0  0  0  0  0  0  0 
    0.4062   -0.6744    0.3926 H   0  0  0  0  0  0  0  0  0  0  0  0 
    0.4099    0.1183   -1.2043 H   0  0  0  0  0  0  0  0  0  0  0  0 
    6.4756   -1.0855   -3.2108 H   0  0  0  0  0  0  0  0  0  0  0  0 
    6.6765   -2.2209   -1.8721 H   0  0  0  0  0  0  0  0  0  0  0  0 
    6.7474    0.8253   -1.6058 H   0  0  0  0  0  0  0  0  0  0  0  0 
    6.7960   -0.3190   -0.2607 H   0  0  0  0  0  0  0  0  0  0  0  0 
    2.6183    1.2488   -1.9081 H   0  0  0  0  0  0  0  0  0  0  0  0 
    2.5365    2.1529   -0.3766 H   0  0  0  0  0  0  0  0  0  0  0  0 
    2.3412   -1.9937   -0.1226 H   0  0  0  0  0  0  0  0  0  0  0  0 
    2.4935   -1.2951   -1.7526 H   0  0  0  0  0  0  0  0  0  0  0  0 
    4.7022    1.2750    0.3450 H   0  0  0  0  0  0  0  0  0  0  0  0 
    4.8596    1.9898   -1.2771 H   0  0  0  0  0  0  0  0  0  0  0  0 
    4.6519   -2.1660   -1.0242 H   0  0  0  0  0  0  0  0  0  0  0  0 
    4.5883   -1.2417    0.4930 H   0  0  0  0  0  0  0  0  0  0  0  0 
    8.7089   -0.2905   -2.7051 H   0  0  0  0  0  0  0  0  0  0  0  0 
    8.7985   -1.9133   -2.7624 H   0  0  0  0  0  0  0  0  0  0  0  0 
  1  9  1  0  0  0  0 
  1 11  1  0  0  0  0 
  1 12  1  0  0  0  0 
  2 15  1  0  0  0  0 
  2  3  1  0  0  0  0 
  3 17  1  0  0  0  0 
  4  6  1  0  0  0  0 
  4 19  1  0  0  0  0 
  4  9  1  0  0  0  0 
  5  7  1  0  0  0  0 
  5  9  1  0  0  0  0 
  5 20  1  0  0  0  0 
  6 22  1  0  0  0  0 
  7 25  1  0  0  0  0 
  8  2  1  0  0  0  0 
 10  3  1  0  0  0  0 
 10  6  1  0  0  0  0 
 10  7  1  0  0  0  0 
 13  1  1  0  0  0  0 
 14  2  1  0  0  0  0 
 16  3  1  0  0  0  0 
 18  4  1  0  0  0  0 
 21  5  1  0  0  0  0 
 23  6  1  0  0  0  0 
 24  7  1  0  0  0  0 
 26  8  1  0  0  0  0 
 27  8  1  0  0  0  0 
M  END 
>  <HBA> 
3 
 
>  <HBD> 
1 
 
>  <TPSA> 
32.5 
 
>  <cid> 
70284 
 
>  <dipole> 
1.38 
 
>  <excitation_energy_1> 
5.329 
 
>  <excitation_energy_2> 
5.427 
 
>  <excitation_energy_3> 
5.57 
 
>  <excitation_energy_4> 
5.611 
 
>  <homo_energy> 
-5.682 
 
>  <homo_lumo_gap> 
7.919 
 
>  <logP> 
-0.231 
 
>  <lumo_energy> 
2.237 
 
>  <melting_point> 
54.87 
 
>  <molecular_refractivity> 
49.98 
 
>  <oscillator_strength_1> 
0.0031 
 
>  <oscillator_strength_2> 
0.0194 
 
>  <oscillator_strength_3> 
0.0041 
 
>  <oscillator_strength_4> 
0.0104 
 
>  <open_babel_can_smiles> 
NCCN1CCN(CC1)C 
 
>  <mulliken_charges> 
27 
1   -0.288992 
2   -0.147308 
3   -0.094569 
4   -0.11987 
5   -0.11895 
6   -0.119716 
7   -0.12672 
8   -0.720349 
9   -0.383011 
10   -0.405864 
11   0.146626 
12   0.146599 
13   0.117123 
14   0.125488 
15   0.140034 
16   0.12383 
17   0.12786 
18   0.114659 
19   0.133807 
20   0.13411 
21   0.114606 
22   0.119055 
23   0.133782 
24   0.138237 
25   0.119467 
26   0.292494 
27   0.297572 
 
>  <lowdin_charges> 
27 
1   -0.355449 
2   -0.209764 
3   -0.201698 
4   -0.202337 
5   -0.202841 
6   -0.202138 
7   -0.20291 
8   -0.5602 
9   -0.188198 
10   -0.193172 
11   0.149277 
12   0.149998 
13   0.119533 
14   0.123508 
15   0.140374 
16   0.13895 
17   0.126803 
18   0.117511 
19   0.145724 
20   0.146607 
21   0.117773 
22   0.12031 
23   0.146119 
24   0.147026 
25   0.120398 
26   0.251725 
27   0.257071 
 
$$$$ 
 
