PCCDB-ID:  8407 
public computational chemistry database (PCCDB) project, http://pccdb.org 
 
 26 27  0  0  0  0  0  0  0  0999 V2000 
    0.1623    1.2287    1.0397 C   0  0  0  0  0  0  0  0  0  0  0  0 
    0.3781    0.3006    0.0195 C   0  0  0  0  0  0  0  0  0  0  0  0 
    1.2383    1.6409    1.8283 C   0  0  0  0  0  0  0  0  0  0  0  0 
    4.0779   -3.9063   -0.2883 C   0  0  0  0  0  0  0  0  0  0  0  0 
    5.3976   -4.1201   -0.7190 C   0  0  0  0  0  0  0  0  0  0  0  0 
    1.6518   -0.2160   -0.2152 C   0  0  0  0  0  0  0  0  0  0  0  0 
    2.5112    1.1173    1.6135 C   0  0  0  0  0  0  0  0  0  0  0  0 
    3.6360   -2.6461    0.0690 C   0  0  0  0  0  0  0  0  0  0  0  0 
    6.2635   -3.0453   -0.7629 C   0  0  0  0  0  0  0  0  0  0  0  0 
    2.7292    0.1785    0.5933 C   0  0  0  0  0  0  0  0  0  0  0  0 
    4.4888   -1.5140    0.0173 C   0  0  0  0  0  0  0  0  0  0  0  0 
    5.8347   -1.7582   -0.3977 C   0  0  0  0  0  0  0  0  0  0  0  0 
    4.0510   -0.2669    0.3762 N   0  0  0  0  0  0  0  0  0  0  0  0 
    6.8334   -0.7088   -0.4618 N   0  0  0  0  0  0  0  0  0  0  0  0 
    7.9310   -0.9665   -0.9569 O   0  0  0  0  0  0  0  0  0  0  0  0 
    6.5573    0.4219   -0.0098 O   0  0  0  0  0  0  0  0  0  0  0  0 
   -0.8313    1.6313    1.2134 H   0  0  0  0  0  0  0  0  0  0  0  0 
   -0.4468   -0.0138   -0.6142 H   0  0  0  0  0  0  0  0  0  0  0  0 
    1.0874    2.3679    2.6216 H   0  0  0  0  0  0  0  0  0  0  0  0 
    3.3885   -4.7435   -0.2182 H   0  0  0  0  0  0  0  0  0  0  0  0 
    5.7381   -5.1114   -0.9988 H   0  0  0  0  0  0  0  0  0  0  0  0 
    1.8167   -0.9015   -1.0397 H   0  0  0  0  0  0  0  0  0  0  0  0 
    3.3457    1.4252    2.2380 H   0  0  0  0  0  0  0  0  0  0  0  0 
    2.6227   -2.5121    0.4264 H   0  0  0  0  0  0  0  0  0  0  0  0 
    7.2942   -3.1602   -1.0731 H   0  0  0  0  0  0  0  0  0  0  0  0 
    4.7987    0.4142    0.4734 H   0  0  0  0  0  0  0  0  0  0  0  0 
  1 17  1  0  0  0  0 
  1  3  2  0  0  0  0 
  2  1  1  0  0  0  0 
  3 19  1  0  0  0  0 
  4 20  1  0  0  0  0 
  4  8  2  0  0  0  0 
  5  4  1  0  0  0  0 
  6  2  2  0  0  0  0 
  6 10  1  0  0  0  0 
  7  3  1  0  0  0  0 
  7 23  1  0  0  0  0 
  8 24  1  0  0  0  0 
  9  5  2  0  0  0  0 
  9 12  1  0  0  0  0 
 10  7  2  0  0  0  0 
 11  8  1  0  0  0  0 
 11 13  1  0  0  0  0 
 12 11  2  0  0  0  0 
 13 26  1  0  0  0  0 
 13 10  1  0  0  0  0 
 14 12  1  0  0  0  0 
 14 16  2  0  0  0  0 
 15 14  2  0  0  0  0 
 18  2  1  0  0  0  0 
 21  5  1  0  0  0  0 
 22  6  1  0  0  0  0 
 25  9  1  0  0  0  0 
M  END 
>  <HBA> 
0 
 
>  <HBD> 
1 
 
>  <TPSA> 
57.85 
 
>  <cid> 
8407 
 
>  <dipole> 
4.45 
 
>  <excitation_energy_1> 
2.872 
 
>  <excitation_energy_2> 
3.767 
 
>  <excitation_energy_3> 
4.13 
 
>  <excitation_energy_4> 
4.21 
 
>  <homo_energy> 
-5.728 
 
>  <homo_lumo_gap> 
3.421 
 
>  <logP> 
3.935 
 
>  <lumo_energy> 
-2.308 
 
>  <melting_point> 
117.24 
 
>  <molecular_refractivity> 
64.81 
 
>  <oscillator_strength_1> 
0.1642 
 
>  <oscillator_strength_2> 
0.0004 
 
>  <oscillator_strength_3> 
0.0008 
 
>  <oscillator_strength_4> 
0.0095 
 
>  <open_babel_can_smiles> 
O=N(=O)c1ccccc1Nc1ccccc1 
 
>  <mulliken_charges> 
26 
1   -0.126889 
2   -0.141338 
3   -0.13495 
4   -0.121591 
5   -0.145657 
6   -0.161786 
7   -0.173776 
8   -0.194837 
9   -0.16243 
10   0.332982 
11   0.363728 
12   0.238404 
13   -0.798553 
14   0.365316 
15   -0.400045 
16   -0.446748 
17   0.133888 
18   0.136584 
19   0.137927 
20   0.144218 
21   0.141612 
22   0.148309 
23   0.141288 
24   0.159818 
25   0.184166 
26   0.380361 
 
>  <lowdin_charges> 
26 
1   -0.164205 
2   -0.149442 
3   -0.145283 
4   -0.122871 
5   -0.180648 
6   -0.180598 
7   -0.176915 
8   -0.195744 
9   -0.12706 
10   0.049877 
11   0.082793 
12   -0.043381 
13   -0.237162 
14   0.310795 
15   -0.250126 
16   -0.288735 
17   0.160201 
18   0.162169 
19   0.162494 
20   0.166438 
21   0.16518 
22   0.16738 
23   0.164738 
24   0.173971 
25   0.187006 
26   0.309126 
 
$$$$ 
 
