PCCDB-ID:  39436 
public computational chemistry database (PCCDB) project, http://pccdb.org 
 
 25 25  0  0  0  0  0  0  0  0999 V2000 
    1.0981   -0.4869    0.5007 C   0  0  0  0  0  0  0  0  0  0  0  0 
    4.6891   -1.5912   -0.1834 C   0  0  0  0  0  0  0  0  0  0  0  0 
    5.3446   -0.3727   -0.3442 C   0  0  0  0  0  0  0  0  0  0  0  0 
    3.3206   -1.6097    0.0937 C   0  0  0  0  0  0  0  0  0  0  0  0 
    4.6199    0.8141   -0.2221 C   0  0  0  0  0  0  0  0  0  0  0  0 
    2.5176    2.1253    0.1977 C   0  0  0  0  0  0  0  0  0  0  0  0 
    2.5815   -0.4280    0.2177 C   0  0  0  0  0  0  0  0  0  0  0  0 
    3.2489    0.8068    0.0577 C   0  0  0  0  0  0  0  0  0  0  0  0 
    1.5167    3.5632    1.9176 C   0  0  0  0  0  0  0  0  0  0  0  0 
    0.9912    4.2779    0.9902 N   0  0  0  0  0  0  0  0  0  0  0  0 
    1.5012    3.8103    3.3023 N   0  0  0  0  0  0  0  0  0  0  0  0 
    2.2280    2.4090    1.6079 N   0  0  0  0  0  0  0  0  0  0  0  0 
    0.7739   -1.5163    0.6823 H   0  0  0  0  0  0  0  0  0  0  0  0 
    0.5131   -0.0997   -0.3441 H   0  0  0  0  0  0  0  0  0  0  0  0 
    0.8348    0.1202    1.3729 H   0  0  0  0  0  0  0  0  0  0  0  0 
    5.2362   -2.5260   -0.2745 H   0  0  0  0  0  0  0  0  0  0  0  0 
    6.4084   -0.3425   -0.5637 H   0  0  0  0  0  0  0  0  0  0  0  0 
    2.8113   -2.5635    0.2131 H   0  0  0  0  0  0  0  0  0  0  0  0 
    5.1247    1.7693   -0.3516 H   0  0  0  0  0  0  0  0  0  0  0  0 
    1.5601    2.1159   -0.3303 H   0  0  0  0  0  0  0  0  0  0  0  0 
    3.1074    2.9355   -0.2536 H   0  0  0  0  0  0  0  0  0  0  0  0 
    0.4175    5.0248    1.3862 H   0  0  0  0  0  0  0  0  0  0  0  0 
    0.8339    4.5215    3.5764 H   0  0  0  0  0  0  0  0  0  0  0  0 
    1.3928    2.9726    3.8656 H   0  0  0  0  0  0  0  0  0  0  0  0 
    3.0194    2.2450    2.2210 H   0  0  0  0  0  0  0  0  0  0  0  0 
  1 13  1  0  0  0  0 
  1 15  1  0  0  0  0 
  2  4  2  0  0  0  0 
  3  5  2  0  0  0  0 
  3  2  1  0  0  0  0 
  4 18  1  0  0  0  0 
  4  7  1  0  0  0  0 
  5  8  1  0  0  0  0 
  6 12  1  0  0  0  0 
  7  1  1  0  0  0  0 
  8  6  1  0  0  0  0 
  8  7  2  0  0  0  0 
  9 11  2  0  0  0  0 
 10 22  1  0  0  0  0 
 10  9  1  0  0  0  0 
 11 23  1  0  0  0  0 
 11 24  1  0  0  0  0 
 12  9  1  0  0  0  0 
 12 25  1  0  0  0  0 
 14  1  1  0  0  0  0 
 16  2  1  0  0  0  0 
 17  3  1  0  0  0  0 
 19  5  1  0  0  0  0 
 20  6  1  0  0  0  0 
 21  6  1  0  0  0  0 
M  RAD  1  10   2 
M  END 
>  <HBA> 
3 
 
>  <HBD> 
2 
 
>  <TPSA> 
64.4 
 
>  <cid> 
39436 
 
>  <dipole> 
2.76 
 
>  <excitation_energy_1> 
5.202 
 
>  <excitation_energy_2> 
5.239 
 
>  <excitation_energy_3> 
5.49 
 
>  <excitation_energy_4> 
5.577 
 
>  <homo_energy> 
-6.093 
 
>  <homo_lumo_gap> 
6.074 
 
>  <logP> 
2.169 
 
>  <lumo_energy> 
-0.019 
 
>  <melting_point> 
137.69 
 
>  <molecular_refractivity> 
50.28 
 
>  <oscillator_strength_1> 
0.0018 
 
>  <oscillator_strength_2> 
0.0011 
 
>  <oscillator_strength_3> 
0.0011 
 
>  <oscillator_strength_4> 
0.0133 
 
>  <open_babel_can_smiles> 
[NH]C(=[NH2])NCc1ccccc1C 
 
>  <mulliken_charges> 
25 
1   -0.53603 
2   -0.123779 
3   -0.13116 
4   -0.188227 
5   -0.185875 
6   -0.182654 
7   0.146147 
8   0.075299 
9   0.585719 
10   -0.644553 
11   -0.755654 
12   -0.60022 
13   0.148555 
14   0.163709 
15   0.174201 
16   0.126695 
17   0.126881 
18   0.120852 
19   0.126687 
20   0.177346 
21   0.152864 
22   0.26393 
23   0.318189 
24   0.321588 
25   0.319489 
 
>  <lowdin_charges> 
25 
1   -0.447244 
2   -0.156765 
3   -0.161206 
4   -0.168933 
5   -0.166634 
6   -0.186763 
7   0.003101 
8   -0.026762 
9   0.124263 
10   -0.478365 
11   -0.515808 
12   -0.313413 
13   0.153286 
14   0.162048 
15   0.166618 
16   0.156802 
17   0.154924 
18   0.153487 
19   0.155194 
20   0.167944 
21   0.148111 
22   0.247436 
23   0.275841 
24   0.2777 
25   0.275139 
 
$$$$ 
 
