PCCDB-ID:  42095 
public computational chemistry database (PCCDB) project, http://pccdb.org 
 
 26 25  0  0  0  0  0  0  0  0999 V2000 
    1.9775   -1.1490    0.1979 C   0  0  0  0  0  0  0  0  0  0  0  0 
    8.1324    0.1246   -0.2069 C   0  0  0  0  0  0  0  0  0  0  0  0 
    2.1076    0.0391   -0.7608 C   0  0  0  0  0  0  0  0  0  0  0  0 
    3.4114    0.8234   -0.5618 C   0  0  0  0  0  0  0  0  0  0  0  0 
    3.5325    1.9921   -1.5470 C   0  0  0  0  0  0  0  0  0  0  0  0 
    5.9964    2.5761   -1.9858 C   0  0  0  0  0  0  0  0  0  0  0  0 
    7.0790    0.6061   -1.1735 C   0  0  0  0  0  0  0  0  0  0  0  0 
    4.5362    3.9355   -0.5982 N   0  0  0  0  0  0  0  0  0  0  0  0 
    4.7236    2.8255   -1.3546 N   0  0  0  0  0  0  0  0  0  0  0  0 
    6.4281   -0.0970   -1.9159 O   0  0  0  0  0  0  0  0  0  0  0  0 
    5.5308    4.6262   -0.4347 O   0  0  0  0  0  0  0  0  0  0  0  0 
    6.9546    1.9573   -1.1050 O   0  0  0  0  0  0  0  0  0  0  0  0 
    1.0366   -1.6868    0.0376 H   0  0  0  0  0  0  0  0  0  0  0  0 
    1.9989   -0.8178    1.2433 H   0  0  0  0  0  0  0  0  0  0  0  0 
    2.7995   -1.8608    0.0574 H   0  0  0  0  0  0  0  0  0  0  0  0 
    8.2024   -0.9624   -0.2561 H   0  0  0  0  0  0  0  0  0  0  0  0 
    7.8807    0.4418    0.8100 H   0  0  0  0  0  0  0  0  0  0  0  0 
    9.1003    0.5721   -0.4559 H   0  0  0  0  0  0  0  0  0  0  0  0 
    1.2507    0.7142   -0.6255 H   0  0  0  0  0  0  0  0  0  0  0  0 
    2.0531   -0.3216   -1.7977 H   0  0  0  0  0  0  0  0  0  0  0  0 
    4.2681    0.1522   -0.6854 H   0  0  0  0  0  0  0  0  0  0  0  0 
    3.4537    1.2256    0.4595 H   0  0  0  0  0  0  0  0  0  0  0  0 
    2.6741    2.6625   -1.4417 H   0  0  0  0  0  0  0  0  0  0  0  0 
    3.5458    1.6230   -2.5788 H   0  0  0  0  0  0  0  0  0  0  0  0 
    6.4387    3.5382   -2.2402 H   0  0  0  0  0  0  0  0  0  0  0  0 
    5.8403    1.9414   -2.8565 H   0  0  0  0  0  0  0  0  0  0  0  0 
  1 14  1  0  0  0  0 
  2 17  1  0  0  0  0 
  3 19  1  0  0  0  0 
  3  4  1  0  0  0  0 
  3  1  1  0  0  0  0 
  4 22  1  0  0  0  0 
  5 23  1  0  0  0  0 
  5  9  1  0  0  0  0 
  5  4  1  0  0  0  0 
  6  9  1  0  0  0  0 
  6 12  1  0  0  0  0 
  7 12  1  0  0  0  0 
  7  2  1  0  0  0  0 
  8 11  2  0  0  0  0 
  9  8  1  0  0  0  0 
 10  7  2  0  0  0  0 
 13  1  1  0  0  0  0 
 15  1  1  0  0  0  0 
 16  2  1  0  0  0  0 
 18  2  1  0  0  0  0 
 20  3  1  0  0  0  0 
 21  4  1  0  0  0  0 
 24  5  1  0  0  0  0 
 25  6  1  0  0  0  0 
 26  6  1  0  0  0  0 
M  END 
>  <HBA> 
5 
 
>  <HBD> 
0 
 
>  <TPSA> 
58.97 
 
>  <cid> 
42095 
 
>  <dipole> 
2.27 
 
>  <excitation_energy_1> 
3.219 
 
>  <excitation_energy_2> 
5.507 
 
>  <excitation_energy_3> 
5.65 
 
>  <excitation_energy_4> 
5.79 
 
>  <homo_energy> 
-6.319 
 
>  <homo_lumo_gap> 
5.08 
 
>  <logP> 
1.29 
 
>  <lumo_energy> 
-1.238 
 
>  <melting_point> 
6.9 
 
>  <molecular_refractivity> 
44.68 
 
>  <oscillator_strength_1> 
0.0011 
 
>  <oscillator_strength_2> 
0.0369 
 
>  <oscillator_strength_3> 
0.1356 
 
>  <oscillator_strength_4> 
0.0178 
 
>  <open_babel_can_smiles> 
CCCCN(COC(=O)C)N=O 
 
>  <mulliken_charges> 
26 
1   -0.443107 
2   -0.523296 
3   -0.255479 
4   -0.265401 
5   -0.135242 
6   0.072152 
7   0.607597 
8   0.167289 
9   -0.249027 
10   -0.470087 
11   -0.360697 
12   -0.437179 
13   0.145589 
14   0.144945 
15   0.148998 
16   0.184727 
17   0.19071 
18   0.189012 
19   0.135297 
20   0.136977 
21   0.164159 
22   0.144678 
23   0.172279 
24   0.157605 
25   0.191914 
26   0.185589 
 
>  <lowdin_charges> 
26 
1   -0.442054 
2   -0.461417 
3   -0.27124 
4   -0.290404 
5   -0.198682 
6   -0.088102 
7   0.210322 
8   0.065392 
9   -0.05644 
10   -0.267942 
11   -0.246791 
12   -0.192739 
13   0.151652 
14   0.147045 
15   0.150793 
16   0.175249 
17   0.182249 
18   0.182317 
19   0.141174 
20   0.140689 
21   0.156586 
22   0.1467 
23   0.163908 
24   0.153477 
25   0.176518 
26   0.171742 
 
$$$$ 
 
