PCCDB-ID:  25945 
public computational chemistry database (PCCDB) project, http://pccdb.org 
 
 18 17  0  0  0  0  0  0  0  0999 V2000 
    1.4070    0.5977   -0.0334 C   0  0  0  0  0  0  0  0  0  0  0  0 
    1.0588    2.0976   -0.0836 C   0  0  0  0  0  0  0  0  0  0  0  0 
    2.8632    0.2306    0.3326 C   0  0  0  0  0  0  0  0  0  0  0  0 
    1.3245    2.8733    1.2122 C   0  0  0  0  0  0  0  0  0  0  0  0 
    3.8710    0.7374   -0.6965 C   0  0  0  0  0  0  0  0  0  0  0  0 
    2.7053    3.2713    1.3719 O   0  0  0  0  0  0  0  0  0  0  0  0 
    4.2474    0.0810   -1.6391 O   0  0  0  0  0  0  0  0  0  0  0  0 
    4.2973    2.0075   -0.5151 O   0  0  0  0  0  0  0  0  0  0  0  0 
    1.1743    0.1517   -1.0079 H   0  0  0  0  0  0  0  0  0  0  0  0 
    0.7472    0.1112    0.6976 H   0  0  0  0  0  0  0  0  0  0  0  0 
   -0.0111    2.1842   -0.3158 H   0  0  0  0  0  0  0  0  0  0  0  0 
    1.5904    2.5929   -0.9069 H   0  0  0  0  0  0  0  0  0  0  0  0 
    2.9537   -0.8585    0.3564 H   0  0  0  0  0  0  0  0  0  0  0  0 
    3.1126    0.6109    1.3306 H   0  0  0  0  0  0  0  0  0  0  0  0 
    1.0915    2.2569    2.0873 H   0  0  0  0  0  0  0  0  0  0  0  0 
    0.6897    3.7662    1.2643 H   0  0  0  0  0  0  0  0  0  0  0  0 
    2.8123    4.1396    0.9527 H   0  0  0  0  0  0  0  0  0  0  0  0 
    3.8540    2.3930    0.2760 H   0  0  0  0  0  0  0  0  0  0  0  0 
  1  3  1  0  0  0  0 
  1 10  1  0  0  0  0 
  2  1  1  0  0  0  0 
  2  4  1  0  0  0  0 
  3 13  1  0  0  0  0 
  3 14  1  0  0  0  0 
  4 16  1  0  0  0  0 
  4  6  1  0  0  0  0 
  4 15  1  0  0  0  0 
  5  8  1  0  0  0  0 
  5  3  1  0  0  0  0 
  7  5  2  0  0  0  0 
  8 18  1  0  0  0  0 
  9  1  1  0  0  0  0 
 11  2  1  0  0  0  0 
 12  2  1  0  0  0  0 
 17  6  1  0  0  0  0 
M  END 
>  <HBA> 
3 
 
>  <HBD> 
2 
 
>  <TPSA> 
57.53 
 
>  <cid> 
25945 
 
>  <dipole> 
5.85 
 
>  <excitation_energy_1> 
5.567 
 
>  <excitation_energy_2> 
6.15 
 
>  <excitation_energy_3> 
6.708 
 
>  <excitation_energy_4> 
6.888 
 
>  <homo_energy> 
-6.787 
 
>  <homo_lumo_gap> 
7.461 
 
>  <logP> 
0.234 
 
>  <lumo_energy> 
0.675 
 
>  <melting_point> 
69.88 
 
>  <molecular_refractivity> 
29.08 
 
>  <oscillator_strength_1> 
0.0012 
 
>  <oscillator_strength_2> 
0.0054 
 
>  <oscillator_strength_3> 
0.0001 
 
>  <oscillator_strength_4> 
0.0074 
 
>  <open_babel_can_smiles> 
OCCCCC(=O)O 
 
>  <mulliken_charges> 
18 
1   -0.269826 
2   -0.289301 
3   -0.370635 
4   -0.058549 
5   0.579432 
6   -0.624639 
7   -0.455091 
8   -0.607939 
9   0.164139 
10   0.14331 
11   0.146383 
12   0.156851 
13   0.172897 
14   0.155946 
15   0.161831 
16   0.144991 
17   0.412199 
18   0.438001 
 
>  <lowdin_charges> 
18 
1   -0.270833 
2   -0.301676 
3   -0.318364 
4   -0.136075 
5   0.190256 
6   -0.463732 
7   -0.259073 
8   -0.383448 
9   0.158211 
10   0.148336 
11   0.153972 
12   0.154485 
13   0.169758 
14   0.154689 
15   0.152629 
16   0.144556 
17   0.355546 
18   0.350762 
 
$$$$ 
 
