PCCDB-ID:  10797 
public computational chemistry database (PCCDB) project, http://pccdb.org 
 
 12 12  0  0  0  0  0  0  0  0999 V2000 
    1.0317   -0.1116   -0.0569 C   0  0  0  0  0  0  0  0  0  0  0  0 
    4.6852    0.6254   -0.0624 C   0  0  0  0  0  0  0  0  0  0  0  0 
    3.3425    1.1339   -0.0538 C   0  0  0  0  0  0  0  0  0  0  0  0 
    4.5727   -0.7291   -0.0754 C   0  0  0  0  0  0  0  0  0  0  0  0 
    2.5119    0.0520   -0.0631 C   0  0  0  0  0  0  0  0  0  0  0  0 
    3.2572   -1.0981   -0.0761 O   0  0  0  0  0  0  0  0  0  0  0  0 
    0.5496    0.8696   -0.0806 H   0  0  0  0  0  0  0  0  0  0  0  0 
    0.6871   -0.6405    0.8407 H   0  0  0  0  0  0  0  0  0  0  0  0 
    0.6867   -0.6841   -0.9269 H   0  0  0  0  0  0  0  0  0  0  0  0 
    5.6036    1.1960   -0.0599 H   0  0  0  0  0  0  0  0  0  0  0  0 
    3.0360    2.1710   -0.0432 H   0  0  0  0  0  0  0  0  0  0  0  0 
    5.2856   -1.5393   -0.0868 H   0  0  0  0  0  0  0  0  0  0  0  0 
  1  8  1  0  0  0  0 
  2 10  1  0  0  0  0 
  2  3  1  0  0  0  0 
  3 11  1  0  0  0  0 
  4  2  2  0  0  0  0 
  5  1  1  0  0  0  0 
  5  3  2  0  0  0  0 
  6  4  1  0  0  0  0 
  6  5  1  0  0  0  0 
  7  1  1  0  0  0  0 
  9  1  1  0  0  0  0 
 12  4  1  0  0  0  0 
M  END 
>  <HBA> 
1 
 
>  <HBD> 
0 
 
>  <TPSA> 
13.14 
 
>  <cid> 
10797 
 
>  <dipole> 
0.55 
 
>  <excitation_energy_1> 
5.449 
 
>  <excitation_energy_2> 
5.841 
 
>  <excitation_energy_3> 
5.945 
 
>  <excitation_energy_4> 
6.168 
 
>  <homo_energy> 
-5.782 
 
>  <homo_lumo_gap> 
6.416 
 
>  <logP> 
1.588 
 
>  <lumo_energy> 
0.634 
 
>  <melting_point> 
6.38 
 
>  <molecular_refractivity> 
23.67 
 
>  <oscillator_strength_1> 
0.0016 
 
>  <oscillator_strength_2> 
0.0057 
 
>  <oscillator_strength_3> 
0.2116 
 
>  <oscillator_strength_4> 
0.0107 
 
>  <open_babel_can_smiles> 
Cc1ccco1 
 
>  <mulliken_charges> 
12 
1   -0.525774 
2   -0.17959 
3   -0.207391 
4   0.078026 
5   0.346295 
6   -0.432995 
7   0.164445 
8   0.169829 
9   0.16986 
10   0.136625 
11   0.131528 
12   0.149142 
 
>  <lowdin_charges> 
12 
1   -0.441415 
2   -0.206691 
3   -0.223498 
4   -0.087968 
5   0.067985 
6   -0.108629 
7   0.167151 
8   0.166063 
9   0.166588 
10   0.167236 
11   0.163747 
12   0.16943 
 
$$$$ 
 
