PCCDB-ID:  16354 
public computational chemistry database (PCCDB) project, http://pccdb.org 
 
 35 36  0  0  0  0  0  0  0  0999 V2000 
    1.4221   -2.1079   -2.0444 C   0  0  0  0  0  0  0  0  0  0  0  0 
    2.5089    0.3600   -0.0814 C   0  0  0  0  0  0  0  0  0  0  0  0 
    2.0971   -2.0284   -0.6686 C   0  0  0  0  0  0  0  0  0  0  0  0 
   12.7597   -2.2174   -4.2876 C   0  0  0  0  0  0  0  0  0  0  0  0 
   12.2466   -1.0254   -3.7607 C   0  0  0  0  0  0  0  0  0  0  0  0 
   11.9531   -3.3555   -4.3448 C   0  0  0  0  0  0  0  0  0  0  0  0 
   10.9389   -0.9657   -3.2928 C   0  0  0  0  0  0  0  0  0  0  0  0 
   10.6407   -3.3017   -3.8785 C   0  0  0  0  0  0  0  0  0  0  0  0 
    6.4852    0.0605   -1.4546 C   0  0  0  0  0  0  0  0  0  0  0  0 
    6.1573   -2.2555   -2.0362 C   0  0  0  0  0  0  0  0  0  0  0  0 
    5.1822    0.1398   -0.9867 C   0  0  0  0  0  0  0  0  0  0  0  0 
    4.8567   -2.1891   -1.5737 C   0  0  0  0  0  0  0  0  0  0  0  0 
   10.1241   -2.1106   -3.3497 C   0  0  0  0  0  0  0  0  0  0  0  0 
    7.0022   -1.1301   -1.9840 C   0  0  0  0  0  0  0  0  0  0  0  0 
    4.3270   -0.9894   -1.0216 C   0  0  0  0  0  0  0  0  0  0  0  0 
    8.7792   -2.1723   -2.9063 N   0  0  0  0  0  0  0  0  0  0  0  0 
    8.3331   -1.0882   -2.4285 N   0  0  0  0  0  0  0  0  0  0  0  0 
    3.0390   -0.9205   -0.5231 N   0  0  0  0  0  0  0  0  0  0  0  0 
    0.7399   -2.9651   -2.0876 H   0  0  0  0  0  0  0  0  0  0  0  0 
    2.1641   -2.2201   -2.8414 H   0  0  0  0  0  0  0  0  0  0  0  0 
    0.8417   -1.2013   -2.2490 H   0  0  0  0  0  0  0  0  0  0  0  0 
    1.4858    0.2176    0.2720 H   0  0  0  0  0  0  0  0  0  0  0  0 
    2.4920    1.1099   -0.8858 H   0  0  0  0  0  0  0  0  0  0  0  0 
    3.0968    0.7682    0.7506 H   0  0  0  0  0  0  0  0  0  0  0  0 
    2.6129   -2.9668   -0.4420 H   0  0  0  0  0  0  0  0  0  0  0  0 
    1.3366   -1.9118    0.1107 H   0  0  0  0  0  0  0  0  0  0  0  0 
   13.7833   -2.2553   -4.6509 H   0  0  0  0  0  0  0  0  0  0  0  0 
   12.8752   -0.1394   -3.7166 H   0  0  0  0  0  0  0  0  0  0  0  0 
   12.3458   -4.2831   -4.7528 H   0  0  0  0  0  0  0  0  0  0  0  0 
   10.5251   -0.0521   -2.8807 H   0  0  0  0  0  0  0  0  0  0  0  0 
    9.9912   -4.1715   -3.9109 H   0  0  0  0  0  0  0  0  0  0  0  0 
    7.1359    0.9294   -1.4188 H   0  0  0  0  0  0  0  0  0  0  0  0 
    6.5465   -3.1782   -2.4527 H   0  0  0  0  0  0  0  0  0  0  0  0 
    4.8283    1.0832   -0.5901 H   0  0  0  0  0  0  0  0  0  0  0  0 
    4.2400   -3.0771   -1.6442 H   0  0  0  0  0  0  0  0  0  0  0  0 
  1  3  1  0  0  0  0 
  2 22  1  0  0  0  0 
  2 24  1  0  0  0  0 
  3 18  1  0  0  0  0 
  3 25  1  0  0  0  0 
  3 26  1  0  0  0  0 
  4  5  1  0  0  0  0 
  5 28  1  0  0  0  0 
  5  7  2  0  0  0  0 
  6  4  2  0  0  0  0 
  6  8  1  0  0  0  0 
  7 30  1  0  0  0  0 
  8 13  2  0  0  0  0 
  9 32  1  0  0  0  0 
  9 11  2  0  0  0  0 
 10 14  2  0  0  0  0 
 10 12  1  0  0  0  0 
 11 34  1  0  0  0  0 
 12 15  2  0  0  0  0 
 13  7  1  0  0  0  0 
 13 16  1  0  0  0  0 
 14  9  1  0  0  0  0 
 15 11  1  0  0  0  0 
 15 18  1  0  0  0  0 
 16 17  1  0  0  0  0 
 17 14  1  0  0  0  0 
 18  2  1  0  0  0  0 
 19  1  1  0  0  0  0 
 20  1  1  0  0  0  0 
 21  1  1  0  0  0  0 
 23  2  1  0  0  0  0 
 27  4  1  0  0  0  0 
 29  6  1  0  0  0  0 
 31  8  1  0  0  0  0 
 33 10  1  0  0  0  0 
 35 12  1  0  0  0  0 
M  RAD  2  16   2  17   2 
M  END 
>  <HBA> 
3 
 
>  <HBD> 
0 
 
>  <TPSA> 
27.96 
 
>  <cid> 
16354 
 
>  <dipole> 
4.11 
 
>  <excitation_energy_1> 
2.685 
 
>  <excitation_energy_2> 
3.099 
 
>  <excitation_energy_3> 
4.13 
 
>  <excitation_energy_4> 
4.167 
 
>  <homo_energy> 
-5.067 
 
>  <homo_lumo_gap> 
3.352 
 
>  <logP> 
4.558 
 
>  <lumo_energy> 
-1.714 
 
>  <melting_point> 
70.5 
 
>  <molecular_refractivity> 
76.07 
 
>  <oscillator_strength_1> 
0.0001 
 
>  <oscillator_strength_2> 
0.9404 
 
>  <oscillator_strength_3> 
0.0053 
 
>  <oscillator_strength_4> 
0.0034 
 
>  <open_babel_can_smiles> 
CCN(c1ccc(cc1)[N][N]c1ccccc1)C 
 
>  <mulliken_charges> 
35 
1   -0.443964 
2   -0.316617 
3   -0.151083 
4   -0.121266 
5   -0.14638 
6   -0.138728 
7   -0.127292 
8   -0.144285 
9   -0.147947 
10   -0.137072 
11   -0.206756 
12   -0.204152 
13   0.273525 
14   0.272132 
15   0.381907 
16   -0.327072 
17   -0.318611 
18   -0.473529 
19   0.148077 
20   0.166251 
21   0.151226 
22   0.158925 
23   0.160379 
24   0.166811 
25   0.160372 
26   0.148113 
27   0.127931 
28   0.129825 
29   0.129124 
30   0.149569 
31   0.134498 
32   0.136711 
33   0.152859 
34   0.127185 
35   0.129333 
 
>  <lowdin_charges> 
35 
1   -0.458531 
2   -0.352408 
3   -0.196262 
4   -0.152668 
5   -0.155956 
6   -0.158936 
7   -0.156882 
8   -0.153605 
9   -0.134392 
10   -0.138839 
11   -0.216211 
12   -0.205666 
13   0.01505 
14   -0.018645 
15   0.071709 
16   -0.105429 
17   -0.082257 
18   -0.102746 
19   0.155224 
20   0.160203 
21   0.152872 
22   0.15867 
23   0.149302 
24   0.155945 
25   0.152615 
26   0.150608 
27   0.155861 
28   0.15748 
29   0.15785 
30   0.171107 
31   0.164599 
32   0.166029 
33   0.172877 
34   0.161377 
35   0.160056 
 
$$$$ 
 
