PCCDB-ID:  16994 
public computational chemistry database (PCCDB) project, http://pccdb.org 
 
 34 33  0  0  0  0  0  0  0  0999 V2000 
    2.0352   -1.3229   -3.2718 C   0  0  0  0  0  0  0  0  0  0  0  0 
   10.4449   -4.5072   -2.7365 C   0  0  0  0  0  0  0  0  0  0  0  0 
    7.1159   -3.5120    1.0981 C   0  0  0  0  0  0  0  0  0  0  0  0 
    3.4366   -1.5713   -2.7057 C   0  0  0  0  0  0  0  0  0  0  0  0 
   10.5352   -3.0973   -2.1400 C   0  0  0  0  0  0  0  0  0  0  0  0 
    3.4776   -1.5043   -1.1742 C   0  0  0  0  0  0  0  0  0  0  0  0 
    9.5817   -2.0711   -2.7728 C   0  0  0  0  0  0  0  0  0  0  0  0 
    4.8582   -1.7540   -0.5809 C   0  0  0  0  0  0  0  0  0  0  0  0 
    8.0999   -2.4020   -2.6448 C   0  0  0  0  0  0  0  0  0  0  0  0 
    6.9880   -4.9539   -1.3068 O   0  0  0  0  0  0  0  0  0  0  0  0 
    5.2630   -3.1025   -0.8970 O   0  0  0  0  0  0  0  0  0  0  0  0 
    7.7335   -2.4288   -1.2393 O   0  0  0  0  0  0  0  0  0  0  0  0 
    6.7858   -3.6250   -0.6817 P   0  0  0  0  0  0  0  0  0  0  0  0 
    2.0333   -1.3762   -4.3662 H   0  0  0  0  0  0  0  0  0  0  0  0 
    1.6574   -0.3332   -2.9857 H   0  0  0  0  0  0  0  0  0  0  0  0 
    1.3218   -2.0693   -2.9017 H   0  0  0  0  0  0  0  0  0  0  0  0 
   11.2174   -5.1566   -2.3088 H   0  0  0  0  0  0  0  0  0  0  0  0 
   10.5950   -4.4895   -3.8240 H   0  0  0  0  0  0  0  0  0  0  0  0 
    9.4756   -4.9748   -2.5333 H   0  0  0  0  0  0  0  0  0  0  0  0 
    6.4515   -4.2010    1.6267 H   0  0  0  0  0  0  0  0  0  0  0  0 
    6.9584   -2.4967    1.4730 H   0  0  0  0  0  0  0  0  0  0  0  0 
    8.1523   -3.8023    1.2874 H   0  0  0  0  0  0  0  0  0  0  0  0 
    4.1366   -0.8295   -3.1178 H   0  0  0  0  0  0  0  0  0  0  0  0 
    3.7992   -2.5538   -3.0287 H   0  0  0  0  0  0  0  0  0  0  0  0 
   11.5595   -2.7175   -2.2509 H   0  0  0  0  0  0  0  0  0  0  0  0 
   10.3417   -3.1422   -1.0607 H   0  0  0  0  0  0  0  0  0  0  0  0 
    2.7759   -2.2348   -0.7503 H   0  0  0  0  0  0  0  0  0  0  0  0 
    3.1464   -0.5132   -0.8325 H   0  0  0  0  0  0  0  0  0  0  0  0 
    9.7999   -1.9744   -3.8466 H   0  0  0  0  0  0  0  0  0  0  0  0 
    9.7572   -1.0837   -2.3264 H   0  0  0  0  0  0  0  0  0  0  0  0 
    4.8325   -1.6354    0.5105 H   0  0  0  0  0  0  0  0  0  0  0  0 
    5.5938   -1.0489   -0.9862 H   0  0  0  0  0  0  0  0  0  0  0  0 
    7.8637   -3.3694   -3.0957 H   0  0  0  0  0  0  0  0  0  0  0  0 
    7.4895   -1.6318   -3.1304 H   0  0  0  0  0  0  0  0  0  0  0  0 
  1 15  1  0  0  0  0 
  1 16  1  0  0  0  0 
  1  4  1  0  0  0  0 
  2 19  1  0  0  0  0 
  2 17  1  0  0  0  0 
  2  5  1  0  0  0  0 
  3 22  1  0  0  0  0 
  3 21  1  0  0  0  0 
  3 20  1  0  0  0  0 
  4  6  1  0  0  0  0 
  5 26  1  0  0  0  0 
  6 28  1  0  0  0  0 
  6 27  1  0  0  0  0 
  6  8  1  0  0  0  0 
  7  9  1  0  0  0  0 
  7 30  1  0  0  0  0 
  7  5  1  0  0  0  0 
  8 31  1  0  0  0  0 
  9 12  1  0  0  0  0 
 10 13  2  0  0  0  0 
 11 13  1  0  0  0  0 
 11  8  1  0  0  0  0 
 12 13  1  0  0  0  0 
 13  3  1  0  0  0  0 
 14  1  1  0  0  0  0 
 18  2  1  0  0  0  0 
 23  4  1  0  0  0  0 
 24  4  1  0  0  0  0 
 25  5  1  0  0  0  0 
 29  7  1  0  0  0  0 
 32  8  1  0  0  0  0 
 33  9  1  0  0  0  0 
 34  9  1  0  0  0  0 
M  END 
>  <HBA> 
3 
 
>  <HBD> 
0 
 
>  <TPSA> 
45.34 
 
>  <cid> 
16994 
 
>  <dipole> 
3.94 
 
>  <excitation_energy_1> 
6.965 
 
>  <excitation_energy_2> 
7.011 
 
>  <excitation_energy_3> 
7.342 
 
>  <excitation_energy_4> 
7.399 
 
>  <homo_energy> 
-7.559 
 
>  <homo_lumo_gap> 
9.214 
 
>  <logP> 
3.443 
 
>  <lumo_energy> 
1.654 
 
>  <melting_point> 
-31.02 
 
>  <molecular_refractivity> 
56.21 
 
>  <oscillator_strength_1> 
0.0239 
 
>  <oscillator_strength_2> 
0.02 
 
>  <oscillator_strength_3> 
0.0022 
 
>  <oscillator_strength_4> 
0.0048 
 
>  <open_babel_can_smiles> 
CCCCOP(=O)(OCCCC)C 
 
>  <mulliken_charges> 
34 
1   -0.443219 
2   -0.466626 
3   -0.674433 
4   -0.252675 
5   -0.24837 
6   -0.266523 
7   -0.26736 
8   -0.05365 
9   -0.05349 
10   -0.554395 
11   -0.531091 
12   -0.570617 
13   1.168707 
14   0.146178 
15   0.1394 
16   0.146538 
17   0.141051 
18   0.133304 
19   0.188617 
20   0.196769 
21   0.182303 
22   0.19975 
23   0.12536 
24   0.165074 
25   0.13114 
26   0.143738 
27   0.150679 
28   0.133588 
29   0.134711 
30   0.140404 
31   0.137901 
32   0.152577 
33   0.181271 
34   0.143391 
 
>  <lowdin_charges> 
34 
1   -0.442217 
2   -0.454995 
3   -0.632061 
4   -0.2757 
5   -0.271632 
6   -0.281592 
7   -0.280286 
8   -0.122434 
9   -0.126029 
10   -0.592401 
11   -0.40614 
12   -0.419008 
13   1.06965 
14   0.14981 
15   0.144591 
16   0.150005 
17   0.151701 
18   0.140572 
19   0.166661 
20   0.191943 
21   0.180867 
22   0.191728 
23   0.137803 
24   0.155071 
25   0.141421 
26   0.142899 
27   0.152598 
28   0.146658 
29   0.145865 
30   0.147175 
31   0.137836 
32   0.148619 
33   0.165294 
34   0.145729 
 
$$$$ 
 
