PCCDB-ID:  30926 
public computational chemistry database (PCCDB) project, http://pccdb.org 
 
 11 10  0  0  0  0  0  0  0  0999 V2000 
    1.0167    0.0428    0.1542 C   0  0  0  0  0  0  0  0  0  0  0  0 
    2.5182   -0.0788    0.0306 C   0  0  0  0  0  0  0  0  0  0  0  0 
    3.3225   -0.7806    0.7432 N   0  0  0  0  0  0  0  0  0  0  0  0 
    3.0635    0.6069   -1.0468 N   0  0  0  0  0  0  0  0  0  0  0  0 
    4.4781    0.6676   -1.0349 O   0  0  0  0  0  0  0  0  0  0  0  0 
    0.6535   -0.5660    0.9856 H   0  0  0  0  0  0  0  0  0  0  0  0 
    0.5255   -0.2889   -0.7667 H   0  0  0  0  0  0  0  0  0  0  0  0 
    0.7173    1.0824    0.3364 H   0  0  0  0  0  0  0  0  0  0  0  0 
    2.8364   -1.3166    1.4592 H   0  0  0  0  0  0  0  0  0  0  0  0 
    2.7176    1.5555   -1.1670 H   0  0  0  0  0  0  0  0  0  0  0  0 
    4.6891    0.0779   -0.2704 H   0  0  0  0  0  0  0  0  0  0  0  0 
  1  8  1  0  0  0  0 
  1  6  1  0  0  0  0 
  2  1  1  0  0  0  0 
  2  3  2  0  0  0  0 
  3  9  1  0  0  0  0 
  4  5  1  0  0  0  0 
  4  2  1  0  0  0  0 
  5 11  1  0  0  0  0 
  7  1  1  0  0  0  0 
 10  4  1  0  0  0  0 
M  END 
>  <HBA> 
3 
 
>  <HBD> 
2 
 
>  <TPSA> 
58.61 
 
>  <cid> 
30926 
 
>  <dipole> 
3.64 
 
>  <excitation_energy_1> 
5.362 
 
>  <excitation_energy_2> 
5.795 
 
>  <excitation_energy_3> 
6.109 
 
>  <excitation_energy_4> 
6.234 
 
>  <homo_energy> 
-5.954 
 
>  <homo_lumo_gap> 
6.378 
 
>  <logP> 
0.453 
 
>  <lumo_energy> 
0.425 
 
>  <melting_point> 
102.11 
 
>  <molecular_refractivity> 
18.85 
 
>  <oscillator_strength_1> 
0.0008 
 
>  <oscillator_strength_2> 
0.1028 
 
>  <oscillator_strength_3> 
0.0329 
 
>  <oscillator_strength_4> 
0.0109 
 
>  <open_babel_can_smiles> 
CC(=N)NO 
 
>  <mulliken_charges> 
11 
1   -0.516152 
2   0.45511 
3   -0.675823 
4   -0.308304 
5   -0.53977 
6   0.169261 
7   0.19093 
8   0.169552 
9   0.292913 
10   0.33167 
11   0.430612 
 
>  <lowdin_charges> 
11 
1   -0.461725 
2   0.082131 
3   -0.452367 
4   -0.165421 
5   -0.41272 
6   0.169955 
7   0.178411 
8   0.166512 
9   0.263798 
10   0.278488 
11   0.352938 
 
$$$$ 
 
