PCCDB-ID:  12214 
public computational chemistry database (PCCDB) project, http://pccdb.org 
 
 23 22  0  0  1  0  0  0  0  0999 V2000 
    1.3386   -2.6673   -2.6979 C   0  0  0  0  0  0  0  0  0  0  0  0 
    2.5151   -1.8574   -2.1229 C   0  0  0  0  0  0  0  0  0  0  0  0 
    3.6341   -6.0358    0.0754 C   0  0  0  0  0  0  0  0  0  0  0  0 
    4.6692   -5.0331    0.5816 C   0  0  2  0  0  0  0  0  0  0  0  0 
    2.7821   -2.2402   -0.6821 C   0  0  0  0  0  0  0  0  0  0  0  0 
    4.1797   -3.5943    0.7455 C   0  0  1  0  0  0  0  0  0  0  0  0 
    4.2002   -7.3303   -0.0092 O   0  0  0  0  0  0  0  0  0  0  0  0 
    5.8172   -5.0325   -0.2863 O   0  0  0  0  0  0  0  0  0  0  0  0 
    2.1622   -1.8297    0.2700 O   0  0  0  0  0  0  0  0  0  0  0  0 
    5.1864   -2.7734    1.2298 O   0  0  0  0  0  0  0  0  0  0  0  0 
    3.7841   -3.1674   -0.5915 O   0  0  0  0  0  0  0  0  0  0  0  0 
    1.1261   -2.3516   -3.7241 H   0  0  0  0  0  0  0  0  0  0  0  0 
    0.4365   -2.5146   -2.0974 H   0  0  0  0  0  0  0  0  0  0  0  0 
    1.5647   -3.7390   -2.7128 H   0  0  0  0  0  0  0  0  0  0  0  0 
    2.2695   -0.7910   -2.1321 H   0  0  0  0  0  0  0  0  0  0  0  0 
    3.4174   -2.0120   -2.7217 H   0  0  0  0  0  0  0  0  0  0  0  0 
    3.2422   -5.6988   -0.8988 H   0  0  0  0  0  0  0  0  0  0  0  0 
    2.7897   -6.0970    0.7709 H   0  0  0  0  0  0  0  0  0  0  0  0 
    5.0468   -5.3738    1.5506 H   0  0  0  0  0  0  0  0  0  0  0  0 
    3.3198   -3.4960    1.4080 H   0  0  0  0  0  0  0  0  0  0  0  0 
    5.0660   -7.2112   -0.4361 H   0  0  0  0  0  0  0  0  0  0  0  0 
    5.5181   -4.6390   -1.1262 H   0  0  0  0  0  0  0  0  0  0  0  0 
    6.0066   -3.0671    0.7911 H   0  0  0  0  0  0  0  0  0  0  0  0 
  1  2  1  0  0  0  0 
  1 13  1  0  0  0  0 
  2  5  1  0  0  0  0 
  3  4  1  0  0  0  0 
  3 18  1  0  0  0  0 
  4  6  1  0  0  0  0 
  4 19  1  1  0  0  0 
  5 11  1  0  0  0  0 
  5  9  2  0  0  0  0 
  6 10  1  0  0  0  0 
  6 20  1  1  0  0  0 
  7  3  1  0  0  0  0 
  8  4  1  0  0  0  0 
 11  6  1  0  0  0  0 
 12  1  1  0  0  0  0 
 14  1  1  0  0  0  0 
 15  2  1  0  0  0  0 
 16  2  1  0  0  0  0 
 17  3  1  0  0  0  0 
 21  7  1  0  0  0  0 
 22  8  1  0  0  0  0 
 23 10  1  0  0  0  0 
M  END 
>  <HBA> 
5 
 
>  <HBD> 
3 
 
>  <TPSA> 
86.99 
 
>  <cid> 
12214 
 
>  <dipole> 
3.14 
 
>  <excitation_energy_1> 
5.675 
 
>  <excitation_energy_2> 
6.445 
 
>  <excitation_energy_3> 
6.683 
 
>  <excitation_energy_4> 
6.933 
 
>  <homo_energy> 
-7.312 
 
>  <homo_lumo_gap> 
7.271 
 
>  <logP> 
-1.389 
 
>  <lumo_energy> 
-0.041 
 
>  <melting_point> 
41.73 
 
>  <molecular_refractivity> 
35.73 
 
>  <oscillator_strength_1> 
0.0011 
 
>  <oscillator_strength_2> 
0.0014 
 
>  <oscillator_strength_3> 
0.0016 
 
>  <oscillator_strength_4> 
0.0229 
 
>  <open_babel_can_smiles> 
OC[C@H]([C@H](OC(=O)CC)O)O 
 
>  <mulliken_charges> 
23 
1   -0.455607 
2   -0.333948 
3   -0.031037 
4   0.043111 
5   0.620641 
6   0.307879 
7   -0.616658 
8   -0.645375 
9   -0.455901 
10   -0.594768 
11   -0.502051 
12   0.160619 
13   0.173414 
14   0.156975 
15   0.177441 
16   0.157391 
17   0.123923 
18   0.151758 
19   0.174178 
20   0.18031 
21   0.398403 
22   0.40575 
23   0.403552 
 
>  <lowdin_charges> 
23 
1   -0.433615 
2   -0.292788 
3   -0.151236 
4   -0.046363 
5   0.210288 
6   0.078388 
7   -0.462006 
8   -0.462789 
9   -0.249981 
10   -0.415727 
11   -0.233437 
12   0.158311 
13   0.163117 
14   0.151555 
15   0.169888 
16   0.159684 
17   0.128614 
18   0.155016 
19   0.164632 
20   0.168481 
21   0.343642 
22   0.347331 
23   0.348995 
 
$$$$ 
 
