PCCDB-ID:  25775 
public computational chemistry database (PCCDB) project, http://pccdb.org 
 
 22 21  0  0  0  0  0  0  0  0999 V2000 
    4.9223   -5.2110    1.0709 C   0  0  0  0  0  0  0  0  0  0  0  0 
   -3.2905   -5.7107   -0.8716 C   0  0  0  0  0  0  0  0  0  0  0  0 
    0.7272   -3.0050   -0.0238 C   0  0  0  0  0  0  0  0  0  0  0  0 
    2.2454   -2.9753   -0.1572 C   0  0  0  0  0  0  0  0  0  0  0  0 
    0.1174   -4.2214   -0.6898 C   0  0  0  0  0  0  0  0  0  0  0  0 
    2.9051   -4.0636    0.6711 C   0  0  0  0  0  0  0  0  0  0  0  0 
   -1.4087   -4.3649   -0.4936 C   0  0  0  0  0  0  0  0  0  0  0  0 
    0.7416   -5.0217   -1.3503 O   0  0  0  0  0  0  0  0  0  0  0  0 
    2.3603   -4.7005    1.5472 O   0  0  0  0  0  0  0  0  0  0  0  0 
   -2.0796   -3.5227    0.0660 O   0  0  0  0  0  0  0  0  0  0  0  0 
    4.2001   -4.2147    0.3280 O   0  0  0  0  0  0  0  0  0  0  0  0 
   -1.8736   -5.5027   -1.0150 O   0  0  0  0  0  0  0  0  0  0  0  0 
    5.9341   -5.2021    0.6647 H   0  0  0  0  0  0  0  0  0  0  0  0 
    4.4632   -6.1940    0.9380 H   0  0  0  0  0  0  0  0  0  0  0  0 
    4.9334   -4.9644    2.1361 H   0  0  0  0  0  0  0  0  0  0  0  0 
   -3.8445   -4.9197   -1.3841 H   0  0  0  0  0  0  0  0  0  0  0  0 
   -3.5689   -5.7151    0.1855 H   0  0  0  0  0  0  0  0  0  0  0  0 
   -3.4891   -6.6798   -1.3282 H   0  0  0  0  0  0  0  0  0  0  0  0 
    0.2714   -2.1110   -0.4694 H   0  0  0  0  0  0  0  0  0  0  0  0 
    0.4213   -2.9985    1.0280 H   0  0  0  0  0  0  0  0  0  0  0  0 
    2.6366   -2.0099    0.1878 H   0  0  0  0  0  0  0  0  0  0  0  0 
    2.5599   -3.0896   -1.1986 H   0  0  0  0  0  0  0  0  0  0  0  0 
  1 15  1  0  0  0  0 
  2 17  1  0  0  0  0 
  3 20  1  0  0  0  0 
  4  3  1  0  0  0  0 
  4 21  1  0  0  0  0 
  4  6  1  0  0  0  0 
  5  7  1  0  0  0  0 
  5  3  1  0  0  0  0 
  6  9  2  0  0  0  0 
  7 10  2  0  0  0  0 
  8  5  2  0  0  0  0 
 11  6  1  0  0  0  0 
 11  1  1  0  0  0  0 
 12  2  1  0  0  0  0 
 12  7  1  0  0  0  0 
 13  1  1  0  0  0  0 
 14  1  1  0  0  0  0 
 16  2  1  0  0  0  0 
 18  2  1  0  0  0  0 
 19  3  1  0  0  0  0 
 22  4  1  0  0  0  0 
M  END 
>  <HBA> 
5 
 
>  <HBD> 
0 
 
>  <TPSA> 
69.67 
 
>  <cid> 
25775 
 
>  <dipole> 
0.7 
 
>  <excitation_energy_1> 
3.352 
 
>  <excitation_energy_2> 
4.714 
 
>  <excitation_energy_3> 
5.083 
 
>  <excitation_energy_4> 
5.556 
 
>  <homo_energy> 
-6.944 
 
>  <homo_lumo_gap> 
4.977 
 
>  <logP> 
-0.318 
 
>  <lumo_energy> 
-1.967 
 
>  <melting_point> 
19.05 
 
>  <molecular_refractivity> 
38.53 
 
>  <oscillator_strength_1> 
0.0 
 
>  <oscillator_strength_2> 
0.003 
 
>  <oscillator_strength_3> 
0.0004 
 
>  <oscillator_strength_4> 
0.0003 
 
>  <open_babel_can_smiles> 
COC(=O)CCC(=O)C(=O)OC 
 
>  <mulliken_charges> 
22 
1   -0.219158 
2   -0.224982 
3   -0.353522 
4   -0.364136 
5   0.403917 
6   0.639179 
7   0.575046 
8   -0.419453 
9   -0.483541 
10   -0.46854 
11   -0.45089 
12   -0.424362 
13   0.165042 
14   0.175803 
15   0.168819 
16   0.17466 
17   0.177391 
18   0.176112 
19   0.182696 
20   0.202282 
21   0.178232 
22   0.189407 
 
>  <lowdin_charges> 
22 
1   -0.275263 
2   -0.273723 
3   -0.302445 
4   -0.299386 
5   0.146435 
6   0.202794 
7   0.160825 
8   -0.187683 
9   -0.269536 
10   -0.247908 
11   -0.189197 
12   -0.154389 
13   0.15998 
14   0.161713 
15   0.156759 
16   0.163478 
17   0.162241 
18   0.166657 
19   0.179631 
20   0.186476 
21   0.175122 
22   0.177418 
 
$$$$ 
 
