PCCDB-ID:  26504 
public computational chemistry database (PCCDB) project, http://pccdb.org 
 
 32 31  0  0  0  0  0  0  0  0999 V2000 
    2.2093   -0.7463   -0.3032 C   0  0  0  0  0  0  0  0  0  0  0  0 
    1.2432    1.4365    0.5540 C   0  0  0  0  0  0  0  0  0  0  0  0 
    5.5561    0.4503    0.8973 C   0  0  0  0  0  0  0  0  0  0  0  0 
    5.7709   -2.1262    2.7079 C   0  0  0  0  0  0  0  0  0  0  0  0 
    4.9940   -0.8092    2.8786 C   0  0  0  0  0  0  0  0  0  0  0  0 
    3.2612    0.4425    1.6821 C   0  0  0  0  0  0  0  0  0  0  0  0 
    2.5200    0.6101    0.3421 C   0  0  0  0  0  0  0  0  0  0  0  0 
    7.5704   -2.0522    4.3868 C   0  0  0  0  0  0  0  0  0  0  0  0 
    8.2124   -1.1993    3.6721 N   0  0  0  0  0  0  0  0  0  0  0  0 
    7.9171   -2.5219    5.6670 N   0  0  0  0  0  0  0  0  0  0  0  0 
    6.3830   -2.6157    3.9386 N   0  0  0  0  0  0  0  0  0  0  0  0 
    4.5143   -0.3083    1.5863 N   0  0  0  0  0  0  0  0  0  0  0  0 
    1.7380   -0.6185   -1.2849 H   0  0  0  0  0  0  0  0  0  0  0  0 
    1.5182   -1.3244    0.3254 H   0  0  0  0  0  0  0  0  0  0  0  0 
    3.1206   -1.3388   -0.4245 H   0  0  0  0  0  0  0  0  0  0  0  0 
    0.7182    1.5991   -0.3944 H   0  0  0  0  0  0  0  0  0  0  0  0 
    1.4650    2.4194    0.9873 H   0  0  0  0  0  0  0  0  0  0  0  0 
    0.5490    0.9219    1.2318 H   0  0  0  0  0  0  0  0  0  0  0  0 
    6.5011   -0.0977    0.9275 H   0  0  0  0  0  0  0  0  0  0  0  0 
    5.7308    1.4420    1.3589 H   0  0  0  0  0  0  0  0  0  0  0  0 
    5.2910    0.6048   -0.1533 H   0  0  0  0  0  0  0  0  0  0  0  0 
    6.5769   -1.9999    1.9837 H   0  0  0  0  0  0  0  0  0  0  0  0 
    5.0941   -2.8982    2.3254 H   0  0  0  0  0  0  0  0  0  0  0  0 
    5.6327   -0.0769    3.4006 H   0  0  0  0  0  0  0  0  0  0  0  0 
    4.1252   -0.9978    3.5218 H   0  0  0  0  0  0  0  0  0  0  0  0 
    2.5978   -0.1037    2.3660 H   0  0  0  0  0  0  0  0  0  0  0  0 
    3.4234    1.4450    2.1304 H   0  0  0  0  0  0  0  0  0  0  0  0 
    3.1658    1.1765   -0.3439 H   0  0  0  0  0  0  0  0  0  0  0  0 
    9.1177   -0.9803    4.0904 H   0  0  0  0  0  0  0  0  0  0  0  0 
    8.8598   -2.2747    5.9433 H   0  0  0  0  0  0  0  0  0  0  0  0 
    7.7494   -3.5150    5.7959 H   0  0  0  0  0  0  0  0  0  0  0  0 
    5.7304   -2.8302    4.6840 H   0  0  0  0  0  0  0  0  0  0  0  0 
  1 14  1  0  0  0  0 
  1  7  1  0  0  0  0 
  2 17  1  0  0  0  0 
  2 18  1  0  0  0  0 
  3 19  1  0  0  0  0 
  3 20  1  0  0  0  0 
  3 12  1  0  0  0  0 
  4  5  1  0  0  0  0 
  4 11  1  0  0  0  0 
  5 24  1  0  0  0  0 
  5 25  1  0  0  0  0 
  6 27  1  0  0  0  0 
  6 26  1  0  0  0  0 
  7  2  1  0  0  0  0 
  7  6  1  0  0  0  0 
  8 10  2  0  0  0  0 
  9 29  1  0  0  0  0 
  9  8  1  0  0  0  0 
 10 31  1  0  0  0  0 
 10 30  1  0  0  0  0 
 11  8  1  0  0  0  0 
 11 32  1  0  0  0  0 
 12  6  1  0  0  0  0 
 12  5  1  0  0  0  0 
 13  1  1  0  0  0  0 
 15  1  1  0  0  0  0 
 16  2  1  0  0  0  0 
 21  3  1  0  0  0  0 
 22  4  1  0  0  0  0 
 23  4  1  0  0  0  0 
 28  7  1  0  0  0  0 
M  RAD  1   9   2 
M  END 
>  <HBA> 
4 
 
>  <HBD> 
2 
 
>  <TPSA> 
67.64 
 
>  <cid> 
26504 
 
>  <dipole> 
2.75 
 
>  <excitation_energy_1> 
4.803 
 
>  <excitation_energy_2> 
5.229 
 
>  <excitation_energy_3> 
5.318 
 
>  <excitation_energy_4> 
5.431 
 
>  <homo_energy> 
-5.396 
 
>  <homo_lumo_gap> 
6.961 
 
>  <logP> 
1.248 
 
>  <lumo_energy> 
1.565 
 
>  <melting_point> 
101.11 
 
>  <molecular_refractivity> 
52.57 
 
>  <oscillator_strength_1> 
0.0017 
 
>  <oscillator_strength_2> 
0.0084 
 
>  <oscillator_strength_3> 
0.0069 
 
>  <oscillator_strength_4> 
0.0096 
 
>  <open_babel_can_smiles> 
CC(CN(CCNC(=[NH2])[NH])C)C 
 
>  <mulliken_charges> 
32 
1   -0.436137 
2   -0.444142 
3   -0.315179 
4   -0.126715 
5   -0.125472 
6   -0.101104 
7   -0.08393 
8   0.587578 
9   -0.649992 
10   -0.757463 
11   -0.596911 
12   -0.387732 
13   0.1325 
14   0.129443 
15   0.160791 
16   0.141502 
17   0.139529 
18   0.136368 
19   0.17079 
20   0.119933 
21   0.148307 
22   0.18221 
23   0.140981 
24   0.146846 
25   0.116813 
26   0.124783 
27   0.104323 
28   0.12584 
29   0.263227 
30   0.318045 
31   0.321138 
32   0.313832 
 
>  <lowdin_charges> 
32 
1   -0.448101 
2   -0.444635 
3   -0.358604 
4   -0.206657 
5   -0.21445 
6   -0.20074 
7   -0.129424 
8   0.127828 
9   -0.486757 
10   -0.511344 
11   -0.307682 
12   -0.186141 
13   0.143884 
14   0.143059 
15   0.158012 
16   0.149375 
17   0.146505 
18   0.145103 
19   0.161162 
20   0.121993 
21   0.145434 
22   0.16908 
23   0.147592 
24   0.139834 
25   0.135774 
26   0.139611 
27   0.114642 
28   0.138306 
29   0.24603 
30   0.273423 
31   0.2749 
32   0.272987 
 
$$$$ 
 
