PCCDB-ID:  26252 
public computational chemistry database (PCCDB) project, http://pccdb.org 
 
 24 24  0  0  0  0  0  0  0  0999 V2000 
    0.9014   -0.4150   -0.0026 C   0  0  0  0  0  0  0  0  0  0  0  0 
    3.1078   -1.0747   -0.9935 C   0  0  0  0  0  0  0  0  0  0  0  0 
    2.8589    3.0047    1.9345 C   0  0  0  0  0  0  0  0  0  0  0  0 
    4.3476    2.9446    2.2795 C   0  0  0  0  0  0  0  0  0  0  0  0 
    2.2642    1.5921    1.8132 C   0  0  0  0  0  0  0  0  0  0  0  0 
    5.1096    2.1772    1.1922 C   0  0  0  0  0  0  0  0  0  0  0  0 
    2.3974   -0.1975    0.0128 C   0  0  0  0  0  0  0  0  0  0  0  0 
    3.0145    0.6901    0.8351 C   0  0  0  0  0  0  0  0  0  0  0  0 
    4.5093    0.8152    0.8403 C   0  0  0  0  0  0  0  0  0  0  0  0 
    5.2556   -0.1099    0.5447 O   0  0  0  0  0  0  0  0  0  0  0  0 
    0.6891   -1.4919    0.0259 H   0  0  0  0  0  0  0  0  0  0  0  0 
    0.4681   -0.0432   -0.9420 H   0  0  0  0  0  0  0  0  0  0  0  0 
    0.3660    0.0488    0.8264 H   0  0  0  0  0  0  0  0  0  0  0  0 
    2.4670   -1.2232   -1.8721 H   0  0  0  0  0  0  0  0  0  0  0  0 
    3.2994   -2.0668   -0.5634 H   0  0  0  0  0  0  0  0  0  0  0  0 
    4.0735   -0.6814   -1.3079 H   0  0  0  0  0  0  0  0  0  0  0  0 
    2.7225    3.5449    0.9868 H   0  0  0  0  0  0  0  0  0  0  0  0 
    2.3069    3.5640    2.7001 H   0  0  0  0  0  0  0  0  0  0  0  0 
    4.4784    2.4429    3.2488 H   0  0  0  0  0  0  0  0  0  0  0  0 
    4.7668    3.9522    2.3893 H   0  0  0  0  0  0  0  0  0  0  0  0 
    1.2104    1.6761    1.5371 H   0  0  0  0  0  0  0  0  0  0  0  0 
    2.2827    1.1294    2.8132 H   0  0  0  0  0  0  0  0  0  0  0  0 
    6.1615    2.0176    1.4478 H   0  0  0  0  0  0  0  0  0  0  0  0 
    5.0922    2.7691    0.2629 H   0  0  0  0  0  0  0  0  0  0  0  0 
  1  7  1  0  0  0  0 
  1 11  1  0  0  0  0 
  1 13  1  0  0  0  0 
  2 15  1  0  0  0  0 
  2  7  1  0  0  0  0 
  3  4  1  0  0  0  0 
  3 18  1  0  0  0  0 
  4 20  1  0  0  0  0 
  4 19  1  0  0  0  0 
  5  3  1  0  0  0  0 
  5 22  1  0  0  0  0 
  6 23  1  0  0  0  0 
  6  4  1  0  0  0  0 
  7  8  2  0  0  0  0 
  8  9  1  0  0  0  0 
  8  5  1  0  0  0  0 
  9  6  1  0  0  0  0 
 10  9  2  0  0  0  0 
 12  1  1  0  0  0  0 
 14  2  1  0  0  0  0 
 16  2  1  0  0  0  0 
 17  3  1  0  0  0  0 
 21  5  1  0  0  0  0 
 24  6  1  0  0  0  0 
M  END 
>  <HBA> 
1 
 
>  <HBD> 
0 
 
>  <TPSA> 
17.07 
 
>  <cid> 
26252 
 
>  <dipole> 
2.83 
 
>  <excitation_energy_1> 
3.667 
 
>  <excitation_energy_2> 
4.987 
 
>  <excitation_energy_3> 
5.731 
 
>  <excitation_energy_4> 
5.946 
 
>  <homo_energy> 
-6.199 
 
>  <homo_lumo_gap> 
5.208 
 
>  <logP> 
2.466 
 
>  <lumo_energy> 
-0.991 
 
>  <melting_point> 
32.04 
 
>  <molecular_refractivity> 
42.99 
 
>  <oscillator_strength_1> 
0.0005 
 
>  <oscillator_strength_2> 
0.2118 
 
>  <oscillator_strength_3> 
0.0039 
 
>  <oscillator_strength_4> 
0.0351 
 
>  <open_babel_can_smiles> 
CC(=C1CCCCC1=O)C 
 
>  <mulliken_charges> 
24 
1   -0.517572 
2   -0.493775 
3   -0.264016 
4   -0.268343 
5   -0.337385 
6   -0.34576 
7   0.121586 
8   0.054709 
9   0.387307 
10   -0.471489 
11   0.163823 
12   0.162631 
13   0.15893 
14   0.135668 
15   0.169805 
16   0.181736 
17   0.135673 
18   0.136182 
19   0.140385 
20   0.139082 
21   0.142793 
22   0.148185 
23   0.161842 
24   0.158003 
 
>  <lowdin_charges> 
24 
1   -0.446783 
2   -0.444408 
3   -0.277896 
4   -0.276669 
5   -0.275764 
6   -0.303736 
7   0.037351 
8   -0.086834 
9   0.155123 
10   -0.252504 
11   0.161544 
12   0.162443 
13   0.158575 
14   0.147022 
15   0.16857 
16   0.173736 
17   0.140665 
18   0.148417 
19   0.142438 
20   0.147321 
21   0.15042 
22   0.14764 
23   0.161892 
24   0.161435 
 
$$$$ 
 
