PCCDB-ID:  33103 
public computational chemistry database (PCCDB) project, http://pccdb.org 
 
 18 19  0  0  0  0  0  0  0  0999 V2000 
    1.0450    0.0096   -0.0446 C   0  0  0  0  0  0  0  0  0  0  0  0 
    3.3048    1.1624   -0.0429 C   0  0  0  0  0  0  0  0  0  0  0  0 
    4.6993    1.1722   -0.0409 C   0  0  0  0  0  0  0  0  0  0  0  0 
    5.6469   -2.3091   -0.0065 C   0  0  0  0  0  0  0  0  0  0  0  0 
    6.8339   -1.6546   -0.0111 C   0  0  0  0  0  0  0  0  0  0  0  0 
    3.2258   -1.2631   -0.0205 C   0  0  0  0  0  0  0  0  0  0  0  0 
    2.5580   -0.0355   -0.0337 C   0  0  0  0  0  0  0  0  0  0  0  0 
    4.6269   -1.2860   -0.0179 C   0  0  0  0  0  0  0  0  0  0  0  0 
    5.3272   -0.0650   -0.0288 C   0  0  0  0  0  0  0  0  0  0  0  0 
    6.6801   -0.2900   -0.0244 O   0  0  0  0  0  0  0  0  0  0  0  0 
    0.6756    1.0355    0.0506 H   0  0  0  0  0  0  0  0  0  0  0  0 
    0.6187   -0.5750    0.7796 H   0  0  0  0  0  0  0  0  0  0  0  0 
    0.6363   -0.4025   -0.9762 H   0  0  0  0  0  0  0  0  0  0  0  0 
    2.7727    2.1102   -0.0520 H   0  0  0  0  0  0  0  0  0  0  0  0 
    5.2674    2.0966   -0.0475 H   0  0  0  0  0  0  0  0  0  0  0  0 
    5.5074   -3.3812    0.0048 H   0  0  0  0  0  0  0  0  0  0  0  0 
    7.8580   -1.9975   -0.0074 H   0  0  0  0  0  0  0  0  0  0  0  0 
    2.6595   -2.1917   -0.0124 H   0  0  0  0  0  0  0  0  0  0  0  0 
  1  7  1  0  0  0  0 
  1 11  1  0  0  0  0 
  1 12  1  0  0  0  0 
  2  3  2  0  0  0  0 
  2  7  1  0  0  0  0 
  3  9  1  0  0  0  0 
  4 16  1  0  0  0  0 
  5 17  1  0  0  0  0 
  5  4  2  0  0  0  0 
  6  8  1  0  0  0  0 
  6 18  1  0  0  0  0 
  7  6  2  0  0  0  0 
  8  4  1  0  0  0  0 
  9 10  1  0  0  0  0 
  9  8  2  0  0  0  0 
 10  5  1  0  0  0  0 
 13  1  1  0  0  0  0 
 14  2  1  0  0  0  0 
 15  3  1  0  0  0  0 
M  END 
>  <HBA> 
1 
 
>  <HBD> 
0 
 
>  <TPSA> 
13.14 
 
>  <cid> 
33103 
 
>  <dipole> 
0.84 
 
>  <excitation_energy_1> 
4.828 
 
>  <excitation_energy_2> 
5.044 
 
>  <excitation_energy_3> 
5.696 
 
>  <excitation_energy_4> 
5.846 
 
>  <homo_energy> 
-5.913 
 
>  <homo_lumo_gap> 
5.494 
 
>  <logP> 
2.741 
 
>  <lumo_energy> 
-0.419 
 
>  <melting_point> 
51.72 
 
>  <molecular_refractivity> 
41.18 
 
>  <oscillator_strength_1> 
0.0484 
 
>  <oscillator_strength_2> 
0.1275 
 
>  <oscillator_strength_3> 
0.0103 
 
>  <oscillator_strength_4> 
0.2564 
 
>  <open_babel_can_smiles> 
Cc1ccc2c(c1)cco2 
 
>  <mulliken_charges> 
18 
1   -0.529743 
2   -0.201161 
3   -0.17683 
4   -0.219372 
5   0.0827 
6   -0.263564 
7   0.174544 
8   0.137624 
9   0.307285 
10   -0.478249 
11   0.153481 
12   0.159698 
13   0.161818 
14   0.123091 
15   0.142142 
16   0.144776 
17   0.158766 
18   0.122993 
 
>  <lowdin_charges> 
18 
1   -0.442515 
2   -0.169945 
3   -0.17554 
4   -0.211353 
5   -0.053496 
6   -0.171548 
7   -0.006553 
8   -0.02681 
9   0.080601 
10   -0.119957 
11   0.15502 
12   0.159801 
13   0.159785 
14   0.156254 
15   0.16889 
16   0.169895 
17   0.171161 
18   0.156308 
 
$$$$ 
 
