PCCDB-ID:  19485 
public computational chemistry database (PCCDB) project, http://pccdb.org 
 
 18 18  0  0  0  0  0  0  0  0999 V2000 
    0.9418    0.0426   -0.0598 C   0  0  0  0  0  0  0  0  0  0  0  0 
    5.3612    2.5583   -0.0701 C   0  0  0  0  0  0  0  0  0  0  0  0 
    3.1590    1.2872   -0.0650 C   0  0  0  0  0  0  0  0  0  0  0  0 
    3.1658   -1.1109   -0.0650 C   0  0  0  0  0  0  0  0  0  0  0  0 
    5.2175    0.0571   -0.0705 C   0  0  0  0  0  0  0  0  0  0  0  0 
    2.4524    0.0792   -0.0631 C   0  0  0  0  0  0  0  0  0  0  0  0 
    4.5585    1.2782   -0.0687 C   0  0  0  0  0  0  0  0  0  0  0  0 
    4.5374   -1.1341   -0.0680 N   0  3  0  0  0  0  0  0  0  0  0  0 
    5.1687   -2.2429   -0.0689 O   0  5  0  0  0  0  0  0  0  0  0  0 
    0.5253    1.0540   -0.0545 H   0  0  0  0  0  0  0  0  0  0  0  0 
    0.5578   -0.4843    0.8215 H   0  0  0  0  0  0  0  0  0  0  0  0 
    0.5539   -0.4765   -0.9440 H   0  0  0  0  0  0  0  0  0  0  0  0 
    4.7044    3.4329   -0.0783 H   0  0  0  0  0  0  0  0  0  0  0  0 
    6.0134    2.6187   -0.9491 H   0  0  0  0  0  0  0  0  0  0  0  0 
    6.0024    2.6274    0.8163 H   0  0  0  0  0  0  0  0  0  0  0  0 
    2.6214    2.2310   -0.0630 H   0  0  0  0  0  0  0  0  0  0  0  0 
    2.7195   -2.0970   -0.0640 H   0  0  0  0  0  0  0  0  0  0  0  0 
    6.2933   -0.0626   -0.0738 H   0  0  0  0  0  0  0  0  0  0  0  0 
  1 10  1  0  0  0  0 
  1 11  1  0  0  0  0 
  2  7  1  0  0  0  0 
  2 15  1  0  0  0  0 
  3  6  2  0  0  0  0 
  3 16  1  0  0  0  0 
  4 17  1  0  0  0  0 
  4  6  1  0  0  0  0 
  5  7  2  0  0  0  0 
  5  8  1  0  0  0  0 
  6  1  1  0  0  0  0 
  7  3  1  0  0  0  0 
  8  4  2  0  0  0  0 
  9  8  1  0  0  0  0 
 12  1  1  0  0  0  0 
 13  2  1  0  0  0  0 
 14  2  1  0  0  0  0 
 18  5  1  0  0  0  0 
M  CHG  2   8   1   9  -1 
M  END 
>  <HBA> 
1 
 
>  <HBD> 
0 
 
>  <TPSA> 
25.46 
 
>  <cid> 
19485 
 
>  <dipole> 
4.35 
 
>  <excitation_energy_1> 
4.149 
 
>  <excitation_energy_2> 
4.156 
 
>  <excitation_energy_3> 
4.756 
 
>  <excitation_energy_4> 
4.893 
 
>  <homo_energy> 
-5.597 
 
>  <homo_lumo_gap> 
4.838 
 
>  <logP> 
1.732 
 
>  <lumo_energy> 
-0.759 
 
>  <melting_point> 
27.5 
 
>  <molecular_refractivity> 
37.54 
 
>  <oscillator_strength_1> 
0.0 
 
>  <oscillator_strength_2> 
0.0209 
 
>  <oscillator_strength_3> 
0.2143 
 
>  <oscillator_strength_4> 
0.0002 
 
>  <open_babel_can_smiles> 
[O-][n+]1cc(C)cc(c1)C 
 
>  <mulliken_charges> 
18 
1   -0.531988 
2   -0.532072 
3   -0.201731 
4   0.023818 
5   0.023786 
6   0.129022 
7   0.129281 
8   -0.00497 
9   -0.52315 
10   0.162667 
11   0.173667 
12   0.173773 
13   0.162631 
14   0.173621 
15   0.173844 
16   0.129477 
17   0.169176 
18   0.16915 
 
>  <lowdin_charges> 
18 
1   -0.439209 
2   -0.439344 
3   -0.19463 
4   -0.142869 
5   -0.142301 
6   0.007666 
7   0.007171 
8   0.226589 
9   -0.395457 
10   0.161021 
11   0.168129 
12   0.168162 
13   0.16201 
14   0.167834 
15   0.167898 
16   0.159965 
17   0.179515 
18   0.177848 
 
$$$$ 
 
