PCCDB-ID:  34721 
public computational chemistry database (PCCDB) project, http://pccdb.org 
 
 29 29  0  0  1  0  0  0  0  0999 V2000 
    1.4068   -0.1268   -2.8212 C   0  0  0  0  0  0  0  0  0  0  0  0 
    6.8077    1.5452   -3.9336 C   0  0  0  0  0  0  0  0  0  0  0  0 
    8.0572    0.8530   -1.8559 C   0  0  0  0  0  0  0  0  0  0  0  0 
    2.8223   -0.3169   -2.2685 C   0  0  0  0  0  0  0  0  0  0  0  0 
    3.3917    0.9540   -1.6270 C   0  0  0  0  0  0  0  0  0  0  0  0 
    6.2338    2.6290   -1.6806 C   0  0  0  0  0  0  0  0  0  0  0  0 
    5.4413    2.0606   -0.4942 C   0  0  2  0  0  0  0  0  0  0  0  0 
    4.8169    0.7697   -1.0956 C   0  0  2  0  0  0  0  0  0  0  0  0 
    6.7236    1.3704   -2.4166 C   0  0  0  0  0  0  0  0  0  0  0  0 
    4.5297    2.9584    0.1152 O   0  0  0  0  0  0  0  0  0  0  0  0 
    5.7002    0.3732   -2.1533 O   0  0  0  0  0  0  0  0  0  0  0  0 
    1.0274   -1.0517   -3.2704 H   0  0  0  0  0  0  0  0  0  0  0  0 
    1.3831    0.6512   -3.5947 H   0  0  0  0  0  0  0  0  0  0  0  0 
    0.7053    0.1714   -2.0319 H   0  0  0  0  0  0  0  0  0  0  0  0 
    7.5646    2.2918   -4.2009 H   0  0  0  0  0  0  0  0  0  0  0  0 
    5.8418    1.8670   -4.3364 H   0  0  0  0  0  0  0  0  0  0  0  0 
    7.0778    0.5971   -4.4111 H   0  0  0  0  0  0  0  0  0  0  0  0 
    8.8797    1.5369   -2.0968 H   0  0  0  0  0  0  0  0  0  0  0  0 
    8.2844   -0.1273   -2.2873 H   0  0  0  0  0  0  0  0  0  0  0  0 
    8.0149    0.7398   -0.7672 H   0  0  0  0  0  0  0  0  0  0  0  0 
    3.4985   -0.6403   -3.0681 H   0  0  0  0  0  0  0  0  0  0  0  0 
    2.8201   -1.1236   -1.5215 H   0  0  0  0  0  0  0  0  0  0  0  0 
    2.7493    1.2686   -0.7927 H   0  0  0  0  0  0  0  0  0  0  0  0 
    3.3792    1.7669   -2.3702 H   0  0  0  0  0  0  0  0  0  0  0  0 
    7.0465    3.2910   -1.3674 H   0  0  0  0  0  0  0  0  0  0  0  0 
    5.5593    3.2100   -2.3251 H   0  0  0  0  0  0  0  0  0  0  0  0 
    6.1274    1.7846    0.3124 H   0  0  0  0  0  0  0  0  0  0  0  0 
    4.8062   -0.0362   -0.3482 H   0  0  0  0  0  0  0  0  0  0  0  0 
    3.9272    3.2791   -0.5745 H   0  0  0  0  0  0  0  0  0  0  0  0 
  1  4  1  0  0  0  0 
  1 14  1  0  0  0  0 
  2  9  1  0  0  0  0 
  3 20  1  0  0  0  0 
  4  5  1  0  0  0  0 
  4 22  1  0  0  0  0 
  5  8  1  0  0  0  0 
  5 23  1  0  0  0  0 
  6 25  1  0  0  0  0 
  6  7  1  0  0  0  0 
  7 10  1  0  0  0  0 
  7 27  1  1  0  0  0 
  8  7  1  0  0  0  0 
  8 28  1  1  0  0  0 
  9 11  1  0  0  0  0 
  9  3  1  0  0  0  0 
  9  6  1  0  0  0  0 
 11  8  1  0  0  0  0 
 12  1  1  0  0  0  0 
 13  1  1  0  0  0  0 
 15  2  1  0  0  0  0 
 16  2  1  0  0  0  0 
 17  2  1  0  0  0  0 
 18  3  1  0  0  0  0 
 19  3  1  0  0  0  0 
 21  4  1  0  0  0  0 
 24  5  1  0  0  0  0 
 26  6  1  0  0  0  0 
 29 10  1  0  0  0  0 
M  END 
>  <HBA> 
2 
 
>  <HBD> 
1 
 
>  <TPSA> 
29.46 
 
>  <cid> 
34721 
 
>  <dipole> 
1.26 
 
>  <excitation_energy_1> 
6.164 
 
>  <excitation_energy_2> 
6.309 
 
>  <excitation_energy_3> 
6.462 
 
>  <excitation_energy_4> 
6.551 
 
>  <homo_energy> 
-6.596 
 
>  <homo_lumo_gap> 
8.471 
 
>  <logP> 
1.715 
 
>  <lumo_energy> 
1.875 
 
>  <melting_point> 
14.71 
 
>  <molecular_refractivity> 
45.55 
 
>  <oscillator_strength_1> 
0.0234 
 
>  <oscillator_strength_2> 
0.0044 
 
>  <oscillator_strength_3> 
0.0059 
 
>  <oscillator_strength_4> 
0.0219 
 
>  <open_babel_can_smiles> 
CCC[C@H]1OC(C[C@H]1O)(C)C 
 
>  <mulliken_charges> 
29 
1   -0.443353 
2   -0.450751 
3   -0.452 
4   -0.250153 
5   -0.283343 
6   -0.329725 
7   0.102542 
8   0.148241 
9   0.339982 
10   -0.624999 
11   -0.531843 
12   0.143712 
13   0.138784 
14   0.139622 
15   0.138916 
16   0.144157 
17   0.153492 
18   0.137764 
19   0.155155 
20   0.144555 
21   0.156012 
22   0.130587 
23   0.136985 
24   0.11516 
25   0.152287 
26   0.128248 
27   0.144247 
28   0.124709 
29   0.391013 
 
>  <lowdin_charges> 
29 
1   -0.446402 
2   -0.447559 
3   -0.451593 
4   -0.273575 
5   -0.29675 
6   -0.308535 
7   -0.020423 
8   -0.016131 
9   0.132024 
10   -0.448362 
11   -0.284105 
12   0.150659 
13   0.145319 
14   0.145823 
15   0.151295 
16   0.151448 
17   0.15689 
18   0.149771 
19   0.157616 
20   0.148332 
21   0.152851 
22   0.140643 
23   0.146573 
24   0.132148 
25   0.158693 
26   0.144366 
27   0.149342 
28   0.137675 
29   0.341964 
 
$$$$ 
 
