PCCDB-ID:  12332 
public computational chemistry database (PCCDB) project, http://pccdb.org 
 
 21 20  0  0  0  0  0  0  0  0999 V2000 
    3.0528    1.3693    1.6332 C   0  0  0  0  0  0  0  0  0  0  0  0 
    2.3437    0.0357    1.8972 C   0  0  0  0  0  0  0  0  0  0  0  0 
    3.2738   -1.1017    2.3500 C   0  0  0  0  0  0  0  0  0  0  0  0 
    4.2730   -1.5659    1.2802 C   0  0  0  0  0  0  0  0  0  0  0  0 
    5.1461   -2.7307    1.7546 C   0  0  0  0  0  0  0  0  0  0  0  0 
    6.1598   -3.2433    0.7398 C   0  0  0  0  0  0  0  0  0  0  0  0 
    6.3744   -2.8457   -0.4450 N   0  0  0  0  0  0  0  0  0  0  0  0 
    6.9302   -4.2768    1.1950 O   0  0  0  0  0  0  0  0  0  0  0  0 
    2.3317    2.1503    1.3673 H   0  0  0  0  0  0  0  0  0  0  0  0 
    3.7735    1.2969    0.8107 H   0  0  0  0  0  0  0  0  0  0  0  0 
    3.5974    1.7094    2.5230 H   0  0  0  0  0  0  0  0  0  0  0  0 
    1.8034   -0.2787    0.9930 H   0  0  0  0  0  0  0  0  0  0  0  0 
    1.5787    0.1867    2.6702 H   0  0  0  0  0  0  0  0  0  0  0  0 
    2.6604   -1.9607    2.6567 H   0  0  0  0  0  0  0  0  0  0  0  0 
    3.8244   -0.7833    3.2478 H   0  0  0  0  0  0  0  0  0  0  0  0 
    4.9221   -0.7320    0.9846 H   0  0  0  0  0  0  0  0  0  0  0  0 
    3.7214   -1.8704    0.3796 H   0  0  0  0  0  0  0  0  0  0  0  0 
    4.5064   -3.5758    2.0520 H   0  0  0  0  0  0  0  0  0  0  0  0 
    5.6944   -2.4342    2.6622 H   0  0  0  0  0  0  0  0  0  0  0  0 
    5.7449   -2.0783   -0.6799 H   0  0  0  0  0  0  0  0  0  0  0  0 
    6.6823   -4.4818    2.1094 H   0  0  0  0  0  0  0  0  0  0  0  0 
  1  2  1  0  0  0  0 
  1 11  1  0  0  0  0 
  2  3  1  0  0  0  0 
  2 13  1  0  0  0  0 
  3 14  1  0  0  0  0 
  3 15  1  0  0  0  0 
  4  5  1  0  0  0  0 
  4  3  1  0  0  0  0 
  5 18  1  0  0  0  0 
  5 19  1  0  0  0  0 
  6  8  1  0  0  0  0 
  6  5  1  0  0  0  0 
  7  6  2  0  0  0  0 
  8 21  1  0  0  0  0 
  9  1  1  0  0  0  0 
 10  1  1  0  0  0  0 
 12  2  1  0  0  0  0 
 16  4  1  0  0  0  0 
 17  4  1  0  0  0  0 
 20  7  1  0  0  0  0 
M  END 
>  <HBA> 
2 
 
>  <HBD> 
1 
 
>  <TPSA> 
43.09 
 
>  <cid> 
12332 
 
>  <dipole> 
4.5 
 
>  <excitation_energy_1> 
6.256 
 
>  <excitation_energy_2> 
6.306 
 
>  <excitation_energy_3> 
6.331 
 
>  <excitation_energy_4> 
6.814 
 
>  <homo_energy> 
-7.042 
 
>  <homo_lumo_gap> 
7.935 
 
>  <logP> 
1.752 
 
>  <lumo_energy> 
0.893 
 
>  <melting_point> 
49.08 
 
>  <molecular_refractivity> 
33.86 
 
>  <oscillator_strength_1> 
0.0001 
 
>  <oscillator_strength_2> 
0.0047 
 
>  <oscillator_strength_3> 
0.0153 
 
>  <oscillator_strength_4> 
0.0125 
 
>  <open_babel_can_smiles> 
CCCCCC(=N)O 
 
>  <mulliken_charges> 
21 
1   -0.445484 
2   -0.251171 
3   -0.254423 
4   -0.278695 
5   -0.370918 
6   0.493063 
7   -0.594712 
8   -0.578803 
9   0.147527 
10   0.147264 
11   0.143044 
12   0.133977 
13   0.135974 
14   0.131803 
15   0.130902 
16   0.151697 
17   0.146088 
18   0.158872 
19   0.158042 
20   0.291108 
21   0.404846 
 
>  <lowdin_charges> 
21 
1   -0.449364 
2   -0.273936 
3   -0.275927 
4   -0.282237 
5   -0.31697 
6   0.123278 
7   -0.398104 
8   -0.366791 
9   0.153629 
10   0.148121 
11   0.147724 
12   0.14137 
13   0.145347 
14   0.142862 
15   0.139896 
16   0.149031 
17   0.146659 
18   0.157603 
19   0.156964 
20   0.258828 
21   0.352018 
 
$$$$ 
 
