PCCDB-ID:  16842 
public computational chemistry database (PCCDB) project, http://pccdb.org 
 
 18 18  0  0  0  0  0  0  0  0999 V2000 
    4.0974    0.7517    0.0738 C   0  0  0  0  0  0  0  0  0  0  0  0 
    2.7600    0.0409   -0.1394 C   0  0  0  0  0  0  0  0  0  0  0  0 
    3.2010   -3.2462   -1.9456 C   0  0  0  0  0  0  0  0  0  0  0  0 
    2.8786   -2.2920   -3.1067 C   0  0  0  0  0  0  0  0  0  0  0  0 
    3.1735   -2.3744   -0.6917 C   0  0  0  0  0  0  0  0  0  0  0  0 
    2.6818   -0.9236   -2.4571 C   0  0  0  0  0  0  0  0  0  0  0  0 
    2.8633   -1.0720   -1.0823 N   0  0  0  0  0  0  0  0  0  0  0  0 
    3.3750   -2.7210    0.4536 O   0  0  0  0  0  0  0  0  0  0  0  0 
    2.4104    0.1232   -3.0075 O   0  0  0  0  0  0  0  0  0  0  0  0 
    3.9725    1.5755    0.7850 H   0  0  0  0  0  0  0  0  0  0  0  0 
    4.4706    1.1666   -0.8678 H   0  0  0  0  0  0  0  0  0  0  0  0 
    4.8437    0.0609    0.4787 H   0  0  0  0  0  0  0  0  0  0  0  0 
    2.0153    0.7296   -0.5464 H   0  0  0  0  0  0  0  0  0  0  0  0 
    2.3883   -0.3761    0.8000 H   0  0  0  0  0  0  0  0  0  0  0  0 
    4.1857   -3.7170   -2.0264 H   0  0  0  0  0  0  0  0  0  0  0  0 
    2.4707   -4.0529   -1.8283 H   0  0  0  0  0  0  0  0  0  0  0  0 
    1.9660   -2.5575   -3.6494 H   0  0  0  0  0  0  0  0  0  0  0  0 
    3.6803   -2.2184   -3.8481 H   0  0  0  0  0  0  0  0  0  0  0  0 
  1 12  1  0  0  0  0 
  1 10  1  0  0  0  0 
  2  1  1  0  0  0  0 
  2 14  1  0  0  0  0 
  3 16  1  0  0  0  0 
  3  5  1  0  0  0  0 
  4  6  1  0  0  0  0 
  4  3  1  0  0  0  0 
  5  8  2  0  0  0  0 
  6  7  1  0  0  0  0 
  7  5  1  0  0  0  0 
  7  2  1  0  0  0  0 
  9  6  2  0  0  0  0 
 11  1  1  0  0  0  0 
 13  2  1  0  0  0  0 
 15  3  1  0  0  0  0 
 17  4  1  0  0  0  0 
 18  4  1  0  0  0  0 
M  END 
>  <HBA> 
3 
 
>  <HBD> 
0 
 
>  <TPSA> 
37.38 
 
>  <cid> 
16842 
 
>  <dipole> 
1.38 
 
>  <excitation_energy_1> 
4.969 
 
>  <excitation_energy_2> 
5.522 
 
>  <excitation_energy_3> 
6.459 
 
>  <excitation_energy_4> 
6.505 
 
>  <homo_energy> 
-7.021 
 
>  <homo_lumo_gap> 
6.52 
 
>  <logP> 
0.093 
 
>  <lumo_energy> 
-0.501 
 
>  <melting_point> 
41.43 
 
>  <molecular_refractivity> 
36.05 
 
>  <oscillator_strength_1> 
0.0011 
 
>  <oscillator_strength_2> 
0.0009 
 
>  <oscillator_strength_3> 
0.1085 
 
>  <oscillator_strength_4> 
0.1299 
 
>  <open_babel_can_smiles> 
CCN1C(=O)CCC1=O 
 
>  <mulliken_charges> 
18 
1   -0.451454 
2   -0.148064 
3   -0.383566 
4   -0.384108 
5   0.593426 
6   0.593516 
7   -0.458981 
8   -0.483264 
9   -0.483237 
10   0.155306 
11   0.166719 
12   0.166792 
13   0.177793 
14   0.17772 
15   0.190017 
16   0.190603 
17   0.190676 
18   0.190107 
 
>  <lowdin_charges> 
18 
1   -0.449914 
2   -0.194672 
3   -0.306004 
4   -0.307359 
5   0.16427 
6   0.166824 
7   -0.078837 
8   -0.263435 
9   -0.264464 
10   0.159857 
11   0.160129 
12   0.161077 
13   0.169226 
14   0.16823 
15   0.177863 
16   0.179283 
17   0.17902 
18   0.178907 
 
$$$$ 
 
