PCCDB-ID:  7858 
public computational chemistry database (PCCDB) project, http://pccdb.org 
 
 10  9  0  0  0  0  0  0  0  0999 V2000 
    0.8206   -0.0904    0.0212 C   0  0  0  0  0  0  0  0  0  0  0  0 
    2.1371    0.0927   -0.0888 C   0  0  0  0  0  0  0  0  0  0  0  0 
    2.8726    0.2061   -1.3953 C   0  0  0  0  0  0  0  0  0  0  0  0 
    3.6155    1.4214   -1.4906 O   0  0  0  0  0  0  0  0  0  0  0  0 
    0.3272   -0.1627    0.9868 H   0  0  0  0  0  0  0  0  0  0  0  0 
    0.1835   -0.1844   -0.8567 H   0  0  0  0  0  0  0  0  0  0  0  0 
    2.7547    0.1921    0.8041 H   0  0  0  0  0  0  0  0  0  0  0  0 
    2.1697    0.0928   -2.2365 H   0  0  0  0  0  0  0  0  0  0  0  0 
    3.6222   -0.5891   -1.4853 H   0  0  0  0  0  0  0  0  0  0  0  0 
    2.9833    2.1478   -1.3710 H   0  0  0  0  0  0  0  0  0  0  0  0 
  1  5  1  0  0  0  0 
  2  1  2  0  0  0  0 
  2  7  1  0  0  0  0 
  3  2  1  0  0  0  0 
  4  3  1  0  0  0  0 
  4 10  1  0  0  0  0 
  6  1  1  0  0  0  0 
  8  3  1  0  0  0  0 
  9  3  1  0  0  0  0 
M  END 
>  <HBA> 
1 
 
>  <HBD> 
1 
 
>  <TPSA> 
20.23 
 
>  <cid> 
7858 
 
>  <dipole> 
1.59 
 
>  <excitation_energy_1> 
6.221 
 
>  <excitation_energy_2> 
6.739 
 
>  <excitation_energy_3> 
7.122 
 
>  <excitation_energy_4> 
7.155 
 
>  <homo_energy> 
-7.064 
 
>  <homo_lumo_gap> 
7.249 
 
>  <logP> 
0.165 
 
>  <lumo_energy> 
0.185 
 
>  <melting_point> 
-26.55 
 
>  <molecular_refractivity> 
17.22 
 
>  <oscillator_strength_1> 
0.0462 
 
>  <oscillator_strength_2> 
0.04 
 
>  <oscillator_strength_3> 
0.0394 
 
>  <oscillator_strength_4> 
0.2493 
 
>  <open_babel_can_smiles> 
OCC=C 
 
>  <mulliken_charges> 
10 
1   -0.335811 
2   -0.079834 
3   -0.068046 
4   -0.611068 
5   0.146545 
6   0.140452 
7   0.139651 
8   0.125487 
9   0.1557 
10   0.386924 
 
>  <lowdin_charges> 
10 
1   -0.333138 
2   -0.170265 
3   -0.132914 
4   -0.467397 
5   0.161716 
6   0.156509 
7   0.157678 
8   0.131107 
9   0.15477 
10   0.341934 
 
$$$$ 
 
