PCCDB-ID:  28878 
public computational chemistry database (PCCDB) project, http://pccdb.org 
 
 28 28  0  0  0  0  0  0  0  0999 V2000 
    1.3422   -1.4388    1.3056 C   0  0  0  0  0  0  0  0  0  0  0  0 
   10.2636   -2.1257    3.3317 C   0  0  0  0  0  0  0  0  0  0  0  0 
    5.7347   -5.0461    0.1831 C   0  0  0  0  0  0  0  0  0  0  0  0 
    6.6571   -4.7037    1.1647 C   0  0  0  0  0  0  0  0  0  0  0  0 
    4.9338   -4.0728   -0.4223 C   0  0  0  0  0  0  0  0  0  0  0  0 
    5.9988   -2.3765    0.9657 C   0  0  0  0  0  0  0  0  0  0  0  0 
    7.9774   -1.7674    2.9104 C   0  0  0  0  0  0  0  0  0  0  0  0 
    6.7937   -3.3642    1.5594 C   0  0  0  0  0  0  0  0  0  0  0  0 
    5.0819   -2.7552   -0.0136 C   0  0  0  0  0  0  0  0  0  0  0  0 
    3.1560   -1.3993   -0.1672 C   0  0  0  0  0  0  0  0  0  0  0  0 
    2.6501   -1.9054    0.8773 N   0  0  0  0  0  0  0  0  0  0  0  0 
    2.6573   -0.4433   -0.9908 O   0  0  0  0  0  0  0  0  0  0  0  0 
    8.9904   -1.7491    3.8465 O   0  0  0  0  0  0  0  0  0  0  0  0 
    7.7207   -3.1197    2.5308 O   0  0  0  0  0  0  0  0  0  0  0  0 
    4.3625   -1.7506   -0.6680 O   0  0  0  0  0  0  0  0  0  0  0  0 
    1.0284   -2.0124    2.1817 H   0  0  0  0  0  0  0  0  0  0  0  0 
    0.5619   -1.5749    0.5370 H   0  0  0  0  0  0  0  0  0  0  0  0 
    1.3457   -0.3761    1.6007 H   0  0  0  0  0  0  0  0  0  0  0  0 
   10.9822   -1.9688    4.1388 H   0  0  0  0  0  0  0  0  0  0  0  0 
   10.5420   -1.4985    2.4713 H   0  0  0  0  0  0  0  0  0  0  0  0 
   10.2773   -3.1777    3.0271 H   0  0  0  0  0  0  0  0  0  0  0  0 
    5.6370   -6.0851   -0.1189 H   0  0  0  0  0  0  0  0  0  0  0  0 
    7.2863   -5.4508    1.6373 H   0  0  0  0  0  0  0  0  0  0  0  0 
    4.2152   -4.3228   -1.1949 H   0  0  0  0  0  0  0  0  0  0  0  0 
    6.0654   -1.3315    1.2408 H   0  0  0  0  0  0  0  0  0  0  0  0 
    8.2417   -1.1881    2.0080 H   0  0  0  0  0  0  0  0  0  0  0  0 
    7.0919   -1.3354    3.3912 H   0  0  0  0  0  0  0  0  0  0  0  0 
    1.7927   -0.1688   -0.6466 H   0  0  0  0  0  0  0  0  0  0  0  0 
  1 18  1  0  0  0  0 
  1 16  1  0  0  0  0 
  2 13  1  0  0  0  0 
  2 19  1  0  0  0  0 
  3  4  2  0  0  0  0 
  4  8  1  0  0  0  0 
  4 23  1  0  0  0  0 
  5  9  2  0  0  0  0 
  5  3  1  0  0  0  0 
  6 25  1  0  0  0  0 
  6  8  2  0  0  0  0 
  7 27  1  0  0  0  0 
  7 13  1  0  0  0  0 
  8 14  1  0  0  0  0 
  9  6  1  0  0  0  0 
 10 11  2  0  0  0  0 
 11  1  1  0  0  0  0 
 12 28  1  0  0  0  0 
 12 10  1  0  0  0  0 
 14  7  1  0  0  0  0 
 15 10  1  0  0  0  0 
 15  9  1  0  0  0  0 
 17  1  1  0  0  0  0 
 20  2  1  0  0  0  0 
 21  2  1  0  0  0  0 
 22  3  1  0  0  0  0 
 24  5  1  0  0  0  0 
 26  7  1  0  0  0  0 
M  END 
>  <HBA> 
5 
 
>  <HBD> 
1 
 
>  <TPSA> 
56.79 
 
>  <cid> 
28878 
 
>  <dipole> 
1.39 
 
>  <excitation_energy_1> 
5.052 
 
>  <excitation_energy_2> 
5.402 
 
>  <excitation_energy_3> 
5.737 
 
>  <excitation_energy_4> 
5.776 
 
>  <homo_energy> 
-5.973 
 
>  <homo_lumo_gap> 
5.995 
 
>  <logP> 
1.778 
 
>  <lumo_energy> 
0.022 
 
>  <melting_point> 
63.16 
 
>  <molecular_refractivity> 
53.52 
 
>  <oscillator_strength_1> 
0.0356 
 
>  <oscillator_strength_2> 
0.0028 
 
>  <oscillator_strength_3> 
0.0665 
 
>  <oscillator_strength_4> 
0.0057 
 
>  <open_babel_can_smiles> 
COCOc1cccc(c1)O/C(=N/C)/O 
 
>  <mulliken_charges> 
28 
1   -0.359525 
2   -0.211985 
3   -0.146159 
4   -0.166188 
5   -0.150921 
6   -0.219901 
7   0.192899 
8   0.370852 
9   0.365825 
10   0.658961 
11   -0.423538 
12   -0.587818 
13   -0.449632 
14   -0.526362 
15   -0.525852 
16   0.176649 
17   0.138516 
18   0.143088 
19   0.164714 
20   0.135119 
21   0.164237 
22   0.13592 
23   0.138028 
24   0.136367 
25   0.143129 
26   0.123462 
27   0.154696 
28   0.42542 
 
>  <lowdin_charges> 
28 
1   -0.365542 
2   -0.281368 
3   -0.13814 
4   -0.188936 
5   -0.185144 
6   -0.222052 
7   -0.015837 
8   0.109941 
9   0.121911 
10   0.189099 
11   -0.263825 
12   -0.357725 
13   -0.237017 
14   -0.209328 
15   -0.147897 
16   0.165646 
17   0.135814 
18   0.136502 
19   0.160403 
20   0.137552 
21   0.148842 
22   0.160647 
23   0.168915 
24   0.168263 
25   0.17035 
26   0.123034 
27   0.148271 
28   0.367622 
 
$$$$ 
 
