PCCDB-ID:  7249 
public computational chemistry database (PCCDB) project, http://pccdb.org 
 
 19 19  0  0  0  0  0  0  0  0999 V2000 
    0.9612   -0.0021   -0.0067 C   0  0  0  0  0  0  0  0  0  0  0  0 
    2.4451    2.5582   -0.1896 C   0  0  0  0  0  0  0  0  0  0  0  0 
    3.1916   -1.1759   -0.1528 C   0  0  0  0  0  0  0  0  0  0  0  0 
    4.5830   -1.1945   -0.2631 C   0  0  0  0  0  0  0  0  0  0  0  0 
    4.5686    1.2195   -0.3242 C   0  0  0  0  0  0  0  0  0  0  0  0 
    2.4671    0.0180   -0.1262 C   0  0  0  0  0  0  0  0  0  0  0  0 
    3.1776    1.2370   -0.2139 C   0  0  0  0  0  0  0  0  0  0  0  0 
    5.2750    0.0131   -0.3496 C   0  0  0  0  0  0  0  0  0  0  0  0 
    6.6393    0.0849   -0.4610 O   0  0  0  0  0  0  0  0  0  0  0  0 
    0.5860   -1.0290    0.0453 H   0  0  0  0  0  0  0  0  0  0  0  0 
    0.4741    0.4849   -0.8620 H   0  0  0  0  0  0  0  0  0  0  0  0 
    0.6129    0.5229    0.8929 H   0  0  0  0  0  0  0  0  0  0  0  0 
    3.1419    3.3993   -0.2517 H   0  0  0  0  0  0  0  0  0  0  0  0 
    1.8562    2.6775    0.7291 H   0  0  0  0  0  0  0  0  0  0  0  0 
    1.7401    2.6451   -1.0268 H   0  0  0  0  0  0  0  0  0  0  0  0 
    2.6571   -2.1210   -0.0856 H   0  0  0  0  0  0  0  0  0  0  0  0 
    5.1206   -2.1411   -0.2811 H   0  0  0  0  0  0  0  0  0  0  0  0 
    5.1286    2.1478   -0.3928 H   0  0  0  0  0  0  0  0  0  0  0  0 
    6.9982   -0.8160   -0.4650 H   0  0  0  0  0  0  0  0  0  0  0  0 
  1 10  1  0  0  0  0 
  1 12  1  0  0  0  0 
  2 14  1  0  0  0  0 
  3  6  1  0  0  0  0 
  3 16  1  0  0  0  0 
  4  3  2  0  0  0  0 
  5  7  1  0  0  0  0 
  6  1  1  0  0  0  0 
  7  2  1  0  0  0  0 
  7  6  2  0  0  0  0 
  8  5  2  0  0  0  0 
  8  4  1  0  0  0  0 
  9  8  1  0  0  0  0 
 11  1  1  0  0  0  0 
 13  2  1  0  0  0  0 
 15  2  1  0  0  0  0 
 17  4  1  0  0  0  0 
 18  5  1  0  0  0  0 
 19  9  1  0  0  0  0 
M  END 
>  <HBA> 
1 
 
>  <HBD> 
1 
 
>  <TPSA> 
20.23 
 
>  <cid> 
7249 
 
>  <dipole> 
1.13 
 
>  <excitation_energy_1> 
4.941 
 
>  <excitation_energy_2> 
5.026 
 
>  <excitation_energy_3> 
5.532 
 
>  <excitation_energy_4> 
5.679 
 
>  <homo_energy> 
-5.66 
 
>  <homo_lumo_gap> 
5.864 
 
>  <logP> 
2.009 
 
>  <lumo_energy> 
0.204 
 
>  <melting_point> 
52.97 
 
>  <molecular_refractivity> 
38.4 
 
>  <oscillator_strength_1> 
0.0361 
 
>  <oscillator_strength_2> 
0.0004 
 
>  <oscillator_strength_3> 
0.0013 
 
>  <oscillator_strength_4> 
0.0448 
 
>  <open_babel_can_smiles> 
Oc1ccc(c(c1)C)C 
 
>  <mulliken_charges> 
19 
1   -0.53213 
2   -0.53252 
3   -0.192785 
4   -0.195285 
5   -0.222853 
6   0.132214 
7   0.129231 
8   0.355169 
9   -0.647776 
10   0.151642 
11   0.155847 
12   0.155846 
13   0.156466 
14   0.159087 
15   0.15938 
16   0.12058 
17   0.113003 
18   0.12991 
19   0.404974 
 
>  <lowdin_charges> 
19 
1   -0.44116 
2   -0.441197 
3   -0.156507 
4   -0.222067 
5   -0.197931 
6   -0.028863 
7   0.003654 
8   0.101815 
9   -0.383913 
10   0.154694 
11   0.156398 
12   0.155979 
13   0.158176 
14   0.158643 
15   0.159059 
16   0.153885 
17   0.151364 
18   0.163072 
19   0.354899 
 
$$$$ 
 
