PCCDB-ID:  46387 
public computational chemistry database (PCCDB) project, http://pccdb.org 
 
 20 21  0  0  0  0  0  0  0  0999 V2000 
    1.3483   -0.5396   -0.6781 C   0  0  0  0  0  0  0  0  0  0  0  0 
    3.7561    0.2605    1.9419 C   0  0  0  0  0  0  0  0  0  0  0  0 
    4.4730   -0.3086    2.9995 C   0  0  0  0  0  0  0  0  0  0  0  0 
    2.7029   -1.8838    1.4007 C   0  0  0  0  0  0  0  0  0  0  0  0 
    2.8855   -0.5100    1.1548 C   0  0  0  0  0  0  0  0  0  0  0  0 
    3.4245   -2.4286    2.4573 C   0  0  0  0  0  0  0  0  0  0  0  0 
    4.2868   -1.6573    3.2347 C   0  0  0  0  0  0  0  0  0  0  0  0 
    4.3963   -3.7332    4.0674 C   0  0  0  0  0  0  0  0  0  0  0  0 
    4.7876   -4.6537    4.8470 N   0  0  0  0  0  0  0  0  0  0  0  0 
    3.5056   -3.7117    2.9895 N   0  0  0  0  0  0  0  0  0  0  0  0 
    2.2474    0.1707    0.1547 O   0  0  0  0  0  0  0  0  0  0  0  0 
    4.8735   -2.4450    4.2064 O   0  0  0  0  0  0  0  0  0  0  0  0 
    0.9561    0.1910   -1.3880 H   0  0  0  0  0  0  0  0  0  0  0  0 
    0.5153   -0.9678   -0.1038 H   0  0  0  0  0  0  0  0  0  0  0  0 
    1.8550   -1.3429   -1.2305 H   0  0  0  0  0  0  0  0  0  0  0  0 
    3.8584    1.3143    1.7072 H   0  0  0  0  0  0  0  0  0  0  0  0 
    5.1471    0.2822    3.6099 H   0  0  0  0  0  0  0  0  0  0  0  0 
    2.0360   -2.4923    0.8027 H   0  0  0  0  0  0  0  0  0  0  0  0 
    4.3463   -5.5441    4.6189 H   0  0  0  0  0  0  0  0  0  0  0  0 
    3.0100   -4.5275    2.6678 H   0  0  0  0  0  0  0  0  0  0  0  0 
  1 14  1  0  0  0  0 
  1 11  1  0  0  0  0 
  2  3  1  0  0  0  0 
  3  7  2  0  0  0  0 
  3 17  1  0  0  0  0 
  4  6  2  0  0  0  0 
  5  4  1  0  0  0  0 
  5  2  2  0  0  0  0 
  6 10  1  0  0  0  0 
  6  7  1  0  0  0  0 
  7 12  1  0  0  0  0 
  8 12  1  0  0  0  0 
  8  9  2  0  0  0  0 
 10  8  1  0  0  0  0 
 11  5  1  0  0  0  0 
 13  1  1  0  0  0  0 
 15  1  1  0  0  0  0 
 16  2  1  0  0  0  0 
 18  4  1  0  0  0  0 
 19  9  1  0  0  0  0 
 20 10  1  0  0  0  0 
M  END 
>  <HBA> 
4 
 
>  <HBD> 
1 
 
>  <TPSA> 
61.28 
 
>  <cid> 
46387 
 
>  <dipole> 
5.37 
 
>  <excitation_energy_1> 
4.395 
 
>  <excitation_energy_2> 
4.481 
 
>  <excitation_energy_3> 
5.004 
 
>  <excitation_energy_4> 
5.225 
 
>  <homo_energy> 
-5.317 
 
>  <homo_lumo_gap> 
5.146 
 
>  <logP> 
2.0 
 
>  <lumo_energy> 
-0.171 
 
>  <melting_point> 
118.65 
 
>  <molecular_refractivity> 
44.91 
 
>  <oscillator_strength_1> 
0.0001 
 
>  <oscillator_strength_2> 
0.1711 
 
>  <oscillator_strength_3> 
0.0069 
 
>  <oscillator_strength_4> 
0.0396 
 
>  <open_babel_can_smiles> 
COc1ccc2c(c1)[nH]c(=N)o2 
 
>  <mulliken_charges> 
20 
1   -0.212411 
2   -0.190141 
3   -0.197441 
4   -0.25057 
5   0.370767 
6   0.37434 
7   0.319775 
8   0.711769 
9   -0.650788 
10   -0.770738 
11   -0.50857 
12   -0.510416 
13   0.173253 
14   0.149688 
15   0.149671 
16   0.142673 
17   0.154435 
18   0.134392 
19   0.277919 
20   0.332393 
 
>  <lowdin_charges> 
20 
1   -0.281464 
2   -0.192598 
3   -0.161943 
4   -0.246369 
5   0.104794 
6   0.039111 
7   0.061418 
8   0.174669 
9   -0.438209 
10   -0.259581 
11   -0.197717 
12   -0.131085 
13   0.166021 
14   0.144602 
15   0.144712 
16   0.169643 
17   0.177002 
18   0.167646 
19   0.260636 
20   0.298712 
 
$$$$ 
 
