PCCDB-ID:  68254 
public computational chemistry database (PCCDB) project, http://pccdb.org 
 
 20 20  0  0  0  0  0  0  0  0999 V2000 
    3.6203   -0.0990   -1.0948 C   0  0  0  0  0  0  0  0  0  0  0  0 
    2.3611   -3.0487    0.6482 C   0  0  0  0  0  0  0  0  0  0  0  0 
    2.5442   -0.0846    0.0072 C   0  0  0  0  0  0  0  0  0  0  0  0 
    3.4662   -2.4703    2.8436 C   0  0  0  0  0  0  0  0  0  0  0  0 
    4.0043   -1.5390    3.7297 C   0  0  0  0  0  0  0  0  0  0  0  0 
    3.5776    0.1689    2.2911 C   0  0  0  0  0  0  0  0  0  0  0  0 
    2.9630   -2.0498    1.6083 C   0  0  0  0  0  0  0  0  0  0  0  0 
    3.0233   -0.6722    1.3179 C   0  0  0  0  0  0  0  0  0  0  0  0 
    4.0644   -0.2281    3.4717 N   0  0  0  0  0  0  0  0  0  0  0  0 
    3.2345    0.3410   -2.0215 H   0  0  0  0  0  0  0  0  0  0  0  0 
    3.9544   -1.1182   -1.3189 H   0  0  0  0  0  0  0  0  0  0  0  0 
    4.5006    0.4752   -0.7859 H   0  0  0  0  0  0  0  0  0  0  0  0 
    2.4674   -4.0692    1.0278 H   0  0  0  0  0  0  0  0  0  0  0  0 
    2.8359   -3.0063   -0.3385 H   0  0  0  0  0  0  0  0  0  0  0  0 
    1.2907   -2.8604    0.4952 H   0  0  0  0  0  0  0  0  0  0  0  0 
    1.6551   -0.6210   -0.3459 H   0  0  0  0  0  0  0  0  0  0  0  0 
    2.2277    0.9519    0.1777 H   0  0  0  0  0  0  0  0  0  0  0  0 
    3.4384   -3.5228    3.1147 H   0  0  0  0  0  0  0  0  0  0  0  0 
    4.4020   -1.8604    4.6914 H   0  0  0  0  0  0  0  0  0  0  0  0 
    3.6253    1.2413    2.0973 H   0  0  0  0  0  0  0  0  0  0  0  0 
  1 12  1  0  0  0  0 
  1  3  1  0  0  0  0 
  2 13  1  0  0  0  0 
  2  7  1  0  0  0  0 
  3 17  1  0  0  0  0 
  3  8  1  0  0  0  0 
  4 18  1  0  0  0  0 
  4  5  2  0  0  0  0 
  5 19  1  0  0  0  0 
  6  9  2  0  0  0  0 
  7  4  1  0  0  0  0 
  8  7  2  0  0  0  0 
  8  6  1  0  0  0  0 
  9  5  1  0  0  0  0 
 10  1  1  0  0  0  0 
 11  1  1  0  0  0  0 
 14  2  1  0  0  0  0 
 15  2  1  0  0  0  0 
 16  3  1  0  0  0  0 
 20  6  1  0  0  0  0 
M  END 
>  <HBA> 
1 
 
>  <HBD> 
0 
 
>  <TPSA> 
12.89 
 
>  <cid> 
68254 
 
>  <dipole> 
2.79 
 
>  <excitation_energy_1> 
4.919 
 
>  <excitation_energy_2> 
5.156 
 
>  <excitation_energy_3> 
5.339 
 
>  <excitation_energy_4> 
5.955 
 
>  <homo_energy> 
-6.68 
 
>  <homo_lumo_gap> 
6.264 
 
>  <logP> 
1.952 
 
>  <lumo_energy> 
-0.416 
 
>  <melting_point> 
26.83 
 
>  <molecular_refractivity> 
38.98 
 
>  <oscillator_strength_1> 
0.0045 
 
>  <oscillator_strength_2> 
0.0001 
 
>  <oscillator_strength_3> 
0.0382 
 
>  <oscillator_strength_4> 
0.0492 
 
>  <open_babel_can_smiles> 
CCc1cnccc1C 
 
>  <mulliken_charges> 
20 
1   -0.439307 
2   -0.53681 
3   -0.34551 
4   -0.189964 
5   0.039098 
6   -0.014868 
7   0.150918 
8   0.111496 
9   -0.412493 
10   0.147381 
11   0.149578 
12   0.155169 
13   0.160077 
14   0.168403 
15   0.169638 
16   0.143859 
17   0.149488 
18   0.126144 
19   0.136401 
20   0.131303 
 
>  <lowdin_charges> 
20 
1   -0.440713 
2   -0.441546 
3   -0.272055 
4   -0.185716 
5   -0.094466 
6   -0.101744 
7   0.015075 
8   -0.028807 
9   -0.152049 
10   0.151738 
11   0.148045 
12   0.154091 
13   0.159321 
14   0.162642 
15   0.162954 
16   0.150501 
17   0.152028 
18   0.157261 
19   0.154221 
20   0.149218 
 
$$$$ 
 
