PCCDB-ID:  35709 
public computational chemistry database (PCCDB) project, http://pccdb.org 
 
 37 37  0  0  0  0  0  0  0  0999 V2000 
    6.2985    3.4621   -0.1807 C   0  0  0  0  0  0  0  0  0  0  0  0 
    3.5238   -3.5241    2.1973 C   0  0  0  0  0  0  0  0  0  0  0  0 
    5.7898    2.0451   -0.4765 C   0  0  0  0  0  0  0  0  0  0  0  0 
    4.6782   -2.6841    2.7531 C   0  0  0  0  0  0  0  0  0  0  0  0 
    6.3527    0.9547    0.4514 C   0  0  0  0  0  0  0  0  0  0  0  0 
    4.2256   -1.3117    3.2656 C   0  0  0  0  0  0  0  0  0  0  0  0 
    5.8588    1.0566    1.9011 C   0  0  0  0  0  0  0  0  0  0  0  0 
    5.3674   -0.4290    3.7934 C   0  0  0  0  0  0  0  0  0  0  0  0 
    8.4005   -1.2534    3.4344 C   0  0  0  0  0  0  0  0  0  0  0  0 
    7.9323    1.0422    4.4325 C   0  0  0  0  0  0  0  0  0  0  0  0 
    7.7148    0.1235    3.2020 C   0  0  0  0  0  0  0  0  0  0  0  0 
    6.3323   -0.0456    2.7525 N   0  0  0  0  0  0  0  0  0  0  0  0 
    9.7447   -1.1225    4.7013 S   0  0  0  0  0  0  0  0  0  0  0  0 
    9.7215    1.0038    4.8017 S   0  0  0  0  0  0  0  0  0  0  0  0 
    5.9059    4.1799   -0.9098 H   0  0  0  0  0  0  0  0  0  0  0  0 
    7.3937    3.5052   -0.2295 H   0  0  0  0  0  0  0  0  0  0  0  0 
    5.9969    3.8083    0.8142 H   0  0  0  0  0  0  0  0  0  0  0  0 
    3.8748   -4.4990    1.8400 H   0  0  0  0  0  0  0  0  0  0  0  0 
    3.0358   -3.0178    1.3553 H   0  0  0  0  0  0  0  0  0  0  0  0 
    2.7585   -3.7057    2.9620 H   0  0  0  0  0  0  0  0  0  0  0  0 
    6.0488    1.7851   -1.5110 H   0  0  0  0  0  0  0  0  0  0  0  0 
    4.6912    2.0324   -0.4288 H   0  0  0  0  0  0  0  0  0  0  0  0 
    5.4428   -2.5399    1.9807 H   0  0  0  0  0  0  0  0  0  0  0  0 
    5.1659   -3.2322    3.5726 H   0  0  0  0  0  0  0  0  0  0  0  0 
    7.4505    0.9930    0.4199 H   0  0  0  0  0  0  0  0  0  0  0  0 
    6.0688   -0.0349    0.0722 H   0  0  0  0  0  0  0  0  0  0  0  0 
    3.4989   -1.4430    4.0801 H   0  0  0  0  0  0  0  0  0  0  0  0 
    3.6874   -0.7841    2.4659 H   0  0  0  0  0  0  0  0  0  0  0  0 
    4.7640    1.0186    1.8895 H   0  0  0  0  0  0  0  0  0  0  0  0 
    6.1227    2.0388    2.3326 H   0  0  0  0  0  0  0  0  0  0  0  0 
    5.8998   -0.9875    4.5717 H   0  0  0  0  0  0  0  0  0  0  0  0 
    4.9403    0.4592    4.2932 H   0  0  0  0  0  0  0  0  0  0  0  0 
    8.8067   -1.6278    2.4919 H   0  0  0  0  0  0  0  0  0  0  0  0 
    7.6879   -1.9866    3.8177 H   0  0  0  0  0  0  0  0  0  0  0  0 
    7.3674    0.7086    5.3076 H   0  0  0  0  0  0  0  0  0  0  0  0 
    7.6638    2.0789    4.2050 H   0  0  0  0  0  0  0  0  0  0  0  0 
    8.2550    0.6001    2.3798 H   0  0  0  0  0  0  0  0  0  0  0  0 
  1 17  1  0  0  0  0 
  2  4  1  0  0  0  0 
  2 20  1  0  0  0  0 
  3 22  1  0  0  0  0 
  3  1  1  0  0  0  0 
  3  5  1  0  0  0  0 
  4  6  1  0  0  0  0 
  4 24  1  0  0  0  0 
  5  7  1  0  0  0  0 
  6  8  1  0  0  0  0 
  6 27  1  0  0  0  0 
  7 30  1  0  0  0  0 
  7 12  1  0  0  0  0 
  8 32  1  0  0  0  0 
  8 31  1  0  0  0  0 
  9 34  1  0  0  0  0 
  9 13  1  0  0  0  0 
 10 14  1  0  0  0  0 
 10 35  1  0  0  0  0 
 11  9  1  0  0  0  0 
 11 10  1  0  0  0  0 
 12 11  1  0  0  0  0 
 12  8  1  0  0  0  0 
 13 14  1  0  0  0  0 
 15  1  1  0  0  0  0 
 16  1  1  0  0  0  0 
 18  2  1  0  0  0  0 
 19  2  1  0  0  0  0 
 21  3  1  0  0  0  0 
 23  4  1  0  0  0  0 
 25  5  1  0  0  0  0 
 26  5  1  0  0  0  0 
 28  6  1  0  0  0  0 
 29  7  1  0  0  0  0 
 33  9  1  0  0  0  0 
 36 10  1  0  0  0  0 
 37 11  1  0  0  0  0 
M  END 
>  <HBA> 
3 
 
>  <HBD> 
0 
 
>  <TPSA> 
53.84 
 
>  <cid> 
35709 
 
>  <dipole> 
3.58 
 
>  <excitation_energy_1> 
3.195 
 
>  <excitation_energy_2> 
4.121 
 
>  <excitation_energy_3> 
4.566 
 
>  <excitation_energy_4> 
4.906 
 
>  <homo_energy> 
-5.478 
 
>  <homo_lumo_gap> 
4.495 
 
>  <logP> 
3.652 
 
>  <lumo_energy> 
-0.982 
 
>  <melting_point> 
13.27 
 
>  <molecular_refractivity> 
70.95 
 
>  <oscillator_strength_1> 
0.0026 
 
>  <oscillator_strength_2> 
0.0183 
 
>  <oscillator_strength_3> 
0.0026 
 
>  <oscillator_strength_4> 
0.002 
 
>  <open_babel_can_smiles> 
CCCCN(C1CSSC1)CCCC 
 
>  <mulliken_charges> 
37 
1   -0.445311 
2   -0.44253 
3   -0.255922 
4   -0.247692 
5   -0.253896 
6   -0.250882 
7   -0.136624 
8   -0.149696 
9   -0.422906 
10   -0.45068 
11   0.02763 
12   -0.386009 
13   0.003456 
14   0.025798 
15   0.146089 
16   0.144602 
17   0.145043 
18   0.143832 
19   0.141123 
20   0.141149 
21   0.137585 
22   0.130791 
23   0.14895 
24   0.125991 
25   0.134809 
26   0.142213 
27   0.129855 
28   0.132817 
29   0.14173 
30   0.122117 
31   0.143578 
32   0.122385 
33   0.18655 
34   0.187168 
35   0.18968 
36   0.182775 
37   0.164433 
 
>  <lowdin_charges> 
37 
1   -0.446789 
2   -0.44517 
3   -0.270174 
4   -0.278052 
5   -0.28003 
6   -0.282892 
7   -0.200121 
8   -0.205966 
9   -0.384112 
10   -0.400149 
11   -0.07542 
12   -0.18097 
13   0.012667 
14   0.034617 
15   0.15288 
16   0.14575 
17   0.145378 
18   0.150077 
19   0.146928 
20   0.146568 
21   0.144633 
22   0.136719 
23   0.147598 
24   0.137433 
25   0.137665 
26   0.147466 
27   0.143407 
28   0.14094 
29   0.145049 
30   0.123172 
31   0.147292 
32   0.127492 
33   0.169713 
34   0.169964 
35   0.166283 
36   0.170627 
37   0.159526 
 
$$$$ 
 
