PCCDB-ID:  61247 
public computational chemistry database (PCCDB) project, http://pccdb.org 
 
 21 20  0  0  0  0  0  0  0  0999 V2000 
    2.6141   -1.3431   -0.1360 C   0  0  0  0  0  0  0  0  0  0  0  0 
    2.2171    2.2485    1.4075 C   0  0  0  0  0  0  0  0  0  0  0  0 
    2.4251    0.0699    2.6345 C   0  0  0  0  0  0  0  0  0  0  0  0 
    4.8152    1.4775    0.2173 C   0  0  0  0  0  0  0  0  0  0  0  0 
    2.1170    0.0860    0.1042 C   0  0  0  0  0  0  0  0  0  0  0  0 
    2.7409    0.8043    1.3258 C   0  0  0  0  0  0  0  0  0  0  0  0 
    4.1823    0.7744    1.2672 O   0  0  0  0  0  0  0  0  0  0  0  0 
    2.1883   -1.7493   -1.0605 H   0  0  0  0  0  0  0  0  0  0  0  0 
    2.3299   -2.0166    0.6795 H   0  0  0  0  0  0  0  0  0  0  0  0 
    3.7050   -1.3699   -0.2217 H   0  0  0  0  0  0  0  0  0  0  0  0 
    1.1428    2.2501    1.6227 H   0  0  0  0  0  0  0  0  0  0  0  0 
    2.3626    2.7968    0.4703 H   0  0  0  0  0  0  0  0  0  0  0  0 
    2.7271    2.7931    2.2097 H   0  0  0  0  0  0  0  0  0  0  0  0 
    1.3436   -0.0410    2.7696 H   0  0  0  0  0  0  0  0  0  0  0  0 
    2.8269    0.6306    3.4848 H   0  0  0  0  0  0  0  0  0  0  0  0 
    2.8835   -0.9228    2.6418 H   0  0  0  0  0  0  0  0  0  0  0  0 
    5.8889    1.3140    0.3472 H   0  0  0  0  0  0  0  0  0  0  0  0 
    4.6239    2.5595    0.2542 H   0  0  0  0  0  0  0  0  0  0  0  0 
    4.5285    1.1085   -0.7787 H   0  0  0  0  0  0  0  0  0  0  0  0 
    1.0265    0.0855    0.2347 H   0  0  0  0  0  0  0  0  0  0  0  0 
    2.3042    0.6895   -0.7942 H   0  0  0  0  0  0  0  0  0  0  0  0 
  1  5  1  0  0  0  0 
  1  9  1  0  0  0  0 
  2 11  1  0  0  0  0 
  2 13  1  0  0  0  0 
  3 16  1  0  0  0  0 
  3 14  1  0  0  0  0 
  3 15  1  0  0  0  0 
  4 18  1  0  0  0  0 
  4 17  1  0  0  0  0 
  4  7  1  0  0  0  0 
  5 20  1  0  0  0  0 
  5  6  1  0  0  0  0 
  6  2  1  0  0  0  0 
  6  3  1  0  0  0  0 
  7  6  1  0  0  0  0 
  8  1  1  0  0  0  0 
 10  1  1  0  0  0  0 
 12  2  1  0  0  0  0 
 19  4  1  0  0  0  0 
 21  5  1  0  0  0  0 
M  END 
>  <HBA> 
1 
 
>  <HBD> 
0 
 
>  <TPSA> 
9.23 
 
>  <cid> 
61247 
 
>  <dipole> 
1.15 
 
>  <excitation_energy_1> 
6.247 
 
>  <excitation_energy_2> 
6.635 
 
>  <excitation_energy_3> 
6.785 
 
>  <excitation_energy_4> 
6.974 
 
>  <homo_energy> 
-6.653 
 
>  <homo_lumo_gap> 
8.789 
 
>  <logP> 
1.821 
 
>  <lumo_energy> 
2.136 
 
>  <melting_point> 
-24.49 
 
>  <molecular_refractivity> 
32.08 
 
>  <oscillator_strength_1> 
0.0002 
 
>  <oscillator_strength_2> 
0.0104 
 
>  <oscillator_strength_3> 
0.0141 
 
>  <oscillator_strength_4> 
0.0062 
 
>  <open_babel_can_smiles> 
CCC(OC)(C)C 
 
>  <mulliken_charges> 
21 
1   -0.449367 
2   -0.467981 
3   -0.453362 
4   -0.198883 
5   -0.268865 
6   0.335033 
7   -0.490394 
8   0.138374 
9   0.145624 
10   0.158819 
11   0.143544 
12   0.141495 
13   0.151333 
14   0.134388 
15   0.149037 
16   0.157023 
17   0.154627 
18   0.131525 
19   0.129279 
20   0.130219 
21   0.128535 
 
>  <lowdin_charges> 
21 
1   -0.447005 
2   -0.456907 
3   -0.44405 
4   -0.279685 
5   -0.28689 
6   0.12886 
7   -0.278565 
8   0.149184 
9   0.149516 
10   0.153209 
11   0.152846 
12   0.148529 
13   0.156218 
14   0.146355 
15   0.155865 
16   0.157166 
17   0.151863 
18   0.130157 
19   0.129595 
20   0.143106 
21   0.140635 
 
$$$$ 
 
