PCCDB-ID:  10291 
public computational chemistry database (PCCDB) project, http://pccdb.org 
 
 19 20  0  0  0  0  0  0  0  0999 V2000 
   -0.0273   -0.7127   -0.0058 C   0  0  0  0  0  0  0  0  0  0  0  0 
   -0.0245    0.6582   -0.0082 C   0  0  0  0  0  0  0  0  0  0  0  0 
    1.2735   -1.3397   -0.0227 C   0  0  0  0  0  0  0  0  0  0  0  0 
   -2.5127   -0.7637    0.0369 C   0  0  0  0  0  0  0  0  0  0  0  0 
   -2.4883    0.7663    0.0319 C   0  0  0  0  0  0  0  0  0  0  0  0 
    2.4316    0.6864   -0.0488 C   0  0  0  0  0  0  0  0  0  0  0  0 
    3.5449    1.3164   -0.0719 N   0  0  0  0  0  0  0  0  0  0  0  0 
   -1.2721   -1.3687    0.0163 N   0  0  0  0  0  0  0  0  0  0  0  0 
   -1.2158    1.3500    0.0099 N   0  0  0  0  0  0  0  0  0  0  0  0 
    1.1539    1.3421   -0.0276 N   0  0  0  0  0  0  0  0  0  0  0  0 
    2.3901   -0.6919   -0.0420 N   0  0  0  0  0  0  0  0  0  0  0  0 
    1.3907   -2.6902   -0.0180 O   0  0  0  0  0  0  0  0  0  0  0  0 
   -3.5554   -1.3881    0.0581 O   0  0  0  0  0  0  0  0  0  0  0  0 
   -3.4916    1.4421    0.0465 O   0  0  0  0  0  0  0  0  0  0  0  0 
    3.4076    2.3298   -0.0745 H   0  0  0  0  0  0  0  0  0  0  0  0 
   -1.3320   -2.3798    0.0191 H   0  0  0  0  0  0  0  0  0  0  0  0 
   -1.2226    2.3651    0.0084 H   0  0  0  0  0  0  0  0  0  0  0  0 
    1.1424    2.3537   -0.0290 H   0  0  0  0  0  0  0  0  0  0  0  0 
    0.5283   -3.1299   -0.0088 H   0  0  0  0  0  0  0  0  0  0  0  0 
  1  8  1  0  0  0  0 
  2  1  2  0  0  0  0 
  2  9  1  0  0  0  0 
  3 12  1  0  0  0  0 
  3  1  1  0  0  0  0 
  4 13  2  0  0  0  0 
  5  4  1  0  0  0  0 
  5 14  2  0  0  0  0 
  6 11  2  0  0  0  0 
  6 10  1  0  0  0  0 
  7  6  1  0  0  0  0 
  8 16  1  0  0  0  0 
  8  4  1  0  0  0  0 
  9  5  1  0  0  0  0 
 10  2  1  0  0  0  0 
 11  3  2  0  0  0  0 
 12 19  1  0  0  0  0 
 15  7  1  0  0  0  0 
 17  9  1  0  0  0  0 
 18 10  1  0  0  0  0 
M  RAD  1   7   2 
M  END 
>  <HBA> 
5 
 
>  <HBD> 
4 
 
>  <TPSA> 
137.49 
 
>  <cid> 
10291 
 
>  <dipole> 
2.17 
 
>  <excitation_energy_1> 
3.288 
 
>  <excitation_energy_2> 
3.911 
 
>  <excitation_energy_3> 
4.217 
 
>  <excitation_energy_4> 
4.244 
 
>  <homo_energy> 
-5.856 
 
>  <homo_lumo_gap> 
3.774 
 
>  <logP> 
-1.537 
 
>  <lumo_energy> 
-2.082 
 
>  <melting_point> 
361.47 
 
>  <molecular_refractivity> 
48.01 
 
>  <oscillator_strength_1> 
0.1622 
 
>  <oscillator_strength_2> 
0.0188 
 
>  <oscillator_strength_3> 
0.0001 
 
>  <oscillator_strength_4> 
0.0002 
 
>  <open_babel_can_smiles> 
[NH]C1=[N]=C(O)c2c(N1)[nH]c(=O)c(=O)[nH]2 
 
>  <mulliken_charges> 
19 
1   0.282987 
2   0.644873 
3   0.519319 
4   0.568912 
5   0.570912 
6   0.60847 
7   -0.607636 
8   -0.791755 
9   -0.747226 
10   -0.751367 
11   -0.489591 
12   -0.576856 
13   -0.468743 
14   -0.445491 
15   0.261507 
16   0.332311 
17   0.348088 
18   0.332246 
19   0.40904 
 
>  <lowdin_charges> 
19 
1   -0.081532 
2   0.115259 
3   0.153844 
4   0.129084 
5   0.148276 
6   0.126887 
7   -0.415212 
8   -0.223913 
9   -0.217213 
10   -0.242275 
11   -0.172629 
12   -0.332997 
13   -0.247932 
14   -0.219138 
15   0.241794 
16   0.28961 
17   0.302034 
18   0.291394 
19   0.354659 
 
$$$$ 
 
