PCCDB-ID:  17739 
public computational chemistry database (PCCDB) project, http://pccdb.org 
 
 26 26  0  0  0  0  0  0  0  0999 V2000 
    1.2683   -0.8499    0.7166 C   0  0  0  0  0  0  0  0  0  0  0  0 
    8.5514   -2.9088   -2.0493 C   0  0  0  0  0  0  0  0  0  0  0  0 
    2.7797   -0.6556    0.5639 C   0  0  0  0  0  0  0  0  0  0  0  0 
    3.2363   -0.6426   -0.9089 C   0  0  0  0  0  0  0  0  0  0  0  0 
    5.2883    0.8042   -1.2915 C   0  0  0  0  0  0  0  0  0  0  0  0 
    6.6705    0.9699   -1.3971 C   0  0  0  0  0  0  0  0  0  0  0  0 
    5.6029   -1.5516   -0.9758 C   0  0  0  0  0  0  0  0  0  0  0  0 
    4.7300   -0.4586   -1.0720 C   0  0  0  0  0  0  0  0  0  0  0  0 
    7.5294   -0.1234   -1.2839 C   0  0  0  0  0  0  0  0  0  0  0  0 
    6.9846   -1.4063   -1.0793 C   0  0  0  0  0  0  0  0  0  0  0  0 
    8.8946   -0.0085   -1.3574 O   0  0  0  0  0  0  0  0  0  0  0  0 
    7.7792   -2.5153   -0.9127 O   0  0  0  0  0  0  0  0  0  0  0  0 
    0.9708   -0.8519    1.7713 H   0  0  0  0  0  0  0  0  0  0  0  0 
    0.9440   -1.8011    0.2765 H   0  0  0  0  0  0  0  0  0  0  0  0 
    0.7116   -0.0486    0.2147 H   0  0  0  0  0  0  0  0  0  0  0  0 
    9.0712   -3.8242   -1.7567 H   0  0  0  0  0  0  0  0  0  0  0  0 
    9.2831   -2.1433   -2.3245 H   0  0  0  0  0  0  0  0  0  0  0  0 
    7.9006   -3.1207   -2.9085 H   0  0  0  0  0  0  0  0  0  0  0  0 
    3.3136   -1.4538    1.0964 H   0  0  0  0  0  0  0  0  0  0  0  0 
    3.0860    0.2851    1.0406 H   0  0  0  0  0  0  0  0  0  0  0  0 
    2.7072    0.1613   -1.4382 H   0  0  0  0  0  0  0  0  0  0  0  0 
    2.9242   -1.5828   -1.3842 H   0  0  0  0  0  0  0  0  0  0  0  0 
    4.6407    1.6731   -1.3820 H   0  0  0  0  0  0  0  0  0  0  0  0 
    7.0896    1.9615   -1.5634 H   0  0  0  0  0  0  0  0  0  0  0  0 
    5.2186   -2.5552   -0.8121 H   0  0  0  0  0  0  0  0  0  0  0  0 
    9.1163    0.9257   -1.4938 H   0  0  0  0  0  0  0  0  0  0  0  0 
  1 13  1  0  0  0  0 
  2 16  1  0  0  0  0 
  2 12  1  0  0  0  0 
  3  1  1  0  0  0  0 
  3 20  1  0  0  0  0 
  3 19  1  0  0  0  0 
  4  3  1  0  0  0  0 
  5  8  1  0  0  0  0 
  6  5  2  0  0  0  0 
  6  9  1  0  0  0  0 
  7 25  1  0  0  0  0 
  8  7  2  0  0  0  0 
  8  4  1  0  0  0  0 
  9 10  2  0  0  0  0 
 10  7  1  0  0  0  0 
 10 12  1  0  0  0  0 
 11  9  1  0  0  0  0 
 14  1  1  0  0  0  0 
 15  1  1  0  0  0  0 
 17  2  1  0  0  0  0 
 18  2  1  0  0  0  0 
 21  4  1  0  0  0  0 
 22  4  1  0  0  0  0 
 23  5  1  0  0  0  0 
 24  6  1  0  0  0  0 
 26 11  1  0  0  0  0 
M  END 
>  <HBA> 
2 
 
>  <HBD> 
1 
 
>  <TPSA> 
29.46 
 
>  <cid> 
17739 
 
>  <dipole> 
2.03 
 
>  <excitation_energy_1> 
4.889 
 
>  <excitation_energy_2> 
4.934 
 
>  <excitation_energy_3> 
5.444 
 
>  <excitation_energy_4> 
5.598 
 
>  <homo_energy> 
-5.655 
 
>  <homo_lumo_gap> 
5.815 
 
>  <logP> 
2.353 
 
>  <lumo_energy> 
0.161 
 
>  <melting_point> 
52.91 
 
>  <molecular_refractivity> 
49.54 
 
>  <oscillator_strength_1> 
0.0461 
 
>  <oscillator_strength_2> 
0.0013 
 
>  <oscillator_strength_3> 
0.0338 
 
>  <oscillator_strength_4> 
0.0113 
 
>  <open_babel_can_smiles> 
CCCc1ccc(c(c1)OC)O 
 
>  <mulliken_charges> 
26 
1   -0.441516 
2   -0.212947 
3   -0.241609 
4   -0.342206 
5   -0.189712 
6   -0.199242 
7   -0.235626 
8   0.171388 
9   0.311124 
10   0.332865 
11   -0.644233 
12   -0.521621 
13   0.144372 
14   0.1418 
15   0.140789 
16   0.157015 
17   0.167811 
18   0.137067 
19   0.139841 
20   0.136361 
21   0.135105 
22   0.138713 
23   0.120698 
24   0.1167 
25   0.129007 
26   0.408055 
 
>  <lowdin_charges> 
26 
1   -0.445593 
2   -0.278449 
3   -0.271371 
4   -0.273266 
5   -0.170326 
6   -0.209108 
7   -0.178265 
8   -0.012846 
9   0.07536 
10   0.068627 
11   -0.378612 
12   -0.223666 
13   0.149661 
14   0.146484 
15   0.14698 
16   0.155521 
17   0.153014 
18   0.138235 
19   0.145013 
20   0.142659 
21   0.146229 
22   0.146754 
23   0.155685 
24   0.151872 
25   0.162811 
26   0.356598 
 
$$$$ 
 
