PCCDB-ID:  37826 
public computational chemistry database (PCCDB) project, http://pccdb.org 
 
 23 23  0  0  0  0  0  0  0  0999 V2000 
    0.8186    0.2516   -0.0447 C   0  0  0  0  0  0  0  0  0  0  0  0 
    2.7637   -0.2221   -1.5499 C   0  0  0  0  0  0  0  0  0  0  0  0 
    2.8440    1.7504    0.0093 C   0  0  0  0  0  0  0  0  0  0  0  0 
    5.0801    0.1256    2.4947 C   0  0  0  0  0  0  0  0  0  0  0  0 
    4.0221   -0.3539    3.4793 C   0  0  0  0  0  0  0  0  0  0  0  0 
    2.9610   -0.6573    0.9162 C   0  0  0  0  0  0  0  0  0  0  0  0 
    2.3578    0.3017   -0.1562 C   0  0  0  0  0  0  0  0  0  0  0  0 
    4.8147   -0.7801    0.9247 S   0  0  0  0  0  0  0  0  0  0  0  0 
    2.3878   -0.2675    2.6493 S   0  0  0  0  0  0  0  0  0  0  0  0 
    0.3642    0.8446   -0.8471 H   0  0  0  0  0  0  0  0  0  0  0  0 
    0.4664    0.6608    0.9083 H   0  0  0  0  0  0  0  0  0  0  0  0 
    0.4442   -0.7756   -0.1357 H   0  0  0  0  0  0  0  0  0  0  0  0 
    2.3025    0.3910   -2.3330 H   0  0  0  0  0  0  0  0  0  0  0  0 
    2.4326   -1.2575   -1.6999 H   0  0  0  0  0  0  0  0  0  0  0  0 
    3.8491   -0.1864   -1.6898 H   0  0  0  0  0  0  0  0  0  0  0  0 
    2.3900    2.3888   -0.7576 H   0  0  0  0  0  0  0  0  0  0  0  0 
    3.9319    1.8156   -0.1024 H   0  0  0  0  0  0  0  0  0  0  0  0 
    2.5697    2.1519    0.9900 H   0  0  0  0  0  0  0  0  0  0  0  0 
    6.0910   -0.1178    2.8385 H   0  0  0  0  0  0  0  0  0  0  0  0 
    5.0109    1.2053    2.3335 H   0  0  0  0  0  0  0  0  0  0  0  0 
    3.9686    0.2948    4.3606 H   0  0  0  0  0  0  0  0  0  0  0  0 
    4.2279   -1.3780    3.8028 H   0  0  0  0  0  0  0  0  0  0  0  0 
    2.6156   -1.6692    0.6836 H   0  0  0  0  0  0  0  0  0  0  0  0 
  1 11  1  0  0  0  0 
  2  7  1  0  0  0  0 
  3 18  1  0  0  0  0 
  4 19  1  0  0  0  0 
  4  5  1  0  0  0  0 
  5 22  1  0  0  0  0 
  5 21  1  0  0  0  0 
  6  8  1  0  0  0  0 
  6  9  1  0  0  0  0 
  7  1  1  0  0  0  0 
  7  3  1  0  0  0  0 
  7  6  1  0  0  0  0 
  8  4  1  0  0  0  0 
  9  5  1  0  0  0  0 
 10  1  1  0  0  0  0 
 12  1  1  0  0  0  0 
 13  2  1  0  0  0  0 
 14  2  1  0  0  0  0 
 15  2  1  0  0  0  0 
 16  3  1  0  0  0  0 
 17  3  1  0  0  0  0 
 20  4  1  0  0  0  0 
 23  6  1  0  0  0  0 
M  END 
>  <HBA> 
2 
 
>  <HBD> 
0 
 
>  <TPSA> 
50.6 
 
>  <cid> 
37826 
 
>  <dipole> 
0.95 
 
>  <excitation_energy_1> 
4.764 
 
>  <excitation_energy_2> 
4.901 
 
>  <excitation_energy_3> 
5.528 
 
>  <excitation_energy_4> 
5.672 
 
>  <homo_energy> 
-6.076 
 
>  <homo_lumo_gap> 
6.166 
 
>  <logP> 
2.839 
 
>  <lumo_energy> 
0.09 
 
>  <melting_point> 
31.98 
 
>  <molecular_refractivity> 
48.57 
 
>  <oscillator_strength_1> 
0.0021 
 
>  <oscillator_strength_2> 
0.0025 
 
>  <oscillator_strength_3> 
0.0112 
 
>  <oscillator_strength_4> 
0.0053 
 
>  <open_babel_can_smiles> 
CC(C1SCCS1)(C)C 
 
>  <mulliken_charges> 
23 
1   -0.457509 
2   -0.4542 
3   -0.452427 
4   -0.418039 
5   -0.414775 
6   -0.41754 
7   0.10986 
8   0.109043 
9   0.103601 
10   0.144691 
11   0.167591 
12   0.141505 
13   0.144096 
14   0.137873 
15   0.166068 
16   0.13787 
17   0.155776 
18   0.160039 
19   0.182875 
20   0.188911 
21   0.181497 
22   0.189311 
23   0.193882 
 
>  <lowdin_charges> 
23 
1   -0.446441 
2   -0.444352 
3   -0.448721 
4   -0.372965 
5   -0.374512 
6   -0.320443 
7   0.00902 
8   0.095435 
9   0.085023 
10   0.152867 
11   0.160735 
12   0.147655 
13   0.152269 
14   0.145367 
15   0.158288 
16   0.150288 
17   0.153823 
18   0.156687 
19   0.172459 
20   0.162028 
21   0.171996 
22   0.164394 
23   0.169101 
 
$$$$ 
 
