PCCDB-ID:  21671 
public computational chemistry database (PCCDB) project, http://pccdb.org 
 
 28 28  0  0  1  0  0  0  0  0999 V2000 
    1.6856   -1.1625    0.4897 C   0  0  0  0  0  0  0  0  0  0  0  0 
    3.8974   -0.0243    0.9212 C   0  0  0  0  0  0  0  0  0  0  0  0 
    7.1517   -0.2920   -2.3205 C   0  0  0  0  0  0  0  0  0  0  0  0 
    5.0764    1.0746   -2.1004 C   0  0  0  0  0  0  0  0  0  0  0  0 
    4.8592   -1.4016   -2.0091 C   0  0  0  0  0  0  0  0  0  0  0  0 
    3.5980    1.3149   -1.9157 C   0  0  0  0  0  0  0  0  0  0  0  0 
    3.3466   -1.1828   -2.1725 C   0  0  0  0  0  0  0  0  0  0  0  0 
    2.6098   -0.0041    0.0802 C   0  0  0  0  0  0  0  0  0  0  0  0 
    5.6639   -0.1282   -2.1456 C   0  0  0  0  0  0  0  0  0  0  0  0 
    2.7912    0.0732   -1.4652 C   0  0  1  0  0  0  0  0  0  0  0  0 
    1.4281   -1.0950    1.5534 H   0  0  0  0  0  0  0  0  0  0  0  0 
    2.1616   -2.1380    0.3323 H   0  0  0  0  0  0  0  0  0  0  0  0 
    0.7493   -1.1526   -0.0821 H   0  0  0  0  0  0  0  0  0  0  0  0 
    3.6513    0.0933    1.9839 H   0  0  0  0  0  0  0  0  0  0  0  0 
    4.5829    0.7824    0.6451 H   0  0  0  0  0  0  0  0  0  0  0  0 
    4.4377   -0.9716    0.8182 H   0  0  0  0  0  0  0  0  0  0  0  0 
    7.6626    0.6741   -2.3874 H   0  0  0  0  0  0  0  0  0  0  0  0 
    7.3857   -0.8654   -3.2288 H   0  0  0  0  0  0  0  0  0  0  0  0 
    7.5909   -0.8497   -1.4808 H   0  0  0  0  0  0  0  0  0  0  0  0 
    5.6945    1.9661   -2.2153 H   0  0  0  0  0  0  0  0  0  0  0  0 
    5.2005   -2.1291   -2.7610 H   0  0  0  0  0  0  0  0  0  0  0  0 
    5.0866   -1.8703   -1.0401 H   0  0  0  0  0  0  0  0  0  0  0  0 
    3.1847    1.6916   -2.8652 H   0  0  0  0  0  0  0  0  0  0  0  0 
    3.4487    2.1357   -1.1985 H   0  0  0  0  0  0  0  0  0  0  0  0 
    2.8015   -2.0795   -1.8560 H   0  0  0  0  0  0  0  0  0  0  0  0 
    3.1372   -1.0658   -3.2448 H   0  0  0  0  0  0  0  0  0  0  0  0 
    2.0833    0.9273    0.3423 H   0  0  0  0  0  0  0  0  0  0  0  0 
    1.7681    0.2035   -1.8473 H   0  0  0  0  0  0  0  0  0  0  0  0 
  1 11  1  0  0  0  0 
  2 14  1  0  0  0  0 
  3  9  1  0  0  0  0 
  3 19  1  0  0  0  0 
  4  6  1  0  0  0  0 
  5 22  1  0  0  0  0 
  6 10  1  0  0  0  0 
  6 24  1  0  0  0  0 
  7  5  1  0  0  0  0 
  7 25  1  0  0  0  0 
  7 10  1  0  0  0  0 
  8 27  1  0  0  0  0 
  8  1  1  0  0  0  0 
  8  2  1  0  0  0  0 
  9  4  2  0  0  0  0 
  9  5  1  0  0  0  0 
 10 28  1  6  0  0  0 
 10  8  1  0  0  0  0 
 12  1  1  0  0  0  0 
 13  1  1  0  0  0  0 
 15  2  1  0  0  0  0 
 16  2  1  0  0  0  0 
 17  3  1  0  0  0  0 
 18  3  1  0  0  0  0 
 20  4  1  0  0  0  0 
 21  5  1  0  0  0  0 
 23  6  1  0  0  0  0 
 26  7  1  0  0  0  0 
M  END 
>  <HBA> 
0 
 
>  <HBD> 
0 
 
>  <TPSA> 
0.0 
 
>  <cid> 
21671 
 
>  <dipole> 
0.16 
 
>  <excitation_energy_1> 
5.498 
 
>  <excitation_energy_2> 
5.934 
 
>  <excitation_energy_3> 
6.075 
 
>  <excitation_energy_4> 
6.113 
 
>  <homo_energy> 
-6.074 
 
>  <homo_lumo_gap> 
7.056 
 
>  <logP> 
3.389 
 
>  <lumo_energy> 
0.982 
 
>  <melting_point> 
6.57 
 
>  <molecular_refractivity> 
47.6 
 
>  <oscillator_strength_1> 
0.0044 
 
>  <oscillator_strength_2> 
0.0009 
 
>  <oscillator_strength_3> 
0.0379 
 
>  <oscillator_strength_4> 
0.0041 
 
>  <open_babel_can_smiles> 
CC1=CC[C@@H](CC1)C(C)C 
 
>  <mulliken_charges> 
28 
1   -0.44935 
2   -0.449203 
3   -0.513324 
4   -0.171893 
5   -0.32697 
6   -0.310975 
7   -0.278512 
8   -0.069249 
9   0.191462 
10   -0.075587 
11   0.139178 
12   0.141485 
13   0.137215 
14   0.134388 
15   0.152221 
16   0.140905 
17   0.149648 
18   0.148051 
19   0.148904 
20   0.108039 
21   0.134054 
22   0.144367 
23   0.140726 
24   0.136319 
25   0.132033 
26   0.133794 
27   0.118046 
28   0.114228 
 
>  <lowdin_charges> 
28 
1   -0.445008 
2   -0.449259 
3   -0.440336 
4   -0.196798 
5   -0.279895 
6   -0.278992 
7   -0.276992 
8   -0.122051 
9   -0.017878 
10   -0.128074 
11   0.146882 
12   0.144721 
13   0.145774 
14   0.144038 
15   0.155563 
16   0.14491 
17   0.153775 
18   0.152196 
19   0.153382 
20   0.145973 
21   0.146886 
22   0.145527 
23   0.148829 
24   0.147063 
25   0.14489 
26   0.142125 
27   0.135196 
28   0.137554 
 
$$$$ 
 
