PCCDB-ID:  34295 
public computational chemistry database (PCCDB) project, http://pccdb.org 
 
 15 15  0  0  0  0  0  0  0  0999 V2000 
    0.9358    0.0176   -0.0676 C   0  0  0  0  0  0  0  0  0  0  0  0 
    2.6828    2.6648   -0.0619 C   0  0  0  0  0  0  0  0  0  0  0  0 
    3.2798   -1.0843   -0.0653 C   0  0  0  0  0  0  0  0  0  0  0  0 
    4.6149   -0.8049   -0.0636 C   0  0  0  0  0  0  0  0  0  0  0  0 
    2.4450    0.0832   -0.0642 C   0  0  0  0  0  0  0  0  0  0  0  0 
    3.1772    1.2474   -0.0621 C   0  0  0  0  0  0  0  0  0  0  0  0 
    4.8939    0.9078   -0.0615 S   0  0  0  0  0  0  0  0  0  0  0  0 
    0.5951   -1.0225   -0.0631 H   0  0  0  0  0  0  0  0  0  0  0  0 
    0.5051    0.4984   -0.9546 H   0  0  0  0  0  0  0  0  0  0  0  0 
    0.5003    0.5075    0.8119 H   0  0  0  0  0  0  0  0  0  0  0  0 
    1.5889    2.6837   -0.0717 H   0  0  0  0  0  0  0  0  0  0  0  0 
    3.0314    3.2217   -0.9407 H   0  0  0  0  0  0  0  0  0  0  0  0 
    3.0153    3.2161    0.8267 H   0  0  0  0  0  0  0  0  0  0  0  0 
    2.8823   -2.0947   -0.0661 H   0  0  0  0  0  0  0  0  0  0  0  0 
    5.4478   -1.4948   -0.0654 H   0  0  0  0  0  0  0  0  0  0  0  0 
  1  5  1  0  0  0  0 
  1  8  1  0  0  0  0 
  1 10  1  0  0  0  0 
  2 13  1  0  0  0  0 
  3  5  1  0  0  0  0 
  3  4  2  0  0  0  0 
  4  7  1  0  0  0  0 
  5  6  2  0  0  0  0 
  6  2  1  0  0  0  0 
  6  7  1  0  0  0  0 
  9  1  1  0  0  0  0 
 11  2  1  0  0  0  0 
 12  2  1  0  0  0  0 
 14  3  1  0  0  0  0 
 15  4  1  0  0  0  0 
M  END 
>  <HBA> 
1 
 
>  <HBD> 
0 
 
>  <TPSA> 
28.24 
 
>  <cid> 
34295 
 
>  <dipole> 
1.02 
 
>  <excitation_energy_1> 
5.225 
 
>  <excitation_energy_2> 
5.296 
 
>  <excitation_energy_3> 
5.527 
 
>  <excitation_energy_4> 
5.588 
 
>  <homo_energy> 
-5.845 
 
>  <homo_lumo_gap> 
5.742 
 
>  <logP> 
2.365 
 
>  <lumo_energy> 
-0.103 
 
>  <melting_point> 
11.22 
 
>  <molecular_refractivity> 
34.25 
 
>  <oscillator_strength_1> 
0.0004 
 
>  <oscillator_strength_2> 
0.1234 
 
>  <oscillator_strength_3> 
0.0122 
 
>  <oscillator_strength_4> 
0.0894 
 
>  <open_babel_can_smiles> 
Cc1sccc1C 
 
>  <mulliken_charges> 
15 
1   -0.529304 
2   -0.504096 
3   -0.123756 
4   -0.350636 
5   0.16644 
6   -0.162778 
7   0.225026 
8   0.155781 
9   0.161412 
10   0.161286 
11   0.164598 
12   0.168782 
13   0.168829 
14   0.131105 
15   0.167312 
 
>  <lowdin_charges> 
15 
1   -0.441849 
2   -0.437613 
3   -0.189786 
4   -0.327017 
5   -0.039722 
6   -0.169223 
7   0.295683 
8   0.158091 
9   0.159912 
10   0.159923 
11   0.163013 
12   0.164223 
13   0.164087 
14   0.159722 
15   0.180557 
 
$$$$ 
 
