PCCDB-ID:  27714 
public computational chemistry database (PCCDB) project, http://pccdb.org 
 
 34 35  0  0  0  0  0  0  0  0999 V2000 
   -0.5469    2.4655    1.4121 C   0  0  0  0  0  0  0  0  0  0  0  0 
   -1.7075    1.5446    0.9352 C   0  0  0  0  0  0  0  0  0  0  0  0 
    0.7479    1.8735    0.7949 C   0  0  0  0  0  0  0  0  0  0  0  0 
   -1.0195    0.3691    0.2090 C   0  0  0  0  0  0  0  0  0  0  0  0 
   -0.4055    4.7486   -2.5086 C   0  0  0  0  0  0  0  0  0  0  0  0 
   -1.0522    5.9806   -2.5983 C   0  0  0  0  0  0  0  0  0  0  0  0 
   -0.1378    4.7491   -4.9133 C   0  0  0  0  0  0  0  0  0  0  0  0 
    1.1529    2.1521   -2.3305 C   0  0  0  0  0  0  0  0  0  0  0  0 
    0.0634    4.1211   -3.6691 C   0  0  0  0  0  0  0  0  0  0  0  0 
    0.2775    0.9677   -0.3608 C   0  0  0  0  0  0  0  0  0  0  0  0 
   -1.2426    6.6042   -3.8322 C   0  0  0  0  0  0  0  0  0  0  0  0 
   -0.7783    5.9737   -5.0091 C   0  0  0  0  0  0  0  0  0  0  0  0 
    0.7902    2.8231   -3.6616 C   0  0  0  0  0  0  0  0  0  0  0  0 
   -0.0323    1.7607   -1.5629 N   0  0  0  0  0  0  0  0  0  0  0  0 
   -1.8634    7.8058   -3.9782 O   0  0  0  0  0  0  0  0  0  0  0  0 
   -0.9935    6.6298   -6.1874 O   0  0  0  0  0  0  0  0  0  0  0  0 
    1.1360    2.2858   -4.7073 O   0  0  0  0  0  0  0  0  0  0  0  0 
   -0.4773    2.5019    2.5046 H   0  0  0  0  0  0  0  0  0  0  0  0 
   -0.7084    3.4940    1.0742 H   0  0  0  0  0  0  0  0  0  0  0  0 
   -2.3553    2.0849    0.2382 H   0  0  0  0  0  0  0  0  0  0  0  0 
   -2.3376    1.2013    1.7625 H   0  0  0  0  0  0  0  0  0  0  0  0 
    1.2741    1.2523    1.5304 H   0  0  0  0  0  0  0  0  0  0  0  0 
    1.4557    2.6440    0.4715 H   0  0  0  0  0  0  0  0  0  0  0  0 
   -1.6498   -0.0926   -0.5614 H   0  0  0  0  0  0  0  0  0  0  0  0 
   -0.7540   -0.4215    0.9220 H   0  0  0  0  0  0  0  0  0  0  0  0 
   -0.3011    4.2591   -1.5479 H   0  0  0  0  0  0  0  0  0  0  0  0 
   -1.4230    6.4686   -1.6984 H   0  0  0  0  0  0  0  0  0  0  0  0 
    0.2321    4.2484   -5.8049 H   0  0  0  0  0  0  0  0  0  0  0  0 
    1.7436    2.8561   -1.7297 H   0  0  0  0  0  0  0  0  0  0  0  0 
    1.8079    1.3027   -2.5852 H   0  0  0  0  0  0  0  0  0  0  0  0 
    1.0238    0.1830   -0.5817 H   0  0  0  0  0  0  0  0  0  0  0  0 
   -0.6297    1.1985   -2.1686 H   0  0  0  0  0  0  0  0  0  0  0  0 
   -2.1293    8.1265   -3.1019 H   0  0  0  0  0  0  0  0  0  0  0  0 
   -0.6304    6.0897   -6.9067 H   0  0  0  0  0  0  0  0  0  0  0  0 
  1 18  1  0  0  0  0 
  2  1  1  0  0  0  0 
  2 21  1  0  0  0  0 
  3  1  1  0  0  0  0 
  3 22  1  0  0  0  0 
  4 25  1  0  0  0  0 
  4  2  1  0  0  0  0 
  5 26  1  0  0  0  0 
  6  5  1  0  0  0  0 
  6 27  1  0  0  0  0 
  7  9  1  0  0  0  0 
  8 29  1  0  0  0  0 
  8 14  1  0  0  0  0 
  9 13  1  0  0  0  0 
  9  5  2  0  0  0  0 
 10  4  1  0  0  0  0 
 10  3  1  0  0  0  0 
 11  6  2  0  0  0  0 
 12  7  2  0  0  0  0 
 12 11  1  0  0  0  0 
 13  8  1  0  0  0  0 
 14 10  1  0  0  0  0 
 15 11  1  0  0  0  0 
 15 33  1  0  0  0  0 
 16 12  1  0  0  0  0 
 17 13  2  0  0  0  0 
 19  1  1  0  0  0  0 
 20  2  1  0  0  0  0 
 23  3  1  0  0  0  0 
 24  4  1  0  0  0  0 
 28  7  1  0  0  0  0 
 30  8  1  0  0  0  0 
 31 10  1  0  0  0  0 
 32 14  1  0  0  0  0 
 34 16  1  0  0  0  0 
M  END 
>  <HBA> 
4 
 
>  <HBD> 
3 
 
>  <TPSA> 
69.56 
 
>  <cid> 
27714 
 
>  <dipole> 
2.9 
 
>  <excitation_energy_1> 
3.772 
 
>  <excitation_energy_2> 
3.891 
 
>  <excitation_energy_3> 
4.202 
 
>  <excitation_energy_4> 
4.67 
 
>  <homo_energy> 
-5.804 
 
>  <homo_lumo_gap> 
4.514 
 
>  <logP> 
2.204 
 
>  <lumo_energy> 
-1.29 
 
>  <melting_point> 
166.6 
 
>  <molecular_refractivity> 
65.41 
 
>  <oscillator_strength_1> 
0.0006 
 
>  <oscillator_strength_2> 
0.0484 
 
>  <oscillator_strength_3> 
0.07 
 
>  <oscillator_strength_4> 
0.1437 
 
>  <open_babel_can_smiles> 
O=C(c1ccc(c(c1)O)O)CNC1CCCC1 
 
>  <mulliken_charges> 
34 
1   -0.26423 
2   -0.259823 
3   -0.268343 
4   -0.289524 
5   -0.185982 
6   -0.208416 
7   -0.245855 
8   -0.206815 
9   0.067603 
10   0.040239 
11   0.334033 
12   0.331576 
13   0.373061 
14   -0.570128 
15   -0.621138 
16   -0.635322 
17   -0.469597 
18   0.134586 
19   0.140158 
20   0.14748 
21   0.133411 
22   0.135205 
23   0.137086 
24   0.131423 
25   0.138752 
26   0.169771 
27   0.122712 
28   0.15204 
29   0.155092 
30   0.145448 
31   0.109189 
32   0.303116 
33   0.411461 
34   0.41173 
 
>  <lowdin_charges> 
34 
1   -0.28079 
2   -0.285599 
3   -0.290167 
4   -0.286686 
5   -0.151156 
6   -0.212748 
7   -0.183717 
8   -0.231287 
9   -0.060857 
10   -0.068403 
11   0.095531 
12   0.075212 
13   0.151013 
14   -0.36298 
15   -0.354601 
16   -0.369963 
17   -0.25438 
18   0.142196 
19   0.143714 
20   0.150376 
21   0.145076 
22   0.145935 
23   0.146745 
24   0.14416 
25   0.147337 
26   0.176473 
27   0.156558 
28   0.173384 
29   0.154981 
30   0.141722 
31   0.12105 
32   0.258585 
33   0.360476 
34   0.362808 
 
$$$$ 
 
