PCCDB-ID:  24443 
public computational chemistry database (PCCDB) project, http://pccdb.org 
 
 33 32  0  0  1  0  0  0  0  0999 V2000 
   -0.4617   -0.1733   -0.6820 C   0  0  0  0  0  0  0  0  0  0  0  0 
   -0.1509   -2.2683   -2.0251 C   0  0  0  0  0  0  0  0  0  0  0  0 
    1.7528   -6.0157    0.3558 C   0  0  0  0  0  0  0  0  0  0  0  0 
    1.2847   -4.7151   -0.3284 C   0  0  0  0  0  0  0  0  0  0  0  0 
    1.3750   -0.3524   -2.4104 C   0  0  0  0  0  0  0  0  0  0  0  0 
    2.5238   -6.9727   -0.5549 C   0  0  0  0  0  0  0  0  0  0  0  0 
    1.5334   -1.6402   -0.1956 C   0  0  2  0  0  0  0  0  0  0  0  0 
    2.5600   -2.6906   -0.6652 C   0  0  0  0  0  0  0  0  0  0  0  0 
    0.5826   -1.1095   -1.3263 C   0  0  0  0  0  0  0  0  0  0  0  0 
    2.3442   -8.2317   -0.6436 N   0  0  0  0  0  0  0  0  0  0  0  0 
    2.4507   -3.9537   -0.7501 N   0  0  0  0  0  0  0  0  0  0  0  0 
    1.9406    0.8433   -1.8407 O   0  0  0  0  0  0  0  0  0  0  0  0 
    3.5013   -6.4074   -1.2931 O   0  0  0  0  0  0  0  0  0  0  0  0 
    2.2764   -0.5787    0.4172 O   0  0  0  0  0  0  0  0  0  0  0  0 
    3.7350   -2.1328   -1.0361 O   0  0  0  0  0  0  0  0  0  0  0  0 
   -1.1280    0.2366   -1.4494 H   0  0  0  0  0  0  0  0  0  0  0  0 
   -0.0013    0.6659   -0.1559 H   0  0  0  0  0  0  0  0  0  0  0  0 
   -1.0759   -0.7273    0.0372 H   0  0  0  0  0  0  0  0  0  0  0  0 
   -0.8575   -1.8715   -2.7625 H   0  0  0  0  0  0  0  0  0  0  0  0 
   -0.7268   -2.8590   -1.3062 H   0  0  0  0  0  0  0  0  0  0  0  0 
    0.5382   -2.9402   -2.5464 H   0  0  0  0  0  0  0  0  0  0  0  0 
    0.8803   -6.5381    0.7618 H   0  0  0  0  0  0  0  0  0  0  0  0 
    2.3957   -5.7448    1.2046 H   0  0  0  0  0  0  0  0  0  0  0  0 
    0.6273   -4.1661    0.3615 H   0  0  0  0  0  0  0  0  0  0  0  0 
    0.6821   -4.9725   -1.2091 H   0  0  0  0  0  0  0  0  0  0  0  0 
    0.6930   -0.0823   -3.2284 H   0  0  0  0  0  0  0  0  0  0  0  0 
    2.1684   -0.9917   -2.8175 H   0  0  0  0  0  0  0  0  0  0  0  0 
    0.9061   -2.0892    0.5823 H   0  0  0  0  0  0  0  0  0  0  0  0 
    1.5833   -8.5138   -0.0233 H   0  0  0  0  0  0  0  0  0  0  0  0 
    2.6038    1.1987   -2.4516 H   0  0  0  0  0  0  0  0  0  0  0  0 
    3.4490   -5.4258   -1.1927 H   0  0  0  0  0  0  0  0  0  0  0  0 
    2.2181    0.1992   -0.1764 H   0  0  0  0  0  0  0  0  0  0  0  0 
    3.7382   -1.2615   -0.5837 H   0  0  0  0  0  0  0  0  0  0  0  0 
  1 17  1  0  0  0  0 
  1 18  1  0  0  0  0 
  2  9  1  0  0  0  0 
  2 20  1  0  0  0  0 
  3 22  1  0  0  0  0 
  3 23  1  0  0  0  0 
  4  3  1  0  0  0  0 
  4 24  1  0  0  0  0 
  5 12  1  0  0  0  0 
  5  9  1  0  0  0  0 
  6  3  1  0  0  0  0 
  7 14  1  0  0  0  0 
  7 28  1  1  0  0  0 
  8  7  1  0  0  0  0 
  9  1  1  0  0  0  0 
  9  7  1  0  0  0  0 
 10  6  2  0  0  0  0 
 10 29  1  0  0  0  0 
 11  8  2  0  0  0  0 
 11  4  1  0  0  0  0 
 13 31  1  0  0  0  0 
 13  6  1  0  0  0  0 
 15  8  1  0  0  0  0 
 15 33  1  0  0  0  0 
 16  1  1  0  0  0  0 
 19  2  1  0  0  0  0 
 21  2  1  0  0  0  0 
 25  4  1  0  0  0  0 
 26  5  1  0  0  0  0 
 27  5  1  0  0  0  0 
 30 12  1  0  0  0  0 
 32 14  1  0  0  0  0 
M  END 
>  <HBA> 
6 
 
>  <HBD> 
4 
 
>  <TPSA> 
112.65 
 
>  <cid> 
24443 
 
>  <dipole> 
9.28 
 
>  <excitation_energy_1> 
5.361 
 
>  <excitation_energy_2> 
5.495 
 
>  <excitation_energy_3> 
5.663 
 
>  <excitation_energy_4> 
5.727 
 
>  <homo_energy> 
-6.319 
 
>  <homo_lumo_gap> 
6.172 
 
>  <logP> 
-0.551 
 
>  <lumo_energy> 
-0.147 
 
>  <melting_point> 
151.58 
 
>  <molecular_refractivity> 
53.35 
 
>  <oscillator_strength_1> 
0.0004 
 
>  <oscillator_strength_2> 
0.0045 
 
>  <oscillator_strength_3> 
0.0004 
 
>  <oscillator_strength_4> 
0.0029 
 
>  <open_babel_can_smiles> 
OCC([C@@H](/C(=N\CCC(=N)O)/O)O)(C)C 
 
>  <mulliken_charges> 
33 
1   -0.441657 
2   -0.469547 
3   -0.355741 
4   -0.153127 
5   -0.056869 
6   0.481944 
7   0.062744 
8   0.515211 
9   0.01152 
10   -0.598625 
11   -0.475055 
12   -0.645042 
13   -0.600757 
14   -0.6783 
15   -0.597328 
16   0.149999 
17   0.168854 
18   0.149616 
19   0.155005 
20   0.157475 
21   0.170536 
22   0.143314 
23   0.171403 
24   0.133964 
25   0.163838 
26   0.144374 
27   0.163427 
28   0.154168 
29   0.267723 
30   0.415624 
31   0.430263 
32   0.442188 
33   0.418856 
 
>  <lowdin_charges> 
33 
1   -0.446092 
2   -0.44887 
3   -0.316489 
4   -0.203719 
5   -0.14647 
6   0.119589 
7   -0.032183 
8   0.12 
9   -0.011279 
10   -0.419064 
11   -0.216917 
12   -0.471438 
13   -0.378949 
14   -0.472775 
15   -0.362231 
16   0.156285 
17   0.163147 
18   0.155229 
19   0.15863 
20   0.159644 
21   0.16341 
22   0.156132 
23   0.165431 
24   0.135987 
25   0.15394 
26   0.143866 
27   0.151007 
28   0.157783 
29   0.246854 
30   0.36145 
31   0.347219 
32   0.354002 
33   0.356869 
 
$$$$ 
 
