PCCDB-ID:  16679 
public computational chemistry database (PCCDB) project, http://pccdb.org 
 
 26 28  0  0  0  0  0  0  0  0999 V2000 
   -1.1222   -1.0942   -1.0156 C   0  0  0  0  0  0  0  0  0  0  0  0 
    5.2603    3.8978   -0.4682 C   0  0  0  0  0  0  0  0  0  0  0  0 
   -0.4634   -1.6098    0.1035 C   0  0  0  0  0  0  0  0  0  0  0  0 
    5.1507    3.4411    0.8476 C   0  0  0  0  0  0  0  0  0  0  0  0 
   -0.6368    0.0555   -1.6395 C   0  0  0  0  0  0  0  0  0  0  0  0 
    4.4207    3.3814   -1.4558 C   0  0  0  0  0  0  0  0  0  0  0  0 
    0.6711   -0.9773    0.6059 C   0  0  0  0  0  0  0  0  0  0  0  0 
    4.2122    2.4667    1.1786 C   0  0  0  0  0  0  0  0  0  0  0  0 
    1.1911    1.8945   -1.6509 C   0  0  0  0  0  0  0  0  0  0  0  0 
    2.4810    1.7448   -1.9962 C   0  0  0  0  0  0  0  0  0  0  0  0 
    0.5202    0.6715   -1.1647 C   0  0  0  0  0  0  0  0  0  0  0  0 
    3.4540    2.4336   -1.1235 C   0  0  0  0  0  0  0  0  0  0  0  0 
    1.1943    0.1682   -0.0178 C   0  0  0  0  0  0  0  0  0  0  0  0 
    3.3383    1.9484    0.2082 C   0  0  0  0  0  0  0  0  0  0  0  0 
    2.4046    0.8155    0.6952 C   0  0  0  0  0  0  0  0  0  0  0  0 
    2.6604    0.3669    1.8075 O   0  0  0  0  0  0  0  0  0  0  0  0 
   -2.0109   -1.5869   -1.4012 H   0  0  0  0  0  0  0  0  0  0  0  0 
    5.9976    4.6542   -0.7241 H   0  0  0  0  0  0  0  0  0  0  0  0 
   -0.8402   -2.5046    0.5914 H   0  0  0  0  0  0  0  0  0  0  0  0 
    5.8043    3.8416    1.6178 H   0  0  0  0  0  0  0  0  0  0  0  0 
   -1.1405    0.4684   -2.5089 H   0  0  0  0  0  0  0  0  0  0  0  0 
    4.4976    3.7252   -2.4834 H   0  0  0  0  0  0  0  0  0  0  0  0 
    1.1723   -1.3577    1.4887 H   0  0  0  0  0  0  0  0  0  0  0  0 
    4.1390    2.0901    2.1925 H   0  0  0  0  0  0  0  0  0  0  0  0 
    0.8784    2.8345   -1.1922 H   0  0  0  0  0  0  0  0  0  0  0  0 
    2.8005    0.7906   -2.4195 H   0  0  0  0  0  0  0  0  0  0  0  0 
  1  3  2  0  0  0  0 
  2  4  2  0  0  0  0 
  3 19  1  0  0  0  0 
  3  7  1  0  0  0  0 
  4  8  1  0  0  0  0 
  4 20  1  0  0  0  0 
  5 11  2  0  0  0  0 
  5  1  1  0  0  0  0 
  6 12  2  0  0  0  0 
  6  2  1  0  0  0  0 
  7 23  1  0  0  0  0 
  8 24  1  0  0  0  0 
  9 25  1  0  0  0  0 
  9 11  1  0  0  0  0 
 10  9  1  0  0  0  0 
 10 12  1  0  0  0  0 
 11 13  1  0  0  0  0 
 12 14  1  0  0  0  0 
 13  7  2  0  0  0  0 
 13 15  1  0  0  0  0 
 14 15  1  0  0  0  0 
 14  8  2  0  0  0  0 
 15 16  2  0  0  0  0 
 17  1  1  0  0  0  0 
 18  2  1  0  0  0  0 
 21  5  1  0  0  0  0 
 22  6  1  0  0  0  0 
 26 10  1  0  0  0  0 
M  RAD  2   9   2  10   2 
M  END 
>  <HBA> 
1 
 
>  <HBD> 
0 
 
>  <TPSA> 
17.07 
 
>  <cid> 
16679 
 
>  <dipole> 
1.76 
 
>  <excitation_energy_1> 
3.488 
 
>  <excitation_energy_2> 
3.601 
 
>  <excitation_energy_3> 
4.111 
 
>  <excitation_energy_4> 
4.263 
 
>  <homo_energy> 
-6.517 
 
>  <homo_lumo_gap> 
4.582 
 
>  <logP> 
3.353 
 
>  <lumo_energy> 
-1.935 
 
>  <melting_point> 
128.43 
 
>  <molecular_refractivity> 
67.72 
 
>  <oscillator_strength_1> 
0.0001 
 
>  <oscillator_strength_2> 
0.0078 
 
>  <oscillator_strength_3> 
0.0165 
 
>  <oscillator_strength_4> 
0.0136 
 
>  <open_babel_can_smiles> 
O=C1c2ccccc2[CH][CH]c2c1cccc2 
 
>  <mulliken_charges> 
26 
1   -0.123686 
2   -0.123731 
3   -0.128447 
4   -0.12865 
5   -0.191963 
6   -0.192325 
7   -0.157148 
8   -0.156999 
9   -0.206377 
10   -0.208171 
11   0.105021 
12   0.105811 
13   0.009864 
14   0.010346 
15   0.381221 
16   -0.464199 
17   0.138018 
18   0.137978 
19   0.137217 
20   0.137208 
21   0.139209 
22   0.139226 
23   0.167823 
24   0.167549 
25   0.152582 
26   0.152623 
 
>  <lowdin_charges> 
26 
1   -0.138103 
2   -0.137699 
3   -0.15769 
4   -0.159071 
5   -0.163983 
6   -0.162857 
7   -0.128306 
8   -0.127215 
9   -0.162376 
10   -0.162547 
11   0.010483 
12   0.009957 
13   -0.049771 
14   -0.049219 
15   0.16424 
16   -0.242317 
17   0.162121 
18   0.162224 
19   0.162143 
20   0.162985 
21   0.164286 
22   0.162698 
23   0.179392 
24   0.177931 
25   0.161564 
26   0.161131 
 
$$$$ 
 
