PCCDB-ID:  23404 
public computational chemistry database (PCCDB) project, http://pccdb.org 
 
 15 15  0  0  0  0  0  0  0  0999 V2000 
   -0.7888   -0.7835    0.6449 C   0  0  0  0  0  0  0  0  0  0  0  0 
    0.0114   -1.8810    0.5068 C   0  0  0  0  0  0  0  0  0  0  0  0 
   -0.8294    1.7831    0.2381 C   0  0  0  0  0  0  0  0  0  0  0  0 
    1.1158    0.2073   -0.2492 C   0  0  0  0  0  0  0  0  0  0  0  0 
   -0.1574    0.4336    0.2172 C   0  0  0  0  0  0  0  0  0  0  0  0 
   -1.8039    2.0464   -0.9238 C   0  0  0  0  0  0  0  0  0  0  0  0 
   -2.7443    2.7941   -0.8325 O   0  0  0  0  0  0  0  0  0  0  0  0 
   -1.5152    1.4227   -2.0898 O   0  0  0  0  0  0  0  0  0  0  0  0 
    1.5600   -1.4667   -0.1573 S   0  0  0  0  0  0  0  0  0  0  0  0 
   -1.7987   -0.8249    1.0396 H   0  0  0  0  0  0  0  0  0  0  0  0 
   -0.2143   -2.9094    0.7548 H   0  0  0  0  0  0  0  0  0  0  0  0 
   -0.0764    2.5808    0.1968 H   0  0  0  0  0  0  0  0  0  0  0  0 
   -1.3973    1.9370    1.1598 H   0  0  0  0  0  0  0  0  0  0  0  0 
    1.8305    0.9384   -0.6057 H   0  0  0  0  0  0  0  0  0  0  0  0 
   -0.7537    0.8284   -1.9542 H   0  0  0  0  0  0  0  0  0  0  0  0 
  1 10  1  0  0  0  0 
  2  1  2  0  0  0  0 
  2 11  1  0  0  0  0 
  3 13  1  0  0  0  0 
  4  9  1  0  0  0  0 
  4  5  2  0  0  0  0 
  5  3  1  0  0  0  0 
  5  1  1  0  0  0  0 
  6  7  2  0  0  0  0 
  6  3  1  0  0  0  0 
  8 15  1  0  0  0  0 
  8  6  1  0  0  0  0 
  9  2  1  0  0  0  0 
 12  3  1  0  0  0  0 
 14  4  1  0  0  0  0 
M  END 
>  <HBA> 
3 
 
>  <HBD> 
1 
 
>  <TPSA> 
65.54 
 
>  <cid> 
23404 
 
>  <dipole> 
4.29 
 
>  <excitation_energy_1> 
5.309 
 
>  <excitation_energy_2> 
5.661 
 
>  <excitation_energy_3> 
5.682 
 
>  <excitation_energy_4> 
5.794 
 
>  <homo_energy> 
-6.817 
 
>  <homo_lumo_gap> 
5.913 
 
>  <logP> 
1.375 
 
>  <lumo_energy> 
-0.903 
 
>  <melting_point> 
82.87 
 
>  <molecular_refractivity> 
35.86 
 
>  <oscillator_strength_1> 
0.039 
 
>  <oscillator_strength_2> 
0.0479 
 
>  <oscillator_strength_3> 
0.0708 
 
>  <oscillator_strength_4> 
0.0117 
 
>  <open_babel_can_smiles> 
OC(=O)Cc1cscc1 
 
>  <mulliken_charges> 
15 
1   -0.101596 
2   -0.347118 
3   -0.44777 
4   -0.401653 
5   0.110163 
6   0.592986 
7   -0.440837 
8   -0.563693 
9   0.276044 
10   0.156841 
11   0.186172 
12   0.189657 
13   0.193393 
14   0.182645 
15   0.414766 
 
>  <lowdin_charges> 
15 
1   -0.184745 
2   -0.309375 
3   -0.311097 
4   -0.350459 
5   -0.046975 
6   0.187904 
7   -0.240597 
8   -0.353726 
9   0.338684 
10   0.171931 
11   0.186875 
12   0.181699 
13   0.183617 
14   0.186478 
15   0.359786 
 
$$$$ 
 
