PCCDB-ID:  26690 
public computational chemistry database (PCCDB) project, http://pccdb.org 
 
 39 38  0  0  0  0  0  0  0  0999 V2000 
    0.2934    1.6800    2.5269 C   0  0  0  0  0  0  0  0  0  0  0  0 
    9.8188    8.0656    3.7145 C   0  0  0  0  0  0  0  0  0  0  0  0 
   12.0793    7.1130    3.8188 C   0  0  0  0  0  0  0  0  0  0  0  0 
    1.7262    2.0203    2.9498 C   0  0  0  0  0  0  0  0  0  0  0  0 
    2.7266    1.9808    1.7872 C   0  0  0  0  0  0  0  0  0  0  0  0 
    4.1677    2.3008    2.2052 C   0  0  0  0  0  0  0  0  0  0  0  0 
    5.1624    2.2556    1.0362 C   0  0  0  0  0  0  0  0  0  0  0  0 
    6.6317    2.4814    1.4298 C   0  0  0  0  0  0  0  0  0  0  0  0 
    6.9539    3.8922    1.9429 C   0  0  0  0  0  0  0  0  0  0  0  0 
    8.4417    4.0816    2.2638 C   0  0  0  0  0  0  0  0  0  0  0  0 
    8.7639    5.4921    2.7650 C   0  0  0  0  0  0  0  0  0  0  0  0 
   10.2544    5.6702    3.0751 C   0  0  0  0  0  0  0  0  0  0  0  0 
   10.6673    6.9012    3.5380 N   0  0  0  0  0  0  0  0  0  0  0  0 
   11.0452    4.7440    2.9190 O   0  0  0  0  0  0  0  0  0  0  0  0 
   -0.3952    1.7156    3.3790 H   0  0  0  0  0  0  0  0  0  0  0  0 
    0.2365    0.6730    2.0953 H   0  0  0  0  0  0  0  0  0  0  0  0 
   -0.0755    2.3849    1.7716 H   0  0  0  0  0  0  0  0  0  0  0  0 
    9.9284    8.4641    4.7324 H   0  0  0  0  0  0  0  0  0  0  0  0 
    8.7696    7.8207    3.5589 H   0  0  0  0  0  0  0  0  0  0  0  0 
   10.0949    8.8649    3.0110 H   0  0  0  0  0  0  0  0  0  0  0  0 
   12.2201    7.4295    4.8610 H   0  0  0  0  0  0  0  0  0  0  0  0 
   12.4927    7.8930    3.1644 H   0  0  0  0  0  0  0  0  0  0  0  0 
   12.6078    6.1767    3.6461 H   0  0  0  0  0  0  0  0  0  0  0  0 
    2.0531    1.3193    3.7311 H   0  0  0  0  0  0  0  0  0  0  0  0 
    1.7451    3.0181    3.4111 H   0  0  0  0  0  0  0  0  0  0  0  0 
    2.4065    2.6900    1.0091 H   0  0  0  0  0  0  0  0  0  0  0  0 
    2.6971    0.9852    1.3195 H   0  0  0  0  0  0  0  0  0  0  0  0 
    4.4879    1.5857    2.9781 H   0  0  0  0  0  0  0  0  0  0  0  0 
    4.1907    3.2916    2.6801 H   0  0  0  0  0  0  0  0  0  0  0  0 
    4.8695    3.0005    0.2810 H   0  0  0  0  0  0  0  0  0  0  0  0 
    5.0782    1.2770    0.5424 H   0  0  0  0  0  0  0  0  0  0  0  0 
    7.2674    2.2729    0.5578 H   0  0  0  0  0  0  0  0  0  0  0  0 
    6.9186    1.7444    2.1946 H   0  0  0  0  0  0  0  0  0  0  0  0 
    6.3587    4.1090    2.8414 H   0  0  0  0  0  0  0  0  0  0  0  0 
    6.6422    4.6295    1.1868 H   0  0  0  0  0  0  0  0  0  0  0  0 
    9.0487    3.8703    1.3755 H   0  0  0  0  0  0  0  0  0  0  0  0 
    8.7594    3.3521    3.0181 H   0  0  0  0  0  0  0  0  0  0  0  0 
    8.1735    5.7123    3.6658 H   0  0  0  0  0  0  0  0  0  0  0  0 
    8.4550    6.2335    2.0144 H   0  0  0  0  0  0  0  0  0  0  0  0 
  1  4  1  0  0  0  0 
  1 15  1  0  0  0  0 
  2 18  1  0  0  0  0 
  3 21  1  0  0  0  0 
  4 25  1  0  0  0  0 
  4 24  1  0  0  0  0 
  5  6  1  0  0  0  0 
  5  4  1  0  0  0  0 
  6 29  1  0  0  0  0 
  6 28  1  0  0  0  0 
  7  8  1  0  0  0  0 
  7  6  1  0  0  0  0 
  8  9  1  0  0  0  0 
  8 33  1  0  0  0  0 
  9 10  1  0  0  0  0 
  9 34  1  0  0  0  0 
 10 11  1  0  0  0  0 
 10 37  1  0  0  0  0 
 11 12  1  0  0  0  0 
 11 38  1  0  0  0  0 
 12 13  1  0  0  0  0 
 13  2  1  0  0  0  0 
 13  3  1  0  0  0  0 
 14 12  2  0  0  0  0 
 16  1  1  0  0  0  0 
 17  1  1  0  0  0  0 
 19  2  1  0  0  0  0 
 20  2  1  0  0  0  0 
 22  3  1  0  0  0  0 
 23  3  1  0  0  0  0 
 26  5  1  0  0  0  0 
 27  5  1  0  0  0  0 
 30  7  1  0  0  0  0 
 31  7  1  0  0  0  0 
 32  8  1  0  0  0  0 
 35  9  1  0  0  0  0 
 36 10  1  0  0  0  0 
 39 11  1  0  0  0  0 
M  END 
>  <HBA> 
2 
 
>  <HBD> 
0 
 
>  <TPSA> 
20.31 
 
>  <cid> 
26690 
 
>  <dipole> 
3.38 
 
>  <excitation_energy_1> 
5.66 
 
>  <excitation_energy_2> 
5.732 
 
>  <excitation_energy_3> 
6.094 
 
>  <excitation_energy_4> 
6.324 
 
>  <homo_energy> 
-6.335 
 
>  <homo_lumo_gap> 
7.285 
 
>  <logP> 
3.215 
 
>  <lumo_energy> 
0.95 
 
>  <melting_point> 
-6.52 
 
>  <molecular_refractivity> 
62.89 
 
>  <oscillator_strength_1> 
0.001 
 
>  <oscillator_strength_2> 
0.0186 
 
>  <oscillator_strength_3> 
0.0092 
 
>  <oscillator_strength_4> 
0.0058 
 
>  <open_babel_can_smiles> 
CCCCCCCCCC(=O)N(C)C 
 
>  <mulliken_charges> 
39 
1   -0.441131 
2   -0.31496 
3   -0.321002 
4   -0.246819 
5   -0.245297 
6   -0.253471 
7   -0.254694 
8   -0.254605 
9   -0.259362 
10   -0.241984 
11   -0.383301 
12   0.606596 
13   -0.412484 
14   -0.520468 
15   0.140697 
16   0.141319 
17   0.140562 
18   0.156867 
19   0.172002 
20   0.155539 
21   0.147764 
22   0.147603 
23   0.206175 
24   0.129866 
25   0.128374 
26   0.125613 
27   0.126313 
28   0.126183 
29   0.129822 
30   0.124529 
31   0.127294 
32   0.129749 
33   0.128866 
34   0.128174 
35   0.121493 
36   0.149414 
37   0.149743 
38   0.154896 
39   0.154125 
 
>  <lowdin_charges> 
39 
1   -0.445412 
2   -0.351399 
3   -0.356393 
4   -0.272484 
5   -0.274644 
6   -0.277142 
7   -0.275604 
8   -0.275895 
9   -0.279673 
10   -0.269695 
11   -0.310543 
12   0.16244 
13   -0.113298 
14   -0.316455 
15   0.149128 
16   0.145526 
17   0.146851 
18   0.149839 
19   0.16494 
20   0.148576 
21   0.145387 
22   0.146858 
23   0.185614 
24   0.139471 
25   0.137209 
26   0.137728 
27   0.136434 
28   0.137988 
29   0.137154 
30   0.137308 
31   0.140021 
32   0.142341 
33   0.139757 
34   0.136925 
35   0.135256 
36   0.151853 
37   0.15269 
38   0.155455 
39   0.155888 
 
$$$$ 
 
