PCCDB-ID:  36158 
public computational chemistry database (PCCDB) project, http://pccdb.org 
 
 14 13  0  0  0  0  0  0  0  0999 V2000 
    4.3869   -0.4919    1.2558 C   0  0  0  0  0  0  0  0  0  0  0  0 
    3.0000   -3.4920   -2.7245 C   0  0  0  0  0  0  0  0  0  0  0  0 
    4.4603    0.5789   -2.2684 O   0  0  0  0  0  0  0  0  0  0  0  0 
    5.4691   -1.7285   -1.4915 O   0  0  0  0  0  0  0  0  0  0  0  0 
    4.2245   -0.9380   -1.7105 P   0  0  0  0  0  0  0  0  0  0  0  0 
    3.0431   -0.6346    0.0027 S   0  0  0  0  0  0  0  0  0  0  0  0 
    2.9075   -1.7060   -3.1629 S   0  0  0  0  0  0  0  0  0  0  0  0 
    3.9001   -0.5797    2.2297 H   0  0  0  0  0  0  0  0  0  0  0  0 
    4.8849    0.4763    1.1803 H   0  0  0  0  0  0  0  0  0  0  0  0 
    5.1057   -1.3014    1.1221 H   0  0  0  0  0  0  0  0  0  0  0  0 
    4.0425   -3.8063   -2.6590 H   0  0  0  0  0  0  0  0  0  0  0  0 
    2.4993   -4.0278   -3.5340 H   0  0  0  0  0  0  0  0  0  0  0  0 
    2.4827   -3.6861   -1.7830 H   0  0  0  0  0  0  0  0  0  0  0  0 
    5.2097    0.5831   -2.8919 H   0  0  0  0  0  0  0  0  0  0  0  0 
  1  8  1  0  0  0  0 
  2 11  1  0  0  0  0 
  2 13  1  0  0  0  0 
  3  5  1  0  0  0  0 
  5  4  2  0  0  0  0 
  5  6  1  0  0  0  0 
  6  1  1  0  0  0  0 
  7  2  1  0  0  0  0 
  7  5  1  0  0  0  0 
  9  1  1  0  0  0  0 
 10  1  1  0  0  0  0 
 12  2  1  0  0  0  0 
 14  3  1  0  0  0  0 
M  END 
>  <HBA> 
4 
 
>  <HBD> 
1 
 
>  <TPSA> 
97.71 
 
>  <cid> 
36158 
 
>  <dipole> 
0.52 
 
>  <excitation_energy_1> 
5.142 
 
>  <excitation_energy_2> 
5.249 
 
>  <excitation_energy_3> 
5.794 
 
>  <excitation_energy_4> 
5.853 
 
>  <homo_energy> 
-6.961 
 
>  <homo_lumo_gap> 
6.504 
 
>  <logP> 
1.813 
 
>  <lumo_energy> 
-0.457 
 
>  <melting_point> 
42.57 
 
>  <molecular_refractivity> 
36.74 
 
>  <oscillator_strength_1> 
0.0063 
 
>  <oscillator_strength_2> 
0.0025 
 
>  <oscillator_strength_3> 
0.0046 
 
>  <oscillator_strength_4> 
0.0059 
 
>  <open_babel_can_smiles> 
CSP(=O)(SC)O 
 
>  <mulliken_charges> 
14 
1   -0.605112 
2   -0.607962 
3   -0.638231 
4   -0.53753 
5   0.776801 
6   -0.023672 
7   -0.043061 
8   0.193705 
9   0.200136 
10   0.223543 
11   0.22101 
12   0.196183 
13   0.203433 
14   0.440758 
 
>  <lowdin_charges> 
14 
1   -0.537554 
2   -0.537623 
3   -0.568899 
4   -0.585927 
5   0.780995 
6   -0.010019 
7   -0.015099 
8   0.180714 
9   0.174892 
10   0.18911 
11   0.18602 
12   0.182646 
13   0.176638 
14   0.384105 
 
$$$$ 
 
