PCCDB-ID:  34729 
public computational chemistry database (PCCDB) project, http://pccdb.org 
 
 32 32  0  0  1  0  0  0  0  0999 V2000 
    1.3804   -2.3659   -1.4187 C   0  0  0  0  0  0  0  0  0  0  0  0 
    7.5811   -0.2300   -3.9105 C   0  0  0  0  0  0  0  0  0  0  0  0 
    5.6896   -1.8094    0.0372 C   0  0  0  0  0  0  0  0  0  0  0  0 
    2.9075   -2.2478   -1.3664 C   0  0  0  0  0  0  0  0  0  0  0  0 
    7.1060    0.7769   -2.8592 C   0  0  0  0  0  0  0  0  0  0  0  0 
    3.3723   -0.9813   -0.6359 C   0  0  0  0  0  0  0  0  0  0  0  0 
    5.2209    0.6979   -0.1578 C   0  0  0  0  0  0  0  0  0  0  0  0 
    5.1136    1.5783   -1.4120 C   0  0  2  0  0  0  0  0  0  0  0  0 
    5.6156    0.6268   -2.5327 C   0  0  2  0  0  0  0  0  0  0  0  0 
    4.8955   -0.7141   -0.6780 C   0  0  1  0  0  0  0  0  0  0  0  0 
    5.7697    2.8320   -1.3335 O   0  0  0  0  0  0  0  0  0  0  0  0 
    5.3347   -0.6990   -2.0641 O   0  0  0  0  0  0  0  0  0  0  0  0 
    1.0699   -3.2779   -1.9412 H   0  0  0  0  0  0  0  0  0  0  0  0 
    0.9335   -1.5131   -1.9447 H   0  0  0  0  0  0  0  0  0  0  0  0 
    0.9466   -2.3957   -0.4113 H   0  0  0  0  0  0  0  0  0  0  0  0 
    8.6525   -0.1185   -4.1103 H   0  0  0  0  0  0  0  0  0  0  0  0 
    7.0470   -0.0884   -4.8581 H   0  0  0  0  0  0  0  0  0  0  0  0 
    7.3965   -1.2535   -3.5715 H   0  0  0  0  0  0  0  0  0  0  0  0 
    5.3885   -1.8875    1.0887 H   0  0  0  0  0  0  0  0  0  0  0  0 
    6.7607   -1.5856   -0.0017 H   0  0  0  0  0  0  0  0  0  0  0  0 
    5.5334   -2.7823   -0.4378 H   0  0  0  0  0  0  0  0  0  0  0  0 
    3.3176   -2.2373   -2.3828 H   0  0  0  0  0  0  0  0  0  0  0  0 
    3.3190   -3.1386   -0.8740 H   0  0  0  0  0  0  0  0  0  0  0  0 
    7.2780    1.8013   -3.2145 H   0  0  0  0  0  0  0  0  0  0  0  0 
    7.6972    0.6477   -1.9399 H   0  0  0  0  0  0  0  0  0  0  0  0 
    3.0553   -1.0221    0.4166 H   0  0  0  0  0  0  0  0  0  0  0  0 
    2.8574   -0.1158   -1.0764 H   0  0  0  0  0  0  0  0  0  0  0  0 
    4.5552    1.0249    0.6462 H   0  0  0  0  0  0  0  0  0  0  0  0 
    6.2504    0.7355    0.2252 H   0  0  0  0  0  0  0  0  0  0  0  0 
    4.0667    1.8343   -1.5998 H   0  0  0  0  0  0  0  0  0  0  0  0 
    5.0426    0.7822   -3.4577 H   0  0  0  0  0  0  0  0  0  0  0  0 
    6.6948    2.6644   -1.0937 H   0  0  0  0  0  0  0  0  0  0  0  0 
  1  4  1  0  0  0  0 
  1 15  1  0  0  0  0 
  2 18  1  0  0  0  0 
  2  5  1  0  0  0  0 
  3 19  1  0  0  0  0 
  4 23  1  0  0  0  0 
  4  6  1  0  0  0  0 
  5  9  1  0  0  0  0 
  5 25  1  0  0  0  0 
  6 26  1  0  0  0  0 
  7 29  1  0  0  0  0 
  7 28  1  0  0  0  0 
  8 30  1  6  0  0  0 
  8 11  1  0  0  0  0 
  8  7  1  0  0  0  0 
  9 31  1  6  0  0  0 
  9 12  1  0  0  0  0 
  9  8  1  0  0  0  0 
 10  6  1  1  0  0  0 
 10  7  1  0  0  0  0 
 10  3  1  0  0  0  0 
 11 32  1  0  0  0  0 
 12 10  1  0  0  0  0 
 13  1  1  0  0  0  0 
 14  1  1  0  0  0  0 
 16  2  1  0  0  0  0 
 17  2  1  0  0  0  0 
 20  3  1  0  0  0  0 
 21  3  1  0  0  0  0 
 22  4  1  0  0  0  0 
 24  5  1  0  0  0  0 
 27  6  1  0  0  0  0 
M  END 
>  <HBA> 
2 
 
>  <HBD> 
1 
 
>  <TPSA> 
29.46 
 
>  <cid> 
34729 
 
>  <dipole> 
1.26 
 
>  <excitation_energy_1> 
6.105 
 
>  <excitation_energy_2> 
6.322 
 
>  <excitation_energy_3> 
6.399 
 
>  <excitation_energy_4> 
6.502 
 
>  <homo_energy> 
-6.602 
 
>  <homo_lumo_gap> 
8.452 
 
>  <logP> 
2.105 
 
>  <lumo_energy> 
1.85 
 
>  <melting_point> 
14.05 
 
>  <molecular_refractivity> 
50.35 
 
>  <oscillator_strength_1> 
0.0217 
 
>  <oscillator_strength_2> 
0.005 
 
>  <oscillator_strength_3> 
0.0071 
 
>  <oscillator_strength_4> 
0.0157 
 
>  <open_babel_can_smiles> 
CCC[C@@]1(C)O[C@@H]([C@@H](C1)O)CC 
 
>  <mulliken_charges> 
32 
1   -0.443981 
2   -0.445081 
3   -0.461671 
4   -0.256076 
5   -0.283328 
6   -0.264158 
7   -0.334821 
8   0.102507 
9   0.153781 
10   0.341296 
11   -0.624825 
12   -0.534394 
13   0.142549 
14   0.140865 
15   0.138692 
16   0.139263 
17   0.141928 
18   0.166132 
19   0.13873 
20   0.143 
21   0.159717 
22   0.155813 
23   0.131095 
24   0.141087 
25   0.11855 
26   0.124506 
27   0.128016 
28   0.152976 
29   0.126962 
30   0.145404 
31   0.124804 
32   0.390659 
 
>  <lowdin_charges> 
32 
1   -0.444463 
2   -0.441384 
3   -0.445503 
4   -0.276259 
5   -0.292325 
6   -0.284909 
7   -0.305096 
8   -0.018407 
9   -0.016004 
10   0.129704 
11   -0.445681 
12   -0.284095 
13   0.149996 
14   0.146415 
15   0.143851 
16   0.146797 
17   0.147505 
18   0.157825 
19   0.149069 
20   0.149547 
21   0.15822 
22   0.151269 
23   0.139998 
24   0.146628 
25   0.133163 
26   0.138948 
27   0.141045 
28   0.159022 
29   0.14148 
30   0.146844 
31   0.137329 
32   0.339472 
 
$$$$ 
 
