PCCDB-ID:  12854 
public computational chemistry database (PCCDB) project, http://pccdb.org 
 
 25 26  0  0  0  0  0  0  0  0999 V2000 
   -1.4324   -0.0513    0.5741 C   0  0  0  0  0  0  0  0  0  0  0  0 
   -0.5736   -1.0148    1.1061 C   0  0  0  0  0  0  0  0  0  0  0  0 
   -0.9109    0.9729   -0.2184 C   0  0  0  0  0  0  0  0  0  0  0  0 
    4.8455    1.4173   -0.4950 C   0  0  0  0  0  0  0  0  0  0  0  0 
    0.7950   -0.9550    0.8470 C   0  0  0  0  0  0  0  0  0  0  0  0 
    0.4576    1.0326   -0.4773 C   0  0  0  0  0  0  0  0  0  0  0  0 
    3.4729    1.3613   -0.2521 C   0  0  0  0  0  0  0  0  0  0  0  0 
    5.5676    0.2496   -0.7245 C   0  0  0  0  0  0  0  0  0  0  0  0 
    3.5298   -1.0338   -0.4773 C   0  0  0  0  0  0  0  0  0  0  0  0 
    1.3335    0.0692    0.0502 C   0  0  0  0  0  0  0  0  0  0  0  0 
    2.7910    0.1334   -0.2301 C   0  0  0  0  0  0  0  0  0  0  0  0 
    4.9056   -0.9848   -0.7321 C   0  0  0  0  0  0  0  0  0  0  0  0 
    5.7254   -2.2144   -0.9908 C   0  0  0  0  0  0  0  0  0  0  0  0 
    6.9192   -2.2666   -0.8137 O   0  0  0  0  0  0  0  0  0  0  0  0 
    5.0583   -3.3100   -1.4488 O   0  0  0  0  0  0  0  0  0  0  0  0 
   -2.4988   -0.0976    0.7763 H   0  0  0  0  0  0  0  0  0  0  0  0 
   -0.9676   -1.8101    1.7330 H   0  0  0  0  0  0  0  0  0  0  0  0 
   -1.5717    1.7234   -0.6437 H   0  0  0  0  0  0  0  0  0  0  0  0 
    5.3545    2.3770   -0.4912 H   0  0  0  0  0  0  0  0  0  0  0  0 
    1.4575   -1.6934    1.2908 H   0  0  0  0  0  0  0  0  0  0  0  0 
    0.8497    1.8195   -1.1158 H   0  0  0  0  0  0  0  0  0  0  0  0 
    2.9257    2.2764   -0.0447 H   0  0  0  0  0  0  0  0  0  0  0  0 
    6.6376    0.2697   -0.9010 H   0  0  0  0  0  0  0  0  0  0  0  0 
    3.0090   -1.9881   -0.4472 H   0  0  0  0  0  0  0  0  0  0  0  0 
    4.1521   -3.0660   -1.6979 H   0  0  0  0  0  0  0  0  0  0  0  0 
  1 16  1  0  0  0  0 
  1  2  2  0  0  0  0 
  2 17  1  0  0  0  0 
  3  1  1  0  0  0  0 
  4 19  1  0  0  0  0 
  4  7  2  0  0  0  0 
  5  2  1  0  0  0  0 
  5 20  1  0  0  0  0 
  6  3  2  0  0  0  0 
  6 10  1  0  0  0  0 
  7 11  1  0  0  0  0 
  7 22  1  0  0  0  0 
  8  4  1  0  0  0  0 
  9 24  1  0  0  0  0 
  9 11  2  0  0  0  0 
 10  5  2  0  0  0  0 
 11 10  1  0  0  0  0 
 12  8  2  0  0  0  0 
 12  9  1  0  0  0  0 
 13 14  2  0  0  0  0 
 13 12  1  0  0  0  0 
 15 13  1  0  0  0  0 
 18  3  1  0  0  0  0 
 21  6  1  0  0  0  0 
 23  8  1  0  0  0  0 
 25 15  1  0  0  0  0 
M  END 
>  <HBA> 
2 
 
>  <HBD> 
1 
 
>  <TPSA> 
37.3 
 
>  <cid> 
12854 
 
>  <dipole> 
5.17 
 
>  <excitation_energy_1> 
4.372 
 
>  <excitation_energy_2> 
4.747 
 
>  <excitation_energy_3> 
4.831 
 
>  <excitation_energy_4> 
4.894 
 
>  <homo_energy> 
-6.509 
 
>  <homo_lumo_gap> 
5.091 
 
>  <logP> 
3.052 
 
>  <lumo_energy> 
-1.418 
 
>  <melting_point> 
132.92 
 
>  <molecular_refractivity> 
58.84 
 
>  <oscillator_strength_1> 
0.0289 
 
>  <oscillator_strength_2> 
0.0065 
 
>  <oscillator_strength_3> 
0.3131 
 
>  <oscillator_strength_4> 
0.011 
 
>  <open_babel_can_smiles> 
OC(=O)c1cccc(c1)c1ccccc1 
 
>  <mulliken_charges> 
25 
1   -0.125045 
2   -0.133655 
3   -0.13312 
4   -0.136776 
5   -0.175167 
6   -0.172783 
7   -0.1655 
8   -0.15133 
9   -0.24862 
10   0.084456 
11   0.089113 
12   0.054452 
13   0.549669 
14   -0.445322 
15   -0.574518 
16   0.135394 
17   0.136584 
18   0.135785 
19   0.144622 
20   0.137436 
21   0.135058 
22   0.143959 
23   0.169055 
24   0.133707 
25   0.412545 
 
>  <lowdin_charges> 
25 
1   -0.151738 
2   -0.152162 
3   -0.153275 
4   -0.148134 
5   -0.163636 
6   -0.161038 
7   -0.146312 
8   -0.127611 
9   -0.170044 
10   -0.005518 
11   0.004272 
12   -0.054081 
13   0.190352 
14   -0.237032 
15   -0.354438 
16   0.159128 
17   0.161956 
18   0.161989 
19   0.165349 
20   0.162047 
21   0.161234 
22   0.165808 
23   0.178364 
24   0.15743 
25   0.35709 
 
$$$$ 
 
