PCCDB-ID:  8656 
public computational chemistry database (PCCDB) project, http://pccdb.org 
 
 25 25  0  0  0  0  0  0  0  0999 V2000 
    0.7538    1.0444    0.1638 C   0  0  0  0  0  0  0  0  0  0  0  0 
    1.0751   -1.8722    0.5154 C   0  0  0  0  0  0  0  0  0  0  0  0 
    4.5826   -3.4606   -2.0151 C   0  0  0  0  0  0  0  0  0  0  0  0 
    4.5028    0.6219   -0.3451 C   0  0  0  0  0  0  0  0  0  0  0  0 
    3.2359    1.1915   -0.2341 C   0  0  0  0  0  0  0  0  0  0  0  0 
    4.6593   -0.7528   -0.1989 C   0  0  0  0  0  0  0  0  0  0  0  0 
    2.1153    0.3982    0.0410 C   0  0  0  0  0  0  0  0  0  0  0  0 
    2.2638   -0.9932    0.2061 C   0  0  0  0  0  0  0  0  0  0  0  0 
    4.1858   -3.7411   -0.5815 C   0  0  0  0  0  0  0  0  0  0  0  0 
    3.5458   -1.5701    0.0603 C   0  0  0  0  0  0  0  0  0  0  0  0 
    3.7015   -2.9495    0.2821 N   0  0  0  0  0  0  0  0  0  0  0  0 
    4.3483   -5.0389   -0.1862 O   0  0  0  0  0  0  0  0  0  0  0  0 
    0.8096    2.1177   -0.0423 H   0  0  0  0  0  0  0  0  0  0  0  0 
    0.3335    0.9215    1.1706 H   0  0  0  0  0  0  0  0  0  0  0  0 
    0.0292    0.6062   -0.5343 H   0  0  0  0  0  0  0  0  0  0  0  0 
    0.4234   -1.4165    1.2694 H   0  0  0  0  0  0  0  0  0  0  0  0 
    1.4057   -2.8455    0.8846 H   0  0  0  0  0  0  0  0  0  0  0  0 
    0.4543   -2.0457   -0.3754 H   0  0  0  0  0  0  0  0  0  0  0  0 
    5.6577   -3.6253   -2.1608 H   0  0  0  0  0  0  0  0  0  0  0  0 
    4.3507   -2.4327   -2.2957 H   0  0  0  0  0  0  0  0  0  0  0  0 
    4.0477   -4.1414   -2.6900 H   0  0  0  0  0  0  0  0  0  0  0  0 
    5.3689    1.2486   -0.5423 H   0  0  0  0  0  0  0  0  0  0  0  0 
    3.1111    2.2650   -0.3535 H   0  0  0  0  0  0  0  0  0  0  0  0 
    5.6448   -1.2070   -0.2542 H   0  0  0  0  0  0  0  0  0  0  0  0 
    4.6915   -5.5574   -0.9300 H   0  0  0  0  0  0  0  0  0  0  0  0 
  1 14  1  0  0  0  0 
  2 17  1  0  0  0  0 
  2 16  1  0  0  0  0 
  3  9  1  0  0  0  0 
  4  5  2  0  0  0  0 
  4  6  1  0  0  0  0 
  5  7  1  0  0  0  0 
  6 10  2  0  0  0  0 
  7  1  1  0  0  0  0 
  7  8  2  0  0  0  0 
  8  2  1  0  0  0  0 
  9 12  1  0  0  0  0 
  9 11  2  0  0  0  0 
 10  8  1  0  0  0  0 
 10 11  1  0  0  0  0 
 13  1  1  0  0  0  0 
 15  1  1  0  0  0  0 
 18  2  1  0  0  0  0 
 19  3  1  0  0  0  0 
 20  3  1  0  0  0  0 
 21  3  1  0  0  0  0 
 22  4  1  0  0  0  0 
 23  5  1  0  0  0  0 
 24  6  1  0  0  0  0 
 25 12  1  0  0  0  0 
M  END 
>  <HBA> 
2 
 
>  <HBD> 
1 
 
>  <TPSA> 
29.1 
 
>  <cid> 
8656 
 
>  <dipole> 
3.5 
 
>  <excitation_energy_1> 
4.713 
 
>  <excitation_energy_2> 
4.837 
 
>  <excitation_energy_3> 
4.862 
 
>  <excitation_energy_4> 
5.486 
 
>  <homo_energy> 
-5.589 
 
>  <homo_lumo_gap> 
5.6 
 
>  <logP> 
2.335 
 
>  <lumo_energy> 
0.011 
 
>  <melting_point> 
68.27 
 
>  <molecular_refractivity> 
50.69 
 
>  <oscillator_strength_1> 
0.1125 
 
>  <oscillator_strength_2> 
0.0004 
 
>  <oscillator_strength_3> 
0.0177 
 
>  <oscillator_strength_4> 
0.0021 
 
>  <open_babel_can_smiles> 
C/C(=N\c1cccc(c1C)C)/O 
 
>  <mulliken_charges> 
25 
1   -0.531735 
2   -0.538618 
3   -0.554689 
4   -0.138748 
5   -0.18379 
6   -0.156345 
7   0.11625 
8   0.102045 
9   0.480914 
10   0.187287 
11   -0.472337 
12   -0.572029 
13   0.15135 
14   0.161475 
15   0.156675 
16   0.150327 
17   0.186017 
18   0.149806 
19   0.175319 
20   0.200081 
21   0.168301 
22   0.122311 
23   0.114216 
24   0.119054 
25   0.406862 
 
>  <lowdin_charges> 
25 
1   -0.440168 
2   -0.449315 
3   -0.482955 
4   -0.160933 
5   -0.180479 
6   -0.192866 
7   -0.004552 
8   -0.025437 
9   0.147019 
10   0.038373 
11   -0.171914 
12   -0.365512 
13   0.153404 
14   0.158146 
15   0.158239 
16   0.156349 
17   0.172926 
18   0.154404 
19   0.168159 
20   0.184251 
21   0.167594 
22   0.155563 
23   0.1495 
24   0.153818 
25   0.356386 
 
$$$$ 
 
