PCCDB-ID:  66040 
public computational chemistry database (PCCDB) project, http://pccdb.org 
 
 30 29  0  0  0  0  0  0  0  0999 V2000 
    1.4163    1.2349   -3.9374 C   0  0  0  0  0  0  0  0  0  0  0  0 
    6.1260   -2.3283    0.1883 C   0  0  0  0  0  0  0  0  0  0  0  0 
    9.0894   -0.0089   -0.2283 C   0  0  0  0  0  0  0  0  0  0  0  0 
    2.1907    1.1193   -2.6264 C   0  0  0  0  0  0  0  0  0  0  0  0 
    6.2339   -0.7992    0.3361 C   0  0  0  0  0  0  0  0  0  0  0  0 
    8.0273   -0.3157   -1.2860 C   0  0  0  0  0  0  0  0  0  0  0  0 
    4.3443    0.5118   -1.6400 C   0  0  0  0  0  0  0  0  0  0  0  0 
    5.7160   -0.0887   -1.9653 C   0  0  0  0  0  0  0  0  0  0  0  0 
    3.5418    0.6120   -2.8570 N   0  0  0  0  0  0  0  0  0  0  0  0 
    6.6574   -0.0362   -0.8456 N   0  0  0  0  0  0  0  0  0  0  0  0 
    0.3917    1.5784   -3.7571 H   0  0  0  0  0  0  0  0  0  0  0  0 
    1.3770    0.2670   -4.4476 H   0  0  0  0  0  0  0  0  0  0  0  0 
    1.8920    1.9549   -4.6159 H   0  0  0  0  0  0  0  0  0  0  0  0 
    5.7952   -2.7718    1.1346 H   0  0  0  0  0  0  0  0  0  0  0  0 
    7.0886   -2.7832   -0.0712 H   0  0  0  0  0  0  0  0  0  0  0  0 
    5.4024   -2.6157   -0.5824 H   0  0  0  0  0  0  0  0  0  0  0  0 
   10.0880   -0.0811   -0.6740 H   0  0  0  0  0  0  0  0  0  0  0  0 
    9.0595   -0.7077    0.6145 H   0  0  0  0  0  0  0  0  0  0  0  0 
    8.9577    1.0055    0.1636 H   0  0  0  0  0  0  0  0  0  0  0  0 
    1.6802    0.4119   -1.9591 H   0  0  0  0  0  0  0  0  0  0  0  0 
    2.1853    2.0963   -2.1034 H   0  0  0  0  0  0  0  0  0  0  0  0 
    6.9305   -0.5654    1.1482 H   0  0  0  0  0  0  0  0  0  0  0  0 
    5.2655   -0.4019    0.6599 H   0  0  0  0  0  0  0  0  0  0  0  0 
    8.1564   -1.3560   -1.6441 H   0  0  0  0  0  0  0  0  0  0  0  0 
    8.2135    0.3259   -2.1565 H   0  0  0  0  0  0  0  0  0  0  0  0 
    4.4909    1.4798   -1.1237 H   0  0  0  0  0  0  0  0  0  0  0  0 
    3.7958   -0.1364   -0.9451 H   0  0  0  0  0  0  0  0  0  0  0  0 
    6.1585    0.5031   -2.7786 H   0  0  0  0  0  0  0  0  0  0  0  0 
    5.5697   -1.1051   -2.3746 H   0  0  0  0  0  0  0  0  0  0  0  0 
    4.0149    1.2343   -3.5130 H   0  0  0  0  0  0  0  0  0  0  0  0 
  1 11  1  0  0  0  0 
  1  4  1  0  0  0  0 
  2  5  1  0  0  0  0 
  2 14  1  0  0  0  0 
  3 19  1  0  0  0  0 
  3 18  1  0  0  0  0 
  4 21  1  0  0  0  0 
  4 20  1  0  0  0  0 
  5 23  1  0  0  0  0 
  5 22  1  0  0  0  0 
  6 10  1  0  0  0  0 
  6  3  1  0  0  0  0 
  7 26  1  0  0  0  0 
  7 27  1  0  0  0  0 
  8  7  1  0  0  0  0 
  8 10  1  0  0  0  0 
  9  4  1  0  0  0  0 
  9  7  1  0  0  0  0 
 10  5  1  0  0  0  0 
 12  1  1  0  0  0  0 
 13  1  1  0  0  0  0 
 15  2  1  0  0  0  0 
 16  2  1  0  0  0  0 
 17  3  1  0  0  0  0 
 24  6  1  0  0  0  0 
 25  6  1  0  0  0  0 
 28  8  1  0  0  0  0 
 29  8  1  0  0  0  0 
 30  9  1  0  0  0  0 
M  END 
>  <HBA> 
2 
 
>  <HBD> 
1 
 
>  <TPSA> 
15.27 
 
>  <cid> 
66040 
 
>  <dipole> 
0.36 
 
>  <excitation_energy_1> 
5.029 
 
>  <excitation_energy_2> 
5.312 
 
>  <excitation_energy_3> 
5.429 
 
>  <excitation_energy_4> 
5.488 
 
>  <homo_energy> 
-5.429 
 
>  <homo_lumo_gap> 
7.559 
 
>  <logP> 
1.329 
 
>  <lumo_energy> 
2.131 
 
>  <melting_point> 
1.92 
 
>  <molecular_refractivity> 
46.27 
 
>  <oscillator_strength_1> 
0.007 
 
>  <oscillator_strength_2> 
0.004 
 
>  <oscillator_strength_3> 
0.009 
 
>  <oscillator_strength_4> 
0.006 
 
>  <open_babel_can_smiles> 
CCNCCN(CC)CC 
 
>  <mulliken_charges> 
30 
1   -0.450686 
2   -0.460994 
3   -0.457777 
4   -0.103342 
5   -0.139629 
6   -0.101897 
7   -0.125387 
8   -0.114496 
9   -0.557808 
10   -0.390118 
11   0.143343 
12   0.15873 
13   0.137426 
14   0.141449 
15   0.14814 
16   0.152327 
17   0.142328 
18   0.147519 
19   0.155144 
20   0.13822 
21   0.10964 
22   0.142225 
23   0.142567 
24   0.111962 
25   0.133835 
26   0.121751 
27   0.13842 
28   0.124078 
29   0.12656 
30   0.28647 
 
>  <lowdin_charges> 
30 
1   -0.44845 
2   -0.468297 
3   -0.451126 
4   -0.197039 
5   -0.206295 
6   -0.195263 
7   -0.210252 
8   -0.204932 
9   -0.365923 
10   -0.19313 
11   0.151333 
12   0.155759 
13   0.145616 
14   0.152614 
15   0.149025 
16   0.151936 
17   0.152401 
18   0.148416 
19   0.153615 
20   0.141564 
21   0.11416 
22   0.146332 
23   0.144447 
24   0.114791 
25   0.142667 
26   0.121646 
27   0.141809 
28   0.139755 
29   0.123837 
30   0.248985 
 
$$$$ 
 
