PCCDB-ID:  32899 
public computational chemistry database (PCCDB) project, http://pccdb.org 
 
 30 29  0  0  0  0  0  0  0  0999 V2000 
    6.1741    1.0915   -2.5404 C   0  0  0  0  0  0  0  0  0  0  0  0 
    5.0528   -7.3347   -0.2077 C   0  0  0  0  0  0  0  0  0  0  0  0 
    6.0989    0.7503   -1.0791 C   0  0  0  0  0  0  0  0  0  0  0  0 
    5.9207   -6.4243    0.6671 C   0  0  0  0  0  0  0  0  0  0  0  0 
    5.1759   -0.0338   -0.5152 C   0  0  0  0  0  0  0  0  0  0  0  0 
    5.7431   -4.9332    0.3522 C   0  0  0  0  0  0  0  0  0  0  0  0 
    5.0864   -0.3729    0.9487 C   0  0  0  0  0  0  0  0  0  0  0  0 
    6.6179   -4.0200    1.2229 C   0  0  0  0  0  0  0  0  0  0  0  0 
    5.1547   -1.8871    1.2415 C   0  0  0  0  0  0  0  0  0  0  0  0 
    6.5094   -2.5209    0.8967 C   0  0  0  0  0  0  0  0  0  0  0  0 
    6.0964    2.1755   -2.7019 H   0  0  0  0  0  0  0  0  0  0  0  0 
    5.3726    0.6072   -3.1087 H   0  0  0  0  0  0  0  0  0  0  0  0 
    7.1340    0.7796   -2.9745 H   0  0  0  0  0  0  0  0  0  0  0  0 
    5.2052   -8.3920    0.0379 H   0  0  0  0  0  0  0  0  0  0  0  0 
    5.2873   -7.2028   -1.2713 H   0  0  0  0  0  0  0  0  0  0  0  0 
    3.9866   -7.1125   -0.0758 H   0  0  0  0  0  0  0  0  0  0  0  0 
    6.8682    1.1939   -0.4436 H   0  0  0  0  0  0  0  0  0  0  0  0 
    6.9786   -6.6970    0.5429 H   0  0  0  0  0  0  0  0  0  0  0  0 
    5.6846   -6.6009    1.7262 H   0  0  0  0  0  0  0  0  0  0  0  0 
    4.4064   -0.4787   -1.1519 H   0  0  0  0  0  0  0  0  0  0  0  0 
    4.6837   -4.6679    0.4748 H   0  0  0  0  0  0  0  0  0  0  0  0 
    5.9805   -4.7563   -0.7078 H   0  0  0  0  0  0  0  0  0  0  0  0 
    4.1349    0.0103    1.3481 H   0  0  0  0  0  0  0  0  0  0  0  0 
    5.8841    0.1452    1.4986 H   0  0  0  0  0  0  0  0  0  0  0  0 
    7.6671   -4.3283    1.1084 H   0  0  0  0  0  0  0  0  0  0  0  0 
    6.3698   -4.1820    2.2828 H   0  0  0  0  0  0  0  0  0  0  0  0 
    4.3496   -2.3904    0.6887 H   0  0  0  0  0  0  0  0  0  0  0  0 
    4.9412   -2.0489    2.3077 H   0  0  0  0  0  0  0  0  0  0  0  0 
    6.7256   -2.3618   -0.1687 H   0  0  0  0  0  0  0  0  0  0  0  0 
    7.2948   -1.9821    1.4465 H   0  0  0  0  0  0  0  0  0  0  0  0 
  1  3  1  0  0  0  0 
  2 16  1  0  0  0  0 
  2 14  1  0  0  0  0 
  2  4  1  0  0  0  0 
  3  5  2  0  0  0  0 
  3 17  1  0  0  0  0 
  4 19  1  0  0  0  0 
  5  7  1  0  0  0  0 
  6 21  1  0  0  0  0 
  6  4  1  0  0  0  0 
  6  8  1  0  0  0  0 
  7  9  1  0  0  0  0 
  7 23  1  0  0  0  0 
  7 24  1  0  0  0  0 
  8 26  1  0  0  0  0 
  9 28  1  0  0  0  0 
 10  8  1  0  0  0  0 
 10  9  1  0  0  0  0 
 10 30  1  0  0  0  0 
 11  1  1  0  0  0  0 
 12  1  1  0  0  0  0 
 13  1  1  0  0  0  0 
 15  2  1  0  0  0  0 
 18  4  1  0  0  0  0 
 20  5  1  0  0  0  0 
 22  6  1  0  0  0  0 
 25  8  1  0  0  0  0 
 27  9  1  0  0  0  0 
 29 10  1  0  0  0  0 
M  END 
>  <HBA> 
0 
 
>  <HBD> 
0 
 
>  <TPSA> 
0.0 
 
>  <cid> 
32899 
 
>  <dipole> 
0.09 
 
>  <excitation_energy_1> 
6.053 
 
>  <excitation_energy_2> 
6.278 
 
>  <excitation_energy_3> 
6.358 
 
>  <excitation_energy_4> 
6.558 
 
>  <homo_energy> 
-6.381 
 
>  <homo_lumo_gap> 
7.285 
 
>  <logP> 
3.923 
 
>  <lumo_energy> 
0.903 
 
>  <melting_point> 
-19.43 
 
>  <molecular_refractivity> 
49.71 
 
>  <oscillator_strength_1> 
0.0218 
 
>  <oscillator_strength_2> 
0.0292 
 
>  <oscillator_strength_3> 
0.0115 
 
>  <oscillator_strength_4> 
0.0086 
 
>  <open_babel_can_smiles> 
CCCCCCC/C=C/C 
 
>  <mulliken_charges> 
30 
1   -0.48621 
2   -0.441363 
3   -0.092637 
4   -0.246293 
5   -0.081317 
6   -0.246764 
7   -0.302771 
8   -0.254123 
9   -0.259407 
10   -0.250111 
11   0.152902 
12   0.150374 
13   0.152826 
14   0.140715 
15   0.140724 
16   0.140327 
17   0.116176 
18   0.129225 
19   0.129488 
20   0.111354 
21   0.130073 
22   0.125799 
23   0.137614 
24   0.133253 
25   0.125838 
26   0.124218 
27   0.132888 
28   0.127049 
29   0.136932 
30   0.123221 
 
>  <lowdin_charges> 
30 
1   -0.438436 
2   -0.439787 
3   -0.169781 
4   -0.268972 
5   -0.171078 
6   -0.273797 
7   -0.272269 
8   -0.272159 
9   -0.275653 
10   -0.277049 
11   0.153442 
12   0.154481 
13   0.155096 
14   0.147201 
15   0.14431 
16   0.144024 
17   0.146192 
18   0.136615 
19   0.136859 
20   0.144091 
21   0.136205 
22   0.135312 
23   0.148145 
24   0.144317 
25   0.138298 
26   0.134517 
27   0.140122 
28   0.137845 
29   0.141849 
30   0.140058 
 
$$$$ 
 
