PCCDB-ID:  15628 
public computational chemistry database (PCCDB) project, http://pccdb.org 
 
 16 15  0  0  0  0  0  0  0  0999 V2000 
    1.0446    0.1573    0.0748 C   0  0  0  0  0  0  0  0  0  0  0  0 
    2.9849    0.5769    1.6732 C   0  0  0  0  0  0  0  0  0  0  0  0 
    2.5549    0.1720    0.2672 C   0  0  0  0  0  0  0  0  0  0  0  0 
    4.2515   -1.3659   -0.4182 C   0  0  0  0  0  0  0  0  0  0  0  0 
    5.0881   -0.4179   -0.5838 N   0  0  0  0  0  0  0  0  0  0  0  0 
    4.4214   -2.7035   -0.6111 O   0  0  0  0  0  0  0  0  0  0  0  0 
    2.9945   -1.1893   -0.0061 O   0  0  0  0  0  0  0  0  0  0  0  0 
    0.6359    1.1591    0.2455 H   0  0  0  0  0  0  0  0  0  0  0  0 
    0.5702   -0.5338    0.7802 H   0  0  0  0  0  0  0  0  0  0  0  0 
    0.7845   -0.1554   -0.9413 H   0  0  0  0  0  0  0  0  0  0  0  0 
    2.6338    1.5912    1.8952 H   0  0  0  0  0  0  0  0  0  0  0  0 
    4.0745    0.5652    1.7574 H   0  0  0  0  0  0  0  0  0  0  0  0 
    2.5592   -0.1059    2.4172 H   0  0  0  0  0  0  0  0  0  0  0  0 
    3.0348    0.8242   -0.4680 H   0  0  0  0  0  0  0  0  0  0  0  0 
    5.9908   -0.7514   -0.9201 H   0  0  0  0  0  0  0  0  0  0  0  0 
    5.3329   -2.8537   -0.9047 H   0  0  0  0  0  0  0  0  0  0  0  0 
  1  8  1  0  0  0  0 
  1  3  1  0  0  0  0 
  1  9  1  0  0  0  0 
  2 12  1  0  0  0  0 
  2 11  1  0  0  0  0 
  2 13  1  0  0  0  0 
  3  2  1  0  0  0  0 
  4  7  1  0  0  0  0 
  5  4  2  0  0  0  0 
  6  4  1  0  0  0  0 
  7  3  1  0  0  0  0 
 10  1  1  0  0  0  0 
 14  3  1  0  0  0  0 
 15  5  1  0  0  0  0 
 16  6  1  0  0  0  0 
M  END 
>  <HBA> 
3 
 
>  <HBD> 
1 
 
>  <TPSA> 
52.32 
 
>  <cid> 
15628 
 
>  <dipole> 
1.09 
 
>  <excitation_energy_1> 
5.871 
 
>  <excitation_energy_2> 
6.424 
 
>  <excitation_energy_3> 
7.098 
 
>  <excitation_energy_4> 
7.266 
 
>  <homo_energy> 
-6.953 
 
>  <homo_lumo_gap> 
8.259 
 
>  <logP> 
1.19 
 
>  <lumo_energy> 
1.306 
 
>  <melting_point> 
51.79 
 
>  <molecular_refractivity> 
25.72 
 
>  <oscillator_strength_1> 
0.0042 
 
>  <oscillator_strength_2> 
0.046 
 
>  <oscillator_strength_3> 
0.0013 
 
>  <oscillator_strength_4> 
0.0085 
 
>  <open_babel_can_smiles> 
CC(OC(=N)O)C 
 
>  <mulliken_charges> 
16 
1   -0.450161 
2   -0.458249 
3   0.140188 
4   0.646273 
5   -0.630743 
6   -0.57009 
7   -0.453698 
8   0.146681 
9   0.156052 
10   0.157802 
11   0.143567 
12   0.17638 
13   0.149031 
14   0.167208 
15   0.273875 
16   0.405884 
 
>  <lowdin_charges> 
16 
1   -0.447403 
2   -0.453838 
3   0.017382 
4   0.191307 
5   -0.477868 
6   -0.366021 
7   -0.181468 
8   0.155263 
9   0.157739 
10   0.158108 
11   0.154366 
12   0.165948 
13   0.15389 
14   0.158871 
15   0.255471 
16   0.358253 
 
$$$$ 
 
