PCCDB-ID:  69231 
public computational chemistry database (PCCDB) project, http://pccdb.org 
 
 28 29  0  0  0  0  0  0  0  0999 V2000 
    1.2108   -0.5452    1.0630 C   0  0  0  0  0  0  0  0  0  0  0  0 
    0.0994    6.1332    0.3360 C   0  0  0  0  0  0  0  0  0  0  0  0 
    0.4208    5.2898   -0.7303 C   0  0  0  0  0  0  0  0  0  0  0  0 
    0.4908    5.8001    1.6357 C   0  0  0  0  0  0  0  0  0  0  0  0 
    4.7371   -1.7380    0.1661 C   0  0  0  0  0  0  0  0  0  0  0  0 
    5.3256   -0.5645   -0.3047 C   0  0  0  0  0  0  0  0  0  0  0  0 
    3.4116   -1.7261    0.6027 C   0  0  0  0  0  0  0  0  0  0  0  0 
    1.1326    4.1134   -0.5022 C   0  0  0  0  0  0  0  0  0  0  0  0 
    1.2027    4.6265    1.8683 C   0  0  0  0  0  0  0  0  0  0  0  0 
    4.5820    0.6153   -0.3318 C   0  0  0  0  0  0  0  0  0  0  0  0 
    2.6415   -0.5566    0.5883 C   0  0  0  0  0  0  0  0  0  0  0  0 
    1.5263    3.7771    0.8008 C   0  0  0  0  0  0  0  0  0  0  0  0 
    3.2650    0.6048    0.1149 C   0  0  0  0  0  0  0  0  0  0  0  0 
    2.2889    2.5371    1.1134 C   0  0  0  0  0  0  0  0  0  0  0  0 
    2.6524    2.2086    2.2208 O   0  0  0  0  0  0  0  0  0  0  0  0 
    2.5329    1.7954   -0.0118 O   0  0  0  0  0  0  0  0  0  0  0  0 
    0.8441   -1.5643    1.2170 H   0  0  0  0  0  0  0  0  0  0  0  0 
    0.5525   -0.0495    0.3404 H   0  0  0  0  0  0  0  0  0  0  0  0 
    1.1196   -0.0029    2.0113 H   0  0  0  0  0  0  0  0  0  0  0  0 
   -0.4558    7.0497    0.1544 H   0  0  0  0  0  0  0  0  0  0  0  0 
    0.1165    5.5488   -1.7406 H   0  0  0  0  0  0  0  0  0  0  0  0 
    0.2409    6.4554    2.4653 H   0  0  0  0  0  0  0  0  0  0  0  0 
    5.3063   -2.6631    0.1919 H   0  0  0  0  0  0  0  0  0  0  0  0 
    6.3553   -0.5630   -0.6506 H   0  0  0  0  0  0  0  0  0  0  0  0 
    2.9560   -2.6444    0.9654 H   0  0  0  0  0  0  0  0  0  0  0  0 
    1.3844    3.4542   -1.3252 H   0  0  0  0  0  0  0  0  0  0  0  0 
    1.5168    4.3471    2.8686 H   0  0  0  0  0  0  0  0  0  0  0  0 
    5.0073    1.5448   -0.6973 H   0  0  0  0  0  0  0  0  0  0  0  0 
  1 17  1  0  0  0  0 
  1 19  1  0  0  0  0 
  2  4  2  0  0  0  0 
  3  8  2  0  0  0  0 
  3  2  1  0  0  0  0 
  4  9  1  0  0  0  0 
  4 22  1  0  0  0  0 
  5 23  1  0  0  0  0 
  5  7  2  0  0  0  0 
  6  5  1  0  0  0  0 
  7 25  1  0  0  0  0 
  8 12  1  0  0  0  0 
  9 27  1  0  0  0  0 
 10  6  2  0  0  0  0 
 10 13  1  0  0  0  0 
 11  7  1  0  0  0  0 
 11  1  1  0  0  0  0 
 12 14  1  0  0  0  0 
 12  9  2  0  0  0  0 
 13 11  2  0  0  0  0 
 14 15  2  0  0  0  0 
 16 13  1  0  0  0  0 
 16 14  1  0  0  0  0 
 18  1  1  0  0  0  0 
 20  2  1  0  0  0  0 
 21  3  1  0  0  0  0 
 24  6  1  0  0  0  0 
 26  8  1  0  0  0  0 
 28 10  1  0  0  0  0 
M  END 
>  <HBA> 
2 
 
>  <HBD> 
0 
 
>  <TPSA> 
26.3 
 
>  <cid> 
69231 
 
>  <dipole> 
1.94 
 
>  <excitation_energy_1> 
4.374 
 
>  <excitation_energy_2> 
4.653 
 
>  <excitation_energy_3> 
4.886 
 
>  <excitation_energy_4> 
4.912 
 
>  <homo_energy> 
-6.487 
 
>  <homo_lumo_gap> 
5.162 
 
>  <logP> 
3.214 
 
>  <lumo_energy> 
-1.325 
 
>  <melting_point> 
75.38 
 
>  <molecular_refractivity> 
62.81 
 
>  <oscillator_strength_1> 
0.0159 
 
>  <oscillator_strength_2> 
0.0008 
 
>  <oscillator_strength_3> 
0.0173 
 
>  <oscillator_strength_4> 
0.0057 
 
>  <open_babel_can_smiles> 
O=C(c1ccccc1)Oc1ccccc1C 
 
>  <mulliken_charges> 
28 
1   -0.544306 
2   -0.116324 
3   -0.136508 
4   -0.138244 
5   -0.114373 
6   -0.147257 
7   -0.203385 
8   -0.158416 
9   -0.151691 
10   -0.147924 
11   0.183209 
12   0.044079 
13   0.288661 
14   0.591679 
15   -0.473516 
16   -0.552486 
17   0.153757 
18   0.163973 
19   0.187461 
20   0.138579 
21   0.138217 
22   0.13961 
23   0.130012 
24   0.133528 
25   0.127632 
26   0.160181 
27   0.165225 
28   0.138627 
 
>  <lowdin_charges> 
28 
1   -0.445398 
2   -0.137492 
3   -0.156109 
4   -0.156886 
5   -0.158672 
6   -0.153347 
7   -0.160698 
8   -0.140158 
9   -0.128602 
10   -0.16633 
11   -0.004207 
12   -0.046952 
13   0.093679 
14   0.204968 
15   -0.252351 
16   -0.16647 
17   0.157447 
18   0.163568 
19   0.172822 
20   0.16184 
21   0.161106 
22   0.163472 
23   0.159379 
24   0.158939 
25   0.157821 
26   0.174447 
27   0.177092 
28   0.167092 
 
$$$$ 
 
