PCCDB-ID:  46878 
public computational chemistry database (PCCDB) project, http://pccdb.org 
 
 32 34  0  0  0  0  0  0  0  0999 V2000 
    2.0015   -0.1544    0.7946 C   0  0  0  0  0  0  0  0  0  0  0  0 
    1.7618    2.3791   -3.5127 C   0  0  0  0  0  0  0  0  0  0  0  0 
   -1.3988    0.1010   -6.9536 C   0  0  0  0  0  0  0  0  0  0  0  0 
   -1.0764    1.4611   -6.7990 C   0  0  0  0  0  0  0  0  0  0  0  0 
    1.6287   -2.8611   -2.6214 C   0  0  0  0  0  0  0  0  0  0  0  0 
   -0.8652   -0.8568   -6.0956 C   0  0  0  0  0  0  0  0  0  0  0  0 
    0.8216   -2.4991   -3.6918 C   0  0  0  0  0  0  0  0  0  0  0  0 
    2.3088   -1.8834   -1.8787 C   0  0  0  0  0  0  0  0  0  0  0  0 
   -0.2202    1.8938   -5.7889 C   0  0  0  0  0  0  0  0  0  0  0  0 
    2.8777    0.5776   -0.1977 C   0  0  0  0  0  0  0  0  0  0  0  0 
   -0.0023   -0.4487   -5.0720 C   0  0  0  0  0  0  0  0  0  0  0  0 
    0.7224   -1.1443   -4.0320 C   0  0  0  0  0  0  0  0  0  0  0  0 
    2.2142   -0.5155   -2.1726 C   0  0  0  0  0  0  0  0  0  0  0  0 
    0.3083    0.9270   -4.9263 C   0  0  0  0  0  0  0  0  0  0  0  0 
    1.4341   -0.1565   -3.2965 C   0  0  0  0  0  0  0  0  0  0  0  0 
    2.9336    0.4595   -1.4617 N   0  0  0  0  0  0  0  0  0  0  0  0 
    1.1715    1.0952   -3.8533 N   0  0  0  0  0  0  0  0  0  0  0  0 
    3.6992    1.5224    0.3469 O   0  0  0  0  0  0  0  0  0  0  0  0 
    2.6024   -0.8013    1.4458 H   0  0  0  0  0  0  0  0  0  0  0  0 
    1.2623   -0.7728    0.2847 H   0  0  0  0  0  0  0  0  0  0  0  0 
    1.4792    0.5691    1.4341 H   0  0  0  0  0  0  0  0  0  0  0  0 
    0.9830    3.0959   -3.2224 H   0  0  0  0  0  0  0  0  0  0  0  0 
    2.3054    2.7867   -4.3741 H   0  0  0  0  0  0  0  0  0  0  0  0 
    2.4605    2.2422   -2.6898 H   0  0  0  0  0  0  0  0  0  0  0  0 
   -2.0698   -0.2028   -7.7522 H   0  0  0  0  0  0  0  0  0  0  0  0 
   -1.5027    2.1915   -7.4816 H   0  0  0  0  0  0  0  0  0  0  0  0 
    1.7415   -3.9072   -2.3508 H   0  0  0  0  0  0  0  0  0  0  0  0 
   -1.1139   -1.9077   -6.2203 H   0  0  0  0  0  0  0  0  0  0  0  0 
    0.2851   -3.2510   -4.2639 H   0  0  0  0  0  0  0  0  0  0  0  0 
    2.9602   -2.1860   -1.0635 H   0  0  0  0  0  0  0  0  0  0  0  0 
    0.0228    2.9461   -5.6774 H   0  0  0  0  0  0  0  0  0  0  0  0 
    3.5515    1.5600    1.3044 H   0  0  0  0  0  0  0  0  0  0  0  0 
  1 21  1  0  0  0  0 
  1 19  1  0  0  0  0 
  2 22  1  0  0  0  0 
  2 24  1  0  0  0  0 
  3  4  2  0  0  0  0 
  3  6  1  0  0  0  0 
  4  9  1  0  0  0  0 
  5 27  1  0  0  0  0 
  5  8  2  0  0  0  0 
  6 11  2  0  0  0  0 
  7  5  1  0  0  0  0 
  8 30  1  0  0  0  0 
  9 31  1  0  0  0  0 
  9 14  2  0  0  0  0 
 10 18  1  0  0  0  0 
 10  1  1  0  0  0  0 
 11 14  1  0  0  0  0 
 11 12  1  0  0  0  0 
 12  7  2  0  0  0  0 
 12 15  1  0  0  0  0 
 13  8  1  0  0  0  0 
 13 16  1  0  0  0  0 
 14 17  1  0  0  0  0 
 15 13  2  0  0  0  0 
 16 10  2  0  0  0  0 
 17  2  1  0  0  0  0 
 17 15  1  0  0  0  0 
 18 32  1  0  0  0  0 
 20  1  1  0  0  0  0 
 23  2  1  0  0  0  0 
 25  3  1  0  0  0  0 
 26  4  1  0  0  0  0 
 28  6  1  0  0  0  0 
 29  7  1  0  0  0  0 
M  END 
>  <HBA> 
3 
 
>  <HBD> 
1 
 
>  <TPSA> 
34.03 
 
>  <cid> 
46878 
 
>  <dipole> 
4.15 
 
>  <excitation_energy_1> 
3.72 
 
>  <excitation_energy_2> 
4.139 
 
>  <excitation_energy_3> 
4.249 
 
>  <excitation_energy_4> 
4.434 
 
>  <homo_energy> 
-4.993 
 
>  <homo_lumo_gap> 
4.425 
 
>  <logP> 
3.363 
 
>  <lumo_energy> 
-0.569 
 
>  <melting_point> 
152.44 
 
>  <molecular_refractivity> 
75.02 
 
>  <oscillator_strength_1> 
0.0802 
 
>  <oscillator_strength_2> 
0.0339 
 
>  <oscillator_strength_3> 
0.002 
 
>  <oscillator_strength_4> 
0.2516 
 
>  <open_babel_can_smiles> 
C/C(=N\c1cccc2c1n(C)c1c2cccc1)/O 
 
>  <mulliken_charges> 
32 
1   -0.554598 
2   -0.350565 
3   -0.147253 
4   -0.140494 
5   -0.153242 
6   -0.19693 
7   -0.195564 
8   -0.183543 
9   -0.186348 
10   0.486945 
11   0.062067 
12   0.053186 
13   0.246519 
14   0.319776 
15   0.285358 
16   -0.500131 
17   -0.628704 
18   -0.57325 
19   0.180247 
20   0.204532 
21   0.166075 
22   0.154463 
23   0.162482 
24   0.220431 
25   0.120298 
26   0.122716 
27   0.120606 
28   0.126325 
29   0.124699 
30   0.118569 
31   0.126529 
32   0.408797 
 
>  <lowdin_charges> 
32 
1   -0.486148 
2   -0.362198 
3   -0.179581 
4   -0.156724 
5   -0.175977 
6   -0.151596 
7   -0.166013 
8   -0.190975 
9   -0.194713 
10   0.144287 
11   -0.035214 
12   -0.031818 
13   0.016804 
14   0.04187 
15   0.033442 
16   -0.177793 
17   -0.042699 
18   -0.358467 
19   0.173762 
20   0.188699 
21   0.166594 
22   0.151377 
23   0.155695 
24   0.190588 
25   0.1552 
26   0.156902 
27   0.153697 
28   0.155018 
29   0.158395 
30   0.155505 
31   0.157297 
32   0.354783 
 
$$$$ 
 
