PCCDB-ID:  32039 
public computational chemistry database (PCCDB) project, http://pccdb.org 
 
 26 26  0  0  0  0  0  0  0  0999 V2000 
    9.1171    3.3004    0.7719 C   0  0  0  0  0  0  0  0  0  0  0  0 
    7.8136    4.1058    0.7464 C   0  0  0  0  0  0  0  0  0  0  0  0 
    3.5098    5.1237    1.4061 C   0  0  0  0  0  0  0  0  0  0  0  0 
    2.2904    4.6689    0.6062 C   0  0  0  0  0  0  0  0  0  0  0  0 
    0.1442    5.5924   -0.2178 C   0  0  0  0  0  0  0  0  0  0  0  0 
    1.1172    6.7193   -0.1525 C   0  0  0  0  0  0  0  0  0  0  0  0 
    6.9351    3.7995    1.9552 C   0  0  0  0  0  0  0  0  0  0  0  0 
    4.6760    4.1650    1.2853 C   0  0  0  0  0  0  0  0  0  0  0  0 
    1.1904    5.6112    0.8004 N   0  0  0  0  0  0  0  0  0  0  0  0 
    4.6627    3.1217    0.6653 O   0  0  0  0  0  0  0  0  0  0  0  0 
    5.7466    4.6239    1.9734 O   0  0  0  0  0  0  0  0  0  0  0  0 
    9.7374    3.5341   -0.0997 H   0  0  0  0  0  0  0  0  0  0  0  0 
    8.9197    2.2219    0.7596 H   0  0  0  0  0  0  0  0  0  0  0  0 
    9.7081    3.5219    1.6691 H   0  0  0  0  0  0  0  0  0  0  0  0 
    7.2486    3.8765   -0.1643 H   0  0  0  0  0  0  0  0  0  0  0  0 
    8.0327    5.1809    0.7310 H   0  0  0  0  0  0  0  0  0  0  0  0 
    3.2484    5.2298    2.4659 H   0  0  0  0  0  0  0  0  0  0  0  0 
    3.8434    6.1177    1.0820 H   0  0  0  0  0  0  0  0  0  0  0  0 
    1.9646    3.6846    0.9591 H   0  0  0  0  0  0  0  0  0  0  0  0 
    2.5649    4.5503   -0.4571 H   0  0  0  0  0  0  0  0  0  0  0  0 
    0.2487    4.8922   -1.0477 H   0  0  0  0  0  0  0  0  0  0  0  0 
   -0.8727    5.7153    0.1488 H   0  0  0  0  0  0  0  0  0  0  0  0 
    0.8247    7.6827    0.2595 H   0  0  0  0  0  0  0  0  0  0  0  0 
    1.8709    6.7690   -0.9402 H   0  0  0  0  0  0  0  0  0  0  0  0 
    7.4503    4.0407    2.8896 H   0  0  0  0  0  0  0  0  0  0  0  0 
    6.6381    2.7472    1.9670 H   0  0  0  0  0  0  0  0  0  0  0  0 
  1 14  1  0  0  0  0 
  2  1  1  0  0  0  0 
  2  7  1  0  0  0  0 
  3 17  1  0  0  0  0 
  4  9  1  0  0  0  0 
  4 19  1  0  0  0  0 
  4  3  1  0  0  0  0 
  5  6  1  0  0  0  0 
  5 22  1  0  0  0  0 
  5  9  1  0  0  0  0 
  6 23  1  0  0  0  0 
  6  9  1  0  0  0  0 
  7 26  1  0  0  0  0 
  7 11  1  0  0  0  0 
  7 25  1  0  0  0  0 
  8  3  1  0  0  0  0 
  8 11  1  0  0  0  0 
 10  8  2  0  0  0  0 
 12  1  1  0  0  0  0 
 13  1  1  0  0  0  0 
 15  2  1  0  0  0  0 
 16  2  1  0  0  0  0 
 18  3  1  0  0  0  0 
 20  4  1  0  0  0  0 
 21  5  1  0  0  0  0 
 24  6  1  0  0  0  0 
M  END 
>  <HBA> 
3 
 
>  <HBD> 
0 
 
>  <TPSA> 
29.31 
 
>  <cid> 
32039 
 
>  <dipole> 
1.52 
 
>  <excitation_energy_1> 
5.774 
 
>  <excitation_energy_2> 
5.951 
 
>  <excitation_energy_3> 
6.104 
 
>  <excitation_energy_4> 
6.298 
 
>  <homo_energy> 
-6.357 
 
>  <homo_lumo_gap> 
6.776 
 
>  <logP> 
0.583 
 
>  <lumo_energy> 
0.419 
 
>  <melting_point> 
-4.16 
 
>  <molecular_refractivity> 
46.55 
 
>  <oscillator_strength_1> 
0.0027 
 
>  <oscillator_strength_2> 
0.0051 
 
>  <oscillator_strength_3> 
0.0132 
 
>  <oscillator_strength_4> 
0.0248 
 
>  <open_babel_can_smiles> 
CCCOC(=O)CCN1CC1 
 
>  <mulliken_charges> 
26 
1   -0.45336 
2   -0.2722 
3   -0.364455 
4   -0.12018 
5   -0.191518 
6   -0.197904 
7   -0.039712 
8   0.626545 
9   -0.357727 
10   -0.484831 
11   -0.468929 
12   0.152772 
13   0.152482 
14   0.144578 
15   0.161564 
16   0.144297 
17   0.187243 
18   0.172855 
19   0.16138 
20   0.126911 
21   0.147145 
22   0.157639 
23   0.157326 
24   0.143521 
25   0.148209 
26   0.166347 
 
>  <lowdin_charges> 
26 
1   -0.443218 
2   -0.283316 
3   -0.301748 
4   -0.19325 
5   -0.239841 
6   -0.24692 
7   -0.131116 
8   0.197778 
9   -0.195001 
10   -0.271273 
11   -0.195204 
12   0.156741 
13   0.150057 
14   0.148261 
15   0.156175 
16   0.145178 
17   0.176033 
18   0.169137 
19   0.155312 
20   0.127848 
21   0.149422 
22   0.157969 
23   0.158367 
24   0.146833 
25   0.150555 
26   0.155221 
 
$$$$ 
 
