PCCDB-ID:  67149 
public computational chemistry database (PCCDB) project, http://pccdb.org 
 
 21 21  0  0  0  0  0  0  0  0999 V2000 
   -1.5761   -0.3829    0.8794 C   0  0  0  0  0  0  0  0  0  0  0  0 
    0.1790   -1.3343   -0.4702 C   0  0  0  0  0  0  0  0  0  0  0  0 
   -2.3873   -1.4804    0.5828 C   0  0  0  0  0  0  0  0  0  0  0  0 
   -0.6285   -2.4244   -0.7703 C   0  0  0  0  0  0  0  0  0  0  0  0 
    0.4081    1.5630    1.8575 C   0  0  0  0  0  0  0  0  0  0  0  0 
   -0.2798   -0.2984    0.3586 C   0  0  0  0  0  0  0  0  0  0  0  0 
   -1.9219   -2.5049   -0.2426 C   0  0  0  0  0  0  0  0  0  0  0  0 
   -0.5604    2.7519    1.7262 C   0  0  0  0  0  0  0  0  0  0  0  0 
    0.5550    0.8281    0.6017 N   0  0  0  0  0  0  0  0  0  0  0  0 
   -2.6714   -3.6042   -0.5694 O   0  0  0  0  0  0  0  0  0  0  0  0 
   -1.0145    3.3323    2.6818 O   0  0  0  0  0  0  0  0  0  0  0  0 
   -0.8225    3.1019    0.4557 O   0  0  0  0  0  0  0  0  0  0  0  0 
   -1.9728    0.4029    1.5142 H   0  0  0  0  0  0  0  0  0  0  0  0 
    1.1838   -1.2853   -0.8854 H   0  0  0  0  0  0  0  0  0  0  0  0 
   -3.3916   -1.5279    0.9995 H   0  0  0  0  0  0  0  0  0  0  0  0 
   -0.2688   -3.2256   -1.4079 H   0  0  0  0  0  0  0  0  0  0  0  0 
    0.0690    0.9344    2.6894 H   0  0  0  0  0  0  0  0  0  0  0  0 
    1.3813    1.9798    2.1389 H   0  0  0  0  0  0  0  0  0  0  0  0 
    1.5231    0.6228    0.3832 H   0  0  0  0  0  0  0  0  0  0  0  0 
   -3.5392   -3.5317   -0.1430 H   0  0  0  0  0  0  0  0  0  0  0  0 
   -0.3491    2.4434   -0.1046 H   0  0  0  0  0  0  0  0  0  0  0  0 
  1 13  1  0  0  0  0 
  2  6  1  0  0  0  0 
  3  1  1  0  0  0  0 
  3 15  1  0  0  0  0 
  4  2  2  0  0  0  0 
  4  7  1  0  0  0  0 
  5 18  1  0  0  0  0 
  5 17  1  0  0  0  0 
  6  9  1  0  0  0  0 
  6  1  2  0  0  0  0 
  7  3  2  0  0  0  0 
  8  5  1  0  0  0  0 
  8 11  2  0  0  0  0 
  9  5  1  0  0  0  0 
 10  7  1  0  0  0  0 
 10 20  1  0  0  0  0 
 12  8  1  0  0  0  0 
 14  2  1  0  0  0  0 
 16  4  1  0  0  0  0 
 19  9  1  0  0  0  0 
 21 12  1  0  0  0  0 
M  END 
>  <HBA> 
4 
 
>  <HBD> 
3 
 
>  <TPSA> 
69.56 
 
>  <cid> 
67149 
 
>  <dipole> 
3.91 
 
>  <excitation_energy_1> 
4.474 
 
>  <excitation_energy_2> 
4.682 
 
>  <excitation_energy_3> 
4.904 
 
>  <excitation_energy_4> 
5.104 
 
>  <homo_energy> 
-5.646 
 
>  <homo_lumo_gap> 
5.257 
 
>  <logP> 
0.962 
 
>  <lumo_energy> 
-0.389 
 
>  <melting_point> 
155.34 
 
>  <molecular_refractivity> 
44.35 
 
>  <oscillator_strength_1> 
0.0383 
 
>  <oscillator_strength_2> 
0.01 
 
>  <oscillator_strength_3> 
0.0012 
 
>  <oscillator_strength_4> 
0.033 
 
>  <open_babel_can_smiles> 
OC(=O)CNc1ccc(cc1)O 
 
>  <mulliken_charges> 
21 
1   -0.182267 
2   -0.190263 
3   -0.205281 
4   -0.162374 
5   -0.254974 
6   0.319235 
7   0.352966 
8   0.597372 
9   -0.698387 
10   -0.646681 
11   -0.457474 
12   -0.567696 
13   0.153181 
14   0.125435 
15   0.127762 
16   0.145208 
17   0.189326 
18   0.188233 
19   0.327119 
20   0.408269 
21   0.431291 
 
>  <lowdin_charges> 
21 
1   -0.186155 
2   -0.178174 
3   -0.19893 
4   -0.173104 
5   -0.248229 
6   0.029104 
7   0.090418 
8   0.174019 
9   -0.32169 
10   -0.381311 
11   -0.25213 
12   -0.354231 
13   0.170783 
14   0.155226 
15   0.157089 
16   0.171261 
17   0.170966 
18   0.178603 
19   0.276302 
20   0.358244 
21   0.361939 
 
$$$$ 
 
