PCCDB-ID:  9224 
public computational chemistry database (PCCDB) project, http://pccdb.org 
 
 14 15  0  0  0  0  0  0  0  0999 V2000 
    0.9255    1.3949    0.0011 C   0  0  0  0  0  0  0  0  0  0  0  0 
   -1.6467    1.1184    0.0009 C   0  0  0  0  0  0  0  0  0  0  0  0 
    2.1171    0.6843    0.0006 C   0  0  0  0  0  0  0  0  0  0  0  0 
   -2.5325    0.0876    0.0001 C   0  0  0  0  0  0  0  0  0  0  0  0 
    1.0696   -1.3617    0.0006 C   0  0  0  0  0  0  0  0  0  0  0  0 
   -0.2790    0.6702    0.0015 C   0  0  0  0  0  0  0  0  0  0  0  0 
   -0.1846   -0.7419    0.0014 C   0  0  0  0  0  0  0  0  0  0  0  0 
    2.2026   -0.6632    0.0000 N   0  0  0  0  0  0  0  0  0  0  0  0 
   -1.7742   -1.4888    0.0002 S   0  0  0  0  0  0  0  0  0  0  0  0 
    0.9275    2.4812    0.0005 H   0  0  0  0  0  0  0  0  0  0  0  0 
   -1.9395    2.1627   -0.0002 H   0  0  0  0  0  0  0  0  0  0  0  0 
    3.0678    1.2134    0.0009 H   0  0  0  0  0  0  0  0  0  0  0  0 
   -3.6132    0.1494   -0.0002 H   0  0  0  0  0  0  0  0  0  0  0  0 
    1.1618   -2.4468    0.0012 H   0  0  0  0  0  0  0  0  0  0  0  0 
  1  6  2  0  0  0  0 
  2  6  1  0  0  0  0 
  3 12  1  0  0  0  0 
  3  1  1  0  0  0  0 
  4  9  1  0  0  0  0 
  4  2  2  0  0  0  0 
  5 14  1  0  0  0  0 
  5  7  2  0  0  0  0 
  7  6  1  0  0  0  0 
  8  3  2  0  0  0  0 
  8  5  1  0  0  0  0 
  9  7  1  0  0  0  0 
 10  1  1  0  0  0  0 
 11  2  1  0  0  0  0 
 13  4  1  0  0  0  0 
M  END 
>  <HBA> 
2 
 
>  <HBD> 
0 
 
>  <TPSA> 
41.13 
 
>  <cid> 
9224 
 
>  <dipole> 
2.79 
 
>  <excitation_energy_1> 
4.536 
 
>  <excitation_energy_2> 
4.649 
 
>  <excitation_energy_3> 
5.024 
 
>  <excitation_energy_4> 
5.266 
 
>  <homo_energy> 
-6.327 
 
>  <homo_lumo_gap> 
5.146 
 
>  <logP> 
2.296 
 
>  <lumo_energy> 
-1.181 
 
>  <melting_point> 
62.38 
 
>  <molecular_refractivity> 
39.62 
 
>  <oscillator_strength_1> 
0.096 
 
>  <oscillator_strength_2> 
0.0025 
 
>  <oscillator_strength_3> 
0.0055 
 
>  <oscillator_strength_4> 
0.0 
 
>  <open_babel_can_smiles> 
c1ncc2c(c1)ccs2 
 
>  <mulliken_charges> 
14 
1   -0.183393 
2   -0.115978 
3   0.02533 
4   -0.345837 
5   0.016001 
6   0.159567 
7   -0.161977 
8   -0.408315 
9   0.250277 
10   0.137716 
11   0.151663 
12   0.142603 
13   0.183012 
14   0.149331 
 
>  <lowdin_charges> 
14 
1   -0.174292 
2   -0.183387 
3   -0.097913 
4   -0.283276 
5   -0.085794 
6   0.000722 
7   -0.161961 
8   -0.152457 
9   0.301733 
10   0.163624 
11   0.170371 
12   0.158574 
13   0.18442 
14   0.159635 
 
$$$$ 
 
