PCCDB-ID:  11120 
public computational chemistry database (PCCDB) project, http://pccdb.org 
 
 14 13  0  0  0  0  0  0  0  0999 V2000 
    1.7376   -1.1884   -0.8231 C   0  0  0  0  0  0  0  0  0  0  0  0 
    2.7849    4.6165    0.2501 C   0  0  0  0  0  0  0  0  0  0  0  0 
    2.4067    0.9637   -0.1856 C   0  0  0  0  0  0  0  0  0  0  0  0 
    2.1193    2.4645   -0.3918 C   0  0  0  0  0  0  0  0  0  0  0  0 
    3.2634    0.5252    0.5443 O   0  0  0  0  0  0  0  0  0  0  0  0 
    1.2654    2.9031   -1.1249 O   0  0  0  0  0  0  0  0  0  0  0  0 
    1.5683    0.2365   -0.9313 O   0  0  0  0  0  0  0  0  0  0  0  0 
    2.9543    3.1915    0.3579 O   0  0  0  0  0  0  0  0  0  0  0  0 
    0.9885   -1.6200   -1.4862 H   0  0  0  0  0  0  0  0  0  0  0  0 
    1.5767   -1.5131    0.2083 H   0  0  0  0  0  0  0  0  0  0  0  0 
    2.7449   -1.4764   -1.1352 H   0  0  0  0  0  0  0  0  0  0  0  0 
    3.5308    5.0479    0.9169 H   0  0  0  0  0  0  0  0  0  0  0  0 
    1.7761    4.9037    0.5577 H   0  0  0  0  0  0  0  0  0  0  0  0 
    2.9504    4.9420   -0.7803 H   0  0  0  0  0  0  0  0  0  0  0  0 
  1 10  1  0  0  0  0 
  2  8  1  0  0  0  0 
  2 13  1  0  0  0  0 
  2 12  1  0  0  0  0 
  3  5  2  0  0  0  0 
  4  3  1  0  0  0  0 
  4  8  1  0  0  0  0 
  6  4  2  0  0  0  0 
  7  1  1  0  0  0  0 
  7  3  1  0  0  0  0 
  9  1  1  0  0  0  0 
 11  1  1  0  0  0  0 
 14  2  1  0  0  0  0 
M  END 
>  <HBA> 
4 
 
>  <HBD> 
0 
 
>  <TPSA> 
52.6 
 
>  <cid> 
11120 
 
>  <dipole> 
0.01 
 
>  <excitation_energy_1> 
4.127 
 
>  <excitation_energy_2> 
5.583 
 
>  <excitation_energy_3> 
6.259 
 
>  <excitation_energy_4> 
6.501 
 
>  <homo_energy> 
-7.298 
 
>  <homo_lumo_gap> 
5.698 
 
>  <logP> 
-0.668 
 
>  <lumo_energy> 
-1.6 
 
>  <melting_point> 
-0.35 
 
>  <molecular_refractivity> 
23.91 
 
>  <oscillator_strength_1> 
0.0003 
 
>  <oscillator_strength_2> 
0.0 
 
>  <oscillator_strength_3> 
0.0 
 
>  <oscillator_strength_4> 
0.127 
 
>  <open_babel_can_smiles> 
COC(=O)C(=O)OC 
 
>  <mulliken_charges> 
14 
1   -0.223943 
2   -0.223947 
3   0.5713 
4   0.571226 
5   -0.452626 
6   -0.45259 
7   -0.424336 
8   -0.42433 
9   0.176201 
10   0.176672 
11   0.176749 
12   0.176206 
13   0.176742 
14   0.176677 
 
>  <lowdin_charges> 
14 
1   -0.273515 
2   -0.273514 
3   0.162336 
4   0.16233 
5   -0.225889 
6   -0.225864 
7   -0.156227 
8   -0.156244 
9   0.168334 
10   0.162294 
11   0.162667 
12   0.168341 
13   0.16264 
14   0.162311 
 
$$$$ 
 
