PCCDB-ID:  7341 
public computational chemistry database (PCCDB) project, http://pccdb.org 
 
 20 19  0  0  1  0  0  0  0  0999 V2000 
    0.9050    0.1198    0.1063 C   0  0  0  0  0  0  0  0  0  0  0  0 
    5.1496    0.6855   -2.6570 C   0  0  0  0  0  0  0  0  0  0  0  0 
    2.4359    0.0644    0.1249 C   0  0  0  0  0  0  0  0  0  0  0  0 
    3.0595    0.5117   -1.2036 C   0  0  0  0  0  0  0  0  0  0  0  0 
    4.5929    0.4351   -1.2380 C   0  0  2  0  0  0  0  0  0  0  0  0 
    5.2214    1.4561   -0.2839 C   0  0  0  0  0  0  0  0  0  0  0  0 
    4.6977    2.4859    0.0617 O   0  0  0  0  0  0  0  0  0  0  0  0 
    6.4865    1.1689    0.1372 O   0  0  0  0  0  0  0  0  0  0  0  0 
    0.4841   -0.2040    1.0648 H   0  0  0  0  0  0  0  0  0  0  0  0 
    0.4915   -0.5289   -0.6760 H   0  0  0  0  0  0  0  0  0  0  0  0 
    0.5500    1.1394   -0.0856 H   0  0  0  0  0  0  0  0  0  0  0  0 
    4.7454   -0.0518   -3.3583 H   0  0  0  0  0  0  0  0  0  0  0  0 
    6.2432    0.6193   -2.6873 H   0  0  0  0  0  0  0  0  0  0  0  0 
    4.8647    1.6834   -3.0072 H   0  0  0  0  0  0  0  0  0  0  0  0 
    2.7613   -0.9610    0.3545 H   0  0  0  0  0  0  0  0  0  0  0  0 
    2.8134    0.7033    0.9322 H   0  0  0  0  0  0  0  0  0  0  0  0 
    2.7624    1.5458   -1.4165 H   0  0  0  0  0  0  0  0  0  0  0  0 
    2.6658   -0.1107   -2.0191 H   0  0  0  0  0  0  0  0  0  0  0  0 
    4.9030   -0.5723   -0.9176 H   0  0  0  0  0  0  0  0  0  0  0  0 
    6.7597    0.3023   -0.2062 H   0  0  0  0  0  0  0  0  0  0  0  0 
  1  3  1  0  0  0  0 
  1  9  1  0  0  0  0 
  2  5  1  0  0  0  0 
  3 15  1  0  0  0  0 
  3 16  1  0  0  0  0 
  4  3  1  0  0  0  0 
  5  4  1  0  0  0  0 
  5 19  1  1  0  0  0 
  5  6  1  0  0  0  0 
  6  7  2  0  0  0  0 
  6  8  1  0  0  0  0 
 10  1  1  0  0  0  0 
 11  1  1  0  0  0  0 
 12  2  1  0  0  0  0 
 13  2  1  0  0  0  0 
 14  2  1  0  0  0  0 
 17  4  1  0  0  0  0 
 18  4  1  0  0  0  0 
 20  8  1  0  0  0  0 
M  END 
>  <HBA> 
2 
 
>  <HBD> 
1 
 
>  <TPSA> 
37.3 
 
>  <cid> 
7341 
 
>  <dipole> 
4.02 
 
>  <excitation_energy_1> 
5.625 
 
>  <excitation_energy_2> 
6.381 
 
>  <excitation_energy_3> 
7.327 
 
>  <excitation_energy_4> 
7.42 
 
>  <homo_energy> 
-7.282 
 
>  <homo_lumo_gap> 
7.543 
 
>  <logP> 
1.507 
 
>  <lumo_energy> 
0.261 
 
>  <melting_point> 
50.6 
 
>  <molecular_refractivity> 
32.73 
 
>  <oscillator_strength_1> 
0.002 
 
>  <oscillator_strength_2> 
0.0095 
 
>  <oscillator_strength_3> 
0.0056 
 
>  <oscillator_strength_4> 
0.003 
 
>  <open_babel_can_smiles> 
C[C@@H](C(=O)O)CCC 
 
>  <mulliken_charges> 
20 
1   -0.443512 
2   -0.451446 
3   -0.262692 
4   -0.2416 
5   -0.204164 
6   0.610006 
7   -0.446237 
8   -0.570741 
9   0.144808 
10   0.138898 
11   0.149738 
12   0.159658 
13   0.143225 
14   0.172542 
15   0.123312 
16   0.158566 
17   0.159201 
18   0.126206 
19   0.126289 
20   0.407944 
 
>  <lowdin_charges> 
20 
1   -0.443321 
2   -0.437352 
3   -0.276821 
4   -0.27193 
5   -0.165731 
6   0.197526 
7   -0.24101 
8   -0.359678 
9   0.151278 
10   0.145785 
11   0.149945 
12   0.159026 
13   0.14702 
14   0.162831 
15   0.133882 
16   0.153617 
17   0.15614 
18   0.14245 
19   0.140115 
20   0.356229 
 
$$$$ 
 
