PCCDB-ID:  44792 
public computational chemistry database (PCCDB) project, http://pccdb.org 
 
 35 34  0  0  1  0  0  0  0  0999 V2000 
    4.4166    0.9348    1.1981 C   0  0  0  0  0  0  0  0  0  0  0  0 
    2.6037    3.2906   -1.3207 C   0  0  0  0  0  0  0  0  0  0  0  0 
    0.5401   -2.9222    0.2842 C   0  0  0  0  0  0  0  0  0  0  0  0 
   -0.1256   -1.1119    1.9097 C   0  0  0  0  0  0  0  0  0  0  0  0 
    3.1311    4.9133    1.3429 C   0  0  0  0  0  0  0  0  0  0  0  0 
    1.9668    0.7297    0.5028 C   0  0  0  0  0  0  0  0  0  0  0  0 
    1.8903   -0.7984    0.3652 C   0  0  0  0  0  0  0  0  0  0  0  0 
    3.3531    1.3169    0.1570 C   0  0  1  0  0  0  0  0  0  0  0  0 
    3.3168    2.8604   -0.0248 C   0  0  2  0  0  0  0  0  0  0  0  0 
    0.4831   -1.4060    0.5292 C   0  0  0  0  0  0  0  0  0  0  0  0 
    2.7875    3.5042    1.1884 N   0  0  0  0  0  0  0  0  0  0  0  0 
   -0.3215   -0.7910   -0.4947 O   0  0  0  0  0  0  0  0  0  0  0  0 
    4.4671   -0.1476    1.3580 H   0  0  0  0  0  0  0  0  0  0  0  0 
    4.1945    1.4181    2.1554 H   0  0  0  0  0  0  0  0  0  0  0  0 
    5.4130    1.2648    0.8788 H   0  0  0  0  0  0  0  0  0  0  0  0 
    3.0766    2.8396   -2.2014 H   0  0  0  0  0  0  0  0  0  0  0  0 
    2.6387    4.3784   -1.4482 H   0  0  0  0  0  0  0  0  0  0  0  0 
    1.5491    2.9900   -1.3203 H   0  0  0  0  0  0  0  0  0  0  0  0 
    1.1722   -3.4260    1.0249 H   0  0  0  0  0  0  0  0  0  0  0  0 
    0.9396   -3.1309   -0.7138 H   0  0  0  0  0  0  0  0  0  0  0  0 
   -0.4629   -3.3646    0.3487 H   0  0  0  0  0  0  0  0  0  0  0  0 
    0.4995   -1.5112    2.7170 H   0  0  0  0  0  0  0  0  0  0  0  0 
   -1.1162   -1.5776    1.9987 H   0  0  0  0  0  0  0  0  0  0  0  0 
   -0.2452   -0.0359    2.0640 H   0  0  0  0  0  0  0  0  0  0  0  0 
    2.6729    5.2962    2.2614 H   0  0  0  0  0  0  0  0  0  0  0  0 
    2.8202    5.5722    0.5117 H   0  0  0  0  0  0  0  0  0  0  0  0 
    4.2180    5.0097    1.4509 H   0  0  0  0  0  0  0  0  0  0  0  0 
    1.7083    1.0276    1.5273 H   0  0  0  0  0  0  0  0  0  0  0  0 
    1.2033    1.1566   -0.1572 H   0  0  0  0  0  0  0  0  0  0  0  0 
    2.5547   -1.2852    1.0898 H   0  0  0  0  0  0  0  0  0  0  0  0 
    2.2516   -1.0822   -0.6327 H   0  0  0  0  0  0  0  0  0  0  0  0 
    3.6586    0.8992   -0.8151 H   0  0  0  0  0  0  0  0  0  0  0  0 
    4.3634    3.1891   -0.1020 H   0  0  0  0  0  0  0  0  0  0  0  0 
    1.7743    3.4014    1.2051 H   0  0  0  0  0  0  0  0  0  0  0  0 
   -1.2198   -1.1482   -0.4095 H   0  0  0  0  0  0  0  0  0  0  0  0 
  1 13  1  0  0  0  0 
  1 14  1  0  0  0  0 
  2 18  1  0  0  0  0 
  2  9  1  0  0  0  0 
  3 21  1  0  0  0  0 
  3 10  1  0  0  0  0 
  3 19  1  0  0  0  0 
  4 23  1  0  0  0  0 
  4 24  1  0  0  0  0 
  4 22  1  0  0  0  0 
  5 27  1  0  0  0  0 
  5 25  1  0  0  0  0 
  6 28  1  0  0  0  0 
  7  6  1  0  0  0  0 
  7 10  1  0  0  0  0 
  7 30  1  0  0  0  0 
  8 32  1  6  0  0  0 
  8  6  1  0  0  0  0 
  8  1  1  0  0  0  0 
  9 33  1  6  0  0  0 
  9  8  1  0  0  0  0 
  9 11  1  0  0  0  0 
 10  4  1  0  0  0  0 
 11 34  1  0  0  0  0 
 11  5  1  0  0  0  0 
 12 35  1  0  0  0  0 
 12 10  1  0  0  0  0 
 15  1  1  0  0  0  0 
 16  2  1  0  0  0  0 
 17  2  1  0  0  0  0 
 20  3  1  0  0  0  0 
 26  5  1  0  0  0  0 
 29  6  1  0  0  0  0 
 31  7  1  0  0  0  0 
M  END 
>  <HBA> 
2 
 
>  <HBD> 
2 
 
>  <TPSA> 
32.26 
 
>  <cid> 
44792 
 
>  <dipole> 
1.26 
 
>  <excitation_energy_1> 
5.219 
 
>  <excitation_energy_2> 
5.513 
 
>  <excitation_energy_3> 
5.584 
 
>  <excitation_energy_4> 
5.912 
 
>  <homo_energy> 
-5.679 
 
>  <homo_lumo_gap> 
7.464 
 
>  <logP> 
2.172 
 
>  <lumo_energy> 
1.785 
 
>  <melting_point> 
27.6 
 
>  <molecular_refractivity> 
54.19 
 
>  <oscillator_strength_1> 
0.0016 
 
>  <oscillator_strength_2> 
0.002 
 
>  <oscillator_strength_3> 
0.0014 
 
>  <oscillator_strength_4> 
0.0072 
 
>  <open_babel_can_smiles> 
CN[C@@H]([C@H](CCC(O)(C)C)C)C 
 
>  <mulliken_charges> 
35 
1   -0.456945 
2   -0.46442 
3   -0.453071 
4   -0.460852 
5   -0.299233 
6   -0.291448 
7   -0.259132 
8   -0.055456 
9   0.034931 
10   0.305076 
11   -0.543595 
12   -0.638105 
13   0.135421 
14   0.162141 
15   0.130632 
16   0.141723 
17   0.142912 
18   0.145 
19   0.140521 
20   0.153423 
21   0.126529 
22   0.142988 
23   0.126804 
24   0.158251 
25   0.145212 
26   0.120818 
27   0.149607 
28   0.135711 
29   0.154542 
30   0.129533 
31   0.134752 
32   0.11119 
33   0.119358 
34   0.293014 
35   0.38217 
 
>  <lowdin_charges> 
35 
1   -0.447267 
2   -0.46196 
3   -0.456689 
4   -0.458712 
5   -0.359427 
6   -0.286732 
7   -0.278393 
8   -0.125407 
9   -0.062459 
10   0.124461 
11   -0.358607 
12   -0.465467 
13   0.141989 
14   0.156537 
15   0.142763 
16   0.150888 
17   0.146872 
18   0.146195 
19   0.152362 
20   0.155063 
21   0.141641 
22   0.153757 
23   0.142107 
24   0.155143 
25   0.149424 
26   0.120864 
27   0.14486 
28   0.140875 
29   0.152163 
30   0.144139 
31   0.145541 
32   0.132892 
33   0.135397 
34   0.248008 
35   0.337178 
 
$$$$ 
 
