PCCDB-ID:  57037 
public computational chemistry database (PCCDB) project, http://pccdb.org 
 
 40 42  0  0  1  0  0  0  0  0999 V2000 
    3.3897    0.0594    1.2595 C   0  0  0  0  0  0  0  0  0  0  0  0 
    2.3474   -0.1412    0.1553 C   0  0  0  0  0  0  0  0  0  0  0  0 
    3.0681    4.7432   -7.7906 C   0  0  0  0  0  0  0  0  0  0  0  0 
    4.4721    4.7858   -8.4168 C   0  0  0  0  0  0  0  0  0  0  0  0 
    2.9928    3.3137   -7.2322 C   0  0  0  0  0  0  0  0  0  0  0  0 
    5.3552    3.9998   -7.4204 C   0  0  0  0  0  0  0  0  0  0  0  0 
    3.9269    3.0629   -2.8376 C   0  0  0  0  0  0  0  0  0  0  0  0 
    3.0971    2.2958   -1.7856 C   0  0  0  0  0  0  0  0  0  0  0  0 
    4.3789    1.0295   -4.2860 C   0  0  0  0  0  0  0  0  0  0  0  0 
    3.2965   -1.3649   -1.8395 C   0  0  0  0  0  0  0  0  0  0  0  0 
    4.4029    3.0556   -6.6193 C   0  0  0  0  0  0  0  0  0  0  0  0 
    3.8082    2.4655   -4.2552 C   0  0  2  0  0  0  0  0  0  0  0  0 
    3.8611    0.2505   -3.1145 C   0  0  0  0  0  0  0  0  0  0  0  0 
    3.3025    0.8313   -2.0026 C   0  0  0  0  0  0  0  0  0  0  0  0 
    3.8535   -1.1245   -3.0070 N   0  0  0  0  0  0  0  0  0  0  0  0 
    4.5347    3.3395   -5.1820 N   0  0  0  0  0  0  0  0  0  0  0  0 
    2.9294   -0.2200   -1.1789 N   0  0  0  0  0  0  0  0  0  0  0  0 
    2.9007    0.0995    2.2394 H   0  0  0  0  0  0  0  0  0  0  0  0 
    3.9441    0.9924    1.1154 H   0  0  0  0  0  0  0  0  0  0  0  0 
    4.1102   -0.7650    1.2660 H   0  0  0  0  0  0  0  0  0  0  0  0 
    1.6170    0.6750    0.1632 H   0  0  0  0  0  0  0  0  0  0  0  0 
    1.7896   -1.0684    0.3238 H   0  0  0  0  0  0  0  0  0  0  0  0 
    2.2673    4.9754   -8.5012 H   0  0  0  0  0  0  0  0  0  0  0  0 
    2.9971    5.4756   -6.9732 H   0  0  0  0  0  0  0  0  0  0  0  0 
    4.8376    5.8030   -8.5957 H   0  0  0  0  0  0  0  0  0  0  0  0 
    4.4493    4.2767   -9.3895 H   0  0  0  0  0  0  0  0  0  0  0  0 
    2.8179    2.6129   -8.0601 H   0  0  0  0  0  0  0  0  0  0  0  0 
    2.1835    3.1624   -6.5094 H   0  0  0  0  0  0  0  0  0  0  0  0 
    5.8496    4.6755   -6.7127 H   0  0  0  0  0  0  0  0  0  0  0  0 
    6.1518    3.4422   -7.9234 H   0  0  0  0  0  0  0  0  0  0  0  0 
    4.9861    3.0566   -2.5514 H   0  0  0  0  0  0  0  0  0  0  0  0 
    3.6071    4.1135   -2.8530 H   0  0  0  0  0  0  0  0  0  0  0  0 
    2.0327    2.5631   -1.8805 H   0  0  0  0  0  0  0  0  0  0  0  0 
    3.4015    2.6149   -0.7790 H   0  0  0  0  0  0  0  0  0  0  0  0 
    5.4767    1.0914   -4.2726 H   0  0  0  0  0  0  0  0  0  0  0  0 
    4.1058    0.5170   -5.2157 H   0  0  0  0  0  0  0  0  0  0  0  0 
    3.1189   -2.3444   -1.4125 H   0  0  0  0  0  0  0  0  0  0  0  0 
    4.6905    2.0103   -6.7611 H   0  0  0  0  0  0  0  0  0  0  0  0 
    2.7288    2.3957   -4.4961 H   0  0  0  0  0  0  0  0  0  0  0  0 
    4.2467    4.3042   -5.0156 H   0  0  0  0  0  0  0  0  0  0  0  0 
  1 20  1  0  0  0  0 
  1 18  1  0  0  0  0 
  2 21  1  0  0  0  0 
  2 22  1  0  0  0  0 
  2  1  1  0  0  0  0 
  3  5  1  0  0  0  0 
  3 24  1  0  0  0  0 
  4  3  1  0  0  0  0 
  4  6  1  0  0  0  0 
  5 11  1  0  0  0  0 
  5 28  1  0  0  0  0 
  6 29  1  0  0  0  0 
  6 11  1  0  0  0  0 
  7 31  1  0  0  0  0 
  7  8  1  0  0  0  0 
  8 34  1  0  0  0  0 
  9 35  1  0  0  0  0 
  9 12  1  0  0  0  0 
  9 13  1  0  0  0  0 
 10 37  1  0  0  0  0 
 10 17  1  0  0  0  0 
 11 16  1  0  0  0  0 
 12 39  1  6  0  0  0 
 12  7  1  0  0  0  0 
 13 15  1  0  0  0  0 
 13 14  2  0  0  0  0 
 14  8  1  0  0  0  0 
 14 17  1  0  0  0  0 
 15 10  2  0  0  0  0 
 16 40  1  0  0  0  0 
 16 12  1  0  0  0  0 
 17  2  1  0  0  0  0 
 19  1  1  0  0  0  0 
 23  3  1  0  0  0  0 
 25  4  1  0  0  0  0 
 26  4  1  0  0  0  0 
 27  5  1  0  0  0  0 
 30  6  1  0  0  0  0 
 32  7  1  0  0  0  0 
 33  8  1  0  0  0  0 
 36  9  1  0  0  0  0 
 38 11  1  0  0  0  0 
M  END 
>  <HBA> 
3 
 
>  <HBD> 
1 
 
>  <TPSA> 
29.85 
 
>  <cid> 
57037 
 
>  <dipole> 
4.03 
 
>  <excitation_energy_1> 
4.825 
 
>  <excitation_energy_2> 
5.094 
 
>  <excitation_energy_3> 
5.206 
 
>  <excitation_energy_4> 
5.396 
 
>  <homo_energy> 
-5.456 
 
>  <homo_lumo_gap> 
6.444 
 
>  <logP> 
2.683 
 
>  <lumo_energy> 
0.988 
 
>  <melting_point> 
97.69 
 
>  <molecular_refractivity> 
70.45 
 
>  <oscillator_strength_1> 
0.0029 
 
>  <oscillator_strength_2> 
0.007 
 
>  <oscillator_strength_3> 
0.0166 
 
>  <oscillator_strength_4> 
0.0111 
 
>  <open_babel_can_smiles> 
CCn1cnc2c1CC[C@H](C2)NC1CCCC1 
 
>  <mulliken_charges> 
40 
1   -0.441068 
2   -0.156592 
3   -0.269698 
4   -0.268737 
5   -0.281291 
6   -0.286349 
7   -0.284286 
8   -0.347864 
9   -0.337679 
10   0.188108 
11   0.043159 
12   0.058653 
13   0.191772 
14   0.300723 
15   -0.497707 
16   -0.588986 
17   -0.447343 
18   0.151338 
19   0.163078 
20   0.163253 
21   0.162066 
22   0.161349 
23   0.134475 
24   0.123179 
25   0.132886 
26   0.133327 
27   0.131002 
28   0.136233 
29   0.144357 
30   0.139671 
31   0.154738 
32   0.12347 
33   0.146619 
34   0.142887 
35   0.15578 
36   0.151873 
37   0.14188 
38   0.139152 
39   0.109611 
40   0.282963 
 
>  <lowdin_charges> 
40 
1   -0.450508 
2   -0.189984 
3   -0.284884 
4   -0.28315 
5   -0.304732 
6   -0.291429 
7   -0.271088 
8   -0.27346 
9   -0.276211 
10   -0.105517 
11   -0.067968 
12   -0.060524 
13   -0.024614 
14   -0.038952 
15   -0.196212 
16   -0.35772 
17   -0.015692 
18   0.156315 
19   0.157337 
20   0.159638 
21   0.156666 
22   0.157994 
23   0.145925 
24   0.133957 
25   0.143447 
26   0.139916 
27   0.143136 
28   0.145361 
29   0.150936 
30   0.150466 
31   0.150485 
32   0.138803 
33   0.145023 
34   0.147745 
35   0.153223 
36   0.156204 
37   0.159898 
38   0.142712 
39   0.11356 
40   0.243897 
 
$$$$ 
 
