PCCDB-ID:  50021 
public computational chemistry database (PCCDB) project, http://pccdb.org 
 
 15 15  0  0  0  0  0  0  0  0999 V2000 
    2.1326    0.9871   -0.0789 C   0  0  0  0  0  0  0  0  0  0  0  0 
    3.4958   -2.8618    1.8183 C   0  0  0  0  0  0  0  0  0  0  0  0 
    4.0457   -0.8071    1.8189 C   0  0  0  0  0  0  0  0  0  0  0  0 
    3.2675   -0.9702    0.6748 C   0  0  0  0  0  0  0  0  0  0  0  0 
    4.1668   -1.9825    2.5122 N   0  0  0  0  0  0  0  0  0  0  0  0 
    2.9252   -2.2997    0.6993 N   0  0  0  0  0  0  0  0  0  0  0  0 
    4.7228    0.3789    2.2561 N   0  0  0  0  0  0  0  0  0  0  0  0 
    4.6513    1.3724    1.5134 O   0  0  0  0  0  0  0  0  0  0  0  0 
    5.3399    0.3420    3.3145 O   0  0  0  0  0  0  0  0  0  0  0  0 
    2.8604   -0.2307   -0.3600 O   0  0  0  0  0  0  0  0  0  0  0  0 
    1.8904    1.4033   -1.0572 H   0  0  0  0  0  0  0  0  0  0  0  0 
    2.7547    1.6759    0.4916 H   0  0  0  0  0  0  0  0  0  0  0  0 
    1.2113    0.7510    0.4653 H   0  0  0  0  0  0  0  0  0  0  0  0 
    3.3858   -3.9101    2.0596 H   0  0  0  0  0  0  0  0  0  0  0  0 
    2.3598   -2.7492   -0.0089 H   0  0  0  0  0  0  0  0  0  0  0  0 
  1 13  1  0  0  0  0 
  1 12  1  0  0  0  0 
  2 14  1  0  0  0  0 
  2  5  2  0  0  0  0 
  3  7  1  0  0  0  0 
  3  5  1  0  0  0  0 
  4  6  1  0  0  0  0 
  4  3  2  0  0  0  0 
  6  2  1  0  0  0  0 
  7  9  2  0  0  0  0 
  8  7  2  0  0  0  0 
 10  1  1  0  0  0  0 
 10  4  1  0  0  0  0 
 11  1  1  0  0  0  0 
 15  6  1  0  0  0  0 
M  END 
>  <HBA> 
2 
 
>  <HBD> 
1 
 
>  <TPSA> 
83.73 
 
>  <cid> 
50021 
 
>  <dipole> 
7.08 
 
>  <excitation_energy_1> 
3.826 
 
>  <excitation_energy_2> 
4.261 
 
>  <excitation_energy_3> 
4.432 
 
>  <excitation_energy_4> 
5.025 
 
>  <homo_energy> 
-6.754 
 
>  <homo_lumo_gap> 
4.865 
 
>  <logP> 
0.85 
 
>  <lumo_energy> 
-1.888 
 
>  <melting_point> 
111.0 
 
>  <molecular_refractivity> 
33.9 
 
>  <oscillator_strength_1> 
0.0028 
 
>  <oscillator_strength_2> 
0.1319 
 
>  <oscillator_strength_3> 
0.0013 
 
>  <oscillator_strength_4> 
0.0039 
 
>  <open_babel_can_smiles> 
COc1[nH]cnc1N(=O)=O 
 
>  <mulliken_charges> 
15 
1   -0.241411 
2   0.22737 
3   0.386042 
4   0.539159 
5   -0.439086 
6   -0.588528 
7   0.361587 
8   -0.43153 
9   -0.382368 
10   -0.50575 
11   0.1756 
12   0.214832 
13   0.154572 
14   0.177428 
15   0.352084 
 
>  <lowdin_charges> 
15 
1   -0.276322 
2   -0.071966 
3   -0.041778 
4   0.117149 
5   -0.143222 
6   -0.178485 
7   0.310346 
8   -0.283183 
9   -0.224643 
10   -0.186238 
11   0.166506 
12   0.179042 
13   0.148737 
14   0.176815 
15   0.307243 
 
$$$$ 
 
