PCCDB-ID:  8596 
public computational chemistry database (PCCDB) project, http://pccdb.org 
 
 22 23  0  0  0  0  0  0  0  0999 V2000 
    2.4297    0.7081   -0.1104 C   0  0  0  0  0  0  0  0  0  0  0  0 
    2.4090   -0.7055   -0.0755 C   0  0  0  0  0  0  0  0  0  0  0  0 
   -2.4280    0.8029    0.0940 C   0  0  0  0  0  0  0  0  0  0  0  0 
    1.2483    1.4130   -0.0782 C   0  0  0  0  0  0  0  0  0  0  0  0 
   -1.2260    1.4643    0.0227 C   0  0  0  0  0  0  0  0  0  0  0  0 
   -2.4556   -0.6108    0.1417 C   0  0  0  0  0  0  0  0  0  0  0  0 
    1.2136   -1.3869   -0.0063 C   0  0  0  0  0  0  0  0  0  0  0  0 
   -1.3819   -2.8715    0.1957 C   0  0  0  0  0  0  0  0  0  0  0  0 
   -1.0406   -3.5555   -1.0609 C   0  0  0  0  0  0  0  0  0  0  0  0 
   -0.0021    0.7432   -0.0077 C   0  0  0  0  0  0  0  0  0  0  0  0 
   -1.2935   -1.3530    0.1144 C   0  0  0  0  0  0  0  0  0  0  0  0 
   -0.0262   -0.6914    0.0333 C   0  0  0  0  0  0  0  0  0  0  0  0 
   -0.7726   -4.0953   -2.0529 N   0  0  0  0  0  0  0  0  0  0  0  0 
    3.3791    1.2334   -0.1650 H   0  0  0  0  0  0  0  0  0  0  0  0 
    3.3435   -1.2586   -0.1091 H   0  0  0  0  0  0  0  0  0  0  0  0 
   -3.3618    1.3572    0.1154 H   0  0  0  0  0  0  0  0  0  0  0  0 
    1.2539    2.5000   -0.1074 H   0  0  0  0  0  0  0  0  0  0  0  0 
   -1.1933    2.5506   -0.0112 H   0  0  0  0  0  0  0  0  0  0  0  0 
   -3.4144   -1.1198    0.2032 H   0  0  0  0  0  0  0  0  0  0  0  0 
    1.2241   -2.4719    0.0028 H   0  0  0  0  0  0  0  0  0  0  0  0 
   -0.7253   -3.2617    0.9842 H   0  0  0  0  0  0  0  0  0  0  0  0 
   -2.4018   -3.1635    0.4697 H   0  0  0  0  0  0  0  0  0  0  0  0 
  1  4  2  0  0  0  0 
  1  2  1  0  0  0  0 
  2  7  2  0  0  0  0 
  3 16  1  0  0  0  0 
  3  6  2  0  0  0  0 
  4 10  1  0  0  0  0 
  5  3  1  0  0  0  0 
  6 19  1  0  0  0  0 
  7 20  1  0  0  0  0 
  7 12  1  0  0  0  0 
  8 22  1  0  0  0  0 
  8 21  1  0  0  0  0 
  9  8  1  0  0  0  0 
 10  5  2  0  0  0  0 
 10 12  1  0  0  0  0 
 11  6  1  0  0  0  0 
 11  8  1  0  0  0  0 
 12 11  2  0  0  0  0 
 13  9  3  0  0  0  0 
 14  1  1  0  0  0  0 
 15  2  1  0  0  0  0 
 17  4  1  0  0  0  0 
 18  5  1  0  0  0  0 
M  END 
>  <HBA> 
1 
 
>  <HBD> 
0 
 
>  <TPSA> 
23.79 
 
>  <cid> 
8596 
 
>  <dipole> 
3.95 
 
>  <excitation_energy_1> 
4.294 
 
>  <excitation_energy_2> 
4.415 
 
>  <excitation_energy_3> 
5.446 
 
>  <excitation_energy_4> 
5.54 
 
>  <homo_energy> 
-6.112 
 
>  <homo_lumo_gap> 
4.757 
 
>  <logP> 
2.906 
 
>  <lumo_energy> 
-1.355 
 
>  <melting_point> 
85.73 
 
>  <molecular_refractivity> 
53.47 
 
>  <oscillator_strength_1> 
0.0887 
 
>  <oscillator_strength_2> 
0.0006 
 
>  <oscillator_strength_3> 
0.012 
 
>  <oscillator_strength_4> 
0.04 
 
>  <open_babel_can_smiles> 
N#CCc1cccc2c1cccc2 
 
>  <mulliken_charges> 
22 
1   -0.130246 
2   -0.13318 
3   -0.131094 
4   -0.193343 
5   -0.185533 
6   -0.193362 
7   -0.192952 
8   -0.449718 
9   0.366387 
10   0.137951 
11   0.118306 
12   0.092781 
13   -0.465907 
14   0.135461 
15   0.137521 
16   0.136846 
17   0.13447 
18   0.135582 
19   0.131984 
20   0.13988 
21   0.205382 
22   0.202783 
 
>  <lowdin_charges> 
22 
1   -0.154621 
2   -0.149868 
3   -0.157587 
4   -0.150108 
5   -0.146779 
6   -0.161542 
7   -0.158166 
8   -0.271366 
9   -0.01765 
10   0.00329 
11   -0.004067 
12   -0.004434 
13   -0.125438 
14   0.161528 
15   0.16265 
16   0.162727 
17   0.15768 
18   0.158681 
19   0.158907 
20   0.162134 
21   0.187174 
22   0.186856 
 
$$$$ 
 
