PCCDB-ID:  10795 
public computational chemistry database (PCCDB) project, http://pccdb.org 
 
 16 15  0  0  0  0  0  0  0  0999 V2000 
    1.0196    0.6992    0.1895 C   0  0  0  0  0  0  0  0  0  0  0  0 
    1.2832   -2.8317   -0.7493 C   0  0  0  0  0  0  0  0  0  0  0  0 
    0.6662    0.1082   -2.6907 C   0  0  0  0  0  0  0  0  0  0  0  0 
    1.6035   -0.4910   -0.5610 C   0  0  0  0  0  0  0  0  0  0  0  0 
    0.7474   -1.5866   -0.3253 O   0  0  0  0  0  0  0  0  0  0  0  0 
    1.8179   -0.2600   -1.9416 O   0  0  0  0  0  0  0  0  0  0  0  0 
    1.0466    0.5048    1.2656 H   0  0  0  0  0  0  0  0  0  0  0  0 
   -0.0231    0.8693   -0.0946 H   0  0  0  0  0  0  0  0  0  0  0  0 
    1.6016    1.6009   -0.0238 H   0  0  0  0  0  0  0  0  0  0  0  0 
    0.5401   -3.5944   -0.5038 H   0  0  0  0  0  0  0  0  0  0  0  0 
    2.2214   -3.0609   -0.2204 H   0  0  0  0  0  0  0  0  0  0  0  0 
    1.4790   -2.8439   -1.8281 H   0  0  0  0  0  0  0  0  0  0  0  0 
    0.9469    0.0269   -3.7440 H   0  0  0  0  0  0  0  0  0  0  0  0 
    0.3576    1.1433   -2.4889 H   0  0  0  0  0  0  0  0  0  0  0  0 
   -0.1786   -0.5615   -2.4895 H   0  0  0  0  0  0  0  0  0  0  0  0 
    2.6132   -0.7218   -0.1895 H   0  0  0  0  0  0  0  0  0  0  0  0 
  1  7  1  0  0  0  0 
  2 10  1  0  0  0  0 
  2  5  1  0  0  0  0 
  2 11  1  0  0  0  0 
  3 15  1  0  0  0  0 
  3 14  1  0  0  0  0 
  3  6  1  0  0  0  0 
  4  5  1  0  0  0  0 
  4 16  1  0  0  0  0 
  4  1  1  0  0  0  0 
  6  4  1  0  0  0  0 
  8  1  1  0  0  0  0 
  9  1  1  0  0  0  0 
 12  2  1  0  0  0  0 
 13  3  1  0  0  0  0 
M  END 
>  <HBA> 
2 
 
>  <HBD> 
0 
 
>  <TPSA> 
18.46 
 
>  <cid> 
10795 
 
>  <dipole> 
0.25 
 
>  <excitation_energy_1> 
6.8 
 
>  <excitation_energy_2> 
6.989 
 
>  <excitation_energy_3> 
7.145 
 
>  <excitation_energy_4> 
7.298 
 
>  <homo_energy> 
-7.08 
 
>  <homo_lumo_gap> 
9.649 
 
>  <logP> 
0.625 
 
>  <lumo_energy> 
2.569 
 
>  <melting_point> 
-43.13 
 
>  <molecular_refractivity> 
23.51 
 
>  <oscillator_strength_1> 
0.0028 
 
>  <oscillator_strength_2> 
0.0136 
 
>  <oscillator_strength_3> 
0.0046 
 
>  <oscillator_strength_4> 
0.009 
 
>  <open_babel_can_smiles> 
COC(OC)C 
 
>  <mulliken_charges> 
16 
1   -0.474471 
2   -0.204277 
3   -0.213618 
4   0.355093 
5   -0.46575 
6   -0.470635 
7   0.158472 
8   0.159625 
9   0.154796 
10   0.155684 
11   0.131907 
12   0.151802 
13   0.155091 
14   0.136494 
15   0.15162 
16   0.118165 
 
>  <lowdin_charges> 
16 
1   -0.459084 
2   -0.282274 
3   -0.286204 
4   0.099691 
5   -0.268924 
6   -0.275283 
7   0.161771 
8   0.158877 
9   0.159669 
10   0.155317 
11   0.134272 
12   0.141563 
13   0.153026 
14   0.134356 
15   0.144448 
16   0.128779 
 
$$$$ 
 
