PCCDB-ID:  14067 
public computational chemistry database (PCCDB) project, http://pccdb.org 
 
 32 31  0  0  0  0  0  0  0  0999 V2000 
    3.1786    2.4001   -0.1771 C   0  0  0  0  0  0  0  0  0  0  0  0 
    3.0991    0.8662    1.8173 C   0  0  0  0  0  0  0  0  0  0  0  0 
    1.0997    1.0958    0.3254 C   0  0  0  0  0  0  0  0  0  0  0  0 
    4.5534   -2.8794   -0.9984 C   0  0  0  0  0  0  0  0  0  0  0  0 
    4.6185   -1.3535   -2.9994 C   0  0  0  0  0  0  0  0  0  0  0  0 
    6.6255   -1.5700   -1.5155 C   0  0  0  0  0  0  0  0  0  0  0  0 
    3.1044   -0.1271   -0.5349 C   0  0  0  0  0  0  0  0  0  0  0  0 
    4.6204   -0.3506   -0.6511 C   0  0  0  0  0  0  0  0  0  0  0  0 
    2.6410    1.0581    0.3581 C   0  0  0  0  0  0  0  0  0  0  0  0 
    5.0840   -1.5378   -1.5416 C   0  0  0  0  0  0  0  0  0  0  0  0 
    2.7757    3.2381    0.4050 H   0  0  0  0  0  0  0  0  0  0  0  0 
    2.8892    2.5535   -1.2245 H   0  0  0  0  0  0  0  0  0  0  0  0 
    4.2711    2.4565   -0.1190 H   0  0  0  0  0  0  0  0  0  0  0  0 
    2.6978    1.6622    2.4567 H   0  0  0  0  0  0  0  0  0  0  0  0 
    4.1904    0.8901    1.9117 H   0  0  0  0  0  0  0  0  0  0  0  0 
    2.7482   -0.0924    2.2199 H   0  0  0  0  0  0  0  0  0  0  0  0 
    0.7117    1.9156    0.9425 H   0  0  0  0  0  0  0  0  0  0  0  0 
    0.6712    0.1599    0.7053 H   0  0  0  0  0  0  0  0  0  0  0  0 
    0.7280    1.2422   -0.6965 H   0  0  0  0  0  0  0  0  0  0  0  0 
    4.9539   -3.7183   -1.5809 H   0  0  0  0  0  0  0  0  0  0  0  0 
    3.4606   -2.9385   -1.0484 H   0  0  0  0  0  0  0  0  0  0  0  0 
    4.8508   -3.0290    0.0473 H   0  0  0  0  0  0  0  0  0  0  0  0 
    5.0223   -2.1490   -3.6379 H   0  0  0  0  0  0  0  0  0  0  0  0 
    4.9617   -0.3939   -3.4065 H   0  0  0  0  0  0  0  0  0  0  0  0 
    3.5270   -1.3847   -3.0892 H   0  0  0  0  0  0  0  0  0  0  0  0 
    7.0134   -2.3923   -2.1293 H   0  0  0  0  0  0  0  0  0  0  0  0 
    7.0022   -1.7090   -0.4944 H   0  0  0  0  0  0  0  0  0  0  0  0 
    7.0491   -0.6351   -1.9031 H   0  0  0  0  0  0  0  0  0  0  0  0 
    2.6309   -1.0392   -0.1459 H   0  0  0  0  0  0  0  0  0  0  0  0 
    2.6821    0.0301   -1.5368 H   0  0  0  0  0  0  0  0  0  0  0  0 
    5.0433   -0.5054    0.3509 H   0  0  0  0  0  0  0  0  0  0  0  0 
    5.0932    0.5608   -1.0424 H   0  0  0  0  0  0  0  0  0  0  0  0 
  1 13  1  0  0  0  0 
  1  9  1  0  0  0  0 
  1 11  1  0  0  0  0 
  2 15  1  0  0  0  0 
  2 16  1  0  0  0  0 
  2 14  1  0  0  0  0 
  3  9  1  0  0  0  0 
  3 18  1  0  0  0  0 
  3 17  1  0  0  0  0 
  4 22  1  0  0  0  0 
  5 10  1  0  0  0  0 
  6 27  1  0  0  0  0 
  7 29  1  0  0  0  0 
  7  9  1  0  0  0  0 
  8  7  1  0  0  0  0 
  8 31  1  0  0  0  0 
  9  2  1  0  0  0  0 
 10  6  1  0  0  0  0 
 10  4  1  0  0  0  0 
 10  8  1  0  0  0  0 
 12  1  1  0  0  0  0 
 19  3  1  0  0  0  0 
 20  4  1  0  0  0  0 
 21  4  1  0  0  0  0 
 23  5  1  0  0  0  0 
 24  5  1  0  0  0  0 
 25  5  1  0  0  0  0 
 26  6  1  0  0  0  0 
 28  6  1  0  0  0  0 
 30  7  1  0  0  0  0 
 32  8  1  0  0  0  0 
M  END 
>  <HBA> 
0 
 
>  <HBD> 
0 
 
>  <TPSA> 
0.0 
 
>  <cid> 
14067 
 
>  <dipole> 
0.0 
 
>  <excitation_energy_1> 
7.401 
 
>  <excitation_energy_2> 
7.571 
 
>  <excitation_energy_3> 
7.771 
 
>  <excitation_energy_4> 
7.803 
 
>  <homo_energy> 
-7.932 
 
>  <homo_lumo_gap> 
9.921 
 
>  <logP> 
3.859 
 
>  <lumo_energy> 
1.989 
 
>  <melting_point> 
8.15 
 
>  <molecular_refractivity> 
49.66 
 
>  <oscillator_strength_1> 
0.0 
 
>  <oscillator_strength_2> 
0.0 
 
>  <oscillator_strength_3> 
0.0 
 
>  <oscillator_strength_4> 
0.1008 
 
>  <open_babel_can_smiles> 
CC(CCC(C)(C)C)(C)C 
 
>  <mulliken_charges> 
32 
1   -0.445091 
2   -0.445236 
3   -0.440861 
4   -0.445073 
5   -0.445259 
6   -0.440905 
7   -0.260068 
8   -0.260131 
9   0.101786 
10   0.10185 
11   0.136455 
12   0.135802 
13   0.14231 
14   0.136488 
15   0.142296 
16   0.135859 
17   0.135892 
18   0.136193 
19   0.136186 
20   0.136468 
21   0.14227 
22   0.135814 
23   0.136474 
24   0.135846 
25   0.142323 
26   0.135897 
27   0.136185 
28   0.13621 
29   0.125951 
30   0.126051 
31   0.125995 
32   0.12602 
 
>  <lowdin_charges> 
32 
1   -0.442281 
2   -0.443968 
3   -0.442461 
4   -0.442288 
5   -0.443949 
6   -0.442482 
7   -0.278589 
8   -0.278602 
9   0.016145 
10   0.016142 
11   0.147498 
12   0.144423 
13   0.145156 
14   0.147698 
15   0.145147 
16   0.145656 
17   0.146467 
18   0.145658 
19   0.144633 
20   0.147488 
21   0.145112 
22   0.144448 
23   0.147704 
24   0.145642 
25   0.145178 
26   0.14646 
27   0.144647 
28   0.145672 
29   0.139881 
30   0.138936 
31   0.138895 
32   0.139933 
 
$$$$ 
 
