PCCDB-ID:  68964 
public computational chemistry database (PCCDB) project, http://pccdb.org 
 
 14 13  0  0  0  0  0  0  0  0999 V2000 
    0.6936    0.1586    0.0006 C   0  0  0  0  0  0  0  0  0  0  0  0 
    6.5656    0.6476    1.3057 C   0  0  0  0  0  0  0  0  0  0  0  0 
    2.1766   -0.0150   -0.0681 C   0  0  0  0  0  0  0  0  0  0  0  0 
    5.0826    0.8216    1.3740 C   0  0  0  0  0  0  0  0  0  0  0  0 
    2.9492    0.5556    0.7775 N   0  0  0  0  0  0  0  0  0  0  0  0 
    4.3104    0.2544    0.5258 N   0  0  0  0  0  0  0  0  0  0  0  0 
    0.1966   -0.8129    0.1226 H   0  0  0  0  0  0  0  0  0  0  0  0 
    0.3122    0.5925   -0.9332 H   0  0  0  0  0  0  0  0  0  0  0  0 
    0.4209    0.8084    0.8357 H   0  0  0  0  0  0  0  0  0  0  0  0 
    6.9481    0.2224    2.2430 H   0  0  0  0  0  0  0  0  0  0  0  0 
    7.0621    1.6182    1.1742 H   0  0  0  0  0  0  0  0  0  0  0  0 
    6.8378   -0.0093    0.4759 H   0  0  0  0  0  0  0  0  0  0  0  0 
    2.5955   -0.6448   -0.8614 H   0  0  0  0  0  0  0  0  0  0  0  0 
    4.6635    1.4482    2.1697 H   0  0  0  0  0  0  0  0  0  0  0  0 
  1  7  1  0  0  0  0 
  1  9  1  0  0  0  0 
  2  4  1  0  0  0  0 
  2 10  1  0  0  0  0 
  3  1  1  0  0  0  0 
  3  5  1  0  0  0  0 
  4 14  1  0  0  0  0 
  6  5  1  0  0  0  0 
  6  4  1  0  0  0  0 
  8  1  1  0  0  0  0 
 11  2  1  0  0  0  0 
 12  2  1  0  0  0  0 
 13  3  1  0  0  0  0 
M  RAD  4   3   2   4   2   5   2   6   2 
M  END 
>  <HBA> 
2 
 
>  <HBD> 
0 
 
>  <TPSA> 
24.72 
 
>  <cid> 
68964 
 
>  <dipole> 
0.01 
 
>  <excitation_energy_1> 
4.199 
 
>  <excitation_energy_2> 
5.675 
 
>  <excitation_energy_3> 
6.113 
 
>  <excitation_energy_4> 
6.396 
 
>  <homo_energy> 
-6.229 
 
>  <homo_lumo_gap> 
5.595 
 
>  <logP> 
1.083 
 
>  <lumo_energy> 
-0.634 
 
>  <melting_point> 
10.49 
 
>  <molecular_refractivity> 
28.71 
 
>  <oscillator_strength_1> 
0.0005 
 
>  <oscillator_strength_2> 
0.0 
 
>  <oscillator_strength_3> 
0.4083 
 
>  <oscillator_strength_4> 
0.0 
 
>  <open_babel_can_smiles> 
C[CH][N][N][CH]C 
 
>  <mulliken_charges> 
14 
1   -0.498819 
2   -0.498808 
3   0.122045 
4   0.122051 
5   -0.268048 
6   -0.268045 
7   0.165323 
8   0.165323 
9   0.176807 
10   0.165074 
11   0.165559 
12   0.176808 
13   0.137364 
14   0.137366 
 
>  <lowdin_charges> 
14 
1   -0.449554 
2   -0.449551 
3   -0.070496 
4   -0.070492 
5   -0.123922 
6   -0.123916 
7   0.165539 
8   0.165964 
9   0.170496 
10   0.165797 
11   0.165685 
12   0.170512 
13   0.141971 
14   0.141968 
 
$$$$ 
 
