PCCDB-ID:  39038 
public computational chemistry database (PCCDB) project, http://pccdb.org 
 
 21 22  0  0  0  0  0  0  0  0999 V2000 
    2.4342    0.7464    0.0447 C   0  0  0  0  0  0  0  0  0  0  0  0 
    2.4589   -0.6687    0.0470 C   0  0  0  0  0  0  0  0  0  0  0  0 
    1.2281    1.4103    0.0070 C   0  0  0  0  0  0  0  0  0  0  0  0 
    1.2851   -1.3891    0.0255 C   0  0  0  0  0  0  0  0  0  0  0  0 
   -1.2565    1.3648   -0.0697 C   0  0  0  0  0  0  0  0  0  0  0  0 
   -2.4297    0.6494   -0.0976 C   0  0  0  0  0  0  0  0  0  0  0  0 
   -0.0021    0.7038   -0.0172 C   0  0  0  0  0  0  0  0  0  0  0  0 
    0.0226   -0.7322    0.0088 C   0  0  0  0  0  0  0  0  0  0  0  0 
   -2.4298   -0.7692   -0.0431 C   0  0  0  0  0  0  0  0  0  0  0  0 
   -1.2107   -1.4340    0.0227 C   0  0  0  0  0  0  0  0  0  0  0  0 
   -3.6222   -1.4926   -0.1013 N   0  0  0  0  0  0  0  0  0  0  0  0 
   -1.2720   -2.8151    0.0858 O   0  0  0  0  0  0  0  0  0  0  0  0 
    3.3668    1.3033    0.0620 H   0  0  0  0  0  0  0  0  0  0  0  0 
    3.4121   -1.1907    0.0527 H   0  0  0  0  0  0  0  0  0  0  0  0 
    1.1997    2.4976   -0.0084 H   0  0  0  0  0  0  0  0  0  0  0  0 
    1.3339   -2.4750   -0.0158 H   0  0  0  0  0  0  0  0  0  0  0  0 
   -1.2794    2.4511   -0.0985 H   0  0  0  0  0  0  0  0  0  0  0  0 
   -3.3859    1.1650   -0.1517 H   0  0  0  0  0  0  0  0  0  0  0  0 
   -4.4169   -1.0324    0.3253 H   0  0  0  0  0  0  0  0  0  0  0  0 
   -3.5216   -2.4518    0.2095 H   0  0  0  0  0  0  0  0  0  0  0  0 
   -0.4884   -3.1411    0.5533 H   0  0  0  0  0  0  0  0  0  0  0  0 
  1  2  2  0  0  0  0 
  1 13  1  0  0  0  0 
  2 14  1  0  0  0  0 
  3  1  1  0  0  0  0 
  4  2  1  0  0  0  0 
  5  7  1  0  0  0  0 
  6  5  2  0  0  0  0 
  6  9  1  0  0  0  0 
  7  3  2  0  0  0  0 
  7  8  1  0  0  0  0 
  8 10  1  0  0  0  0 
  8  4  2  0  0  0  0 
  9 10  2  0  0  0  0 
 10 12  1  0  0  0  0 
 11  9  1  0  0  0  0 
 11 20  1  0  0  0  0 
 11 19  1  0  0  0  0 
 12 21  1  0  0  0  0 
 15  3  1  0  0  0  0 
 16  4  1  0  0  0  0 
 17  5  1  0  0  0  0 
 18  6  1  0  0  0  0 
M  END 
>  <HBA> 
2 
 
>  <HBD> 
2 
 
>  <TPSA> 
46.25 
 
>  <cid> 
39038 
 
>  <dipole> 
1.85 
 
>  <excitation_energy_1> 
3.602 
 
>  <excitation_energy_2> 
4.217 
 
>  <excitation_energy_3> 
4.294 
 
>  <excitation_energy_4> 
4.742 
 
>  <homo_energy> 
-4.931 
 
>  <homo_lumo_gap> 
4.169 
 
>  <logP> 
2.709 
 
>  <lumo_energy> 
-0.762 
 
>  <melting_point> 
138.78 
 
>  <molecular_refractivity> 
50.38 
 
>  <oscillator_strength_1> 
0.0482 
 
>  <oscillator_strength_2> 
0.0312 
 
>  <oscillator_strength_3> 
0.0053 
 
>  <oscillator_strength_4> 
0.0023 
 
>  <open_babel_can_smiles> 
Nc1ccc2c(c1O)cccc2 
 
>  <mulliken_charges> 
21 
1   -0.138872 
2   -0.1356 
3   -0.19819 
4   -0.215776 
5   -0.202302 
6   -0.179773 
7   0.134631 
8   0.128385 
9   0.287393 
10   0.181298 
11   -0.792496 
12   -0.673298 
13   0.125881 
14   0.1265 
15   0.127585 
16   0.112114 
17   0.125875 
18   0.122182 
19   0.316229 
20   0.336527 
21   0.411707 
 
>  <lowdin_charges> 
21 
1   -0.172516 
2   -0.154938 
3   -0.147796 
4   -0.178037 
5   -0.163077 
6   -0.179446 
7   -0.009168 
8   -0.026545 
9   0.030119 
10   0.050986 
11   -0.485843 
12   -0.405773 
13   0.157408 
14   0.157086 
15   0.154508 
16   0.145496 
17   0.155391 
18   0.156545 
19   0.275208 
20   0.282103 
21   0.35829 
 
$$$$ 
 
