PCCDB-ID:  15881 
public computational chemistry database (PCCDB) project, http://pccdb.org 
 
 20 20  0  0  0  0  0  0  0  0999 V2000 
   -0.6168    1.6780    0.5059 C   0  0  0  0  0  0  0  0  0  0  0  0 
    1.2289    1.3906   -1.0241 C   0  0  0  0  0  0  0  0  0  0  0  0 
   -1.1768    0.4867    0.0548 C   0  0  0  0  0  0  0  0  0  0  0  0 
    0.6706    0.1951   -1.4785 C   0  0  0  0  0  0  0  0  0  0  0  0 
   -0.5776   -2.2332   -2.3304 C   0  0  0  0  0  0  0  0  0  0  0  0 
    0.5911    2.1377   -0.0326 C   0  0  0  0  0  0  0  0  0  0  0  0 
   -0.5358   -0.2582   -0.9380 C   0  0  0  0  0  0  0  0  0  0  0  0 
   -1.4715   -3.4518   -2.5725 C   0  0  0  0  0  0  0  0  0  0  0  0 
    1.1908    3.3011    0.3695 O   0  0  0  0  0  0  0  0  0  0  0  0 
   -1.1813   -4.2907   -3.3874 O   0  0  0  0  0  0  0  0  0  0  0  0 
   -2.5834   -3.5113   -1.8203 O   0  0  0  0  0  0  0  0  0  0  0  0 
   -1.1659   -1.4265   -1.3213 O   0  0  0  0  0  0  0  0  0  0  0  0 
   -1.1236    2.2513    1.2798 H   0  0  0  0  0  0  0  0  0  0  0  0 
    2.1652    1.7534   -1.4356 H   0  0  0  0  0  0  0  0  0  0  0  0 
   -2.1131    0.1241    0.4674 H   0  0  0  0  0  0  0  0  0  0  0  0 
    1.1861   -0.3665   -2.2492 H   0  0  0  0  0  0  0  0  0  0  0  0 
   -0.4782   -1.6851   -3.2762 H   0  0  0  0  0  0  0  0  0  0  0  0 
    0.4172   -2.5886   -2.0324 H   0  0  0  0  0  0  0  0  0  0  0  0 
    0.6453    3.7192    1.0532 H   0  0  0  0  0  0  0  0  0  0  0  0 
   -2.5929   -2.7223   -1.2425 H   0  0  0  0  0  0  0  0  0  0  0  0 
  1 13  1  0  0  0  0 
  2  6  1  0  0  0  0 
  3 15  1  0  0  0  0 
  3  1  1  0  0  0  0 
  4  2  2  0  0  0  0 
  4  7  1  0  0  0  0 
  5 18  1  0  0  0  0 
  5 12  1  0  0  0  0 
  6  9  1  0  0  0  0 
  6  1  2  0  0  0  0 
  7  3  2  0  0  0  0 
  8  5  1  0  0  0  0 
  8 11  1  0  0  0  0 
  9 19  1  0  0  0  0 
 10  8  2  0  0  0  0 
 11 20  1  0  0  0  0 
 12  7  1  0  0  0  0 
 14  2  1  0  0  0  0 
 16  4  1  0  0  0  0 
 17  5  1  0  0  0  0 
M  END 
>  <HBA> 
4 
 
>  <HBD> 
2 
 
>  <TPSA> 
66.76 
 
>  <cid> 
15881 
 
>  <dipole> 
5.06 
 
>  <excitation_energy_1> 
4.683 
 
>  <excitation_energy_2> 
5.064 
 
>  <excitation_energy_3> 
5.388 
 
>  <excitation_energy_4> 
5.395 
 
>  <homo_energy> 
-5.954 
 
>  <homo_lumo_gap> 
5.423 
 
>  <logP> 
0.856 
 
>  <lumo_energy> 
-0.531 
 
>  <melting_point> 
125.89 
 
>  <molecular_refractivity> 
41.54 
 
>  <oscillator_strength_1> 
0.0561 
 
>  <oscillator_strength_2> 
0.0 
 
>  <oscillator_strength_3> 
0.0218 
 
>  <oscillator_strength_4> 
0.004 
 
>  <open_babel_can_smiles> 
OC(=O)COc1ccc(cc1)O 
 
>  <mulliken_charges> 
20 
1   -0.195454 
2   -0.169244 
3   -0.180349 
4   -0.194007 
5   -0.130773 
6   0.353145 
7   0.382725 
8   0.576648 
9   -0.644032 
10   -0.444515 
11   -0.565038 
12   -0.570172 
13   0.128266 
14   0.14967 
15   0.140382 
16   0.145896 
17   0.187033 
18   0.18709 
19   0.40877 
20   0.433961 
 
>  <lowdin_charges> 
20 
1   -0.200026 
2   -0.173024 
3   -0.169569 
4   -0.194443 
5   -0.167893 
6   0.093732 
7   0.084875 
8   0.183498 
9   -0.381428 
10   -0.240921 
11   -0.342053 
12   -0.225023 
13   0.159453 
14   0.172278 
15   0.16735 
16   0.169114 
17   0.169649 
18   0.169181 
19   0.360165 
20   0.365086 
 
$$$$ 
 
