PCCDB-ID:  69524 
public computational chemistry database (PCCDB) project, http://pccdb.org 
 
 24 23  0  0  0  0  0  0  0  0999 V2000 
    2.4801   -3.2556   -0.2951 C   0  0  0  0  0  0  0  0  0  0  0  0 
    6.9957   -2.9316   -4.4101 C   0  0  0  0  0  0  0  0  0  0  0  0 
    3.2798   -2.6839   -1.4535 C   0  0  0  0  0  0  0  0  0  0  0  0 
    6.1992   -1.7602   -3.8586 C   0  0  0  0  0  0  0  0  0  0  0  0 
    5.8522   -0.0563   -1.1361 C   0  0  0  0  0  0  0  0  0  0  0  0 
    5.0034   -1.0978   -1.8776 C   0  0  0  0  0  0  0  0  0  0  0  0 
    6.7415   -0.6104   -0.1188 N   0  0  0  0  0  0  0  0  0  0  0  0 
    4.2180   -1.7466   -0.9240 O   0  0  0  0  0  0  0  0  0  0  0  0 
    5.8328   -2.0654   -2.5183 O   0  0  0  0  0  0  0  0  0  0  0  0 
    1.7446   -3.9799   -0.6618 H   0  0  0  0  0  0  0  0  0  0  0  0 
    1.9494   -2.4617    0.2404 H   0  0  0  0  0  0  0  0  0  0  0  0 
    3.1433   -3.7632    0.4129 H   0  0  0  0  0  0  0  0  0  0  0  0 
    7.2885   -2.7394   -5.4482 H   0  0  0  0  0  0  0  0  0  0  0  0 
    6.3997   -3.8495   -4.3802 H   0  0  0  0  0  0  0  0  0  0  0  0 
    7.9024   -3.0931   -3.8182 H   0  0  0  0  0  0  0  0  0  0  0  0 
    2.6174   -2.1724   -2.1715 H   0  0  0  0  0  0  0  0  0  0  0  0 
    3.8118   -3.4756   -1.9944 H   0  0  0  0  0  0  0  0  0  0  0  0 
    5.2951   -1.5847   -4.4651 H   0  0  0  0  0  0  0  0  0  0  0  0 
    6.8011   -0.8386   -3.8999 H   0  0  0  0  0  0  0  0  0  0  0  0 
    5.1798    0.6707   -0.6658 H   0  0  0  0  0  0  0  0  0  0  0  0 
    6.4532    0.4917   -1.8729 H   0  0  0  0  0  0  0  0  0  0  0  0 
    4.3631   -0.6183   -2.6446 H   0  0  0  0  0  0  0  0  0  0  0  0 
    7.3038   -1.3377   -0.5619 H   0  0  0  0  0  0  0  0  0  0  0  0 
    6.1647   -1.1018    0.5640 H   0  0  0  0  0  0  0  0  0  0  0  0 
  1 11  1  0  0  0  0 
  1 12  1  0  0  0  0 
  2 14  1  0  0  0  0 
  2  4  1  0  0  0  0 
  2 15  1  0  0  0  0 
  3  8  1  0  0  0  0 
  3  1  1  0  0  0  0 
  4  9  1  0  0  0  0 
  5 20  1  0  0  0  0 
  5  7  1  0  0  0  0 
  6  5  1  0  0  0  0 
  6  8  1  0  0  0  0 
  7 24  1  0  0  0  0 
  9  6  1  0  0  0  0 
 10  1  1  0  0  0  0 
 13  2  1  0  0  0  0 
 16  3  1  0  0  0  0 
 17  3  1  0  0  0  0 
 18  4  1  0  0  0  0 
 19  4  1  0  0  0  0 
 21  5  1  0  0  0  0 
 22  6  1  0  0  0  0 
 23  7  1  0  0  0  0 
M  END 
>  <HBA> 
3 
 
>  <HBD> 
1 
 
>  <TPSA> 
44.48 
 
>  <cid> 
69524 
 
>  <dipole> 
2.71 
 
>  <excitation_energy_1> 
5.813 
 
>  <excitation_energy_2> 
6.036 
 
>  <excitation_energy_3> 
6.315 
 
>  <excitation_energy_4> 
6.364 
 
>  <homo_energy> 
-6.109 
 
>  <homo_lumo_gap> 
8.264 
 
>  <logP> 
1.044 
 
>  <lumo_energy> 
2.155 
 
>  <melting_point> 
9.79 
 
>  <molecular_refractivity> 
35.83 
 
>  <oscillator_strength_1> 
0.0238 
 
>  <oscillator_strength_2> 
0.0121 
 
>  <oscillator_strength_3> 
0.0025 
 
>  <oscillator_strength_4> 
0.0007 
 
>  <open_babel_can_smiles> 
NCC(OCC)OCC 
 
>  <mulliken_charges> 
24 
1   -0.455702 
2   -0.452767 
3   -0.012161 
4   -0.018155 
5   -0.169599 
6   0.369597 
7   -0.704672 
8   -0.485369 
9   -0.4895 
10   0.144321 
11   0.15665 
12   0.159219 
13   0.145427 
14   0.158188 
15   0.159374 
16   0.116678 
17   0.146118 
18   0.124189 
19   0.127947 
20   0.147702 
21   0.138399 
22   0.089165 
23   0.299416 
24   0.305535 
 
>  <lowdin_charges> 
24 
1   -0.451691 
2   -0.446875 
3   -0.129878 
4   -0.126823 
5   -0.228433 
6   0.079508 
7   -0.549077 
8   -0.25633 
9   -0.282083 
10   0.155713 
11   0.156952 
12   0.158745 
13   0.154104 
14   0.156805 
15   0.157674 
16   0.127224 
17   0.141591 
18   0.127835 
19   0.128034 
20   0.152825 
21   0.146028 
22   0.11254 
23   0.255933 
24   0.259679 
 
$$$$ 
 
