PCCDB-ID:  34741 
public computational chemistry database (PCCDB) project, http://pccdb.org 
 
 17 17  0  0  1  0  0  0  0  0999 V2000 
    1.0103   -0.0683    0.0390 C   0  0  0  0  0  0  0  0  0  0  0  0 
    3.0482    1.2460   -0.8527 C   0  0  0  0  0  0  0  0  0  0  0  0 
    3.7134   -0.8717   -1.6549 C   0  0  0  0  0  0  0  0  0  0  0  0 
    2.5229    0.1244    0.0825 C   0  0  2  0  0  0  0  0  0  0  0  0 
    4.2106    0.5734   -1.6094 C   0  0  2  0  0  0  0  0  0  0  0  0 
    5.4452    0.6697   -0.9087 O   0  0  0  0  0  0  0  0  0  0  0  0 
    3.2019   -1.0856   -0.3376 O   0  0  0  0  0  0  0  0  0  0  0  0 
    0.4968    0.8313    0.3998 H   0  0  0  0  0  0  0  0  0  0  0  0 
    0.7109   -0.9130    0.6674 H   0  0  0  0  0  0  0  0  0  0  0  0 
    0.6716   -0.2655   -0.9850 H   0  0  0  0  0  0  0  0  0  0  0  0 
    3.3921    2.1315   -0.3119 H   0  0  0  0  0  0  0  0  0  0  0  0 
    2.2671    1.5585   -1.5565 H   0  0  0  0  0  0  0  0  0  0  0  0 
    4.5137   -1.5958   -1.8300 H   0  0  0  0  0  0  0  0  0  0  0  0 
    2.9323   -1.0071   -2.4207 H   0  0  0  0  0  0  0  0  0  0  0  0 
    2.8346    0.2974    1.1199 H   0  0  0  0  0  0  0  0  0  0  0  0 
    4.3859    1.0084   -2.5972 H   0  0  0  0  0  0  0  0  0  0  0  0 
    5.3526    0.1141   -0.1163 H   0  0  0  0  0  0  0  0  0  0  0  0 
  1  4  1  0  0  0  0 
  1  8  1  0  0  0  0 
  1  9  1  0  0  0  0 
  2 11  1  0  0  0  0 
  2  4  1  0  0  0  0 
  3  5  1  0  0  0  0 
  3  7  1  0  0  0  0 
  4 15  1  1  0  0  0 
  5 16  1  6  0  0  0 
  5  6  1  0  0  0  0 
  5  2  1  0  0  0  0 
  6 17  1  0  0  0  0 
  7  4  1  0  0  0  0 
 10  1  1  0  0  0  0 
 12  2  1  0  0  0  0 
 13  3  1  0  0  0  0 
 14  3  1  0  0  0  0 
M  END 
>  <HBA> 
2 
 
>  <HBD> 
1 
 
>  <TPSA> 
29.46 
 
>  <cid> 
34741 
 
>  <dipole> 
1.55 
 
>  <excitation_energy_1> 
6.216 
 
>  <excitation_energy_2> 
6.588 
 
>  <excitation_energy_3> 
6.866 
 
>  <excitation_energy_4> 
7.002 
 
>  <homo_energy> 
-6.724 
 
>  <homo_lumo_gap> 
8.757 
 
>  <logP> 
0.156 
 
>  <lumo_energy> 
2.033 
 
>  <melting_point> 
6.35 
 
>  <molecular_refractivity> 
26.28 
 
>  <oscillator_strength_1> 
0.022 
 
>  <oscillator_strength_2> 
0.0015 
 
>  <oscillator_strength_3> 
0.0077 
 
>  <oscillator_strength_4> 
0.0161 
 
>  <open_babel_can_smiles> 
O[C@H]1CO[C@@H](C1)C 
 
>  <mulliken_charges> 
17 
1   -0.454005 
2   -0.329891 
3   -0.057764 
4   0.153859 
5   0.119096 
6   -0.627736 
7   -0.500315 
8   0.14288 
9   0.15857 
10   0.145766 
11   0.160052 
12   0.141793 
13   0.156218 
14   0.124779 
15   0.132038 
16   0.139244 
17   0.395417 
 
>  <lowdin_charges> 
17 
1   -0.453928 
2   -0.31686 
3   -0.154347 
4   0.000707 
5   -0.014944 
6   -0.461266 
7   -0.294015 
8   0.153451 
9   0.159259 
10   0.149681 
11   0.162614 
12   0.152061 
13   0.155652 
14   0.13213 
15   0.137506 
16   0.148161 
17   0.344138 
 
$$$$ 
 
