PCCDB-ID:  61662 
public computational chemistry database (PCCDB) project, http://pccdb.org 
 
 15 15  0  0  0  0  0  0  0  0999 V2000 
    4.0814    0.7977   -0.0727 C   0  0  0  0  0  0  0  0  0  0  0  0 
    1.3860   -4.7778   -1.4822 C   0  0  0  0  0  0  0  0  0  0  0  0 
    2.6077   -4.2121   -1.0158 C   0  0  0  0  0  0  0  0  0  0  0  0 
    0.5358   -3.7269   -1.6838 C   0  0  0  0  0  0  0  0  0  0  0  0 
    2.4116   -2.8559   -0.9677 C   0  0  0  0  0  0  0  0  0  0  0  0 
    3.3133   -1.7774   -0.5652 C   0  0  0  0  0  0  0  0  0  0  0  0 
    4.4547   -1.9923   -0.1963 O   0  0  0  0  0  0  0  0  0  0  0  0 
    1.1399   -2.5532   -1.3768 O   0  0  0  0  0  0  0  0  0  0  0  0 
    2.6123   -0.1172   -0.6548 S   0  0  0  0  0  0  0  0  0  0  0  0 
    3.8026    1.8537   -0.0585 H   0  0  0  0  0  0  0  0  0  0  0  0 
    4.9213    0.6401   -0.7514 H   0  0  0  0  0  0  0  0  0  0  0  0 
    4.3605    0.4690    0.9297 H   0  0  0  0  0  0  0  0  0  0  0  0 
    1.1651   -5.8229   -1.6470 H   0  0  0  0  0  0  0  0  0  0  0  0 
    3.5216   -4.7212   -0.7466 H   0  0  0  0  0  0  0  0  0  0  0  0 
   -0.4850   -3.6525   -2.0272 H   0  0  0  0  0  0  0  0  0  0  0  0 
  1 10  1  0  0  0  0 
  1 12  1  0  0  0  0 
  2  3  1  0  0  0  0 
  3  5  2  0  0  0  0 
  3 14  1  0  0  0  0 
  4  2  2  0  0  0  0 
  4  8  1  0  0  0  0 
  5  6  1  0  0  0  0 
  6  7  2  0  0  0  0 
  8  5  1  0  0  0  0 
  9  6  1  0  0  0  0 
  9  1  1  0  0  0  0 
 11  1  1  0  0  0  0 
 13  2  1  0  0  0  0 
 15  4  1  0  0  0  0 
M  END 
>  <HBA> 
3 
 
>  <HBD> 
0 
 
>  <TPSA> 
55.51 
 
>  <cid> 
61662 
 
>  <dipole> 
1.85 
 
>  <excitation_energy_1> 
4.14 
 
>  <excitation_energy_2> 
4.397 
 
>  <excitation_energy_3> 
5.026 
 
>  <excitation_energy_4> 
5.719 
 
>  <homo_energy> 
-6.528 
 
>  <homo_lumo_gap> 
5.031 
 
>  <logP> 
1.783 
 
>  <lumo_energy> 
-1.497 
 
>  <melting_point> 
46.41 
 
>  <molecular_refractivity> 
36.49 
 
>  <oscillator_strength_1> 
0.0001 
 
>  <oscillator_strength_2> 
0.211 
 
>  <oscillator_strength_3> 
0.2328 
 
>  <oscillator_strength_4> 
0.0002 
 
>  <open_babel_can_smiles> 
CSC(=O)c1ccco1 
 
>  <mulliken_charges> 
15 
1   -0.581013 
2   -0.187526 
3   -0.160605 
4   0.105904 
5   0.298555 
6   0.199886 
7   -0.453815 
8   -0.428607 
9   0.128125 
10   0.179171 
11   0.200523 
12   0.20105 
13   0.155575 
14   0.172069 
15   0.170708 
 
>  <lowdin_charges> 
15 
1   -0.536341 
2   -0.198016 
3   -0.157286 
4   -0.052232 
5   0.02886 
6   0.02701 
7   -0.253089 
8   -0.076852 
9   0.148758 
10   0.174366 
11   0.178284 
12   0.177521 
13   0.174915 
14   0.186803 
15   0.177298 
 
$$$$ 
 
