PCCDB-ID:  25814 
public computational chemistry database (PCCDB) project, http://pccdb.org 
 
 31 33  0  0  0  0  0  0  0  0999 V2000 
    1.4183   -0.6150   -0.9227 C   0  0  0  0  0  0  0  0  0  0  0  0 
    2.6333    1.4598   -0.2777 C   0  0  0  0  0  0  0  0  0  0  0  0 
    5.3386   -5.1476    5.7038 C   0  0  0  0  0  0  0  0  0  0  0  0 
    5.9457   -3.9095    5.9378 C   0  0  0  0  0  0  0  0  0  0  0  0 
    4.4425   -5.3071    4.6392 C   0  0  0  0  0  0  0  0  0  0  0  0 
    5.6706   -2.8128    5.1172 C   0  0  0  0  0  0  0  0  0  0  0  0 
    3.9725    0.0005    1.7648 C   0  0  0  0  0  0  0  0  0  0  0  0 
    4.5791   -0.6708    2.8227 C   0  0  0  0  0  0  0  0  0  0  0  0 
    3.2461   -4.1276    2.6160 C   0  0  0  0  0  0  0  0  0  0  0  0 
    2.7922   -2.0242    1.1268 C   0  0  0  0  0  0  0  0  0  0  0  0 
    4.1647   -4.2201    3.8201 C   0  0  0  0  0  0  0  0  0  0  0  0 
    3.4023   -2.6813    2.1836 C   0  0  0  0  0  0  0  0  0  0  0  0 
    3.0767   -0.6573    0.8852 C   0  0  0  0  0  0  0  0  0  0  0  0 
    4.7766   -2.9692    4.0550 C   0  0  0  0  0  0  0  0  0  0  0  0 
    4.3020   -2.0205    3.0426 C   0  0  0  0  0  0  0  0  0  0  0  0 
    2.5028    0.0156   -0.1906 N   0  0  0  0  0  0  0  0  0  0  0  0 
    1.0972    0.0489   -1.7280 H   0  0  0  0  0  0  0  0  0  0  0  0 
    0.5438   -0.8373   -0.2893 H   0  0  0  0  0  0  0  0  0  0  0  0 
    1.7486   -1.5539   -1.3830 H   0  0  0  0  0  0  0  0  0  0  0  0 
    2.1314    1.8093   -1.1824 H   0  0  0  0  0  0  0  0  0  0  0  0 
    3.6867    1.7554   -0.3510 H   0  0  0  0  0  0  0  0  0  0  0  0 
    2.1931    1.9847    0.5859 H   0  0  0  0  0  0  0  0  0  0  0  0 
    5.5636   -5.9908    6.3513 H   0  0  0  0  0  0  0  0  0  0  0  0 
    6.6398   -3.7992    6.7671 H   0  0  0  0  0  0  0  0  0  0  0  0 
    3.9723   -6.2719    4.4609 H   0  0  0  0  0  0  0  0  0  0  0  0 
    6.1474   -1.8541    5.3064 H   0  0  0  0  0  0  0  0  0  0  0  0 
    4.1989    1.0501    1.6225 H   0  0  0  0  0  0  0  0  0  0  0  0 
    5.2614   -0.1282    3.4727 H   0  0  0  0  0  0  0  0  0  0  0  0 
    2.2051   -4.3688    2.8733 H   0  0  0  0  0  0  0  0  0  0  0  0 
    3.5374   -4.8282    1.8208 H   0  0  0  0  0  0  0  0  0  0  0  0 
    2.1020   -2.5648    0.4892 H   0  0  0  0  0  0  0  0  0  0  0  0 
  1 18  1  0  0  0  0 
  1 16  1  0  0  0  0 
  2 16  1  0  0  0  0 
  2 22  1  0  0  0  0 
  3  4  1  0  0  0  0 
  3 23  1  0  0  0  0 
  4 24  1  0  0  0  0 
  5  3  2  0  0  0  0 
  6 26  1  0  0  0  0 
  6  4  2  0  0  0  0 
  7  8  2  0  0  0  0 
  8 15  1  0  0  0  0 
  8 28  1  0  0  0  0 
  9 29  1  0  0  0  0 
  9 11  1  0  0  0  0 
 10 12  1  0  0  0  0 
 11 14  2  0  0  0  0 
 11  5  1  0  0  0  0 
 12  9  1  0  0  0  0 
 12 15  2  0  0  0  0 
 13 10  2  0  0  0  0 
 13  7  1  0  0  0  0 
 14  6  1  0  0  0  0 
 15 14  1  0  0  0  0 
 16 13  1  0  0  0  0 
 17  1  1  0  0  0  0 
 19  1  1  0  0  0  0 
 20  2  1  0  0  0  0 
 21  2  1  0  0  0  0 
 25  5  1  0  0  0  0 
 27  7  1  0  0  0  0 
 30  9  1  0  0  0  0 
 31 10  1  0  0  0  0 
M  END 
>  <HBA> 
1 
 
>  <HBD> 
0 
 
>  <TPSA> 
3.24 
 
>  <cid> 
25814 
 
>  <dipole> 
2.68 
 
>  <excitation_energy_1> 
3.888 
 
>  <excitation_energy_2> 
4.079 
 
>  <excitation_energy_3> 
4.322 
 
>  <excitation_energy_4> 
4.539 
 
>  <homo_energy> 
-4.77 
 
>  <homo_lumo_gap> 
4.457 
 
>  <logP> 
3.324 
 
>  <lumo_energy> 
-0.313 
 
>  <melting_point> 
83.86 
 
>  <molecular_refractivity> 
69.1 
 
>  <oscillator_strength_1> 
0.1175 
 
>  <oscillator_strength_2> 
0.5131 
 
>  <oscillator_strength_3> 
0.0308 
 
>  <oscillator_strength_4> 
0.0235 
 
>  <open_babel_can_smiles> 
CN(c1ccc2c(c1)Cc1c2cccc1)C 
 
>  <mulliken_charges> 
31 
1   -0.306874 
2   -0.310322 
3   -0.132516 
4   -0.137717 
5   -0.205984 
6   -0.196028 
7   -0.204129 
8   -0.204765 
9   -0.421088 
10   -0.282808 
11   0.106887 
12   0.104874 
13   0.378703 
14   0.088404 
15   0.084507 
16   -0.478377 
17   0.15338 
18   0.149777 
19   0.162667 
20   0.153043 
21   0.163519 
22   0.150491 
23   0.121264 
24   0.122418 
25   0.119314 
26   0.123031 
27   0.120526 
28   0.124697 
29   0.167817 
30   0.168041 
31   0.117249 
 
>  <lowdin_charges> 
31 
1   -0.351522 
2   -0.349874 
3   -0.16758 
4   -0.157423 
5   -0.165852 
6   -0.169549 
7   -0.207643 
8   -0.152893 
9   -0.275749 
10   -0.217996 
11   -0.008083 
12   0.006162 
13   0.060006 
14   -0.007307 
15   -0.040112 
16   -0.119148 
17   0.157426 
18   0.141152 
19   0.152673 
20   0.156821 
21   0.151837 
22   0.141789 
23   0.155335 
24   0.154866 
25   0.153381 
26   0.154354 
27   0.156945 
28   0.156838 
29   0.165243 
30   0.167179 
31   0.158725 
 
$$$$ 
 
