PCCDB-ID:  21869 
public computational chemistry database (PCCDB) project, http://pccdb.org 
 
 30 30  0  0  1  0  0  0  0  0999 V2000 
    1.6723   -1.9024    1.3811 C   0  0  0  0  0  0  0  0  0  0  0  0 
    3.4225   -3.6740    0.9693 C   0  0  0  0  0  0  0  0  0  0  0  0 
    5.8922   -0.9393    0.1476 C   0  0  0  0  0  0  0  0  0  0  0  0 
    3.4255   -1.4789   -0.3718 C   0  0  0  0  0  0  0  0  0  0  0  0 
    4.7189   -0.8795   -4.4045 C   0  0  0  0  0  0  0  0  0  0  0  0 
    5.1886   -2.7979   -2.7250 C   0  0  0  0  0  0  0  0  0  0  0  0 
    3.1328   -2.1648    0.9781 C   0  0  0  0  0  0  0  0  0  0  0  0 
    5.4358   -1.3501   -3.1467 C   0  0  2  0  0  0  0  0  0  0  0  0 
    4.8815   -1.4568   -0.8703 C   0  0  2  0  0  0  0  0  0  0  0  0 
    4.9001    0.5092   -4.6147 O   0  0  0  0  0  0  0  0  0  0  0  0 
    5.3266   -2.7438   -1.3108 O   0  0  0  0  0  0  0  0  0  0  0  0 
    4.8994   -0.6141   -2.0409 O   0  0  0  0  0  0  0  0  0  0  0  0 
    1.4456   -2.3556    2.3533 H   0  0  0  0  0  0  0  0  0  0  0  0 
    0.9792   -2.3316    0.6458 H   0  0  0  0  0  0  0  0  0  0  0  0 
    1.4592   -0.8290    1.4523 H   0  0  0  0  0  0  0  0  0  0  0  0 
    3.2046   -4.1129    1.9506 H   0  0  0  0  0  0  0  0  0  0  0  0 
    4.4622   -3.8937    0.7149 H   0  0  0  0  0  0  0  0  0  0  0  0 
    2.7910   -4.1841    0.2300 H   0  0  0  0  0  0  0  0  0  0  0  0 
    5.9882   -1.6334    0.9873 H   0  0  0  0  0  0  0  0  0  0  0  0 
    5.5833    0.0379    0.5320 H   0  0  0  0  0  0  0  0  0  0  0  0 
    6.8692   -0.8376   -0.3329 H   0  0  0  0  0  0  0  0  0  0  0  0 
    3.1053   -0.4303   -0.3148 H   0  0  0  0  0  0  0  0  0  0  0  0 
    2.8151   -1.9436   -1.1585 H   0  0  0  0  0  0  0  0  0  0  0  0 
    3.6507   -1.1404   -4.3233 H   0  0  0  0  0  0  0  0  0  0  0  0 
    5.1280   -1.3867   -5.2854 H   0  0  0  0  0  0  0  0  0  0  0  0 
    5.9263   -3.5052   -3.1126 H   0  0  0  0  0  0  0  0  0  0  0  0 
    4.1811   -3.1322   -3.0182 H   0  0  0  0  0  0  0  0  0  0  0  0 
    3.7701   -1.6995    1.7440 H   0  0  0  0  0  0  0  0  0  0  0  0 
    6.5129   -1.1462   -3.2390 H   0  0  0  0  0  0  0  0  0  0  0  0 
    4.6346    0.9384   -3.7844 H   0  0  0  0  0  0  0  0  0  0  0  0 
  1 15  1  0  0  0  0 
  1 13  1  0  0  0  0 
  2  7  1  0  0  0  0 
  2 16  1  0  0  0  0 
  3 20  1  0  0  0  0 
  3 19  1  0  0  0  0 
  4 22  1  0  0  0  0 
  4  7  1  0  0  0  0 
  5 24  1  0  0  0  0 
  5  8  1  0  0  0  0 
  6 11  1  0  0  0  0 
  7  1  1  0  0  0  0 
  7 28  1  0  0  0  0 
  8 29  1  6  0  0  0 
  8  6  1  0  0  0  0 
  8 12  1  0  0  0  0 
  9  4  1  1  0  0  0 
  9  3  1  0  0  0  0 
 10  5  1  0  0  0  0 
 10 30  1  0  0  0  0 
 11  9  1  0  0  0  0 
 12  9  1  0  0  0  0 
 14  1  1  0  0  0  0 
 17  2  1  0  0  0  0 
 18  2  1  0  0  0  0 
 21  3  1  0  0  0  0 
 23  4  1  0  0  0  0 
 25  5  1  0  0  0  0 
 26  6  1  0  0  0  0 
 27  6  1  0  0  0  0 
M  END 
>  <HBA> 
3 
 
>  <HBD> 
1 
 
>  <TPSA> 
38.69 
 
>  <cid> 
21869 
 
>  <dipole> 
1.34 
 
>  <excitation_energy_1> 
6.422 
 
>  <excitation_energy_2> 
6.6 
 
>  <excitation_energy_3> 
6.766 
 
>  <excitation_energy_4> 
6.789 
 
>  <homo_energy> 
-6.8 
 
>  <homo_lumo_gap> 
8.863 
 
>  <logP> 
1.156 
 
>  <lumo_energy> 
2.063 
 
>  <melting_point> 
5.76 
 
>  <molecular_refractivity> 
46.63 
 
>  <oscillator_strength_1> 
0.0061 
 
>  <oscillator_strength_2> 
0.0017 
 
>  <oscillator_strength_3> 
0.0316 
 
>  <oscillator_strength_4> 
0.003 
 
>  <open_babel_can_smiles> 
OC[C@@H]1CO[C@](O1)(C)CC(C)C 
 
>  <mulliken_charges> 
30 
1   -0.441998 
2   -0.443867 
3   -0.45952 
4   -0.263044 
5   -0.032677 
6   -0.051406 
7   -0.081644 
8   0.108049 
9   0.536471 
10   -0.619345 
11   -0.505741 
12   -0.553707 
13   0.141592 
14   0.139486 
15   0.138967 
16   0.133608 
17   0.166655 
18   0.133966 
19   0.159515 
20   0.150224 
21   0.155551 
22   0.138292 
23   0.128521 
24   0.122321 
25   0.143927 
26   0.155249 
27   0.132751 
28   0.125512 
29   0.13818 
30   0.40411 
 
>  <lowdin_charges> 
30 
1   -0.442505 
2   -0.450137 
3   -0.453541 
4   -0.291672 
5   -0.140459 
6   -0.144418 
7   -0.123589 
8   -0.025256 
9   0.223756 
10   -0.463151 
11   -0.264402 
12   -0.284923 
13   0.148661 
14   0.146721 
15   0.144963 
16   0.144553 
17   0.157806 
18   0.145584 
19   0.162108 
20   0.157706 
21   0.161061 
22   0.150727 
23   0.146829 
24   0.127914 
25   0.150709 
26   0.15868 
27   0.133174 
28   0.138338 
29   0.13686 
30   0.347898 
 
$$$$ 
 
