PCCDB-ID:  20928 
public computational chemistry database (PCCDB) project, http://pccdb.org 
 
 19 18  0  0  1  0  0  0  0  0999 V2000 
    1.0572   -0.4498   -0.3094 C   0  0  0  0  0  0  0  0  0  0  0  0 
    4.6014    2.0423    2.9500 C   0  0  0  0  0  0  0  0  0  0  0  0 
    2.5861   -0.3592   -0.3027 C   0  0  0  0  0  0  0  0  0  0  0  0 
    5.2591    1.3367    2.0286 C   0  0  0  0  0  0  0  0  0  0  0  0 
    3.1321    0.4576    0.8748 C   0  0  0  0  0  0  0  0  0  0  0  0 
    4.6642    0.5016    0.9176 C   0  0  2  0  0  0  0  0  0  0  0  0 
    5.2322   -0.8187    0.9715 O   0  0  0  0  0  0  0  0  0  0  0  0 
    0.6976   -1.0377   -1.1615 H   0  0  0  0  0  0  0  0  0  0  0  0 
    0.5968    0.5442   -0.3734 H   0  0  0  0  0  0  0  0  0  0  0  0 
    0.6833   -0.9276    0.6048 H   0  0  0  0  0  0  0  0  0  0  0  0 
    5.1320    2.5927    3.7225 H   0  0  0  0  0  0  0  0  0  0  0  0 
    3.5171    2.1103    2.9714 H   0  0  0  0  0  0  0  0  0  0  0  0 
    2.9307    0.0922   -1.2440 H   0  0  0  0  0  0  0  0  0  0  0  0 
    3.0230   -1.3637   -0.2684 H   0  0  0  0  0  0  0  0  0  0  0  0 
    6.3487    1.3038    2.0568 H   0  0  0  0  0  0  0  0  0  0  0  0 
    2.7604    0.0356    1.8212 H   0  0  0  0  0  0  0  0  0  0  0  0 
    2.7468    1.4853    0.8218 H   0  0  0  0  0  0  0  0  0  0  0  0 
    5.0273    0.8961   -0.0419 H   0  0  0  0  0  0  0  0  0  0  0  0 
    5.0222   -1.1742    1.8510 H   0  0  0  0  0  0  0  0  0  0  0  0 
  1  3  1  0  0  0  0 
  1 10  1  0  0  0  0 
  2 12  1  0  0  0  0 
  2 11  1  0  0  0  0 
  3 14  1  0  0  0  0 
  3  5  1  0  0  0  0 
  4 15  1  0  0  0  0 
  4  2  2  0  0  0  0 
  5  6  1  0  0  0  0 
  5 16  1  0  0  0  0 
  6 18  1  6  0  0  0 
  6  7  1  0  0  0  0 
  6  4  1  0  0  0  0 
  7 19  1  0  0  0  0 
  8  1  1  0  0  0  0 
  9  1  1  0  0  0  0 
 13  3  1  0  0  0  0 
 17  5  1  0  0  0  0 
M  END 
>  <HBA> 
1 
 
>  <HBD> 
1 
 
>  <TPSA> 
20.23 
 
>  <cid> 
20928 
 
>  <dipole> 
1.41 
 
>  <excitation_energy_1> 
6.156 
 
>  <excitation_energy_2> 
6.686 
 
>  <excitation_energy_3> 
7.031 
 
>  <excitation_energy_4> 
7.08 
 
>  <homo_energy> 
-6.963 
 
>  <homo_lumo_gap> 
7.219 
 
>  <logP> 
1.333 
 
>  <lumo_energy> 
0.256 
 
>  <melting_point> 
-28.54 
 
>  <molecular_refractivity> 
31.64 
 
>  <oscillator_strength_1> 
0.0544 
 
>  <oscillator_strength_2> 
0.0432 
 
>  <oscillator_strength_3> 
0.0148 
 
>  <oscillator_strength_4> 
0.1789 
 
>  <open_babel_can_smiles> 
CCC[C@@H](C=C)O 
 
>  <mulliken_charges> 
19 
1   -0.443239 
2   -0.339364 
3   -0.247615 
4   -0.089339 
5   -0.273429 
6   0.100369 
7   -0.620572 
8   0.14393 
9   0.139387 
10   0.139319 
11   0.143441 
12   0.144276 
13   0.130294 
14   0.151241 
15   0.136979 
16   0.122294 
17   0.134999 
18   0.143273 
19   0.383759 
 
>  <lowdin_charges> 
19 
1   -0.44534 
2   -0.33711 
3   -0.272665 
4   -0.167027 
5   -0.290237 
6   -7.5e-05 
7   -0.46232 
8   0.151154 
9   0.144439 
10   0.145539 
11   0.162475 
12   0.156605 
13   0.140119 
14   0.149312 
15   0.154998 
16   0.136913 
17   0.145388 
18   0.149322 
19   0.338511 
 
$$$$ 
 
