PCCDB-ID:  12637 
public computational chemistry database (PCCDB) project, http://pccdb.org 
 
 23 23  0  0  1  0  0  0  0  0999 V2000 
    0.9513    0.0968    0.0315 C   0  0  0  0  0  0  0  0  0  0  0  0 
    2.4708   -1.3606    2.1196 C   0  0  0  0  0  0  0  0  0  0  0  0 
    4.5852    1.3980    0.6595 C   0  0  0  0  0  0  0  0  0  0  0  0 
    5.1357    0.1329    1.3360 C   0  0  0  0  0  0  0  0  0  0  0  0 
    3.0476    1.4070    0.6791 C   0  0  0  0  0  0  0  0  0  0  0  0 
    4.4708   -1.1230    0.7405 C   0  0  0  0  0  0  0  0  0  0  0  0 
    2.4801    0.0908    0.1007 C   0  0  1  0  0  0  0  0  0  0  0  0 
    3.0048   -1.1091    0.7855 N   0  0  0  0  0  0  0  0  0  0  0  0 
    0.6125    0.8751   -0.6613 H   0  0  0  0  0  0  0  0  0  0  0  0 
    0.4934    0.3053    1.0053 H   0  0  0  0  0  0  0  0  0  0  0  0 
    0.5776   -0.8687   -0.3263 H   0  0  0  0  0  0  0  0  0  0  0  0 
    2.9194   -2.2830    2.5056 H   0  0  0  0  0  0  0  0  0  0  0  0 
    1.3901   -1.5218    2.0667 H   0  0  0  0  0  0  0  0  0  0  0  0 
    2.6554   -0.5657    2.8653 H   0  0  0  0  0  0  0  0  0  0  0  0 
    4.9279    1.4225   -0.3861 H   0  0  0  0  0  0  0  0  0  0  0  0 
    4.9836    2.3009    1.1393 H   0  0  0  0  0  0  0  0  0  0  0  0 
    4.9434    0.1770    2.4168 H   0  0  0  0  0  0  0  0  0  0  0  0 
    6.2252    0.0707    1.2143 H   0  0  0  0  0  0  0  0  0  0  0  0 
    2.6637    2.2594    0.1027 H   0  0  0  0  0  0  0  0  0  0  0  0 
    2.6867    1.5399    1.7091 H   0  0  0  0  0  0  0  0  0  0  0  0 
    4.8238   -2.0280    1.2500 H   0  0  0  0  0  0  0  0  0  0  0  0 
    4.7681   -1.2147   -0.3151 H   0  0  0  0  0  0  0  0  0  0  0  0 
    2.8522    0.0081   -0.9330 H   0  0  0  0  0  0  0  0  0  0  0  0 
  1  7  1  0  0  0  0 
  1 10  1  0  0  0  0 
  2 12  1  0  0  0  0 
  2 14  1  0  0  0  0 
  3  5  1  0  0  0  0 
  3 16  1  0  0  0  0 
  3  4  1  0  0  0  0 
  4 17  1  0  0  0  0 
  5 20  1  0  0  0  0 
  6  8  1  0  0  0  0 
  6 21  1  0  0  0  0 
  6  4  1  0  0  0  0 
  7 23  1  6  0  0  0 
  7  5  1  0  0  0  0 
  7  8  1  0  0  0  0 
  8  2  1  0  0  0  0 
  9  1  1  0  0  0  0 
 11  1  1  0  0  0  0 
 13  2  1  0  0  0  0 
 15  3  1  0  0  0  0 
 18  4  1  0  0  0  0 
 19  5  1  0  0  0  0 
 22  6  1  0  0  0  0 
M  END 
>  <HBA> 
1 
 
>  <HBD> 
0 
 
>  <TPSA> 
3.24 
 
>  <cid> 
12637 
 
>  <dipole> 
0.7 
 
>  <excitation_energy_1> 
4.844 
 
>  <excitation_energy_2> 
5.192 
 
>  <excitation_energy_3> 
5.283 
 
>  <excitation_energy_4> 
5.385 
 
>  <homo_energy> 
-5.279 
 
>  <homo_lumo_gap> 
7.497 
 
>  <logP> 
1.429 
 
>  <lumo_energy> 
2.218 
 
>  <melting_point> 
-2.01 
 
>  <molecular_refractivity> 
40.46 
 
>  <oscillator_strength_1> 
0.0108 
 
>  <oscillator_strength_2> 
0.0054 
 
>  <oscillator_strength_3> 
0.0044 
 
>  <oscillator_strength_4> 
0.0069 
 
>  <open_babel_can_smiles> 
C[C@H]1CCCCN1C 
 
>  <mulliken_charges> 
23 
1   -0.462316 
2   -0.306826 
3   -0.26256 
4   -0.264416 
5   -0.259457 
6   -0.137709 
7   0.050636 
8   -0.372648 
9   0.142273 
10   0.14295 
11   0.154464 
12   0.144822 
13   0.152288 
14   0.120183 
15   0.126501 
16   0.130644 
17   0.132969 
18   0.128271 
19   0.126438 
20   0.128999 
21   0.131591 
22   0.131317 
23   0.121586 
 
>  <lowdin_charges> 
23 
1   -0.450387 
2   -0.360798 
3   -0.277625 
4   -0.291095 
5   -0.294446 
6   -0.204028 
7   -0.059316 
8   -0.191642 
9   0.153437 
10   0.147161 
11   0.15604 
12   0.149694 
13   0.149399 
14   0.119671 
15   0.135267 
16   0.143381 
17   0.137797 
18   0.142265 
19   0.144091 
20   0.137913 
21   0.142881 
22   0.136353 
23   0.133986 
 
$$$$ 
 
