PCCDB-ID:  22687 
public computational chemistry database (PCCDB) project, http://pccdb.org 
 
 24 23  0  0  0  0  0  0  0  0999 V2000 
    1.4658    2.7942   -0.5561 C   0  0  0  0  0  0  0  0  0  0  0  0 
    5.5565   -0.5449   -2.5453 C   0  0  0  0  0  0  0  0  0  0  0  0 
    2.9520    2.7290   -0.1911 C   0  0  0  0  0  0  0  0  0  0  0  0 
    6.4718   -0.0009   -1.4451 C   0  0  0  0  0  0  0  0  0  0  0  0 
    3.8168    2.2615   -1.3701 C   0  0  0  0  0  0  0  0  0  0  0  0 
    5.7928    0.9516   -0.4464 C   0  0  0  0  0  0  0  0  0  0  0  0 
    6.0190    3.2832   -1.1838 C   0  0  0  0  0  0  0  0  0  0  0  0 
    5.2420    2.1715   -1.0399 N   0  0  0  0  0  0  0  0  0  0  0  0 
    5.6444    4.3568   -1.6308 O   0  0  0  0  0  0  0  0  0  0  0  0 
    0.8649    3.1370    0.2931 H   0  0  0  0  0  0  0  0  0  0  0  0 
    1.0835    1.8109   -0.8582 H   0  0  0  0  0  0  0  0  0  0  0  0 
    1.2929    3.4877   -1.3877 H   0  0  0  0  0  0  0  0  0  0  0  0 
    6.1015   -1.2365   -3.1969 H   0  0  0  0  0  0  0  0  0  0  0  0 
    5.1658    0.2617   -3.1746 H   0  0  0  0  0  0  0  0  0  0  0  0 
    4.7024   -1.0900   -2.1236 H   0  0  0  0  0  0  0  0  0  0  0  0 
    3.0966    2.0503    0.6610 H   0  0  0  0  0  0  0  0  0  0  0  0 
    3.3065    3.7166    0.1258 H   0  0  0  0  0  0  0  0  0  0  0  0 
    7.3231    0.5213   -1.9018 H   0  0  0  0  0  0  0  0  0  0  0  0 
    6.8941   -0.8360   -0.8689 H   0  0  0  0  0  0  0  0  0  0  0  0 
    3.7224    2.9682   -2.1993 H   0  0  0  0  0  0  0  0  0  0  0  0 
    3.4812    1.2802   -1.7223 H   0  0  0  0  0  0  0  0  0  0  0  0 
    6.5198    1.2360    0.3242 H   0  0  0  0  0  0  0  0  0  0  0  0 
    4.9767    0.4354    0.0731 H   0  0  0  0  0  0  0  0  0  0  0  0 
    7.0614    3.1124   -0.8459 H   0  0  0  0  0  0  0  0  0  0  0  0 
  1  3  1  0  0  0  0 
  1 10  1  0  0  0  0 
  2 15  1  0  0  0  0 
  2  4  1  0  0  0  0 
  3 17  1  0  0  0  0 
  3 16  1  0  0  0  0 
  4 19  1  0  0  0  0 
  4  6  1  0  0  0  0 
  5  8  1  0  0  0  0 
  5  3  1  0  0  0  0 
  6 23  1  0  0  0  0 
  6 22  1  0  0  0  0 
  7  8  1  0  0  0  0 
  7 24  1  0  0  0  0 
  8  6  1  0  0  0  0 
  9  7  2  0  0  0  0 
 11  1  1  0  0  0  0 
 12  1  1  0  0  0  0 
 13  2  1  0  0  0  0 
 14  2  1  0  0  0  0 
 18  4  1  0  0  0  0 
 20  5  1  0  0  0  0 
 21  5  1  0  0  0  0 
M  END 
>  <HBA> 
2 
 
>  <HBD> 
0 
 
>  <TPSA> 
20.31 
 
>  <cid> 
22687 
 
>  <dipole> 
3.85 
 
>  <excitation_energy_1> 
5.523 
 
>  <excitation_energy_2> 
5.863 
 
>  <excitation_energy_3> 
6.234 
 
>  <excitation_energy_4> 
6.363 
 
>  <homo_energy> 
-6.406 
 
>  <homo_lumo_gap> 
7.233 
 
>  <logP> 
1.901 
 
>  <lumo_energy> 
0.827 
 
>  <melting_point> 
-3.2 
 
>  <molecular_refractivity> 
39.25 
 
>  <oscillator_strength_1> 
0.0016 
 
>  <oscillator_strength_2> 
0.0348 
 
>  <oscillator_strength_3> 
0.0373 
 
>  <oscillator_strength_4> 
0.0143 
 
>  <open_babel_can_smiles> 
CCCN(C=O)CCC 
 
>  <mulliken_charges> 
24 
1   -0.448127 
2   -0.448079 
3   -0.255403 
4   -0.244157 
5   -0.14532 
6   -0.159725 
7   0.348905 
8   -0.360973 
9   -0.478401 
10   0.149339 
11   0.139919 
12   0.152576 
13   0.150866 
14   0.160568 
15   0.141104 
16   0.130103 
17   0.162884 
18   0.144137 
19   0.136648 
20   0.177563 
21   0.141616 
22   0.154473 
23   0.151526 
24   0.097956 
 
>  <lowdin_charges> 
24 
1   -0.445886 
2   -0.45186 
3   -0.281382 
4   -0.282523 
5   -0.201403 
6   -0.201093 
7   0.039807 
8   -0.103334 
9   -0.306303 
10   0.155042 
11   0.145145 
12   0.152641 
13   0.156375 
14   0.156096 
15   0.146532 
16   0.138573 
17   0.155807 
18   0.147312 
19   0.147139 
20   0.167663 
21   0.145497 
22   0.153195 
23   0.151991 
24   0.114968 
 
$$$$ 
 
