PCCDB-ID:  35205 
public computational chemistry database (PCCDB) project, http://pccdb.org 
 
 25 25  0  0  0  0  0  0  0  0999 V2000 
    1.3903   -0.3650   -0.7116 C   0  0  0  0  0  0  0  0  0  0  0  0 
    4.3286   -5.1551    1.1400 C   0  0  0  0  0  0  0  0  0  0  0  0 
    6.7792   -0.3111    3.1338 C   0  0  0  0  0  0  0  0  0  0  0  0 
    2.2682    0.0379    0.2133 C   0  0  0  0  0  0  0  0  0  0  0  0 
    3.1689   -4.4492    1.8662 C   0  0  0  0  0  0  0  0  0  0  0  0 
    5.4249   -0.5904    3.8116 C   0  0  0  0  0  0  0  0  0  0  0  0 
    2.9625   -0.8748    1.1349 C   0  0  0  0  0  0  0  0  0  0  0  0 
    3.3785   -2.9583    1.9236 C   0  0  0  0  0  0  0  0  0  0  0  0 
    4.4319   -1.1692    2.8379 C   0  0  0  0  0  0  0  0  0  0  0  0 
    2.7113   -2.1954    1.0542 N   0  0  0  0  0  0  0  0  0  0  0  0 
    3.8121   -0.3132    2.0094 N   0  0  0  0  0  0  0  0  0  0  0  0 
    4.2547   -2.4964    2.8352 N   0  0  0  0  0  0  0  0  0  0  0  0 
    0.9010    0.3448   -1.3717 H   0  0  0  0  0  0  0  0  0  0  0  0 
    1.1439   -1.4160   -0.8257 H   0  0  0  0  0  0  0  0  0  0  0  0 
    4.1669   -6.2381    1.1235 H   0  0  0  0  0  0  0  0  0  0  0  0 
    5.2786   -4.9568    1.6467 H   0  0  0  0  0  0  0  0  0  0  0  0 
    4.4115   -4.8075    0.1044 H   0  0  0  0  0  0  0  0  0  0  0  0 
    7.4836    0.1226    3.8515 H   0  0  0  0  0  0  0  0  0  0  0  0 
    6.6580    0.3920    2.3033 H   0  0  0  0  0  0  0  0  0  0  0  0 
    7.2183   -1.2351    2.7420 H   0  0  0  0  0  0  0  0  0  0  0  0 
    2.5226    1.0865    0.3402 H   0  0  0  0  0  0  0  0  0  0  0  0 
    3.0978   -4.8285    2.8916 H   0  0  0  0  0  0  0  0  0  0  0  0 
    2.2238   -4.6476    1.3525 H   0  0  0  0  0  0  0  0  0  0  0  0 
    5.0172    0.3448    4.2102 H   0  0  0  0  0  0  0  0  0  0  0  0 
    5.5555   -1.2977    4.6358 H   0  0  0  0  0  0  0  0  0  0  0  0 
  1  4  2  0  0  0  0 
  2 16  1  0  0  0  0 
  2  5  1  0  0  0  0 
  3  6  1  0  0  0  0 
  3 18  1  0  0  0  0 
  4 21  1  0  0  0  0 
  4  7  1  0  0  0  0 
  5  8  1  0  0  0  0 
  5 22  1  0  0  0  0 
  6 24  1  0  0  0  0 
  6 25  1  0  0  0  0 
  7 11  1  0  0  0  0 
  8 12  1  0  0  0  0 
  9  6  1  0  0  0  0 
 10  7  2  0  0  0  0 
 10  8  2  0  0  0  0 
 11  9  2  0  0  0  0 
 12  9  1  0  0  0  0 
 13  1  1  0  0  0  0 
 14  1  1  0  0  0  0 
 15  2  1  0  0  0  0 
 17  2  1  0  0  0  0 
 19  3  1  0  0  0  0 
 20  3  1  0  0  0  0 
 23  5  1  0  0  0  0 
M  RAD  1  12   2 
M  END 
>  <HBA> 
3 
 
>  <HBD> 
0 
 
>  <TPSA> 
38.67 
 
>  <cid> 
35205 
 
>  <dipole> 
0.39 
 
>  <excitation_energy_1> 
4.075 
 
>  <excitation_energy_2> 
4.193 
 
>  <excitation_energy_3> 
4.69 
 
>  <excitation_energy_4> 
4.731 
 
>  <homo_energy> 
-7.01 
 
>  <homo_lumo_gap> 
5.339 
 
>  <logP> 
1.639 
 
>  <lumo_energy> 
-1.671 
 
>  <melting_point> 
51.32 
 
>  <molecular_refractivity> 
49.46 
 
>  <oscillator_strength_1> 
0.0002 
 
>  <oscillator_strength_2> 
0.0032 
 
>  <oscillator_strength_3> 
0.0002 
 
>  <oscillator_strength_4> 
0.0065 
 
>  <open_babel_can_smiles> 
CCC1=NC(=[N]=C([N]1)CC)C=C 
 
>  <mulliken_charges> 
25 
1   -0.318233 
2   -0.451563 
3   -0.451508 
4   -0.097518 
5   -0.304833 
6   -0.30403 
7   0.441879 
8   0.426746 
9   0.426228 
10   -0.487459 
11   -0.482316 
12   -0.461654 
13   0.152733 
14   0.176932 
15   0.151784 
16   0.164767 
17   0.155768 
18   0.151991 
19   0.164218 
20   0.156124 
21   0.149872 
22   0.160642 
23   0.158999 
24   0.160262 
25   0.160168 
 
>  <lowdin_charges> 
25 
1   -0.279623 
2   -0.434403 
3   -0.43904 
4   -0.162214 
5   -0.276365 
6   -0.278999 
7   0.111474 
8   0.116449 
9   0.117008 
10   -0.184385 
11   -0.187598 
12   -0.191469 
13   0.168096 
14   0.175909 
15   0.152754 
16   0.157871 
17   0.152418 
18   0.155876 
19   0.158155 
20   0.154084 
21   0.167988 
22   0.161669 
23   0.160084 
24   0.162642 
25   0.161619 
 
$$$$ 
 
