PCCDB-ID:  15794 
public computational chemistry database (PCCDB) project, http://pccdb.org 
 
 31 33  0  0  0  0  0  0  0  0999 V2000 
    3.8557   -1.3600   -2.1594 C   0  0  0  0  0  0  0  0  0  0  0  0 
    0.1580    5.7406   -6.7427 C   0  0  0  0  0  0  0  0  0  0  0  0 
   -0.4344    4.5170   -7.0724 C   0  0  0  0  0  0  0  0  0  0  0  0 
    0.9804    5.8505   -5.6148 C   0  0  0  0  0  0  0  0  0  0  0  0 
   -0.2167    3.3850   -6.2837 C   0  0  0  0  0  0  0  0  0  0  0  0 
    2.0359    4.5798   -3.5684 C   0  0  0  0  0  0  0  0  0  0  0  0 
    2.3612    2.3904   -2.1502 C   0  0  0  0  0  0  0  0  0  0  0  0 
    0.6879    1.1448   -4.0298 C   0  0  0  0  0  0  0  0  0  0  0  0 
    3.2544   -0.6994   -0.9405 C   0  0  0  0  0  0  0  0  0  0  0  0 
    1.2013    4.7278   -4.8262 C   0  0  0  0  0  0  0  0  0  0  0  0 
    1.8498    3.1171   -3.2158 C   0  0  0  0  0  0  0  0  0  0  0  0 
    0.6041    3.4922   -5.1585 C   0  0  0  0  0  0  0  0  0  0  0  0 
    1.0073    2.4974   -4.1586 C   0  0  0  0  0  0  0  0  0  0  0  0 
    2.0734    1.0215   -2.0138 C   0  0  0  0  0  0  0  0  0  0  0  0 
    1.2161    0.4139   -2.9650 C   0  0  0  0  0  0  0  0  0  0  0  0 
    2.5292    0.3402   -0.8788 N   0  0  0  0  0  0  0  0  0  0  0  0 
    3.5473   -1.2967    0.2499 O   0  0  0  0  0  0  0  0  0  0  0  0 
    0.9289   -0.9192   -2.7863 O   0  0  0  0  0  0  0  0  0  0  0  0 
    3.7969   -0.6993   -3.0258 H   0  0  0  0  0  0  0  0  0  0  0  0 
    3.3110   -2.2804   -2.3974 H   0  0  0  0  0  0  0  0  0  0  0  0 
    4.9087   -1.6122   -1.9813 H   0  0  0  0  0  0  0  0  0  0  0  0 
   -0.0216    6.6124   -7.3661 H   0  0  0  0  0  0  0  0  0  0  0  0 
   -1.0713    4.4464   -7.9503 H   0  0  0  0  0  0  0  0  0  0  0  0 
    1.4377    6.8047   -5.3628 H   0  0  0  0  0  0  0  0  0  0  0  0 
   -0.6817    2.4378   -6.5465 H   0  0  0  0  0  0  0  0  0  0  0  0 
    1.6893    5.2462   -2.7661 H   0  0  0  0  0  0  0  0  0  0  0  0 
    3.0909    4.8323   -3.7457 H   0  0  0  0  0  0  0  0  0  0  0  0 
    2.9922    2.8512   -1.3951 H   0  0  0  0  0  0  0  0  0  0  0  0 
    0.0328    0.6520   -4.7473 H   0  0  0  0  0  0  0  0  0  0  0  0 
    4.1238   -2.0590    0.0891 H   0  0  0  0  0  0  0  0  0  0  0  0 
    0.2707   -1.1796   -3.4488 H   0  0  0  0  0  0  0  0  0  0  0  0 
  1 21  1  0  0  0  0 
  1  9  1  0  0  0  0 
  2  4  1  0  0  0  0 
  3  2  2  0  0  0  0 
  3  5  1  0  0  0  0 
  4 24  1  0  0  0  0 
  4 10  2  0  0  0  0 
  5 12  2  0  0  0  0 
  6 11  1  0  0  0  0 
  6 26  1  0  0  0  0 
  7 14  1  0  0  0  0 
  7 28  1  0  0  0  0 
  8 15  1  0  0  0  0 
  9 16  2  0  0  0  0 
  9 17  1  0  0  0  0 
 10  6  1  0  0  0  0 
 11  7  2  0  0  0  0 
 12 10  1  0  0  0  0 
 12 13  1  0  0  0  0 
 13  8  2  0  0  0  0 
 13 11  1  0  0  0  0 
 14 16  1  0  0  0  0 
 15 18  1  0  0  0  0 
 15 14  2  0  0  0  0 
 19  1  1  0  0  0  0 
 20  1  1  0  0  0  0 
 22  2  1  0  0  0  0 
 23  3  1  0  0  0  0 
 25  5  1  0  0  0  0 
 27  6  1  0  0  0  0 
 29  8  1  0  0  0  0 
 30 17  1  0  0  0  0 
 31 18  1  0  0  0  0 
M  END 
>  <HBA> 
3 
 
>  <HBD> 
2 
 
>  <TPSA> 
49.33 
 
>  <cid> 
15794 
 
>  <dipole> 
3.7 
 
>  <excitation_energy_1> 
3.901 
 
>  <excitation_energy_2> 
4.282 
 
>  <excitation_energy_3> 
4.398 
 
>  <excitation_energy_4> 
4.6 
 
>  <homo_energy> 
-5.102 
 
>  <homo_lumo_gap> 
4.408 
 
>  <logP> 
2.995 
 
>  <lumo_energy> 
-0.694 
 
>  <melting_point> 
170.77 
 
>  <molecular_refractivity> 
71.22 
 
>  <oscillator_strength_1> 
0.4985 
 
>  <oscillator_strength_2> 
0.0777 
 
>  <oscillator_strength_3> 
0.0026 
 
>  <oscillator_strength_4> 
0.0516 
 
>  <open_babel_can_smiles> 
C/C(=N\c1cc2Cc3c(c2cc1O)cccc3)/O 
 
>  <mulliken_charges> 
31 
1   -0.53992 
2   -0.131065 
3   -0.137681 
4   -0.20318 
5   -0.193088 
6   -0.419611 
7   -0.254506 
8   -0.2823 
9   0.497127 
10   0.105786 
11   0.107494 
12   0.083584 
13   0.086568 
14   0.21423 
15   0.332357 
16   -0.464904 
17   -0.571429 
18   -0.66041 
19   0.189835 
20   0.189903 
21   0.153833 
22   0.124681 
23   0.124807 
24   0.123256 
25   0.121555 
26   0.172013 
27   0.168332 
28   0.130288 
29   0.117006 
30   0.406887 
31   0.408553 
 
>  <lowdin_charges> 
31 
1   -0.4772 
2   -0.162892 
3   -0.156997 
4   -0.164627 
5   -0.167418 
6   -0.273865 
7   -0.171174 
8   -0.218537 
9   0.152622 
10   -0.003097 
11   -0.017765 
12   -0.010239 
13   -0.015676 
14   0.019073 
15   0.078974 
16   -0.170451 
17   -0.357657 
18   -0.389165 
19   0.181015 
20   0.178384 
21   0.157731 
22   0.156773 
23   0.155843 
24   0.155525 
25   0.153733 
26   0.169125 
27   0.165171 
28   0.165004 
29   0.1528 
30   0.3565 
31   0.358486 
 
$$$$ 
 
