PCCDB-ID:  53260 
public computational chemistry database (PCCDB) project, http://pccdb.org 
 
 32 34  0  0  0  0  0  0  0  0999 V2000 
   -1.4233    1.2099    3.3912 C   0  0  0  0  0  0  0  0  0  0  0  0 
   -1.3382   -0.1957    3.5343 C   0  0  0  0  0  0  0  0  0  0  0  0 
   -2.8884   -7.2194    0.0812 C   0  0  0  0  0  0  0  0  0  0  0  0 
   -2.2389   -7.5290    1.2745 C   0  0  0  0  0  0  0  0  0  0  0  0 
   -1.5044    1.7770    2.1397 C   0  0  0  0  0  0  0  0  0  0  0  0 
   -3.0549   -5.8792   -0.2650 C   0  0  0  0  0  0  0  0  0  0  0  0 
   -1.3318   -1.0131    2.4248 C   0  0  0  0  0  0  0  0  0  0  0  0 
   -2.7007   -3.4139    0.2799 C   0  0  0  0  0  0  0  0  0  0  0  0 
   -1.3279   -2.7610   -0.0212 C   0  0  0  0  0  0  0  0  0  0  0  0 
   -1.5894    1.4935   -0.3353 C   0  0  0  0  0  0  0  0  0  0  0  0 
   -1.7846   -6.4727    2.0660 C   0  0  0  0  0  0  0  0  0  0  0  0 
   -1.5791    0.6328   -1.4046 C   0  0  0  0  0  0  0  0  0  0  0  0 
   -1.5034    0.9617    0.9770 C   0  0  0  0  0  0  0  0  0  0  0  0 
   -2.5680   -4.8865    0.5936 C   0  0  0  0  0  0  0  0  0  0  0  0 
   -1.4120   -0.4587    1.1175 C   0  0  0  0  0  0  0  0  0  0  0  0 
   -1.4040   -1.2519   -0.0816 C   0  0  0  0  0  0  0  0  0  0  0  0 
   -1.9384   -5.1843    1.7454 N   0  0  0  0  0  0  0  0  0  0  0  0 
   -1.4859   -0.7191   -1.2896 N   0  0  0  0  0  0  0  0  0  0  0  0 
   -1.4244    1.8412    4.2759 H   0  0  0  0  0  0  0  0  0  0  0  0 
   -1.2780   -0.6318    4.5276 H   0  0  0  0  0  0  0  0  0  0  0  0 
   -3.2599   -8.0065   -0.5699 H   0  0  0  0  0  0  0  0  0  0  0  0 
   -2.0865   -8.5574    1.5879 H   0  0  0  0  0  0  0  0  0  0  0  0 
   -1.5706    2.8561    2.0235 H   0  0  0  0  0  0  0  0  0  0  0  0 
   -3.5567   -5.6007   -1.1873 H   0  0  0  0  0  0  0  0  0  0  0  0 
   -1.2736   -2.0895    2.5530 H   0  0  0  0  0  0  0  0  0  0  0  0 
   -3.3713   -3.2582   -0.5722 H   0  0  0  0  0  0  0  0  0  0  0  0 
   -3.1543   -2.9184    1.1463 H   0  0  0  0  0  0  0  0  0  0  0  0 
   -0.9635   -3.1140   -0.9902 H   0  0  0  0  0  0  0  0  0  0  0  0 
   -0.6144   -3.0865    0.7428 H   0  0  0  0  0  0  0  0  0  0  0  0 
   -1.6606    2.5676   -0.4853 H   0  0  0  0  0  0  0  0  0  0  0  0 
   -1.2728   -6.6714    3.0068 H   0  0  0  0  0  0  0  0  0  0  0  0 
   -1.6438    1.0099   -2.4233 H   0  0  0  0  0  0  0  0  0  0  0  0 
  1  2  1  0  0  0  0 
  1 19  1  0  0  0  0 
  2 20  1  0  0  0  0 
  3  4  1  0  0  0  0 
  4 22  1  0  0  0  0 
  4 11  2  0  0  0  0 
  5  1  2  0  0  0  0 
  6  3  2  0  0  0  0 
  6 14  1  0  0  0  0 
  7 25  1  0  0  0  0 
  7  2  2  0  0  0  0 
  8 14  1  0  0  0  0 
  8 27  1  0  0  0  0 
  9  8  1  0  0  0  0 
  9 29  1  0  0  0  0 
 10 13  2  0  0  0  0 
 11 31  1  0  0  0  0 
 12 18  2  0  0  0  0 
 12 10  1  0  0  0  0 
 13 15  1  0  0  0  0 
 13  5  1  0  0  0  0 
 14 17  2  0  0  0  0 
 15  7  1  0  0  0  0 
 16  9  1  0  0  0  0 
 16 15  2  0  0  0  0 
 17 11  1  0  0  0  0 
 18 16  1  0  0  0  0 
 21  3  1  0  0  0  0 
 23  5  1  0  0  0  0 
 24  6  1  0  0  0  0 
 26  8  1  0  0  0  0 
 28  9  1  0  0  0  0 
 30 10  1  0  0  0  0 
 32 12  1  0  0  0  0 
M  END 
>  <HBA> 
2 
 
>  <HBD> 
0 
 
>  <TPSA> 
25.78 
 
>  <cid> 
53260 
 
>  <dipole> 
1.42 
 
>  <excitation_energy_1> 
4.202 
 
>  <excitation_energy_2> 
4.289 
 
>  <excitation_energy_3> 
4.567 
 
>  <excitation_energy_4> 
4.738 
 
>  <homo_energy> 
-5.962 
 
>  <homo_lumo_gap> 
4.716 
 
>  <logP> 
3.415 
 
>  <lumo_energy> 
-1.246 
 
>  <melting_point> 
113.23 
 
>  <molecular_refractivity> 
73.8 
 
>  <oscillator_strength_1> 
0.1364 
 
>  <oscillator_strength_2> 
0.005 
 
>  <oscillator_strength_3> 
0.0261 
 
>  <oscillator_strength_4> 
0.0039 
 
>  <open_babel_can_smiles> 
c1ccc(nc1)CCc1nccc2c1cccc2 
 
>  <mulliken_charges> 
32 
1   -0.127689 
2   -0.137528 
3   -0.100491 
4   -0.143889 
5   -0.186333 
6   -0.172713 
7   -0.207874 
8   -0.328235 
9   -0.32914 
10   -0.199287 
11   0.040229 
12   0.022097 
13   0.154094 
14   0.299968 
15   0.085472 
16   0.242105 
17   -0.467391 
18   -0.4807 
19   0.134556 
20   0.13578 
21   0.143087 
22   0.13723 
23   0.132969 
24   0.137801 
25   0.166085 
26   0.151914 
27   0.163191 
28   0.161784 
29   0.167619 
30   0.130378 
31   0.139402 
32   0.135507 
 
>  <lowdin_charges> 
32 
1   -0.14789 
2   -0.156922 
3   -0.127321 
4   -0.180502 
5   -0.156365 
6   -0.181669 
7   -0.150362 
8   -0.275934 
9   -0.279679 
10   -0.178227 
11   -0.08582 
12   -0.09972 
13   0.0128 
14   0.054299 
15   -0.028337 
16   0.057876 
17   -0.164286 
18   -0.164791 
19   0.161235 
20   0.160772 
21   0.164533 
22   0.163077 
23   0.157495 
24   0.163726 
25   0.171708 
26   0.154207 
27   0.162194 
28   0.163558 
29   0.161219 
30   0.159383 
31   0.155227 
32   0.154513 
 
$$$$ 
 
