PCCDB-ID:  70211 
public computational chemistry database (PCCDB) project, http://pccdb.org 
 
 13 12  0  0  0  0  0  0  0  0999 V2000 
    0.7020    1.2779    0.6990 C   0  0  0  0  0  0  0  0  0  0  0  0 
    1.7817    0.2158    0.5844 C   0  0  0  0  0  0  0  0  0  0  0  0 
    1.0291   -2.7420   -1.5916 C   0  0  0  0  0  0  0  0  0  0  0  0 
    1.3795   -1.9610   -0.3181 C   0  0  0  0  0  0  0  0  0  0  0  0 
    0.8550   -2.2412   -2.6737 O   0  0  0  0  0  0  0  0  0  0  0  0 
    1.5374   -2.5408    0.7356 O   0  0  0  0  0  0  0  0  0  0  0  0 
    1.4726   -0.6493   -0.5421 O   0  0  0  0  0  0  0  0  0  0  0  0 
    0.9571    1.9764    1.5038 H   0  0  0  0  0  0  0  0  0  0  0  0 
   -0.2677    0.8257    0.9307 H   0  0  0  0  0  0  0  0  0  0  0  0 
    0.6080    1.8431   -0.2332 H   0  0  0  0  0  0  0  0  0  0  0  0 
    1.8610   -0.3953    1.4852 H   0  0  0  0  0  0  0  0  0  0  0  0 
    2.7582    0.6573    0.3633 H   0  0  0  0  0  0  0  0  0  0  0  0 
    0.9539   -3.8304   -1.3989 H   0  0  0  0  0  0  0  0  0  0  0  0 
  1  9  1  0  0  0  0 
  1  8  1  0  0  0  0 
  2  1  1  0  0  0  0 
  2 11  1  0  0  0  0 
  3 13  1  0  0  0  0 
  3  4  1  0  0  0  0 
  4  6  2  0  0  0  0 
  5  3  2  0  0  0  0 
  7  4  1  0  0  0  0 
  7  2  1  0  0  0  0 
 10  1  1  0  0  0  0 
 12  2  1  0  0  0  0 
M  END 
>  <HBA> 
3 
 
>  <HBD> 
0 
 
>  <TPSA> 
43.37 
 
>  <cid> 
70211 
 
>  <dipole> 
2.02 
 
>  <excitation_energy_1> 
3.246 
 
>  <excitation_energy_2> 
4.792 
 
>  <excitation_energy_3> 
5.538 
 
>  <excitation_energy_4> 
6.147 
 
>  <homo_energy> 
-7.287 
 
>  <homo_lumo_gap> 
4.931 
 
>  <logP> 
-0.252 
 
>  <lumo_energy> 
-2.357 
 
>  <melting_point> 
18.93 
 
>  <molecular_refractivity> 
22.83 
 
>  <oscillator_strength_1> 
0.0001 
 
>  <oscillator_strength_2> 
0.0002 
 
>  <oscillator_strength_3> 
0.0477 
 
>  <oscillator_strength_4> 
0.0009 
 
>  <open_babel_can_smiles> 
CCOC(=O)C=O 
 
>  <mulliken_charges> 
13 
1   -0.452899 
2   -0.066183 
3   0.195261 
4   0.563477 
5   -0.33995 
6   -0.455168 
7   -0.4321 
8   0.156774 
9   0.164549 
10   0.170931 
11   0.186063 
12   0.164772 
13   0.144473 
 
>  <lowdin_charges> 
13 
1   -0.44894 
2   -0.126895 
3   0.036557 
4   0.153357 
5   -0.160519 
6   -0.241949 
7   -0.161009 
8   0.162749 
9   0.160315 
10   0.163484 
11   0.166532 
12   0.156046 
13   0.140272 
 
$$$$ 
 
