PCCDB-ID:  8718 
public computational chemistry database (PCCDB) project, http://pccdb.org 
 
 18 18  0  0  0  0  0  0  0  0999 V2000 
    0.9121   -0.0423    0.3076 C   0  0  0  0  0  0  0  0  0  0  0  0 
    6.7768   -0.2564   -0.4898 C   0  0  0  0  0  0  0  0  0  0  0  0 
    3.1404    1.0886   -0.0078 C   0  0  0  0  0  0  0  0  0  0  0  0 
    4.5484   -1.3874   -0.1755 C   0  0  0  0  0  0  0  0  0  0  0  0 
    2.3974   -0.0296    0.1035 C   0  0  0  0  0  0  0  0  0  0  0  0 
    5.2912   -0.2692   -0.2886 C   0  0  0  0  0  0  0  0  0  0  0  0 
    3.0826   -1.3610    0.0232 C   0  0  0  0  0  0  0  0  0  0  0  0 
    4.6060    1.0622   -0.2084 C   0  0  0  0  0  0  0  0  0  0  0  0 
    2.4408   -2.4020    0.1205 O   0  0  0  0  0  0  0  0  0  0  0  0 
    5.2475    2.1032   -0.3073 O   0  0  0  0  0  0  0  0  0  0  0  0 
    0.5082    0.9729    0.3421 H   0  0  0  0  0  0  0  0  0  0  0  0 
    0.6557   -0.5610    1.2385 H   0  0  0  0  0  0  0  0  0  0  0  0 
    0.4171   -0.5981   -0.4968 H   0  0  0  0  0  0  0  0  0  0  0  0 
    7.1770   -1.2717   -0.5528 H   0  0  0  0  0  0  0  0  0  0  0  0 
    7.2724    0.2725    0.3324 H   0  0  0  0  0  0  0  0  0  0  0  0 
    7.0375    0.2893   -1.4037 H   0  0  0  0  0  0  0  0  0  0  0  0 
    2.6997    2.0812    0.0423 H   0  0  0  0  0  0  0  0  0  0  0  0 
    4.9890   -2.3800   -0.2267 H   0  0  0  0  0  0  0  0  0  0  0  0 
  1 11  1  0  0  0  0 
  1 12  1  0  0  0  0 
  2  6  1  0  0  0  0 
  2 15  1  0  0  0  0 
  3 17  1  0  0  0  0 
  3  5  2  0  0  0  0 
  4  7  1  0  0  0  0 
  5  1  1  0  0  0  0 
  6  8  1  0  0  0  0 
  6  4  2  0  0  0  0 
  7  5  1  0  0  0  0 
  7  9  2  0  0  0  0 
  8  3  1  0  0  0  0 
 10  8  2  0  0  0  0 
 13  1  1  0  0  0  0 
 14  2  1  0  0  0  0 
 16  2  1  0  0  0  0 
 18  4  1  0  0  0  0 
M  END 
>  <HBA> 
2 
 
>  <HBD> 
0 
 
>  <TPSA> 
34.14 
 
>  <cid> 
8718 
 
>  <dipole> 
0.01 
 
>  <excitation_energy_1> 
2.559 
 
>  <excitation_energy_2> 
2.816 
 
>  <excitation_energy_3> 
3.413 
 
>  <excitation_energy_4> 
4.703 
 
>  <homo_energy> 
-7.11 
 
>  <homo_lumo_gap> 
3.869 
 
>  <logP> 
1.031 
 
>  <lumo_energy> 
-3.241 
 
>  <melting_point> 
63.89 
 
>  <molecular_refractivity> 
37.91 
 
>  <oscillator_strength_1> 
0.0 
 
>  <oscillator_strength_2> 
0.0 
 
>  <oscillator_strength_3> 
0.0 
 
>  <oscillator_strength_4> 
0.2974 
 
>  <open_babel_can_smiles> 
CC1=CC(=O)C(=CC1=O)C 
 
>  <mulliken_charges> 
18 
1   -0.51259 
2   -0.51259 
3   -0.242329 
4   -0.242394 
5   0.128048 
6   0.128106 
7   0.407397 
8   0.40733 
9   -0.462918 
10   -0.462912 
11   0.16003 
12   0.183073 
13   0.183287 
14   0.160021 
15   0.182991 
16   0.183379 
17   0.156031 
18   0.156041 
 
>  <lowdin_charges> 
18 
1   -0.436044 
2   -0.436095 
3   -0.178049 
4   -0.178046 
5   0.00025 
6   0.000238 
7   0.146018 
8   0.146011 
9   -0.22069 
10   -0.220684 
11   0.160618 
12   0.176373 
13   0.177346 
14   0.160619 
15   0.177137 
16   0.176634 
17   0.174182 
18   0.174183 
 
$$$$ 
 
