PCCDB-ID:  18189 
public computational chemistry database (PCCDB) project, http://pccdb.org 
 
 21 20  0  0  0  0  0  0  0  0999 V2000 
    1.2960    0.2971    0.7464 C   0  0  0  0  0  0  0  0  0  0  0  0 
    2.7669   -3.3989   -0.4704 C   0  0  0  0  0  0  0  0  0  0  0  0 
    3.7607   -3.4014   -1.6537 C   0  0  0  0  0  0  0  0  0  0  0  0 
    1.5758   -2.4294   -0.6157 C   0  0  0  0  0  0  0  0  0  0  0  0 
    1.8820   -0.0369   -0.6072 C   0  0  0  0  0  0  0  0  0  0  0  0 
    3.1202   -3.6261   -3.0247 C   0  0  0  0  0  0  0  0  0  0  0  0 
    2.0029   -1.1609   -1.1807 N   0  0  0  0  0  0  0  0  0  0  0  0 
    2.3416    1.0398   -1.3067 O   0  0  0  0  0  0  0  0  0  0  0  0 
    3.2040   -4.6688   -3.6330 O   0  0  0  0  0  0  0  0  0  0  0  0 
    2.4418   -2.5750   -3.5295 O   0  0  0  0  0  0  0  0  0  0  0  0 
    0.9664   -0.5872    1.2914 H   0  0  0  0  0  0  0  0  0  0  0  0 
    0.4340    0.9651    0.6269 H   0  0  0  0  0  0  0  0  0  0  0  0 
    2.0418    0.8181    1.3594 H   0  0  0  0  0  0  0  0  0  0  0  0 
    3.3304   -3.1439    0.4362 H   0  0  0  0  0  0  0  0  0  0  0  0 
    2.3656   -4.4086   -0.3216 H   0  0  0  0  0  0  0  0  0  0  0  0 
    4.4901   -4.2013   -1.5060 H   0  0  0  0  0  0  0  0  0  0  0  0 
    4.3004   -2.4475   -1.6678 H   0  0  0  0  0  0  0  0  0  0  0  0 
    1.0648   -2.3406    0.3529 H   0  0  0  0  0  0  0  0  0  0  0  0 
    0.8509   -2.8574   -1.3192 H   0  0  0  0  0  0  0  0  0  0  0  0 
    2.2008    1.8487   -0.7909 H   0  0  0  0  0  0  0  0  0  0  0  0 
    2.4208   -1.8354   -2.8692 H   0  0  0  0  0  0  0  0  0  0  0  0 
  1 11  1  0  0  0  0 
  1 13  1  0  0  0  0 
  2 15  1  0  0  0  0 
  2 14  1  0  0  0  0 
  3 16  1  0  0  0  0 
  3  2  1  0  0  0  0 
  4  2  1  0  0  0  0 
  4 18  1  0  0  0  0 
  5  1  1  0  0  0  0 
  6  3  1  0  0  0  0 
  7  4  1  0  0  0  0 
  7  5  2  0  0  0  0 
  8 20  1  0  0  0  0 
  8  5  1  0  0  0  0 
  9  6  2  0  0  0  0 
 10  6  1  0  0  0  0 
 10 21  1  0  0  0  0 
 12  1  1  0  0  0  0 
 17  3  1  0  0  0  0 
 19  4  1  0  0  0  0 
M  END 
>  <HBA> 
4 
 
>  <HBD> 
2 
 
>  <TPSA> 
66.4 
 
>  <cid> 
18189 
 
>  <dipole> 
9.17 
 
>  <excitation_energy_1> 
5.476 
 
>  <excitation_energy_2> 
5.778 
 
>  <excitation_energy_3> 
5.836 
 
>  <excitation_energy_4> 
6.029 
 
>  <homo_energy> 
-6.49 
 
>  <homo_lumo_gap> 
6.395 
 
>  <logP> 
0.378 
 
>  <lumo_energy> 
-0.095 
 
>  <melting_point> 
99.17 
 
>  <molecular_refractivity> 
35.73 
 
>  <oscillator_strength_1> 
0.001 
 
>  <oscillator_strength_2> 
0.0003 
 
>  <oscillator_strength_3> 
0.0054 
 
>  <oscillator_strength_4> 
0.006 
 
>  <open_babel_can_smiles> 
OC(=O)CCC/N=C(/O)\C 
 
>  <mulliken_charges> 
21 
1   -0.560811 
2   -0.265721 
3   -0.36031 
4   -0.16895 
5   0.510436 
6   0.576508 
7   -0.448248 
8   -0.568269 
9   -0.4603 
10   -0.596087 
11   0.190099 
12   0.186102 
13   0.181584 
14   0.141582 
15   0.158062 
16   0.168525 
17   0.161927 
18   0.129932 
19   0.176842 
20   0.412835 
21   0.434261 
 
>  <lowdin_charges> 
21 
1   -0.483156 
2   -0.27457 
3   -0.319496 
4   -0.208881 
5   0.145132 
6   0.18635 
7   -0.21476 
8   -0.359541 
9   -0.263953 
10   -0.377869 
11   0.178068 
12   0.176169 
13   0.174661 
14   0.147205 
15   0.155479 
16   0.170175 
17   0.160859 
18   0.134414 
19   0.161545 
20   0.360429 
21   0.351738 
 
$$$$ 
 
