PCCDB-ID:  13171 
public computational chemistry database (PCCDB) project, http://pccdb.org 
 
 25 24  0  0  0  0  0  0  0  0999 V2000 
    0.0802    0.4474    0.6029 C   0  0  0  0  0  0  0  0  0  0  0  0 
    1.8237   -0.8481    2.0045 C   0  0  0  0  0  0  0  0  0  0  0  0 
   -1.1136    0.2200    1.5389 C   0  0  0  0  0  0  0  0  0  0  0  0 
    2.9638   -1.8796    1.9782 C   0  0  0  0  0  0  0  0  0  0  0  0 
    1.1667   -0.6256    0.6456 C   0  0  0  0  0  0  0  0  0  0  0  0 
   -2.0797    1.2577    1.4242 O   0  0  0  0  0  0  0  0  0  0  0  0 
    3.9435   -1.5815    0.9992 O   0  0  0  0  0  0  0  0  0  0  0  0 
    0.2240   -3.9886   -1.0862 O   0  0  0  0  0  0  0  0  0  0  0  0 
    0.6856   -1.7428   -2.2894 O   0  0  0  0  0  0  0  0  0  0  0  0 
    2.5991   -3.0004   -1.0700 O   0  0  0  0  0  0  0  0  0  0  0  0 
    0.5532   -1.9010    0.2083 O   0  0  0  0  0  0  0  0  0  0  0  0 
    1.1531   -2.6788   -1.0476 P   0  0  0  0  0  0  0  0  0  0  0  0 
    0.5401    1.4134    0.8463 H   0  0  0  0  0  0  0  0  0  0  0  0 
   -0.2838    0.5185   -0.4315 H   0  0  0  0  0  0  0  0  0  0  0  0 
    2.2240    0.1220    2.3274 H   0  0  0  0  0  0  0  0  0  0  0  0 
    1.0766   -1.1586    2.7461 H   0  0  0  0  0  0  0  0  0  0  0  0 
   -0.7946    0.2397    2.5849 H   0  0  0  0  0  0  0  0  0  0  0  0 
   -1.5597   -0.7679    1.3496 H   0  0  0  0  0  0  0  0  0  0  0  0 
    2.5489   -2.8855    1.8280 H   0  0  0  0  0  0  0  0  0  0  0  0 
    3.4567   -1.8777    2.9582 H   0  0  0  0  0  0  0  0  0  0  0  0 
    1.9578   -0.3700   -0.0660 H   0  0  0  0  0  0  0  0  0  0  0  0 
   -2.4304    1.2336    0.5202 H   0  0  0  0  0  0  0  0  0  0  0  0 
    3.7107   -2.0950    0.2018 H   0  0  0  0  0  0  0  0  0  0  0  0 
   -0.7178   -3.7845   -0.9610 H   0  0  0  0  0  0  0  0  0  0  0  0 
    1.3079   -1.8364   -3.0308 H   0  0  0  0  0  0  0  0  0  0  0  0 
  1  5  1  0  0  0  0 
  1 13  1  0  0  0  0 
  1  3  1  0  0  0  0 
  2 15  1  0  0  0  0 
  2 16  1  0  0  0  0 
  3 17  1  0  0  0  0 
  4  2  1  0  0  0  0 
  4 20  1  0  0  0  0 
  5  2  1  0  0  0  0 
  6  3  1  0  0  0  0 
  7  4  1  0  0  0  0 
  8 12  1  0  0  0  0 
  8 24  1  0  0  0  0 
  9 12  1  0  0  0  0 
 10 12  2  0  0  0  0 
 11  5  1  0  0  0  0 
 12 11  1  0  0  0  0 
 14  1  1  0  0  0  0 
 18  3  1  0  0  0  0 
 19  4  1  0  0  0  0 
 21  5  1  0  0  0  0 
 22  6  1  0  0  0  0 
 23  7  1  0  0  0  0 
 25  9  1  0  0  0  0 
M  END 
>  <HBA> 
6 
 
>  <HBD> 
4 
 
>  <TPSA> 
117.03 
 
>  <cid> 
13171 
 
>  <dipole> 
4.08 
 
>  <excitation_energy_1> 
5.741 
 
>  <excitation_energy_2> 
6.218 
 
>  <excitation_energy_3> 
6.543 
 
>  <excitation_energy_4> 
6.651 
 
>  <homo_energy> 
-6.83 
 
>  <homo_lumo_gap> 
7.249 
 
>  <logP> 
-0.771 
 
>  <lumo_energy> 
0.419 
 
>  <melting_point> 
91.07 
 
>  <molecular_refractivity> 
40.54 
 
>  <oscillator_strength_1> 
0.0032 
 
>  <oscillator_strength_2> 
0.0021 
 
>  <oscillator_strength_3> 
0.0084 
 
>  <oscillator_strength_4> 
0.0076 
 
>  <open_babel_can_smiles> 
OCCC(OP(=O)(O)O)CCO 
 
>  <mulliken_charges> 
25 
1   -0.294979 
2   -0.273589 
3   -0.030581 
4   -0.048326 
5   0.089516 
6   -0.614856 
7   -0.654502 
8   -0.609974 
9   -0.65049 
10   -0.584735 
11   -0.550518 
12   1.180411 
13   0.159471 
14   0.143451 
15   0.151384 
16   0.141025 
17   0.154032 
18   0.130843 
19   0.142297 
20   0.138728 
21   0.170058 
22   0.387167 
23   0.438932 
24   0.441436 
25   0.443798 
 
>  <lowdin_charges> 
25 
1   -0.300178 
2   -0.302529 
3   -0.135468 
4   -0.136241 
5   0.014014 
6   -0.463171 
7   -0.488636 
8   -0.54306 
9   -0.574703 
10   -0.590865 
11   -0.406118 
12   1.118592 
13   0.160757 
14   0.148678 
15   0.157621 
16   0.152278 
17   0.148264 
18   0.129605 
19   0.137356 
20   0.142698 
21   0.162521 
22   0.339532 
23   0.352941 
24   0.386604 
25   0.389508 
 
$$$$ 
 
