PCCDB-ID:  28541 
public computational chemistry database (PCCDB) project, http://pccdb.org 
 
 26 25  0  0  0  0  0  0  0  0999 V2000 
    3.8283   -1.0520    1.3132 C   0  0  0  0  0  0  0  0  0  0  0  0 
    2.5272    0.9627    2.1632 C   0  0  0  0  0  0  0  0  0  0  0  0 
   -0.1747   -4.9152   -2.6188 C   0  0  0  0  0  0  0  0  0  0  0  0 
    0.4835   -1.3806   -1.8244 C   0  0  0  0  0  0  0  0  0  0  0  0 
    1.5351   -1.5344   -0.7227 C   0  0  0  0  0  0  0  0  0  0  0  0 
    0.3547   -2.6203   -2.6983 C   0  0  0  0  0  0  0  0  0  0  0  0 
    2.4419   -0.3872    1.4461 C   0  0  0  0  0  0  0  0  0  0  0  0 
    1.7540   -0.2547    0.0814 C   0  0  0  0  0  0  0  0  0  0  0  0 
    1.3931    0.8274   -0.3464 O   0  0  0  0  0  0  0  0  0  0  0  0 
   -0.0364   -3.7168   -1.8884 O   0  0  0  0  0  0  0  0  0  0  0  0 
    4.2908   -1.1565    2.3007 H   0  0  0  0  0  0  0  0  0  0  0  0 
    4.4968   -0.4397    0.6958 H   0  0  0  0  0  0  0  0  0  0  0  0 
    3.7707   -2.0501    0.8670 H   0  0  0  0  0  0  0  0  0  0  0  0 
    2.9688    0.8386    3.1584 H   0  0  0  0  0  0  0  0  0  0  0  0 
    1.5381    1.4156    2.2750 H   0  0  0  0  0  0  0  0  0  0  0  0 
    3.1455    1.6664    1.5962 H   0  0  0  0  0  0  0  0  0  0  0  0 
   -0.4827   -5.6919   -1.9135 H   0  0  0  0  0  0  0  0  0  0  0  0 
    0.7739   -5.2184   -3.0919 H   0  0  0  0  0  0  0  0  0  0  0  0 
   -0.9393   -4.8270   -3.4080 H   0  0  0  0  0  0  0  0  0  0  0  0 
    0.7360   -0.5212   -2.4545 H   0  0  0  0  0  0  0  0  0  0  0  0 
   -0.4914   -1.1595   -1.3738 H   0  0  0  0  0  0  0  0  0  0  0  0 
    2.5034   -1.8137   -1.1675 H   0  0  0  0  0  0  0  0  0  0  0  0 
    1.2744   -2.3606   -0.0510 H   0  0  0  0  0  0  0  0  0  0  0  0 
    1.3152   -2.8434   -3.1979 H   0  0  0  0  0  0  0  0  0  0  0  0 
   -0.3920   -2.4503   -3.4931 H   0  0  0  0  0  0  0  0  0  0  0  0 
    1.8083   -1.0685    2.0368 H   0  0  0  0  0  0  0  0  0  0  0  0 
  1  7  1  0  0  0  0 
  1 11  1  0  0  0  0 
  2 15  1  0  0  0  0 
  2 14  1  0  0  0  0 
  3 17  1  0  0  0  0 
  3 10  1  0  0  0  0 
  4 21  1  0  0  0  0 
  4  5  1  0  0  0  0 
  5 23  1  0  0  0  0 
  5  8  1  0  0  0  0 
  6 10  1  0  0  0  0 
  6  4  1  0  0  0  0 
  7 26  1  0  0  0  0 
  7  2  1  0  0  0  0 
  8  7  1  0  0  0  0 
  9  8  2  0  0  0  0 
 12  1  1  0  0  0  0 
 13  1  1  0  0  0  0 
 16  2  1  0  0  0  0 
 18  3  1  0  0  0  0 
 19  3  1  0  0  0  0 
 20  4  1  0  0  0  0 
 22  5  1  0  0  0  0 
 24  6  1  0  0  0  0 
 25  6  1  0  0  0  0 
M  END 
>  <HBA> 
2 
 
>  <HBD> 
0 
 
>  <TPSA> 
26.3 
 
>  <cid> 
28541 
 
>  <dipole> 
2.64 
 
>  <excitation_energy_1> 
4.347 
 
>  <excitation_energy_2> 
5.997 
 
>  <excitation_energy_3> 
6.049 
 
>  <excitation_energy_4> 
6.483 
 
>  <homo_energy> 
-6.463 
 
>  <homo_lumo_gap> 
6.242 
 
>  <logP> 
1.638 
 
>  <lumo_energy> 
-0.22 
 
>  <melting_point> 
-15.45 
 
>  <molecular_refractivity> 
41.85 
 
>  <oscillator_strength_1> 
0.0001 
 
>  <oscillator_strength_2> 
0.0021 
 
>  <oscillator_strength_3> 
0.0067 
 
>  <oscillator_strength_4> 
0.0212 
 
>  <open_babel_can_smiles> 
COCCCC(=O)C(C)C 
 
>  <mulliken_charges> 
26 
1   -0.456732 
2   -0.432499 
3   -0.189708 
4   -0.268708 
5   -0.358988 
6   -0.018337 
7   -0.166131 
8   0.460506 
9   -0.454391 
10   -0.461562 
11   0.154232 
12   0.153882 
13   0.152198 
14   0.134312 
15   0.157583 
16   0.154634 
17   0.157022 
18   0.12822 
19   0.130147 
20   0.158348 
21   0.153695 
22   0.159877 
23   0.172165 
24   0.112639 
25   0.121936 
26   0.145658 
 
>  <lowdin_charges> 
26 
1   -0.443144 
2   -0.44094 
3   -0.281255 
4   -0.277211 
5   -0.31143 
6   -0.130218 
7   -0.155521 
8   0.162878 
9   -0.238994 
10   -0.275498 
11   0.155553 
12   0.153777 
13   0.152052 
14   0.146301 
15   0.158714 
16   0.157349 
17   0.15547 
18   0.130779 
19   0.13207 
20   0.161385 
21   0.154413 
22   0.162587 
23   0.165763 
24   0.121343 
25   0.129349 
26   0.154429 
 
$$$$ 
 
