PCCDB-ID:  19794 
public computational chemistry database (PCCDB) project, http://pccdb.org 
 
 26 25  0  0  0  0  0  0  0  0999 V2000 
    0.7763   -0.1341    0.0679 C   0  0  0  0  0  0  0  0  0  0  0  0 
    2.3069   -0.0862    0.0604 C   0  0  0  0  0  0  0  0  0  0  0  0 
    2.8627    1.3368   -0.0834 C   0  0  0  0  0  0  0  0  0  0  0  0 
    4.3953    1.3989   -0.0936 C   0  0  0  0  0  0  0  0  0  0  0  0 
    4.9352    2.8266   -0.2353 C   0  0  0  0  0  0  0  0  0  0  0  0 
    6.4790    2.8796   -0.2421 C   0  0  0  0  0  0  0  0  0  0  0  0 
    7.0026    4.2402   -0.3518 C   0  0  0  0  0  0  0  0  0  0  0  0 
    7.3934    5.3859   -0.4335 C   0  0  0  0  0  0  0  0  0  0  0  0 
    7.8432    6.7540   -0.5268 C   0  0  0  0  0  0  0  0  0  0  0  0 
    7.1717    7.7974   -0.2399 N   0  0  0  0  0  0  0  0  0  0  0  0 
    9.1226    6.9211   -0.9702 O   0  0  0  0  0  0  0  0  0  0  0  0 
    0.4071   -1.1607    0.1716 H   0  0  0  0  0  0  0  0  0  0  0  0 
    0.3616    0.2756   -0.8614 H   0  0  0  0  0  0  0  0  0  0  0  0 
    0.3648    0.4526    0.8985 H   0  0  0  0  0  0  0  0  0  0  0  0 
    2.6886   -0.7094   -0.7608 H   0  0  0  0  0  0  0  0  0  0  0  0 
    2.6928   -0.5335    0.9874 H   0  0  0  0  0  0  0  0  0  0  0  0 
    2.4815    1.9601    0.7388 H   0  0  0  0  0  0  0  0  0  0  0  0 
    2.4744    1.7847   -1.0101 H   0  0  0  0  0  0  0  0  0  0  0  0 
    4.7792    0.7776   -0.9162 H   0  0  0  0  0  0  0  0  0  0  0  0 
    4.7843    0.9533    0.8340 H   0  0  0  0  0  0  0  0  0  0  0  0 
    4.5648    3.4506    0.5879 H   0  0  0  0  0  0  0  0  0  0  0  0 
    4.5603    3.2793   -1.1620 H   0  0  0  0  0  0  0  0  0  0  0  0 
    6.8658    2.2707   -1.0712 H   0  0  0  0  0  0  0  0  0  0  0  0 
    6.8666    2.4193    0.6782 H   0  0  0  0  0  0  0  0  0  0  0  0 
    6.2392    7.5315    0.0775 H   0  0  0  0  0  0  0  0  0  0  0  0 
    9.5042    6.0482   -1.1514 H   0  0  0  0  0  0  0  0  0  0  0  0 
  1 12  1  0  0  0  0 
  1 14  1  0  0  0  0 
  2  1  1  0  0  0  0 
  2 16  1  0  0  0  0 
  3  2  1  0  0  0  0 
  3 17  1  0  0  0  0 
  4  3  1  0  0  0  0 
  4 20  1  0  0  0  0 
  5  4  1  0  0  0  0 
  5 21  1  0  0  0  0 
  6  5  1  0  0  0  0 
  6 24  1  0  0  0  0 
  7  6  1  0  0  0  0 
  8  7  3  0  0  0  0 
  9  8  1  0  0  0  0 
  9 10  2  0  0  0  0 
 10 25  1  0  0  0  0 
 11  9  1  0  0  0  0 
 13  1  1  0  0  0  0 
 15  2  1  0  0  0  0 
 18  3  1  0  0  0  0 
 19  4  1  0  0  0  0 
 22  5  1  0  0  0  0 
 23  6  1  0  0  0  0 
 26 11  1  0  0  0  0 
M  END 
>  <HBA> 
2 
 
>  <HBD> 
1 
 
>  <TPSA> 
43.09 
 
>  <cid> 
19794 
 
>  <dipole> 
5.47 
 
>  <excitation_energy_1> 
5.031 
 
>  <excitation_energy_2> 
5.683 
 
>  <excitation_energy_3> 
6.005 
 
>  <excitation_energy_4> 
6.036 
 
>  <homo_energy> 
-6.925 
 
>  <homo_lumo_gap> 
6.297 
 
>  <logP> 
2.146 
 
>  <lumo_energy> 
-0.629 
 
>  <melting_point> 
64.43 
 
>  <molecular_refractivity> 
46.45 
 
>  <oscillator_strength_1> 
0.0023 
 
>  <oscillator_strength_2> 
0.1075 
 
>  <oscillator_strength_3> 
0.0043 
 
>  <oscillator_strength_4> 
0.0039 
 
>  <open_babel_can_smiles> 
CCCCCCC#CC(=N)O 
 
>  <mulliken_charges> 
26 
1   -0.442296 
2   -0.248284 
3   -0.248151 
4   -0.252541 
5   -0.258514 
6   -0.406495 
7   0.048273 
8   0.011848 
9   0.364309 
10   -0.572583 
11   -0.572837 
12   0.14436 
13   0.143107 
14   0.143179 
15   0.131754 
16   0.131874 
17   0.131245 
18   0.131309 
19   0.131693 
20   0.131869 
21   0.148989 
22   0.149923 
23   0.17445 
24   0.176738 
25   0.295725 
26   0.411056 
 
>  <lowdin_charges> 
26 
1   -0.444669 
2   -0.273126 
3   -0.275019 
4   -0.276941 
5   -0.267577 
6   -0.263063 
7   -0.028716 
8   -0.139029 
9   0.141862 
10   -0.373039 
11   -0.356126 
12   0.149901 
13   0.147487 
14   0.148148 
15   0.140498 
16   0.139913 
17   0.1407 
18   0.140096 
19   0.140896 
20   0.140312 
21   0.150481 
22   0.150203 
23   0.170106 
24   0.17119 
25   0.265518 
26   0.359994 
 
$$$$ 
 
