PCCDB-ID:  29971 
public computational chemistry database (PCCDB) project, http://pccdb.org 
 
 17 16  0  0  0  0  0  0  0  0999 V2000 
    0.6387    0.1697    1.1288 C   0  0  0  0  0  0  0  0  0  0  0  0 
    5.1180   -2.1952    1.6125 C   0  0  0  0  0  0  0  0  0  0  0  0 
    1.8329    0.0972    0.1819 C   0  0  0  0  0  0  0  0  0  0  0  0 
    4.9949   -1.4733    0.2954 C   0  0  0  0  0  0  0  0  0  0  0  0 
    2.9048   -0.7033    0.7835 N   0  0  0  0  0  0  0  0  0  0  0  0 
    4.0010   -0.7852   -0.1080 N   0  0  0  0  0  0  0  0  0  0  0  0 
    6.0437   -1.5767   -0.5798 O   0  0  0  0  0  0  0  0  0  0  0  0 
   -0.1522    0.7950    0.7012 H   0  0  0  0  0  0  0  0  0  0  0  0 
    0.9325    0.5922    2.0954 H   0  0  0  0  0  0  0  0  0  0  0  0 
    0.2097   -0.8246    1.3109 H   0  0  0  0  0  0  0  0  0  0  0  0 
    4.8022   -3.2442    1.5334 H   0  0  0  0  0  0  0  0  0  0  0  0 
    4.4845   -1.7010    2.3548 H   0  0  0  0  0  0  0  0  0  0  0  0 
    6.1538   -2.1879    1.9734 H   0  0  0  0  0  0  0  0  0  0  0  0 
    2.2408    1.0976    0.0050 H   0  0  0  0  0  0  0  0  0  0  0  0 
    1.5262   -0.2999   -0.7996 H   0  0  0  0  0  0  0  0  0  0  0  0 
    2.5413   -1.6402    0.9717 H   0  0  0  0  0  0  0  0  0  0  0  0 
    6.7740   -2.0305   -0.1345 H   0  0  0  0  0  0  0  0  0  0  0  0 
  1 10  1  0  0  0  0 
  1  9  1  0  0  0  0 
  2 13  1  0  0  0  0 
  2 12  1  0  0  0  0 
  3  5  1  0  0  0  0 
  3  1  1  0  0  0  0 
  4  2  1  0  0  0  0 
  5 16  1  0  0  0  0 
  6  4  2  0  0  0  0 
  6  5  1  0  0  0  0 
  7 17  1  0  0  0  0 
  7  4  1  0  0  0  0 
  8  1  1  0  0  0  0 
 11  2  1  0  0  0  0 
 14  3  1  0  0  0  0 
 15  3  1  0  0  0  0 
M  END 
>  <HBA> 
3 
 
>  <HBD> 
2 
 
>  <TPSA> 
41.13 
 
>  <cid> 
29971 
 
>  <dipole> 
3.18 
 
>  <excitation_energy_1> 
4.662 
 
>  <excitation_energy_2> 
5.082 
 
>  <excitation_energy_3> 
5.339 
 
>  <excitation_energy_4> 
5.739 
 
>  <homo_energy> 
-5.328 
 
>  <homo_lumo_gap> 
6.142 
 
>  <logP> 
0.429 
 
>  <lumo_energy> 
0.814 
 
>  <melting_point> 
50.51 
 
>  <molecular_refractivity> 
27.15 
 
>  <oscillator_strength_1> 
0.0044 
 
>  <oscillator_strength_2> 
0.0018 
 
>  <oscillator_strength_3> 
0.1405 
 
>  <oscillator_strength_4> 
0.0055 
 
>  <open_babel_can_smiles> 
CCN/N=C(/O)\C 
 
>  <mulliken_charges> 
17 
1   -0.460641 
2   -0.560273 
3   -0.089098 
4   0.497135 
5   -0.44989 
6   -0.306434 
7   -0.584744 
8   0.149881 
9   0.157738 
10   0.135701 
11   0.175704 
12   0.201129 
13   0.151883 
14   0.156134 
15   0.1281 
16   0.294779 
17   0.402898 
 
>  <lowdin_charges> 
17 
1   -0.451656 
2   -0.482154 
3   -0.198658 
4   0.102021 
5   -0.283425 
6   -0.154702 
7   -0.373869 
8   0.157143 
9   0.154932 
10   0.142946 
11   0.167489 
12   0.183005 
13   0.158083 
14   0.150709 
15   0.12792 
16   0.245101 
17   0.355116 
 
$$$$ 
 
