PCCDB-ID:  73186 
public computational chemistry database (PCCDB) project, http://pccdb.org 
 
 16 15  0  0  0  0  0  0  0  0999 V2000 
    3.2750   -0.3608   -0.2338 C   0  0  0  0  0  0  0  0  0  0  0  0 
    3.1502    0.6963    0.8501 C   0  0  0  0  0  0  0  0  0  0  0  0 
    4.8507    0.2198    2.4495 C   0  0  0  0  0  0  0  0  0  0  0  0 
    5.7401    0.6591    1.7420 O   0  0  0  0  0  0  0  0  0  0  0  0 
    4.8402   -1.9673    4.1648 O   0  0  0  0  0  0  0  0  0  0  0  0 
    6.8421   -0.4718    4.0261 O   0  0  0  0  0  0  0  0  0  0  0  0 
    4.6463    0.3949    5.2629 O   0  0  0  0  0  0  0  0  0  0  0  0 
    3.5591    0.1652    2.1491 O   0  0  0  0  0  0  0  0  0  0  0  0 
    5.2445   -0.4009    4.1684 P   0  0  0  0  0  0  0  0  0  0  0  0 
    2.8891    0.0383   -1.1786 H   0  0  0  0  0  0  0  0  0  0  0  0 
    2.6978   -1.2543    0.0233 H   0  0  0  0  0  0  0  0  0  0  0  0 
    4.3205   -0.6441   -0.3839 H   0  0  0  0  0  0  0  0  0  0  0  0 
    2.1138    0.9993    1.0089 H   0  0  0  0  0  0  0  0  0  0  0  0 
    3.7602    1.5756    0.6324 H   0  0  0  0  0  0  0  0  0  0  0  0 
    4.0833   -2.1128    4.7575 H   0  0  0  0  0  0  0  0  0  0  0  0 
    7.1113    0.0317    3.2305 H   0  0  0  0  0  0  0  0  0  0  0  0 
  1 11  1  0  0  0  0 
  1  2  1  0  0  0  0 
  2 13  1  0  0  0  0 
  2  8  1  0  0  0  0 
  3  9  1  0  0  0  0 
  4  3  2  0  0  0  0 
  5  9  1  0  0  0  0 
  5 15  1  0  0  0  0 
  6  9  1  0  0  0  0 
  8  3  1  0  0  0  0 
  9  7  2  0  0  0  0 
 10  1  1  0  0  0  0 
 12  1  1  0  0  0  0 
 14  2  1  0  0  0  0 
 16  6  1  0  0  0  0 
M  END 
>  <HBA> 
5 
 
>  <HBD> 
2 
 
>  <TPSA> 
93.64 
 
>  <cid> 
73186 
 
>  <dipole> 
4.39 
 
>  <excitation_energy_1> 
5.186 
 
>  <excitation_energy_2> 
6.079 
 
>  <excitation_energy_3> 
6.516 
 
>  <excitation_energy_4> 
6.864 
 
>  <homo_energy> 
-7.758 
 
>  <homo_lumo_gap> 
6.659 
 
>  <logP> 
0.321 
 
>  <lumo_energy> 
-1.099 
 
>  <melting_point> 
84.54 
 
>  <molecular_refractivity> 
29.2 
 
>  <oscillator_strength_1> 
0.0072 
 
>  <oscillator_strength_2> 
0.005 
 
>  <oscillator_strength_3> 
0.0334 
 
>  <oscillator_strength_4> 
0.0262 
 
>  <open_babel_can_smiles> 
CCOC(=O)P(=O)(O)O 
 
>  <mulliken_charges> 
16 
1   -0.463934 
2   -0.063774 
3   0.399128 
4   -0.464221 
5   -0.629533 
6   -0.633966 
7   -0.513562 
8   -0.421654 
9   1.02924 
10   0.161807 
11   0.168121 
12   0.179698 
13   0.172691 
14   0.181678 
15   0.448009 
16   0.450273 
 
>  <lowdin_charges> 
16 
1   -0.452516 
2   -0.122673 
3   0.047041 
4   -0.264217 
5   -0.561421 
6   -0.556434 
7   -0.565667 
8   -0.156768 
9   1.034629 
10   0.16561 
11   0.162644 
12   0.166292 
13   0.161831 
14   0.165149 
15   0.38973 
16   0.386772 
 
$$$$ 
 
