PCCDB-ID:  34042 
public computational chemistry database (PCCDB) project, http://pccdb.org 
 
 31 32  0  0  1  0  0  0  0  0999 V2000 
    4.3243    2.2263   -0.0750 C   0  0  0  0  0  0  0  0  0  0  0  0 
    3.6952    0.9428   -2.1816 C   0  0  0  0  0  0  0  0  0  0  0  0 
    2.6929   -0.0013   -2.8750 C   0  0  0  0  0  0  0  0  0  0  0  0 
    2.3836    0.5871   -5.3199 C   0  0  0  0  0  0  0  0  0  0  0  0 
    2.6644    0.4448   -6.6918 C   0  0  0  0  0  0  0  0  0  0  0  0 
    3.9253   -1.1966   -4.7372 C   0  0  0  0  0  0  0  0  0  0  0  0 
    4.9639   -1.9379   -8.1018 C   0  0  0  0  0  0  0  0  0  0  0  0 
    3.4637    1.1015   -0.6699 C   0  0  1  0  0  0  0  0  0  0  0  0 
    2.9925   -0.2097   -4.3447 C   0  0  0  0  0  0  0  0  0  0  0  0 
    3.5808   -0.5250   -7.0423 C   0  0  0  0  0  0  0  0  0  0  0  0 
    4.1952   -1.3262   -6.0839 C   0  0  0  0  0  0  0  0  0  0  0  0 
    3.3298   -0.1146    1.4091 N   0  0  0  0  0  0  0  0  0  0  0  0 
    3.6674   -0.2152   -0.0306 N   0  0  0  0  0  0  0  0  0  0  0  0 
    4.0258   -0.8744   -8.2976 O   0  0  0  0  0  0  0  0  0  0  0  0 
    5.0504   -2.2120   -6.6986 O   0  0  0  0  0  0  0  0  0  0  0  0 
    4.0394    3.2027   -0.4844 H   0  0  0  0  0  0  0  0  0  0  0  0 
    5.3851    2.0635   -0.3094 H   0  0  0  0  0  0  0  0  0  0  0  0 
    4.2156    2.2547    1.0126 H   0  0  0  0  0  0  0  0  0  0  0  0 
    3.6506    1.9334   -2.6521 H   0  0  0  0  0  0  0  0  0  0  0  0 
    4.7190    0.5764   -2.3496 H   0  0  0  0  0  0  0  0  0  0  0  0 
    1.6818    0.4123   -2.7632 H   0  0  0  0  0  0  0  0  0  0  0  0 
    2.7006   -0.9589   -2.3434 H   0  0  0  0  0  0  0  0  0  0  0  0 
    1.6633    1.3400   -5.0102 H   0  0  0  0  0  0  0  0  0  0  0  0 
    2.1816    1.0632   -7.4409 H   0  0  0  0  0  0  0  0  0  0  0  0 
    4.4083   -1.8375   -4.0060 H   0  0  0  0  0  0  0  0  0  0  0  0 
    5.9488   -1.6304   -8.4751 H   0  0  0  0  0  0  0  0  0  0  0  0 
    4.6143   -2.8350   -8.6275 H   0  0  0  0  0  0  0  0  0  0  0  0 
    2.4026    1.3509   -0.5113 H   0  0  0  0  0  0  0  0  0  0  0  0 
    3.4170   -1.0796    1.7386 H   0  0  0  0  0  0  0  0  0  0  0  0 
    2.3158    0.0302    1.4031 H   0  0  0  0  0  0  0  0  0  0  0  0 
    4.6804   -0.3641   -0.0188 H   0  0  0  0  0  0  0  0  0  0  0  0 
  1 18  1  0  0  0  0 
  2  8  1  0  0  0  0 
  3 21  1  0  0  0  0 
  3 22  1  0  0  0  0 
  3  2  1  0  0  0  0 
  4 23  1  0  0  0  0 
  4  9  2  0  0  0  0 
  5  4  1  0  0  0  0 
  6  9  1  0  0  0  0 
  6 25  1  0  0  0  0 
  7 15  1  0  0  0  0 
  8 28  1  1  0  0  0 
  8  1  1  0  0  0  0 
  8 13  1  0  0  0  0 
  9  3  1  0  0  0  0 
 10  5  2  0  0  0  0 
 10 11  1  0  0  0  0 
 11  6  2  0  0  0  0 
 12 29  1  0  0  0  0 
 13 31  1  0  0  0  0 
 13 12  1  0  0  0  0 
 14  7  1  0  0  0  0 
 14 10  1  0  0  0  0 
 15 11  1  0  0  0  0 
 16  1  1  0  0  0  0 
 17  1  1  0  0  0  0 
 19  2  1  0  0  0  0 
 20  2  1  0  0  0  0 
 24  5  1  0  0  0  0 
 26  7  1  0  0  0  0 
 27  7  1  0  0  0  0 
 30 12  1  0  0  0  0 
M  END 
>  <HBA> 
4 
 
>  <HBD> 
2 
 
>  <TPSA> 
56.51 
 
>  <cid> 
34042 
 
>  <dipole> 
0.42 
 
>  <excitation_energy_1> 
4.694 
 
>  <excitation_energy_2> 
4.753 
 
>  <excitation_energy_3> 
4.907 
 
>  <excitation_energy_4> 
5.071 
 
>  <homo_energy> 
-5.257 
 
>  <homo_lumo_gap> 
5.437 
 
>  <logP> 
2.291 
 
>  <lumo_energy> 
0.18 
 
>  <melting_point> 
122.05 
 
>  <molecular_refractivity> 
57.4 
 
>  <oscillator_strength_1> 
0.0801 
 
>  <oscillator_strength_2> 
0.0079 
 
>  <oscillator_strength_3> 
0.0031 
 
>  <oscillator_strength_4> 
0.0055 
 
>  <open_babel_can_smiles> 
NN[C@H](CCc1ccc2c(c1)OCO2)C 
 
>  <mulliken_charges> 
31 
1   -0.45236 
2   -0.252121 
3   -0.349625 
4   -0.201154 
5   -0.182455 
6   -0.239221 
7   0.196575 
8   0.037443 
9   0.160897 
10   0.327198 
11   0.334962 
12   -0.592513 
13   -0.465189 
14   -0.534587 
15   -0.53601 
16   0.137648 
17   0.131227 
18   0.174953 
19   0.137222 
20   0.12909 
21   0.13196 
22   0.164546 
23   0.121016 
24   0.140729 
25   0.136953 
26   0.156392 
27   0.157086 
28   0.120604 
29   0.305486 
30   0.303683 
31   0.299564 
 
>  <lowdin_charges> 
31 
1   -0.459213 
2   -0.273726 
3   -0.273673 
4   -0.17859 
5   -0.185845 
6   -0.195996 
7   0.01978 
8   -0.068472 
9   -0.00413 
10   0.066099 
11   0.072115 
12   -0.491272 
13   -0.316196 
14   -0.210053 
15   -0.209818 
16   0.148711 
17   0.141852 
18   0.163039 
19   0.146364 
20   0.139622 
21   0.143936 
22   0.15892 
23   0.156245 
24   0.169534 
25   0.168024 
26   0.145311 
27   0.147036 
28   0.130712 
29   0.253706 
30   0.249571 
31   0.246405 
 
$$$$ 
 
