PCCDB-ID:  15289 
public computational chemistry database (PCCDB) project, http://pccdb.org 
 
 16 15  0  0  1  0  0  0  0  0999 V2000 
    0.8411   -0.1266   -0.1678 C   0  0  0  0  0  0  0  0  0  0  0  0 
    5.3006    0.0534    1.7958 C   0  0  0  0  0  0  0  0  0  0  0  0 
    2.3402   -0.1874   -0.2294 C   0  0  0  0  0  0  0  0  0  0  0  0 
    3.1357   -0.6754    0.7249 C   0  0  0  0  0  0  0  0  0  0  0  0 
    4.6407   -0.7296    0.6553 C   0  0  2  0  0  0  0  0  0  0  0  0 
    5.1174   -2.0840    0.6303 O   0  0  0  0  0  0  0  0  0  0  0  0 
    0.4809    0.9077   -0.2525 H   0  0  0  0  0  0  0  0  0  0  0  0 
    0.4580   -0.5432    0.7699 H   0  0  0  0  0  0  0  0  0  0  0  0 
    0.3885   -0.6847   -0.9985 H   0  0  0  0  0  0  0  0  0  0  0  0 
    5.0310    1.1148    1.7559 H   0  0  0  0  0  0  0  0  0  0  0  0 
    6.3899   -0.0386    1.7344 H   0  0  0  0  0  0  0  0  0  0  0  0 
    4.9786   -0.3353    2.7717 H   0  0  0  0  0  0  0  0  0  0  0  0 
    2.7979    0.2037   -1.1403 H   0  0  0  0  0  0  0  0  0  0  0  0 
    2.6906   -1.0691    1.6437 H   0  0  0  0  0  0  0  0  0  0  0  0 
    4.9686   -0.3124   -0.3035 H   0  0  0  0  0  0  0  0  0  0  0  0 
    4.8380   -2.5024    1.4609 H   0  0  0  0  0  0  0  0  0  0  0  0 
  1  8  1  0  0  0  0 
  2 12  1  0  0  0  0 
  3  1  1  0  0  0  0 
  3  4  2  0  0  0  0 
  4 14  1  0  0  0  0 
  5 15  1  6  0  0  0 
  5  4  1  0  0  0  0 
  5  2  1  0  0  0  0 
  6  5  1  0  0  0  0 
  6 16  1  0  0  0  0 
  7  1  1  0  0  0  0 
  9  1  1  0  0  0  0 
 10  2  1  0  0  0  0 
 11  2  1  0  0  0  0 
 13  3  1  0  0  0  0 
M  END 
>  <HBA> 
1 
 
>  <HBD> 
1 
 
>  <TPSA> 
20.23 
 
>  <cid> 
15289 
 
>  <dipole> 
1.73 
 
>  <excitation_energy_1> 
6.227 
 
>  <excitation_energy_2> 
6.413 
 
>  <excitation_energy_3> 
6.49 
 
>  <excitation_energy_4> 
6.755 
 
>  <homo_energy> 
-6.656 
 
>  <homo_lumo_gap> 
7.222 
 
>  <logP> 
0.943 
 
>  <lumo_energy> 
0.566 
 
>  <melting_point> 
2.51 
 
>  <molecular_refractivity> 
26.84 
 
>  <oscillator_strength_1> 
0.0347 
 
>  <oscillator_strength_2> 
0.0115 
 
>  <oscillator_strength_3> 
0.0033 
 
>  <oscillator_strength_4> 
0.0102 
 
>  <open_babel_can_smiles> 
C/C=C/[C@H](O)C 
 
>  <mulliken_charges> 
16 
1   -0.488407 
2   -0.455902 
3   -0.09342 
4   -0.090266 
5   0.09216 
6   -0.615974 
7   0.156089 
8   0.152282 
9   0.15882 
10   0.148797 
11   0.157723 
12   0.130166 
13   0.124305 
14   0.105622 
15   0.138821 
16   0.379184 
 
>  <lowdin_charges> 
16 
1   -0.439467 
2   -0.455451 
3   -0.15446 
4   -0.188413 
5   0.005895 
6   -0.464656 
7   0.156572 
8   0.154723 
9   0.159864 
10   0.154324 
11   0.15583 
12   0.142528 
13   0.149395 
14   0.141 
15   0.14619 
16   0.336125 
 
$$$$ 
 
