PCCDB-ID:  30364 
public computational chemistry database (PCCDB) project, http://pccdb.org 
 
 24 26  0  0  0  0  0  0  0  0999 V2000 
    0.8448    0.1348    0.0785 C   0  0  0  0  0  0  0  0  0  0  0  0 
    6.4254   -4.5105    0.0780 C   0  0  0  0  0  0  0  0  0  0  0  0 
    5.3458   -5.4075    0.0771 C   0  0  0  0  0  0  0  0  0  0  0  0 
    4.5450    1.1465    0.0796 C   0  0  0  0  0  0  0  0  0  0  0  0 
    3.1439    1.2153    0.0786 C   0  0  0  0  0  0  0  0  0  0  0  0 
    6.2037   -3.1379    0.0784 C   0  0  0  0  0  0  0  0  0  0  0  0 
    5.1934   -0.0819    0.0790 C   0  0  0  0  0  0  0  0  0  0  0  0 
    4.0340   -4.9402    0.0772 C   0  0  0  0  0  0  0  0  0  0  0  0 
    2.3509    0.0657    0.0784 C   0  0  0  0  0  0  0  0  0  0  0  0 
    4.8908   -2.6421    0.0784 C   0  0  0  0  0  0  0  0  0  0  0  0 
    4.4332   -1.2611    0.0788 C   0  0  0  0  0  0  0  0  0  0  0  0 
    3.8171   -3.5605    0.0777 C   0  0  0  0  0  0  0  0  0  0  0  0 
    3.0243   -1.1655    0.0782 C   0  0  0  0  0  0  0  0  0  0  0  0 
    2.2439   -2.7548    0.0775 S   0  0  0  0  0  0  0  0  0  0  0  0 
    0.4964    1.1717    0.0717 H   0  0  0  0  0  0  0  0  0  0  0  0 
    0.4223   -0.3578    0.9640 H   0  0  0  0  0  0  0  0  0  0  0  0 
    0.4217   -0.3696   -0.8001 H   0  0  0  0  0  0  0  0  0  0  0  0 
    7.4424   -4.8920    0.0778 H   0  0  0  0  0  0  0  0  0  0  0  0 
    5.5325   -6.4778    0.0768 H   0  0  0  0  0  0  0  0  0  0  0  0 
    5.1256    2.0647    0.0794 H   0  0  0  0  0  0  0  0  0  0  0  0 
    2.6563    2.1872    0.0791 H   0  0  0  0  0  0  0  0  0  0  0  0 
    7.0445   -2.4493    0.0789 H   0  0  0  0  0  0  0  0  0  0  0  0 
    6.2788   -0.1311    0.0797 H   0  0  0  0  0  0  0  0  0  0  0  0 
    3.1986   -5.6344    0.0766 H   0  0  0  0  0  0  0  0  0  0  0  0 
  1 16  1  0  0  0  0 
  2  6  2  0  0  0  0 
  3  8  2  0  0  0  0 
  3  2  1  0  0  0  0 
  5 21  1  0  0  0  0 
  5  4  2  0  0  0  0 
  6 10  1  0  0  0  0 
  6 22  1  0  0  0  0 
  7  4  1  0  0  0  0 
  7 23  1  0  0  0  0 
  8 12  1  0  0  0  0 
  9  1  1  0  0  0  0 
  9  5  1  0  0  0  0 
 10 11  1  0  0  0  0 
 11  7  2  0  0  0  0 
 12 10  2  0  0  0  0 
 13  9  2  0  0  0  0 
 13 11  1  0  0  0  0 
 14 12  1  0  0  0  0 
 14 13  1  0  0  0  0 
 15  1  1  0  0  0  0 
 17  1  1  0  0  0  0 
 18  2  1  0  0  0  0 
 19  3  1  0  0  0  0 
 20  4  1  0  0  0  0 
 24  8  1  0  0  0  0 
M  END 
>  <HBA> 
1 
 
>  <HBD> 
0 
 
>  <TPSA> 
28.24 
 
>  <cid> 
30364 
 
>  <dipole> 
0.58 
 
>  <excitation_energy_1> 
4.102 
 
>  <excitation_energy_2> 
4.559 
 
>  <excitation_energy_3> 
4.917 
 
>  <excitation_energy_4> 
4.968 
 
>  <homo_energy> 
-5.755 
 
>  <homo_lumo_gap> 
4.882 
 
>  <logP> 
4.363 
 
>  <lumo_energy> 
-0.873 
 
>  <melting_point> 
97.06 
 
>  <molecular_refractivity> 
64.3 
 
>  <oscillator_strength_1> 
0.0356 
 
>  <oscillator_strength_2> 
0.1204 
 
>  <oscillator_strength_3> 
0.0113 
 
>  <oscillator_strength_4> 
0.0 
 
>  <open_babel_can_smiles> 
Cc1cccc2c1sc1c2cccc1 
 
>  <mulliken_charges> 
24 
1   -0.540224 
2   -0.147434 
3   -0.114612 
4   -0.143434 
5   -0.168328 
6   -0.165182 
7   -0.171019 
8   -0.184618 
9   0.141812 
10   0.098044 
11   0.121165 
12   -0.13624 
13   -0.222608 
14   0.205264 
15   0.157986 
16   0.172634 
17   0.172584 
18   0.131472 
19   0.1324 
20   0.13011 
21   0.123874 
22   0.133302 
23   0.131428 
24   0.141624 
 
>  <lowdin_charges> 
24 
1   -0.442577 
2   -0.160758 
3   -0.151402 
4   -0.161234 
5   -0.165388 
6   -0.154713 
7   -0.156351 
8   -0.164137 
9   -0.004609 
10   -0.018051 
11   -0.018186 
12   -0.124683 
13   -0.136099 
14   0.249763 
15   0.159 
16   0.166198 
17   0.166218 
18   0.158557 
19   0.158718 
20   0.159336 
21   0.156873 
22   0.16059 
23   0.157151 
24   0.165783 
 
$$$$ 
 
