PCCDB-ID:  69175 
public computational chemistry database (PCCDB) project, http://pccdb.org 
 
 22 22  0  0  0  0  0  0  0  0999 V2000 
    3.0383   -1.0165   -0.0312 C   0  0  0  0  0  0  0  0  0  0  0  0 
    5.0238   -0.6477   -4.6017 C   0  0  0  0  0  0  0  0  0  0  0  0 
    3.2352    3.1966   -2.3131 C   0  0  0  0  0  0  0  0  0  0  0  0 
    2.8902    2.4370   -1.2117 C   0  0  0  0  0  0  0  0  0  0  0  0 
    3.7775    0.4575   -2.3280 C   0  0  0  0  0  0  0  0  0  0  0  0 
    4.1983    3.4929   -4.5860 C   0  0  0  0  0  0  0  0  0  0  0  0 
    3.8529    2.6315   -3.4420 C   0  0  0  0  0  0  0  0  0  0  0  0 
    3.1633    1.0582   -1.2208 C   0  0  0  0  0  0  0  0  0  0  0  0 
    4.1218    1.2450   -3.4349 C   0  0  0  0  0  0  0  0  0  0  0  0 
    3.9743    4.6934   -4.6239 O   0  0  0  0  0  0  0  0  0  0  0  0 
    2.7950    0.3809   -0.1022 O   0  0  0  0  0  0  0  0  0  0  0  0 
    4.7229    0.7386   -4.5464 O   0  0  0  0  0  0  0  0  0  0  0  0 
    2.6654   -1.3341    0.9438 H   0  0  0  0  0  0  0  0  0  0  0  0 
    4.1103   -1.2419   -0.1009 H   0  0  0  0  0  0  0  0  0  0  0  0 
    2.5005   -1.5588   -0.8196 H   0  0  0  0  0  0  0  0  0  0  0  0 
    5.4960   -0.8096   -5.5720 H   0  0  0  0  0  0  0  0  0  0  0  0 
    4.1149   -1.2592   -4.5340 H   0  0  0  0  0  0  0  0  0  0  0  0 
    5.7205   -0.9399   -3.8057 H   0  0  0  0  0  0  0  0  0  0  0  0 
    3.0382    4.2640   -2.3386 H   0  0  0  0  0  0  0  0  0  0  0  0 
    2.4150    2.8700   -0.3382 H   0  0  0  0  0  0  0  0  0  0  0  0 
    3.9833   -0.6033   -2.3285 H   0  0  0  0  0  0  0  0  0  0  0  0 
    4.6878    2.9856   -5.4382 H   0  0  0  0  0  0  0  0  0  0  0  0 
  1 13  1  0  0  0  0 
  2 12  1  0  0  0  0 
  2 17  1  0  0  0  0 
  2 18  1  0  0  0  0 
  3  4  2  0  0  0  0 
  4 20  1  0  0  0  0 
  5  8  2  0  0  0  0 
  6  7  1  0  0  0  0 
  7  9  2  0  0  0  0 
  7  3  1  0  0  0  0 
  8  4  1  0  0  0  0 
  8 11  1  0  0  0  0 
  9  5  1  0  0  0  0 
 10  6  2  0  0  0  0 
 11  1  1  0  0  0  0 
 12  9  1  0  0  0  0 
 14  1  1  0  0  0  0 
 15  1  1  0  0  0  0 
 16  2  1  0  0  0  0 
 19  3  1  0  0  0  0 
 21  5  1  0  0  0  0 
 22  6  1  0  0  0  0 
M  END 
>  <HBA> 
3 
 
>  <HBD> 
0 
 
>  <TPSA> 
35.53 
 
>  <cid> 
69175 
 
>  <dipole> 
6.48 
 
>  <excitation_energy_1> 
3.679 
 
>  <excitation_energy_2> 
4.282 
 
>  <excitation_energy_3> 
4.84 
 
>  <excitation_energy_4> 
5.345 
 
>  <homo_energy> 
-6.014 
 
>  <homo_lumo_gap> 
4.814 
 
>  <logP> 
1.516 
 
>  <lumo_energy> 
-1.2 
 
>  <melting_point> 
49.3 
 
>  <molecular_refractivity> 
44.81 
 
>  <oscillator_strength_1> 
0.0001 
 
>  <oscillator_strength_2> 
0.1832 
 
>  <oscillator_strength_3> 
0.2109 
 
>  <oscillator_strength_4> 
0.0001 
 
>  <open_babel_can_smiles> 
COc1cc(OC)ccc1C=O 
 
>  <mulliken_charges> 
22 
1   -0.217804 
2   -0.216888 
3   -0.175845 
4   -0.174316 
5   -0.28211 
6   0.195174 
7   0.033106 
8   0.392134 
9   0.337908 
10   -0.428062 
11   -0.499816 
12   -0.508071 
13   0.177448 
14   0.155775 
15   0.155818 
16   0.178361 
17   0.156212 
18   0.156216 
19   0.166239 
20   0.142931 
21   0.137083 
22   0.118507 
 
>  <lowdin_charges> 
22 
1   -0.276003 
2   -0.27678 
3   -0.105908 
4   -0.200518 
5   -0.271006 
6   0.038625 
7   -0.102642 
8   0.125834 
9   0.123602 
10   -0.250319 
11   -0.185328 
12   -0.190904 
13   0.166936 
14   0.145925 
15   0.148886 
16   0.167381 
17   0.148336 
18   0.148766 
19   0.177167 
20   0.170831 
21   0.16702 
22   0.130099 
 
$$$$ 
 
