PCCDB-ID:  36147 
public computational chemistry database (PCCDB) project, http://pccdb.org 
 
 27 27  0  0  1  0  0  0  0  0999 V2000 
    0.7634   -0.4441    0.0813 C   0  0  0  0  0  0  0  0  0  0  0  0 
    2.7197    1.1330    0.0350 C   0  0  0  0  0  0  0  0  0  0  0  0 
    2.2387   -0.1517    0.0742 C   0  0  1  0  0  0  0  0  0  0  0  0 
    4.1376    1.3702    0.0167 C   0  0  0  0  0  0  0  0  0  0  0  0 
    4.2889    3.7280   -0.0704 C   0  0  0  0  0  0  0  0  0  0  0  0 
    6.5443   -2.2250    0.1276 C   0  0  0  0  0  0  0  0  0  0  0  0 
    4.3338   -1.0345    0.1009 C   0  0  0  0  0  0  0  0  0  0  0  0 
    3.0288    3.9993    0.0292 N   0  0  0  0  0  0  0  0  0  0  0  0 
    5.2931    4.6813   -0.2727 N   0  0  0  0  0  0  0  0  0  0  0  0 
    7.2546   -1.1659   -0.0227 N   0  0  0  0  0  0  0  0  0  0  0  0 
    6.9965   -3.5407    0.2256 N   0  0  0  0  0  0  0  0  0  0  0  0 
    3.0440   -1.2665    0.1136 N   0  0  0  0  0  0  0  0  0  0  0  0 
    4.8542    2.4573   -0.0356 N   0  0  0  0  0  0  0  0  0  0  0  0 
    4.8962    0.1895    0.0500 N   0  0  0  0  0  0  0  0  0  0  0  0 
    5.1564   -2.1548    0.1524 N   0  0  0  0  0  0  0  0  0  0  0  0 
    0.1720    0.4744    0.0569 H   0  0  0  0  0  0  0  0  0  0  0  0 
    0.4950   -1.0172    0.9769 H   0  0  0  0  0  0  0  0  0  0  0  0 
    0.4961   -1.0627   -0.7840 H   0  0  0  0  0  0  0  0  0  0  0  0 
    2.0753    1.9997    0.0128 H   0  0  0  0  0  0  0  0  0  0  0  0 
    2.8792    5.0099   -0.0376 H   0  0  0  0  0  0  0  0  0  0  0  0 
    5.0931    5.6116    0.0709 H   0  0  0  0  0  0  0  0  0  0  0  0 
    6.2187    4.3475   -0.0360 H   0  0  0  0  0  0  0  0  0  0  0  0 
    8.2525   -1.3597    0.0362 H   0  0  0  0  0  0  0  0  0  0  0  0 
    7.9968   -3.6261    0.3533 H   0  0  0  0  0  0  0  0  0  0  0  0 
    6.4826   -4.1397    0.8625 H   0  0  0  0  0  0  0  0  0  0  0  0 
    5.9189    0.2493   -0.0012 H   0  0  0  0  0  0  0  0  0  0  0  0 
    4.6243   -3.0111    0.0706 H   0  0  0  0  0  0  0  0  0  0  0  0 
  1 17  1  0  0  0  0 
  2  3  1  0  0  0  0 
  3  1  1  1  0  0  0 
  3 12  1  0  0  0  0 
  4  2  2  0  0  0  0 
  4 14  1  0  0  0  0 
  5 13  2  3  0  0  0 
  5  8  1  0  0  0  0 
  6 15  1  0  0  0  0 
  6 11  2  0  0  0  0 
  7 12  2  0  0  0  0 
  7 15  1  0  0  0  0 
  9  5  1  0  0  0  0 
  9 22  1  0  0  0  0 
  9 21  1  0  0  0  0 
 10 23  1  0  0  0  0 
 10  6  1  0  0  0  0 
 11 24  1  0  0  0  0 
 11 25  1  0  0  0  0 
 13  4  1  0  0  0  0 
 14  7  1  0  0  0  0 
 16  1  1  0  0  0  0 
 18  1  1  0  0  0  0 
 19  2  1  0  0  0  0 
 20  8  1  0  0  0  0 
 26 14  1  0  0  0  0 
 27 15  1  0  0  0  0 
M  RAD  2   8   2  10   2 
M  END 
>  <HBA> 
8 
 
>  <HBD> 
4 
 
>  <TPSA> 
154.58 
 
>  <cid> 
36147 
 
>  <dipole> 
6.96 
 
>  <excitation_energy_1> 
3.915 
 
>  <excitation_energy_2> 
4.283 
 
>  <excitation_energy_3> 
4.529 
 
>  <excitation_energy_4> 
4.663 
 
>  <homo_energy> 
-5.154 
 
>  <homo_lumo_gap> 
4.563 
 
>  <logP> 
1.396 
 
>  <lumo_energy> 
-0.59 
 
>  <melting_point> 
307.64 
 
>  <molecular_refractivity> 
56.25 
 
>  <oscillator_strength_1> 
0.1172 
 
>  <oscillator_strength_2> 
0.0032 
 
>  <oscillator_strength_3> 
0.0041 
 
>  <oscillator_strength_4> 
0.054 
 
>  <open_babel_can_smiles> 
C[C@@H]1N=C(NC(=[NH2])[NH])NC(=C1)/N=C(/N)\[NH] 
 
>  <mulliken_charges> 
27 
1   -0.506066 
2   -0.224098 
3   0.309497 
4   0.550881 
5   0.579469 
6   0.673761 
7   0.771942 
8   -0.661988 
9   -0.748007 
10   -0.679571 
11   -0.760105 
12   -0.58078 
13   -0.613179 
14   -0.694927 
15   -0.703149 
16   0.164311 
17   0.16549 
18   0.166552 
19   0.199506 
20   0.255267 
21   0.306135 
22   0.322698 
23   0.290061 
24   0.335146 
25   0.334386 
26   0.394523 
27   0.352245 
 
>  <lowdin_charges> 
27 
1   -0.441338 
2   -0.246826 
3   0.078526 
4   0.13355 
5   0.126655 
6   0.149457 
7   0.158181 
8   -0.487785 
9   -0.499286 
10   -0.466786 
11   -0.493437 
12   -0.243991 
13   -0.278902 
14   -0.182768 
15   -0.240259 
16   0.162758 
17   0.166329 
18   0.167023 
19   0.202228 
20   0.237091 
21   0.267153 
22   0.278641 
23   0.261053 
24   0.284466 
25   0.287441 
26   0.316638 
27   0.304187 
 
$$$$ 
 
