PCCDB-ID:  23240 
public computational chemistry database (PCCDB) project, http://pccdb.org 
 
 32 33  0  0  0  0  0  0  0  0999 V2000 
    8.3064    0.8710    3.0728 C   0  0  0  0  0  0  0  0  0  0  0  0 
    8.2738   -0.6494    2.8710 C   0  0  0  0  0  0  0  0  0  0  0  0 
    6.9838   -1.3249    3.3676 C   0  0  0  0  0  0  0  0  0  0  0  0 
    5.7389   -0.9999    2.5279 C   0  0  0  0  0  0  0  0  0  0  0  0 
    4.4466   -1.6812    3.0083 C   0  0  0  0  0  0  0  0  0  0  0  0 
   -1.0680   -3.7597    6.1876 C   0  0  0  0  0  0  0  0  0  0  0  0 
   -1.0320   -2.7105    7.1238 C   0  0  0  0  0  0  0  0  0  0  0  0 
   -0.0801   -3.9067    5.2128 C   0  0  0  0  0  0  0  0  0  0  0  0 
   -0.0034   -1.7646    7.1217 C   0  0  0  0  0  0  0  0  0  0  0  0 
    3.9592   -1.1551    4.3645 C   0  0  0  0  0  0  0  0  0  0  0  0 
    0.9540   -2.9674    5.1995 C   0  0  0  0  0  0  0  0  0  0  0  0 
    0.9639   -1.9317    6.1435 C   0  0  0  0  0  0  0  0  0  0  0  0 
    2.6877   -1.7839    4.8295 C   0  0  0  0  0  0  0  0  0  0  0  0 
    2.0785   -2.8326    4.3773 N   0  0  0  0  0  0  0  0  0  0  0  0 
    2.0790   -1.1678    5.9059 O   0  0  0  0  0  0  0  0  0  0  0  0 
    9.2752    1.2863    2.7728 H   0  0  0  0  0  0  0  0  0  0  0  0 
    8.1456    1.1295    4.1270 H   0  0  0  0  0  0  0  0  0  0  0  0 
    7.5347    1.3810    2.4850 H   0  0  0  0  0  0  0  0  0  0  0  0 
    9.1287   -1.0958    3.3964 H   0  0  0  0  0  0  0  0  0  0  0  0 
    8.4155   -0.8795    1.8055 H   0  0  0  0  0  0  0  0  0  0  0  0 
    6.8190   -1.0357    4.4156 H   0  0  0  0  0  0  0  0  0  0  0  0 
    7.1290   -2.4147    3.3716 H   0  0  0  0  0  0  0  0  0  0  0  0 
    5.9278   -1.3078    1.4899 H   0  0  0  0  0  0  0  0  0  0  0  0 
    5.5816    0.0877    2.4985 H   0  0  0  0  0  0  0  0  0  0  0  0 
    4.5911   -2.7663    3.0730 H   0  0  0  0  0  0  0  0  0  0  0  0 
    3.6540   -1.5245    2.2670 H   0  0  0  0  0  0  0  0  0  0  0  0 
   -1.8872   -4.4720    6.2282 H   0  0  0  0  0  0  0  0  0  0  0  0 
   -1.8203   -2.6325    7.8671 H   0  0  0  0  0  0  0  0  0  0  0  0 
   -0.1070   -4.7168    4.4910 H   0  0  0  0  0  0  0  0  0  0  0  0 
    0.0387   -0.9513    7.8385 H   0  0  0  0  0  0  0  0  0  0  0  0 
    3.8063   -0.0680    4.3226 H   0  0  0  0  0  0  0  0  0  0  0  0 
    4.7203   -1.3168    5.1406 H   0  0  0  0  0  0  0  0  0  0  0  0 
  1 17  1  0  0  0  0 
  2  1  1  0  0  0  0 
  2  3  1  0  0  0  0 
  2 19  1  0  0  0  0 
  3 22  1  0  0  0  0 
  3 21  1  0  0  0  0 
  4  5  1  0  0  0  0 
  4  3  1  0  0  0  0 
  5 25  1  0  0  0  0 
  5 10  1  0  0  0  0 
  6 27  1  0  0  0  0 
  6  7  2  0  0  0  0 
  7 28  1  0  0  0  0 
  8  6  1  0  0  0  0 
  9  7  1  0  0  0  0 
  9 30  1  0  0  0  0 
 10 13  1  0  0  0  0 
 10 32  1  0  0  0  0 
 11  8  2  0  0  0  0 
 11 12  1  0  0  0  0 
 12  9  2  0  0  0  0 
 13 15  1  0  0  0  0 
 14 13  2  0  0  0  0 
 14 11  1  0  0  0  0 
 15 12  1  0  0  0  0 
 16  1  1  0  0  0  0 
 18  1  1  0  0  0  0 
 20  2  1  0  0  0  0 
 23  4  1  0  0  0  0 
 24  4  1  0  0  0  0 
 26  5  1  0  0  0  0 
 29  8  1  0  0  0  0 
 31 10  1  0  0  0  0 
M  END 
>  <HBA> 
2 
 
>  <HBD> 
0 
 
>  <TPSA> 
26.03 
 
>  <cid> 
23240 
 
>  <dipole> 
1.05 
 
>  <excitation_energy_1> 
5.037 
 
>  <excitation_energy_2> 
5.4 
 
>  <excitation_energy_3> 
5.952 
 
>  <excitation_energy_4> 
5.972 
 
>  <homo_energy> 
-6.264 
 
>  <homo_lumo_gap> 
5.725 
 
>  <logP> 
3.951 
 
>  <lumo_energy> 
-0.539 
 
>  <melting_point> 
63.9 
 
>  <molecular_refractivity> 
63.01 
 
>  <oscillator_strength_1> 
0.093 
 
>  <oscillator_strength_2> 
0.2084 
 
>  <oscillator_strength_3> 
0.004 
 
>  <oscillator_strength_4> 
0.0014 
 
>  <open_babel_can_smiles> 
CCCCCCc1nc2c(o1)cccc2 
 
>  <mulliken_charges> 
32 
1   -0.44387 
2   -0.249059 
3   -0.255071 
4   -0.25992 
5   -0.254814 
6   -0.144184 
7   -0.144972 
8   -0.173147 
9   -0.186421 
10   -0.364352 
11   0.237003 
12   0.329801 
13   0.529133 
14   -0.527549 
15   -0.512393 
16   0.143828 
17   0.140426 
18   0.145936 
19   0.132342 
20   0.131321 
21   0.128586 
22   0.131499 
23   0.133664 
24   0.131306 
25   0.15624 
26   0.148759 
27   0.131139 
28   0.132964 
29   0.144069 
30   0.145457 
31   0.166861 
32   0.175416 
 
>  <lowdin_charges> 
32 
1   -0.447336 
2   -0.271766 
3   -0.275168 
4   -0.274561 
5   -0.267023 
6   -0.165254 
7   -0.157702 
8   -0.157491 
9   -0.176932 
10   -0.280259 
11   0.006512 
12   0.069104 
13   0.132122 
14   -0.183139 
15   -0.126241 
16   0.150547 
17   0.144287 
18   0.148013 
19   0.143454 
20   0.137987 
21   0.134827 
22   0.139674 
23   0.143132 
24   0.136847 
25   0.151889 
26   0.153559 
27   0.160147 
28   0.160985 
29   0.168819 
30   0.169995 
31   0.162856 
32   0.168118 
 
$$$$ 
 
