PCCDB-ID:  27962 
public computational chemistry database (PCCDB) project, http://pccdb.org 
 
 28 30  0  0  1  0  0  0  0  0999 V2000 
    1.7179   -1.1497    0.3116 C   0  0  0  0  0  0  0  0  0  0  0  0 
    2.2083    0.0477   -0.0104 C   0  0  0  0  0  0  0  0  0  0  0  0 
   -2.5262   -0.0893    0.6130 C   0  0  0  0  0  0  0  0  0  0  0  0 
   -1.9453    1.0231    1.0633 C   0  0  0  0  0  0  0  0  0  0  0  0 
    0.3103   -1.5818    0.0070 C   0  0  0  0  0  0  0  0  0  0  0  0 
    1.4357    1.0863   -0.7741 C   0  0  0  0  0  0  0  0  0  0  0  0 
   -2.0310   -0.8420   -0.5931 C   0  0  0  0  0  0  0  0  0  0  0  0 
   -0.7089    1.6338    0.4669 C   0  0  0  0  0  0  0  0  0  0  0  0 
   -0.3504   -0.7333   -2.3938 C   0  0  0  0  0  0  0  0  0  0  0  0 
   -0.5940    1.4020   -2.1221 C   0  0  0  0  0  0  0  0  0  0  0  0 
   -0.5069   -0.6155   -0.8741 C   0  0  2  0  0  0  0  0  0  0  0  0 
   -0.1156    0.8892   -0.7397 C   0  0  1  0  0  0  0  0  0  0  0  0 
   -0.4773    0.3523   -3.0748 N   0  0  0  0  0  0  0  0  0  0  0  0 
   -0.2032   -1.9075   -3.0142 O   0  0  0  0  0  0  0  0  0  0  0  0 
   -0.9555    2.5282   -2.3748 O   0  0  0  0  0  0  0  0  0  0  0  0 
    2.3357   -1.8642    0.8529 H   0  0  0  0  0  0  0  0  0  0  0  0 
    3.2354    0.2973    0.2514 H   0  0  0  0  0  0  0  0  0  0  0  0 
   -3.4246   -0.4713    1.0944 H   0  0  0  0  0  0  0  0  0  0  0  0 
   -2.3687    1.5399    1.9234 H   0  0  0  0  0  0  0  0  0  0  0  0 
   -0.2313   -1.7120    0.9547 H   0  0  0  0  0  0  0  0  0  0  0  0 
    0.3216   -2.5945   -0.4338 H   0  0  0  0  0  0  0  0  0  0  0  0 
    1.8002    1.0895   -1.8112 H   0  0  0  0  0  0  0  0  0  0  0  0 
    1.6578    2.0903   -0.3918 H   0  0  0  0  0  0  0  0  0  0  0  0 
   -2.6225   -0.5432   -1.4696 H   0  0  0  0  0  0  0  0  0  0  0  0 
   -2.2081   -1.9196   -0.4712 H   0  0  0  0  0  0  0  0  0  0  0  0 
    0.0513    1.7174    1.2565 H   0  0  0  0  0  0  0  0  0  0  0  0 
   -0.9199    2.6631    0.1423 H   0  0  0  0  0  0  0  0  0  0  0  0 
   -0.1144   -2.6142   -2.3535 H   0  0  0  0  0  0  0  0  0  0  0  0 
  1 16  1  0  0  0  0 
  2 17  1  0  0  0  0 
  2  1  2  0  0  0  0 
  3  4  2  0  0  0  0 
  3 18  1  0  0  0  0 
  4 19  1  0  0  0  0 
  5  1  1  0  0  0  0 
  5 20  1  0  0  0  0 
  6 12  1  0  0  0  0 
  6 23  1  0  0  0  0 
  6  2  1  0  0  0  0 
  7 25  1  0  0  0  0 
  7  3  1  0  0  0  0 
  8  4  1  0  0  0  0 
  8 26  1  0  0  0  0 
 11  9  1  6  0  0  0 
 11 12  1  0  0  0  0 
 11  7  1  0  0  0  0 
 11  5  1  0  0  0  0 
 12 10  1  6  0  0  0 
 12  8  1  0  0  0  0 
 13  9  2  0  0  0  0 
 13 10  1  0  0  0  0 
 14  9  1  0  0  0  0 
 14 28  1  0  0  0  0 
 15 10  2  0  0  0  0 
 21  5  1  0  0  0  0 
 22  6  1  0  0  0  0 
 24  7  1  0  0  0  0 
 27  8  1  0  0  0  0 
M  END 
>  <HBA> 
3 
 
>  <HBD> 
1 
 
>  <TPSA> 
46.17 
 
>  <cid> 
27962 
 
>  <dipole> 
6.37 
 
>  <excitation_energy_1> 
4.21 
 
>  <excitation_energy_2> 
4.995 
 
>  <excitation_energy_3> 
5.266 
 
>  <excitation_energy_4> 
5.388 
 
>  <homo_energy> 
-6.572 
 
>  <homo_lumo_gap> 
5.682 
 
>  <logP> 
1.644 
 
>  <lumo_energy> 
-0.89 
 
>  <melting_point> 
164.1 
 
>  <molecular_refractivity> 
59.1 
 
>  <oscillator_strength_1> 
0.0006 
 
>  <oscillator_strength_2> 
0.0008 
 
>  <oscillator_strength_3> 
0.0047 
 
>  <oscillator_strength_4> 
0.0007 
 
>  <open_babel_can_smiles> 
O=C1N=C([C@]23[C@@]1(CC=CC3)CC=CC2)O 
 
>  <mulliken_charges> 
28 
1   -0.101825 
2   -0.099846 
3   -0.114062 
4   -0.091442 
5   -0.3498 
6   -0.343552 
7   -0.325485 
8   -0.348362 
9   0.517841 
10   0.525152 
11   -0.02306 
12   0.006438 
13   -0.46266 
14   -0.573826 
15   -0.463191 
16   0.131132 
17   0.134646 
18   0.130401 
19   0.130996 
20   0.176102 
21   0.117465 
22   0.17688 
23   0.166684 
24   0.181204 
25   0.141568 
26   0.150909 
27   0.186367 
28   0.423328 
 
>  <lowdin_charges> 
28 
1   -0.182245 
2   -0.164212 
3   -0.185507 
4   -0.15947 
5   -0.275807 
6   -0.272055 
7   -0.273178 
8   -0.278652 
9   0.151391 
10   0.155762 
11   -0.027033 
12   -0.023534 
13   -0.203682 
14   -0.311962 
15   -0.228583 
16   0.159046 
17   0.158465 
18   0.157735 
19   0.158714 
20   0.168537 
21   0.134922 
22   0.165937 
23   0.163457 
24   0.168086 
25   0.148286 
26   0.156875 
27   0.174256 
28   0.364451 
 
$$$$ 
 
