PCCDB-ID:  6579 
public computational chemistry database (PCCDB) project, http://pccdb.org 
 
 10  9  0  0  0  0  0  0  0  0999 V2000 
    1.0383    0.1314    0.0426 C   0  0  0  0  0  0  0  0  0  0  0  0 
    2.3553   -0.0336   -0.1182 C   0  0  0  0  0  0  0  0  0  0  0  0 
    3.0040   -0.5843   -1.3358 C   0  0  0  0  0  0  0  0  0  0  0  0 
    4.1557   -1.1257   -1.3846 N   0  0  0  0  0  0  0  0  0  0  0  0 
    2.2827   -0.5382   -2.4914 O   0  0  0  0  0  0  0  0  0  0  0  0 
    0.6257    0.5196    0.9688 H   0  0  0  0  0  0  0  0  0  0  0  0 
    0.3170   -0.1434   -0.7240 H   0  0  0  0  0  0  0  0  0  0  0  0 
    3.0342    0.2096    0.6967 H   0  0  0  0  0  0  0  0  0  0  0  0 
    4.5707   -1.1413   -0.4510 H   0  0  0  0  0  0  0  0  0  0  0  0 
    1.5788    0.1215   -2.3950 H   0  0  0  0  0  0  0  0  0  0  0  0 
  1  6  1  0  0  0  0 
  2  1  2  0  0  0  0 
  2  8  1  0  0  0  0 
  3  2  1  0  0  0  0 
  4  3  2  0  0  0  0 
  4  9  1  0  0  0  0 
  5 10  1  0  0  0  0 
  5  3  1  0  0  0  0 
  7  1  1  0  0  0  0 
M  END 
>  <HBA> 
2 
 
>  <HBD> 
1 
 
>  <TPSA> 
43.09 
 
>  <cid> 
6579 
 
>  <dipole> 
4.21 
 
>  <excitation_energy_1> 
4.854 
 
>  <excitation_energy_2> 
5.574 
 
>  <excitation_energy_3> 
6.348 
 
>  <excitation_energy_4> 
6.624 
 
>  <homo_energy> 
-7.129 
 
>  <homo_lumo_gap> 
5.913 
 
>  <logP> 
0.358 
 
>  <lumo_energy> 
-1.216 
 
>  <melting_point> 
30.47 
 
>  <molecular_refractivity> 
18.97 
 
>  <oscillator_strength_1> 
0.0045 
 
>  <oscillator_strength_2> 
0.2069 
 
>  <oscillator_strength_3> 
0.0113 
 
>  <oscillator_strength_4> 
0.1131 
 
>  <open_babel_can_smiles> 
OC(=N)C=C 
 
>  <mulliken_charges> 
10 
1   -0.352296 
2   -0.11464 
3   0.45779 
4   -0.574546 
5   -0.579011 
6   0.165608 
7   0.154671 
8   0.150907 
9   0.286997 
10   0.404518 
 
>  <lowdin_charges> 
10 
1   -0.315934 
2   -0.183045 
3   0.120408 
4   -0.377025 
5   -0.363673 
6   0.173678 
7   0.163428 
8   0.168912 
9   0.25663 
10   0.35662 
 
$$$$ 
 
