PCCDB-ID:  71100 
public computational chemistry database (PCCDB) project, http://pccdb.org 
 
 29 30  0  0  0  0  0  0  0  0999 V2000 
    1.8571   -0.1902   -0.6431 C   0  0  0  0  0  0  0  0  0  0  0  0 
    6.8276    4.3084   -2.3753 C   0  0  0  0  0  0  0  0  0  0  0  0 
    6.3987    5.1528   -1.3507 C   0  0  0  0  0  0  0  0  0  0  0  0 
    6.1393    3.1193   -2.6306 C   0  0  0  0  0  0  0  0  0  0  0  0 
    5.2554   -1.3781    0.6564 C   0  0  0  0  0  0  0  0  0  0  0  0 
    5.7868   -0.1930    1.1645 C   0  0  0  0  0  0  0  0  0  0  0  0 
    3.9875   -1.3659    0.0713 C   0  0  0  0  0  0  0  0  0  0  0  0 
    5.2794    4.8136   -0.5905 C   0  0  0  0  0  0  0  0  0  0  0  0 
    5.0295    2.7708   -1.8642 C   0  0  0  0  0  0  0  0  0  0  0  0 
    5.0588    0.9918    1.0726 C   0  0  0  0  0  0  0  0  0  0  0  0 
    3.2329   -0.1932   -0.0245 C   0  0  0  0  0  0  0  0  0  0  0  0 
    4.5868    3.6167   -0.8364 C   0  0  0  0  0  0  0  0  0  0  0  0 
    3.7909    1.0089    0.4692 C   0  0  0  0  0  0  0  0  0  0  0  0 
    3.3674    3.2837   -0.0335 C   0  0  0  0  0  0  0  0  0  0  0  0 
    2.9968    2.1665    0.4449 N   0  0  0  0  0  0  0  0  0  0  0  0 
    2.5403    4.3453    0.2070 O   0  0  0  0  0  0  0  0  0  0  0  0 
    1.4992   -1.2110   -0.8109 H   0  0  0  0  0  0  0  0  0  0  0  0 
    1.8436    0.3314   -1.6096 H   0  0  0  0  0  0  0  0  0  0  0  0 
    1.1430    0.3356    0.0003 H   0  0  0  0  0  0  0  0  0  0  0  0 
    7.6951    4.5743   -2.9730 H   0  0  0  0  0  0  0  0  0  0  0  0 
    6.9334    6.0753   -1.1421 H   0  0  0  0  0  0  0  0  0  0  0  0 
    6.4671    2.4617   -3.4307 H   0  0  0  0  0  0  0  0  0  0  0  0 
    5.8144   -2.3073    0.7256 H   0  0  0  0  0  0  0  0  0  0  0  0 
    6.7656   -0.1870    1.6373 H   0  0  0  0  0  0  0  0  0  0  0  0 
    3.5643   -2.2914   -0.3137 H   0  0  0  0  0  0  0  0  0  0  0  0 
    4.9580    5.4657    0.2181 H   0  0  0  0  0  0  0  0  0  0  0  0 
    4.5006    1.8444   -2.0608 H   0  0  0  0  0  0  0  0  0  0  0  0 
    5.4588    1.9151    1.4817 H   0  0  0  0  0  0  0  0  0  0  0  0 
    2.7903    5.0704   -0.3878 H   0  0  0  0  0  0  0  0  0  0  0  0 
  1 11  1  0  0  0  0 
  1 19  1  0  0  0  0 
  2  3  1  0  0  0  0 
  3 21  1  0  0  0  0 
  3  8  2  0  0  0  0 
  4  2  2  0  0  0  0 
  4  9  1  0  0  0  0 
  5 23  1  0  0  0  0 
  5  6  2  0  0  0  0 
  6 24  1  0  0  0  0 
  7  5  1  0  0  0  0 
  8 26  1  0  0  0  0 
  9 12  2  0  0  0  0 
 10  6  1  0  0  0  0 
 10 28  1  0  0  0  0 
 11  7  2  0  0  0  0 
 11 13  1  0  0  0  0 
 12  8  1  0  0  0  0 
 12 14  1  0  0  0  0 
 13 10  2  0  0  0  0 
 14 16  1  0  0  0  0 
 14 15  2  0  0  0  0 
 15 13  1  0  0  0  0 
 17  1  1  0  0  0  0 
 18  1  1  0  0  0  0 
 20  2  1  0  0  0  0 
 22  4  1  0  0  0  0 
 25  7  1  0  0  0  0 
 27  9  1  0  0  0  0 
 29 16  1  0  0  0  0 
M  END 
>  <HBA> 
2 
 
>  <HBD> 
1 
 
>  <TPSA> 
29.1 
 
>  <cid> 
71100 
 
>  <dipole> 
4.21 
 
>  <excitation_energy_1> 
3.559 
 
>  <excitation_energy_2> 
4.256 
 
>  <excitation_energy_3> 
4.405 
 
>  <excitation_energy_4> 
4.924 
 
>  <homo_energy> 
-5.554 
 
>  <homo_lumo_gap> 
4.4 
 
>  <logP> 
3.32 
 
>  <lumo_energy> 
-1.154 
 
>  <melting_point> 
104.82 
 
>  <molecular_refractivity> 
65.62 
 
>  <oscillator_strength_1> 
0.0409 
 
>  <oscillator_strength_2> 
0.0156 
 
>  <oscillator_strength_3> 
0.0025 
 
>  <oscillator_strength_4> 
0.0388 
 
>  <open_babel_can_smiles> 
Cc1ccccc1/N=C(\c1ccccc1)/O 
 
>  <mulliken_charges> 
29 
1   -0.521277 
2   -0.120973 
3   -0.130294 
4   -0.135935 
5   -0.125971 
6   -0.144713 
7   -0.199898 
8   -0.191818 
9   -0.14397 
10   -0.138924 
11   0.151829 
12   0.056571 
13   0.185042 
14   0.410842 
15   -0.478996 
16   -0.575067 
17   0.144463 
18   0.150166 
19   0.179961 
20   0.14064 
21   0.140835 
22   0.143462 
23   0.12064 
24   0.123435 
25   0.117999 
26   0.147758 
27   0.16281 
28   0.125112 
29   0.406272 
 
>  <lowdin_charges> 
29 
1   -0.441281 
2   -0.144888 
3   -0.152373 
4   -0.149743 
5   -0.173298 
6   -0.158412 
7   -0.167153 
8   -0.169453 
9   -0.137439 
10   -0.181026 
11   -0.018116 
12   -0.045634 
13   0.036018 
14   0.141869 
15   -0.164503 
16   -0.359498 
17   0.151216 
18   0.153539 
19   0.17161 
20   0.16362 
21   0.163244 
22   0.165505 
23   0.154612 
24   0.154395 
25   0.152913 
26   0.164681 
27   0.175094 
28   0.157906 
29   0.356598 
 
$$$$ 
 
