PCCDB-ID:  14516 
public computational chemistry database (PCCDB) project, http://pccdb.org 
 
 17 17  0  0  0  0  0  0  0  0999 V2000 
    1.1191   -0.2150    0.3863 C   0  0  0  0  0  0  0  0  0  0  0  0 
    4.3666    0.8938    4.2611 C   0  0  0  0  0  0  0  0  0  0  0  0 
    4.5242   -0.3957    3.7486 C   0  0  0  0  0  0  0  0  0  0  0  0 
    3.7605    1.8879    3.4876 C   0  0  0  0  0  0  0  0  0  0  0  0 
    4.0701   -0.7005    2.4639 C   0  0  0  0  0  0  0  0  0  0  0  0 
    3.3073    1.5935    2.2011 C   0  0  0  0  0  0  0  0  0  0  0  0 
    3.4532    0.2947    1.7098 C   0  0  0  0  0  0  0  0  0  0  0  0 
    3.3817   -1.5383   -0.2648 O   0  0  0  0  0  0  0  0  0  0  0  0 
    2.9193   -0.1246    0.0138 S   0  0  1  0  0  0  0  0  0  0  0  0 
    0.7630    0.7592    0.7329 H   0  0  0  0  0  0  0  0  0  0  0  0 
    0.9542   -0.9823    1.1471 H   0  0  0  0  0  0  0  0  0  0  0  0 
    0.6142   -0.4935   -0.5424 H   0  0  0  0  0  0  0  0  0  0  0  0 
    4.7238    1.1287    5.2600 H   0  0  0  0  0  0  0  0  0  0  0  0 
    5.0050   -1.1642    4.3481 H   0  0  0  0  0  0  0  0  0  0  0  0 
    3.6479    2.8938    3.8831 H   0  0  0  0  0  0  0  0  0  0  0  0 
    4.1895   -1.6885    2.0280 H   0  0  0  0  0  0  0  0  0  0  0  0 
    2.8516    2.3696    1.5897 H   0  0  0  0  0  0  0  0  0  0  0  0 
  1 10  1  0  0  0  0 
  1 11  1  0  0  0  0 
  2 13  1  0  0  0  0 
  3  2  1  0  0  0  0 
  3 14  1  0  0  0  0 
  4 15  1  0  0  0  0 
  4  2  2  0  0  0  0 
  5  3  2  0  0  0  0 
  6  4  1  0  0  0  0 
  7  6  2  0  0  0  0 
  7  5  1  0  0  0  0 
  9  8  2  1  0  0  0 
  9  1  1  0  0  0  0 
  9  7  1  0  0  0  0 
 12  1  1  0  0  0  0 
 16  5  1  0  0  0  0 
 17  6  1  0  0  0  0 
M  END 
>  <HBA> 
1 
 
>  <HBD> 
0 
 
>  <TPSA> 
36.28 
 
>  <cid> 
14516 
 
>  <dipole> 
3.92 
 
>  <excitation_energy_1> 
4.637 
 
>  <excitation_energy_2> 
4.878 
 
>  <excitation_energy_3> 
5.44 
 
>  <excitation_energy_4> 
5.643 
 
>  <homo_energy> 
-6.101 
 
>  <homo_lumo_gap> 
5.467 
 
>  <logP> 
2.29 
 
>  <lumo_energy> 
-0.634 
 
>  <melting_point> 
26.46 
 
>  <molecular_refractivity> 
38.85 
 
>  <oscillator_strength_1> 
0.0555 
 
>  <oscillator_strength_2> 
0.0086 
 
>  <oscillator_strength_3> 
0.0136 
 
>  <oscillator_strength_4> 
0.0206 
 
>  <open_babel_can_smiles> 
C[S@](=O)c1ccccc1 
 
>  <mulliken_charges> 
17 
1   -0.626618 
2   -0.125212 
3   -0.12195 
4   -0.122786 
5   -0.144899 
6   -0.154506 
7   -0.153438 
8   -0.631236 
9   0.764717 
10   0.178034 
11   0.202204 
12   0.194713 
13   0.138004 
14   0.140924 
15   0.138638 
16   0.182716 
17   0.140694 
 
>  <lowdin_charges> 
17 
1   -0.593768 
2   -0.14854 
3   -0.148341 
4   -0.150247 
5   -0.14985 
6   -0.162042 
7   -0.173199 
8   -0.671109 
9   0.828156 
10   0.174993 
11   0.180921 
12   0.180334 
13   0.160987 
14   0.164414 
15   0.161271 
16   0.182694 
17   0.163325 
 
$$$$ 
 
