PCCDB-ID:  22662 
public computational chemistry database (PCCDB) project, http://pccdb.org 
 
 32 33  0  0  0  0  0  0  0  0999 V2000 
    1.3032   -1.7045    1.2029 C   0  0  0  0  0  0  0  0  0  0  0  0 
    4.9747    1.1956    0.3784 C   0  0  0  0  0  0  0  0  0  0  0  0 
    2.6593   -2.3892    1.2151 C   0  0  0  0  0  0  0  0  0  0  0  0 
    7.2594   -4.8068    1.3671 C   0  0  0  0  0  0  0  0  0  0  0  0 
    8.7525   -4.9109    1.0487 C   0  0  0  0  0  0  0  0  0  0  0  0 
    5.4288   -3.0594    1.2934 C   0  0  0  0  0  0  0  0  0  0  0  0 
    7.2604   -1.0011    1.5576 C   0  0  0  0  0  0  0  0  0  0  0  0 
    9.2122   -2.6039    1.6066 C   0  0  0  0  0  0  0  0  0  0  0  0 
    6.7969   -3.3620    1.3893 C   0  0  0  0  0  0  0  0  0  0  0  0 
    7.7232   -2.3239    1.5317 C   0  0  0  0  0  0  0  0  0  0  0  0 
    5.9099   -0.6952    1.4636 C   0  0  0  0  0  0  0  0  0  0  0  0 
    4.9697   -1.7433    1.3369 C   0  0  0  0  0  0  0  0  0  0  0  0 
    9.4763   -4.0037    1.9389 N   0  0  0  0  0  0  0  0  0  0  0  0 
    5.5139    0.6188    1.5681 O   0  0  0  0  0  0  0  0  0  0  0  0 
    3.6553   -1.3705    1.2727 O   0  0  0  0  0  0  0  0  0  0  0  0 
    0.5039   -2.4531    1.1769 H   0  0  0  0  0  0  0  0  0  0  0  0 
    1.2027   -1.0595    0.3241 H   0  0  0  0  0  0  0  0  0  0  0  0 
    1.1758   -1.0892    2.0988 H   0  0  0  0  0  0  0  0  0  0  0  0 
    5.7054    1.1581   -0.4414 H   0  0  0  0  0  0  0  0  0  0  0  0 
    4.7576    2.2393    0.6192 H   0  0  0  0  0  0  0  0  0  0  0  0 
    4.0532    0.6922    0.0698 H   0  0  0  0  0  0  0  0  0  0  0  0 
    2.7983   -2.9994    0.3107 H   0  0  0  0  0  0  0  0  0  0  0  0 
    2.7561   -3.0522    2.0866 H   0  0  0  0  0  0  0  0  0  0  0  0 
    7.0803   -5.2634    2.3502 H   0  0  0  0  0  0  0  0  0  0  0  0 
    6.6764   -5.3820    0.6360 H   0  0  0  0  0  0  0  0  0  0  0  0 
    8.9186   -4.6839   -0.0234 H   0  0  0  0  0  0  0  0  0  0  0  0 
    9.1058   -5.9328    1.2251 H   0  0  0  0  0  0  0  0  0  0  0  0 
    4.7234   -3.8777    1.1909 H   0  0  0  0  0  0  0  0  0  0  0  0 
    7.9559   -0.1726    1.6688 H   0  0  0  0  0  0  0  0  0  0  0  0 
    9.6691   -1.9713    2.3782 H   0  0  0  0  0  0  0  0  0  0  0  0 
    9.6737   -2.3056    0.6421 H   0  0  0  0  0  0  0  0  0  0  0  0 
   10.4767   -4.1783    1.8769 H   0  0  0  0  0  0  0  0  0  0  0  0 
  1  3  1  0  0  0  0 
  1 18  1  0  0  0  0 
  2 20  1  0  0  0  0 
  2 14  1  0  0  0  0 
  3 15  1  0  0  0  0 
  3 23  1  0  0  0  0 
  4  9  1  0  0  0  0 
  4 24  1  0  0  0  0 
  5 27  1  0  0  0  0 
  5  4  1  0  0  0  0 
  5 13  1  0  0  0  0 
  6 12  2  0  0  0  0 
  6  9  1  0  0  0  0 
  7 29  1  0  0  0  0 
  8 13  1  0  0  0  0 
  8 30  1  0  0  0  0 
  9 10  2  0  0  0  0 
 10  7  1  0  0  0  0 
 10  8  1  0  0  0  0 
 11  7  2  0  0  0  0 
 11 14  1  0  0  0  0 
 12 11  1  0  0  0  0 
 15 12  1  0  0  0  0 
 16  1  1  0  0  0  0 
 17  1  1  0  0  0  0 
 19  2  1  0  0  0  0 
 21  2  1  0  0  0  0 
 22  3  1  0  0  0  0 
 25  4  1  0  0  0  0 
 26  5  1  0  0  0  0 
 28  6  1  0  0  0  0 
 31  8  1  0  0  0  0 
 32 13  1  0  0  0  0 
M  END 
>  <HBA> 
3 
 
>  <HBD> 
1 
 
>  <TPSA> 
30.49 
 
>  <cid> 
22662 
 
>  <dipole> 
2.49 
 
>  <excitation_energy_1> 
4.768 
 
>  <excitation_energy_2> 
5.061 
 
>  <excitation_energy_3> 
5.221 
 
>  <excitation_energy_4> 
5.233 
 
>  <homo_energy> 
-5.456 
 
>  <homo_lumo_gap> 
5.704 
 
>  <logP> 
2.068 
 
>  <lumo_energy> 
0.248 
 
>  <melting_point> 
72.64 
 
>  <molecular_refractivity> 
63.57 
 
>  <oscillator_strength_1> 
0.0572 
 
>  <oscillator_strength_2> 
0.024 
 
>  <oscillator_strength_3> 
0.0141 
 
>  <oscillator_strength_4> 
0.0106 
 
>  <open_babel_can_smiles> 
CCOc1cc2CCNCc2cc1OC 
 
>  <mulliken_charges> 
32 
1   -0.458028 
2   -0.20832 
3   -0.025561 
4   -0.319965 
5   -0.148024 
6   -0.281566 
7   -0.239834 
8   -0.19824 
9   0.124471 
10   0.111091 
11   0.312296 
12   0.360489 
13   -0.552793 
14   -0.523849 
15   -0.523843 
16   0.147989 
17   0.159943 
18   0.167227 
19   0.134921 
20   0.155035 
21   0.159154 
22   0.138308 
23   0.142635 
24   0.159994 
25   0.134548 
26   0.114846 
27   0.134843 
28   0.125217 
29   0.125012 
30   0.150189 
31   0.124338 
32   0.297479 
 
>  <lowdin_charges> 
32 
1   -0.449126 
2   -0.275428 
3   -0.123617 
4   -0.278373 
5   -0.199888 
6   -0.219402 
7   -0.1793 
8   -0.201903 
9   -0.011677 
10   -0.029361 
11   0.067963 
12   0.078913 
13   -0.361383 
14   -0.226205 
15   -0.201205 
16   0.157507 
17   0.158117 
18   0.162103 
19   0.136824 
20   0.152622 
21   0.14777 
22   0.136826 
23   0.140075 
24   0.157173 
25   0.148731 
26   0.114639 
27   0.144434 
28   0.159797 
29   0.162954 
30   0.153329 
31   0.12374 
32   0.25335 
 
$$$$ 
 
