PCCDB-ID:  11194 
public computational chemistry database (PCCDB) project, http://pccdb.org 
 
 17 16  0  0  0  0  0  0  0  0999 V2000 
    0.7551    0.7914   -0.3304 C   0  0  0  0  0  0  0  0  0  0  0  0 
    6.7627    0.5838   -0.4200 C   0  0  0  0  0  0  0  0  0  0  0  0 
    1.8672    0.4283   -0.9676 C   0  0  0  0  0  0  0  0  0  0  0  0 
    6.4925    1.5173   -1.3301 C   0  0  0  0  0  0  0  0  0  0  0  0 
    2.8201    1.3854   -1.6199 C   0  0  0  0  0  0  0  0  0  0  0  0 
    5.1190    1.8779   -1.8178 C   0  0  0  0  0  0  0  0  0  0  0  0 
    4.1371    1.0906   -1.1810 O   0  0  0  0  0  0  0  0  0  0  0  0 
    0.0761    0.0591    0.0977 H   0  0  0  0  0  0  0  0  0  0  0  0 
    0.4771    1.8370   -0.2144 H   0  0  0  0  0  0  0  0  0  0  0  0 
    7.7833    0.3740   -0.1124 H   0  0  0  0  0  0  0  0  0  0  0  0 
    5.9705    0.0051    0.0434 H   0  0  0  0  0  0  0  0  0  0  0  0 
    2.1309   -0.6244   -1.0624 H   0  0  0  0  0  0  0  0  0  0  0  0 
    7.2977    2.0934   -1.7865 H   0  0  0  0  0  0  0  0  0  0  0  0 
    2.5496    2.4273   -1.3795 H   0  0  0  0  0  0  0  0  0  0  0  0 
    2.7663    1.2811   -2.7198 H   0  0  0  0  0  0  0  0  0  0  0  0 
    5.0679    1.7441   -2.9157 H   0  0  0  0  0  0  0  0  0  0  0  0 
    4.9320    2.9534   -1.6351 H   0  0  0  0  0  0  0  0  0  0  0  0 
  1  9  1  0  0  0  0 
  1  8  1  0  0  0  0 
  2 10  1  0  0  0  0 
  2 11  1  0  0  0  0 
  3  1  2  0  0  0  0 
  4  2  2  0  0  0  0 
  5 14  1  0  0  0  0 
  5  7  1  0  0  0  0 
  5  3  1  0  0  0  0 
  6 17  1  0  0  0  0 
  6  4  1  0  0  0  0 
  6  7  1  0  0  0  0 
 12  3  1  0  0  0  0 
 13  4  1  0  0  0  0 
 15  5  1  0  0  0  0 
 16  6  1  0  0  0  0 
M  END 
>  <HBA> 
1 
 
>  <HBD> 
0 
 
>  <TPSA> 
9.23 
 
>  <cid> 
11194 
 
>  <dipole> 
1.3 
 
>  <excitation_energy_1> 
6.056 
 
>  <excitation_energy_2> 
6.353 
 
>  <excitation_energy_3> 
6.448 
 
>  <excitation_energy_4> 
6.548 
 
>  <homo_energy> 
-6.713 
 
>  <homo_lumo_gap> 
7.053 
 
>  <logP> 
1.375 
 
>  <lumo_energy> 
0.34 
 
>  <melting_point> 
-76.71 
 
>  <molecular_refractivity> 
31.09 
 
>  <oscillator_strength_1> 
0.0073 
 
>  <oscillator_strength_2> 
0.0209 
 
>  <oscillator_strength_3> 
0.0146 
 
>  <oscillator_strength_4> 
0.0673 
 
>  <open_babel_can_smiles> 
C=CCOCC=C 
 
>  <mulliken_charges> 
17 
1   -0.33612 
2   -0.319366 
3   -0.052006 
4   -0.098617 
5   -0.052556 
6   -0.027253 
7   -0.473919 
8   0.145478 
9   0.139912 
10   0.134954 
11   0.160703 
12   0.141753 
13   0.126872 
14   0.12674 
15   0.128091 
16   0.127088 
17   0.128246 
 
>  <lowdin_charges> 
17 
1   -0.328634 
2   -0.333444 
3   -0.147031 
4   -0.166368 
5   -0.118647 
6   -0.120216 
7   -0.265586 
8   0.16298 
9   0.155013 
10   0.157061 
11   0.169932 
12   0.158132 
13   0.154867 
14   0.130658 
15   0.130297 
16   0.129917 
17   0.131068 
 
$$$$ 
 
