PCCDB-ID:  69743 
public computational chemistry database (PCCDB) project, http://pccdb.org 
 
 21 23  0  0  0  0  0  0  0  0999 V2000 
   -2.0434   -0.9171   -0.1607 C   0  0  0  0  0  0  0  0  0  0  0  0 
   -2.2968    0.4694   -0.0271 C   0  0  0  0  0  0  0  0  0  0  0  0 
   -0.7500   -1.3874   -0.2082 C   0  0  0  0  0  0  0  0  0  0  0  0 
   -1.2527    1.3632    0.0571 C   0  0  0  0  0  0  0  0  0  0  0  0 
    1.6944   -0.9705   -0.1721 C   0  0  0  0  0  0  0  0  0  0  0  0 
    1.1826    1.8304    0.0984 C   0  0  0  0  0  0  0  0  0  0  0  0 
    0.3527   -0.4967   -0.1250 C   0  0  0  0  0  0  0  0  0  0  0  0 
    0.0944    0.9166    0.0114 C   0  0  0  0  0  0  0  0  0  0  0  0 
    2.7098   -0.0534   -0.0852 C   0  0  0  0  0  0  0  0  0  0  0  0 
    2.4574    1.3282    0.0484 C   0  0  0  0  0  0  0  0  0  0  0  0 
    4.1784   -0.2400   -0.1062 C   0  0  0  0  0  0  0  0  0  0  0  0 
    3.7658    2.0181    0.1122 C   0  0  0  0  0  0  0  0  0  0  0  0 
    4.8407   -1.2353   -0.2030 O   0  0  0  0  0  0  0  0  0  0  0  0 
    4.0336    3.1817    0.2243 O   0  0  0  0  0  0  0  0  0  0  0  0 
    4.7561    1.0312    0.0145 O   0  0  0  0  0  0  0  0  0  0  0  0 
   -2.8765   -1.6112   -0.2245 H   0  0  0  0  0  0  0  0  0  0  0  0 
   -3.3220    0.8264    0.0096 H   0  0  0  0  0  0  0  0  0  0  0  0 
   -0.5540   -2.4516   -0.3094 H   0  0  0  0  0  0  0  0  0  0  0  0 
   -1.4455    2.4278    0.1612 H   0  0  0  0  0  0  0  0  0  0  0  0 
    1.9004   -2.0322   -0.2737 H   0  0  0  0  0  0  0  0  0  0  0  0 
    0.9999    2.8963    0.2020 H   0  0  0  0  0  0  0  0  0  0  0  0 
  1  2  1  0  0  0  0 
  2 17  1  0  0  0  0 
  2  4  2  0  0  0  0 
  3  1  2  0  0  0  0 
  3  7  1  0  0  0  0 
  4 19  1  0  0  0  0 
  5  7  2  0  0  0  0 
  5  9  1  0  0  0  0 
  6 21  1  0  0  0  0 
  7  8  1  0  0  0  0 
  8  4  1  0  0  0  0 
  8  6  2  0  0  0  0 
  9 10  2  0  0  0  0 
 10  6  1  0  0  0  0 
 10 12  1  0  0  0  0 
 11  9  1  0  0  0  0 
 11 15  1  0  0  0  0 
 12 14  2  0  0  0  0 
 13 11  2  0  0  0  0 
 15 12  1  0  0  0  0 
 16  1  1  0  0  0  0 
 18  3  1  0  0  0  0 
 20  5  1  0  0  0  0 
M  END 
>  <HBA> 
3 
 
>  <HBD> 
0 
 
>  <TPSA> 
43.37 
 
>  <cid> 
69743 
 
>  <dipole> 
7.04 
 
>  <excitation_energy_1> 
3.796 
 
>  <excitation_energy_2> 
4.017 
 
>  <excitation_energy_3> 
4.181 
 
>  <excitation_energy_4> 
4.541 
 
>  <homo_energy> 
-6.811 
 
>  <homo_lumo_gap> 
4.46 
 
>  <logP> 
2.15 
 
>  <lumo_energy> 
-2.351 
 
>  <melting_point> 
134.41 
 
>  <molecular_refractivity> 
53.69 
 
>  <oscillator_strength_1> 
0.0831 
 
>  <oscillator_strength_2> 
0.0178 
 
>  <oscillator_strength_3> 
0.0001 
 
>  <oscillator_strength_4> 
0.0 
 
>  <open_babel_can_smiles> 
O=C1OC(=O)c2c1cc1ccccc1c2 
 
>  <mulliken_charges> 
21 
1   -0.131029 
2   -0.131298 
3   -0.183216 
4   -0.183282 
5   -0.2479 
6   -0.248084 
7   0.135046 
8   0.135245 
9   0.042768 
10   0.043166 
11   0.584149 
12   0.58409 
13   -0.42685 
14   -0.426842 
15   -0.483946 
16   0.147991 
17   0.148026 
18   0.148519 
19   0.148555 
20   0.172454 
21   0.172438 
 
>  <lowdin_charges> 
21 
1   -0.144091 
2   -0.141878 
3   -0.145435 
4   -0.145356 
5   -0.114012 
6   -0.113472 
7   0.009342 
8   0.00905 
9   -0.053288 
10   -0.052946 
11   0.213009 
12   0.20733 
13   -0.194554 
14   -0.192207 
15   -0.16466 
16   0.168332 
17   0.166546 
18   0.165357 
19   0.165301 
20   0.178831 
21   0.178802 
 
$$$$ 
 
