PCCDB-ID:  10363 
public computational chemistry database (PCCDB) project, http://pccdb.org 
 
 27 27  0  0  1  0  0  0  0  0999 V2000 
    3.5104    0.3359   -0.9414 C   0  0  0  0  0  0  0  0  0  0  0  0 
    1.7569   -1.4017   -0.3812 C   0  0  0  0  0  0  0  0  0  0  0  0 
    2.8233    0.0032    5.1519 C   0  0  0  0  0  0  0  0  0  0  0  0 
    4.2229    1.1303    3.3106 C   0  0  0  0  0  0  0  0  0  0  0  0 
    3.1661    1.1594    2.1986 C   0  0  0  0  0  0  0  0  0  0  0  0 
    3.4293   -1.3108    2.0660 C   0  0  0  0  0  0  0  0  0  0  0  0 
    2.4360   -0.1044    0.0789 C   0  0  0  0  0  0  0  0  0  0  0  0 
    4.0628   -0.0858    4.2385 C   0  0  2  0  0  0  0  0  0  0  0  0 
    3.0320   -0.1638    1.4765 C   0  0  0  0  0  0  0  0  0  0  0  0 
    3.9926   -1.3831    3.4284 C   0  0  0  0  0  0  0  0  0  0  0  0 
    4.3443   -2.4515    3.9129 O   0  0  0  0  0  0  0  0  0  0  0  0 
    3.0610    0.4787   -1.9308 H   0  0  0  0  0  0  0  0  0  0  0  0 
    4.2915   -0.4279   -1.0285 H   0  0  0  0  0  0  0  0  0  0  0  0 
    3.9908    1.2775   -0.6538 H   0  0  0  0  0  0  0  0  0  0  0  0 
    1.2619   -1.2448   -1.3460 H   0  0  0  0  0  0  0  0  0  0  0  0 
    1.0033   -1.7386    0.3385 H   0  0  0  0  0  0  0  0  0  0  0  0 
    2.4820   -2.2125   -0.5149 H   0  0  0  0  0  0  0  0  0  0  0  0 
    2.8739    0.8977    5.7838 H   0  0  0  0  0  0  0  0  0  0  0  0 
    2.7714   -0.8756    5.8021 H   0  0  0  0  0  0  0  0  0  0  0  0 
    1.8919    0.0486    4.5754 H   0  0  0  0  0  0  0  0  0  0  0  0 
    4.1824    2.0585    3.8945 H   0  0  0  0  0  0  0  0  0  0  0  0 
    5.2166    1.0922    2.8447 H   0  0  0  0  0  0  0  0  0  0  0  0 
    3.4000    1.9535    1.4779 H   0  0  0  0  0  0  0  0  0  0  0  0 
    2.1799    1.4266    2.6104 H   0  0  0  0  0  0  0  0  0  0  0  0 
    3.3346   -2.2717    1.5680 H   0  0  0  0  0  0  0  0  0  0  0  0 
    1.6686    0.6851    0.1007 H   0  0  0  0  0  0  0  0  0  0  0  0 
    4.9457   -0.1741    4.8823 H   0  0  0  0  0  0  0  0  0  0  0  0 
  1 14  1  0  0  0  0 
  1  7  1  0  0  0  0 
  2  7  1  0  0  0  0 
  2 16  1  0  0  0  0 
  3 18  1  0  0  0  0 
  3 19  1  0  0  0  0 
  4 21  1  0  0  0  0 
  4  8  1  0  0  0  0 
  5 24  1  0  0  0  0 
  5  4  1  0  0  0  0 
  6 10  1  0  0  0  0 
  7 26  1  0  0  0  0 
  7  9  1  0  0  0  0 
  8 27  1  1  0  0  0 
  8  3  1  0  0  0  0 
  9  6  2  0  0  0  0 
  9  5  1  0  0  0  0 
 10 11  2  0  0  0  0 
 10  8  1  0  0  0  0 
 12  1  1  0  0  0  0 
 13  1  1  0  0  0  0 
 15  2  1  0  0  0  0 
 17  2  1  0  0  0  0 
 20  3  1  0  0  0  0 
 22  4  1  0  0  0  0 
 23  5  1  0  0  0  0 
 25  6  1  0  0  0  0 
M  END 
>  <HBA> 
1 
 
>  <HBD> 
0 
 
>  <TPSA> 
17.07 
 
>  <cid> 
10363 
 
>  <dipole> 
4.05 
 
>  <excitation_energy_1> 
3.603 
 
>  <excitation_energy_2> 
5.521 
 
>  <excitation_energy_3> 
5.772 
 
>  <excitation_energy_4> 
6.189 
 
>  <homo_energy> 
-6.207 
 
>  <homo_lumo_gap> 
5.061 
 
>  <logP> 
2.568 
 
>  <lumo_energy> 
-1.146 
 
>  <melting_point> 
27.96 
 
>  <molecular_refractivity> 
47.8 
 
>  <oscillator_strength_1> 
0.0006 
 
>  <oscillator_strength_2> 
0.3596 
 
>  <oscillator_strength_3> 
0.0029 
 
>  <oscillator_strength_4> 
0.0029 
 
>  <open_babel_can_smiles> 
O=C1C=C(CC[C@H]1C)C(C)C 
 
>  <mulliken_charges> 
27 
1   -0.443583 
2   -0.448603 
3   -0.456156 
4   -0.279233 
5   -0.348252 
6   -0.237366 
7   -0.147055 
8   -0.160156 
9   0.18222 
10   0.444503 
11   -0.488537 
12   0.150157 
13   0.155313 
14   0.147788 
15   0.145146 
16   0.153793 
17   0.153207 
18   0.146713 
19   0.169661 
20   0.145998 
21   0.135143 
22   0.145632 
23   0.150805 
24   0.159996 
25   0.136938 
26   0.135358 
27   0.150571 
 
>  <lowdin_charges> 
27 
1   -0.439185 
2   -0.445141 
3   -0.44144 
4   -0.275717 
5   -0.282042 
6   -0.226134 
7   -0.122361 
8   -0.153114 
9   0.031864 
10   0.149378 
11   -0.256664 
12   0.152678 
13   0.154572 
14   0.150246 
15   0.152399 
16   0.156163 
17   0.152656 
18   0.151405 
19   0.163953 
20   0.148395 
21   0.146863 
22   0.147559 
23   0.154854 
24   0.157125 
25   0.166617 
26   0.146169 
27   0.158905 
 
$$$$ 
 
