PCCDB-ID:  67029 
public computational chemistry database (PCCDB) project, http://pccdb.org 
 
 27 29  0  0  0  0  0  0  0  0999 V2000 
    3.6981    0.6942   -0.1021 C   0  0  0  0  0  0  0  0  0  0  0  0 
    3.6896   -0.7051   -0.1071 C   0  0  0  0  0  0  0  0  0  0  0  0 
    2.4970    1.3993   -0.0799 C   0  0  0  0  0  0  0  0  0  0  0  0 
    2.4804   -1.3966   -0.0898 C   0  0  0  0  0  0  0  0  0  0  0  0 
   -2.4764    1.4262    0.0105 C   0  0  0  0  0  0  0  0  0  0  0  0 
   -2.4939   -1.3632   -0.0041 C   0  0  0  0  0  0  0  0  0  0  0  0 
    1.2782    0.7125   -0.0619 C   0  0  0  0  0  0  0  0  0  0  0  0 
    1.2699   -0.6962   -0.0668 C   0  0  0  0  0  0  0  0  0  0  0  0 
   -1.2676    0.7261   -0.0148 C   0  0  0  0  0  0  0  0  0  0  0  0 
   -1.2683   -0.6817   -0.0210 C   0  0  0  0  0  0  0  0  0  0  0  0 
   -3.7023    0.7555    0.0323 C   0  0  0  0  0  0  0  0  0  0  0  0 
   -3.6877   -0.6647    0.0213 C   0  0  0  0  0  0  0  0  0  0  0  0 
    0.0057    1.4942   -0.0390 C   0  0  0  0  0  0  0  0  0  0  0  0 
   -0.0127   -1.4628   -0.0484 C   0  0  0  0  0  0  0  0  0  0  0  0 
   -4.9137    1.4113    0.1117 N   0  0  0  0  0  0  0  0  0  0  0  0 
   -4.9207   -1.2622    0.0278 O   0  0  0  0  0  0  0  0  0  0  0  0 
    0.0155    2.7219   -0.0412 O   0  0  0  0  0  0  0  0  0  0  0  0 
   -0.0166   -2.6926   -0.0562 O   0  0  0  0  0  0  0  0  0  0  0  0 
    4.6419    1.2324   -0.1157 H   0  0  0  0  0  0  0  0  0  0  0  0 
    4.6271   -1.2543   -0.1248 H   0  0  0  0  0  0  0  0  0  0  0  0 
    2.4760    2.4842   -0.0755 H   0  0  0  0  0  0  0  0  0  0  0  0 
    2.4464   -2.4811   -0.0930 H   0  0  0  0  0  0  0  0  0  0  0  0 
   -2.4432    2.5116    0.0184 H   0  0  0  0  0  0  0  0  0  0  0  0 
   -2.4791   -2.4504   -0.0150 H   0  0  0  0  0  0  0  0  0  0  0  0 
   -4.9299    2.3763   -0.1871 H   0  0  0  0  0  0  0  0  0  0  0  0 
   -5.7277    0.8740   -0.1539 H   0  0  0  0  0  0  0  0  0  0  0  0 
   -4.8080   -2.2252    0.0036 H   0  0  0  0  0  0  0  0  0  0  0  0 
  1  3  1  0  0  0  0 
  2  1  2  0  0  0  0 
  2  4  1  0  0  0  0 
  3 21  1  0  0  0  0 
  3  7  2  0  0  0  0 
  4  8  2  0  0  0  0 
  5 23  1  0  0  0  0 
  5 11  2  0  0  0  0 
  6 12  2  0  0  0  0 
  7 13  1  0  0  0  0 
  8  7  1  0  0  0  0 
  8 14  1  0  0  0  0 
  9  5  1  0  0  0  0 
 10  9  2  0  0  0  0 
 10  6  1  0  0  0  0 
 11 15  1  0  0  0  0 
 12 16  1  0  0  0  0 
 12 11  1  0  0  0  0 
 13  9  1  0  0  0  0 
 14 10  1  0  0  0  0 
 17 13  2  0  0  0  0 
 18 14  2  0  0  0  0 
 19  1  1  0  0  0  0 
 20  2  1  0  0  0  0 
 22  4  1  0  0  0  0 
 24  6  1  0  0  0  0 
 25 15  1  0  0  0  0 
 26 15  1  0  0  0  0 
 27 16  1  0  0  0  0 
M  END 
>  <HBA> 
4 
 
>  <HBD> 
2 
 
>  <TPSA> 
80.39 
 
>  <cid> 
67029 
 
>  <dipole> 
2.29 
 
>  <excitation_energy_1> 
2.759 
 
>  <excitation_energy_2> 
3.018 
 
>  <excitation_energy_3> 
3.28 
 
>  <excitation_energy_4> 
3.564 
 
>  <homo_energy> 
-5.772 
 
>  <homo_lumo_gap> 
3.29 
 
>  <logP> 
2.331 
 
>  <lumo_energy> 
-2.482 
 
>  <melting_point> 
214.01 
 
>  <molecular_refractivity> 
66.18 
 
>  <oscillator_strength_1> 
0.037 
 
>  <oscillator_strength_2> 
0.0 
 
>  <oscillator_strength_3> 
0.0 
 
>  <oscillator_strength_4> 
0.0091 
 
>  <open_babel_can_smiles> 
O=C1c2cc(O)c(cc2C(=O)c2c1cccc2)N 
 
>  <mulliken_charges> 
27 
1   -0.126201 
2   -0.125909 
3   -0.174733 
4   -0.175625 
5   -0.25264 
6   -0.258991 
7   0.047448 
8   0.049122 
9   0.050354 
10   0.041627 
11   0.328625 
12   0.335535 
13   0.340469 
14   0.339451 
15   -0.80004 
16   -0.66432 
17   -0.487473 
18   -0.496455 
19   0.1417 
20   0.141756 
21   0.165159 
22   0.16508 
23   0.156734 
24   0.155566 
25   0.333817 
26   0.349538 
27   0.420406 
 
>  <lowdin_charges> 
27 
1   -0.142588 
2   -0.141534 
3   -0.12723 
4   -0.128251 
5   -0.168939 
6   -0.177498 
7   -0.036469 
8   -0.03406 
9   -0.040612 
10   -0.05361 
11   0.053849 
12   0.081061 
13   0.150986 
14   0.146997 
15   -0.464355 
16   -0.379987 
17   -0.249047 
18   -0.258626 
19   0.163801 
20   0.163856 
21   0.176067 
22   0.17613 
23   0.174021 
24   0.173157 
25   0.284742 
26   0.29296 
27   0.365177 
 
$$$$ 
 
