PCCDB-ID:  68497 
public computational chemistry database (PCCDB) project, http://pccdb.org 
 
 29 30  0  0  0  0  0  0  0  0999 V2000 
    1.0243   -0.7316    1.7642 C   0  0  0  0  0  0  0  0  0  0  0  0 
   10.9947   -0.2885   -2.4628 C   0  0  0  0  0  0  0  0  0  0  0  0 
   10.5593   -1.6155   -2.5106 C   0  0  0  0  0  0  0  0  0  0  0  0 
   10.2235    0.6719   -1.8065 C   0  0  0  0  0  0  0  0  0  0  0  0 
    9.3559   -1.9780   -1.9113 C   0  0  0  0  0  0  0  0  0  0  0  0 
    9.0132    0.3110   -1.2135 C   0  0  0  0  0  0  0  0  0  0  0  0 
    3.2325   -1.8307    1.1673 C   0  0  0  0  0  0  0  0  0  0  0  0 
    2.9192    0.4661    0.5734 C   0  0  0  0  0  0  0  0  0  0  0  0 
    4.5203   -1.8199    0.6346 C   0  0  0  0  0  0  0  0  0  0  0  0 
    4.2026    0.5008    0.0366 C   0  0  0  0  0  0  0  0  0  0  0  0 
    2.4062   -0.7000    1.1539 C   0  0  0  0  0  0  0  0  0  0  0  0 
    8.5628   -1.0161   -1.2706 C   0  0  0  0  0  0  0  0  0  0  0  0 
    5.0181   -0.6402    0.0605 C   0  0  0  0  0  0  0  0  0  0  0  0 
    7.2781   -1.4941   -0.6482 C   0  0  0  0  0  0  0  0  0  0  0  0 
    6.3087   -0.5264   -0.5003 N   0  0  0  0  0  0  0  0  0  0  0  0 
    7.1270   -2.6669   -0.3216 O   0  0  0  0  0  0  0  0  0  0  0  0 
    0.5349   -1.6979    1.5990 H   0  0  0  0  0  0  0  0  0  0  0  0 
    0.3816    0.0478    1.3413 H   0  0  0  0  0  0  0  0  0  0  0  0 
    1.0609   -0.5700    2.8501 H   0  0  0  0  0  0  0  0  0  0  0  0 
   11.9358   -0.0061   -2.9270 H   0  0  0  0  0  0  0  0  0  0  0  0 
   11.1610   -2.3678   -3.0132 H   0  0  0  0  0  0  0  0  0  0  0  0 
   10.5670    1.7009   -1.7467 H   0  0  0  0  0  0  0  0  0  0  0  0 
    9.0078   -3.0055   -1.9243 H   0  0  0  0  0  0  0  0  0  0  0  0 
    8.4481    1.0653   -0.6714 H   0  0  0  0  0  0  0  0  0  0  0  0 
    2.8605   -2.7554    1.6036 H   0  0  0  0  0  0  0  0  0  0  0  0 
    2.3070    1.3644    0.5380 H   0  0  0  0  0  0  0  0  0  0  0  0 
    5.1378   -2.7066    0.6492 H   0  0  0  0  0  0  0  0  0  0  0  0 
    4.5744    1.4218   -0.4093 H   0  0  0  0  0  0  0  0  0  0  0  0 
    6.5081    0.3697   -0.9221 H   0  0  0  0  0  0  0  0  0  0  0  0 
  1 19  1  0  0  0  0 
  2  4  1  0  0  0  0 
  3  2  2  0  0  0  0 
  3  5  1  0  0  0  0 
  4 22  1  0  0  0  0 
  4  6  2  0  0  0  0 
  5 12  2  0  0  0  0 
  6 24  1  0  0  0  0 
  7 25  1  0  0  0  0 
  8 11  2  0  0  0  0 
  9 27  1  0  0  0  0 
  9  7  2  0  0  0  0 
 10 13  2  0  0  0  0 
 10  8  1  0  0  0  0 
 11  7  1  0  0  0  0 
 11  1  1  0  0  0  0 
 12  6  1  0  0  0  0 
 12 14  1  0  0  0  0 
 13  9  1  0  0  0  0 
 14 15  1  0  0  0  0 
 14 16  2  0  0  0  0 
 15 13  1  0  0  0  0 
 17  1  1  0  0  0  0 
 18  1  1  0  0  0  0 
 20  2  1  0  0  0  0 
 21  3  1  0  0  0  0 
 23  5  1  0  0  0  0 
 26  8  1  0  0  0  0 
 28 10  1  0  0  0  0 
 29 15  1  0  0  0  0 
M  END 
>  <HBA> 
2 
 
>  <HBD> 
1 
 
>  <TPSA> 
29.1 
 
>  <cid> 
68497 
 
>  <dipole> 
3.26 
 
>  <excitation_energy_1> 
4.079 
 
>  <excitation_energy_2> 
4.463 
 
>  <excitation_energy_3> 
4.721 
 
>  <excitation_energy_4> 
4.742 
 
>  <homo_energy> 
-5.744 
 
>  <homo_lumo_gap> 
4.61 
 
>  <logP> 
3.32 
 
>  <lumo_energy> 
-1.135 
 
>  <melting_point> 
104.82 
 
>  <molecular_refractivity> 
65.62 
 
>  <oscillator_strength_1> 
0.3209 
 
>  <oscillator_strength_2> 
0.0053 
 
>  <oscillator_strength_3> 
0.016 
 
>  <oscillator_strength_4> 
0.0066 
 
>  <open_babel_can_smiles> 
Cc1ccc(cc1)NC(=O)c1ccccc1 
 
>  <mulliken_charges> 
29 
1   -0.5302 
2   -0.120312 
3   -0.135451 
4   -0.133925 
5   -0.151097 
6   -0.186717 
7   -0.197826 
8   -0.18666 
9   -0.157668 
10   -0.197463 
11   0.184394 
12   0.062787 
13   0.357753 
14   0.57245 
15   -0.738005 
16   -0.510899 
17   0.158268 
18   0.153502 
19   0.164151 
20   0.137339 
21   0.139393 
22   0.136363 
23   0.164838 
24   0.130761 
25   0.125706 
26   0.122065 
27   0.185628 
28   0.117962 
29   0.332861 
 
>  <lowdin_charges> 
29 
1   -0.441032 
2   -0.1443 
3   -0.153188 
4   -0.153463 
5   -0.130779 
6   -0.166891 
7   -0.157246 
8   -0.162056 
9   -0.178815 
10   -0.189308 
11   -0.009428 
12   -0.038623 
13   0.056692 
14   0.163071 
15   -0.232644 
16   -0.293786 
17   0.15854 
18   0.157142 
19   0.15869 
20   0.161403 
21   0.163792 
22   0.15992 
23   0.176921 
24   0.157341 
25   0.156751 
26   0.155532 
27   0.188319 
28   0.151422 
29   0.286022 
 
$$$$ 
 
