PCCDB-ID:  15680 
public computational chemistry database (PCCDB) project, http://pccdb.org 
 
 30 31  0  0  0  0  0  0  0  0999 V2000 
    3.2297   -2.6643    4.0387 C   0  0  0  0  0  0  0  0  0  0  0  0 
   11.3169    2.3057    3.2882 C   0  0  0  0  0  0  0  0  0  0  0  0 
    4.8916   -2.4875    2.1333 C   0  0  0  0  0  0  0  0  0  0  0  0 
    3.9615   -0.4575    3.0339 C   0  0  0  0  0  0  0  0  0  0  0  0 
    8.8999    2.5693    2.5839 C   0  0  0  0  0  0  0  0  0  0  0  0 
   10.1754    0.7641    1.6291 C   0  0  0  0  0  0  0  0  0  0  0  0 
    5.6280   -1.7495    1.2067 C   0  0  0  0  0  0  0  0  0  0  0  0 
    4.6887    0.2932    2.1113 C   0  0  0  0  0  0  0  0  0  0  0  0 
    7.7884    2.1904    1.8336 C   0  0  0  0  0  0  0  0  0  0  0  0 
    9.0699    0.3708    0.8742 C   0  0  0  0  0  0  0  0  0  0  0  0 
    4.0499   -1.8572    3.0596 C   0  0  0  0  0  0  0  0  0  0  0  0 
   10.1097    1.8644    2.4941 C   0  0  0  0  0  0  0  0  0  0  0  0 
    5.5313   -0.3611    1.2131 C   0  0  0  0  0  0  0  0  0  0  0  0 
    7.8788    1.0798    0.9941 C   0  0  0  0  0  0  0  0  0  0  0  0 
    6.9955   -0.4445   -1.0330 O   0  0  0  0  0  0  0  0  0  0  0  0 
    6.4630    0.5784   -0.0490 S   0  0  0  0  0  0  0  0  0  0  0  0 
    3.6642   -3.6557    4.2024 H   0  0  0  0  0  0  0  0  0  0  0  0 
    2.2056   -2.8127    3.6711 H   0  0  0  0  0  0  0  0  0  0  0  0 
    3.1549   -2.1624    5.0096 H   0  0  0  0  0  0  0  0  0  0  0  0 
   11.0422    2.5928    4.3093 H   0  0  0  0  0  0  0  0  0  0  0  0 
   11.7989    3.1773    2.8260 H   0  0  0  0  0  0  0  0  0  0  0  0 
   12.0674    1.5112    3.3507 H   0  0  0  0  0  0  0  0  0  0  0  0 
    4.9690   -3.5725    2.1353 H   0  0  0  0  0  0  0  0  0  0  0  0 
    3.3085    0.0508    3.7399 H   0  0  0  0  0  0  0  0  0  0  0  0 
    8.8307    3.4311    3.2439 H   0  0  0  0  0  0  0  0  0  0  0  0 
   11.1070    0.2094    1.5427 H   0  0  0  0  0  0  0  0  0  0  0  0 
    6.2689   -2.2293    0.4728 H   0  0  0  0  0  0  0  0  0  0  0  0 
    4.5956    1.3766    2.0975 H   0  0  0  0  0  0  0  0  0  0  0  0 
    6.8637    2.7580    1.9064 H   0  0  0  0  0  0  0  0  0  0  0  0 
    9.1150   -0.4693    0.1872 H   0  0  0  0  0  0  0  0  0  0  0  0 
  1 17  1  0  0  0  0 
  1 19  1  0  0  0  0 
  2 22  1  0  0  0  0 
  2 20  1  0  0  0  0 
  3 23  1  0  0  0  0 
  3 11  2  0  0  0  0 
  4 11  1  0  0  0  0 
  4 24  1  0  0  0  0 
  5 25  1  0  0  0  0 
  6 12  2  0  0  0  0 
  7 13  2  0  0  0  0 
  7  3  1  0  0  0  0 
  8  4  2  0  0  0  0 
  9 29  1  0  0  0  0 
  9  5  2  0  0  0  0 
 10 14  2  0  0  0  0 
 10  6  1  0  0  0  0 
 11  1  1  0  0  0  0 
 12  5  1  0  0  0  0 
 12  2  1  0  0  0  0 
 13  8  1  0  0  0  0 
 14  9  1  0  0  0  0 
 15 16  2  0  0  0  0 
 16 14  1  0  0  0  0 
 16 13  1  0  0  0  0 
 18  1  1  0  0  0  0 
 21  2  1  0  0  0  0 
 26  6  1  0  0  0  0 
 27  7  1  0  0  0  0 
 28  8  1  0  0  0  0 
 30 10  1  0  0  0  0 
M  END 
>  <HBA> 
1 
 
>  <HBD> 
0 
 
>  <TPSA> 
36.28 
 
>  <cid> 
15680 
 
>  <dipole> 
4.37 
 
>  <excitation_energy_1> 
4.513 
 
>  <excitation_energy_2> 
4.745 
 
>  <excitation_energy_3> 
4.862 
 
>  <excitation_energy_4> 
5.012 
 
>  <homo_energy> 
-6.022 
 
>  <homo_lumo_gap> 
5.347 
 
>  <logP> 
4.336 
 
>  <lumo_energy> 
-0.675 
 
>  <melting_point> 
67.21 
 
>  <molecular_refractivity> 
67.63 
 
>  <oscillator_strength_1> 
0.0119 
 
>  <oscillator_strength_2> 
0.0023 
 
>  <oscillator_strength_3> 
0.0658 
 
>  <oscillator_strength_4> 
0.0078 
 
>  <open_babel_can_smiles> 
Cc1ccc(cc1)S(=O)c1ccc(cc1)C 
 
>  <mulliken_charges> 
30 
1   -0.530357 
2   -0.530235 
3   -0.172492 
4   -0.170981 
5   -0.170177 
6   -0.173188 
7   -0.135753 
8   -0.148427 
9   -0.148246 
10   -0.136087 
11   0.178312 
12   0.178076 
13   -0.150066 
14   -0.150802 
15   -0.644929 
16   0.777904 
17   0.159984 
18   0.170171 
19   0.160362 
20   0.161296 
21   0.169602 
22   0.159491 
23   0.130707 
24   0.128555 
25   0.128624 
26   0.130775 
27   0.176269 
28   0.137599 
29   0.137609 
30   0.176401 
 
>  <lowdin_charges> 
30 
1   -0.4408 
2   -0.442641 
3   -0.157628 
4   -0.16321 
5   -0.160969 
6   -0.160255 
7   -0.144715 
8   -0.15282 
9   -0.155115 
10   -0.143976 
11   0.008766 
12   0.008118 
13   -0.171923 
14   -0.171853 
15   -0.667591 
16   0.834282 
17   0.159264 
18   0.163781 
19   0.159851 
20   0.159862 
21   0.165096 
22   0.160006 
23   0.156586 
24   0.158994 
25   0.157863 
26   0.158729 
27   0.181785 
28   0.158745 
29   0.16089 
30   0.180878 
 
$$$$ 
 
