PCCDB-ID:  21479 
public computational chemistry database (PCCDB) project, http://pccdb.org 
 
 16 15  0  0  0  0  0  0  0  0999 V2000 
    3.2425    2.2571    1.8954 C   0  0  0  0  0  0  0  0  0  0  0  0 
    0.7800    0.5865   -0.9298 C   0  0  0  0  0  0  0  0  0  0  0  0 
    3.3246    0.8483    1.3873 C   0  0  0  0  0  0  0  0  0  0  0  0 
    0.1064   -0.7880   -0.7778 C   0  0  0  0  0  0  0  0  0  0  0  0 
    2.5092    0.2696    0.5852 N   0  0  0  0  0  0  0  0  0  0  0  0 
    4.3470    0.0677    1.8165 O   0  0  0  0  0  0  0  0  0  0  0  0 
   -0.9039   -1.0475   -1.3880 O   0  0  0  0  0  0  0  0  0  0  0  0 
    0.7237   -1.6787    0.0105 O   0  0  0  0  0  0  0  0  0  0  0  0 
    1.4207    1.1039    0.2397 O   0  0  0  0  0  0  0  0  0  0  0  0 
    2.5041    2.8231    1.3287 H   0  0  0  0  0  0  0  0  0  0  0  0 
    4.2193    2.7488    1.8101 H   0  0  0  0  0  0  0  0  0  0  0  0 
    2.9502    2.2621    2.9528 H   0  0  0  0  0  0  0  0  0  0  0  0 
    0.0023    1.3129   -1.1673 H   0  0  0  0  0  0  0  0  0  0  0  0 
    1.4926    0.5408   -1.7650 H   0  0  0  0  0  0  0  0  0  0  0  0 
    4.9311    0.5938    2.3830 H   0  0  0  0  0  0  0  0  0  0  0  0 
    1.5600   -1.2790    0.3519 H   0  0  0  0  0  0  0  0  0  0  0  0 
  1 12  1  0  0  0  0 
  2  4  1  0  0  0  0 
  2  9  1  0  0  0  0 
  3  6  1  0  0  0  0 
  3  1  1  0  0  0  0 
  4  8  1  0  0  0  0 
  5  3  2  0  0  0  0 
  6 15  1  0  0  0  0 
  7  4  2  0  0  0  0 
  8 16  1  0  0  0  0 
  9  5  1  0  0  0  0 
 10  1  1  0  0  0  0 
 11  1  1  0  0  0  0 
 13  2  1  0  0  0  0 
 14  2  1  0  0  0  0 
M  END 
>  <HBA> 
5 
 
>  <HBD> 
2 
 
>  <TPSA> 
75.63 
 
>  <cid> 
21479 
 
>  <dipole> 
8.04 
 
>  <excitation_energy_1> 
5.429 
 
>  <excitation_energy_2> 
5.501 
 
>  <excitation_energy_3> 
5.723 
 
>  <excitation_energy_4> 
6.133 
 
>  <homo_energy> 
-6.599 
 
>  <homo_lumo_gap> 
6.289 
 
>  <logP> 
-0.47 
 
>  <lumo_energy> 
-0.31 
 
>  <melting_point> 
93.89 
 
>  <molecular_refractivity> 
27.2 
 
>  <oscillator_strength_1> 
0.0161 
 
>  <oscillator_strength_2> 
0.0034 
 
>  <oscillator_strength_3> 
0.0819 
 
>  <oscillator_strength_4> 
0.0021 
 
>  <open_babel_can_smiles> 
OC(=O)CO/N=C(/O)\C 
 
>  <mulliken_charges> 
16 
1   -0.549281 
2   -0.12621 
3   0.529445 
4   0.572905 
5   -0.254904 
6   -0.570609 
7   -0.448228 
8   -0.575648 
9   -0.387263 
10   0.218889 
11   0.171091 
12   0.194256 
13   0.191897 
14   0.174417 
15   0.422453 
16   0.43679 
 
>  <lowdin_charges> 
16 
1   -0.473814 
2   -0.176552 
3   0.129158 
4   0.173965 
5   -0.108332 
6   -0.348471 
7   -0.252094 
8   -0.354974 
9   -0.201961 
10   0.195376 
11   0.169315 
12   0.180173 
13   0.181394 
14   0.163269 
15   0.369569 
16   0.353981 
 
$$$$ 
 
