PCCDB-ID:  68960 
public computational chemistry database (PCCDB) project, http://pccdb.org 
 
 16 15  0  0  0  0  0  0  0  0999 V2000 
    0.7648    0.1573   -0.1981 C   0  0  0  0  0  0  0  0  0  0  0  0 
    2.6809   -1.0779   -1.3213 C   0  0  0  0  0  0  0  0  0  0  0  0 
    3.1319    1.0897   -0.0575 C   0  0  0  0  0  0  0  0  0  0  0  0 
    2.9344    2.6483   -2.1322 C   0  0  0  0  0  0  0  0  0  0  0  0 
    2.2601   -0.1830   -0.1487 C   0  0  0  0  0  0  0  0  0  0  0  0 
    3.0164    1.9334   -1.1948 N   0  0  0  0  0  0  0  0  0  0  0  0 
    2.8222    3.6163   -3.4033 S   0  0  0  0  0  0  0  0  0  0  0  0 
    0.1608   -0.7553   -0.1455 H   0  0  0  0  0  0  0  0  0  0  0  0 
    0.5085    0.6750   -1.1293 H   0  0  0  0  0  0  0  0  0  0  0  0 
    0.4712    0.8026    0.6386 H   0  0  0  0  0  0  0  0  0  0  0  0 
    2.1326   -2.0262   -1.2964 H   0  0  0  0  0  0  0  0  0  0  0  0 
    3.7523   -1.3091   -1.2876 H   0  0  0  0  0  0  0  0  0  0  0  0 
    2.4694   -0.5945   -2.2818 H   0  0  0  0  0  0  0  0  0  0  0  0 
    4.1876    0.8099    0.0573 H   0  0  0  0  0  0  0  0  0  0  0  0 
    2.8495    1.6679    0.8320 H   0  0  0  0  0  0  0  0  0  0  0  0 
    2.4606   -0.7227    0.7886 H   0  0  0  0  0  0  0  0  0  0  0  0 
  1  5  1  0  0  0  0 
  1  8  1  0  0  0  0 
  1 10  1  0  0  0  0 
  2 11  1  0  0  0  0 
  2 12  1  0  0  0  0 
  2  5  1  0  0  0  0 
  3 14  1  0  0  0  0 
  3 15  1  0  0  0  0 
  4  6  2  0  0  0  0 
  5  3  1  0  0  0  0 
  5 16  1  0  0  0  0 
  6  3  1  0  0  0  0 
  7  4  2  0  0  0  0 
  9  1  1  0  0  0  0 
 13  2  1  0  0  0  0 
M  END 
>  <HBA> 
2 
 
>  <HBD> 
0 
 
>  <TPSA> 
44.45 
 
>  <cid> 
68960 
 
>  <dipole> 
4.45 
 
>  <excitation_energy_1> 
5.155 
 
>  <excitation_energy_2> 
5.328 
 
>  <excitation_energy_3> 
5.365 
 
>  <excitation_energy_4> 
5.757 
 
>  <homo_energy> 
-6.493 
 
>  <homo_lumo_gap> 
6.797 
 
>  <logP> 
1.745 
 
>  <lumo_energy> 
0.305 
 
>  <melting_point> 
23.51 
 
>  <molecular_refractivity> 
35.31 
 
>  <oscillator_strength_1> 
0.0009 
 
>  <oscillator_strength_2> 
0.0066 
 
>  <oscillator_strength_3> 
0.0026 
 
>  <oscillator_strength_4> 
0.0435 
 
>  <open_babel_can_smiles> 
CC(CN=C=S)C 
 
>  <mulliken_charges> 
16 
1   -0.44802 
2   -0.447773 
3   -0.163387 
4   0.177963 
5   -0.087202 
6   -0.283314 
7   -0.16051 
8   0.152355 
9   0.164365 
10   0.144818 
11   0.152276 
12   0.144944 
13   0.164396 
14   0.175444 
15   0.175413 
16   0.138231 
 
>  <lowdin_charges> 
16 
1   -0.448392 
2   -0.445216 
3   -0.174781 
4   -0.04353 
5   -0.122892 
6   -0.081917 
7   -0.087794 
8   0.155921 
9   0.158342 
10   0.15146 
11   0.155538 
12   0.149244 
13   0.158058 
14   0.163619 
15   0.165649 
16   0.146691 
 
$$$$ 
 
