PCCDB-ID:  61664 
public computational chemistry database (PCCDB) project, http://pccdb.org 
 
 15 15  0  0  1  0  0  0  0  0999 V2000 
    1.1107    0.0802    0.6017 C   0  0  0  0  0  0  0  0  0  0  0  0 
    3.3791   -1.4177   -2.0539 C   0  0  0  0  0  0  0  0  0  0  0  0 
    3.7988    0.0094   -2.4076 C   0  0  0  0  0  0  0  0  0  0  0  0 
    2.4474   -0.0021   -0.1324 C   0  0  1  0  0  0  0  0  0  0  0  0 
    2.7490   -1.4185   -0.6598 C   0  0  0  0  0  0  0  0  0  0  0  0 
    2.4934   -2.4183   -0.0261 O   0  0  0  0  0  0  0  0  0  0  0  0 
    2.5624    1.1153   -1.5930 S   0  0  0  0  0  0  0  0  0  0  0  0 
    1.0923   -0.6755    1.3931 H   0  0  0  0  0  0  0  0  0  0  0  0 
    0.2777   -0.1134   -0.0814 H   0  0  0  0  0  0  0  0  0  0  0  0 
    0.9679    1.0667    1.0525 H   0  0  0  0  0  0  0  0  0  0  0  0 
    4.2023   -2.1392   -2.0874 H   0  0  0  0  0  0  0  0  0  0  0  0 
    2.6056   -1.7725   -2.7476 H   0  0  0  0  0  0  0  0  0  0  0  0 
    3.7789    0.2075   -3.4812 H   0  0  0  0  0  0  0  0  0  0  0  0 
    4.8022    0.2377   -2.0332 H   0  0  0  0  0  0  0  0  0  0  0  0 
    3.2603    0.2495    0.5647 H   0  0  0  0  0  0  0  0  0  0  0  0 
  1 10  1  0  0  0  0 
  1  8  1  0  0  0  0 
  2  5  1  0  0  0  0 
  3  2  1  0  0  0  0 
  3 14  1  0  0  0  0 
  3  7  1  0  0  0  0 
  4 15  1  1  0  0  0 
  4  1  1  0  0  0  0 
  5  4  1  0  0  0  0 
  5  6  2  0  0  0  0 
  7  4  1  0  0  0  0 
  9  1  1  0  0  0  0 
 11  2  1  0  0  0  0 
 12  2  1  0  0  0  0 
 13  3  1  0  0  0  0 
M  END 
>  <HBA> 
2 
 
>  <HBD> 
0 
 
>  <TPSA> 
42.37 
 
>  <cid> 
61664 
 
>  <dipole> 
1.62 
 
>  <excitation_energy_1> 
4.097 
 
>  <excitation_energy_2> 
4.585 
 
>  <excitation_energy_3> 
5.027 
 
>  <excitation_energy_4> 
5.583 
 
>  <homo_energy> 
-6.21 
 
>  <homo_lumo_gap> 
5.423 
 
>  <logP> 
1.081 
 
>  <lumo_energy> 
-0.786 
 
>  <melting_point> 
27.04 
 
>  <molecular_refractivity> 
31.83 
 
>  <oscillator_strength_1> 
0.0027 
 
>  <oscillator_strength_2> 
0.0012 
 
>  <oscillator_strength_3> 
0.0005 
 
>  <oscillator_strength_4> 
0.0102 
 
>  <open_babel_can_smiles> 
O=C1CCS[C@H]1C 
 
>  <mulliken_charges> 
15 
1   -0.448385 
2   -0.347738 
3   -0.430528 
4   -0.319658 
5   0.457087 
6   -0.435106 
7   0.089648 
8   0.178352 
9   0.167327 
10   0.159652 
11   0.181381 
12   0.193099 
13   0.184343 
14   0.179867 
15   0.190659 
 
>  <lowdin_charges> 
15 
1   -0.439269 
2   -0.316233 
3   -0.370657 
4   -0.254287 
5   0.160735 
6   -0.22043 
7   0.087902 
8   0.170242 
9   0.162474 
10   0.159641 
11   0.175083 
12   0.183177 
13   0.171559 
14   0.158115 
15   0.171949 
 
$$$$ 
 
