PCCDB-ID:  19051 
public computational chemistry database (PCCDB) project, http://pccdb.org 
 
 14 13  0  0  0  0  0  0  0  0999 V2000 
    3.2445   -1.2220   -0.5978 C   0  0  0  0  0  0  0  0  0  0  0  0 
    4.8183    1.0919    0.4183 C   0  0  0  0  0  0  0  0  0  0  0  0 
    2.5660    0.0153   -0.0267 C   0  0  0  0  0  0  0  0  0  0  0  0 
    2.7495    2.1933    0.9553 N   0  0  0  0  0  0  0  0  0  0  0  0 
    3.3692    1.0166    0.4632 N   0  0  0  0  0  0  0  0  0  0  0  0 
    1.3434    0.1259    0.0080 O   0  0  0  0  0  0  0  0  0  0  0  0 
    3.8932   -0.9780   -1.4466 H   0  0  0  0  0  0  0  0  0  0  0  0 
    2.4580   -1.8979   -0.9356 H   0  0  0  0  0  0  0  0  0  0  0  0 
    3.8550   -1.7346    0.1542 H   0  0  0  0  0  0  0  0  0  0  0  0 
    5.2379    0.1300    0.1220 H   0  0  0  0  0  0  0  0  0  0  0  0 
    5.2057    1.3547    1.4080 H   0  0  0  0  0  0  0  0  0  0  0  0 
    5.1520    1.8583   -0.2931 H   0  0  0  0  0  0  0  0  0  0  0  0 
    2.1469    1.9056    1.7293 H   0  0  0  0  0  0  0  0  0  0  0  0 
    2.0931    2.5022    0.2345 H   0  0  0  0  0  0  0  0  0  0  0  0 
  1  3  1  0  0  0  0 
  1  9  1  0  0  0  0 
  2  5  1  0  0  0  0 
  2 11  1  0  0  0  0 
  3  6  2  0  0  0  0 
  3  5  1  0  0  0  0 
  4 13  1  0  0  0  0 
  5  4  1  0  0  0  0 
  7  1  1  0  0  0  0 
  8  1  1  0  0  0  0 
 10  2  1  0  0  0  0 
 12  2  1  0  0  0  0 
 14  4  1  0  0  0  0 
M  END 
>  <HBA> 
3 
 
>  <HBD> 
1 
 
>  <TPSA> 
46.33 
 
>  <cid> 
19051 
 
>  <dipole> 
2.61 
 
>  <excitation_energy_1> 
5.7 
 
>  <excitation_energy_2> 
5.906 
 
>  <excitation_energy_3> 
6.215 
 
>  <excitation_energy_4> 
6.619 
 
>  <homo_energy> 
-6.582 
 
>  <homo_lumo_gap> 
7.363 
 
>  <logP> 
0.039 
 
>  <lumo_energy> 
0.781 
 
>  <melting_point> 
53.7 
 
>  <molecular_refractivity> 
22.34 
 
>  <oscillator_strength_1> 
0.0019 
 
>  <oscillator_strength_2> 
0.0158 
 
>  <oscillator_strength_3> 
0.0189 
 
>  <oscillator_strength_4> 
0.001 
 
>  <open_babel_can_smiles> 
CC(=O)N(N)C 
 
>  <mulliken_charges> 
14 
1   -0.547833 
2   -0.287791 
3   0.561711 
4   -0.564836 
5   -0.31332 
6   -0.513076 
7   0.168687 
8   0.188926 
9   0.170183 
10   0.159497 
11   0.169799 
12   0.162331 
13   0.323381 
14   0.322339 
 
>  <lowdin_charges> 
14 
1   -0.476688 
2   -0.347662 
3   0.142852 
4   -0.450229 
5   -0.071314 
6   -0.321177 
7   0.167532 
8   0.180724 
9   0.168742 
10   0.160511 
11   0.159866 
12   0.153929 
13   0.26672 
14   0.266194 
 
$$$$ 
 
