PCCDB-ID:  20535 
public computational chemistry database (PCCDB) project, http://pccdb.org 
 
 20 19  0  0  0  0  0  0  0  0999 V2000 
    0.1862   -0.4097   -0.5205 C   0  0  0  0  0  0  0  0  0  0  0  0 
    1.0097    0.2603    1.7824 C   0  0  0  0  0  0  0  0  0  0  0  0 
    2.6627   -4.3712    1.3998 C   0  0  0  0  0  0  0  0  0  0  0  0 
    1.3593   -0.4239    0.4609 C   0  0  0  0  0  0  0  0  0  0  0  0 
    3.3647   -3.0720    1.6999 C   0  0  0  0  0  0  0  0  0  0  0  0 
    1.7260   -1.8303    0.7147 N   0  0  0  0  0  0  0  0  0  0  0  0 
    2.9613   -1.8996    1.4058 N   0  0  0  0  0  0  0  0  0  0  0  0 
    4.5769   -3.1446    2.3334 O   0  0  0  0  0  0  0  0  0  0  0  0 
   -0.1257    0.6191   -0.7289 H   0  0  0  0  0  0  0  0  0  0  0  0 
   -0.6713   -0.9522   -0.1061 H   0  0  0  0  0  0  0  0  0  0  0  0 
    0.4542   -0.8750   -1.4785 H   0  0  0  0  0  0  0  0  0  0  0  0 
    0.7823    1.3200    1.6187 H   0  0  0  0  0  0  0  0  0  0  0  0 
    1.8497    0.1891    2.4789 H   0  0  0  0  0  0  0  0  0  0  0  0 
    0.1367   -0.2177    2.2428 H   0  0  0  0  0  0  0  0  0  0  0  0 
    1.5888   -4.1863    1.3071 H   0  0  0  0  0  0  0  0  0  0  0  0 
    2.8276   -5.1031    2.2002 H   0  0  0  0  0  0  0  0  0  0  0  0 
    3.0191   -4.8189    0.4625 H   0  0  0  0  0  0  0  0  0  0  0  0 
    2.2120    0.1105    0.0093 H   0  0  0  0  0  0  0  0  0  0  0  0 
    1.8185   -2.3020   -0.1871 H   0  0  0  0  0  0  0  0  0  0  0  0 
    4.7374   -4.0649    2.5883 H   0  0  0  0  0  0  0  0  0  0  0  0 
  1 10  1  0  0  0  0 
  1  4  1  0  0  0  0 
  2 14  1  0  0  0  0 
  2 13  1  0  0  0  0 
  3  5  1  0  0  0  0 
  3 16  1  0  0  0  0 
  4  6  1  0  0  0  0 
  4  2  1  0  0  0  0 
  5  8  1  0  0  0  0 
  6  7  1  0  0  0  0 
  7  5  2  0  0  0  0 
  8 20  1  0  0  0  0 
  9  1  1  0  0  0  0 
 11  1  1  0  0  0  0 
 12  2  1  0  0  0  0 
 15  3  1  0  0  0  0 
 17  3  1  0  0  0  0 
 18  4  1  0  0  0  0 
 19  6  1  0  0  0  0 
M  END 
>  <HBA> 
3 
 
>  <HBD> 
2 
 
>  <TPSA> 
41.13 
 
>  <cid> 
20535 
 
>  <dipole> 
3.16 
 
>  <excitation_energy_1> 
4.685 
 
>  <excitation_energy_2> 
5.077 
 
>  <excitation_energy_3> 
5.302 
 
>  <excitation_energy_4> 
5.734 
 
>  <homo_energy> 
-5.358 
 
>  <homo_lumo_gap> 
6.144 
 
>  <logP> 
0.817 
 
>  <lumo_energy> 
0.786 
 
>  <melting_point> 
49.85 
 
>  <molecular_refractivity> 
31.95 
 
>  <oscillator_strength_1> 
0.0047 
 
>  <oscillator_strength_2> 
0.0022 
 
>  <oscillator_strength_3> 
0.1314 
 
>  <oscillator_strength_4> 
0.0152 
 
>  <open_babel_can_smiles> 
CC(N/N=C(/O)\C)C 
 
>  <mulliken_charges> 
20 
1   -0.46363 
2   -0.437209 
3   -0.559686 
4   0.081843 
5   0.498058 
6   -0.458781 
7   -0.30669 
8   -0.584964 
9   0.149823 
10   0.152664 
11   0.132553 
12   0.132081 
13   0.1725 
14   0.139629 
15   0.20212 
16   0.151931 
17   0.175564 
18   0.121883 
19   0.29698 
20   0.403331 
 
>  <lowdin_charges> 
20 
1   -0.450579 
2   -0.449536 
3   -0.482352 
4   -0.05794 
5   0.103545 
6   -0.284907 
7   -0.154438 
8   -0.37184 
9   0.155244 
10   0.153448 
11   0.143155 
12   0.144974 
13   0.165155 
14   0.148304 
15   0.181087 
16   0.159671 
17   0.168933 
18   0.128156 
19   0.247497 
20   0.352424 
 
$$$$ 
 
