PCCDB-ID:  12831 
public computational chemistry database (PCCDB) project, http://pccdb.org 
 
 28 29  0  0  0  0  0  0  0  0999 V2000 
    2.4788    0.1728   -0.8241 C   0  0  0  0  0  0  0  0  0  0  0  0 
    2.3051   -0.7241    0.4237 C   0  0  0  0  0  0  0  0  0  0  0  0 
    1.0725    0.7700   -1.1196 C   0  0  0  0  0  0  0  0  0  0  0  0 
    1.0661   -0.1536    1.1284 C   0  0  0  0  0  0  0  0  0  0  0  0 
   -3.5610    0.9731    0.2321 C   0  0  0  0  0  0  0  0  0  0  0  0 
   -3.8553    1.6876    1.5612 C   0  0  0  0  0  0  0  0  0  0  0  0 
   -1.0039    1.1435    0.3512 C   0  0  0  0  0  0  0  0  0  0  0  0 
   -1.8193   -0.7819   -0.4140 C   0  0  0  0  0  0  0  0  0  0  0  0 
    0.1165    0.1777   -0.0457 C   0  0  0  0  0  0  0  0  0  0  0  0 
   -0.5734   -1.0320   -0.5293 N   0  0  0  0  0  0  0  0  0  0  0  0 
   -2.1861    0.4664    0.1030 N   0  0  0  0  0  0  0  0  0  0  0  0 
   -3.4420    3.0310    1.5935 O   0  0  0  0  0  0  0  0  0  0  0  0 
   -0.8885    2.2747    0.8048 O   0  0  0  0  0  0  0  0  0  0  0  0 
   -2.8248   -1.6094   -0.7385 O   0  0  0  0  0  0  0  0  0  0  0  0 
    2.8715   -0.3901   -1.6765 H   0  0  0  0  0  0  0  0  0  0  0  0 
    3.1918    0.9795   -0.6209 H   0  0  0  0  0  0  0  0  0  0  0  0 
    3.1898   -0.7314    1.0691 H   0  0  0  0  0  0  0  0  0  0  0  0 
    2.1027   -1.7574    0.1223 H   0  0  0  0  0  0  0  0  0  0  0  0 
    0.7054    0.5272   -2.1203 H   0  0  0  0  0  0  0  0  0  0  0  0 
    1.0814    1.8602   -1.0190 H   0  0  0  0  0  0  0  0  0  0  0  0 
    1.3057    0.7812    1.6508 H   0  0  0  0  0  0  0  0  0  0  0  0 
    0.6066   -0.8419    1.8447 H   0  0  0  0  0  0  0  0  0  0  0  0 
   -3.7715    1.6667   -0.5909 H   0  0  0  0  0  0  0  0  0  0  0  0 
   -4.2131    0.1040    0.1216 H   0  0  0  0  0  0  0  0  0  0  0  0 
   -3.4349    1.0914    2.3896 H   0  0  0  0  0  0  0  0  0  0  0  0 
   -4.9438    1.6971    1.6895 H   0  0  0  0  0  0  0  0  0  0  0  0 
   -2.4772    3.0297    1.4292 H   0  0  0  0  0  0  0  0  0  0  0  0 
   -2.4049   -2.4233   -1.0699 H   0  0  0  0  0  0  0  0  0  0  0  0 
  1 16  1  0  0  0  0 
  1  2  1  0  0  0  0 
  2 17  1  0  0  0  0 
  2  4  1  0  0  0  0 
  3 20  1  0  0  0  0 
  3  1  1  0  0  0  0 
  3  9  1  0  0  0  0 
  4 21  1  0  0  0  0 
  4 22  1  0  0  0  0 
  5  6  1  0  0  0  0 
  6 12  1  0  0  0  0 
  6 26  1  0  0  0  0 
  6 25  1  0  0  0  0 
  7 13  2  0  0  0  0 
  8 11  1  0  0  0  0 
  9  7  1  0  0  0  0 
  9  4  1  0  0  0  0 
 10  8  2  0  0  0  0 
 10  9  1  0  0  0  0 
 11  5  1  0  0  0  0 
 11  7  1  0  0  0  0 
 14  8  1  0  0  0  0 
 15  1  1  0  0  0  0 
 18  2  1  0  0  0  0 
 19  3  1  0  0  0  0 
 23  5  1  0  0  0  0 
 24  5  1  0  0  0  0 
 27 12  1  0  0  0  0 
 28 14  1  0  0  0  0 
M  END 
>  <HBA> 
5 
 
>  <HBD> 
2 
 
>  <TPSA> 
69.64 
 
>  <cid> 
12831 
 
>  <dipole> 
3.9 
 
>  <excitation_energy_1> 
5.115 
 
>  <excitation_energy_2> 
5.546 
 
>  <excitation_energy_3> 
5.805 
 
>  <excitation_energy_4> 
5.834 
 
>  <homo_energy> 
-6.7 
 
>  <homo_lumo_gap> 
6.283 
 
>  <logP> 
0.11 
 
>  <lumo_energy> 
-0.416 
 
>  <melting_point> 
129.17 
 
>  <molecular_refractivity> 
56.67 
 
>  <oscillator_strength_1> 
0.0026 
 
>  <oscillator_strength_2> 
0.0449 
 
>  <oscillator_strength_3> 
0.0044 
 
>  <oscillator_strength_4> 
0.0126 
 
>  <open_babel_can_smiles> 
OCCN1C(=NC2(C1=O)CCCC2)O 
 
>  <mulliken_charges> 
28 
1   -0.276784 
2   -0.268276 
3   -0.271821 
4   -0.262455 
5   -0.172375 
6   -0.026507 
7   0.613337 
8   0.701855 
9   0.069696 
10   -0.502814 
11   -0.50447 
12   -0.640549 
13   -0.541126 
14   -0.61053 
15   0.144239 
16   0.143179 
17   0.138205 
18   0.156255 
19   0.152678 
20   0.165209 
21   0.15935 
22   0.145307 
23   0.179616 
24   0.179479 
25   0.124699 
26   0.148038 
27   0.425333 
28   0.431233 
 
>  <lowdin_charges> 
28 
1   -0.282888 
2   -0.278973 
3   -0.275713 
4   -0.273054 
5   -0.214791 
6   -0.137089 
7   0.164126 
8   0.14971 
9   0.040659 
10   -0.265041 
11   -0.081988 
12   -0.478894 
13   -0.284024 
14   -0.345804 
15   0.151263 
16   0.148173 
17   0.148553 
18   0.151309 
19   0.155745 
20   0.158139 
21   0.156404 
22   0.153887 
23   0.164206 
24   0.174034 
25   0.130416 
26   0.149457 
27   0.342659 
28   0.379519 
 
$$$$ 
 
