PCCDB-ID:  37981 
public computational chemistry database (PCCDB) project, http://pccdb.org 
 
 35 36  0  0  0  0  0  0  0  0999 V2000 
   -0.1667    0.8223   -0.7568 C   0  0  0  0  0  0  0  0  0  0  0  0 
    8.0613    1.3228   -1.4510 C   0  0  0  0  0  0  0  0  0  0  0  0 
    9.5752    0.7095    0.2988 C   0  0  0  0  0  0  0  0  0  0  0  0 
    9.1272    1.9834   -2.0640 C   0  0  0  0  0  0  0  0  0  0  0  0 
   10.5709    1.3898   -0.3993 C   0  0  0  0  0  0  0  0  0  0  0  0 
    2.1741    1.2212   -0.3015 C   0  0  0  0  0  0  0  0  0  0  0  0 
    1.3997   -1.0167   -0.6857 C   0  0  0  0  0  0  0  0  0  0  0  0 
    3.4083    0.6725    0.4103 C   0  0  0  0  0  0  0  0  0  0  0  0 
    2.6313   -1.5711    0.0285 C   0  0  0  0  0  0  0  0  0  0  0  0 
    4.9971   -1.1713    0.4196 C   0  0  0  0  0  0  0  0  0  0  0  0 
    8.2866    0.6590   -0.2402 C   0  0  0  0  0  0  0  0  0  0  0  0 
    7.2272   -0.0821    0.5401 C   0  0  0  0  0  0  0  0  0  0  0  0 
   10.3677    2.0201   -1.5647 N   0  0  0  0  0  0  0  0  0  0  0  0 
    6.1284   -0.4745   -0.1697 N   0  0  0  0  0  0  0  0  0  0  0  0 
    1.0504    0.2992   -0.1575 N   0  0  0  0  0  0  0  0  0  0  0  0 
    3.7557   -0.6468   -0.1269 N   0  0  0  0  0  0  0  0  0  0  0  0 
    7.3696   -0.3118    1.7372 O   0  0  0  0  0  0  0  0  0  0  0  0 
   -0.4222    1.7819   -0.2939 H   0  0  0  0  0  0  0  0  0  0  0  0 
   -0.9945    0.1272   -0.5775 H   0  0  0  0  0  0  0  0  0  0  0  0 
   -0.0836    0.9811   -1.8504 H   0  0  0  0  0  0  0  0  0  0  0  0 
    7.0768    1.3642   -1.9088 H   0  0  0  0  0  0  0  0  0  0  0  0 
    9.7756    0.2240    1.2476 H   0  0  0  0  0  0  0  0  0  0  0  0 
    8.9730    2.5115   -3.0036 H   0  0  0  0  0  0  0  0  0  0  0  0 
   11.5844    1.4329   -0.0046 H   0  0  0  0  0  0  0  0  0  0  0  0 
    2.4207    1.4040   -1.3672 H   0  0  0  0  0  0  0  0  0  0  0  0 
    1.8967    2.1843    0.1435 H   0  0  0  0  0  0  0  0  0  0  0  0 
    0.5526   -1.6949   -0.5276 H   0  0  0  0  0  0  0  0  0  0  0  0 
    1.6028   -0.9812   -1.7752 H   0  0  0  0  0  0  0  0  0  0  0  0 
    3.2085    0.6222    1.4971 H   0  0  0  0  0  0  0  0  0  0  0  0 
    4.2551    1.3489    0.2561 H   0  0  0  0  0  0  0  0  0  0  0  0 
    2.9045   -2.5371   -0.4127 H   0  0  0  0  0  0  0  0  0  0  0  0 
    2.3816   -1.7436    1.0923 H   0  0  0  0  0  0  0  0  0  0  0  0 
    5.0943   -1.0642    1.5098 H   0  0  0  0  0  0  0  0  0  0  0  0 
    5.0440   -2.2421    0.1805 H   0  0  0  0  0  0  0  0  0  0  0  0 
    6.1054   -0.3631   -1.1736 H   0  0  0  0  0  0  0  0  0  0  0  0 
  1 19  1  0  0  0  0 
  1 18  1  0  0  0  0 
  1 15  1  0  0  0  0 
  2 11  2  0  0  0  0 
  3 22  1  0  0  0  0 
  4 13  2  0  0  0  0 
  4  2  1  0  0  0  0 
  5 24  1  0  0  0  0 
  5  3  2  0  0  0  0 
  6 15  1  0  0  0  0 
  6 26  1  0  0  0  0 
  6  8  1  0  0  0  0 
  7 27  1  0  0  0  0 
  7 15  1  0  0  0  0 
  7  9  1  0  0  0  0 
  8 29  1  0  0  0  0 
  9 32  1  0  0  0  0 
 10 33  1  0  0  0  0 
 11  3  1  0  0  0  0 
 11 12  1  0  0  0  0 
 12 17  2  0  0  0  0 
 13  5  1  0  0  0  0 
 14 10  1  0  0  0  0 
 14 12  1  0  0  0  0 
 16  9  1  0  0  0  0 
 16  8  1  0  0  0  0 
 16 10  1  0  0  0  0 
 20  1  1  0  0  0  0 
 21  2  1  0  0  0  0 
 23  4  1  0  0  0  0 
 25  6  1  0  0  0  0 
 28  7  1  0  0  0  0 
 30  8  1  0  0  0  0 
 31  9  1  0  0  0  0 
 34 10  1  0  0  0  0 
 35 14  1  0  0  0  0 
M  END 
>  <HBA> 
5 
 
>  <HBD> 
1 
 
>  <TPSA> 
48.47 
 
>  <cid> 
37981 
 
>  <dipole> 
3.86 
 
>  <excitation_energy_1> 
3.947 
 
>  <excitation_energy_2> 
4.011 
 
>  <excitation_energy_3> 
4.385 
 
>  <excitation_energy_4> 
4.64 
 
>  <homo_energy> 
-5.954 
 
>  <homo_lumo_gap> 
4.506 
 
>  <logP> 
0.283 
 
>  <lumo_energy> 
-1.448 
 
>  <melting_point> 
105.43 
 
>  <molecular_refractivity> 
72.78 
 
>  <oscillator_strength_1> 
0.0017 
 
>  <oscillator_strength_2> 
0.0 
 
>  <oscillator_strength_3> 
0.0027 
 
>  <oscillator_strength_4> 
0.0064 
 
>  <open_babel_can_smiles> 
CN1CCN(CC1)CNC(=O)c1ccncc1 
 
>  <mulliken_charges> 
35 
1   -0.291161 
2   -0.19499 
3   -0.16252 
4   0.037841 
5   0.034671 
6   -0.119382 
7   -0.118063 
8   -0.130728 
9   -0.128812 
10   0.026008 
11   0.090127 
12   0.568113 
13   -0.400735 
14   -0.618222 
15   -0.383503 
16   -0.419944 
17   -0.515049 
18   0.150021 
19   0.149393 
20   0.119125 
21   0.135729 
22   0.170581 
23   0.145441 
24   0.148456 
25   0.112767 
26   0.140736 
27   0.139061 
28   0.115445 
29   0.131273 
30   0.146393 
31   0.138884 
32   0.129824 
33   0.17397 
34   0.14862 
35   0.330634 
 
>  <lowdin_charges> 
35 
1   -0.35313 
2   -0.182531 
3   -0.150735 
4   -0.087486 
5   -0.086474 
6   -0.201526 
7   -0.200649 
8   -0.204375 
9   -0.202586 
10   -0.120138 
11   -0.014832 
12   0.155174 
13   -0.140165 
14   -0.266963 
15   -0.188174 
16   -0.199077 
17   -0.302731 
18   0.150821 
19   0.151163 
20   0.119335 
21   0.160883 
22   0.18285 
23   0.158475 
24   0.159767 
25   0.116995 
26   0.148814 
27   0.148927 
28   0.117548 
29   0.12694 
30   0.151867 
31   0.147276 
32   0.126019 
33   0.15261 
34   0.144422 
35   0.281686 
 
$$$$ 
 
