PCCDB-ID:  7743 
public computational chemistry database (PCCDB) project, http://pccdb.org 
 
 26 26  0  0  1  0  0  0  0  0999 V2000 
    1.8001   -0.4938    0.4110 C   0  0  0  0  0  0  0  0  0  0  0  0 
    4.2235   -2.2458   -4.2502 C   0  0  0  0  0  0  0  0  0  0  0  0 
    3.4484   -3.4251   -3.5906 C   0  0  0  0  0  0  0  0  0  0  0  0 
    3.4644   -0.9599   -3.8344 C   0  0  0  0  0  0  0  0  0  0  0  0 
    2.2404   -2.7795   -2.8701 C   0  0  0  0  0  0  0  0  0  0  0  0 
    3.5724   -1.2248   -1.2904 C   0  0  0  0  0  0  0  0  0  0  0  0 
    2.8912   -1.5124    0.0672 C   0  0  1  0  0  0  0  0  0  0  0  0 
    2.6886   -1.3344   -2.5503 C   0  0  0  0  0  0  0  0  0  0  0  0 
    3.8417   -1.5622    1.1935 N   0  0  0  0  0  0  0  0  0  0  0  0 
    0.9967   -0.4889   -0.3326 H   0  0  0  0  0  0  0  0  0  0  0  0 
    2.2182    0.5215    0.4559 H   0  0  0  0  0  0  0  0  0  0  0  0 
    1.3679   -0.7241    1.3893 H   0  0  0  0  0  0  0  0  0  0  0  0 
    4.2736   -2.3441   -5.3397 H   0  0  0  0  0  0  0  0  0  0  0  0 
    5.2593   -2.2194   -3.8939 H   0  0  0  0  0  0  0  0  0  0  0  0 
    4.0892   -3.9490   -2.8721 H   0  0  0  0  0  0  0  0  0  0  0  0 
    3.1284   -4.1744   -4.3224 H   0  0  0  0  0  0  0  0  0  0  0  0 
    2.7471   -0.6826   -4.6175 H   0  0  0  0  0  0  0  0  0  0  0  0 
    4.1304   -0.1006   -3.6929 H   0  0  0  0  0  0  0  0  0  0  0  0 
    1.9212   -3.3478   -1.9896 H   0  0  0  0  0  0  0  0  0  0  0  0 
    1.3799   -2.7401   -3.5506 H   0  0  0  0  0  0  0  0  0  0  0  0 
    4.4300   -1.9071   -1.3897 H   0  0  0  0  0  0  0  0  0  0  0  0 
    3.9980   -0.2098   -1.2469 H   0  0  0  0  0  0  0  0  0  0  0  0 
    2.4259   -2.5066    0.0239 H   0  0  0  0  0  0  0  0  0  0  0  0 
    1.8202   -0.6754   -2.4276 H   0  0  0  0  0  0  0  0  0  0  0  0 
    4.3101   -0.6575    1.2713 H   0  0  0  0  0  0  0  0  0  0  0  0 
    4.5809   -2.2338    0.9839 H   0  0  0  0  0  0  0  0  0  0  0  0 
  1 11  1  0  0  0  0 
  1 12  1  0  0  0  0 
  2 14  1  0  0  0  0 
  2  4  1  0  0  0  0 
  2  3  1  0  0  0  0 
  3 15  1  0  0  0  0 
  3  5  1  0  0  0  0 
  4 18  1  0  0  0  0 
  4  8  1  0  0  0  0 
  5  8  1  0  0  0  0 
  5 19  1  0  0  0  0 
  6 22  1  0  0  0  0 
  6  7  1  0  0  0  0 
  7 23  1  6  0  0  0 
  7  1  1  0  0  0  0 
  7  9  1  0  0  0  0 
  8 24  1  0  0  0  0 
  8  6  1  0  0  0  0 
  9 25  1  0  0  0  0 
 10  1  1  0  0  0  0 
 13  2  1  0  0  0  0 
 16  3  1  0  0  0  0 
 17  4  1  0  0  0  0 
 20  5  1  0  0  0  0 
 21  6  1  0  0  0  0 
 26  9  1  0  0  0  0 
M  END 
>  <HBA> 
1 
 
>  <HBD> 
1 
 
>  <TPSA> 
26.02 
 
>  <cid> 
7743 
 
>  <dipole> 
1.41 
 
>  <excitation_energy_1> 
5.564 
 
>  <excitation_energy_2> 
6.089 
 
>  <excitation_energy_3> 
6.274 
 
>  <excitation_energy_4> 
6.383 
 
>  <homo_energy> 
-6.15 
 
>  <homo_lumo_gap> 
8.085 
 
>  <logP> 
2.614 
 
>  <lumo_energy> 
1.935 
 
>  <melting_point> 
48.94 
 
>  <molecular_refractivity> 
41.16 
 
>  <oscillator_strength_1> 
0.029 
 
>  <oscillator_strength_2> 
0.0036 
 
>  <oscillator_strength_3> 
0.0034 
 
>  <oscillator_strength_4> 
0.0017 
 
>  <open_babel_can_smiles> 
C[C@@H](CC1CCCC1)N 
 
>  <mulliken_charges> 
26 
1   -0.442024 
2   -0.271313 
3   -0.272186 
4   -0.270858 
5   -0.274967 
6   -0.262058 
7   0.023292 
8   -0.095016 
9   -0.706791 
10   0.144922 
11   0.130839 
12   0.160263 
13   0.135876 
14   0.136042 
15   0.135193 
16   0.135848 
17   0.131737 
18   0.129708 
19   0.136363 
20   0.132329 
21   0.118603 
22   0.116589 
23   0.132054 
24   0.122018 
25   0.284652 
26   0.288885 
 
>  <lowdin_charges> 
26 
1   -0.448677 
2   -0.285322 
3   -0.289762 
4   -0.283926 
5   -0.286885 
6   -0.2952 
7   -0.064676 
8   -0.135136 
9   -0.551971 
10   0.150583 
11   0.141475 
12   0.159398 
13   0.143327 
14   0.141186 
15   0.142668 
16   0.146692 
17   0.142497 
18   0.14285 
19   0.144258 
20   0.142522 
21   0.136231 
22   0.134663 
23   0.136747 
24   0.139023 
25   0.247387 
26   0.250051 
 
$$$$ 
 
