PCCDB-ID:  70029 
public computational chemistry database (PCCDB) project, http://pccdb.org 
 
 29 31  0  0  0  0  0  0  0  0999 V2000 
   -3.7083    0.0392    0.8082 C   0  0  0  0  0  0  0  0  0  0  0  0 
    3.7484    0.1512    0.7859 C   0  0  0  0  0  0  0  0  0  0  0  0 
   -3.3147   -1.2960    0.7328 C   0  0  0  0  0  0  0  0  0  0  0  0 
    3.5227   -1.1583    0.3643 C   0  0  0  0  0  0  0  0  0  0  0  0 
   -2.8892    1.0326    0.2678 C   0  0  0  0  0  0  0  0  0  0  0  0 
    2.7516    1.1047    0.6038 C   0  0  0  0  0  0  0  0  0  0  0  0 
   -2.1069   -1.6269    0.1150 C   0  0  0  0  0  0  0  0  0  0  0  0 
    2.3056   -1.4788   -0.2299 C   0  0  0  0  0  0  0  0  0  0  0  0 
   -0.7659    1.7785   -0.9055 C   0  0  0  0  0  0  0  0  0  0  0  0 
    0.5263    1.9573   -0.0871 C   0  0  0  0  0  0  0  0  0  0  0  0 
    0.0176   -0.9950   -1.1201 C   0  0  0  0  0  0  0  0  0  0  0  0 
   -1.6772    0.7100   -0.3501 C   0  0  0  0  0  0  0  0  0  0  0  0 
    1.5172    0.7986    0.0075 C   0  0  0  0  0  0  0  0  0  0  0  0 
   -1.2822   -0.6382   -0.4284 C   0  0  0  0  0  0  0  0  0  0  0  0 
    1.2919   -0.5263   -0.4224 C   0  0  0  0  0  0  0  0  0  0  0  0 
   -4.6477    0.3088    1.2837 H   0  0  0  0  0  0  0  0  0  0  0  0 
    4.6902    0.4293    1.2516 H   0  0  0  0  0  0  0  0  0  0  0  0 
   -3.9432   -2.0783    1.1501 H   0  0  0  0  0  0  0  0  0  0  0  0 
    4.2831   -1.9233    0.4973 H   0  0  0  0  0  0  0  0  0  0  0  0 
   -3.1954    2.0751    0.3246 H   0  0  0  0  0  0  0  0  0  0  0  0 
    2.9272    2.1269    0.9348 H   0  0  0  0  0  0  0  0  0  0  0  0 
   -1.8005   -2.6689    0.0516 H   0  0  0  0  0  0  0  0  0  0  0  0 
    2.1278   -2.5001   -0.5598 H   0  0  0  0  0  0  0  0  0  0  0  0 
   -0.5115    1.5602   -1.9519 H   0  0  0  0  0  0  0  0  0  0  0  0 
   -1.2920    2.7403   -0.9147 H   0  0  0  0  0  0  0  0  0  0  0  0 
    0.2362    2.2385    0.9358 H   0  0  0  0  0  0  0  0  0  0  0  0 
    1.0651    2.8265   -0.4884 H   0  0  0  0  0  0  0  0  0  0  0  0 
    0.0003   -0.5929   -2.1444 H   0  0  0  0  0  0  0  0  0  0  0  0 
    0.0721   -2.0827   -1.2341 H   0  0  0  0  0  0  0  0  0  0  0  0 
  1 16  1  0  0  0  0 
  2 17  1  0  0  0  0 
  3  1  1  0  0  0  0 
  3 18  1  0  0  0  0 
  4 19  1  0  0  0  0 
  4  2  2  0  0  0  0 
  5 20  1  0  0  0  0 
  5  1  2  0  0  0  0 
  6  2  1  0  0  0  0 
  6 21  1  0  0  0  0 
  7  3  2  0  0  0  0 
  8  4  1  0  0  0  0 
  9 12  1  0  0  0  0 
  9 10  1  0  0  0  0 
 10 13  1  0  0  0  0 
 10 26  1  0  0  0  0 
 11 14  1  0  0  0  0 
 11 15  1  0  0  0  0 
 12  5  1  0  0  0  0 
 13  6  2  0  0  0  0 
 14 12  2  0  0  0  0 
 14  7  1  0  0  0  0 
 15  8  2  0  0  0  0 
 15 13  1  0  0  0  0 
 22  7  1  0  0  0  0 
 23  8  1  0  0  0  0 
 24  9  1  0  0  0  0 
 25  9  1  0  0  0  0 
 27 10  1  0  0  0  0 
 28 11  1  0  0  0  0 
 29 11  1  0  0  0  0 
M  END 
>  <HBA> 
0 
 
>  <HBD> 
0 
 
>  <TPSA> 
0.0 
 
>  <cid> 
70029 
 
>  <dipole> 
0.41 
 
>  <excitation_energy_1> 
5.124 
 
>  <excitation_energy_2> 
5.203 
 
>  <excitation_energy_3> 
5.484 
 
>  <excitation_energy_4> 
5.56 
 
>  <homo_energy> 
-6.226 
 
>  <homo_lumo_gap> 
6.218 
 
>  <logP> 
3.376 
 
>  <lumo_energy> 
-0.008 
 
>  <melting_point> 
69.8 
 
>  <molecular_refractivity> 
63.71 
 
>  <oscillator_strength_1> 
0.0124 
 
>  <oscillator_strength_2> 
0.0035 
 
>  <oscillator_strength_3> 
0.0074 
 
>  <oscillator_strength_4> 
0.0036 
 
>  <open_babel_can_smiles> 
c1ccc2c(c1)CCc1c(C2)cccc1 
 
>  <mulliken_charges> 
29 
1   -0.127213 
2   -0.127023 
3   -0.128194 
4   -0.128223 
5   -0.193043 
6   -0.183207 
7   -0.186812 
8   -0.187856 
9   -0.360331 
10   -0.339207 
11   -0.458881 
12   0.132054 
13   0.127435 
14   0.140175 
15   0.127155 
16   0.12584 
17   0.125717 
18   0.126055 
19   0.125625 
20   0.120715 
21   0.11906 
22   0.122048 
23   0.119795 
24   0.148574 
25   0.141019 
26   0.158778 
27   0.147941 
28   0.163005 
29   0.148999 
 
>  <lowdin_charges> 
29 
1   -0.159053 
2   -0.158878 
3   -0.161232 
4   -0.162734 
5   -0.166277 
6   -0.162048 
7   -0.163723 
8   -0.16536 
9   -0.274258 
10   -0.272295 
11   -0.270933 
12   -0.011667 
13   -0.012593 
14   -0.007209 
15   -0.008373 
16   0.156149 
17   0.156073 
18   0.157771 
19   0.157167 
20   0.151839 
21   0.151506 
22   0.152571 
23   0.151416 
24   0.149403 
25   0.152149 
26   0.155379 
27   0.153889 
28   0.158343 
29   0.152979 
 
$$$$ 
 
