PCCDB-ID:  21554 
public computational chemistry database (PCCDB) project, http://pccdb.org 
 
 22 22  0  0  0  0  0  0  0  0999 V2000 
   -1.4774   -0.8999   -0.2932 C   0  0  0  0  0  0  0  0  0  0  0  0 
   -0.7703   -2.1083   -0.3413 C   0  0  0  0  0  0  0  0  0  0  0  0 
   -0.8134    0.3172   -0.2770 C   0  0  0  0  0  0  0  0  0  0  0  0 
    0.6121   -2.0724   -0.3782 C   0  0  0  0  0  0  0  0  0  0  0  0 
    0.5645    2.8599   -0.5842 C   0  0  0  0  0  0  0  0  0  0  0  0 
    0.5979    0.3903   -0.3121 C   0  0  0  0  0  0  0  0  0  0  0  0 
    1.2979   -0.8489   -0.3664 C   0  0  0  0  0  0  0  0  0  0  0  0 
   -0.1920    3.4877    0.6010 C   0  0  0  0  0  0  0  0  0  0  0  0 
    1.2404    1.6145   -0.2551 N   0  0  0  0  0  0  0  0  0  0  0  0 
    2.7510   -0.9249   -0.4337 N   0  0  0  0  0  0  0  0  0  0  0  0 
   -1.0444    4.3266    0.4511 O   0  0  0  0  0  0  0  0  0  0  0  0 
    0.1988    3.0516    1.8127 O   0  0  0  0  0  0  0  0  0  0  0  0 
    3.2793   -2.0332   -0.4794 O   0  0  0  0  0  0  0  0  0  0  0  0 
    3.4127    0.1315   -0.4462 O   0  0  0  0  0  0  0  0  0  0  0  0 
   -2.5633   -0.9058   -0.2612 H   0  0  0  0  0  0  0  0  0  0  0  0 
   -1.2929   -3.0587   -0.3500 H   0  0  0  0  0  0  0  0  0  0  0  0 
   -1.3923    1.2323   -0.2254 H   0  0  0  0  0  0  0  0  0  0  0  0 
    1.2011   -2.9798   -0.4215 H   0  0  0  0  0  0  0  0  0  0  0  0 
    1.3271    3.5819   -0.8944 H   0  0  0  0  0  0  0  0  0  0  0  0 
   -0.1398    2.7570   -1.4168 H   0  0  0  0  0  0  0  0  0  0  0  0 
    2.2342    1.5460   -0.4505 H   0  0  0  0  0  0  0  0  0  0  0  0 
    0.8701    2.3529    1.6664 H   0  0  0  0  0  0  0  0  0  0  0  0 
  1  3  1  0  0  0  0 
  1 15  1  0  0  0  0 
  2  1  2  0  0  0  0 
  3 17  1  0  0  0  0 
  4  7  2  0  0  0  0 
  4  2  1  0  0  0  0 
  5  9  1  0  0  0  0 
  5  8  1  0  0  0  0 
  6  3  2  0  0  0  0 
  6  9  1  0  0  0  0 
  7  6  1  0  0  0  0 
  8 12  1  0  0  0  0 
 10  7  1  0  0  0  0 
 11  8  2  0  0  0  0 
 13 10  2  0  0  0  0 
 14 10  2  0  0  0  0 
 16  2  1  0  0  0  0 
 18  4  1  0  0  0  0 
 19  5  1  0  0  0  0 
 20  5  1  0  0  0  0 
 21  9  1  0  0  0  0 
 22 12  1  0  0  0  0 
M  END 
>  <HBA> 
3 
 
>  <HBD> 
2 
 
>  <TPSA> 
95.15 
 
>  <cid> 
21554 
 
>  <dipole> 
2.8 
 
>  <excitation_energy_1> 
3.278 
 
>  <excitation_energy_2> 
3.787 
 
>  <excitation_energy_3> 
4.31 
 
>  <excitation_energy_4> 
4.473 
 
>  <homo_energy> 
-6.631 
 
>  <homo_lumo_gap> 
3.894 
 
>  <logP> 
1.688 
 
>  <lumo_energy> 
-2.737 
 
>  <melting_point> 
154.16 
 
>  <molecular_refractivity> 
51.15 
 
>  <oscillator_strength_1> 
0.0991 
 
>  <oscillator_strength_2> 
0.0016 
 
>  <oscillator_strength_3> 
0.0012 
 
>  <oscillator_strength_4> 
0.0383 
 
>  <open_babel_can_smiles> 
OC(=O)CNc1ccccc1N(=O)=O 
 
>  <mulliken_charges> 
22 
1   -0.119303 
2   -0.140834 
3   -0.195291 
4   -0.163083 
5   -0.254713 
6   0.333594 
7   0.249014 
8   0.596432 
9   -0.712962 
10   0.371334 
11   -0.446926 
12   -0.559189 
13   -0.388528 
14   -0.441842 
15   0.155908 
16   0.150018 
17   0.166651 
18   0.19033 
19   0.203419 
20   0.197092 
21   0.380707 
22   0.428175 
 
>  <lowdin_charges> 
22 
1   -0.110646 
2   -0.172158 
3   -0.198147 
4   -0.126924 
5   -0.24376 
6   0.072154 
7   -0.036465 
8   0.169688 
9   -0.297393 
10   0.313901 
11   -0.24017 
12   -0.344536 
13   -0.238172 
14   -0.283735 
15   0.169315 
16   0.16988 
17   0.177539 
18   0.191663 
19   0.188316 
20   0.175326 
21   0.301583 
22   0.362742 
 
$$$$ 
 
