PCCDB-ID:  21085 
public computational chemistry database (PCCDB) project, http://pccdb.org 
 
 30 29  0  0  1  0  0  0  0  0999 V2000 
    1.4117   -0.6435    2.0235 C   0  0  0  0  0  0  0  0  0  0  0  0 
    6.4768    1.4201    3.5389 C   0  0  0  0  0  0  0  0  0  0  0  0 
    8.6823    0.7607    2.5015 C   0  0  0  0  0  0  0  0  0  0  0  0 
    2.8593   -0.1658   -1.1891 C   0  0  0  0  0  0  0  0  0  0  0  0 
    2.2735    0.0029    1.2373 C   0  0  0  0  0  0  0  0  0  0  0  0 
    5.1740   -0.9355    1.8885 C   0  0  0  0  0  0  0  0  0  0  0  0 
    6.6734   -0.7331    2.1690 C   0  0  0  0  0  0  0  0  0  0  0  0 
    4.6873   -0.3285    0.5656 C   0  0  0  0  0  0  0  0  0  0  0  0 
    7.1540    0.7223    2.3497 C   0  0  0  0  0  0  0  0  0  0  0  0 
    3.2072   -0.6340    0.2374 C   0  0  2  0  0  0  0  0  0  0  0  0 
    0.7584   -0.1169    2.7145 H   0  0  0  0  0  0  0  0  0  0  0  0 
    1.3237   -1.7282    2.0048 H   0  0  0  0  0  0  0  0  0  0  0  0 
    6.8536    2.4429    3.6590 H   0  0  0  0  0  0  0  0  0  0  0  0 
    6.6785    0.8809    4.4742 H   0  0  0  0  0  0  0  0  0  0  0  0 
    5.3898    1.4810    3.4181 H   0  0  0  0  0  0  0  0  0  0  0  0 
    9.0480    1.7905    2.5924 H   0  0  0  0  0  0  0  0  0  0  0  0 
    9.1819    0.3014    1.6399 H   0  0  0  0  0  0  0  0  0  0  0  0 
    9.0009    0.2152    3.3997 H   0  0  0  0  0  0  0  0  0  0  0  0 
    1.8238   -0.4149   -1.4450 H   0  0  0  0  0  0  0  0  0  0  0  0 
    3.5188   -0.6372   -1.9277 H   0  0  0  0  0  0  0  0  0  0  0  0 
    2.9750    0.9214   -1.2854 H   0  0  0  0  0  0  0  0  0  0  0  0 
    2.3238    1.0937    1.2914 H   0  0  0  0  0  0  0  0  0  0  0  0 
    4.5743   -0.5391    2.7170 H   0  0  0  0  0  0  0  0  0  0  0  0 
    4.9739   -2.0166    1.8710 H   0  0  0  0  0  0  0  0  0  0  0  0 
    7.2486   -1.1891    1.3494 H   0  0  0  0  0  0  0  0  0  0  0  0 
    6.9399   -1.2984    3.0749 H   0  0  0  0  0  0  0  0  0  0  0  0 
    5.3116   -0.7087   -0.2563 H   0  0  0  0  0  0  0  0  0  0  0  0 
    4.8272    0.7622    0.5734 H   0  0  0  0  0  0  0  0  0  0  0  0 
    6.9001    1.2850    1.4392 H   0  0  0  0  0  0  0  0  0  0  0  0 
    3.0664   -1.7239    0.2852 H   0  0  0  0  0  0  0  0  0  0  0  0 
  1 11  1  0  0  0  0 
  2 13  1  0  0  0  0 
  2 14  1  0  0  0  0 
  3 16  1  0  0  0  0 
  3 18  1  0  0  0  0 
  4 10  1  0  0  0  0 
  5 22  1  0  0  0  0 
  5  1  2  0  0  0  0 
  6  7  1  0  0  0  0 
  6 23  1  0  0  0  0 
  7  9  1  0  0  0  0 
  7 26  1  0  0  0  0 
  8 28  1  0  0  0  0 
  8  6  1  0  0  0  0 
  9  3  1  0  0  0  0 
  9  2  1  0  0  0  0 
 10 30  1  1  0  0  0 
 10  8  1  0  0  0  0 
 10  5  1  0  0  0  0 
 12  1  1  0  0  0  0 
 15  2  1  0  0  0  0 
 17  3  1  0  0  0  0 
 19  4  1  0  0  0  0 
 20  4  1  0  0  0  0 
 21  4  1  0  0  0  0 
 24  6  1  0  0  0  0 
 25  7  1  0  0  0  0 
 27  8  1  0  0  0  0 
 29  9  1  0  0  0  0 
M  END 
>  <HBA> 
0 
 
>  <HBD> 
0 
 
>  <TPSA> 
0.0 
 
>  <cid> 
21085 
 
>  <dipole> 
0.26 
 
>  <excitation_energy_1> 
6.439 
 
>  <excitation_energy_2> 
6.73 
 
>  <excitation_energy_3> 
6.763 
 
>  <excitation_energy_4> 
6.93 
 
>  <homo_energy> 
-6.789 
 
>  <homo_lumo_gap> 
7.464 
 
>  <logP> 
3.635 
 
>  <lumo_energy> 
0.675 
 
>  <melting_point> 
-49.82 
 
>  <molecular_refractivity> 
49.71 
 
>  <oscillator_strength_1> 
0.0489 
 
>  <oscillator_strength_2> 
0.011 
 
>  <oscillator_strength_3> 
0.0058 
 
>  <oscillator_strength_4> 
0.1804 
 
>  <open_babel_can_smiles> 
C=C[C@H](CCCC(C)C)C 
 
>  <mulliken_charges> 
30 
1   -0.347954 
2   -0.445339 
3   -0.441093 
4   -0.447365 
5   -0.033938 
6   -0.263432 
7   -0.24937 
8   -0.258596 
9   -0.067657 
10   -0.116901 
11   0.136913 
12   0.134606 
13   0.138069 
14   0.137516 
15   0.145268 
16   0.137753 
17   0.138221 
18   0.137531 
19   0.149181 
20   0.141615 
21   0.139708 
22   0.118586 
23   0.14389 
24   0.124915 
25   0.122291 
26   0.122753 
27   0.126215 
28   0.130243 
29   0.123493 
30   0.122877 
 
>  <lowdin_charges> 
30 
1   -0.345995 
2   -0.44423 
3   -0.444477 
4   -0.440553 
5   -0.139177 
6   -0.27948 
7   -0.277552 
8   -0.274766 
9   -0.123169 
10   -0.119045 
11   0.158287 
12   0.151475 
13   0.146547 
14   0.145012 
15   0.146867 
16   0.145745 
17   0.147325 
18   0.145033 
19   0.151684 
20   0.149711 
21   0.144478 
22   0.144331 
23   0.146823 
24   0.138609 
25   0.138256 
26   0.13912 
27   0.140314 
28   0.136335 
29   0.135197 
30   0.137294 
 
$$$$ 
 
