PCCDB-ID:  10345 
public computational chemistry database (PCCDB) project, http://pccdb.org 
 
 18 19  0  0  1  0  0  0  0  0999 V2000 
   -1.2483   -0.7722   -0.5250 C   0  0  0  0  0  0  0  0  0  0  0  0 
   -1.2386    0.7915   -0.5122 C   0  0  0  0  0  0  0  0  0  0  0  0 
    0.0108   -0.0165    1.3731 C   0  0  0  0  0  0  0  0  0  0  0  0 
    1.2587   -0.7787   -0.5186 C   0  0  0  0  0  0  0  0  0  0  0  0 
    0.0048   -1.1398    0.3070 C   0  0  2  0  0  0  0  0  0  0  0  0 
    0.0149    1.1404    0.3482 C   0  0  1  0  0  0  0  0  0  0  0  0 
    1.2156    0.7627   -0.5193 C   0  0  0  0  0  0  0  0  0  0  0  0 
    1.9703    1.5083   -1.1034 O   0  0  0  0  0  0  0  0  0  0  0  0 
   -1.2041   -1.1863   -1.5382 H   0  0  0  0  0  0  0  0  0  0  0  0 
   -2.1564   -1.1640   -0.0538 H   0  0  0  0  0  0  0  0  0  0  0  0 
   -2.1360    1.1931   -0.0290 H   0  0  0  0  0  0  0  0  0  0  0  0 
   -1.1853    1.2295   -1.5138 H   0  0  0  0  0  0  0  0  0  0  0  0 
    0.8984   -0.0330    2.0156 H   0  0  0  0  0  0  0  0  0  0  0  0 
   -0.8840   -0.0191    2.0048 H   0  0  0  0  0  0  0  0  0  0  0  0 
    1.2701   -1.1757   -1.5400 H   0  0  0  0  0  0  0  0  0  0  0  0 
    2.1833   -1.1097   -0.0271 H   0  0  0  0  0  0  0  0  0  0  0  0 
    0.0030   -2.1630    0.6919 H   0  0  0  0  0  0  0  0  0  0  0  0 
    0.0487    2.1672    0.7156 H   0  0  0  0  0  0  0  0  0  0  0  0 
  1  2  1  0  0  0  0 
  1 10  1  0  0  0  0 
  1  5  1  0  0  0  0 
  2 11  1  0  0  0  0 
  2  6  1  0  0  0  0 
  3 14  1  0  0  0  0 
  3 13  1  0  0  0  0 
  4 16  1  0  0  0  0 
  4  5  1  0  0  0  0 
  5 17  1  1  0  0  0 
  5  3  1  0  0  0  0 
  6 18  1  1  0  0  0 
  6  3  1  0  0  0  0 
  7  4  1  0  0  0  0 
  7  6  1  0  0  0  0 
  8  7  2  0  0  0  0 
  9  1  1  0  0  0  0 
 12  2  1  0  0  0  0 
 15  4  1  0  0  0  0 
M  END 
>  <HBA> 
1 
 
>  <HBD> 
0 
 
>  <TPSA> 
17.07 
 
>  <cid> 
10345 
 
>  <dipole> 
3.08 
 
>  <excitation_energy_1> 
4.228 
 
>  <excitation_energy_2> 
5.825 
 
>  <excitation_energy_3> 
6.418 
 
>  <excitation_energy_4> 
6.43 
 
>  <homo_energy> 
-6.291 
 
>  <homo_lumo_gap> 
6.025 
 
>  <logP> 
1.375 
 
>  <lumo_energy> 
-0.267 
 
>  <melting_point> 
39.32 
 
>  <molecular_refractivity> 
31.73 
 
>  <oscillator_strength_1> 
0.0002 
 
>  <oscillator_strength_2> 
0.005 
 
>  <oscillator_strength_3> 
0.0259 
 
>  <oscillator_strength_4> 
0.0071 
 
>  <open_babel_can_smiles> 
O=C1C[C@H]2C[C@@H]1CC2 
 
>  <mulliken_charges> 
18 
1   -0.270977 
2   -0.287178 
3   -0.283065 
4   -0.35061 
5   -0.117455 
6   -0.171975 
7   0.454455 
8   -0.455523 
9   0.14177 
10   0.142215 
11   0.151241 
12   0.157182 
13   0.145174 
14   0.142073 
15   0.165489 
16   0.169213 
17   0.127648 
18   0.140325 
 
>  <lowdin_charges> 
18 
1   -0.285878 
2   -0.279377 
3   -0.282559 
4   -0.316837 
5   -0.133141 
6   -0.163865 
7   0.156573 
8   -0.230492 
9   0.146251 
10   0.148479 
11   0.153744 
12   0.153114 
13   0.148761 
14   0.149348 
15   0.164254 
16   0.169539 
17   0.144974 
18   0.15711 
 
$$$$ 
 
