PCCDB-ID:  15053 
public computational chemistry database (PCCDB) project, http://pccdb.org 
 
 23 24  0  0  1  0  0  0  0  0999 V2000 
    2.3767    0.6363    0.0053 C   0  0  0  0  0  0  0  0  0  0  0  0 
    2.3291   -0.7600   -0.0330 C   0  0  0  0  0  0  0  0  0  0  0  0 
    1.1944    1.3746    0.0249 C   0  0  0  0  0  0  0  0  0  0  0  0 
    1.0989   -1.4158   -0.0326 C   0  0  0  0  0  0  0  0  0  0  0  0 
   -3.6556   -1.3975    0.0490 C   0  0  0  0  0  0  0  0  0  0  0  0 
   -2.3652    0.7708   -0.3263 C   0  0  0  0  0  0  0  0  0  0  0  0 
   -2.4211   -0.5745    0.3883 C   0  0  2  0  0  0  0  0  0  0  0  0 
   -0.0391    0.7224    0.0143 C   0  0  0  0  0  0  0  0  0  0  0  0 
   -0.0867   -0.6810   -0.0037 C   0  0  0  0  0  0  0  0  0  0  0  0 
   -3.6671   -2.6219    0.8498 N   0  0  0  0  0  0  0  0  0  0  0  0 
   -1.1826    1.4843    0.0323 O   0  0  0  0  0  0  0  0  0  0  0  0 
   -1.2823   -1.3601   -0.0045 O   0  0  0  0  0  0  0  0  0  0  0  0 
    3.3322    1.1526    0.0118 H   0  0  0  0  0  0  0  0  0  0  0  0 
    3.2471   -1.3401   -0.0536 H   0  0  0  0  0  0  0  0  0  0  0  0 
    1.2009    2.4602    0.0426 H   0  0  0  0  0  0  0  0  0  0  0  0 
    1.0321   -2.4996   -0.0473 H   0  0  0  0  0  0  0  0  0  0  0  0 
   -3.6693   -1.5616   -1.0438 H   0  0  0  0  0  0  0  0  0  0  0  0 
   -4.5457   -0.8082    0.3032 H   0  0  0  0  0  0  0  0  0  0  0  0 
   -3.2037    1.4084   -0.0342 H   0  0  0  0  0  0  0  0  0  0  0  0 
   -2.3926    0.6185   -1.4149 H   0  0  0  0  0  0  0  0  0  0  0  0 
   -2.3772   -0.4133    1.4741 H   0  0  0  0  0  0  0  0  0  0  0  0 
   -2.8378   -3.1673    0.6212 H   0  0  0  0  0  0  0  0  0  0  0  0 
   -4.4709   -3.1927    0.5957 H   0  0  0  0  0  0  0  0  0  0  0  0 
  1 13  1  0  0  0  0 
  1  3  2  0  0  0  0 
  2  4  2  0  0  0  0 
  2  1  1  0  0  0  0 
  3 15  1  0  0  0  0 
  4  9  1  0  0  0  0 
  5 18  1  0  0  0  0 
  5  7  1  0  0  0  0 
  5 10  1  0  0  0  0 
  6 19  1  0  0  0  0 
  6 11  1  0  0  0  0 
  6  7  1  0  0  0  0 
  7 21  1  1  0  0  0 
  8  3  1  0  0  0  0 
  8 11  1  0  0  0  0 
  9  8  2  0  0  0  0 
 12  9  1  0  0  0  0 
 12  7  1  0  0  0  0 
 14  2  1  0  0  0  0 
 16  4  1  0  0  0  0 
 17  5  1  0  0  0  0 
 20  6  1  0  0  0  0 
 22 10  1  0  0  0  0 
 23 10  1  0  0  0  0 
M  END 
>  <HBA> 
3 
 
>  <HBD> 
1 
 
>  <TPSA> 
44.48 
 
>  <cid> 
15053 
 
>  <dipole> 
2.07 
 
>  <excitation_energy_1> 
4.892 
 
>  <excitation_energy_2> 
5.302 
 
>  <excitation_energy_3> 
5.523 
 
>  <excitation_energy_4> 
5.595 
 
>  <homo_energy> 
-5.638 
 
>  <homo_lumo_gap> 
5.831 
 
>  <logP> 
1.485 
 
>  <lumo_energy> 
0.193 
 
>  <melting_point> 
90.69 
 
>  <molecular_refractivity> 
44.83 
 
>  <oscillator_strength_1> 
0.0451 
 
>  <oscillator_strength_2> 
0.0049 
 
>  <oscillator_strength_3> 
0.0079 
 
>  <oscillator_strength_4> 
0.0051 
 
>  <open_babel_can_smiles> 
NC[C@@H]1COc2c(O1)cccc2 
 
>  <mulliken_charges> 
23 
1   -0.137713 
2   -0.138145 
3   -0.190743 
4   -0.191436 
5   -0.150444 
6   -0.048894 
7   0.113219 
8   0.329451 
9   0.33749 
10   -0.723092 
11   -0.527411 
12   -0.552458 
13   0.127113 
14   0.126877 
15   0.138355 
16   0.134191 
17   0.126398 
18   0.144487 
19   0.156684 
20   0.150217 
21   0.161503 
22   0.314603 
23   0.299749 
 
>  <lowdin_charges> 
23 
1   -0.166414 
2   -0.167506 
3   -0.173788 
4   -0.174956 
5   -0.20666 
6   -0.139235 
7   -0.009426 
8   0.061118 
9   0.061429 
10   -0.557487 
11   -0.206145 
12   -0.21646 
13   0.158147 
14   0.158384 
15   0.164851 
16   0.162937 
17   0.124645 
18   0.150067 
19   0.161126 
20   0.143343 
21   0.150309 
22   0.263208 
23   0.258511 
 
$$$$ 
 
