PCCDB-ID:  37475 
public computational chemistry database (PCCDB) project, http://pccdb.org 
 
 32 33  0  0  0  0  0  0  0  0999 V2000 
    4.0070   -0.2880   -0.1231 C   0  0  0  0  0  0  0  0  0  0  0  0 
    2.2612    7.0335   -0.2243 C   0  0  0  0  0  0  0  0  0  0  0  0 
    0.4713   -1.6107    0.0146 C   0  0  0  0  0  0  0  0  0  0  0  0 
    1.8220    5.7394   -0.4902 C   0  0  0  0  0  0  0  0  0  0  0  0 
    3.3021    7.2581    0.6760 C   0  0  0  0  0  0  0  0  0  0  0  0 
    1.9230    3.2924   -0.1756 C   0  0  0  0  0  0  0  0  0  0  0  0 
    2.3886    2.1177    0.2829 C   0  0  0  0  0  0  0  0  0  0  0  0 
   -0.1090   -0.4364   -0.7774 C   0  0  0  0  0  0  0  0  0  0  0  0 
    1.9830   -1.6329   -0.1820 C   0  0  0  0  0  0  0  0  0  0  0  0 
    3.4657    4.8680    1.0540 C   0  0  0  0  0  0  0  0  0  0  0  0 
    2.4203    4.6344    0.1455 C   0  0  0  0  0  0  0  0  0  0  0  0 
    3.9018    6.1656    1.3155 C   0  0  0  0  0  0  0  0  0  0  0  0 
    1.7629    0.8219   -0.0815 C   0  0  0  0  0  0  0  0  0  0  0  0 
    0.5196    0.8297   -0.4275 N   0  0  0  0  0  0  0  0  0  0  0  0 
    2.5652   -0.3151    0.0643 N   0  0  0  0  0  0  0  0  0  0  0  0 
    4.9263    6.3124    2.2125 O   0  0  0  0  0  0  0  0  0  0  0  0 
    4.4912   -0.9702    0.5878 H   0  0  0  0  0  0  0  0  0  0  0  0 
    4.4110    0.7115    0.0303 H   0  0  0  0  0  0  0  0  0  0  0  0 
    4.2857   -0.6095   -1.1405 H   0  0  0  0  0  0  0  0  0  0  0  0 
    1.7920    7.8785   -0.7209 H   0  0  0  0  0  0  0  0  0  0  0  0 
    0.0409   -2.5677   -0.3026 H   0  0  0  0  0  0  0  0  0  0  0  0 
    0.2373   -1.4803    1.0784 H   0  0  0  0  0  0  0  0  0  0  0  0 
    1.0100    5.5726   -1.1923 H   0  0  0  0  0  0  0  0  0  0  0  0 
    3.6463    8.2698    0.8834 H   0  0  0  0  0  0  0  0  0  0  0  0 
    1.0751    3.2492   -0.8559 H   0  0  0  0  0  0  0  0  0  0  0  0 
    3.2272    2.0885    0.9725 H   0  0  0  0  0  0  0  0  0  0  0  0 
   -1.1870   -0.3449   -0.5966 H   0  0  0  0  0  0  0  0  0  0  0  0 
    0.0059   -0.6217   -1.8584 H   0  0  0  0  0  0  0  0  0  0  0  0 
    2.2243   -1.9648   -1.2071 H   0  0  0  0  0  0  0  0  0  0  0  0 
    2.4597   -2.3503    0.5010 H   0  0  0  0  0  0  0  0  0  0  0  0 
    3.9536    4.0523    1.5771 H   0  0  0  0  0  0  0  0  0  0  0  0 
    5.1248    7.2565    2.3100 H   0  0  0  0  0  0  0  0  0  0  0  0 
  1 18  1  0  0  0  0 
  1 15  1  0  0  0  0 
  1 17  1  0  0  0  0 
  2  5  1  0  0  0  0 
  3 22  1  0  0  0  0 
  4  2  2  0  0  0  0 
  4 11  1  0  0  0  0 
  5 24  1  0  0  0  0 
  5 12  2  0  0  0  0 
  6 11  1  0  0  0  0 
  6  7  2  0  0  0  0 
  7 26  1  0  0  0  0 
  8 27  1  0  0  0  0 
  8 14  1  0  0  0  0 
  8  3  1  0  0  0  0 
  9  3  1  0  0  0  0 
  9 15  1  0  0  0  0 
  9 30  1  0  0  0  0 
 10 12  1  0  0  0  0 
 10 31  1  0  0  0  0 
 11 10  2  0  0  0  0 
 12 16  1  0  0  0  0 
 13 15  1  0  0  0  0 
 13  7  1  0  0  0  0 
 14 13  2  0  0  0  0 
 16 32  1  0  0  0  0 
 19  1  1  0  0  0  0 
 20  2  1  0  0  0  0 
 21  3  1  0  0  0  0 
 23  4  1  0  0  0  0 
 25  6  1  0  0  0  0 
 28  8  1  0  0  0  0 
 29  9  1  0  0  0  0 
M  END 
>  <HBA> 
3 
 
>  <HBD> 
1 
 
>  <TPSA> 
35.83 
 
>  <cid> 
37475 
 
>  <dipole> 
1.95 
 
>  <excitation_energy_1> 
3.61 
 
>  <excitation_energy_2> 
4.14 
 
>  <excitation_energy_3> 
4.191 
 
>  <excitation_energy_4> 
4.46 
 
>  <homo_energy> 
-5.358 
 
>  <homo_lumo_gap> 
4.204 
 
>  <logP> 
1.513 
 
>  <lumo_energy> 
-1.154 
 
>  <melting_point> 
107.57 
 
>  <molecular_refractivity> 
74.3 
 
>  <oscillator_strength_1> 
0.0813 
 
>  <oscillator_strength_2> 
0.1369 
 
>  <oscillator_strength_3> 
0.1003 
 
>  <oscillator_strength_4> 
0.4627 
 
>  <open_babel_can_smiles> 
Oc1cccc(c1)/C=C/C1=NCCCN1C 
 
>  <mulliken_charges> 
32 
1   -0.30967 
2   -0.134768 
3   -0.299907 
4   -0.197068 
5   -0.194988 
6   -0.163683 
7   -0.190288 
8   -0.139553 
9   -0.113525 
10   -0.222528 
11   0.173413 
12   0.356876 
13   0.495451 
14   -0.482604 
15   -0.46056 
16   -0.6452 
17   0.152322 
18   0.167859 
19   0.146316 
20   0.132482 
21   0.136524 
22   0.154249 
23   0.131692 
24   0.118104 
25   0.15706 
26   0.13989 
27   0.140908 
28   0.133523 
29   0.133302 
30   0.142143 
31   0.135476 
32   0.406752 
 
>  <lowdin_charges> 
32 
1   -0.349408 
2   -0.145596 
3   -0.290515 
4   -0.177512 
5   -0.213559 
6   -0.125788 
7   -0.179205 
8   -0.201898 
9   -0.192908 
10   -0.18919 
11   0.008182 
12   0.105956 
13   0.084806 
14   -0.251415 
15   -0.136385 
16   -0.379755 
17   0.149709 
18   0.16437 
19   0.139206 
20   0.160701 
21   0.151027 
22   0.149863 
23   0.160004 
24   0.152722 
25   0.172772 
26   0.156275 
27   0.143633 
28   0.135657 
29   0.130409 
30   0.146446 
31   0.16625 
32   0.355147 
 
$$$$ 
 
