PCCDB-ID:  47528 
public computational chemistry database (PCCDB) project, http://pccdb.org 
 
 24 24  0  0  0  0  0  0  0  0999 V2000 
    0.9468    1.0826    0.3859 C   0  0  0  0  0  0  0  0  0  0  0  0 
    0.6330   -0.1543   -0.1702 C   0  0  0  0  0  0  0  0  0  0  0  0 
    0.0460    1.6603    1.2830 C   0  0  0  0  0  0  0  0  0  0  0  0 
    0.9937   -3.3150    0.1062 C   0  0  0  0  0  0  0  0  0  0  0  0 
    1.0768   -4.7009    0.7485 C   0  0  0  0  0  0  0  0  0  0  0  0 
   -1.4051   -0.0930    1.0935 C   0  0  0  0  0  0  0  0  0  0  0  0 
   -0.5739   -0.7707    0.1854 C   0  0  0  0  0  0  0  0  0  0  0  0 
   -0.9945   -2.0948   -0.3697 C   0  0  0  0  0  0  0  0  0  0  0  0 
   -1.1121    1.0902    1.6391 N   0  0  0  0  0  0  0  0  0  0  0  0 
   -0.3359   -3.1758   -0.4488 N   0  0  0  0  0  0  0  0  0  0  0  0 
    2.7219   -6.0466    1.8598 N   0  0  0  0  0  0  0  0  0  0  0  0 
   -2.2847   -2.1361   -0.8202 O   0  0  0  0  0  0  0  0  0  0  0  0 
    1.8167   -6.8505    1.9579 O   0  0  0  0  0  0  0  0  0  0  0  0 
    3.8666   -6.1235    2.2370 O   0  0  0  0  0  0  0  0  0  0  0  0 
    2.4405   -4.8213    1.2152 O   0  0  0  0  0  0  0  0  0  0  0  0 
    1.8688    1.5939    0.1272 H   0  0  0  0  0  0  0  0  0  0  0  0 
    1.3015   -0.6279   -0.8827 H   0  0  0  0  0  0  0  0  0  0  0  0 
    0.2617    2.6261    1.7360 H   0  0  0  0  0  0  0  0  0  0  0  0 
    1.7382   -3.2664   -0.7003 H   0  0  0  0  0  0  0  0  0  0  0  0 
    1.2639   -2.5518    0.8502 H   0  0  0  0  0  0  0  0  0  0  0  0 
    0.8545   -5.4844    0.0203 H   0  0  0  0  0  0  0  0  0  0  0  0 
    0.3849   -4.7923    1.5902 H   0  0  0  0  0  0  0  0  0  0  0  0 
   -2.3466   -0.5434    1.4063 H   0  0  0  0  0  0  0  0  0  0  0  0 
   -2.6197   -1.2292   -0.9023 H   0  0  0  0  0  0  0  0  0  0  0  0 
  1  3  2  0  0  0  0 
  2  7  2  0  0  0  0 
  2  1  1  0  0  0  0 
  3  9  1  0  0  0  0 
  3 18  1  0  0  0  0 
  4  5  1  0  0  0  0 
  4 20  1  0  0  0  0 
  5 15  1  0  0  0  0 
  5 22  1  0  0  0  0 
  6 23  1  0  0  0  0 
  6  9  2  0  0  0  0 
  7  6  1  0  0  0  0 
  8  7  1  0  0  0  0 
 10  8  2  0  0  0  0 
 10  4  1  0  0  0  0 
 11 13  2  0  0  0  0 
 11 14  2  0  0  0  0 
 12  8  1  0  0  0  0 
 15 11  1  0  0  0  0 
 16  1  1  0  0  0  0 
 17  2  1  0  0  0  0 
 19  4  1  0  0  0  0 
 21  5  1  0  0  0  0 
 24 12  1  0  0  0  0 
M  END 
>  <HBA> 
3 
 
>  <HBD> 
1 
 
>  <TPSA> 
97.04 
 
>  <cid> 
47528 
 
>  <dipole> 
5.37 
 
>  <excitation_energy_1> 
4.417 
 
>  <excitation_energy_2> 
4.647 
 
>  <excitation_energy_3> 
4.718 
 
>  <excitation_energy_4> 
4.868 
 
>  <homo_energy> 
-7.195 
 
>  <homo_lumo_gap> 
5.527 
 
>  <logP> 
0.934 
 
>  <lumo_energy> 
-1.668 
 
>  <melting_point> 
104.38 
 
>  <molecular_refractivity> 
51.23 
 
>  <oscillator_strength_1> 
0.0001 
 
>  <oscillator_strength_2> 
0.0 
 
>  <oscillator_strength_3> 
0.0033 
 
>  <oscillator_strength_4> 
0.0137 
 
>  <open_babel_can_smiles> 
O=N(=O)OCC/N=C(\c1cccnc1)/O 
 
>  <mulliken_charges> 
24 
1   -0.14402 
2   -0.12229 
3   0.048594 
4   -0.178479 
5   -0.027114 
6   -0.001781 
7   0.01886 
8   0.42815 
9   -0.40086 
10   -0.415891 
11   0.753288 
12   -0.572124 
13   -0.366665 
14   -0.358735 
15   -0.391456 
16   0.154852 
17   0.166674 
18   0.157955 
19   0.165201 
20   0.152023 
21   0.184986 
22   0.175607 
23   0.163553 
24   0.409672 
 
>  <lowdin_charges> 
24 
1   -0.167076 
2   -0.122342 
3   -0.075572 
4   -0.208376 
5   -0.140241 
6   -0.095616 
7   -0.067928 
8   0.132795 
9   -0.136073 
10   -0.196228 
11   0.373847 
12   -0.356968 
13   -0.21753 
14   -0.196906 
15   -0.1878 
16   0.172907 
17   0.175699 
18   0.164434 
19   0.156236 
20   0.143691 
21   0.165865 
22   0.16077 
23   0.165634 
24   0.356778 
 
$$$$ 
 
