PCCDB-ID:  69150 
public computational chemistry database (PCCDB) project, http://pccdb.org 
 
 26 27  0  0  0  0  0  0  0  0999 V2000 
    0.2734   -0.0133   -1.2391 C   0  0  0  0  0  0  0  0  0  0  0  0 
    2.3271   -1.1278   -0.6390 C   0  0  0  0  0  0  0  0  0  0  0  0 
    4.0201    2.7068    0.5508 C   0  0  0  0  0  0  0  0  0  0  0  0 
    4.4780    1.1123   -1.2009 C   0  0  0  0  0  0  0  0  0  0  0  0 
   -0.2799   -1.2271   -1.6242 C   0  0  0  0  0  0  0  0  0  0  0  0 
    1.7778   -2.3520   -1.0032 C   0  0  0  0  0  0  0  0  0  0  0  0 
    5.3575    3.0795    0.5696 C   0  0  0  0  0  0  0  0  0  0  0  0 
    5.8162    1.4898   -1.2046 C   0  0  0  0  0  0  0  0  0  0  0  0 
    1.5906    0.0637   -0.7587 C   0  0  0  0  0  0  0  0  0  0  0  0 
    3.5581    1.7053   -0.3186 C   0  0  0  0  0  0  0  0  0  0  0  0 
    0.4733   -2.4039   -1.5075 C   0  0  0  0  0  0  0  0  0  0  0  0 
    6.2626    2.4697   -0.3106 C   0  0  0  0  0  0  0  0  0  0  0  0 
    2.0935    1.4007   -0.3146 C   0  0  0  0  0  0  0  0  0  0  0  0 
   -0.0147   -3.6263   -1.8620 O   0  0  0  0  0  0  0  0  0  0  0  0 
    7.5857    2.7956   -0.3455 O   0  0  0  0  0  0  0  0  0  0  0  0 
    1.2947    2.2582    0.0571 O   0  0  0  0  0  0  0  0  0  0  0  0 
   -0.3069    0.9016   -1.3014 H   0  0  0  0  0  0  0  0  0  0  0  0 
    3.3315   -1.1039   -0.2290 H   0  0  0  0  0  0  0  0  0  0  0  0 
    3.3046    3.1873    1.2100 H   0  0  0  0  0  0  0  0  0  0  0  0 
    4.1404    0.3679   -1.9145 H   0  0  0  0  0  0  0  0  0  0  0  0 
   -1.2971   -1.2692   -2.0104 H   0  0  0  0  0  0  0  0  0  0  0  0 
    2.3375   -3.2758   -0.8980 H   0  0  0  0  0  0  0  0  0  0  0  0 
    5.7044    3.8461    1.2605 H   0  0  0  0  0  0  0  0  0  0  0  0 
    6.5263    1.0454   -1.8945 H   0  0  0  0  0  0  0  0  0  0  0  0 
   -0.9263   -3.5249   -2.1783 H   0  0  0  0  0  0  0  0  0  0  0  0 
    7.7589    3.4916    0.3078 H   0  0  0  0  0  0  0  0  0  0  0  0 
  1  9  2  0  0  0  0 
  2 18  1  0  0  0  0 
  3  7  1  0  0  0  0 
  3 19  1  0  0  0  0 
  4 10  1  0  0  0  0 
  5 11  2  0  0  0  0 
  5  1  1  0  0  0  0 
  6 22  1  0  0  0  0 
  6  2  2  0  0  0  0 
  7 23  1  0  0  0  0 
  8  4  2  0  0  0  0 
  8 12  1  0  0  0  0 
  9  2  1  0  0  0  0 
  9 13  1  0  0  0  0 
 10 13  1  0  0  0  0 
 10  3  2  0  0  0  0 
 11  6  1  0  0  0  0 
 12  7  2  0  0  0  0 
 13 16  2  0  0  0  0 
 14 11  1  0  0  0  0 
 15 12  1  0  0  0  0 
 15 26  1  0  0  0  0 
 17  1  1  0  0  0  0 
 20  4  1  0  0  0  0 
 21  5  1  0  0  0  0 
 24  8  1  0  0  0  0 
 25 14  1  0  0  0  0 
M  END 
>  <HBA> 
3 
 
>  <HBD> 
2 
 
>  <TPSA> 
57.53 
 
>  <cid> 
69150 
 
>  <dipole> 
1.08 
 
>  <excitation_energy_1> 
3.67 
 
>  <excitation_energy_2> 
4.248 
 
>  <excitation_energy_3> 
4.535 
 
>  <excitation_energy_4> 
4.704 
 
>  <homo_energy> 
-6.166 
 
>  <homo_lumo_gap> 
4.77 
 
>  <logP> 
2.329 
 
>  <lumo_energy> 
-1.396 
 
>  <melting_point> 
145.7 
 
>  <molecular_refractivity> 
60.36 
 
>  <oscillator_strength_1> 
0.0029 
 
>  <oscillator_strength_2> 
0.4213 
 
>  <oscillator_strength_3> 
0.038 
 
>  <oscillator_strength_4> 
0.0001 
 
>  <open_babel_can_smiles> 
O=C(c1ccc(cc1)O)c1ccc(cc1)O 
 
>  <mulliken_charges> 
26 
1   -0.157583 
2   -0.184581 
3   -0.1575 
4   -0.18493 
5   -0.198909 
6   -0.1673 
7   -0.198838 
8   -0.167187 
9   0.070026 
10   0.069745 
11   0.359977 
12   0.359889 
13   0.31571 
14   -0.634443 
15   -0.634363 
16   -0.481609 
17   0.161804 
18   0.150773 
19   0.161928 
20   0.150903 
21   0.126205 
22   0.145472 
23   0.126268 
24   0.145461 
25   0.411529 
26   0.411553 
 
>  <lowdin_charges> 
26 
1   -0.11814 
2   -0.138356 
3   -0.118392 
4   -0.140125 
5   -0.210734 
6   -0.189883 
7   -0.213194 
8   -0.191029 
9   -0.064791 
10   -0.065207 
11   0.113409 
12   0.115176 
13   0.155396 
14   -0.366138 
15   -0.369022 
16   -0.265382 
17   0.176874 
18   0.167434 
19   0.177924 
20   0.169271 
21   0.155452 
22   0.170332 
23   0.157315 
24   0.17133 
25   0.359363 
26   0.361117 
 
$$$$ 
 
