PCCDB-ID:  21987 
public computational chemistry database (PCCDB) project, http://pccdb.org 
 
 23 23  0  0  0  0  0  0  0  0999 V2000 
   -0.3947   -0.9537   -0.0298 C   0  0  0  0  0  0  0  0  0  0  0  0 
   -3.8734   -0.1609    2.1849 C   0  0  0  0  0  0  0  0  0  0  0  0 
   -0.1351    0.4966   -0.1711 C   0  0  0  0  0  0  0  0  0  0  0  0 
   -4.8082   -0.8103    1.2370 C   0  0  0  0  0  0  0  0  0  0  0  0 
   -4.0181    1.8855   -2.7186 C   0  0  0  0  0  0  0  0  0  0  0  0 
   -2.0622    1.0961   -1.4117 C   0  0  0  0  0  0  0  0  0  0  0  0 
   -4.3585    0.5558   -0.6569 C   0  0  0  0  0  0  0  0  0  0  0  0 
   -0.6712   -2.0772    0.0710 N   0  0  0  0  0  0  0  0  0  0  0  0 
   -3.0931    0.3776    2.8562 N   0  0  0  0  0  0  0  0  0  0  0  0 
   -4.5880    2.4906   -3.6857 N   0  0  0  0  0  0  0  0  0  0  0  0 
   -0.7844    1.1127   -1.3183 N   0  0  0  0  0  0  0  0  0  0  0  0 
   -5.2256    0.0215    0.1213 N   0  0  0  0  0  0  0  0  0  0  0  0 
   -2.6511    1.7318   -2.4932 N   0  0  0  0  0  0  0  0  0  0  0  0 
   -4.8006    1.2863   -1.7398 N   0  0  0  0  0  0  0  0  0  0  0  0 
   -2.9696    0.4977   -0.5465 N   0  0  0  0  0  0  0  0  0  0  0  0 
    0.9454    0.6363   -0.2783 H   0  0  0  0  0  0  0  0  0  0  0  0 
   -0.4199    0.9759    0.7800 H   0  0  0  0  0  0  0  0  0  0  0  0 
   -5.7037   -1.1001    1.7963 H   0  0  0  0  0  0  0  0  0  0  0  0 
   -4.3334   -1.7464    0.9010 H   0  0  0  0  0  0  0  0  0  0  0  0 
   -3.9146    2.8905   -4.3386 H   0  0  0  0  0  0  0  0  0  0  0  0 
   -1.9980    2.1723   -3.1266 H   0  0  0  0  0  0  0  0  0  0  0  0 
   -5.8022    1.3421   -1.8698 H   0  0  0  0  0  0  0  0  0  0  0  0 
   -2.5908    0.0190    0.2582 H   0  0  0  0  0  0  0  0  0  0  0  0 
  1  8  3  0  0  0  0 
  2  9  3  0  0  0  0 
  3  1  1  0  0  0  0 
  3 17  1  0  0  0  0 
  4 18  1  0  0  0  0 
  4  2  1  0  0  0  0 
  5 13  1  0  0  0  0 
  5 14  1  0  0  0  0 
  6 11  2  0  0  0  0 
  6 15  1  0  0  0  0 
  7 15  1  0  0  0  0 
  7 12  2  0  0  0  0 
 10  5  2  0  0  0  0 
 11  3  1  0  0  0  0 
 12  4  1  0  0  0  0 
 13  6  1  0  0  0  0 
 14  7  1  0  0  0  0 
 15 23  1  0  0  0  0 
 16  3  1  0  0  0  0 
 19  4  1  0  0  0  0 
 20 10  1  0  0  0  0 
 21 13  1  0  0  0  0 
 22 14  1  0  0  0  0 
M  END 
>  <HBA> 
8 
 
>  <HBD> 
3 
 
>  <TPSA> 
136.33 
 
>  <cid> 
21987 
 
>  <dipole> 
2.2 
 
>  <excitation_energy_1> 
5.48 
 
>  <excitation_energy_2> 
5.714 
 
>  <excitation_energy_3> 
5.811 
 
>  <excitation_energy_4> 
5.937 
 
>  <homo_energy> 
-6.819 
 
>  <homo_lumo_gap> 
6.204 
 
>  <logP> 
0.052 
 
>  <lumo_energy> 
-0.615 
 
>  <melting_point> 
236.58 
 
>  <molecular_refractivity> 
51.95 
 
>  <oscillator_strength_1> 
0.0656 
 
>  <oscillator_strength_2> 
0.0059 
 
>  <oscillator_strength_3> 
0.0039 
 
>  <oscillator_strength_4> 
0.0483 
 
>  <open_babel_can_smiles> 
N#CC/N=c/1\[nH]/c(=N\CC#N)/[nH]c(=N)[nH]1 
 
>  <mulliken_charges> 
23 
1   0.337194 
2   0.334884 
3   -0.243989 
4   -0.233101 
5   0.700395 
6   0.774534 
7   0.775913 
8   -0.464288 
9   -0.469225 
10   -0.641211 
11   -0.490136 
12   -0.489742 
13   -0.707904 
14   -0.679067 
15   -0.752897 
16   0.214492 
17   0.211514 
18   0.214779 
19   0.210647 
20   0.287509 
21   0.357591 
22   0.371404 
23   0.380706 
 
>  <lowdin_charges> 
23 
1   -0.036031 
2   -0.032779 
3   -0.197836 
4   -0.200798 
5   0.142421 
6   0.151343 
7   0.15723 
8   -0.122061 
9   -0.126493 
10   -0.443844 
11   -0.259633 
12   -0.260945 
13   -0.2466 
14   -0.221752 
15   -0.254555 
16   0.189759 
17   0.180616 
18   0.19306 
19   0.181742 
20   0.263197 
21   0.311911 
22   0.318579 
23   0.313468 
 
$$$$ 
 
