PCCDB-ID:  57245 
public computational chemistry database (PCCDB) project, http://pccdb.org 
 
 15 15  0  0  0  0  0  0  0  0999 V2000 
   -1.3297    0.0189    0.1721 C   0  0  0  0  0  0  0  0  0  0  0  0 
   -0.4218    1.2698    0.0930 C   0  0  0  0  0  0  0  0  0  0  0  0 
   -0.3570   -1.1753   -0.0956 C   0  0  0  0  0  0  0  0  0  0  0  0 
    3.2751    1.0186   -0.6386 C   0  0  0  0  0  0  0  0  0  0  0  0 
    0.9217    0.6383   -0.2118 C   0  0  0  0  0  0  0  0  0  0  0  0 
    4.3637    0.6765   -0.8741 N   0  0  0  0  0  0  0  0  0  0  0  0 
    0.9838   -0.6265   -0.3159 N   0  0  0  0  0  0  0  0  0  0  0  0 
    2.0393    1.4678   -0.3665 N   0  0  0  0  0  0  0  0  0  0  0  0 
   -2.1284    0.0601   -0.5735 H   0  0  0  0  0  0  0  0  0  0  0  0 
   -1.8059   -0.0653    1.1528 H   0  0  0  0  0  0  0  0  0  0  0  0 
   -0.3892    1.8400    1.0303 H   0  0  0  0  0  0  0  0  0  0  0  0 
   -0.7197    1.9702   -0.6978 H   0  0  0  0  0  0  0  0  0  0  0  0 
   -0.6514   -1.7608   -0.9748 H   0  0  0  0  0  0  0  0  0  0  0  0 
   -0.3202   -1.8751    0.7480 H   0  0  0  0  0  0  0  0  0  0  0  0 
    1.9183    2.4668   -0.2719 H   0  0  0  0  0  0  0  0  0  0  0  0 
  1 10  1  0  0  0  0 
  2  1  1  0  0  0  0 
  2 11  1  0  0  0  0 
  3  1  1  0  0  0  0 
  3 14  1  0  0  0  0 
  4  8  1  0  0  0  0 
  5  2  1  0  0  0  0 
  6  4  3  0  0  0  0 
  7  5  2  0  0  0  0 
  7  3  1  0  0  0  0 
  8 15  1  0  0  0  0 
  8  5  1  0  0  0  0 
  9  1  1  0  0  0  0 
 12  2  1  0  0  0  0 
 13  3  1  0  0  0  0 
M  END 
>  <HBA> 
3 
 
>  <HBD> 
1 
 
>  <TPSA> 
48.18 
 
>  <cid> 
57245 
 
>  <dipole> 
6.25 
 
>  <excitation_energy_1> 
5.458 
 
>  <excitation_energy_2> 
5.962 
 
>  <excitation_energy_3> 
6.174 
 
>  <excitation_energy_4> 
6.198 
 
>  <homo_energy> 
-6.77 
 
>  <homo_lumo_gap> 
6.846 
 
>  <logP> 
0.076 
 
>  <lumo_energy> 
0.076 
 
>  <melting_point> 
75.62 
 
>  <molecular_refractivity> 
33.6 
 
>  <oscillator_strength_1> 
0.0006 
 
>  <oscillator_strength_2> 
0.0018 
 
>  <oscillator_strength_3> 
0.083 
 
>  <oscillator_strength_4> 
0.0 
 
>  <open_babel_can_smiles> 
N#CNC1=NCCC1 
 
>  <mulliken_charges> 
15 
1   -0.303839 
2   -0.36174 
3   -0.14561 
4   0.545173 
5   0.501655 
6   -0.434658 
7   -0.427546 
8   -0.700069 
9   0.156986 
10   0.156742 
11   0.167765 
12   0.167509 
13   0.156827 
14   0.15677 
15   0.364035 
 
>  <lowdin_charges> 
15 
1   -0.29228 
2   -0.304061 
3   -0.202436 
4   0.022711 
5   0.083045 
6   -0.139478 
7   -0.193528 
8   -0.221255 
9   0.156281 
10   0.155352 
11   0.161322 
12   0.161988 
13   0.151946 
14   0.151638 
15   0.308755 
 
$$$$ 
 
