PCCDB-ID:  71113 
public computational chemistry database (PCCDB) project, http://pccdb.org 
 
 27 26  0  0  0  0  0  0  0  0999 V2000 
    2.7385   -1.4442    2.8124 C   0  0  0  0  0  0  0  0  0  0  0  0 
    6.5727   -2.9714    5.4535 C   0  0  0  0  0  0  0  0  0  0  0  0 
    3.0786   -2.8339    2.2627 C   0  0  0  0  0  0  0  0  0  0  0  0 
    7.2038   -2.1177    4.3450 C   0  0  0  0  0  0  0  0  0  0  0  0 
    4.4350   -3.4111    2.7100 C   0  0  0  0  0  0  0  0  0  0  0  0 
    6.2606   -1.5939    3.2424 C   0  0  0  0  0  0  0  0  0  0  0  0 
    5.6691   -2.6020    2.2093 C   0  0  0  0  0  0  0  0  0  0  0  0 
    6.7783   -3.4841    1.6320 C   0  0  0  0  0  0  0  0  0  0  0  0 
    7.4694   -3.2634    0.5892 N   0  0  0  0  0  0  0  0  0  0  0  0 
    7.0900   -4.6090    2.3433 O   0  0  0  0  0  0  0  0  0  0  0  0 
    1.7403   -1.1327    2.4845 H   0  0  0  0  0  0  0  0  0  0  0  0 
    3.4466   -0.6811    2.4700 H   0  0  0  0  0  0  0  0  0  0  0  0 
    2.7442   -1.4371    3.9095 H   0  0  0  0  0  0  0  0  0  0  0  0 
    7.2997   -3.1608    6.2510 H   0  0  0  0  0  0  0  0  0  0  0  0 
    6.2324   -3.9518    5.0992 H   0  0  0  0  0  0  0  0  0  0  0  0 
    5.7075   -2.4695    5.9041 H   0  0  0  0  0  0  0  0  0  0  0  0 
    3.0514   -2.8090    1.1643 H   0  0  0  0  0  0  0  0  0  0  0  0 
    2.2934   -3.5378    2.5687 H   0  0  0  0  0  0  0  0  0  0  0  0 
    8.0387   -2.6642    3.8902 H   0  0  0  0  0  0  0  0  0  0  0  0 
    7.6502   -1.2332    4.8183 H   0  0  0  0  0  0  0  0  0  0  0  0 
    4.4887   -4.4382    2.3254 H   0  0  0  0  0  0  0  0  0  0  0  0 
    4.4408   -3.4867    3.8043 H   0  0  0  0  0  0  0  0  0  0  0  0 
    6.8245   -0.8472    2.6688 H   0  0  0  0  0  0  0  0  0  0  0  0 
    5.4264   -1.0554    3.7100 H   0  0  0  0  0  0  0  0  0  0  0  0 
    5.3226   -1.9954    1.3628 H   0  0  0  0  0  0  0  0  0  0  0  0 
    7.1515   -2.4020    0.1419 H   0  0  0  0  0  0  0  0  0  0  0  0 
    6.4920   -4.6867    3.1010 H   0  0  0  0  0  0  0  0  0  0  0  0 
  1 13  1  0  0  0  0 
  2 16  1  0  0  0  0 
  2 14  1  0  0  0  0 
  3 18  1  0  0  0  0 
  3  5  1  0  0  0  0 
  3  1  1  0  0  0  0 
  4 20  1  0  0  0  0 
  4  2  1  0  0  0  0 
  5 22  1  0  0  0  0 
  6 24  1  0  0  0  0 
  6  4  1  0  0  0  0 
  7  5  1  0  0  0  0 
  7  6  1  0  0  0  0 
  8  7  1  0  0  0  0 
  8 10  1  0  0  0  0 
  9  8  2  0  0  0  0 
 10 27  1  0  0  0  0 
 11  1  1  0  0  0  0 
 12  1  1  0  0  0  0 
 15  2  1  0  0  0  0 
 17  3  1  0  0  0  0 
 19  4  1  0  0  0  0 
 21  5  1  0  0  0  0 
 23  6  1  0  0  0  0 
 25  7  1  0  0  0  0 
 26  9  1  0  0  0  0 
M  END 
>  <HBA> 
2 
 
>  <HBD> 
1 
 
>  <TPSA> 
43.09 
 
>  <cid> 
71113 
 
>  <dipole> 
4.5 
 
>  <excitation_energy_1> 
6.083 
 
>  <excitation_energy_2> 
6.264 
 
>  <excitation_energy_3> 
6.347 
 
>  <excitation_energy_4> 
6.64 
 
>  <homo_energy> 
-6.865 
 
>  <homo_lumo_gap> 
7.728 
 
>  <logP> 
2.388 
 
>  <lumo_energy> 
0.863 
 
>  <melting_point> 
47.75 
 
>  <molecular_refractivity> 
43.48 
 
>  <oscillator_strength_1> 
0.0015 
 
>  <oscillator_strength_2> 
0.005 
 
>  <oscillator_strength_3> 
0.0049 
 
>  <oscillator_strength_4> 
0.0007 
 
>  <open_babel_can_smiles> 
CCCC(C(=N)O)CCC 
 
>  <mulliken_charges> 
27 
1   -0.445353 
2   -0.444726 
3   -0.259429 
4   -0.274583 
5   -0.311911 
6   -0.266015 
7   -0.160198 
8   0.459766 
9   -0.586758 
10   -0.586627 
11   0.149211 
12   0.149638 
13   0.143556 
14   0.154549 
15   0.125126 
16   0.146071 
17   0.141511 
18   0.139449 
19   0.167216 
20   0.140968 
21   0.148412 
22   0.145986 
23   0.141522 
24   0.142574 
25   0.13985 
26   0.279475 
27   0.420719 
 
>  <lowdin_charges> 
27 
1   -0.447428 
2   -0.448682 
3   -0.268459 
4   -0.285797 
5   -0.294279 
6   -0.279417 
7   -0.165361 
8   0.122807 
9   -0.401541 
10   -0.367155 
11   0.153392 
12   0.149181 
13   0.144841 
14   0.157259 
15   0.133939 
16   0.148712 
17   0.141035 
18   0.147049 
19   0.156946 
20   0.149695 
21   0.149028 
22   0.144852 
23   0.151095 
24   0.147769 
25   0.153698 
26   0.253604 
27   0.353216 
 
$$$$ 
 
