PCCDB-ID:  19157 
public computational chemistry database (PCCDB) project, http://pccdb.org 
 
 41 40  0  0  0  0  0  0  0  0999 V2000 
    1.9822    0.7191   -2.4754 C   0  0  0  0  0  0  0  0  0  0  0  0 
    0.9646   -0.6851   -4.2935 C   0  0  0  0  0  0  0  0  0  0  0  0 
    2.0145   -4.4739   -1.9688 C   0  0  0  0  0  0  0  0  0  0  0  0 
   -0.1563   -3.2169   -2.1223 C   0  0  0  0  0  0  0  0  0  0  0  0 
    0.7950   -0.4529    2.3038 C   0  0  0  0  0  0  0  0  0  0  0  0 
    2.9188   -1.5554    2.1804 C   0  0  0  0  0  0  0  0  0  0  0  0 
    2.5453   -1.7327   -0.7907 C   0  0  0  0  0  0  0  0  0  0  0  0 
    1.4290   -1.5430    0.2526 C   0  0  0  0  0  0  0  0  0  0  0  0 
    1.3198   -0.6344   -2.7961 C   0  0  0  0  0  0  0  0  0  0  0  0 
    1.3235   -3.2264   -2.5516 C   0  0  0  0  0  0  0  0  0  0  0  0 
    3.4438   -1.9694   -3.1154 C   0  0  0  0  0  0  0  0  0  0  0  0 
    2.1329   -1.8975   -2.2912 C   0  0  0  0  0  0  0  0  0  0  0  0 
    3.7085   -2.5813   -4.2022 N   0  0  0  0  0  0  0  0  0  0  0  0 
    1.9056   -0.8179    1.4347 N   0  0  0  0  0  0  0  0  0  0  0  0 
    4.4410   -1.2068   -2.5883 O   0  0  0  0  0  0  0  0  0  0  0  0 
    1.3387    1.5307   -2.8348 H   0  0  0  0  0  0  0  0  0  0  0  0 
    2.9565    0.8233   -2.9629 H   0  0  0  0  0  0  0  0  0  0  0  0 
    2.1284    0.8685   -1.4016 H   0  0  0  0  0  0  0  0  0  0  0  0 
    0.3551    0.1869   -4.5567 H   0  0  0  0  0  0  0  0  0  0  0  0 
    0.3880   -1.5758   -4.5639 H   0  0  0  0  0  0  0  0  0  0  0  0 
    1.8627   -0.6640   -4.9206 H   0  0  0  0  0  0  0  0  0  0  0  0 
    1.9499   -4.4995   -0.8752 H   0  0  0  0  0  0  0  0  0  0  0  0 
    3.0713   -4.5279   -2.2487 H   0  0  0  0  0  0  0  0  0  0  0  0 
    1.5247   -5.3805   -2.3429 H   0  0  0  0  0  0  0  0  0  0  0  0 
   -0.2792   -3.1184   -1.0404 H   0  0  0  0  0  0  0  0  0  0  0  0 
   -0.6166   -4.1688   -2.4134 H   0  0  0  0  0  0  0  0  0  0  0  0 
   -0.7332   -2.4222   -2.6031 H   0  0  0  0  0  0  0  0  0  0  0  0 
    1.1667    0.1412    3.1459 H   0  0  0  0  0  0  0  0  0  0  0  0 
    0.2549   -1.3288    2.7173 H   0  0  0  0  0  0  0  0  0  0  0  0 
    0.0743    0.1579    1.7491 H   0  0  0  0  0  0  0  0  0  0  0  0 
    3.2460   -0.9555    3.0361 H   0  0  0  0  0  0  0  0  0  0  0  0 
    3.7936   -1.7467    1.5528 H   0  0  0  0  0  0  0  0  0  0  0  0 
    2.5500   -2.5282    2.5653 H   0  0  0  0  0  0  0  0  0  0  0  0 
    3.1628   -2.5927   -0.5120 H   0  0  0  0  0  0  0  0  0  0  0  0 
    3.1998   -0.8652   -0.7127 H   0  0  0  0  0  0  0  0  0  0  0  0 
    0.9922   -2.5202    0.5414 H   0  0  0  0  0  0  0  0  0  0  0  0 
    0.6108   -0.9489   -0.1671 H   0  0  0  0  0  0  0  0  0  0  0  0 
    0.3726   -0.6544   -2.2441 H   0  0  0  0  0  0  0  0  0  0  0  0 
    1.2983   -3.3650   -3.6395 H   0  0  0  0  0  0  0  0  0  0  0  0 
    2.9212   -3.1299   -4.5406 H   0  0  0  0  0  0  0  0  0  0  0  0 
    5.1844   -1.3086   -3.2133 H   0  0  0  0  0  0  0  0  0  0  0  0 
  1 18  1  0  0  0  0 
  2  9  1  0  0  0  0 
  3 22  1  0  0  0  0 
  4 25  1  0  0  0  0 
  5 29  1  0  0  0  0 
  5 28  1  0  0  0  0 
  6 33  1  0  0  0  0 
  6 31  1  0  0  0  0 
  7 35  1  0  0  0  0 
  7 34  1  0  0  0  0 
  7  8  1  0  0  0  0 
  8 36  1  0  0  0  0 
  8 14  1  0  0  0  0 
  9  1  1  0  0  0  0 
  9 12  1  0  0  0  0 
  9 38  1  0  0  0  0 
 10 12  1  0  0  0  0 
 10  4  1  0  0  0  0 
 10  3  1  0  0  0  0 
 11 15  1  0  0  0  0 
 11 12  1  0  0  0  0 
 12  7  1  0  0  0  0 
 13 11  2  0  0  0  0 
 14  6  1  0  0  0  0 
 14  5  1  0  0  0  0 
 16  1  1  0  0  0  0 
 17  1  1  0  0  0  0 
 19  2  1  0  0  0  0 
 20  2  1  0  0  0  0 
 21  2  1  0  0  0  0 
 23  3  1  0  0  0  0 
 24  3  1  0  0  0  0 
 26  4  1  0  0  0  0 
 27  4  1  0  0  0  0 
 30  5  1  0  0  0  0 
 32  6  1  0  0  0  0 
 37  8  1  0  0  0  0 
 39 10  1  0  0  0  0 
 40 13  1  0  0  0  0 
 41 15  1  0  0  0  0 
M  END 
>  <HBA> 
3 
 
>  <HBD> 
1 
 
>  <TPSA> 
46.33 
 
>  <cid> 
19157 
 
>  <dipole> 
1.7 
 
>  <excitation_energy_1> 
5.219 
 
>  <excitation_energy_2> 
5.544 
 
>  <excitation_energy_3> 
5.561 
 
>  <excitation_energy_4> 
5.687 
 
>  <homo_energy> 
-5.72 
 
>  <homo_lumo_gap> 
6.449 
 
>  <logP> 
2.422 
 
>  <lumo_energy> 
0.729 
 
>  <melting_point> 
66.41 
 
>  <molecular_refractivity> 
65.34 
 
>  <oscillator_strength_1> 
0.0189 
 
>  <oscillator_strength_2> 
0.0091 
 
>  <oscillator_strength_3> 
0.0096 
 
>  <oscillator_strength_4> 
0.0052 
 
>  <open_babel_can_smiles> 
CN(CCC(C(=N)O)(C(C)C)C(C)C)C 
 
>  <mulliken_charges> 
41 
1   -0.461316 
2   -0.467691 
3   -0.461955 
4   -0.468104 
5   -0.291824 
6   -0.302579 
7   -0.313095 
8   -0.123843 
9   -0.093546 
10   -0.095024 
11   0.506349 
12   0.026371 
13   -0.65274 
14   -0.374776 
15   -0.597072 
16   0.135173 
17   0.158008 
18   0.161037 
19   0.143087 
20   0.142513 
21   0.158828 
22   0.148295 
23   0.156178 
24   0.141758 
25   0.153368 
26   0.143141 
27   0.150591 
28   0.147986 
29   0.114842 
30   0.147132 
31   0.148301 
32   0.160727 
33   0.113572 
34   0.143747 
35   0.189549 
36   0.113487 
37   0.139656 
38   0.135371 
39   0.119242 
40   0.296858 
41   0.408399 
 
>  <lowdin_charges> 
41 
1   -0.451531 
2   -0.456511 
3   -0.449068 
4   -0.452527 
5   -0.360065 
6   -0.360361 
7   -0.292401 
8   -0.206956 
9   -0.121389 
10   -0.122286 
11   0.138073 
12   -0.01327 
13   -0.441743 
14   -0.183093 
15   -0.364174 
16   0.148254 
17   0.154619 
18   0.15577 
19   0.151899 
20   0.147026 
21   0.15568 
22   0.14683 
23   0.153597 
24   0.150881 
25   0.150542 
26   0.151789 
27   0.15247 
28   0.150431 
29   0.119567 
30   0.149783 
31   0.15136 
32   0.155014 
33   0.117848 
34   0.149596 
35   0.170828 
36   0.114565 
37   0.145251 
38   0.14245 
39   0.133102 
40   0.259432 
41   0.358716 
 
$$$$ 
 
