PCCDB-ID:  56035 
public computational chemistry database (PCCDB) project, http://pccdb.org 
 
 24 23  0  0  1  0  0  0  0  0999 V2000 
    3.6714    1.1763   -2.1780 C   0  0  0  0  0  0  0  0  0  0  0  0 
    4.4220    2.7016    1.3206 C   0  0  0  0  0  0  0  0  0  0  0  0 
    1.9335   -0.1201   -0.8218 C   0  0  0  0  0  0  0  0  0  0  0  0 
    5.9457    0.7041    1.6690 C   0  0  0  0  0  0  0  0  0  0  0  0 
    0.8226    0.2427   -1.7045 C   0  0  0  0  0  0  0  0  0  0  0  0 
    7.0921    1.4956    2.1205 C   0  0  0  0  0  0  0  0  0  0  0  0 
    3.0604    0.9438   -0.7881 C   0  0  1  0  0  0  0  0  0  0  0  0 
    5.0421    1.4644    0.6657 C   0  0  1  0  0  0  0  0  0  0  0  0 
   -0.0503    0.5507   -2.4052 N   0  0  0  0  0  0  0  0  0  0  0  0 
    7.9953    2.1370    2.4674 N   0  0  0  0  0  0  0  0  0  0  0  0 
    4.0121    0.5037    0.2417 N   0  0  0  0  0  0  0  0  0  0  0  0 
    2.9112    1.5005   -2.8964 H   0  0  0  0  0  0  0  0  0  0  0  0 
    4.1271    0.2537   -2.5614 H   0  0  0  0  0  0  0  0  0  0  0  0 
    4.4480    1.9473   -2.1436 H   0  0  0  0  0  0  0  0  0  0  0  0 
    5.2045    3.3349    1.7500 H   0  0  0  0  0  0  0  0  0  0  0  0 
    3.7312    2.4036    2.1174 H   0  0  0  0  0  0  0  0  0  0  0  0 
    3.8713    3.3110    0.5977 H   0  0  0  0  0  0  0  0  0  0  0  0 
    2.3408   -1.0850   -1.1541 H   0  0  0  0  0  0  0  0  0  0  0  0 
    1.5549   -0.2652    0.1955 H   0  0  0  0  0  0  0  0  0  0  0  0 
    5.3460    0.4030    2.5363 H   0  0  0  0  0  0  0  0  0  0  0  0 
    6.3277   -0.2167    1.2084 H   0  0  0  0  0  0  0  0  0  0  0  0 
    2.6084    1.8771   -0.4381 H   0  0  0  0  0  0  0  0  0  0  0  0 
    5.6840    1.7968   -0.1687 H   0  0  0  0  0  0  0  0  0  0  0  0 
    4.4789   -0.3370   -0.1027 H   0  0  0  0  0  0  0  0  0  0  0  0 
  1 14  1  0  0  0  0 
  1  7  1  0  0  0  0 
  2 15  1  0  0  0  0 
  2 16  1  0  0  0  0 
  3  7  1  0  0  0  0 
  3 19  1  0  0  0  0 
  4  6  1  0  0  0  0 
  4 20  1  0  0  0  0 
  5  3  1  0  0  0  0 
  6 10  3  0  0  0  0 
  7 22  1  1  0  0  0 
  7 11  1  0  0  0  0 
  8 23  1  6  0  0  0 
  8  2  1  0  0  0  0 
  8  4  1  0  0  0  0 
  9  5  3  0  0  0  0 
 11  8  1  0  0  0  0 
 12  1  1  0  0  0  0 
 13  1  1  0  0  0  0 
 17  2  1  0  0  0  0 
 18  3  1  0  0  0  0 
 21  4  1  0  0  0  0 
 24 11  1  0  0  0  0 
M  END 
>  <HBA> 
3 
 
>  <HBD> 
1 
 
>  <TPSA> 
59.61 
 
>  <cid> 
56035 
 
>  <dipole> 
2.33 
 
>  <excitation_energy_1> 
5.627 
 
>  <excitation_energy_2> 
6.377 
 
>  <excitation_energy_3> 
6.442 
 
>  <excitation_energy_4> 
6.557 
 
>  <homo_energy> 
-6.912 
 
>  <homo_lumo_gap> 
7.369 
 
>  <logP> 
1.571 
 
>  <lumo_energy> 
0.457 
 
>  <melting_point> 
67.09 
 
>  <molecular_refractivity> 
42.87 
 
>  <oscillator_strength_1> 
0.0075 
 
>  <oscillator_strength_2> 
0.0034 
 
>  <oscillator_strength_3> 
0.0172 
 
>  <oscillator_strength_4> 
0.0053 
 
>  <open_babel_can_smiles> 
C[C@@H](CC#N)N[C@H](CC#N)C 
 
>  <mulliken_charges> 
24 
1   -0.465916 
2   -0.466394 
3   -0.340344 
4   -0.350194 
5   0.355402 
6   0.356338 
7   0.029934 
8   0.058775 
9   -0.476491 
10   -0.474938 
11   -0.572399 
12   0.179202 
13   0.140638 
14   0.160378 
15   0.177686 
16   0.159679 
17   0.159098 
18   0.182456 
19   0.207416 
20   0.204962 
21   0.184254 
22   0.162967 
23   0.136998 
24   0.290492 
 
>  <lowdin_charges> 
24 
1   -0.466548 
2   -0.457255 
3   -0.278991 
4   -0.279104 
5   -0.017824 
6   -0.017983 
7   -0.055915 
8   -0.052534 
9   -0.126222 
10   -0.123915 
11   -0.360051 
12   0.170957 
13   0.148567 
14   0.158628 
15   0.17113 
16   0.158887 
17   0.158746 
18   0.175346 
19   0.18955 
20   0.187594 
21   0.177535 
22   0.155971 
23   0.132183 
24   0.251251 
 
$$$$ 
 
