PCCDB-ID:  7168 
public computational chemistry database (PCCDB) project, http://pccdb.org 
 
 26 27  0  0  0  0  0  0  0  0999 V2000 
   -1.3341   -2.3998   -0.0563 C   0  0  0  0  0  0  0  0  0  0  0  0 
   -1.1595    4.1810    0.5031 C   0  0  0  0  0  0  0  0  0  0  0  0 
   -0.1796   -2.6592    0.6837 C   0  0  0  0  0  0  0  0  0  0  0  0 
   -1.4060   -1.2551   -0.8544 C   0  0  0  0  0  0  0  0  0  0  0  0 
   -0.8251    3.2022    1.4409 C   0  0  0  0  0  0  0  0  0  0  0  0 
   -0.4274    4.2684   -0.6839 C   0  0  0  0  0  0  0  0  0  0  0  0 
    0.9019   -1.7808    0.6187 C   0  0  0  0  0  0  0  0  0  0  0  0 
   -0.3328   -0.3687   -0.9116 C   0  0  0  0  0  0  0  0  0  0  0  0 
    0.2158    2.3082    1.1932 C   0  0  0  0  0  0  0  0  0  0  0  0 
    0.6251    3.3900   -0.9320 C   0  0  0  0  0  0  0  0  0  0  0  0 
    0.8337   -0.6239   -0.1753 C   0  0  0  0  0  0  0  0  0  0  0  0 
    0.9464    2.3830   -0.0054 C   0  0  0  0  0  0  0  0  0  0  0  0 
    2.0155    0.2913   -0.2605 C   0  0  0  0  0  0  0  0  0  0  0  0 
    2.0539    1.5614   -0.2653 N   0  0  0  0  0  0  0  0  0  0  0  0 
    3.2207   -0.3466   -0.3515 O   0  0  0  0  0  0  0  0  0  0  0  0 
   -2.1754   -3.0857   -0.0109 H   0  0  0  0  0  0  0  0  0  0  0  0 
   -1.9718    4.8751    0.6999 H   0  0  0  0  0  0  0  0  0  0  0  0 
   -0.1198   -3.5432    1.3124 H   0  0  0  0  0  0  0  0  0  0  0  0 
   -2.3014   -1.0519   -1.4351 H   0  0  0  0  0  0  0  0  0  0  0  0 
   -1.3772    3.1323    2.3749 H   0  0  0  0  0  0  0  0  0  0  0  0 
   -0.6690    5.0340   -1.4170 H   0  0  0  0  0  0  0  0  0  0  0  0 
    1.7938   -1.9773    1.2088 H   0  0  0  0  0  0  0  0  0  0  0  0 
   -0.3931    0.5217   -1.5281 H   0  0  0  0  0  0  0  0  0  0  0  0 
    0.4808    1.5560    1.9304 H   0  0  0  0  0  0  0  0  0  0  0  0 
    1.2138    3.4670   -1.8415 H   0  0  0  0  0  0  0  0  0  0  0  0 
    3.0595   -1.2789   -0.5683 H   0  0  0  0  0  0  0  0  0  0  0  0 
  1 16  1  0  0  0  0 
  1  3  2  0  0  0  0 
  2 17  1  0  0  0  0 
  2  5  2  0  0  0  0 
  3 18  1  0  0  0  0 
  4  1  1  0  0  0  0 
  5 20  1  0  0  0  0 
  6  2  1  0  0  0  0 
  7  3  1  0  0  0  0 
  7 22  1  0  0  0  0 
  8  4  2  0  0  0  0 
  8 11  1  0  0  0  0 
  9  5  1  0  0  0  0 
  9 24  1  0  0  0  0 
 10  6  2  0  0  0  0 
 10 12  1  0  0  0  0 
 11  7  2  0  0  0  0 
 12  9  2  0  0  0  0 
 13 11  1  0  0  0  0 
 14 13  2  0  0  0  0 
 14 12  1  0  0  0  0 
 15 13  1  0  0  0  0 
 19  4  1  0  0  0  0 
 21  6  1  0  0  0  0 
 23  8  1  0  0  0  0 
 25 10  1  0  0  0  0 
 26 15  1  0  0  0  0 
M  END 
>  <HBA> 
2 
 
>  <HBD> 
1 
 
>  <TPSA> 
29.1 
 
>  <cid> 
7168 
 
>  <dipole> 
4.34 
 
>  <excitation_energy_1> 
3.645 
 
>  <excitation_energy_2> 
4.346 
 
>  <excitation_energy_3> 
4.616 
 
>  <excitation_energy_4> 
4.985 
 
>  <homo_energy> 
-5.655 
 
>  <homo_lumo_gap> 
4.498 
 
>  <logP> 
3.012 
 
>  <lumo_energy> 
-1.156 
 
>  <melting_point> 
99.99 
 
>  <molecular_refractivity> 
60.66 
 
>  <oscillator_strength_1> 
0.0393 
 
>  <oscillator_strength_2> 
0.0164 
 
>  <oscillator_strength_3> 
0.0048 
 
>  <oscillator_strength_4> 
0.032 
 
>  <open_babel_can_smiles> 
O/C(=N/c1ccccc1)/c1ccccc1 
 
>  <mulliken_charges> 
26 
1   -0.120873 
2   -0.132101 
3   -0.130325 
4   -0.135703 
5   -0.139287 
6   -0.137733 
7   -0.191518 
8   -0.144309 
9   -0.14316 
10   -0.156575 
11   0.055524 
12   0.237906 
13   0.412356 
14   -0.475137 
15   -0.573857 
16   0.14058 
17   0.122678 
18   0.140853 
19   0.143405 
20   0.126063 
21   0.126319 
22   0.14774 
23   0.162634 
24   0.126596 
25   0.131304 
26   0.406621 
 
>  <lowdin_charges> 
26 
1   -0.145499 
2   -0.175061 
3   -0.151924 
4   -0.1491 
5   -0.152558 
6   -0.154438 
7   -0.168472 
8   -0.13724 
9   -0.183515 
10   -0.180247 
11   -0.045799 
12   0.048457 
13   0.139543 
14   -0.164767 
15   -0.355008 
16   0.163763 
17   0.155595 
18   0.163234 
19   0.164904 
20   0.155882 
21   0.156932 
22   0.164099 
23   0.175746 
24   0.159267 
25   0.161768 
26   0.35444 
 
$$$$ 
 
