PCCDB-ID:  18479 
public computational chemistry database (PCCDB) project, http://pccdb.org 
 
 27 27  0  0  0  0  0  0  0  0999 V2000 
    1.0840    0.2340    1.6653 C   0  0  0  0  0  0  0  0  0  0  0  0 
    2.3300   -1.3987    0.1633 C   0  0  0  0  0  0  0  0  0  0  0  0 
    3.2883    2.5670   -6.8419 C   0  0  0  0  0  0  0  0  0  0  0  0 
    1.9028    2.6136   -6.6818 C   0  0  0  0  0  0  0  0  0  0  0  0 
    4.0937    2.1288   -5.7852 C   0  0  0  0  0  0  0  0  0  0  0  0 
    1.3286    2.2242   -5.4735 C   0  0  0  0  0  0  0  0  0  0  0  0 
    3.5199    1.7405   -4.5795 C   0  0  0  0  0  0  0  0  0  0  0  0 
    1.4618    1.3835   -3.1576 C   0  0  0  0  0  0  0  0  0  0  0  0 
    2.0260    0.9429   -2.0154 C   0  0  0  0  0  0  0  0  0  0  0  0 
    1.9279    0.0741    0.3986 C   0  0  0  0  0  0  0  0  0  0  0  0 
    2.1230    1.7804   -4.4000 C   0  0  0  0  0  0  0  0  0  0  0  0 
    1.1879    0.5901   -0.8401 C   0  0  0  0  0  0  0  0  0  0  0  0 
   -0.0334    0.6814   -0.8630 O   0  0  0  0  0  0  0  0  0  0  0  0 
    1.6218   -0.1548    2.5374 H   0  0  0  0  0  0  0  0  0  0  0  0 
    0.1382   -0.3070    1.5673 H   0  0  0  0  0  0  0  0  0  0  0  0 
    0.8414    1.2856    1.8506 H   0  0  0  0  0  0  0  0  0  0  0  0 
    2.8993   -1.7787    1.0190 H   0  0  0  0  0  0  0  0  0  0  0  0 
    2.9486   -1.5182   -0.7333 H   0  0  0  0  0  0  0  0  0  0  0  0 
    1.4377   -2.0239    0.0433 H   0  0  0  0  0  0  0  0  0  0  0  0 
    3.7403    2.8696   -7.7825 H   0  0  0  0  0  0  0  0  0  0  0  0 
    1.2695    2.9522   -7.4971 H   0  0  0  0  0  0  0  0  0  0  0  0 
    5.1731    2.0907   -5.9046 H   0  0  0  0  0  0  0  0  0  0  0  0 
    0.2490    2.2606   -5.3501 H   0  0  0  0  0  0  0  0  0  0  0  0 
    4.1595    1.4022   -3.7697 H   0  0  0  0  0  0  0  0  0  0  0  0 
    0.3742    1.4536   -3.1525 H   0  0  0  0  0  0  0  0  0  0  0  0 
    3.1037    0.8394   -1.9115 H   0  0  0  0  0  0  0  0  0  0  0  0 
    2.8536    0.6604    0.4986 H   0  0  0  0  0  0  0  0  0  0  0  0 
  1 16  1  0  0  0  0 
  1 14  1  0  0  0  0 
  2 10  1  0  0  0  0 
  2 17  1  0  0  0  0 
  3  4  2  0  0  0  0 
  3  5  1  0  0  0  0 
  4  6  1  0  0  0  0 
  5  7  2  0  0  0  0 
  6 23  1  0  0  0  0 
  6 11  2  0  0  0  0 
  7 11  1  0  0  0  0 
  7 24  1  0  0  0  0 
  8 25  1  0  0  0  0 
  8  9  2  0  0  0  0 
  9 26  1  0  0  0  0 
  9 12  1  0  0  0  0 
 10 27  1  0  0  0  0 
 10  1  1  0  0  0  0 
 11  8  1  0  0  0  0 
 12 10  1  0  0  0  0 
 13 12  2  0  0  0  0 
 15  1  1  0  0  0  0 
 18  2  1  0  0  0  0 
 19  2  1  0  0  0  0 
 20  3  1  0  0  0  0 
 21  4  1  0  0  0  0 
 22  5  1  0  0  0  0 
M  END 
>  <HBA> 
1 
 
>  <HBD> 
0 
 
>  <TPSA> 
17.07 
 
>  <cid> 
18479 
 
>  <dipole> 
3.17 
 
>  <excitation_energy_1> 
3.315 
 
>  <excitation_energy_2> 
4.185 
 
>  <excitation_energy_3> 
4.423 
 
>  <excitation_energy_4> 
5.412 
 
>  <homo_energy> 
-6.329 
 
>  <homo_lumo_gap> 
4.446 
 
>  <logP> 
2.925 
 
>  <lumo_energy> 
-1.883 
 
>  <melting_point> 
45.57 
 
>  <molecular_refractivity> 
55.96 
 
>  <oscillator_strength_1> 
0.0004 
 
>  <oscillator_strength_2> 
0.6853 
 
>  <oscillator_strength_3> 
0.0134 
 
>  <oscillator_strength_4> 
0.1029 
 
>  <open_babel_can_smiles> 
CC(C(=O)/C=C/c1ccccc1)C 
 
>  <mulliken_charges> 
27 
1   -0.436966 
2   -0.450756 
3   -0.123851 
4   -0.131426 
5   -0.13076 
6   -0.187011 
7   -0.172193 
8   -0.151648 
9   -0.203273 
10   -0.165592 
11   0.170314 
12   0.442139 
13   -0.480809 
14   0.134254 
15   0.164813 
16   0.149429 
17   0.152278 
18   0.147307 
19   0.161215 
20   0.136733 
21   0.137571 
22   0.135991 
23   0.141491 
24   0.133257 
25   0.166406 
26   0.128571 
27   0.132517 
 
>  <lowdin_charges> 
27 
1   -0.439714 
2   -0.440493 
3   -0.1464 
4   -0.155281 
5   -0.150791 
6   -0.145765 
7   -0.148264 
8   -0.095183 
9   -0.214233 
10   -0.150593 
11   -0.008095 
12   0.152915 
13   -0.256322 
14   0.147452 
15   0.160752 
16   0.153318 
17   0.155016 
18   0.150993 
19   0.157067 
20   0.161431 
21   0.162787 
22   0.158746 
23   0.160716 
24   0.160522 
25   0.172495 
26   0.15206 
27   0.144865 
 
$$$$ 
 
