PCCDB-ID:  16412 
public computational chemistry database (PCCDB) project, http://pccdb.org 
 
 30 32  0  0  1  0  0  0  0  0999 V2000 
   -3.9345   -0.4605   -0.7445 C   0  0  0  0  0  0  0  0  0  0  0  0 
   -3.2252   -1.6563   -0.6418 C   0  0  0  0  0  0  0  0  0  0  0  0 
   -3.2259    0.7401   -0.6796 C   0  0  0  0  0  0  0  0  0  0  0  0 
   -1.8426   -1.6595   -0.4633 C   0  0  0  0  0  0  0  0  0  0  0  0 
   -1.8426    0.7560   -0.5164 C   0  0  0  0  0  0  0  0  0  0  0  0 
    0.9615    0.7393    0.2956 C   0  0  0  0  0  0  0  0  0  0  0  0 
    1.0508   -1.6640   -0.2976 C   0  0  0  0  0  0  0  0  0  0  0  0 
    1.8397    3.0729   -0.4495 C   0  0  0  0  0  0  0  0  0  0  0  0 
    2.3589   -2.3866    1.8568 C   0  0  0  0  0  0  0  0  0  0  0  0 
   -1.1192   -0.4498   -0.3940 C   0  0  0  0  0  0  0  0  0  0  0  0 
    1.5056    1.6769   -0.7685 C   0  0  2  0  0  0  0  0  0  0  0  0 
    1.1503   -2.4245    1.0169 C   0  0  2  0  0  0  0  0  0  0  0  0 
    0.2718   -0.4387   -0.2153 N   0  0  0  0  0  0  0  0  0  0  0  0 
    0.6640    2.7538   -1.2045 O   0  0  0  0  0  0  0  0  0  0  0  0 
    2.0772   -3.5178    1.0250 O   0  0  0  0  0  0  0  0  0  0  0  0 
   -5.0126   -0.4638   -0.8757 H   0  0  0  0  0  0  0  0  0  0  0  0 
   -3.7495   -2.6077   -0.6873 H   0  0  0  0  0  0  0  0  0  0  0  0 
   -3.7510    1.6874   -0.7754 H   0  0  0  0  0  0  0  0  0  0  0  0 
   -1.3369   -2.6135   -0.3634 H   0  0  0  0  0  0  0  0  0  0  0  0 
   -1.3193    1.7050   -0.5286 H   0  0  0  0  0  0  0  0  0  0  0  0 
    0.3005    1.3059    0.9620 H   0  0  0  0  0  0  0  0  0  0  0  0 
    1.8048    0.3944    0.9078 H   0  0  0  0  0  0  0  0  0  0  0  0 
    0.6175   -2.3172   -1.0621 H   0  0  0  0  0  0  0  0  0  0  0  0 
    2.0650   -1.4274   -0.6425 H   0  0  0  0  0  0  0  0  0  0  0  0 
    2.6277    3.5850   -1.0016 H   0  0  0  0  0  0  0  0  0  0  0  0 
    1.6577    3.4547    0.5561 H   0  0  0  0  0  0  0  0  0  0  0  0 
    2.2821   -2.5640    2.9298 H   0  0  0  0  0  0  0  0  0  0  0  0 
    3.2163   -1.7862    1.5477 H   0  0  0  0  0  0  0  0  0  0  0  0 
    2.0497    1.1897   -1.5806 H   0  0  0  0  0  0  0  0  0  0  0  0 
    0.1985   -2.6366    1.5073 H   0  0  0  0  0  0  0  0  0  0  0  0 
  1  3  2  0  0  0  0 
  1  2  1  0  0  0  0 
  2  4  2  0  0  0  0 
  3  5  1  0  0  0  0 
  4 10  1  0  0  0  0 
  4 19  1  0  0  0  0 
  5 10  2  0  0  0  0 
  6 22  1  0  0  0  0 
  6 21  1  0  0  0  0 
  7 13  1  0  0  0  0 
  7 12  1  0  0  0  0 
  8 26  1  0  0  0  0 
  9 27  1  0  0  0  0 
 10 13  1  0  0  0  0 
 11 29  1  6  0  0  0 
 11  8  1  0  0  0  0 
 11  6  1  0  0  0  0 
 12 15  1  0  0  0  0 
 12 30  1  1  0  0  0 
 12  9  1  0  0  0  0 
 13  6  1  0  0  0  0 
 14 11  1  0  0  0  0 
 14  8  1  0  0  0  0 
 15  9  1  0  0  0  0 
 16  1  1  0  0  0  0 
 17  2  1  0  0  0  0 
 18  3  1  0  0  0  0 
 20  5  1  0  0  0  0 
 23  7  1  0  0  0  0 
 24  7  1  0  0  0  0 
 25  8  1  0  0  0  0 
 28  9  1  0  0  0  0 
M  END 
>  <HBA> 
3 
 
>  <HBD> 
0 
 
>  <TPSA> 
28.3 
 
>  <cid> 
16412 
 
>  <dipole> 
3.21 
 
>  <excitation_energy_1> 
4.511 
 
>  <excitation_energy_2> 
4.62 
 
>  <excitation_energy_3> 
4.936 
 
>  <excitation_energy_4> 
4.988 
 
>  <homo_energy> 
-5.148 
 
>  <homo_lumo_gap> 
5.396 
 
>  <logP> 
1.291 
 
>  <lumo_energy> 
0.248 
 
>  <melting_point> 
37.26 
 
>  <molecular_refractivity> 
57.82 
 
>  <oscillator_strength_1> 
0.0438 
 
>  <oscillator_strength_2> 
0.0089 
 
>  <oscillator_strength_3> 
0.0032 
 
>  <oscillator_strength_4> 
0.0073 
 
>  <open_babel_can_smiles> 
O1C[C@H]1CN(c1ccccc1)C[C@H]1OC1 
 
>  <mulliken_charges> 
30 
1   -0.134489 
2   -0.139771 
3   -0.141025 
4   -0.194295 
5   -0.195945 
6   -0.189407 
7   -0.193293 
8   -0.11875 
9   -0.111367 
10   0.338691 
11   0.117483 
12   0.104523 
13   -0.484054 
14   -0.429187 
15   -0.4422 
16   0.119179 
17   0.123625 
18   0.125599 
19   0.122748 
20   0.162719 
21   0.16501 
22   0.151271 
23   0.176444 
24   0.15025 
25   0.155707 
26   0.151542 
27   0.155387 
28   0.145392 
29   0.149526 
30   0.158685 
 
>  <lowdin_charges> 
30 
1   -0.184949 
2   -0.14834 
3   -0.146133 
4   -0.215521 
5   -0.209734 
6   -0.206489 
7   -0.205987 
8   -0.166157 
9   -0.166657 
10   0.060023 
11   -0.034847 
12   -0.038314 
13   -0.123345 
14   -0.280825 
15   -0.283117 
16   0.15216 
17   0.155036 
18   0.15605 
19   0.156211 
20   0.171562 
21   0.163646 
22   0.155529 
23   0.166186 
24   0.151318 
25   0.158488 
26   0.152182 
27   0.154116 
28   0.149205 
29   0.153518 
30   0.155184 
 
$$$$ 
 
