PCCDB-ID:  32097 
public computational chemistry database (PCCDB) project, http://pccdb.org 
 
 25 25  0  0  1  0  0  0  0  0999 V2000 
    0.9265    0.0532   -0.5378 C   0  0  0  0  0  0  0  0  0  0  0  0 
    2.6925   -0.0606    3.1537 C   0  0  0  0  0  0  0  0  0  0  0  0 
    3.1966   -2.1531    0.7604 C   0  0  0  0  0  0  0  0  0  0  0  0 
    3.0125   -1.2873   -0.5083 C   0  0  0  0  0  0  0  0  0  0  0  0 
    4.2101   -1.6270    1.7884 C   0  0  0  0  0  0  0  0  0  0  0  0 
    2.9558    1.1783    0.3514 C   0  0  0  0  0  0  0  0  0  0  0  0 
    4.1623    0.8890    1.2703 C   0  0  0  0  0  0  0  0  0  0  0  0 
    2.2316   -0.0158   -0.2495 C   0  0  0  0  0  0  0  0  0  0  0  0 
    3.9953   -0.2038    2.3510 C   0  0  1  0  0  0  0  0  0  0  0  0 
    0.4000   -0.7741   -1.0083 H   0  0  0  0  0  0  0  0  0  0  0  0 
    0.3359    0.9404   -0.3192 H   0  0  0  0  0  0  0  0  0  0  0  0 
    2.6510   -0.7997    3.9630 H   0  0  0  0  0  0  0  0  0  0  0  0 
    1.8059   -0.2019    2.5271 H   0  0  0  0  0  0  0  0  0  0  0  0 
    2.6213    0.9346    3.6102 H   0  0  0  0  0  0  0  0  0  0  0  0 
    3.5263   -3.1539    0.4492 H   0  0  0  0  0  0  0  0  0  0  0  0 
    2.2138   -2.2878    1.2301 H   0  0  0  0  0  0  0  0  0  0  0  0 
    2.4782   -1.8838   -1.2572 H   0  0  0  0  0  0  0  0  0  0  0  0 
    3.9991   -1.0557   -0.9361 H   0  0  0  0  0  0  0  0  0  0  0  0 
    5.2124   -1.6599    1.3358 H   0  0  0  0  0  0  0  0  0  0  0  0 
    4.2374   -2.3326    2.6311 H   0  0  0  0  0  0  0  0  0  0  0  0 
    3.3251    1.8090   -0.4720 H   0  0  0  0  0  0  0  0  0  0  0  0 
    2.2235    1.7948    0.8863 H   0  0  0  0  0  0  0  0  0  0  0  0 
    4.4228    1.8357    1.7628 H   0  0  0  0  0  0  0  0  0  0  0  0 
    5.0344    0.6275    0.6554 H   0  0  0  0  0  0  0  0  0  0  0  0 
    4.8233   -0.0496    3.0594 H   0  0  0  0  0  0  0  0  0  0  0  0 
  1 11  1  0  0  0  0 
  1  8  2  0  0  0  0 
  2 14  1  0  0  0  0 
  2 12  1  0  0  0  0 
  3 16  1  0  0  0  0 
  3  5  1  0  0  0  0 
  4  8  1  0  0  0  0 
  4  3  1  0  0  0  0 
  5  9  1  0  0  0  0 
  5 20  1  0  0  0  0 
  6 22  1  0  0  0  0 
  6  7  1  0  0  0  0 
  7 23  1  0  0  0  0 
  7  9  1  0  0  0  0 
  8  6  1  0  0  0  0 
  9 25  1  1  0  0  0 
  9  2  1  0  0  0  0 
 10  1  1  0  0  0  0 
 13  2  1  0  0  0  0 
 15  3  1  0  0  0  0 
 17  4  1  0  0  0  0 
 18  4  1  0  0  0  0 
 19  5  1  0  0  0  0 
 21  6  1  0  0  0  0 
 24  7  1  0  0  0  0 
M  END 
>  <HBA> 
0 
 
>  <HBD> 
0 
 
>  <TPSA> 
0.0 
 
>  <cid> 
32097 
 
>  <dipole> 
0.55 
 
>  <excitation_energy_1> 
5.836 
 
>  <excitation_energy_2> 
6.137 
 
>  <excitation_energy_3> 
6.327 
 
>  <excitation_energy_4> 
6.417 
 
>  <homo_energy> 
-6.362 
 
>  <homo_lumo_gap> 
7.045 
 
>  <logP> 
3.143 
 
>  <lumo_energy> 
0.683 
 
>  <melting_point> 
-23.16 
 
>  <molecular_refractivity> 
42.79 
 
>  <oscillator_strength_1> 
0.0461 
 
>  <oscillator_strength_2> 
0.0972 
 
>  <oscillator_strength_3> 
0.0224 
 
>  <oscillator_strength_4> 
0.0181 
 
>  <open_babel_can_smiles> 
C[C@H]1CCCC(=C)CC1 
 
>  <mulliken_charges> 
25 
1   -0.408482 
2   -0.457341 
3   -0.255751 
4   -0.335252 
5   -0.261389 
6   -0.335864 
7   -0.271528 
8   0.237459 
9   -0.062186 
10   0.129222 
11   0.128741 
12   0.137484 
13   0.15742 
14   0.137152 
15   0.130321 
16   0.140572 
17   0.137861 
18   0.133069 
19   0.123556 
20   0.126409 
21   0.147749 
22   0.14352 
23   0.13075 
24   0.128202 
25   0.118305 
 
>  <lowdin_charges> 
25 
1   -0.372383 
2   -0.452675 
3   -0.274829 
4   -0.27735 
5   -0.279967 
6   -0.282585 
7   -0.283853 
8   0.004591 
9   -0.12713 
10   0.153116 
11   0.152271 
12   0.148069 
13   0.154825 
14   0.146532 
15   0.143373 
16   0.143627 
17   0.151815 
18   0.142663 
19   0.136093 
20   0.142024 
21   0.155988 
22   0.151338 
23   0.145127 
24   0.139679 
25   0.13964 
 
$$$$ 
 
