PCCDB-ID:  6652 
public computational chemistry database (PCCDB) project, http://pccdb.org 
 
 35 35  0  0  1  0  0  0  0  0999 V2000 
    4.2075    0.7946    0.0713 C   0  0  0  0  0  0  0  0  0  0  0  0 
    2.6593   -2.6514   -6.3305 C   0  0  0  0  0  0  0  0  0  0  0  0 
    5.0919   -2.9841   -5.7451 C   0  0  0  0  0  0  0  0  0  0  0  0 
    3.3792   -4.6536   -5.0175 C   0  0  0  0  0  0  0  0  0  0  0  0 
    2.8781   -2.1077   -1.5927 C   0  0  0  0  0  0  0  0  0  0  0  0 
    3.4669   -0.1535   -2.8380 C   0  0  0  0  0  0  0  0  0  0  0  0 
    3.0559   -2.8919   -2.7360 C   0  0  0  0  0  0  0  0  0  0  0  0 
    3.6424   -0.9350   -3.9758 C   0  0  0  0  0  0  0  0  0  0  0  0 
    1.7694    1.1790   -0.5052 C   0  0  0  0  0  0  0  0  0  0  0  0 
    0.4088    0.5722   -0.7691 C   0  0  0  0  0  0  0  0  0  0  0  0 
    2.8938    0.1158   -0.3600 C   0  0  1  0  0  0  0  0  0  0  0  0 
    3.0778   -0.7253   -1.6170 C   0  0  0  0  0  0  0  0  0  0  0  0 
    3.4408   -2.3266   -3.9576 C   0  0  0  0  0  0  0  0  0  0  0  0 
    3.6384   -3.1519   -5.2416 C   0  0  0  0  0  0  0  0  0  0  0  0 
   -0.5423    0.6858   -0.0255 O   0  0  0  0  0  0  0  0  0  0  0  0 
    4.0772    1.3282    1.0198 H   0  0  0  0  0  0  0  0  0  0  0  0 
    4.5466    1.5195   -0.6779 H   0  0  0  0  0  0  0  0  0  0  0  0 
    5.0018    0.0519    0.2010 H   0  0  0  0  0  0  0  0  0  0  0  0 
    2.8001   -3.2174   -7.2595 H   0  0  0  0  0  0  0  0  0  0  0  0 
    2.8117   -1.5916   -6.5599 H   0  0  0  0  0  0  0  0  0  0  0  0 
    1.6190   -2.7781   -6.0097 H   0  0  0  0  0  0  0  0  0  0  0  0 
    5.2469   -3.5646   -6.6628 H   0  0  0  0  0  0  0  0  0  0  0  0 
    5.8096   -3.3359   -4.9952 H   0  0  0  0  0  0  0  0  0  0  0  0 
    5.3285   -1.9386   -5.9689 H   0  0  0  0  0  0  0  0  0  0  0  0 
    3.5304   -5.1981   -5.9563 H   0  0  0  0  0  0  0  0  0  0  0  0 
    2.3521   -4.8458   -4.6872 H   0  0  0  0  0  0  0  0  0  0  0  0 
    4.0633   -5.0799   -4.2749 H   0  0  0  0  0  0  0  0  0  0  0  0 
    2.5763   -2.5878   -0.6639 H   0  0  0  0  0  0  0  0  0  0  0  0 
    3.6384    0.9187   -2.9062 H   0  0  0  0  0  0  0  0  0  0  0  0 
    2.8844   -3.9598   -2.6574 H   0  0  0  0  0  0  0  0  0  0  0  0 
    3.9439   -0.4459   -4.8982 H   0  0  0  0  0  0  0  0  0  0  0  0 
    1.6990    1.7826    0.4058 H   0  0  0  0  0  0  0  0  0  0  0  0 
    2.0170    1.8492   -1.3418 H   0  0  0  0  0  0  0  0  0  0  0  0 
    0.3233   -0.0125   -1.7107 H   0  0  0  0  0  0  0  0  0  0  0  0 
    2.5934   -0.5632    0.4492 H   0  0  0  0  0  0  0  0  0  0  0  0 
  1 18  1  0  0  0  0 
  1 16  1  0  0  0  0 
  2 21  1  0  0  0  0 
  2 14  1  0  0  0  0 
  3 14  1  0  0  0  0 
  3 23  1  0  0  0  0 
  4 26  1  0  0  0  0 
  4 27  1  0  0  0  0 
  5 28  1  0  0  0  0 
  6 12  2  0  0  0  0 
  7 30  1  0  0  0  0 
  7  5  2  0  0  0  0 
  8 13  2  0  0  0  0 
  8  6  1  0  0  0  0 
  9 11  1  0  0  0  0 
  9 32  1  0  0  0  0 
 10  9  1  0  0  0  0 
 10 15  2  0  0  0  0 
 11  1  1  0  0  0  0 
 11 35  1  1  0  0  0 
 12  5  1  0  0  0  0 
 12 11  1  0  0  0  0 
 13  7  1  0  0  0  0 
 14  4  1  0  0  0  0 
 14 13  1  0  0  0  0 
 17  1  1  0  0  0  0 
 19  2  1  0  0  0  0 
 20  2  1  0  0  0  0 
 22  3  1  0  0  0  0 
 24  3  1  0  0  0  0 
 25  4  1  0  0  0  0 
 29  6  1  0  0  0  0 
 31  8  1  0  0  0  0 
 33  9  1  0  0  0  0 
 34 10  1  0  0  0  0 
M  END 
>  <HBA> 
1 
 
>  <HBD> 
0 
 
>  <TPSA> 
17.07 
 
>  <cid> 
6652 
 
>  <dipole> 
3.13 
 
>  <excitation_energy_1> 
4.125 
 
>  <excitation_energy_2> 
5.037 
 
>  <excitation_energy_3> 
5.226 
 
>  <excitation_energy_4> 
5.425 
 
>  <homo_energy> 
-6.335 
 
>  <homo_lumo_gap> 
5.802 
 
>  <logP> 
3.677 
 
>  <lumo_energy> 
-0.533 
 
>  <melting_point> 
46.68 
 
>  <molecular_refractivity> 
65.3 
 
>  <oscillator_strength_1> 
0.0003 
 
>  <oscillator_strength_2> 
0.0024 
 
>  <oscillator_strength_3> 
0.0017 
 
>  <oscillator_strength_4> 
0.003 
 
>  <open_babel_can_smiles> 
O=CC[C@@H](c1ccc(cc1)C(C)(C)C)C 
 
>  <mulliken_charges> 
35 
1   -0.440584 
2   -0.438732 
3   -0.439058 
4   -0.457379 
5   -0.198951 
6   -0.192104 
7   -0.191937 
8   -0.187272 
9   -0.33133 
10   0.254009 
11   -0.180366 
12   0.175784 
13   0.17979 
14   0.016615 
15   -0.390123 
16   0.148291 
17   0.146401 
18   0.155947 
19   0.139492 
20   0.142369 
21   0.148004 
22   0.139475 
23   0.147596 
24   0.142373 
25   0.142243 
26   0.146411 
27   0.145788 
28   0.126281 
29   0.123207 
30   0.128376 
31   0.12579 
32   0.161237 
33   0.153029 
34   0.115403 
35   0.143925 
 
>  <lowdin_charges> 
35 
1   -0.441016 
2   -0.436458 
3   -0.439442 
4   -0.444662 
5   -0.169804 
6   -0.166707 
7   -0.167454 
8   -0.16193 
9   -0.309539 
10   0.056381 
11   -0.117269 
12   -0.014029 
13   -0.000513 
14   0.016844 
15   -0.22088 
16   0.15194 
17   0.150359 
18   0.157476 
19   0.147416 
20   0.1469 
21   0.150741 
22   0.147562 
23   0.152742 
24   0.147096 
25   0.151201 
26   0.14905 
27   0.150871 
28   0.155467 
29   0.150773 
30   0.158685 
31   0.154994 
32   0.161889 
33   0.160324 
34   0.121687 
35   0.149306 
 
$$$$ 
 
