PCCDB-ID:  50404 
public computational chemistry database (PCCDB) project, http://pccdb.org 
 
 29 28  0  0  1  0  0  0  0  0999 V2000 
    2.3784    1.3523    0.6424 C   0  0  0  0  0  0  0  0  0  0  0  0 
    2.5708   -2.5729    0.5394 C   0  0  0  0  0  0  0  0  0  0  0  0 
    2.2407   -0.0902    0.1387 C   0  0  0  0  0  0  0  0  0  0  0  0 
    6.5262   -1.8433    1.7615 C   0  0  0  0  0  0  0  0  0  0  0  0 
    7.0199   -2.8817    2.7629 C   0  0  0  0  0  0  0  0  0  0  0  0 
    4.4971   -0.9836    0.8956 C   0  0  0  0  0  0  0  0  0  0  0  0 
    2.9782   -1.1573    0.9730 C   0  0  2  0  0  0  0  0  0  0  0  0 
    9.1619   -2.1384    3.4598 C   0  0  0  0  0  0  0  0  0  0  0  0 
    8.6395   -1.2112    4.1589 N   0  0  0  0  0  0  0  0  0  0  0  0 
   10.4712   -2.4684    3.2996 O   0  0  0  0  0  0  0  0  0  0  0  0 
    5.1147   -1.9214    1.7638 O   0  0  0  0  0  0  0  0  0  0  0  0 
    8.4529   -3.0004    2.7206 O   0  0  0  0  0  0  0  0  0  0  0  0 
    1.7576    2.0323    0.0479 H   0  0  0  0  0  0  0  0  0  0  0  0 
    3.4094    1.7179    0.5828 H   0  0  0  0  0  0  0  0  0  0  0  0 
    2.0567    1.4378    1.6877 H   0  0  0  0  0  0  0  0  0  0  0  0 
    1.4949   -2.7308    0.6781 H   0  0  0  0  0  0  0  0  0  0  0  0 
    3.1085   -3.3283    1.1186 H   0  0  0  0  0  0  0  0  0  0  0  0 
    2.7976   -2.7358   -0.5228 H   0  0  0  0  0  0  0  0  0  0  0  0 
    2.5815   -0.1505   -0.9058 H   0  0  0  0  0  0  0  0  0  0  0  0 
    1.1753   -0.3561    0.1196 H   0  0  0  0  0  0  0  0  0  0  0  0 
    6.9351   -2.0659    0.7618 H   0  0  0  0  0  0  0  0  0  0  0  0 
    6.8696   -0.8418    2.0589 H   0  0  0  0  0  0  0  0  0  0  0  0 
    6.6456   -3.8709    2.4906 H   0  0  0  0  0  0  0  0  0  0  0  0 
    6.6954   -2.6246    3.7730 H   0  0  0  0  0  0  0  0  0  0  0  0 
    4.7944    0.0365    1.1859 H   0  0  0  0  0  0  0  0  0  0  0  0 
    4.8422   -1.1437   -0.1423 H   0  0  0  0  0  0  0  0  0  0  0  0 
    2.6961   -1.0244    2.0280 H   0  0  0  0  0  0  0  0  0  0  0  0 
    9.3328   -0.6686    4.6721 H   0  0  0  0  0  0  0  0  0  0  0  0 
   11.0072   -1.8442    3.8120 H   0  0  0  0  0  0  0  0  0  0  0  0 
  1 15  1  0  0  0  0 
  2 16  1  0  0  0  0 
  2  7  1  0  0  0  0 
  2 17  1  0  0  0  0 
  3  1  1  0  0  0  0 
  3  7  1  0  0  0  0 
  4 11  1  0  0  0  0 
  4 22  1  0  0  0  0 
  4  5  1  0  0  0  0 
  5 24  1  0  0  0  0 
  6  7  1  0  0  0  0 
  6 25  1  0  0  0  0 
  6 11  1  0  0  0  0 
  7 27  1  1  0  0  0 
  8  9  2  0  0  0  0 
  9 28  1  0  0  0  0 
 10  8  1  0  0  0  0 
 10 29  1  0  0  0  0 
 12  5  1  0  0  0  0 
 12  8  1  0  0  0  0 
 13  1  1  0  0  0  0 
 14  1  1  0  0  0  0 
 18  2  1  0  0  0  0 
 19  3  1  0  0  0  0 
 20  3  1  0  0  0  0 
 21  4  1  0  0  0  0 
 23  5  1  0  0  0  0 
 26  6  1  0  0  0  0 
M  END 
>  <HBA> 
4 
 
>  <HBD> 
1 
 
>  <TPSA> 
61.55 
 
>  <cid> 
50404 
 
>  <dipole> 
2.04 
 
>  <excitation_energy_1> 
5.851 
 
>  <excitation_energy_2> 
6.145 
 
>  <excitation_energy_3> 
6.481 
 
>  <excitation_energy_4> 
6.606 
 
>  <homo_energy> 
-6.808 
 
>  <homo_lumo_gap> 
7.995 
 
>  <logP> 
1.845 
 
>  <lumo_energy> 
1.186 
 
>  <melting_point> 
40.18 
 
>  <molecular_refractivity> 
46.04 
 
>  <oscillator_strength_1> 
0.005 
 
>  <oscillator_strength_2> 
0.0045 
 
>  <oscillator_strength_3> 
0.0442 
 
>  <oscillator_strength_4> 
0.0092 
 
>  <open_babel_can_smiles> 
CC[C@H](COCCOC(=N)O)C 
 
>  <mulliken_charges> 
29 
1   -0.450065 
2   -0.449189 
3   -0.254846 
4   -0.025035 
5   -0.051724 
6   -0.000652 
7   -0.089699 
8   0.643061 
9   -0.62583 
10   -0.566771 
11   -0.490115 
12   -0.448888 
13   0.143683 
14   0.145759 
15   0.145347 
16   0.137511 
17   0.163347 
18   0.13339 
19   0.128249 
20   0.134937 
21   0.12675 
22   0.149184 
23   0.163807 
24   0.184395 
25   0.123452 
26   0.111957 
27   0.132258 
28   0.277208 
29   0.408521 
 
>  <lowdin_charges> 
29 
1   -0.44742 
2   -0.444745 
3   -0.270539 
4   -0.138383 
5   -0.126371 
6   -0.12788 
7   -0.12883 
8   0.190715 
9   -0.474789 
10   -0.364939 
11   -0.272856 
12   -0.176055 
13   0.152386 
14   0.145393 
15   0.147136 
16   0.145207 
17   0.160441 
18   0.141926 
19   0.137083 
20   0.14294 
21   0.129508 
22   0.142001 
23   0.15855 
24   0.166116 
25   0.12903 
26   0.121429 
27   0.140897 
28   0.258966 
29   0.363085 
 
$$$$ 
 
