PCCDB-ID:  43222 
public computational chemistry database (PCCDB) project, http://pccdb.org 
 
 29 28  0  0  1  0  0  0  0  0999 V2000 
    1.0345   -0.4989    0.5296 C   0  0  0  0  0  0  0  0  0  0  0  0 
    1.3310   -2.1864    2.3846 C   0  0  0  0  0  0  0  0  0  0  0  0 
    6.2893   -3.0259   -3.3344 C   0  0  0  0  0  0  0  0  0  0  0  0 
    3.7387   -1.6287   -0.6661 C   0  0  0  0  0  0  0  0  0  0  0  0 
    2.8184   -2.3256    0.3458 C   0  0  0  0  0  0  0  0  0  0  0  0 
    4.5261   -2.6229   -1.5308 C   0  0  0  0  0  0  0  0  0  0  0  0 
    2.0401   -1.3817    1.2846 C   0  0  0  0  0  0  0  0  0  0  0  0 
    5.5379   -1.9716   -2.4975 C   0  0  2  0  0  0  0  0  0  0  0  0 
    4.9000   -0.9268   -3.4166 C   0  0  0  0  0  0  0  0  0  0  0  0 
    5.3016    0.2024   -3.5428 O   0  0  0  0  0  0  0  0  0  0  0  0 
    3.8241   -1.3463   -4.1452 O   0  0  0  0  0  0  0  0  0  0  0  0 
    0.4953    0.1581    1.2220 H   0  0  0  0  0  0  0  0  0  0  0  0 
    0.2890   -1.1157    0.0100 H   0  0  0  0  0  0  0  0  0  0  0  0 
    1.5202    0.1383   -0.2168 H   0  0  0  0  0  0  0  0  0  0  0  0 
    0.7973   -1.5255    3.0776 H   0  0  0  0  0  0  0  0  0  0  0  0 
    2.0432   -2.7813    2.9689 H   0  0  0  0  0  0  0  0  0  0  0  0 
    0.5950   -2.8773    1.9529 H   0  0  0  0  0  0  0  0  0  0  0  0 
    6.8095   -3.7301   -2.6761 H   0  0  0  0  0  0  0  0  0  0  0  0 
    7.0319   -2.5564   -3.9874 H   0  0  0  0  0  0  0  0  0  0  0  0 
    5.6054   -3.6072   -3.9656 H   0  0  0  0  0  0  0  0  0  0  0  0 
    4.4460   -0.9795   -0.1306 H   0  0  0  0  0  0  0  0  0  0  0  0 
    3.1530   -0.9700   -1.3195 H   0  0  0  0  0  0  0  0  0  0  0  0 
    3.4265   -3.0062    0.9598 H   0  0  0  0  0  0  0  0  0  0  0  0 
    2.0999   -2.9641   -0.1919 H   0  0  0  0  0  0  0  0  0  0  0  0 
    3.8213   -3.2597   -2.0914 H   0  0  0  0  0  0  0  0  0  0  0  0 
    5.0817   -3.3153   -0.8838 H   0  0  0  0  0  0  0  0  0  0  0  0 
    2.7729   -0.7199    1.7721 H   0  0  0  0  0  0  0  0  0  0  0  0 
    6.2694   -1.4082   -1.9091 H   0  0  0  0  0  0  0  0  0  0  0  0 
    3.6163   -2.2702   -3.9276 H   0  0  0  0  0  0  0  0  0  0  0  0 
  1 12  1  0  0  0  0 
  1  7  1  0  0  0  0 
  2 16  1  0  0  0  0 
  2 15  1  0  0  0  0 
  3 18  1  0  0  0  0 
  3  8  1  0  0  0  0 
  4 21  1  0  0  0  0 
  4  5  1  0  0  0  0 
  5 23  1  0  0  0  0 
  5  7  1  0  0  0  0 
  6 26  1  0  0  0  0 
  6  4  1  0  0  0  0 
  7 27  1  0  0  0  0 
  7  2  1  0  0  0  0 
  8 28  1  1  0  0  0 
  8  6  1  0  0  0  0 
  9  8  1  0  0  0  0 
 10  9  2  0  0  0  0 
 11 29  1  0  0  0  0 
 11  9  1  0  0  0  0 
 13  1  1  0  0  0  0 
 14  1  1  0  0  0  0 
 17  2  1  0  0  0  0 
 19  3  1  0  0  0  0 
 20  3  1  0  0  0  0 
 22  4  1  0  0  0  0 
 24  5  1  0  0  0  0 
 25  6  1  0  0  0  0 
M  END 
>  <HBA> 
2 
 
>  <HBD> 
1 
 
>  <TPSA> 
37.3 
 
>  <cid> 
43222 
 
>  <dipole> 
4.3 
 
>  <excitation_energy_1> 
5.605 
 
>  <excitation_energy_2> 
6.412 
 
>  <excitation_energy_3> 
7.133 
 
>  <excitation_energy_4> 
7.231 
 
>  <homo_energy> 
-7.132 
 
>  <homo_lumo_gap> 
7.497 
 
>  <logP> 
2.533 
 
>  <lumo_energy> 
0.365 
 
>  <melting_point> 
48.6 
 
>  <molecular_refractivity> 
47.15 
 
>  <oscillator_strength_1> 
0.0034 
 
>  <oscillator_strength_2> 
0.0121 
 
>  <oscillator_strength_3> 
0.0052 
 
>  <oscillator_strength_4> 
0.0111 
 
>  <open_babel_can_smiles> 
CC(CCC[C@H](C(=O)O)C)C 
 
>  <mulliken_charges> 
29 
1   -0.447522 
2   -0.442697 
3   -0.455113 
4   -0.269953 
5   -0.248254 
6   -0.278943 
7   -0.066423 
8   -0.191458 
9   0.595746 
10   -0.442592 
11   -0.574274 
12   0.142755 
13   0.137111 
14   0.151573 
15   0.142003 
16   0.139035 
17   0.138385 
18   0.159074 
19   0.172631 
20   0.136971 
21   0.141906 
22   0.153456 
23   0.126317 
24   0.122625 
25   0.113736 
26   0.146073 
27   0.122785 
28   0.165527 
29   0.409519 
 
>  <lowdin_charges> 
29 
1   -0.450764 
2   -0.447753 
3   -0.444523 
4   -0.284913 
5   -0.277701 
6   -0.280074 
7   -0.121828 
8   -0.165304 
9   0.189897 
10   -0.237402 
11   -0.362317 
12   0.151454 
13   0.146061 
14   0.152758 
15   0.150388 
16   0.148196 
17   0.1464 
18   0.159536 
19   0.165552 
20   0.145919 
21   0.147565 
22   0.150681 
23   0.140609 
24   0.137334 
25   0.130606 
26   0.151428 
27   0.137223 
28   0.167605 
29   0.353368 
 
$$$$ 
 
