PCCDB-ID:  50607 
public computational chemistry database (PCCDB) project, http://pccdb.org 
 
 30 29  0  0  0  0  0  0  0  0999 V2000 
    2.6997   -0.2343    1.2409 C   0  0  0  0  0  0  0  0  0  0  0  0 
   10.9061   -0.2650   -4.5005 C   0  0  0  0  0  0  0  0  0  0  0  0 
    3.7654    0.8452    1.0167 C   0  0  0  0  0  0  0  0  0  0  0  0 
    4.0835    1.1338   -0.4599 C   0  0  0  0  0  0  0  0  0  0  0  0 
    4.7701   -0.0293   -1.2042 C   0  0  0  0  0  0  0  0  0  0  0  0 
    5.0570    0.2932   -2.6456 C   0  0  0  0  0  0  0  0  0  0  0  0 
    6.2711    0.3521   -3.1999 C   0  0  0  0  0  0  0  0  0  0  0  0 
    6.5459    0.6901   -4.6406 C   0  0  0  0  0  0  0  0  0  0  0  0 
    7.3080   -0.4041   -5.3949 C   0  0  0  0  0  0  0  0  0  0  0  0 
    9.6284    0.1182   -5.2109 C   0  0  0  0  0  0  0  0  0  0  0  0 
    9.5218    0.9992   -6.0358 O   0  0  0  0  0  0  0  0  0  0  0  0 
    8.6012   -0.6643   -4.7990 O   0  0  0  0  0  0  0  0  0  0  0  0 
    2.4895   -0.3630    2.3089 H   0  0  0  0  0  0  0  0  0  0  0  0 
    3.0133   -1.2088    0.8500 H   0  0  0  0  0  0  0  0  0  0  0  0 
    1.7572    0.0337    0.7468 H   0  0  0  0  0  0  0  0  0  0  0  0 
   11.7312    0.3328   -4.8890 H   0  0  0  0  0  0  0  0  0  0  0  0 
   11.1137   -1.3305   -4.6412 H   0  0  0  0  0  0  0  0  0  0  0  0 
   10.8006   -0.0936   -3.4238 H   0  0  0  0  0  0  0  0  0  0  0  0 
    4.6912    0.5595    1.5365 H   0  0  0  0  0  0  0  0  0  0  0  0 
    3.4296    1.7784    1.4885 H   0  0  0  0  0  0  0  0  0  0  0  0 
    4.7338    2.0162   -0.5227 H   0  0  0  0  0  0  0  0  0  0  0  0 
    3.1545    1.4016   -0.9852 H   0  0  0  0  0  0  0  0  0  0  0  0 
    4.1262   -0.9197   -1.1557 H   0  0  0  0  0  0  0  0  0  0  0  0 
    5.7047   -0.2916   -0.6898 H   0  0  0  0  0  0  0  0  0  0  0  0 
    4.1840    0.5118   -3.2660 H   0  0  0  0  0  0  0  0  0  0  0  0 
    7.1457    0.1370   -2.5843 H   0  0  0  0  0  0  0  0  0  0  0  0 
    7.1304    1.6171   -4.7172 H   0  0  0  0  0  0  0  0  0  0  0  0 
    5.6013    0.8672   -5.1720 H   0  0  0  0  0  0  0  0  0  0  0  0 
    7.4527   -0.1221   -6.4407 H   0  0  0  0  0  0  0  0  0  0  0  0 
    6.7822   -1.3603   -5.3367 H   0  0  0  0  0  0  0  0  0  0  0  0 
  1 13  1  0  0  0  0 
  2 18  1  0  0  0  0 
  3  1  1  0  0  0  0 
  3 20  1  0  0  0  0 
  3 19  1  0  0  0  0 
  4  3  1  0  0  0  0 
  5 23  1  0  0  0  0 
  5 24  1  0  0  0  0 
  5  4  1  0  0  0  0 
  6  5  1  0  0  0  0 
  7  6  2  0  0  0  0 
  7 26  1  0  0  0  0 
  8  7  1  0  0  0  0 
  9 30  1  0  0  0  0 
  9 12  1  0  0  0  0 
  9  8  1  0  0  0  0 
 10 12  1  0  0  0  0 
 10  2  1  0  0  0  0 
 11 10  2  0  0  0  0 
 14  1  1  0  0  0  0 
 15  1  1  0  0  0  0 
 16  2  1  0  0  0  0 
 17  2  1  0  0  0  0 
 21  4  1  0  0  0  0 
 22  4  1  0  0  0  0 
 25  6  1  0  0  0  0 
 27  8  1  0  0  0  0 
 28  8  1  0  0  0  0 
 29  9  1  0  0  0  0 
M  END 
>  <HBA> 
2 
 
>  <HBD> 
0 
 
>  <TPSA> 
26.3 
 
>  <cid> 
50607 
 
>  <dipole> 
1.87 
 
>  <excitation_energy_1> 
5.771 
 
>  <excitation_energy_2> 
6.039 
 
>  <excitation_energy_3> 
6.19 
 
>  <excitation_energy_4> 
6.326 
 
>  <homo_energy> 
-6.509 
 
>  <homo_lumo_gap> 
6.898 
 
>  <logP> 
2.686 
 
>  <lumo_energy> 
0.389 
 
>  <melting_point> 
-6.99 
 
>  <molecular_refractivity> 
50.99 
 
>  <oscillator_strength_1> 
0.0005 
 
>  <oscillator_strength_2> 
0.0223 
 
>  <oscillator_strength_3> 
0.0302 
 
>  <oscillator_strength_4> 
0.0008 
 
>  <open_babel_can_smiles> 
CCCC/C=C/CCOC(=O)C 
 
>  <mulliken_charges> 
30 
1   -0.444256 
2   -0.522358 
3   -0.249014 
4   -0.248868 
5   -0.302279 
6   -0.095548 
7   -0.091714 
8   -0.334868 
9   -0.046998 
10   0.600671 
11   -0.468281 
12   -0.452087 
13   0.143304 
14   0.145942 
15   0.141164 
16   0.182219 
17   0.181371 
18   0.18103 
19   0.130325 
20   0.132901 
21   0.136307 
22   0.127412 
23   0.142164 
24   0.134563 
25   0.114443 
26   0.124582 
27   0.170891 
28   0.143869 
29   0.168751 
30   0.154361 
 
>  <lowdin_charges> 
30 
1   -0.445719 
2   -0.462284 
3   -0.273883 
4   -0.275093 
5   -0.273156 
6   -0.165101 
7   -0.17527 
8   -0.282907 
9   -0.128566 
10   0.198557 
11   -0.266184 
12   -0.20126 
13   0.148953 
14   0.14648 
15   0.146053 
16   0.176325 
17   0.175898 
18   0.175913 
19   0.139266 
20   0.143306 
21   0.144782 
22   0.138099 
23   0.147767 
24   0.144297 
25   0.144434 
26   0.150033 
27   0.162917 
28   0.154736 
29   0.157999 
30   0.153605 
 
$$$$ 
 
