PCCDB-ID:  21357 
public computational chemistry database (PCCDB) project, http://pccdb.org 
 
 14 14  0  0  0  0  0  0  0  0999 V2000 
   -1.4457   -0.0808   -0.0241 C   0  0  0  0  0  0  0  0  0  0  0  0 
   -0.8185    1.1667   -0.0182 C   0  0  0  0  0  0  0  0  0  0  0  0 
   -0.6829   -1.2502   -0.0062 C   0  0  0  0  0  0  0  0  0  0  0  0 
    0.5742    1.2506    0.0070 C   0  0  0  0  0  0  0  0  0  0  0  0 
    0.7105   -1.1778    0.0186 C   0  0  0  0  0  0  0  0  0  0  0  0 
    3.4991    0.1871    1.6608 C   0  0  0  0  0  0  0  0  0  0  0  0 
    1.3307    0.0752    0.0315 C   0  0  0  0  0  0  0  0  0  0  0  0 
    3.8093    0.1967    2.7849 N   0  0  0  0  0  0  0  0  0  0  0  0 
    3.1383    0.1778   -0.0084 S   0  0  0  0  0  0  0  0  0  0  0  0 
   -2.5302   -0.1418   -0.0453 H   0  0  0  0  0  0  0  0  0  0  0  0 
   -1.4115    2.0767   -0.0333 H   0  0  0  0  0  0  0  0  0  0  0  0 
   -1.1704   -2.2209   -0.0121 H   0  0  0  0  0  0  0  0  0  0  0  0 
    1.0703    2.2158    0.0117 H   0  0  0  0  0  0  0  0  0  0  0  0 
    1.3114   -2.0814    0.0317 H   0  0  0  0  0  0  0  0  0  0  0  0 
  1  2  2  0  0  0  0 
  1  3  1  0  0  0  0 
  2  4  1  0  0  0  0 
  3  5  2  0  0  0  0 
  4 13  1  0  0  0  0 
  4  7  2  0  0  0  0 
  5  7  1  0  0  0  0 
  5 14  1  0  0  0  0 
  6  8  3  0  0  0  0 
  9  7  1  0  0  0  0 
  9  6  1  0  0  0  0 
 10  1  1  0  0  0  0 
 11  2  1  0  0  0  0 
 12  3  1  0  0  0  0 
M  END 
>  <HBA> 
2 
 
>  <HBD> 
0 
 
>  <TPSA> 
49.09 
 
>  <cid> 
21357 
 
>  <dipole> 
4.74 
 
>  <excitation_energy_1> 
5.046 
 
>  <excitation_energy_2> 
5.191 
 
>  <excitation_energy_3> 
5.286 
 
>  <excitation_energy_4> 
5.6 
 
>  <homo_energy> 
-7.263 
 
>  <homo_lumo_gap> 
6.128 
 
>  <logP> 
2.26 
 
>  <lumo_energy> 
-1.135 
 
>  <melting_point> 
50.03 
 
>  <molecular_refractivity> 
37.91 
 
>  <oscillator_strength_1> 
0.0001 
 
>  <oscillator_strength_2> 
0.0009 
 
>  <oscillator_strength_3> 
0.0071 
 
>  <oscillator_strength_4> 
0.0031 
 
>  <open_babel_can_smiles> 
N#CSc1ccccc1 
 
>  <mulliken_charges> 
14 
1   -0.121207 
2   -0.120922 
3   -0.120621 
4   -0.123624 
5   -0.123291 
6   0.130992 
7   -0.125769 
8   -0.383743 
9   0.217127 
10   0.146691 
11   0.148143 
12   0.148114 
13   0.164033 
14   0.164078 
 
>  <lowdin_charges> 
14 
1   -0.13543 
2   -0.14818 
3   -0.147368 
4   -0.142994 
5   -0.143398 
6   -0.168458 
7   -0.126683 
8   -0.117559 
9   0.280649 
10   0.164001 
11   0.167639 
12   0.167044 
13   0.175061 
14   0.175676 
 
$$$$ 
 
