PCCDB-ID:  11267 
public computational chemistry database (PCCDB) project, http://pccdb.org 
 
 14 13  0  0  1  0  0  0  0  0999 V2000 
    1.7002   -0.4244    0.1228 C   0  0  0  0  0  0  0  0  0  0  0  0 
    1.1296   -1.2656   -1.0394 C   0  0  1  0  0  0  0  0  0  0  0  0 
    1.0605   -2.7394   -0.6296 C   0  0  0  0  0  0  0  0  0  0  0  0 
    1.4154    0.9874   -0.1679 N   0  0  0  0  0  0  0  0  0  0  0  0 
   -0.1720   -0.8048   -1.3673 O   0  0  0  0  0  0  0  0  0  0  0  0 
    2.0494   -3.3986   -0.4117 O   0  0  0  0  0  0  0  0  0  0  0  0 
   -0.1895   -3.2102   -0.4928 O   0  0  0  0  0  0  0  0  0  0  0  0 
    2.7592   -0.6720    0.2685 H   0  0  0  0  0  0  0  0  0  0  0  0 
    1.1650   -0.6853    1.0426 H   0  0  0  0  0  0  0  0  0  0  0  0 
    1.7980   -1.1930   -1.9104 H   0  0  0  0  0  0  0  0  0  0  0  0 
    2.1014    1.3710   -0.8161 H   0  0  0  0  0  0  0  0  0  0  0  0 
    1.4574    1.5495    0.6781 H   0  0  0  0  0  0  0  0  0  0  0  0 
   -0.1658    0.1413   -1.0967 H   0  0  0  0  0  0  0  0  0  0  0  0 
   -0.7846   -2.4689   -0.7431 H   0  0  0  0  0  0  0  0  0  0  0  0 
  1  8  1  0  0  0  0 
  1  9  1  0  0  0  0 
  2 10  1  6  0  0  0 
  2  3  1  0  0  0  0 
  2  1  1  0  0  0  0 
  3  7  1  0  0  0  0 
  3  6  2  0  0  0  0 
  4  1  1  0  0  0  0 
  4 12  1  0  0  0  0 
  5 13  1  0  0  0  0 
  5  2  1  0  0  0  0 
 11  4  1  0  0  0  0 
 14  7  1  0  0  0  0 
M  END 
>  <HBA> 
4 
 
>  <HBD> 
3 
 
>  <TPSA> 
83.55 
 
>  <cid> 
11267 
 
>  <dipole> 
5.41 
 
>  <excitation_energy_1> 
5.678 
 
>  <excitation_energy_2> 
6.273 
 
>  <excitation_energy_3> 
6.344 
 
>  <excitation_energy_4> 
6.978 
 
>  <homo_energy> 
-7.083 
 
>  <homo_lumo_gap> 
7.532 
 
>  <logP> 
-0.909 
 
>  <lumo_energy> 
0.449 
 
>  <melting_point> 
125.45 
 
>  <molecular_refractivity> 
22.18 
 
>  <oscillator_strength_1> 
0.0007 
 
>  <oscillator_strength_2> 
0.024 
 
>  <oscillator_strength_3> 
0.0012 
 
>  <oscillator_strength_4> 
0.0235 
 
>  <open_babel_can_smiles> 
NC[C@@H](C(=O)O)O 
 
>  <mulliken_charges> 
14 
1   -0.175516 
2   0.06069 
3   0.587801 
4   -0.75333 
5   -0.672492 
6   -0.464693 
7   -0.576482 
8   0.168125 
9   0.163378 
10   0.157138 
11   0.318228 
12   0.324213 
13   0.426469 
14   0.43647 
 
>  <lowdin_charges> 
14 
1   -0.218062 
2   -0.04926 
3   0.180372 
4   -0.553221 
5   -0.475027 
6   -0.256319 
7   -0.348134 
8   0.152117 
9   0.155816 
10   0.152459 
11   0.267767 
12   0.272337 
13   0.351619 
14   0.367537 
 
$$$$ 
 
