PCCDB-ID:  36889 
public computational chemistry database (PCCDB) project, http://pccdb.org 
 
 30 31  0  0  0  0  0  0  0  0999 V2000 
    1.6166   -1.8056   -2.2689 C   0  0  0  0  0  0  0  0  0  0  0  0 
    2.2198   -0.5634   -2.5501 C   0  0  0  0  0  0  0  0  0  0  0  0 
    0.2461    5.4017   -0.4345 C   0  0  0  0  0  0  0  0  0  0  0  0 
    0.9899   -2.0473   -1.0504 C   0  0  0  0  0  0  0  0  0  0  0  0 
    2.2163    0.4752   -1.6216 C   0  0  0  0  0  0  0  0  0  0  0  0 
    0.2627    5.1047   -1.9363 C   0  0  0  0  0  0  0  0  0  0  0  0 
    1.2525    4.5814    0.3603 C   0  0  0  0  0  0  0  0  0  0  0  0 
    0.7007    0.2009    1.6262 C   0  0  0  0  0  0  0  0  0  0  0  0 
    1.8021    2.3581    0.9384 C   0  0  0  0  0  0  0  0  0  0  0  0 
    0.9763   -1.0173   -0.1024 C   0  0  0  0  0  0  0  0  0  0  0  0 
    1.5913    0.2211   -0.4000 C   0  0  0  0  0  0  0  0  0  0  0  0 
   -0.7025    5.9690   -2.6289 N   0  0  0  0  0  0  0  0  0  0  0  0 
    0.4279   -0.9928    1.1773 N   0  0  0  0  0  0  0  0  0  0  0  0 
    1.4151    0.9912    0.7448 N   0  0  0  0  0  0  0  0  0  0  0  0 
    0.8988    3.2040    0.2647 O   0  0  0  0  0  0  0  0  0  0  0  0 
    1.6403   -2.5868   -3.0237 H   0  0  0  0  0  0  0  0  0  0  0  0 
    2.6927   -0.4088   -3.5160 H   0  0  0  0  0  0  0  0  0  0  0  0 
   -0.7566    5.2087   -0.0291 H   0  0  0  0  0  0  0  0  0  0  0  0 
    0.4537    6.4673   -0.2795 H   0  0  0  0  0  0  0  0  0  0  0  0 
    0.5221   -3.0011   -0.8270 H   0  0  0  0  0  0  0  0  0  0  0  0 
    2.6663    1.4371   -1.8485 H   0  0  0  0  0  0  0  0  0  0  0  0 
    0.0995    4.0261   -2.0920 H   0  0  0  0  0  0  0  0  0  0  0  0 
    1.2596    5.3373   -2.3346 H   0  0  0  0  0  0  0  0  0  0  0  0 
    1.2552    4.8954    1.4174 H   0  0  0  0  0  0  0  0  0  0  0  0 
    2.2736    4.7357   -0.0303 H   0  0  0  0  0  0  0  0  0  0  0  0 
    0.4235    0.5811    2.6025 H   0  0  0  0  0  0  0  0  0  0  0  0 
    2.8250    2.5007    0.5562 H   0  0  0  0  0  0  0  0  0  0  0  0 
    1.8079    2.5627    2.0201 H   0  0  0  0  0  0  0  0  0  0  0  0 
   -1.6485    5.6971   -2.3613 H   0  0  0  0  0  0  0  0  0  0  0  0 
   -0.6447    5.8072   -3.6333 H   0  0  0  0  0  0  0  0  0  0  0  0 
  1  4  1  0  0  0  0 
  2  1  2  0  0  0  0 
  2  5  1  0  0  0  0 
  3 19  1  0  0  0  0 
  3 18  1  0  0  0  0 
  3  7  1  0  0  0  0 
  4 20  1  0  0  0  0 
  4 10  2  0  0  0  0 
  5 11  2  0  0  0  0 
  6  3  1  0  0  0  0 
  7 24  1  0  0  0  0 
  8 26  1  0  0  0  0 
  9 28  1  0  0  0  0 
 10 13  1  0  0  0  0 
 11 10  1  0  0  0  0 
 11 14  1  0  0  0  0 
 12 29  1  0  0  0  0 
 12  6  1  0  0  0  0 
 13  8  2  0  0  0  0 
 14  9  1  0  0  0  0 
 14  8  1  0  0  0  0 
 15  7  1  0  0  0  0 
 15  9  1  0  0  0  0 
 16  1  1  0  0  0  0 
 17  2  1  0  0  0  0 
 21  5  1  0  0  0  0 
 22  6  1  0  0  0  0 
 23  6  1  0  0  0  0 
 25  7  1  0  0  0  0 
 27  9  1  0  0  0  0 
 30 12  1  0  0  0  0 
M  END 
>  <HBA> 
4 
 
>  <HBD> 
1 
 
>  <TPSA> 
53.07 
 
>  <cid> 
36889 
 
>  <dipole> 
2.94 
 
>  <excitation_energy_1> 
4.93 
 
>  <excitation_energy_2> 
5.142 
 
>  <excitation_energy_3> 
5.519 
 
>  <excitation_energy_4> 
5.563 
 
>  <homo_energy> 
-6.06 
 
>  <homo_lumo_gap> 
5.706 
 
>  <logP> 
2.059 
 
>  <lumo_energy> 
-0.354 
 
>  <melting_point> 
109.63 
 
>  <molecular_refractivity> 
59.21 
 
>  <oscillator_strength_1> 
0.04 
 
>  <oscillator_strength_2> 
0.119 
 
>  <oscillator_strength_3> 
0.0004 
 
>  <oscillator_strength_4> 
0.0118 
 
>  <open_babel_can_smiles> 
NCCCOCn1cnc2c1cccc2 
 
>  <mulliken_charges> 
30 
1   -0.14232 
2   -0.151627 
3   -0.265884 
4   -0.174453 
5   -0.162148 
6   -0.138041 
7   -0.027804 
8   0.22097 
9   0.103106 
10   0.214916 
11   0.337565 
12   -0.719162 
13   -0.49926 
14   -0.516185 
15   -0.46125 
16   0.12588 
17   0.12618 
18   0.144292 
19   0.153284 
20   0.139942 
21   0.132278 
22   0.14277 
23   0.131999 
24   0.127711 
25   0.123394 
26   0.159839 
27   0.142941 
28   0.140115 
29   0.293863 
30   0.297091 
 
>  <lowdin_charges> 
30 
1   -0.170743 
2   -0.159926 
3   -0.28195 
4   -0.155186 
5   -0.182323 
6   -0.204859 
7   -0.124941 
8   -0.061599 
9   -0.057048 
10   0.010003 
11   0.017777 
12   -0.556293 
13   -0.185179 
14   -0.031888 
15   -0.273922 
16   0.158103 
17   0.156704 
18   0.147988 
19   0.155949 
20   0.166681 
21   0.159665 
22   0.129256 
23   0.137615 
24   0.130433 
25   0.126526 
26   0.167794 
27   0.137881 
28   0.138598 
29   0.251393 
30   0.253491 
 
$$$$ 
 
