PCCDB-ID:  69991 
public computational chemistry database (PCCDB) project, http://pccdb.org 
 
 20 20  0  0  0  0  0  0  0  0999 V2000 
    0.6620    1.4114   -0.0262 C   0  0  0  0  0  0  0  0  0  0  0  0 
    2.2138    2.6608   -4.9255 C   0  0  0  0  0  0  0  0  0  0  0  0 
    2.1174    3.5689   -3.8698 C   0  0  0  0  0  0  0  0  0  0  0  0 
    2.6674    1.3628   -4.6807 C   0  0  0  0  0  0  0  0  0  0  0  0 
    2.4688    3.1793   -2.5769 C   0  0  0  0  0  0  0  0  0  0  0  0 
    3.0215    0.9763   -3.3886 C   0  0  0  0  0  0  0  0  0  0  0  0 
    3.2889    1.4496   -0.9263 C   0  0  0  0  0  0  0  0  0  0  0  0 
    2.9288    1.8798   -2.3182 C   0  0  0  0  0  0  0  0  0  0  0  0 
    2.5557   -0.0606    1.2176 O   0  0  0  0  0  0  0  0  0  0  0  0 
    2.0656    0.2385   -0.1813 S   0  0  1  0  0  0  0  0  0  0  0  0 
    0.3615    1.7710   -1.0134 H   0  0  0  0  0  0  0  0  0  0  0  0 
    0.9572    2.2419    0.6222 H   0  0  0  0  0  0  0  0  0  0  0  0 
   -0.1582    0.8594    0.4391 H   0  0  0  0  0  0  0  0  0  0  0  0 
    1.9411    2.9631   -5.9328 H   0  0  0  0  0  0  0  0  0  0  0  0 
    1.7712    4.5827   -4.0520 H   0  0  0  0  0  0  0  0  0  0  0  0 
    2.7485    0.6506   -5.4974 H   0  0  0  0  0  0  0  0  0  0  0  0 
    2.3977    3.8936   -1.7599 H   0  0  0  0  0  0  0  0  0  0  0  0 
    3.3796   -0.0342   -3.2063 H   0  0  0  0  0  0  0  0  0  0  0  0 
    3.3665    2.2848   -0.2228 H   0  0  0  0  0  0  0  0  0  0  0  0 
    4.2280    0.8878   -0.8926 H   0  0  0  0  0  0  0  0  0  0  0  0 
  1 13  1  0  0  0  0 
  1 12  1  0  0  0  0 
  2  4  2  0  0  0  0 
  2  3  1  0  0  0  0 
  3  5  2  0  0  0  0 
  4  6  1  0  0  0  0 
  5  8  1  0  0  0  0 
  5 17  1  0  0  0  0 
  6 18  1  0  0  0  0 
  6  8  2  0  0  0  0 
  7 20  1  0  0  0  0 
  7 19  1  0  0  0  0 
  7 10  1  0  0  0  0 
  8  7  1  0  0  0  0 
 10  1  1  0  0  0  0 
 10  9  2  1  0  0  0 
 11  1  1  0  0  0  0 
 14  2  1  0  0  0  0 
 15  3  1  0  0  0  0 
 16  4  1  0  0  0  0 
M  END 
>  <HBA> 
1 
 
>  <HBD> 
0 
 
>  <TPSA> 
36.28 
 
>  <cid> 
69991 
 
>  <dipole> 
4.25 
 
>  <excitation_energy_1> 
4.654 
 
>  <excitation_energy_2> 
4.871 
 
>  <excitation_energy_3> 
5.25 
 
>  <excitation_energy_4> 
5.449 
 
>  <homo_energy> 
-5.97 
 
>  <homo_lumo_gap> 
5.374 
 
>  <logP> 
2.431 
 
>  <lumo_energy> 
-0.596 
 
>  <melting_point> 
25.79 
 
>  <molecular_refractivity> 
44.49 
 
>  <oscillator_strength_1> 
0.0745 
 
>  <oscillator_strength_2> 
0.0062 
 
>  <oscillator_strength_3> 
0.0016 
 
>  <oscillator_strength_4> 
0.1063 
 
>  <open_babel_can_smiles> 
C[S@](=O)Cc1ccccc1 
 
>  <mulliken_charges> 
20 
1   -0.635408 
2   -0.1286 
3   -0.126823 
4   -0.128183 
5   -0.180325 
6   -0.170211 
7   -0.560479 
8   0.157444 
9   -0.628588 
10   0.760287 
11   0.189271 
12   0.189173 
13   0.196949 
14   0.135642 
15   0.135788 
16   0.137298 
17   0.130608 
18   0.138367 
19   0.188246 
20   0.199543 
 
>  <lowdin_charges> 
20 
1   -0.6023 
2   -0.153568 
3   -0.151924 
4   -0.15193 
5   -0.166796 
6   -0.160025 
7   -0.419128 
8   -0.017061 
9   -0.671348 
10   0.80229 
11   0.181004 
12   0.173914 
13   0.183535 
14   0.160086 
15   0.15979 
16   0.162272 
17   0.158377 
18   0.160878 
19   0.170837 
20   0.181098 
 
$$$$ 
 
