PCCDB-ID:  16297 
public computational chemistry database (PCCDB) project, http://pccdb.org 
 
 29 28  0  0  0  0  0  0  0  0999 V2000 
    0.5395   -1.9273    1.4002 C   0  0  0  0  0  0  0  0  0  0  0  0 
    6.9627   -4.9780   -0.5358 C   0  0  0  0  0  0  0  0  0  0  0  0 
    8.7574   -3.9894    0.9322 C   0  0  0  0  0  0  0  0  0  0  0  0 
    6.6035   -4.8009    1.9547 C   0  0  0  0  0  0  0  0  0  0  0  0 
    1.9936   -1.8604    1.8757 C   0  0  0  0  0  0  0  0  0  0  0  0 
    2.9855   -2.2524    0.7780 C   0  0  0  0  0  0  0  0  0  0  0  0 
    6.6722   -2.7130    0.5386 C   0  0  0  0  0  0  0  0  0  0  0  0 
    4.4342   -2.1539    1.2174 C   0  0  0  0  0  0  0  0  0  0  0  0 
    7.2373   -4.1320    0.7212 C   0  0  0  0  0  0  0  0  0  0  0  0 
    4.8212   -1.6169    2.2325 O   0  0  0  0  0  0  0  0  0  0  0  0 
    5.2458   -2.7389    0.3010 O   0  0  0  0  0  0  0  0  0  0  0  0 
   -0.1504   -1.6438    2.2026 H   0  0  0  0  0  0  0  0  0  0  0  0 
    0.2706   -2.9392    1.0726 H   0  0  0  0  0  0  0  0  0  0  0  0 
    0.3635   -1.2494    0.5556 H   0  0  0  0  0  0  0  0  0  0  0  0 
    7.3645   -5.9913   -0.4165 H   0  0  0  0  0  0  0  0  0  0  0  0 
    7.4321   -4.5343   -1.4227 H   0  0  0  0  0  0  0  0  0  0  0  0 
    5.8881   -5.0587   -0.7289 H   0  0  0  0  0  0  0  0  0  0  0  0 
    9.2209   -4.9746    1.0578 H   0  0  0  0  0  0  0  0  0  0  0  0 
    8.9842   -3.3971    1.8270 H   0  0  0  0  0  0  0  0  0  0  0  0 
    9.2381   -3.5030    0.0741 H   0  0  0  0  0  0  0  0  0  0  0  0 
    7.0477   -5.7884    2.1268 H   0  0  0  0  0  0  0  0  0  0  0  0 
    5.5254   -4.9401    1.8201 H   0  0  0  0  0  0  0  0  0  0  0  0 
    6.7552   -4.1978    2.8574 H   0  0  0  0  0  0  0  0  0  0  0  0 
    2.1352   -2.5198    2.7408 H   0  0  0  0  0  0  0  0  0  0  0  0 
    2.2313   -0.8502    2.2273 H   0  0  0  0  0  0  0  0  0  0  0  0 
    2.8655   -1.6041   -0.1021 H   0  0  0  0  0  0  0  0  0  0  0  0 
    2.8026   -3.2722    0.4165 H   0  0  0  0  0  0  0  0  0  0  0  0 
    7.1122   -2.2383   -0.3456 H   0  0  0  0  0  0  0  0  0  0  0  0 
    6.8690   -2.0938    1.4167 H   0  0  0  0  0  0  0  0  0  0  0  0 
  1  5  1  0  0  0  0 
  1 12  1  0  0  0  0 
  2 15  1  0  0  0  0 
  2  9  1  0  0  0  0 
  3 18  1  0  0  0  0 
  3 19  1  0  0  0  0 
  4 21  1  0  0  0  0 
  4 23  1  0  0  0  0 
  5 25  1  0  0  0  0 
  5 24  1  0  0  0  0 
  6  8  1  0  0  0  0 
  6  5  1  0  0  0  0 
  7  9  1  0  0  0  0 
  7 29  1  0  0  0  0 
  8 10  2  0  0  0  0 
  9  3  1  0  0  0  0 
  9  4  1  0  0  0  0 
 11  7  1  0  0  0  0 
 11  8  1  0  0  0  0 
 13  1  1  0  0  0  0 
 14  1  1  0  0  0  0 
 16  2  1  0  0  0  0 
 17  2  1  0  0  0  0 
 20  3  1  0  0  0  0 
 22  4  1  0  0  0  0 
 26  6  1  0  0  0  0 
 27  6  1  0  0  0  0 
 28  7  1  0  0  0  0 
M  END 
>  <HBA> 
2 
 
>  <HBD> 
0 
 
>  <TPSA> 
26.3 
 
>  <cid> 
16297 
 
>  <dipole> 
1.63 
 
>  <excitation_energy_1> 
5.87 
 
>  <excitation_energy_2> 
6.967 
 
>  <excitation_energy_3> 
7.361 
 
>  <excitation_energy_4> 
7.386 
 
>  <homo_energy> 
-7.306 
 
>  <homo_lumo_gap> 
7.766 
 
>  <logP> 
2.376 
 
>  <lumo_energy> 
0.46 
 
>  <melting_point> 
2.57 
 
>  <molecular_refractivity> 
46.4 
 
>  <oscillator_strength_1> 
0.0005 
 
>  <oscillator_strength_2> 
0.0159 
 
>  <oscillator_strength_3> 
0.0475 
 
>  <oscillator_strength_4> 
0.0213 
 
>  <open_babel_can_smiles> 
CCCC(=O)OCC(C)(C)C 
 
>  <mulliken_charges> 
29 
1   -0.446993 
2   -0.444391 
3   -0.449955 
4   -0.449466 
5   -0.243473 
6   -0.35591 
7   -0.048834 
8   0.625783 
9   0.07814 
10   -0.476791 
11   -0.477358 
12   0.148133 
13   0.141686 
14   0.142011 
15   0.139545 
16   0.136039 
17   0.155479 
18   0.146787 
19   0.145963 
20   0.140285 
21   0.140068 
22   0.145938 
23   0.151969 
24   0.14663 
25   0.156475 
26   0.170572 
27   0.165348 
28   0.141342 
29   0.174978 
 
>  <lowdin_charges> 
29 
1   -0.445621 
2   -0.443228 
3   -0.443521 
4   -0.442668 
5   -0.268431 
6   -0.300392 
7   -0.137271 
8   0.197481 
9   0.005996 
10   -0.266264 
11   -0.199636 
12   0.15378 
13   0.145709 
14   0.147141 
15   0.147478 
16   0.146673 
17   0.153148 
18   0.152495 
19   0.150808 
20   0.148525 
21   0.1486 
22   0.148811 
23   0.154289 
24   0.149417 
25   0.153373 
26   0.168423 
27   0.16343 
28   0.148029 
29   0.163429 
 
$$$$ 
 
