PCCDB-ID:  33229 
public computational chemistry database (PCCDB) project, http://pccdb.org 
 
 35 36  0  0  0  0  0  0  0  0999 V2000 
    0.9646    1.8645    2.3003 C   0  0  0  0  0  0  0  0  0  0  0  0 
    2.5047    0.1651    2.9971 C   0  0  0  0  0  0  0  0  0  0  0  0 
    8.8515    3.4638   -2.0766 C   0  0  0  0  0  0  0  0  0  0  0  0 
    7.4415    3.5763   -2.0912 C   0  0  0  0  0  0  0  0  0  0  0  0 
    8.7003    1.9768    2.5488 C   0  0  0  0  0  0  0  0  0  0  0  0 
    4.4041    1.3083    0.8268 C   0  0  0  0  0  0  0  0  0  0  0  0 
    9.4922    3.0432   -0.9341 C   0  0  0  0  0  0  0  0  0  0  0  0 
    9.4229    2.2841    1.4212 C   0  0  0  0  0  0  0  0  0  0  0  0 
    7.2902    2.0844    2.5395 C   0  0  0  0  0  0  0  0  0  0  0  0 
    5.0798    2.5432    1.4582 C   0  0  0  0  0  0  0  0  0  0  0  0 
    6.7044    3.2633   -0.9703 C   0  0  0  0  0  0  0  0  0  0  0  0 
    2.8726    1.3552    0.9095 C   0  0  0  0  0  0  0  0  0  0  0  0 
    8.7620    2.7140    0.2398 C   0  0  0  0  0  0  0  0  0  0  0  0 
    6.5930    2.4906    1.4170 C   0  0  0  0  0  0  0  0  0  0  0  0 
    7.3297    2.8216    0.2299 C   0  0  0  0  0  0  0  0  0  0  0  0 
    2.3523    1.4226    2.2770 N   0  0  0  0  0  0  0  0  0  0  0  0 
    0.6279    1.9654    3.3382 H   0  0  0  0  0  0  0  0  0  0  0  0 
    0.2726    1.1673    1.7863 H   0  0  0  0  0  0  0  0  0  0  0  0 
    0.8783    2.8444    1.8186 H   0  0  0  0  0  0  0  0  0  0  0  0 
    2.1460    0.2864    4.0250 H   0  0  0  0  0  0  0  0  0  0  0  0 
    3.5580   -0.1258    3.0449 H   0  0  0  0  0  0  0  0  0  0  0  0 
    1.9405   -0.6696    2.5337 H   0  0  0  0  0  0  0  0  0  0  0  0 
    9.4236    3.7119   -2.9665 H   0  0  0  0  0  0  0  0  0  0  0  0 
    6.9377    3.9137   -2.9932 H   0  0  0  0  0  0  0  0  0  0  0  0 
    9.2066    1.6543    3.4549 H   0  0  0  0  0  0  0  0  0  0  0  0 
    4.7916    0.4023    1.3088 H   0  0  0  0  0  0  0  0  0  0  0  0 
    4.6838    1.2246   -0.2310 H   0  0  0  0  0  0  0  0  0  0  0  0 
   10.5763    2.9563   -0.9112 H   0  0  0  0  0  0  0  0  0  0  0  0 
   10.5076    2.2060    1.4167 H   0  0  0  0  0  0  0  0  0  0  0  0 
    6.7364    1.8411    3.4436 H   0  0  0  0  0  0  0  0  0  0  0  0 
    4.7464    2.6188    2.4979 H   0  0  0  0  0  0  0  0  0  0  0  0 
    4.7104    3.4484    0.9580 H   0  0  0  0  0  0  0  0  0  0  0  0 
    5.6242    3.3589   -1.0039 H   0  0  0  0  0  0  0  0  0  0  0  0 
    2.4494    0.4900    0.3582 H   0  0  0  0  0  0  0  0  0  0  0  0 
    2.5261    2.2555    0.3855 H   0  0  0  0  0  0  0  0  0  0  0  0 
  1 17  1  0  0  0  0 
  2 21  1  0  0  0  0 
  2 20  1  0  0  0  0 
  3  7  1  0  0  0  0 
  4  3  2  0  0  0  0 
  4 11  1  0  0  0  0 
  5 25  1  0  0  0  0 
  6 12  1  0  0  0  0 
  6 26  1  0  0  0  0 
  6 10  1  0  0  0  0 
  7 28  1  0  0  0  0 
  7 13  2  0  0  0  0 
  8  5  2  0  0  0  0 
  9  5  1  0  0  0  0 
  9 30  1  0  0  0  0 
 10 31  1  0  0  0  0 
 11 15  2  0  0  0  0 
 12 16  1  0  0  0  0 
 13  8  1  0  0  0  0 
 14 10  1  0  0  0  0 
 14  9  2  0  0  0  0 
 15 13  1  0  0  0  0 
 15 14  1  0  0  0  0 
 16  1  1  0  0  0  0 
 16  2  1  0  0  0  0 
 18  1  1  0  0  0  0 
 19  1  1  0  0  0  0 
 22  2  1  0  0  0  0 
 23  3  1  0  0  0  0 
 24  4  1  0  0  0  0 
 27  6  1  0  0  0  0 
 29  8  1  0  0  0  0 
 32 10  1  0  0  0  0 
 33 11  1  0  0  0  0 
 34 12  1  0  0  0  0 
 35 12  1  0  0  0  0 
M  END 
>  <HBA> 
1 
 
>  <HBD> 
0 
 
>  <TPSA> 
3.24 
 
>  <cid> 
33229 
 
>  <dipole> 
0.95 
 
>  <excitation_energy_1> 
4.184 
 
>  <excitation_energy_2> 
4.36 
 
>  <excitation_energy_3> 
4.396 
 
>  <excitation_energy_4> 
5.065 
 
>  <homo_energy> 
-5.565 
 
>  <homo_lumo_gap> 
4.691 
 
>  <logP> 
3.334 
 
>  <lumo_energy> 
-0.873 
 
>  <melting_point> 
52.47 
 
>  <molecular_refractivity> 
71.04 
 
>  <oscillator_strength_1> 
0.0895 
 
>  <oscillator_strength_2> 
0.019 
 
>  <oscillator_strength_3> 
0.0008 
 
>  <oscillator_strength_4> 
0.0092 
 
>  <open_babel_can_smiles> 
CN(CCCc1cccc2c1cccc2)C 
 
>  <mulliken_charges> 
35 
1   -0.293123 
2   -0.30159 
3   -0.133317 
4   -0.136115 
5   -0.128837 
6   -0.270856 
7   -0.19494 
8   -0.194766 
9   -0.205947 
10   -0.347625 
11   -0.196583 
12   -0.114975 
13   0.140069 
14   0.121709 
15   0.077766 
16   -0.362114 
17   0.147137 
18   0.116501 
19   0.148589 
20   0.148343 
21   0.153121 
22   0.117082 
23   0.127735 
24   0.126597 
25   0.126796 
26   0.141902 
27   0.140879 
28   0.127628 
29   0.125886 
30   0.122354 
31   0.163159 
32   0.137704 
33   0.12846 
34   0.110409 
35   0.13096 
 
>  <lowdin_charges> 
35 
1   -0.355497 
2   -0.357568 
3   -0.161308 
4   -0.160352 
5   -0.159233 
6   -0.279997 
7   -0.153971 
8   -0.159787 
9   -0.172049 
10   -0.276187 
11   -0.160652 
12   -0.201388 
13   0.001081 
14   -0.000178 
15   -0.008605 
16   -0.183741 
17   0.14806 
18   0.120941 
19   0.148787 
20   0.149131 
21   0.149491 
22   0.120903 
23   0.158119 
24   0.157403 
25   0.157676 
26   0.145149 
27   0.147051 
28   0.154364 
29   0.1539 
30   0.15498 
31   0.158814 
32   0.146429 
33   0.156435 
34   0.119527 
35   0.14227 
 
$$$$ 
 
