PCCDB-ID:  15266 
public computational chemistry database (PCCDB) project, http://pccdb.org 
 
 53 52  0  0  0  0  0  0  0  0999 V2000 
    3.4961   -3.1434    0.8503 C   0  0  0  0  0  0  0  0  0  0  0  0 
    4.1590    1.9527   12.2658 C   0  0  0  0  0  0  0  0  0  0  0  0 
    2.1907    1.3090   10.8230 C   0  0  0  0  0  0  0  0  0  0  0  0 
    3.6644   -2.1164    1.9764 C   0  0  0  0  0  0  0  0  0  0  0  0 
    3.9870   -0.6914    1.4925 C   0  0  0  0  0  0  0  0  0  0  0  0 
    5.3146   -0.5284    0.7284 C   0  0  0  0  0  0  0  0  0  0  0  0 
    6.5912   -0.8723    1.5163 C   0  0  0  0  0  0  0  0  0  0  0  0 
    6.8663    0.0398    2.7208 C   0  0  0  0  0  0  0  0  0  0  0  0 
    8.1805   -0.2957    3.4407 C   0  0  0  0  0  0  0  0  0  0  0  0 
    8.5495    0.6627    4.5858 C   0  0  0  0  0  0  0  0  0  0  0  0 
    7.5725    0.6609    5.7705 C   0  0  0  0  0  0  0  0  0  0  0  0 
    8.0355    1.5598    6.9267 C   0  0  0  0  0  0  0  0  0  0  0  0 
    7.0434    1.6703    8.0964 C   0  0  0  0  0  0  0  0  0  0  0  0 
    6.7927    0.3522    8.8453 C   0  0  0  0  0  0  0  0  0  0  0  0 
    5.9752    0.5049   10.1399 C   0  0  0  0  0  0  0  0  0  0  0  0 
    4.5326    0.9881    9.9242 C   0  0  0  0  0  0  0  0  0  0  0  0 
    3.6476    0.9853   11.1871 C   0  0  0  0  0  0  0  0  0  0  0  0 
    3.2010   -4.1208    1.2490 H   0  0  0  0  0  0  0  0  0  0  0  0 
    4.4240   -3.2866    0.2851 H   0  0  0  0  0  0  0  0  0  0  0  0 
    2.7221   -2.8266    0.1397 H   0  0  0  0  0  0  0  0  0  0  0  0 
    3.5043    1.9405   13.1454 H   0  0  0  0  0  0  0  0  0  0  0  0 
    4.1835    2.9827   11.8852 H   0  0  0  0  0  0  0  0  0  0  0  0 
    5.1693    1.6976   12.6029 H   0  0  0  0  0  0  0  0  0  0  0  0 
    1.5419    1.2764   11.7066 H   0  0  0  0  0  0  0  0  0  0  0  0 
    1.7939    0.5979   10.0885 H   0  0  0  0  0  0  0  0  0  0  0  0 
    2.1097    2.3146   10.3894 H   0  0  0  0  0  0  0  0  0  0  0  0 
    4.4439   -2.4607    2.6696 H   0  0  0  0  0  0  0  0  0  0  0  0 
    2.7380   -2.0781    2.5654 H   0  0  0  0  0  0  0  0  0  0  0  0 
    3.9785   -0.0153    2.3580 H   0  0  0  0  0  0  0  0  0  0  0  0 
    3.1708   -0.3503    0.8394 H   0  0  0  0  0  0  0  0  0  0  0  0 
    5.3862    0.5120    0.3800 H   0  0  0  0  0  0  0  0  0  0  0  0 
    5.2870   -1.1442   -0.1805 H   0  0  0  0  0  0  0  0  0  0  0  0 
    7.4473   -0.8144    0.8288 H   0  0  0  0  0  0  0  0  0  0  0  0 
    6.5528   -1.9177    1.8543 H   0  0  0  0  0  0  0  0  0  0  0  0 
    6.0319   -0.0235    3.4308 H   0  0  0  0  0  0  0  0  0  0  0  0 
    6.8982    1.0863    2.3800 H   0  0  0  0  0  0  0  0  0  0  0  0 
    8.9970   -0.2931    2.7044 H   0  0  0  0  0  0  0  0  0  0  0  0 
    8.1281   -1.3234    3.8304 H   0  0  0  0  0  0  0  0  0  0  0  0 
    8.6335    1.6853    4.1880 H   0  0  0  0  0  0  0  0  0  0  0  0 
    9.5511    0.3996    4.9553 H   0  0  0  0  0  0  0  0  0  0  0  0 
    7.4453   -0.3714    6.1259 H   0  0  0  0  0  0  0  0  0  0  0  0 
    6.5795    0.9945    5.4377 H   0  0  0  0  0  0  0  0  0  0  0  0 
    8.2276    2.5683    6.5329 H   0  0  0  0  0  0  0  0  0  0  0  0 
    9.0018    1.1937    7.3054 H   0  0  0  0  0  0  0  0  0  0  0  0 
    6.0921    2.0740    7.7226 H   0  0  0  0  0  0  0  0  0  0  0  0 
    7.4270    2.4121    8.8124 H   0  0  0  0  0  0  0  0  0  0  0  0 
    7.7639   -0.0999    9.0951 H   0  0  0  0  0  0  0  0  0  0  0  0 
    6.2848   -0.3641    8.1844 H   0  0  0  0  0  0  0  0  0  0  0  0 
    6.5052    1.1927   10.8133 H   0  0  0  0  0  0  0  0  0  0  0  0 
    5.9484   -0.4665   10.6550 H   0  0  0  0  0  0  0  0  0  0  0  0 
    4.0600    0.3458    9.1658 H   0  0  0  0  0  0  0  0  0  0  0  0 
    4.5358    2.0035    9.5021 H   0  0  0  0  0  0  0  0  0  0  0  0 
    3.6708   -0.0323   11.6079 H   0  0  0  0  0  0  0  0  0  0  0  0 
  1 18  1  0  0  0  0 
  1  4  1  0  0  0  0 
  2 23  1  0  0  0  0 
  2 21  1  0  0  0  0 
  3 17  1  0  0  0  0 
  3 24  1  0  0  0  0 
  4 28  1  0  0  0  0 
  4 27  1  0  0  0  0 
  5  4  1  0  0  0  0 
  5 29  1  0  0  0  0 
  6  5  1  0  0  0  0 
  6  7  1  0  0  0  0 
  7 34  1  0  0  0  0 
  7  8  1  0  0  0  0 
  8 35  1  0  0  0  0 
  8  9  1  0  0  0  0 
  9 38  1  0  0  0  0 
  9 10  1  0  0  0  0 
 10 40  1  0  0  0  0 
 10 11  1  0  0  0  0 
 11 41  1  0  0  0  0 
 11 12  1  0  0  0  0 
 12 44  1  0  0  0  0 
 12 13  1  0  0  0  0 
 13 46  1  0  0  0  0 
 13 14  1  0  0  0  0 
 14 47  1  0  0  0  0 
 14 15  1  0  0  0  0 
 15 50  1  0  0  0  0 
 15 49  1  0  0  0  0 
 16 15  1  0  0  0  0 
 16 17  1  0  0  0  0 
 17 53  1  0  0  0  0 
 17  2  1  0  0  0  0 
 19  1  1  0  0  0  0 
 20  1  1  0  0  0  0 
 22  2  1  0  0  0  0 
 25  3  1  0  0  0  0 
 26  3  1  0  0  0  0 
 30  5  1  0  0  0  0 
 31  6  1  0  0  0  0 
 32  6  1  0  0  0  0 
 33  7  1  0  0  0  0 
 36  8  1  0  0  0  0 
 37  9  1  0  0  0  0 
 39 10  1  0  0  0  0 
 42 11  1  0  0  0  0 
 43 12  1  0  0  0  0 
 45 13  1  0  0  0  0 
 48 14  1  0  0  0  0 
 51 16  1  0  0  0  0 
 52 16  1  0  0  0  0 
M  END 
>  <HBA> 
0 
 
>  <HBD> 
0 
 
>  <TPSA> 
0.0 
 
>  <cid> 
15266 
 
>  <dipole> 
0.07 
 
>  <excitation_energy_1> 
7.533 
 
>  <excitation_energy_2> 
7.643 
 
>  <excitation_energy_3> 
7.683 
 
>  <excitation_energy_4> 
7.742 
 
>  <homo_energy> 
-7.957 
 
>  <homo_lumo_gap> 
10.12 
 
>  <logP> 
6.734 
 
>  <lumo_energy> 
2.163 
 
>  <melting_point> 
-33.87 
 
>  <molecular_refractivity> 
83.83 
 
>  <oscillator_strength_1> 
0.0007 
 
>  <oscillator_strength_2> 
0.0069 
 
>  <oscillator_strength_3> 
0.0054 
 
>  <oscillator_strength_4> 
0.0019 
 
>  <open_babel_can_smiles> 
CCCCCCCCCCCCCCC(C)C 
 
>  <mulliken_charges> 
53 
1   -0.443561 
2   -0.444435 
3   -0.442094 
4   -0.250398 
5   -0.253827 
6   -0.258844 
7   -0.257217 
8   -0.255876 
9   -0.25465 
10   -0.25483 
11   -0.255075 
12   -0.255624 
13   -0.25556 
14   -0.255611 
15   -0.262029 
16   -0.246252 
17   -0.065337 
18   0.14095 
19   0.146219 
20   0.140242 
21   0.138553 
22   0.136761 
23   0.144848 
24   0.13817 
25   0.138382 
26   0.137448 
27   0.133675 
28   0.12977 
29   0.130911 
30   0.12561 
31   0.125917 
32   0.130329 
33   0.126184 
34   0.130783 
35   0.138284 
36   0.124275 
37   0.12581 
38   0.125196 
39   0.125493 
40   0.126244 
41   0.131293 
42   0.130871 
43   0.125949 
44   0.125339 
45   0.131644 
46   0.125057 
47   0.1247 
48   0.131138 
49   0.130794 
50   0.12492 
51   0.122615 
52   0.128429 
53   0.118415 
 
>  <lowdin_charges> 
53 
1   -0.448131 
2   -0.445326 
3   -0.44535 
4   -0.277158 
5   -0.281062 
6   -0.277985 
7   -0.277176 
8   -0.278506 
9   -0.274282 
10   -0.273383 
11   -0.277831 
12   -0.2736 
13   -0.278864 
14   -0.2781 
15   -0.278272 
16   -0.278156 
17   -0.118935 
18   0.148913 
19   0.147223 
20   0.14652 
21   0.14787 
22   0.143458 
23   0.14794 
24   0.147233 
25   0.147619 
26   0.144051 
27   0.140025 
28   0.141724 
29   0.140692 
30   0.140631 
31   0.138856 
32   0.140968 
33   0.140399 
34   0.136744 
35   0.140947 
36   0.134968 
37   0.139928 
38   0.135608 
39   0.135733 
40   0.139123 
41   0.137601 
42   0.137753 
43   0.138886 
44   0.136073 
45   0.138888 
46   0.140167 
47   0.138718 
48   0.139677 
49   0.139889 
50   0.138786 
51   0.138845 
52   0.137228 
53   0.132432 
 
$$$$ 
 
