PCCDB-ID:  6871 
public computational chemistry database (PCCDB) project, http://pccdb.org 
 
 31 30  0  0  0  0  0  0  0  0999 V2000 
    1.3861    0.4406    0.9483 C   0  0  0  0  0  0  0  0  0  0  0  0 
    2.5646    5.3666   -3.5903 C   0  0  0  0  0  0  0  0  0  0  0  0 
    8.0767    1.1904   -5.0319 C   0  0  0  0  0  0  0  0  0  0  0  0 
    2.8391    0.2614    0.5537 C   0  0  0  0  0  0  0  0  0  0  0  0 
    1.9974    4.0444   -3.0947 C   0  0  0  0  0  0  0  0  0  0  0  0 
    7.9210    2.2763   -3.9775 C   0  0  0  0  0  0  0  0  0  0  0  0 
    4.3234    1.0530   -1.0967 C   0  0  0  0  0  0  0  0  0  0  0  0 
    4.7288    1.7185   -2.2047 C   0  0  0  0  0  0  0  0  0  0  0  0 
    3.8132    2.5082   -3.0784 C   0  0  0  0  0  0  0  0  0  0  0  0 
    6.1581    1.5349   -2.5646 C   0  0  0  0  0  0  0  0  0  0  0  0 
    3.7962    2.4455   -4.2899 O   0  0  0  0  0  0  0  0  0  0  0  0 
    6.9074    0.7435   -2.0149 O   0  0  0  0  0  0  0  0  0  0  0  0 
    3.0780    1.0646   -0.6211 O   0  0  0  0  0  0  0  0  0  0  0  0 
    2.9843    3.2926   -2.3510 O   0  0  0  0  0  0  0  0  0  0  0  0 
    6.5489    2.3841   -3.5353 O   0  0  0  0  0  0  0  0  0  0  0  0 
    1.1662   -0.1562    1.8398 H   0  0  0  0  0  0  0  0  0  0  0  0 
    0.7235    0.1160    0.1403 H   0  0  0  0  0  0  0  0  0  0  0  0 
    1.1736    1.4907    1.1706 H   0  0  0  0  0  0  0  0  0  0  0  0 
    1.7770    5.9489   -4.0829 H   0  0  0  0  0  0  0  0  0  0  0  0 
    3.3673    5.1921   -4.3118 H   0  0  0  0  0  0  0  0  0  0  0  0 
    2.9590    5.9573   -2.7569 H   0  0  0  0  0  0  0  0  0  0  0  0 
    9.1001    1.1970   -5.4251 H   0  0  0  0  0  0  0  0  0  0  0  0 
    7.3843    1.3583   -5.8628 H   0  0  0  0  0  0  0  0  0  0  0  0 
    7.8798    0.2049   -4.6008 H   0  0  0  0  0  0  0  0  0  0  0  0 
    3.0632   -0.7873    0.3204 H   0  0  0  0  0  0  0  0  0  0  0  0 
    3.5136    0.5906    1.3542 H   0  0  0  0  0  0  0  0  0  0  0  0 
    1.6390    3.4327   -3.9265 H   0  0  0  0  0  0  0  0  0  0  0  0 
    1.1839    4.1999   -2.3813 H   0  0  0  0  0  0  0  0  0  0  0  0 
    8.1475    3.2646   -4.3851 H   0  0  0  0  0  0  0  0  0  0  0  0 
    8.5588    2.0847   -3.1111 H   0  0  0  0  0  0  0  0  0  0  0  0 
    5.0526    0.4411   -0.5663 H   0  0  0  0  0  0  0  0  0  0  0  0 
  1 18  1  0  0  0  0 
  1 16  1  0  0  0  0 
  2  5  1  0  0  0  0 
  2 21  1  0  0  0  0 
  3 24  1  0  0  0  0 
  3  6  1  0  0  0  0 
  4  1  1  0  0  0  0 
  4 26  1  0  0  0  0 
  5 28  1  0  0  0  0 
  5 14  1  0  0  0  0 
  6 15  1  0  0  0  0 
  6 30  1  0  0  0  0 
  7 13  1  0  0  0  0 
  7 31  1  0  0  0  0 
  8  7  2  0  0  0  0 
  9 14  1  0  0  0  0 
  9  8  1  0  0  0  0 
 10  8  1  0  0  0  0 
 10 12  2  0  0  0  0 
 11  9  2  0  0  0  0 
 13  4  1  0  0  0  0 
 15 10  1  0  0  0  0 
 17  1  1  0  0  0  0 
 19  2  1  0  0  0  0 
 20  2  1  0  0  0  0 
 22  3  1  0  0  0  0 
 23  3  1  0  0  0  0 
 25  4  1  0  0  0  0 
 27  5  1  0  0  0  0 
 29  6  1  0  0  0  0 
M  END 
>  <HBA> 
5 
 
>  <HBD> 
0 
 
>  <TPSA> 
61.83 
 
>  <cid> 
6871 
 
>  <dipole> 
3.33 
 
>  <excitation_energy_1> 
4.911 
 
>  <excitation_energy_2> 
4.968 
 
>  <excitation_energy_3> 
5.368 
 
>  <excitation_energy_4> 
5.819 
 
>  <homo_energy> 
-6.531 
 
>  <homo_lumo_gap> 
5.573 
 
>  <logP> 
1.033 
 
>  <lumo_energy> 
-0.958 
 
>  <melting_point> 
-0.08 
 
>  <molecular_refractivity> 
53.37 
 
>  <oscillator_strength_1> 
0.0284 
 
>  <oscillator_strength_2> 
0.0717 
 
>  <oscillator_strength_3> 
0.275 
 
>  <oscillator_strength_4> 
0.0968 
 
>  <open_babel_can_smiles> 
CCOC=C(C(=O)OCC)C(=O)OCC 
 
>  <mulliken_charges> 
31 
1   -0.460441 
2   -0.461167 
3   -0.462174 
4   -0.038389 
5   -0.040355 
6   -0.041693 
7   0.152925 
8   -0.086255 
9   0.575022 
10   0.620861 
11   -0.478517 
12   -0.520275 
13   -0.429866 
14   -0.453236 
15   -0.464442 
16   0.156203 
17   0.170649 
18   0.171488 
19   0.145684 
20   0.179937 
21   0.15522 
22   0.144802 
23   0.167075 
24   0.174273 
25   0.156852 
26   0.155931 
27   0.167113 
28   0.147794 
29   0.151077 
30   0.16683 
31   0.177074 
 
>  <lowdin_charges> 
31 
1   -0.44725 
2   -0.457891 
3   -0.453914 
4   -0.120306 
5   -0.130599 
6   -0.125815 
7   0.013461 
8   -0.134053 
9   0.198075 
10   0.205828 
11   -0.258977 
12   -0.300827 
13   -0.161461 
14   -0.185696 
15   -0.179965 
16   0.162421 
17   0.164757 
18   0.163111 
19   0.157393 
20   0.167845 
21   0.156003 
22   0.155104 
23   0.161596 
24   0.164089 
25   0.146005 
26   0.148154 
27   0.158256 
28   0.150525 
29   0.151581 
30   0.157462 
31   0.175086 
 
$$$$ 
 
