PCCDB-ID:  26075 
public computational chemistry database (PCCDB) project, http://pccdb.org 
 
 21 21  0  0  0  0  0  0  0  0999 V2000 
    1.0651    0.0069    0.0253 C   0  0  0  0  0  0  0  0  0  0  0  0 
    2.6419   -2.4749    0.0212 C   0  0  0  0  0  0  0  0  0  0  0  0 
    6.7923   -0.0179    0.0025 C   0  0  0  0  0  0  0  0  0  0  0  0 
    3.2398    1.2258    0.0099 C   0  0  0  0  0  0  0  0  0  0  0  0 
    2.5692    0.0463    0.0173 C   0  0  0  0  0  0  0  0  0  0  0  0 
    4.6866    1.2988    0.0043 C   0  0  0  0  0  0  0  0  0  0  0  0 
    4.6740   -1.1864    0.0121 C   0  0  0  0  0  0  0  0  0  0  0  0 
    3.2710   -1.1496    0.0182 N   0  0  0  0  0  0  0  0  0  0  0  0 
    5.3282    0.0349    0.0107 N   0  0  0  0  0  0  0  0  0  0  0  0 
    5.3337    2.3381   -0.0035 O   0  0  0  0  0  0  0  0  0  0  0  0 
    5.2726   -2.2533    0.0094 O   0  0  0  0  0  0  0  0  0  0  0  0 
    0.6763    1.0269    0.0258 H   0  0  0  0  0  0  0  0  0  0  0  0 
    0.6753   -0.5041    0.9136 H   0  0  0  0  0  0  0  0  0  0  0  0 
    0.6654   -0.5072   -0.8568 H   0  0  0  0  0  0  0  0  0  0  0  0 
    1.5599   -2.3708    0.0340 H   0  0  0  0  0  0  0  0  0  0  0  0 
    2.9662   -3.0386    0.8993 H   0  0  0  0  0  0  0  0  0  0  0  0 
    2.9456   -3.0340   -0.8674 H   0  0  0  0  0  0  0  0  0  0  0  0 
    7.1477    1.0105    0.0097 H   0  0  0  0  0  0  0  0  0  0  0  0 
    7.1432   -0.5408   -0.8908 H   0  0  0  0  0  0  0  0  0  0  0  0 
    7.1515   -0.5574    0.8822 H   0  0  0  0  0  0  0  0  0  0  0  0 
    2.7066    2.1671    0.0081 H   0  0  0  0  0  0  0  0  0  0  0  0 
  1 12  1  0  0  0  0 
  1 13  1  0  0  0  0 
  2 15  1  0  0  0  0 
  2 16  1  0  0  0  0 
  3 18  1  0  0  0  0 
  3  9  1  0  0  0  0 
  3 20  1  0  0  0  0 
  4  5  2  0  0  0  0 
  5  8  1  0  0  0  0 
  5  1  1  0  0  0  0 
  6  4  1  0  0  0  0 
  6  9  1  0  0  0  0 
  7  8  1  0  0  0  0 
  8  2  1  0  0  0  0 
  9  7  1  0  0  0  0 
 10  6  2  0  0  0  0 
 11  7  2  0  0  0  0 
 14  1  1  0  0  0  0 
 17  2  1  0  0  0  0 
 19  3  1  0  0  0  0 
 21  4  1  0  0  0  0 
M  END 
>  <HBA> 
4 
 
>  <HBD> 
0 
 
>  <TPSA> 
44.0 
 
>  <cid> 
26075 
 
>  <dipole> 
4.66 
 
>  <excitation_energy_1> 
4.795 
 
>  <excitation_energy_2> 
5.057 
 
>  <excitation_energy_3> 
5.572 
 
>  <excitation_energy_4> 
5.752 
 
>  <homo_energy> 
-6.362 
 
>  <homo_lumo_gap> 
5.543 
 
>  <logP> 
-0.608 
 
>  <lumo_energy> 
-0.819 
 
>  <melting_point> 
84.37 
 
>  <molecular_refractivity> 
42.45 
 
>  <oscillator_strength_1> 
0.0 
 
>  <oscillator_strength_2> 
0.1637 
 
>  <oscillator_strength_3> 
0.0078 
 
>  <oscillator_strength_4> 
0.0494 
 
>  <open_babel_can_smiles> 
Cc1cc(=O)n(c(=O)n1C)C 
 
>  <mulliken_charges> 
21 
1   -0.542596 
2   -0.315372 
3   -0.319337 
4   -0.306374 
5   0.414677 
6   0.628232 
7   0.793132 
8   -0.550215 
9   -0.548599 
10   -0.523528 
11   -0.526973 
12   0.185118 
13   0.180474 
14   0.180451 
15   0.164921 
16   0.190655 
17   0.190071 
18   0.201958 
19   0.175618 
20   0.175902 
21   0.151783 
 
>  <lowdin_charges> 
21 
1   -0.444395 
2   -0.344008 
3   -0.349048 
4   -0.260511 
5   0.08222 
6   0.164517 
7   0.18782 
8   -0.066324 
9   -0.082406 
10   -0.297986 
11   -0.310011 
12   0.175101 
13   0.170729 
14   0.170776 
15   0.162497 
16   0.173009 
17   0.17245 
18   0.183039 
19   0.165908 
20   0.166366 
21   0.180257 
 
$$$$ 
 
