PCCDB-ID:  20669 
public computational chemistry database (PCCDB) project, http://pccdb.org 
 
 29 28  0  0  0  0  0  0  0  0999 V2000 
    0.8611   -0.7616    2.1075 C   0  0  0  0  0  0  0  0  0  0  0  0 
    2.3919   -0.7117    2.0904 C   0  0  0  0  0  0  0  0  0  0  0  0 
    2.9905   -1.1142    0.7370 C   0  0  0  0  0  0  0  0  0  0  0  0 
    7.1282   -3.1519    2.5607 C   0  0  0  0  0  0  0  0  0  0  0  0 
    6.6949   -3.0090    4.0285 C   0  0  0  0  0  0  0  0  0  0  0  0 
    4.5221   -1.0962    0.6975 C   0  0  0  0  0  0  0  0  0  0  0  0 
    6.5629   -2.0914    1.6058 C   0  0  0  0  0  0  0  0  0  0  0  0 
    7.2018   -1.7399    4.7167 C   0  0  0  0  0  0  0  0  0  0  0  0 
    5.1019   -2.0647    1.6280 N   0  0  0  0  0  0  0  0  0  0  0  0 
    6.8711   -1.7042    6.1027 O   0  0  0  0  0  0  0  0  0  0  0  0 
    0.4624   -0.4636    3.0841 H   0  0  0  0  0  0  0  0  0  0  0  0 
    0.4937   -1.7733    1.8942 H   0  0  0  0  0  0  0  0  0  0  0  0 
    0.4306   -0.0898    1.3542 H   0  0  0  0  0  0  0  0  0  0  0  0 
    2.7989   -1.3667    2.8694 H   0  0  0  0  0  0  0  0  0  0  0  0 
    2.7285    0.3047    2.3409 H   0  0  0  0  0  0  0  0  0  0  0  0 
    2.6163   -0.4417   -0.0476 H   0  0  0  0  0  0  0  0  0  0  0  0 
    2.6361   -2.1206    0.4627 H   0  0  0  0  0  0  0  0  0  0  0  0 
    6.8282   -4.1463    2.1991 H   0  0  0  0  0  0  0  0  0  0  0  0 
    8.2247   -3.1273    2.4917 H   0  0  0  0  0  0  0  0  0  0  0  0 
    7.0600   -3.8697    4.6031 H   0  0  0  0  0  0  0  0  0  0  0  0 
    5.5981   -3.0265    4.0806 H   0  0  0  0  0  0  0  0  0  0  0  0 
    4.8840   -0.0997    0.9874 H   0  0  0  0  0  0  0  0  0  0  0  0 
    4.8636   -1.2578   -0.3443 H   0  0  0  0  0  0  0  0  0  0  0  0 
    6.9690   -2.2733    0.5909 H   0  0  0  0  0  0  0  0  0  0  0  0 
    6.9157   -1.0935    1.8976 H   0  0  0  0  0  0  0  0  0  0  0  0 
    6.8229   -0.8423    4.2037 H   0  0  0  0  0  0  0  0  0  0  0  0 
    8.2967   -1.6995    4.6784 H   0  0  0  0  0  0  0  0  0  0  0  0 
    4.7541   -2.9942    1.3879 H   0  0  0  0  0  0  0  0  0  0  0  0 
    5.9031   -1.6994    6.1645 H   0  0  0  0  0  0  0  0  0  0  0  0 
  1 11  1  0  0  0  0 
  2  1  1  0  0  0  0 
  2 15  1  0  0  0  0 
  2 14  1  0  0  0  0 
  3  2  1  0  0  0  0 
  4  5  1  0  0  0  0 
  5 21  1  0  0  0  0 
  5 20  1  0  0  0  0 
  5  8  1  0  0  0  0 
  6  3  1  0  0  0  0 
  6 22  1  0  0  0  0 
  6  9  1  0  0  0  0 
  7  9  1  0  0  0  0 
  7 25  1  0  0  0  0 
  7  4  1  0  0  0  0 
  8 10  1  0  0  0  0 
 10 29  1  0  0  0  0 
 12  1  1  0  0  0  0 
 13  1  1  0  0  0  0 
 16  3  1  0  0  0  0 
 17  3  1  0  0  0  0 
 18  4  1  0  0  0  0 
 19  4  1  0  0  0  0 
 23  6  1  0  0  0  0 
 24  7  1  0  0  0  0 
 26  8  1  0  0  0  0 
 27  8  1  0  0  0  0 
 28  9  1  0  0  0  0 
M  END 
>  <HBA> 
2 
 
>  <HBD> 
2 
 
>  <TPSA> 
32.26 
 
>  <cid> 
20669 
 
>  <dipole> 
2.45 
 
>  <excitation_energy_1> 
5.462 
 
>  <excitation_energy_2> 
5.733 
 
>  <excitation_energy_3> 
5.753 
 
>  <excitation_energy_4> 
6.039 
 
>  <homo_energy> 
-6.016 
 
>  <homo_lumo_gap> 
8.076 
 
>  <logP> 
1.54 
 
>  <lumo_energy> 
2.06 
 
>  <melting_point> 
17.91 
 
>  <molecular_refractivity> 
44.53 
 
>  <oscillator_strength_1> 
0.0069 
 
>  <oscillator_strength_2> 
0.0202 
 
>  <oscillator_strength_3> 
0.0132 
 
>  <oscillator_strength_4> 
0.0193 
 
>  <open_babel_can_smiles> 
CCCCNCCCCO 
 
>  <mulliken_charges> 
29 
1   -0.442286 
2   -0.238862 
3   -0.265082 
4   -0.286242 
5   -0.267522 
6   -0.113041 
7   -0.113643 
8   -0.028654 
9   -0.550112 
10   -0.619121 
11   0.141695 
12   0.139131 
13   0.139421 
14   0.14809 
15   0.1271 
16   0.130973 
17   0.122633 
18   0.129495 
19   0.13515 
20   0.139888 
21   0.138043 
22   0.136021 
23   0.108886 
24   0.110037 
25   0.140579 
26   0.126099 
27   0.138554 
28   0.287058 
29   0.385711 
 
>  <lowdin_charges> 
29 
1   -0.445469 
2   -0.27387 
3   -0.279634 
4   -0.278536 
5   -0.295628 
6   -0.198834 
7   -0.202364 
8   -0.134202 
9   -0.36455 
10   -0.468126 
11   0.149004 
12   0.144317 
13   0.146009 
14   0.148639 
15   0.137555 
16   0.144372 
17   0.134476 
18   0.140684 
19   0.14344 
20   0.14799 
21   0.141508 
22   0.139028 
23   0.115462 
24   0.116871 
25   0.139041 
26   0.128476 
27   0.139612 
28   0.247263 
29   0.337466 
 
$$$$ 
 
