PCCDB-ID:  15141 
public computational chemistry database (PCCDB) project, http://pccdb.org 
 
 30 30  0  0  1  0  0  0  0  0999 V2000 
    2.7175    2.0240   -3.1749 C   0  0  0  0  0  0  0  0  0  0  0  0 
    9.0389    0.7405   -1.4751 C   0  0  0  0  0  0  0  0  0  0  0  0 
    2.8077    0.8895    0.5851 C   0  0  0  0  0  0  0  0  0  0  0  0 
    5.2699    3.9049   -0.4095 C   0  0  0  0  0  0  0  0  0  0  0  0 
    2.4292    1.2136   -1.9072 C   0  0  0  0  0  0  0  0  0  0  0  0 
    6.6324   -0.0658   -1.4231 C   0  0  0  0  0  0  0  0  0  0  0  0 
    5.2721    0.1693   -1.2293 C   0  0  0  0  0  0  0  0  0  0  0  0 
    7.0643    2.2414   -0.9642 C   0  0  0  0  0  0  0  0  0  0  0  0 
    7.5571    0.9730   -1.2909 C   0  0  0  0  0  0  0  0  0  0  0  0 
    3.2774    1.6301   -0.6834 C   0  0  2  0  0  0  0  0  0  0  0  0 
    5.7022    2.4976   -0.7667 C   0  0  0  0  0  0  0  0  0  0  0  0 
    4.7772    1.4383   -0.9032 C   0  0  0  0  0  0  0  0  0  0  0  0 
    2.0783    1.6992   -4.0039 H   0  0  0  0  0  0  0  0  0  0  0  0 
    3.7604    1.9124   -3.4908 H   0  0  0  0  0  0  0  0  0  0  0  0 
    2.5299    3.0929   -3.0120 H   0  0  0  0  0  0  0  0  0  0  0  0 
    9.2347   -0.2177   -1.9674 H   0  0  0  0  0  0  0  0  0  0  0  0 
    9.5660    0.7282   -0.5117 H   0  0  0  0  0  0  0  0  0  0  0  0 
    9.4982    1.5301   -2.0814 H   0  0  0  0  0  0  0  0  0  0  0  0 
    1.7442    1.0783    0.7757 H   0  0  0  0  0  0  0  0  0  0  0  0 
    3.3752    1.2118    1.4652 H   0  0  0  0  0  0  0  0  0  0  0  0 
    2.9423   -0.1940    0.4846 H   0  0  0  0  0  0  0  0  0  0  0  0 
    6.1387    4.5654   -0.3280 H   0  0  0  0  0  0  0  0  0  0  0  0 
    4.7384    3.9426    0.5494 H   0  0  0  0  0  0  0  0  0  0  0  0 
    4.5998    4.3358   -1.1637 H   0  0  0  0  0  0  0  0  0  0  0  0 
    2.5792    0.1450   -2.1126 H   0  0  0  0  0  0  0  0  0  0  0  0 
    1.3691    1.3238   -1.6396 H   0  0  0  0  0  0  0  0  0  0  0  0 
    6.9753   -1.0659   -1.6797 H   0  0  0  0  0  0  0  0  0  0  0  0 
    4.5781   -0.6608   -1.3392 H   0  0  0  0  0  0  0  0  0  0  0  0 
    7.7677    3.0662   -0.8596 H   0  0  0  0  0  0  0  0  0  0  0  0 
    3.0889    2.6975   -0.5212 H   0  0  0  0  0  0  0  0  0  0  0  0 
  1 15  1  0  0  0  0 
  1  5  1  0  0  0  0 
  2  9  1  0  0  0  0 
  2 17  1  0  0  0  0 
  3 19  1  0  0  0  0 
  3 20  1  0  0  0  0 
  4 22  1  0  0  0  0 
  4 23  1  0  0  0  0 
  5 26  1  0  0  0  0 
  5 10  1  0  0  0  0 
  6  9  2  0  0  0  0 
  6  7  1  0  0  0  0 
  7 12  2  0  0  0  0 
  8 29  1  0  0  0  0 
  8 11  2  0  0  0  0 
  9  8  1  0  0  0  0 
 10 30  1  1  0  0  0 
 10  3  1  0  0  0  0 
 11  4  1  0  0  0  0 
 12 11  1  0  0  0  0 
 12 10  1  0  0  0  0 
 13  1  1  0  0  0  0 
 14  1  1  0  0  0  0 
 16  2  1  0  0  0  0 
 18  2  1  0  0  0  0 
 21  3  1  0  0  0  0 
 24  4  1  0  0  0  0 
 25  5  1  0  0  0  0 
 27  6  1  0  0  0  0 
 28  7  1  0  0  0  0 
M  END 
>  <HBA> 
0 
 
>  <HBD> 
0 
 
>  <TPSA> 
0.0 
 
>  <cid> 
15141 
 
>  <dipole> 
0.26 
 
>  <excitation_energy_1> 
5.102 
 
>  <excitation_energy_2> 
5.639 
 
>  <excitation_energy_3> 
5.68 
 
>  <excitation_energy_4> 
5.948 
 
>  <homo_energy> 
-6.036 
 
>  <homo_lumo_gap> 
6.218 
 
>  <logP> 
3.817 
 
>  <lumo_energy> 
0.182 
 
>  <melting_point> 
14.84 
 
>  <molecular_refractivity> 
55.76 
 
>  <oscillator_strength_1> 
0.0061 
 
>  <oscillator_strength_2> 
0.0569 
 
>  <oscillator_strength_3> 
0.0095 
 
>  <oscillator_strength_4> 
0.0001 
 
>  <open_babel_can_smiles> 
CC[C@H](c1ccc(cc1C)C)C 
 
>  <mulliken_charges> 
30 
1   -0.447229 
2   -0.530436 
3   -0.441549 
4   -0.53922 
5   -0.245132 
6   -0.187818 
7   -0.187917 
8   -0.241601 
9   0.188698 
10   -0.157423 
11   0.127204 
12   0.120971 
13   0.140292 
14   0.156939 
15   0.137016 
16   0.153025 
17   0.162003 
18   0.156962 
19   0.138259 
20   0.146528 
21   0.143399 
22   0.152907 
23   0.159926 
24   0.162082 
25   0.13106 
26   0.128083 
27   0.116093 
28   0.12183 
29   0.110025 
30   0.125023 
 
>  <lowdin_charges> 
30 
1   -0.446038 
2   -0.443044 
3   -0.437573 
4   -0.446789 
5   -0.267246 
6   -0.172553 
7   -0.165418 
8   -0.179729 
9   -0.00223 
10   -0.12378 
11   -0.008499 
12   -0.01461 
13   0.149998 
14   0.153335 
15   0.142227 
16   0.155625 
17   0.159684 
18   0.158951 
19   0.144799 
20   0.151687 
21   0.145802 
22   0.15613 
23   0.157442 
24   0.159337 
25   0.137238 
26   0.138556 
27   0.151062 
28   0.1533 
29   0.149673 
30   0.142664 
 
$$$$ 
 
