PCCDB-ID:  26058 
public computational chemistry database (PCCDB) project, http://pccdb.org 
 
 38 37  0  0  0  0  0  0  0  0999 V2000 
    2.8868    1.4487   -1.4526 C   0  0  0  0  0  0  0  0  0  0  0  0 
    3.1791    2.0148    3.2004 C   0  0  0  0  0  0  0  0  0  0  0  0 
    4.2866   -0.0873    2.4143 C   0  0  0  0  0  0  0  0  0  0  0  0 
    4.7886    2.1010    1.2856 C   0  0  0  0  0  0  0  0  0  0  0  0 
    2.7592   -1.6618   -2.7979 C   0  0  0  0  0  0  0  0  0  0  0  0 
    2.7914   -2.8558   -0.5873 C   0  0  0  0  0  0  0  0  0  0  0  0 
    0.6560   -2.6603   -1.8790 C   0  0  0  0  0  0  0  0  0  0  0  0 
    2.4654    1.0172    1.0226 C   0  0  0  0  0  0  0  0  0  0  0  0 
    1.5792   -0.6257   -0.7564 C   0  0  0  0  0  0  0  0  0  0  0  0 
    2.7157    0.3656   -0.3688 C   0  0  0  0  0  0  0  0  0  0  0  0 
    3.6875    1.2577    1.9561 C   0  0  0  0  0  0  0  0  0  0  0  0 
    1.9650   -1.9337   -1.5064 C   0  0  0  0  0  0  0  0  0  0  0  0 
    3.6976    2.1428   -1.2120 H   0  0  0  0  0  0  0  0  0  0  0  0 
    1.9652    2.0382   -1.5456 H   0  0  0  0  0  0  0  0  0  0  0  0 
    3.1004    1.0162   -2.4346 H   0  0  0  0  0  0  0  0  0  0  0  0 
    3.9903    2.1815    3.9200 H   0  0  0  0  0  0  0  0  0  0  0  0 
    2.3890    1.4519    3.7128 H   0  0  0  0  0  0  0  0  0  0  0  0 
    2.7680    2.9945    2.9275 H   0  0  0  0  0  0  0  0  0  0  0  0 
    5.1137    0.0752    3.1164 H   0  0  0  0  0  0  0  0  0  0  0  0 
    4.6819   -0.6699    1.5743 H   0  0  0  0  0  0  0  0  0  0  0  0 
    3.5333   -0.7026    2.9220 H   0  0  0  0  0  0  0  0  0  0  0  0 
    5.6022    2.2990    1.9946 H   0  0  0  0  0  0  0  0  0  0  0  0 
    4.4009    3.0695    0.9471 H   0  0  0  0  0  0  0  0  0  0  0  0 
    5.2270    1.5908    0.4206 H   0  0  0  0  0  0  0  0  0  0  0  0 
    2.9590   -2.6008   -3.3292 H   0  0  0  0  0  0  0  0  0  0  0  0 
    3.7267   -1.1911   -2.5914 H   0  0  0  0  0  0  0  0  0  0  0  0 
    2.2026   -1.0069   -3.4793 H   0  0  0  0  0  0  0  0  0  0  0  0 
    3.0233   -3.8014   -1.0929 H   0  0  0  0  0  0  0  0  0  0  0  0 
    2.2406   -3.0947    0.3310 H   0  0  0  0  0  0  0  0  0  0  0  0 
    3.7442   -2.3993   -0.2959 H   0  0  0  0  0  0  0  0  0  0  0  0 
    0.8638   -3.6136   -2.3807 H   0  0  0  0  0  0  0  0  0  0  0  0 
    0.0439   -2.0523   -2.5566 H   0  0  0  0  0  0  0  0  0  0  0  0 
    0.0538   -2.8763   -0.9877 H   0  0  0  0  0  0  0  0  0  0  0  0 
    1.7638    0.3926    1.5919 H   0  0  0  0  0  0  0  0  0  0  0  0 
    1.9489    1.9771    0.8735 H   0  0  0  0  0  0  0  0  0  0  0  0 
    0.8347   -0.0866   -1.3610 H   0  0  0  0  0  0  0  0  0  0  0  0 
    1.0479   -0.9383    0.1527 H   0  0  0  0  0  0  0  0  0  0  0  0 
    3.6536   -0.2021   -0.3101 H   0  0  0  0  0  0  0  0  0  0  0  0 
  1 13  1  0  0  0  0 
  1 10  1  0  0  0  0 
  2 17  1  0  0  0  0 
  2 16  1  0  0  0  0 
  3 21  1  0  0  0  0 
  3 19  1  0  0  0  0 
  4 11  1  0  0  0  0 
  4 22  1  0  0  0  0 
  5 26  1  0  0  0  0 
  5 12  1  0  0  0  0 
  6 30  1  0  0  0  0 
  6 29  1  0  0  0  0 
  7 12  1  0  0  0  0 
  7 33  1  0  0  0  0 
  8 34  1  0  0  0  0 
  8 11  1  0  0  0  0 
  9 10  1  0  0  0  0 
  9 37  1  0  0  0  0 
 10 38  1  0  0  0  0 
 10  8  1  0  0  0  0 
 11  3  1  0  0  0  0 
 11  2  1  0  0  0  0 
 12  9  1  0  0  0  0 
 12  6  1  0  0  0  0 
 14  1  1  0  0  0  0 
 15  1  1  0  0  0  0 
 18  2  1  0  0  0  0 
 20  3  1  0  0  0  0 
 23  4  1  0  0  0  0 
 24  4  1  0  0  0  0 
 25  5  1  0  0  0  0 
 27  5  1  0  0  0  0 
 28  6  1  0  0  0  0 
 31  7  1  0  0  0  0 
 32  7  1  0  0  0  0 
 35  8  1  0  0  0  0 
 36  9  1  0  0  0  0 
M  END 
>  <HBA> 
0 
 
>  <HBD> 
0 
 
>  <TPSA> 
0.0 
 
>  <cid> 
26058 
 
>  <dipole> 
0.06 
 
>  <excitation_energy_1> 
7.221 
 
>  <excitation_energy_2> 
7.58 
 
>  <excitation_energy_3> 
7.602 
 
>  <excitation_energy_4> 
7.649 
 
>  <homo_energy> 
-7.704 
 
>  <homo_lumo_gap> 
9.598 
 
>  <logP> 
4.495 
 
>  <lumo_energy> 
1.894 
 
>  <melting_point> 
6.83 
 
>  <molecular_refractivity> 
59.28 
 
>  <oscillator_strength_1> 
0.0704 
 
>  <oscillator_strength_2> 
0.0505 
 
>  <oscillator_strength_3> 
0.03 
 
>  <oscillator_strength_4> 
0.0046 
 
>  <open_babel_can_smiles> 
CC(CC(C)(C)C)CC(C)(C)C 
 
>  <mulliken_charges> 
38 
1   -0.46647 
2   -0.440855 
3   -0.444893 
4   -0.444867 
5   -0.445018 
6   -0.444825 
7   -0.441191 
8   -0.26382 
9   -0.264286 
10   -0.070104 
11   0.096208 
12   0.097379 
13   0.145562 
14   0.137348 
15   0.145477 
16   0.135906 
17   0.136699 
18   0.137274 
19   0.136916 
20   0.142035 
21   0.13666 
22   0.135392 
23   0.138562 
24   0.143254 
25   0.135324 
26   0.143262 
27   0.13858 
28   0.136815 
29   0.136522 
30   0.141952 
31   0.135889 
32   0.137317 
33   0.136665 
34   0.123115 
35   0.123778 
36   0.123799 
37   0.123213 
38   0.125426 
 
>  <lowdin_charges> 
38 
1   -0.451436 
2   -0.44297 
3   -0.447489 
4   -0.445724 
5   -0.445898 
6   -0.444562 
7   -0.443403 
8   -0.277997 
9   -0.278413 
10   -0.129536 
11   0.014848 
12   0.015071 
13   0.15025 
14   0.143513 
15   0.149111 
16   0.146271 
17   0.146814 
18   0.145384 
19   0.147087 
20   0.146656 
21   0.147191 
22   0.146932 
23   0.146024 
24   0.148238 
25   0.146352 
26   0.147264 
27   0.147584 
28   0.146482 
29   0.146065 
30   0.145684 
31   0.145496 
32   0.147144 
33   0.146136 
34   0.140392 
35   0.138866 
36   0.140341 
37   0.139493 
38   0.136736 
 
$$$$ 
 
