PCCDB-ID:  30945 
public computational chemistry database (PCCDB) project, http://pccdb.org 
 
 13 13  0  0  0  0  0  0  0  0999 V2000 
    0.9638    0.0204   -0.0513 C   0  0  0  0  0  0  0  0  0  0  0  0 
    3.2363   -1.2018   -0.1292 C   0  0  0  0  0  0  0  0  0  0  0  0 
    4.6759   -0.7783   -0.1072 C   0  0  0  0  0  0  0  0  0  0  0  0 
    2.4503   -0.1214   -0.0636 C   0  0  0  0  0  0  0  0  0  0  0  0 
    3.3365    1.0766    0.0054 C   0  0  0  0  0  0  0  0  0  0  0  0 
    3.0305    2.2410    0.0745 O   0  0  0  0  0  0  0  0  0  0  0  0 
    4.6439    0.6496   -0.0224 O   0  0  0  0  0  0  0  0  0  0  0  0 
    0.4653   -0.9507   -0.1171 H   0  0  0  0  0  0  0  0  0  0  0  0 
    0.6309    0.6455   -0.8880 H   0  0  0  0  0  0  0  0  0  0  0  0 
    0.6337    0.5249    0.8643 H   0  0  0  0  0  0  0  0  0  0  0  0 
    2.9262   -2.2397   -0.1901 H   0  0  0  0  0  0  0  0  0  0  0  0 
    5.2222   -1.0667   -1.0148 H   0  0  0  0  0  0  0  0  0  0  0  0 
    5.2257   -1.1718    0.7578 H   0  0  0  0  0  0  0  0  0  0  0  0 
  1 10  1  0  0  0  0 
  2  3  1  0  0  0  0 
  2  4  2  0  0  0  0 
  3  7  1  0  0  0  0 
  3 13  1  0  0  0  0 
  4  1  1  0  0  0  0 
  4  5  1  0  0  0  0 
  5  6  2  0  0  0  0 
  7  5  1  0  0  0  0 
  8  1  1  0  0  0  0 
  9  1  1  0  0  0  0 
 11  2  1  0  0  0  0 
 12  3  1  0  0  0  0 
M  END 
>  <HBA> 
2 
 
>  <HBD> 
0 
 
>  <TPSA> 
26.3 
 
>  <cid> 
30945 
 
>  <dipole> 
4.6 
 
>  <excitation_energy_1> 
4.839 
 
>  <excitation_energy_2> 
6.127 
 
>  <excitation_energy_3> 
6.446 
 
>  <excitation_energy_4> 
6.827 
 
>  <homo_energy> 
-7.301 
 
>  <homo_lumo_gap> 
6.256 
 
>  <logP> 
0.489 
 
>  <lumo_energy> 
-1.045 
 
>  <melting_point> 
22.33 
 
>  <molecular_refractivity> 
24.85 
 
>  <oscillator_strength_1> 
0.0 
 
>  <oscillator_strength_2> 
0.2771 
 
>  <oscillator_strength_3> 
0.0193 
 
>  <oscillator_strength_4> 
0.001 
 
>  <open_babel_can_smiles> 
O=C1OCC=C1C 
 
>  <mulliken_charges> 
13 
1   -0.515017 
2   -0.206809 
3   -0.060872 
4   0.118315 
5   0.568198 
6   -0.464278 
7   -0.461068 
8   0.156881 
9   0.18169 
10   0.181512 
11   0.155088 
12   0.173193 
13   0.173167 
 
>  <lowdin_charges> 
13 
1   -0.434238 
2   -0.164234 
3   -0.121376 
4   -0.037076 
5   0.183075 
6   -0.24081 
7   -0.192988 
8   0.160798 
9   0.175496 
10   0.17497 
11   0.169315 
12   0.163322 
13   0.163745 
 
$$$$ 
 
