PCCDB-ID:  68306 
public computational chemistry database (PCCDB) project, http://pccdb.org 
 
 22 22  0  0  0  0  0  0  0  0999 V2000 
    1.0185   -0.2967   -0.4219 C   0  0  0  0  0  0  0  0  0  0  0  0 
    6.5092   -4.3707    2.8559 C   0  0  0  0  0  0  0  0  0  0  0  0 
    2.4406   -2.5198    0.8300 C   0  0  0  0  0  0  0  0  0  0  0  0 
    4.3350   -1.0765    1.1289 C   0  0  0  0  0  0  0  0  0  0  0  0 
    3.1946   -3.5911    1.3019 C   0  0  0  0  0  0  0  0  0  0  0  0 
    5.0891   -2.1478    1.6005 C   0  0  0  0  0  0  0  0  0  0  0  0 
    2.9965   -1.2326    0.7354 C   0  0  0  0  0  0  0  0  0  0  0  0 
    4.5331   -3.4350    1.6952 C   0  0  0  0  0  0  0  0  0  0  0  0 
    2.2565   -0.1157    0.3136 N   0  0  0  0  0  0  0  0  0  0  0  0 
    5.2734   -4.5519    2.1166 N   0  0  0  0  0  0  0  0  0  0  0  0 
    0.6567    0.6833   -0.7454 H   0  0  0  0  0  0  0  0  0  0  0  0 
    0.2496   -0.7315    0.2273 H   0  0  0  0  0  0  0  0  0  0  0  0 
    1.1167   -0.9454   -1.3096 H   0  0  0  0  0  0  0  0  0  0  0  0 
    6.8705   -5.3508    3.1799 H   0  0  0  0  0  0  0  0  0  0  0  0 
    6.4079   -3.7226    3.7436 H   0  0  0  0  0  0  0  0  0  0  0  0 
    7.2800   -3.9353    2.2093 H   0  0  0  0  0  0  0  0  0  0  0  0 
    1.4110   -2.6956    0.5357 H   0  0  0  0  0  0  0  0  0  0  0  0 
    4.7932   -0.0904    1.0748 H   0  0  0  0  0  0  0  0  0  0  0  0 
    2.7365   -4.5772    1.3557 H   0  0  0  0  0  0  0  0  0  0  0  0 
    6.1187   -1.9721    1.8944 H   0  0  0  0  0  0  0  0  0  0  0  0 
    2.8446    0.6105   -0.0758 H   0  0  0  0  0  0  0  0  0  0  0  0 
    4.6851   -5.2793    2.5034 H   0  0  0  0  0  0  0  0  0  0  0  0 
  1 12  1  0  0  0  0 
  1  9  1  0  0  0  0 
  2 14  1  0  0  0  0 
  2 15  1  0  0  0  0 
  3  5  1  0  0  0  0 
  4  6  2  0  0  0  0 
  5 19  1  0  0  0  0 
  5  8  2  0  0  0  0 
  6  8  1  0  0  0  0 
  6 20  1  0  0  0  0 
  7  3  2  0  0  0  0 
  7  4  1  0  0  0  0 
  8 10  1  0  0  0  0 
  9  7  1  0  0  0  0 
 10 22  1  0  0  0  0 
 10  2  1  0  0  0  0 
 11  1  1  0  0  0  0 
 13  1  1  0  0  0  0 
 16  2  1  0  0  0  0 
 17  3  1  0  0  0  0 
 18  4  1  0  0  0  0 
 21  9  1  0  0  0  0 
M  END 
>  <HBA> 
2 
 
>  <HBD> 
2 
 
>  <TPSA> 
24.06 
 
>  <cid> 
68306 
 
>  <dipole> 
0.0 
 
>  <excitation_energy_1> 
3.943 
 
>  <excitation_energy_2> 
4.052 
 
>  <excitation_energy_3> 
4.243 
 
>  <excitation_energy_4> 
4.466 
 
>  <homo_energy> 
-4.411 
 
>  <homo_lumo_gap> 
4.781 
 
>  <logP> 
1.916 
 
>  <lumo_energy> 
0.37 
 
>  <melting_point> 
73.43 
 
>  <molecular_refractivity> 
45.05 
 
>  <oscillator_strength_1> 
0.0426 
 
>  <oscillator_strength_2> 
0.0 
 
>  <oscillator_strength_3> 
0.0139 
 
>  <oscillator_strength_4> 
0.029 
 
>  <open_babel_can_smiles> 
CNc1ccc(cc1)NC 
 
>  <mulliken_charges> 
22 
1   -0.304009 
2   -0.304071 
3   -0.184831 
4   -0.199632 
5   -0.20001 
6   -0.185013 
7   0.334552 
8   0.334751 
9   -0.634904 
10   -0.634816 
11   0.150157 
12   0.160745 
13   0.139934 
14   0.150145 
15   0.139987 
16   0.16073 
17   0.119002 
18   0.110482 
19   0.110479 
20   0.118999 
21   0.308672 
22   0.308654 
 
>  <lowdin_charges> 
22 
1   -0.355382 
2   -0.355379 
3   -0.194251 
4   -0.18778 
5   -0.187855 
6   -0.194197 
7   0.034171 
8   0.034187 
9   -0.311578 
10   -0.311561 
11   0.154704 
12   0.152461 
13   0.132958 
14   0.1547 
15   0.133004 
16   0.152427 
17   0.155216 
18   0.148977 
19   0.148957 
20   0.15521 
21   0.270526 
22   0.270487 
 
$$$$ 
 
