PCCDB-ID:  71070 
public computational chemistry database (PCCDB) project, http://pccdb.org 
 
 26 25  0  0  1  0  0  0  0  0999 V2000 
   -2.8403    0.7743    2.2892 C   0  0  0  0  0  0  0  0  0  0  0  0 
   -1.4033    0.5601    1.8007 C   0  0  0  0  0  0  0  0  0  0  0  0 
   -3.1415    0.0043    3.5845 C   0  0  0  0  0  0  0  0  0  0  0  0 
   -1.0926    1.2715    0.4763 C   0  0  2  0  0  0  0  0  0  0  0  0 
    0.2896    0.8441   -0.0743 C   0  0  0  0  0  0  0  0  0  0  0  0 
   -5.6177   -0.2080    3.4012 C   0  0  0  0  0  0  0  0  0  0  0  0 
   -1.1547    2.7467    0.5020 N   0  0  0  0  0  0  0  0  0  0  0  0 
   -6.6191    0.5892    3.2958 N   0  0  0  0  0  0  0  0  0  0  0  0 
   -5.4914   -1.4916    2.8547 N   0  0  0  0  0  0  0  0  0  0  0  0 
   -4.4918    0.2051    4.1175 N   0  0  0  0  0  0  0  0  0  0  0  0 
    0.7261   -0.2781    0.0351 O   0  0  0  0  0  0  0  0  0  0  0  0 
    0.9404    1.8271   -0.7140 O   0  0  0  0  0  0  0  0  0  0  0  0 
   -3.5496    0.4497    1.5163 H   0  0  0  0  0  0  0  0  0  0  0  0 
   -3.0297    1.8436    2.4614 H   0  0  0  0  0  0  0  0  0  0  0  0 
   -1.2007   -0.5067    1.6577 H   0  0  0  0  0  0  0  0  0  0  0  0 
   -0.6887    0.9064    2.5632 H   0  0  0  0  0  0  0  0  0  0  0  0 
   -2.4384    0.3012    4.3722 H   0  0  0  0  0  0  0  0  0  0  0  0 
   -2.9797   -1.0657    3.4176 H   0  0  0  0  0  0  0  0  0  0  0  0 
   -1.8188    0.9400   -0.2790 H   0  0  0  0  0  0  0  0  0  0  0  0 
   -0.8258    3.1019    1.3996 H   0  0  0  0  0  0  0  0  0  0  0  0 
   -2.1067    3.0822    0.3811 H   0  0  0  0  0  0  0  0  0  0  0  0 
   -7.4236    0.1171    2.8775 H   0  0  0  0  0  0  0  0  0  0  0  0 
   -6.3622   -1.8712    2.5038 H   0  0  0  0  0  0  0  0  0  0  0  0 
   -5.0098   -2.1560    3.4514 H   0  0  0  0  0  0  0  0  0  0  0  0 
   -4.6556    1.1543    4.4388 H   0  0  0  0  0  0  0  0  0  0  0  0 
    0.3562    2.6212   -0.6145 H   0  0  0  0  0  0  0  0  0  0  0  0 
  1 14  1  0  0  0  0 
  1  3  1  0  0  0  0 
  2  1  1  0  0  0  0 
  2 16  1  0  0  0  0 
  3 10  1  0  0  0  0 
  3 17  1  0  0  0  0 
  4 19  1  6  0  0  0 
  4  7  1  0  0  0  0 
  4  2  1  0  0  0  0 
  5 11  2  0  0  0  0 
  5  4  1  0  0  0  0 
  6 10  1  0  0  0  0 
  7 20  1  0  0  0  0 
  8  6  1  0  0  0  0 
  9  6  2  0  0  0  0 
  9 24  1  0  0  0  0 
 10 25  1  0  0  0  0 
 12 26  1  0  0  0  0 
 12  5  1  0  0  0  0 
 13  1  1  0  0  0  0 
 15  2  1  0  0  0  0 
 18  3  1  0  0  0  0 
 21  7  1  0  0  0  0 
 22  8  1  0  0  0  0 
 23  9  1  0  0  0  0 
M  RAD  1   8   2 
M  END 
>  <HBA> 
6 
 
>  <HBD> 
4 
 
>  <TPSA> 
127.72 
 
>  <cid> 
71070 
 
>  <dipole> 
3.44 
 
>  <excitation_energy_1> 
5.254 
 
>  <excitation_energy_2> 
5.391 
 
>  <excitation_energy_3> 
5.512 
 
>  <excitation_energy_4> 
5.88 
 
>  <homo_energy> 
-6.147 
 
>  <homo_lumo_gap> 
6.539 
 
>  <logP> 
0.553 
 
>  <lumo_energy> 
0.392 
 
>  <melting_point> 
231.21 
 
>  <molecular_refractivity> 
44.53 
 
>  <oscillator_strength_1> 
0.002 
 
>  <oscillator_strength_2> 
0.0023 
 
>  <oscillator_strength_3> 
0.0047 
 
>  <oscillator_strength_4> 
0.0035 
 
>  <open_babel_can_smiles> 
[NH]C(=[NH2])NCCC[C@H](C(=O)O)N 
 
>  <mulliken_charges> 
26 
1   -0.265846 
2   -0.269541 
3   -0.143917 
4   -0.094029 
5   0.61205 
6   0.547534 
7   -0.769599 
8   -0.638989 
9   -0.74065 
10   -0.571563 
11   -0.466958 
12   -0.582561 
13   0.157774 
14   0.119845 
15   0.178114 
16   0.133287 
17   0.14786 
18   0.149694 
19   0.17699 
20   0.320594 
21   0.329709 
22   0.262087 
23   0.322287 
24   0.32889 
25   0.324493 
26   0.432446 
 
>  <lowdin_charges> 
26 
1   -0.292949 
2   -0.2841 
3   -0.199202 
4   -0.108411 
5   0.172465 
6   0.122061 
7   -0.545182 
8   -0.480782 
9   -0.508741 
10   -0.308086 
11   -0.25764 
12   -0.354823 
13   0.154215 
14   0.132486 
15   0.167465 
16   0.143466 
17   0.149701 
18   0.146644 
19   0.167793 
20   0.266623 
21   0.273482 
22   0.245381 
23   0.277598 
24   0.282363 
25   0.278097 
26   0.360077 
 
$$$$ 
 
