PCCDB-ID:  14124 
public computational chemistry database (PCCDB) project, http://pccdb.org 
 
 25 25  0  0  0  0  0  0  0  0999 V2000 
    4.1661   -1.3560    0.4344 C   0  0  0  0  0  0  0  0  0  0  0  0 
    4.4604    3.3358    2.1661 C   0  0  0  0  0  0  0  0  0  0  0  0 
    5.2623    2.2793    2.5960 C   0  0  0  0  0  0  0  0  0  0  0  0 
    2.8535    4.3898    0.5152 C   0  0  0  0  0  0  0  0  0  0  0  0 
    3.7910    2.0364    0.2531 C   0  0  0  0  0  0  0  0  0  0  0  0 
    3.7103    3.2244    0.9910 C   0  0  0  0  0  0  0  0  0  0  0  0 
    5.3418    1.0979    1.8557 C   0  0  0  0  0  0  0  0  0  0  0  0 
    3.7358    5.4235   -0.1637 C   0  0  0  0  0  0  0  0  0  0  0  0 
    4.5881    0.9726    0.6716 C   0  0  0  0  0  0  0  0  0  0  0  0 
    4.1122    5.0997   -1.6283 C   0  0  0  0  0  0  0  0  0  0  0  0 
    6.1346    0.0444    2.2233 O   0  0  0  0  0  0  0  0  0  0  0  0 
    4.1492    6.4284    0.3697 O   0  0  0  0  0  0  0  0  0  0  0  0 
    5.1083    5.8762   -2.0807 O   0  0  0  0  0  0  0  0  0  0  0  0 
    3.5469    4.2564   -2.2906 O   0  0  0  0  0  0  0  0  0  0  0  0 
    4.6719   -0.1411   -0.1258 O   0  0  0  0  0  0  0  0  0  0  0  0 
    4.2591   -2.1090   -0.3512 H   0  0  0  0  0  0  0  0  0  0  0  0 
    3.1083   -1.2471    0.7092 H   0  0  0  0  0  0  0  0  0  0  0  0 
    4.7424   -1.6662    1.3111 H   0  0  0  0  0  0  0  0  0  0  0  0 
    4.4221    4.2519    2.7493 H   0  0  0  0  0  0  0  0  0  0  0  0 
    5.8454    2.3760    3.5106 H   0  0  0  0  0  0  0  0  0  0  0  0 
    2.3659    4.8839    1.3603 H   0  0  0  0  0  0  0  0  0  0  0  0 
    2.0934    4.0375   -0.1870 H   0  0  0  0  0  0  0  0  0  0  0  0 
    3.2410    1.9219   -0.6757 H   0  0  0  0  0  0  0  0  0  0  0  0 
    6.6044    0.2796    3.0386 H   0  0  0  0  0  0  0  0  0  0  0  0 
    5.2652    5.6102   -3.0070 H   0  0  0  0  0  0  0  0  0  0  0  0 
  1 17  1  0  0  0  0 
  1 18  1  0  0  0  0 
  2  3  1  0  0  0  0 
  2 19  1  0  0  0  0 
  3 20  1  0  0  0  0 
  4  6  1  0  0  0  0 
  4 21  1  0  0  0  0 
  5  9  2  0  0  0  0 
  5  6  1  0  0  0  0 
  6  2  2  0  0  0  0 
  7 11  1  0  0  0  0 
  7  3  2  0  0  0  0 
  8 12  2  0  0  0  0 
  8  4  1  0  0  0  0 
  9  7  1  0  0  0  0 
 10  8  1  0  0  0  0 
 11 24  1  0  0  0  0 
 13 10  1  0  0  0  0 
 14 10  2  0  0  0  0 
 15  1  1  0  0  0  0 
 15  9  1  0  0  0  0 
 16  1  1  0  0  0  0 
 22  4  1  0  0  0  0 
 23  5  1  0  0  0  0 
 25 13  1  0  0  0  0 
M  END 
>  <HBA> 
5 
 
>  <HBD> 
2 
 
>  <TPSA> 
83.83 
 
>  <cid> 
14124 
 
>  <dipole> 
2.27 
 
>  <excitation_energy_1> 
2.936 
 
>  <excitation_energy_2> 
3.438 
 
>  <excitation_energy_3> 
3.812 
 
>  <excitation_energy_4> 
4.785 
 
>  <homo_energy> 
-5.919 
 
>  <homo_lumo_gap> 
3.842 
 
>  <logP> 
0.597 
 
>  <lumo_energy> 
-2.076 
 
>  <melting_point> 
151.46 
 
>  <molecular_refractivity> 
51.51 
 
>  <oscillator_strength_1> 
0.0281 
 
>  <oscillator_strength_2> 
0.0095 
 
>  <oscillator_strength_3> 
0.007 
 
>  <oscillator_strength_4> 
0.0009 
 
>  <open_babel_can_smiles> 
COc1cc(ccc1O)CC(=O)C(=O)O 
 
>  <mulliken_charges> 
25 
1   -0.21455 
2   -0.175217 
3   -0.19823 
4   -0.425113 
5   -0.230265 
6   0.126777 
7   0.316768 
8   0.409174 
9   0.33371 
10   0.530677 
11   -0.639428 
12   -0.407734 
13   -0.536604 
14   -0.44946 
15   -0.518752 
16   0.160746 
17   0.139388 
18   0.168211 
19   0.141293 
20   0.124421 
21   0.174739 
22   0.184969 
23   0.156638 
24   0.410964 
25   0.416881 
 
>  <lowdin_charges> 
25 
1   -0.275192 
2   -0.16086 
3   -0.205211 
4   -0.29813 
5   -0.173039 
6   -0.022052 
7   0.078962 
8   0.13951 
9   0.068969 
10   0.164347 
11   -0.372338 
12   -0.184601 
13   -0.317126 
14   -0.247061 
15   -0.220909 
16   0.158175 
17   0.137292 
18   0.152898 
19   0.164918 
20   0.155918 
21   0.172978 
22   0.179546 
23   0.175856 
24   0.360693 
25   0.366459 
 
$$$$ 
 
