PCCDB-ID:  70103 
public computational chemistry database (PCCDB) project, http://pccdb.org 
 
 15 15  0  0  0  0  0  0  0  0999 V2000 
    1.0367    0.1250    0.0953 C   0  0  0  0  0  0  0  0  0  0  0  0 
    4.7721   -0.7099   -0.2597 C   0  0  0  0  0  0  0  0  0  0  0  0 
    3.3059   -1.1937   -0.1783 C   0  0  0  0  0  0  0  0  0  0  0  0 
    4.6526    0.8406   -0.1527 C   0  0  0  0  0  0  0  0  0  0  0  0 
    2.5324    0.1084   -0.0285 C   0  0  0  0  0  0  0  0  0  0  0  0 
    3.2304    1.1778   -0.0160 N   0  0  0  0  0  0  0  0  0  0  0  0 
    0.7122   -0.4525    0.9710 H   0  0  0  0  0  0  0  0  0  0  0  0 
    0.5675   -0.3411   -0.7812 H   0  0  0  0  0  0  0  0  0  0  0  0 
    0.6746    1.1510    0.1910 H   0  0  0  0  0  0  0  0  0  0  0  0 
    5.2455   -1.0130   -1.1984 H   0  0  0  0  0  0  0  0  0  0  0  0 
    5.3782   -1.1222    0.5525 H   0  0  0  0  0  0  0  0  0  0  0  0 
    3.1158   -1.8614    0.6726 H   0  0  0  0  0  0  0  0  0  0  0  0 
    2.9800   -1.7394   -1.0740 H   0  0  0  0  0  0  0  0  0  0  0  0 
    5.0531    1.3553   -1.0352 H   0  0  0  0  0  0  0  0  0  0  0  0 
    5.1939    1.2446    0.7121 H   0  0  0  0  0  0  0  0  0  0  0  0 
  1  9  1  0  0  0  0 
  1  7  1  0  0  0  0 
  2  3  1  0  0  0  0 
  2  4  1  0  0  0  0 
  2 11  1  0  0  0  0 
  3  5  1  0  0  0  0 
  3 12  1  0  0  0  0 
  4  6  1  0  0  0  0 
  4 15  1  0  0  0  0 
  5  6  2  0  0  0  0 
  5  1  1  0  0  0  0 
  8  1  1  0  0  0  0 
 10  2  1  0  0  0  0 
 13  3  1  0  0  0  0 
 14  4  1  0  0  0  0 
M  END 
>  <HBA> 
1 
 
>  <HBD> 
0 
 
>  <TPSA> 
12.36 
 
>  <cid> 
70103 
 
>  <dipole> 
1.98 
 
>  <excitation_energy_1> 
5.6 
 
>  <excitation_energy_2> 
6.289 
 
>  <excitation_energy_3> 
6.683 
 
>  <excitation_energy_4> 
6.767 
 
>  <homo_energy> 
-6.697 
 
>  <homo_lumo_gap> 
7.187 
 
>  <logP> 
0.677 
 
>  <lumo_energy> 
0.49 
 
>  <melting_point> 
14.54 
 
>  <molecular_refractivity> 
31.05 
 
>  <oscillator_strength_1> 
0.0024 
 
>  <oscillator_strength_2> 
0.0425 
 
>  <oscillator_strength_3> 
0.0035 
 
>  <oscillator_strength_4> 
0.0006 
 
>  <open_babel_can_smiles> 
CC1=NCCC1 
 
>  <mulliken_charges> 
15 
1   -0.508709 
2   -0.30143 
3   -0.337746 
4   -0.150724 
5   0.317118 
6   -0.403131 
7   0.157098 
8   0.157072 
9   0.17774 
10   0.14617 
11   0.146285 
12   0.152212 
13   0.152387 
14   0.147802 
15   0.147855 
 
>  <lowdin_charges> 
15 
1   -0.449714 
2   -0.298937 
3   -0.304861 
4   -0.214493 
5   0.049482 
6   -0.18389 
7   0.161509 
8   0.161583 
9   0.17081 
10   0.150375 
11   0.151196 
12   0.155211 
13   0.155272 
14   0.14815 
15   0.148306 
 
$$$$ 
 
