PCCDB-ID:  22445 
public computational chemistry database (PCCDB) project, http://pccdb.org 
 
 23 22  0  0  0  0  0  0  0  0999 V2000 
    3.0116    0.7324    0.0996 C   0  0  0  0  0  0  0  0  0  0  0  0 
    1.7184   -4.9083   -2.2663 C   0  0  0  0  0  0  0  0  0  0  0  0 
    3.6090   -0.6711   -0.0436 C   0  0  0  0  0  0  0  0  0  0  0  0 
    1.5653   -5.0374   -0.7842 C   0  0  0  0  0  0  0  0  0  0  0  0 
    2.5675   -1.7835    0.1282 C   0  0  0  0  0  0  0  0  0  0  0  0 
    3.1779   -3.1922   -0.0246 C   0  0  0  0  0  0  0  0  0  0  0  0 
    2.1883   -4.3086    0.1513 C   0  0  0  0  0  0  0  0  0  0  0  0 
    1.8492   -4.6290    1.5637 N   0  0  0  0  0  0  0  0  0  0  0  0 
    1.0377   -5.5235    1.8013 O   0  0  0  0  0  0  0  0  0  0  0  0 
    2.4161   -3.9652    2.4349 O   0  0  0  0  0  0  0  0  0  0  0  0 
    3.7781    1.5060   -0.0213 H   0  0  0  0  0  0  0  0  0  0  0  0 
    2.5532    0.8676    1.0866 H   0  0  0  0  0  0  0  0  0  0  0  0 
    2.2345    0.9124   -0.6535 H   0  0  0  0  0  0  0  0  0  0  0  0 
    2.0379   -5.8657   -2.6981 H   0  0  0  0  0  0  0  0  0  0  0  0 
    2.4326   -4.1379   -2.5654 H   0  0  0  0  0  0  0  0  0  0  0  0 
    0.7486   -4.6716   -2.7239 H   0  0  0  0  0  0  0  0  0  0  0  0 
    4.4065   -0.8072    0.6999 H   0  0  0  0  0  0  0  0  0  0  0  0 
    4.0886   -0.7675   -1.0285 H   0  0  0  0  0  0  0  0  0  0  0  0 
    0.8761   -5.7984   -0.4289 H   0  0  0  0  0  0  0  0  0  0  0  0 
    1.7640   -1.6549   -0.6106 H   0  0  0  0  0  0  0  0  0  0  0  0 
    2.1041   -1.7014    1.1182 H   0  0  0  0  0  0  0  0  0  0  0  0 
    3.9845   -3.3146    0.7049 H   0  0  0  0  0  0  0  0  0  0  0  0 
    3.6298   -3.2850   -1.0183 H   0  0  0  0  0  0  0  0  0  0  0  0 
  1 12  1  0  0  0  0 
  2  4  1  0  0  0  0 
  3  1  1  0  0  0  0 
  3  5  1  0  0  0  0 
  3 17  1  0  0  0  0 
  4 19  1  0  0  0  0 
  4  7  2  0  0  0  0 
  5 21  1  0  0  0  0 
  6  5  1  0  0  0  0 
  6  7  1  0  0  0  0 
  6 22  1  0  0  0  0 
  7  8  1  0  0  0  0 
  8  9  2  0  0  0  0 
  8 10  2  0  0  0  0 
 11  1  1  0  0  0  0 
 13  1  1  0  0  0  0 
 14  2  1  0  0  0  0 
 15  2  1  0  0  0  0 
 16  2  1  0  0  0  0 
 18  3  1  0  0  0  0 
 20  5  1  0  0  0  0 
 23  6  1  0  0  0  0 
M  END 
>  <HBA> 
0 
 
>  <HBD> 
0 
 
>  <TPSA> 
45.82 
 
>  <cid> 
22445 
 
>  <dipole> 
4.41 
 
>  <excitation_energy_1> 
3.713 
 
>  <excitation_energy_2> 
4.257 
 
>  <excitation_energy_3> 
4.702 
 
>  <excitation_energy_4> 
5.802 
 
>  <homo_energy> 
-7.491 
 
>  <homo_lumo_gap> 
5.325 
 
>  <logP> 
2.88 
 
>  <lumo_energy> 
-2.166 
 
>  <melting_point> 
16.74 
 
>  <molecular_refractivity> 
43.39 
 
>  <oscillator_strength_1> 
0.0002 
 
>  <oscillator_strength_2> 
0.0007 
 
>  <oscillator_strength_3> 
0.1567 
 
>  <oscillator_strength_4> 
0.021 
 
>  <open_babel_can_smiles> 
CCCC/C(=C\C)/N(=O)=O 
 
>  <mulliken_charges> 
23 
1   -0.442937 
2   -0.497742 
3   -0.248257 
4   -0.145402 
5   -0.253197 
6   -0.33963 
7   0.286189 
8   0.413557 
9   -0.405545 
10   -0.394242 
11   0.144823 
12   0.148405 
13   0.141561 
14   0.177555 
15   0.168618 
16   0.17842 
17   0.140019 
18   0.128059 
19   0.189856 
20   0.130099 
21   0.159288 
22   0.175205 
23   0.1453 
 
>  <lowdin_charges> 
23 
1   -0.444591 
2   -0.439488 
3   -0.271868 
4   -0.121268 
5   -0.274483 
6   -0.280794 
7   -0.004382 
8   0.305122 
9   -0.256169 
10   -0.252525 
11   0.151827 
12   0.14961 
13   0.147151 
14   0.171926 
15   0.162927 
16   0.172693 
17   0.14426 
18   0.136833 
19   0.187072 
20   0.139773 
21   0.1527 
22   0.17021 
23   0.153465 
 
$$$$ 
 
