PCCDB-ID:  6425 
public computational chemistry database (PCCDB) project, http://pccdb.org 
 
 22 21  0  0  0  0  0  0  0  0999 V2000 
    0.9570    0.2615    0.1361 C   0  0  0  0  0  0  0  0  0  0  0  0 
    2.8489   -1.3732    0.4641 C   0  0  0  0  0  0  0  0  0  0  0  0 
    4.5333    0.5796   -1.4139 C   0  0  0  0  0  0  0  0  0  0  0  0 
    2.5935   -0.6590   -2.4444 C   0  0  0  0  0  0  0  0  0  0  0  0 
    2.4770    0.0562    0.0307 C   0  0  0  0  0  0  0  0  0  0  0  0 
    3.0066    0.3972   -1.4034 C   0  0  0  0  0  0  0  0  0  0  0  0 
    3.1352    0.9861    0.9078 O   0  0  0  0  0  0  0  0  0  0  0  0 
    2.3851    1.6470   -1.7486 O   0  0  0  0  0  0  0  0  0  0  0  0 
    0.4016   -0.4071   -0.5298 H   0  0  0  0  0  0  0  0  0  0  0  0 
    0.6977    1.2926   -0.1078 H   0  0  0  0  0  0  0  0  0  0  0  0 
    0.6282    0.0429    1.1613 H   0  0  0  0  0  0  0  0  0  0  0  0 
    2.3374   -2.1370   -0.1306 H   0  0  0  0  0  0  0  0  0  0  0  0 
    2.5520   -1.5202    1.5099 H   0  0  0  0  0  0  0  0  0  0  0  0 
    3.9280   -1.5425    0.4015 H   0  0  0  0  0  0  0  0  0  0  0  0 
    5.0620   -0.3388   -1.1388 H   0  0  0  0  0  0  0  0  0  0  0  0 
    4.8230    1.3709   -0.7213 H   0  0  0  0  0  0  0  0  0  0  0  0 
    4.8626    0.8517   -2.4260 H   0  0  0  0  0  0  0  0  0  0  0  0 
    3.0821   -1.6243   -2.2777 H   0  0  0  0  0  0  0  0  0  0  0  0 
    2.8878   -0.3127   -3.4430 H   0  0  0  0  0  0  0  0  0  0  0  0 
    1.5100   -0.8097   -2.4552 H   0  0  0  0  0  0  0  0  0  0  0  0 
    2.7084    0.9087    1.7752 H   0  0  0  0  0  0  0  0  0  0  0  0 
    2.8139    1.9627   -2.5592 H   0  0  0  0  0  0  0  0  0  0  0  0 
  1 11  1  0  0  0  0 
  2 13  1  0  0  0  0 
  3  6  1  0  0  0  0 
  3 15  1  0  0  0  0 
  3 16  1  0  0  0  0 
  4 18  1  0  0  0  0 
  4  6  1  0  0  0  0 
  5  1  1  0  0  0  0 
  5  2  1  0  0  0  0 
  5  7  1  0  0  0  0 
  6  5  1  0  0  0  0 
  7 21  1  0  0  0  0 
  8  6  1  0  0  0  0 
  9  1  1  0  0  0  0 
 10  1  1  0  0  0  0 
 12  2  1  0  0  0  0 
 14  2  1  0  0  0  0 
 17  3  1  0  0  0  0 
 19  4  1  0  0  0  0 
 20  4  1  0  0  0  0 
 22  8  1  0  0  0  0 
M  END 
>  <HBA> 
2 
 
>  <HBD> 
2 
 
>  <TPSA> 
40.46 
 
>  <cid> 
6425 
 
>  <dipole> 
1.37 
 
>  <excitation_energy_1> 
6.378 
 
>  <excitation_energy_2> 
6.462 
 
>  <excitation_energy_3> 
6.851 
 
>  <excitation_energy_4> 
6.927 
 
>  <homo_energy> 
-6.917 
 
>  <homo_lumo_gap> 
8.602 
 
>  <logP> 
0.528 
 
>  <lumo_energy> 
1.684 
 
>  <melting_point> 
32.72 
 
>  <molecular_refractivity> 
33.36 
 
>  <oscillator_strength_1> 
0.0198 
 
>  <oscillator_strength_2> 
0.0132 
 
>  <oscillator_strength_3> 
0.0005 
 
>  <oscillator_strength_4> 
0.004 
 
>  <open_babel_can_smiles> 
CC(C(O)(C)C)(O)C 
 
>  <mulliken_charges> 
22 
1   -0.470616 
2   -0.461749 
3   -0.470416 
4   -0.461666 
5   0.315766 
6   0.314839 
7   -0.643368 
8   -0.643272 
9   0.140346 
10   0.187594 
11   0.119882 
12   0.144167 
13   0.130429 
14   0.153605 
15   0.140253 
16   0.187738 
17   0.11985 
18   0.14415 
19   0.130404 
20   0.1536 
21   0.384251 
22   0.384214 
 
>  <lowdin_charges> 
22 
1   -0.459049 
2   -0.457619 
3   -0.459934 
4   -0.456109 
5   0.120577 
6   0.12021 
7   -0.45617 
8   -0.457664 
9   0.15254 
10   0.171045 
11   0.138586 
12   0.153007 
13   0.145388 
14   0.152978 
15   0.151403 
16   0.172889 
17   0.138826 
18   0.151574 
19   0.146037 
20   0.15284 
21   0.339084 
22   0.33956 
 
$$$$ 
 
