PCCDB-ID:  43057 
public computational chemistry database (PCCDB) project, http://pccdb.org 
 
 18 17  0  0  0  0  0  0  0  0999 V2000 
    1.6442   -0.1456    0.0109 C   0  0  0  0  0  0  0  0  0  0  0  0 
    4.7832   -2.4054    3.3327 C   0  0  0  0  0  0  0  0  0  0  0  0 
    2.9874   -2.2979    1.5536 C   0  0  0  0  0  0  0  0  0  0  0  0 
    3.0919   -0.5902   -0.0736 C   0  0  0  0  0  0  0  0  0  0  0  0 
    3.6952   -1.5042    0.5720 N   0  0  0  0  0  0  0  0  0  0  0  0 
    2.7955   -1.1774    3.7372 N   0  0  0  0  0  0  0  0  0  0  0  0 
    3.4568   -1.9927    2.9084 N   0  0  0  0  0  0  0  0  0  0  0  0 
    3.8476    0.0708   -0.9965 O   0  0  0  0  0  0  0  0  0  0  0  0 
    1.7244   -0.7353    3.3213 O   0  0  0  0  0  0  0  0  0  0  0  0 
    1.2358   -0.3186    1.0083 H   0  0  0  0  0  0  0  0  0  0  0  0 
    1.0325   -0.6807   -0.7260 H   0  0  0  0  0  0  0  0  0  0  0  0 
    1.5593    0.9268   -0.2002 H   0  0  0  0  0  0  0  0  0  0  0  0 
    5.5370   -2.0115    2.6435 H   0  0  0  0  0  0  0  0  0  0  0  0 
    4.8550   -3.4991    3.3543 H   0  0  0  0  0  0  0  0  0  0  0  0 
    4.9495   -2.0079    4.3354 H   0  0  0  0  0  0  0  0  0  0  0  0 
    3.2220   -3.3527    1.3710 H   0  0  0  0  0  0  0  0  0  0  0  0 
    1.9009   -2.1785    1.5750 H   0  0  0  0  0  0  0  0  0  0  0  0 
    3.3090    0.7571   -1.4180 H   0  0  0  0  0  0  0  0  0  0  0  0 
  1 10  1  0  0  0  0 
  2 14  1  0  0  0  0 
  2 15  1  0  0  0  0 
  3 17  1  0  0  0  0 
  3  7  1  0  0  0  0 
  4  1  1  0  0  0  0 
  4  5  2  0  0  0  0 
  5  3  1  0  0  0  0 
  7  2  1  0  0  0  0 
  7  6  1  0  0  0  0 
  8  4  1  0  0  0  0 
  9  6  2  0  0  0  0 
 11  1  1  0  0  0  0 
 12  1  1  0  0  0  0 
 13  2  1  0  0  0  0 
 16  3  1  0  0  0  0 
 18  8  1  0  0  0  0 
M  END 
>  <HBA> 
5 
 
>  <HBD> 
1 
 
>  <TPSA> 
61.77 
 
>  <cid> 
43057 
 
>  <dipole> 
2.24 
 
>  <excitation_energy_1> 
3.358 
 
>  <excitation_energy_2> 
5.094 
 
>  <excitation_energy_3> 
5.475 
 
>  <excitation_energy_4> 
5.523 
 
>  <homo_energy> 
-6.063 
 
>  <homo_lumo_gap> 
5.162 
 
>  <logP> 
0.084 
 
>  <lumo_energy> 
-0.901 
 
>  <melting_point> 
45.02 
 
>  <molecular_refractivity> 
31.98 
 
>  <oscillator_strength_1> 
0.0008 
 
>  <oscillator_strength_2> 
0.0147 
 
>  <oscillator_strength_3> 
0.0099 
 
>  <oscillator_strength_4> 
0.0066 
 
>  <open_babel_can_smiles> 
CN(N=O)C/N=C(/O)\C 
 
>  <mulliken_charges> 
18 
1   -0.571904 
2   -0.310605 
3   -0.055113 
4   0.496863 
5   -0.41113 
6   0.155308 
7   -0.192246 
8   -0.568916 
9   -0.391426 
10   0.227524 
11   0.183952 
12   0.156754 
13   0.19295 
14   0.161891 
15   0.186429 
16   0.162225 
17   0.170238 
18   0.407208 
 
>  <lowdin_charges> 
18 
1   -0.490491 
2   -0.352787 
3   -0.143603 
4   0.145932 
5   -0.226538 
6   0.057182 
7   -0.037631 
8   -0.359723 
9   -0.285871 
10   0.19161 
11   0.176328 
12   0.160949 
13   0.171598 
14   0.153729 
15   0.173912 
16   0.15485 
17   0.153369 
18   0.357184 
 
$$$$ 
 
