PCCDB-ID:  23433 
public computational chemistry database (PCCDB) project, http://pccdb.org 
 
 28 27  0  0  0  0  0  0  0  0999 V2000 
    4.6060   -2.7130    1.1922 C   0  0  0  0  0  0  0  0  0  0  0  0 
    7.5671    4.1252   -6.3280 C   0  0  0  0  0  0  0  0  0  0  0  0 
    4.2211   -1.6267    0.8300 C   0  0  0  0  0  0  0  0  0  0  0  0 
    3.7657   -0.3081    0.3838 C   0  0  0  0  0  0  0  0  0  0  0  0 
    4.1880    0.0377   -1.0618 C   0  0  0  0  0  0  0  0  0  0  0  0 
    5.7041    0.1517   -1.2523 C   0  0  0  0  0  0  0  0  0  0  0  0 
    6.0989    0.5766   -2.6721 C   0  0  0  0  0  0  0  0  0  0  0  0 
    7.6180    0.6553   -2.8727 C   0  0  0  0  0  0  0  0  0  0  0  0 
    8.0341    1.0770   -4.2858 C   0  0  0  0  0  0  0  0  0  0  0  0 
    7.7087    2.5253   -4.6005 C   0  0  0  0  0  0  0  0  0  0  0  0 
    7.4297    3.3822   -3.7889 O   0  0  0  0  0  0  0  0  0  0  0  0 
    7.7972    2.7645   -5.9298 O   0  0  0  0  0  0  0  0  0  0  0  0 
    4.9462   -3.6713    1.5122 H   0  0  0  0  0  0  0  0  0  0  0  0 
    7.7300    4.1471   -7.4062 H   0  0  0  0  0  0  0  0  0  0  0  0 
    8.2625    4.7993   -5.8209 H   0  0  0  0  0  0  0  0  0  0  0  0 
    6.5435    4.4283   -6.0903 H   0  0  0  0  0  0  0  0  0  0  0  0 
    4.1537    0.4589    1.0692 H   0  0  0  0  0  0  0  0  0  0  0  0 
    2.6709   -0.2601    0.4616 H   0  0  0  0  0  0  0  0  0  0  0  0 
    3.7087    0.9876   -1.3354 H   0  0  0  0  0  0  0  0  0  0  0  0 
    3.7861   -0.7254   -1.7410 H   0  0  0  0  0  0  0  0  0  0  0  0 
    6.1709   -0.8123   -1.0078 H   0  0  0  0  0  0  0  0  0  0  0  0 
    6.1050    0.8804   -0.5323 H   0  0  0  0  0  0  0  0  0  0  0  0 
    5.6562    1.5563   -2.8926 H   0  0  0  0  0  0  0  0  0  0  0  0 
    5.6745   -0.1341   -3.3975 H   0  0  0  0  0  0  0  0  0  0  0  0 
    8.0633   -0.3256   -2.6587 H   0  0  0  0  0  0  0  0  0  0  0  0 
    8.0469    1.3617   -2.1520 H   0  0  0  0  0  0  0  0  0  0  0  0 
    7.5734    0.4416   -5.0519 H   0  0  0  0  0  0  0  0  0  0  0  0 
    9.1191    0.9613   -4.4184 H   0  0  0  0  0  0  0  0  0  0  0  0 
  1 13  1  0  0  0  0 
  2 16  1  0  0  0  0 
  2 12  1  0  0  0  0 
  2 15  1  0  0  0  0 
  3  1  3  0  0  0  0 
  4 18  1  0  0  0  0 
  4  3  1  0  0  0  0 
  4 17  1  0  0  0  0 
  5  4  1  0  0  0  0 
  6  5  1  0  0  0  0 
  6 21  1  0  0  0  0 
  6 22  1  0  0  0  0 
  7  6  1  0  0  0  0 
  8  7  1  0  0  0  0 
  8 25  1  0  0  0  0 
  8 26  1  0  0  0  0 
  9  8  1  0  0  0  0 
 10  9  1  0  0  0  0 
 10 11  2  0  0  0  0 
 12 10  1  0  0  0  0 
 14  2  1  0  0  0  0 
 19  5  1  0  0  0  0 
 20  5  1  0  0  0  0 
 23  7  1  0  0  0  0 
 24  7  1  0  0  0  0 
 27  9  1  0  0  0  0 
 28  9  1  0  0  0  0 
M  END 
>  <HBA> 
2 
 
>  <HBD> 
0 
 
>  <TPSA> 
26.3 
 
>  <cid> 
23433 
 
>  <dipole> 
1.74 
 
>  <excitation_energy_1> 
5.818 
 
>  <excitation_energy_2> 
6.361 
 
>  <excitation_energy_3> 
6.51 
 
>  <excitation_energy_4> 
6.598 
 
>  <homo_energy> 
-6.974 
 
>  <homo_lumo_gap> 
7.353 
 
>  <logP> 
2.133 
 
>  <lumo_energy> 
0.378 
 
>  <melting_point> 
0.57 
 
>  <molecular_refractivity> 
49.63 
 
>  <oscillator_strength_1> 
0.0008 
 
>  <oscillator_strength_2> 
0.0006 
 
>  <oscillator_strength_3> 
0.0195 
 
>  <oscillator_strength_4> 
0.0016 
 
>  <open_babel_can_smiles> 
C#CCCCCCCC(=O)OC 
 
>  <mulliken_charges> 
28 
1   -0.492263 
2   -0.217593 
3   0.331934 
4   -0.404141 
5   -0.256177 
6   -0.254743 
7   -0.260652 
8   -0.251644 
9   -0.361825 
10   0.622164 
11   -0.480619 
12   -0.451392 
13   0.18297 
14   0.163575 
15   0.169964 
16   0.168508 
17   0.168324 
18   0.167371 
19   0.136768 
20   0.142427 
21   0.145153 
22   0.131891 
23   0.150434 
24   0.123563 
25   0.131654 
26   0.154118 
27   0.16688 
28   0.173352 
 
>  <lowdin_charges> 
28 
1   -0.268803 
2   -0.277004 
3   -0.037817 
4   -0.262449 
5   -0.268208 
6   -0.276892 
7   -0.278681 
8   -0.272752 
9   -0.302126 
10   0.200472 
11   -0.269182 
12   -0.197744 
13   0.201845 
14   0.157935 
15   0.160521 
16   0.157292 
17   0.166297 
18   0.165232 
19   0.144397 
20   0.147569 
21   0.147378 
22   0.141806 
23   0.148306 
24   0.136646 
25   0.14392 
26   0.155094 
27   0.1666 
28   0.170347 
 
$$$$ 
 
