PCCDB-ID:  20845 
public computational chemistry database (PCCDB) project, http://pccdb.org 
 
 27 28  0  0  1  0  0  0  0  0999 V2000 
    1.1023    0.2189    0.0520 C   0  0  0  0  0  0  0  0  0  0  0  0 
    6.5758   -2.3764    2.5531 C   0  0  0  0  0  0  0  0  0  0  0  0 
    6.7552   -1.0966    1.7211 C   0  0  0  0  0  0  0  0  0  0  0  0 
    5.3546   -3.1807    2.0815 C   0  0  0  0  0  0  0  0  0  0  0  0 
    5.4783   -0.2418    1.7308 C   0  0  0  0  0  0  0  0  0  0  0  0 
    4.0774   -2.3256    2.0842 C   0  0  0  0  0  0  0  0  0  0  0  0 
    3.1857   -1.0697   -0.7736 C   0  0  0  0  0  0  0  0  0  0  0  0 
    2.6150    0.0813    0.0554 C   0  0  2  0  0  0  0  0  0  0  0  0 
    4.2563   -1.0407    1.2669 C   0  0  0  0  0  0  0  0  0  0  0  0 
    4.4208   -1.3459   -0.1280 O   0  0  0  0  0  0  0  0  0  0  0  0 
    3.0624   -0.2585    1.3716 O   0  0  0  0  0  0  0  0  0  0  0  0 
    0.7410    0.4773   -0.9502 H   0  0  0  0  0  0  0  0  0  0  0  0 
    0.7875    1.0084    0.7413 H   0  0  0  0  0  0  0  0  0  0  0  0 
    0.6325   -0.7191    0.3662 H   0  0  0  0  0  0  0  0  0  0  0  0 
    6.4475   -2.1072    3.6124 H   0  0  0  0  0  0  0  0  0  0  0  0 
    7.4807   -2.9946    2.4954 H   0  0  0  0  0  0  0  0  0  0  0  0 
    6.9949   -1.3654    0.6841 H   0  0  0  0  0  0  0  0  0  0  0  0 
    7.6002   -0.5084    2.1004 H   0  0  0  0  0  0  0  0  0  0  0  0 
    5.2100   -4.0639    2.7167 H   0  0  0  0  0  0  0  0  0  0  0  0 
    5.5328   -3.5474    1.0624 H   0  0  0  0  0  0  0  0  0  0  0  0 
    5.5856    0.6376    1.0851 H   0  0  0  0  0  0  0  0  0  0  0  0 
    5.2723    0.1187    2.7469 H   0  0  0  0  0  0  0  0  0  0  0  0 
    3.8123   -2.0383    3.1104 H   0  0  0  0  0  0  0  0  0  0  0  0 
    3.2259   -2.8844    1.6783 H   0  0  0  0  0  0  0  0  0  0  0  0 
    3.3916   -0.8092   -1.8159 H   0  0  0  0  0  0  0  0  0  0  0  0 
    2.5129   -1.9421   -0.7480 H   0  0  0  0  0  0  0  0  0  0  0  0 
    3.0821    1.0278   -0.2609 H   0  0  0  0  0  0  0  0  0  0  0  0 
  1  8  1  0  0  0  0 
  1 14  1  0  0  0  0 
  1 13  1  0  0  0  0 
  2 15  1  0  0  0  0 
  3  5  1  0  0  0  0 
  3 18  1  0  0  0  0 
  3  2  1  0  0  0  0 
  4  6  1  0  0  0  0 
  4  2  1  0  0  0  0 
  4 19  1  0  0  0  0 
  5 22  1  0  0  0  0 
  6 23  1  0  0  0  0 
  7 26  1  0  0  0  0 
  7 10  1  0  0  0  0 
  7  8  1  0  0  0  0 
  8 27  1  6  0  0  0 
  8 11  1  0  0  0  0 
  9 11  1  0  0  0  0 
  9  5  1  0  0  0  0 
  9  6  1  0  0  0  0 
 10  9  1  0  0  0  0 
 12  1  1  0  0  0  0 
 16  2  1  0  0  0  0 
 17  3  1  0  0  0  0 
 20  4  1  0  0  0  0 
 21  5  1  0  0  0  0 
 24  6  1  0  0  0  0 
 25  7  1  0  0  0  0 
M  END 
>  <HBA> 
2 
 
>  <HBD> 
0 
 
>  <TPSA> 
18.46 
 
>  <cid> 
20845 
 
>  <dipole> 
0.94 
 
>  <excitation_energy_1> 
6.212 
 
>  <excitation_energy_2> 
6.398 
 
>  <excitation_energy_3> 
6.6 
 
>  <excitation_energy_4> 
6.708 
 
>  <homo_energy> 
-6.536 
 
>  <homo_lumo_gap> 
8.836 
 
>  <logP> 
2.082 
 
>  <lumo_energy> 
2.299 
 
>  <melting_point> 
9.73 
 
>  <molecular_refractivity> 
43.36 
 
>  <oscillator_strength_1> 
0.0026 
 
>  <oscillator_strength_2> 
0.0084 
 
>  <oscillator_strength_3> 
0.0043 
 
>  <oscillator_strength_4> 
0.0046 
 
>  <open_babel_can_smiles> 
C[C@@H]1COC2(O1)CCCCC2 
 
>  <mulliken_charges> 
27 
1   -0.462087 
2   -0.261566 
3   -0.267284 
4   -0.265223 
5   -0.272122 
6   -0.272395 
7   -0.040722 
8   0.138838 
9   0.54539 
10   -0.517445 
11   -0.54177 
12   0.144558 
13   0.163945 
14   0.153953 
15   0.126564 
16   0.131008 
17   0.14915 
18   0.129831 
19   0.12954 
20   0.146228 
21   0.134963 
22   0.137458 
23   0.13809 
24   0.132104 
25   0.146222 
26   0.127506 
27   0.125267 
 
>  <lowdin_charges> 
27 
1   -0.449028 
2   -0.277168 
3   -0.27961 
4   -0.279495 
5   -0.288967 
6   -0.291554 
7   -0.144896 
8   -0.004965 
9   0.215788 
10   -0.274039 
11   -0.270977 
12   0.153939 
13   0.16363 
14   0.155961 
15   0.134735 
16   0.144658 
17   0.147268 
18   0.144905 
19   0.144329 
20   0.14639 
21   0.150345 
22   0.147791 
23   0.148153 
24   0.149244 
25   0.151012 
26   0.131911 
27   0.13064 
 
$$$$ 
 
