PCCDB-ID:  68323 
public computational chemistry database (PCCDB) project, http://pccdb.org 
 
 13 13  0  0  0  0  0  0  0  0999 V2000 
    1.8759   -0.7816   -0.4894 C   0  0  0  0  0  0  0  0  0  0  0  0 
    2.9969    2.6307    0.2249 C   0  0  0  0  0  0  0  0  0  0  0  0 
    2.1874    2.3550   -1.0294 C   0  0  0  0  0  0  0  0  0  0  0  0 
    3.0082    1.2658   -0.3824 C   0  0  0  0  0  0  0  0  0  0  0  0 
    2.3598    0.2603    0.3395 O   0  0  0  0  0  0  0  0  0  0  0  0 
    1.3917   -1.5105    0.1658 H   0  0  0  0  0  0  0  0  0  0  0  0 
    2.6936   -1.2795   -1.0338 H   0  0  0  0  0  0  0  0  0  0  0  0 
    1.1450   -0.4116   -1.2237 H   0  0  0  0  0  0  0  0  0  0  0  0 
    2.4474    2.7400    1.1552 H   0  0  0  0  0  0  0  0  0  0  0  0 
    3.8938    3.2393    0.1513 H   0  0  0  0  0  0  0  0  0  0  0  0 
    2.5211    2.7757   -1.9745 H   0  0  0  0  0  0  0  0  0  0  0  0 
    1.1089    2.2924   -0.9142 H   0  0  0  0  0  0  0  0  0  0  0  0 
    3.9118    0.9337   -0.9006 H   0  0  0  0  0  0  0  0  0  0  0  0 
  1  6  1  0  0  0  0 
  1  5  1  0  0  0  0 
  2  9  1  0  0  0  0 
  3 12  1  0  0  0  0 
  3  4  1  0  0  0  0 
  3  2  1  0  0  0  0 
  4  2  1  0  0  0  0 
  4  5  1  0  0  0  0 
  7  1  1  0  0  0  0 
  8  1  1  0  0  0  0 
 10  2  1  0  0  0  0 
 11  3  1  0  0  0  0 
 13  4  1  0  0  0  0 
M  END 
>  <HBA> 
1 
 
>  <HBD> 
0 
 
>  <TPSA> 
9.23 
 
>  <cid> 
68323 
 
>  <dipole> 
1.2 
 
>  <excitation_energy_1> 
6.344 
 
>  <excitation_energy_2> 
6.688 
 
>  <excitation_energy_3> 
6.828 
 
>  <excitation_energy_4> 
6.985 
 
>  <homo_energy> 
-6.634 
 
>  <homo_lumo_gap> 
9.238 
 
>  <logP> 
0.795 
 
>  <lumo_energy> 
2.604 
 
>  <melting_point> 
-11.61 
 
>  <molecular_refractivity> 
20.31 
 
>  <oscillator_strength_1> 
0.0169 
 
>  <oscillator_strength_2> 
0.0154 
 
>  <oscillator_strength_3> 
0.0226 
 
>  <oscillator_strength_4> 
0.0101 
 
>  <open_babel_can_smiles> 
COC1CC1 
 
>  <mulliken_charges> 
13 
1   -0.195424 
2   -0.330033 
3   -0.333343 
4   0.14338 
5   -0.460777 
6   0.156439 
7   0.129941 
8   0.134689 
9   0.167737 
10   0.151923 
11   0.148783 
12   0.159351 
13   0.127334 
 
>  <lowdin_charges> 
13 
1   -0.282173 
2   -0.316331 
3   -0.334198 
4   -0.03086 
5   -0.249668 
6   0.155615 
7   0.133626 
8   0.135765 
9   0.169077 
10   0.160398 
11   0.15833 
12   0.162591 
13   0.137828 
 
$$$$ 
 
