PCCDB-ID:  28029 
public computational chemistry database (PCCDB) project, http://pccdb.org 
 
 32 31  0  0  1  0  0  0  0  0999 V2000 
    0.9283    1.4834    1.9975 C   0  0  0  0  0  0  0  0  0  0  0  0 
   -0.4842    3.5221    2.4759 C   0  0  0  0  0  0  0  0  0  0  0  0 
    0.7873    2.1995    5.0323 C   0  0  0  0  0  0  0  0  0  0  0  0 
    5.4357    3.0442    4.6766 C   0  0  0  0  0  0  0  0  0  0  0  0 
    4.0434    5.0386    4.0839 C   0  0  0  0  0  0  0  0  0  0  0  0 
    3.6144    3.7896    6.2253 C   0  0  0  0  0  0  0  0  0  0  0  0 
    3.0603    2.6943    3.9723 C   0  0  0  0  0  0  0  0  0  0  0  0 
    0.9258    2.9162    2.5557 C   0  0  0  0  0  0  0  0  0  0  0  0 
    1.5428    3.0324    3.9806 C   0  0  1  0  0  0  0  0  0  0  0  0 
    4.0173    3.6460    4.7453 C   0  0  0  0  0  0  0  0  0  0  0  0 
    0.6013    1.4778    0.9510 H   0  0  0  0  0  0  0  0  0  0  0  0 
    0.2445    0.8326    2.5553 H   0  0  0  0  0  0  0  0  0  0  0  0 
    1.9253    1.0299    2.0346 H   0  0  0  0  0  0  0  0  0  0  0  0 
   -0.8380    3.5471    1.4382 H   0  0  0  0  0  0  0  0  0  0  0  0 
   -0.5003    4.5501    2.8588 H   0  0  0  0  0  0  0  0  0  0  0  0 
   -1.2118    2.9391    3.0530 H   0  0  0  0  0  0  0  0  0  0  0  0 
    1.2104    2.3512    6.0303 H   0  0  0  0  0  0  0  0  0  0  0  0 
    0.8518    1.1271    4.8129 H   0  0  0  0  0  0  0  0  0  0  0  0 
   -0.2740    2.4670    5.0826 H   0  0  0  0  0  0  0  0  0  0  0  0 
    6.1643    3.6933    5.1781 H   0  0  0  0  0  0  0  0  0  0  0  0 
    5.7629    2.9160    3.6372 H   0  0  0  0  0  0  0  0  0  0  0  0 
    5.4732    2.0614    5.1627 H   0  0  0  0  0  0  0  0  0  0  0  0 
    4.7488    5.7011    4.6007 H   0  0  0  0  0  0  0  0  0  0  0  0 
    3.0611    5.5243    4.1089 H   0  0  0  0  0  0  0  0  0  0  0  0 
    4.3572    4.9712    3.0346 H   0  0  0  0  0  0  0  0  0  0  0  0 
    4.3336    4.4224    6.7603 H   0  0  0  0  0  0  0  0  0  0  0  0 
    3.5920    2.8149    6.7281 H   0  0  0  0  0  0  0  0  0  0  0  0 
    2.6266    4.2504    6.3373 H   0  0  0  0  0  0  0  0  0  0  0  0 
    3.4185    2.6654    2.9334 H   0  0  0  0  0  0  0  0  0  0  0  0 
    3.2039    1.6760    4.3614 H   0  0  0  0  0  0  0  0  0  0  0  0 
    1.5713    3.5220    1.9013 H   0  0  0  0  0  0  0  0  0  0  0  0 
    1.4275    4.0889    4.2623 H   0  0  0  0  0  0  0  0  0  0  0  0 
  1 13  1  0  0  0  0 
  1 12  1  0  0  0  0 
  1  8  1  0  0  0  0 
  2  8  1  0  0  0  0 
  2 15  1  0  0  0  0 
  2 16  1  0  0  0  0 
  3 19  1  0  0  0  0 
  3 17  1  0  0  0  0 
  4 10  1  0  0  0  0 
  4 22  1  0  0  0  0 
  4 20  1  0  0  0  0 
  5 24  1  0  0  0  0 
  5 23  1  0  0  0  0 
  5 10  1  0  0  0  0 
  6 28  1  0  0  0  0 
  6 27  1  0  0  0  0 
  6 26  1  0  0  0  0 
  7  9  1  0  0  0  0 
  7 30  1  0  0  0  0 
  7 10  1  0  0  0  0 
  8  9  1  0  0  0  0 
  9 32  1  1  0  0  0 
  9  3  1  0  0  0  0 
 10  6  1  0  0  0  0 
 11  1  1  0  0  0  0 
 14  2  1  0  0  0  0 
 18  3  1  0  0  0  0 
 21  4  1  0  0  0  0 
 25  5  1  0  0  0  0 
 29  7  1  0  0  0  0 
 31  8  1  0  0  0  0 
M  END 
>  <HBA> 
0 
 
>  <HBD> 
0 
 
>  <TPSA> 
0.0 
 
>  <cid> 
28029 
 
>  <dipole> 
0.1 
 
>  <excitation_energy_1> 
7.318 
 
>  <excitation_energy_2> 
7.559 
 
>  <excitation_energy_3> 
7.691 
 
>  <excitation_energy_4> 
7.752 
 
>  <homo_energy> 
-7.842 
 
>  <homo_lumo_gap> 
9.807 
 
>  <logP> 
3.715 
 
>  <lumo_energy> 
1.965 
 
>  <melting_point> 
-10.53 
 
>  <molecular_refractivity> 
49.92 
 
>  <oscillator_strength_1> 
0.0066 
 
>  <oscillator_strength_2> 
0.0104 
 
>  <oscillator_strength_3> 
0.0347 
 
>  <oscillator_strength_4> 
0.0321 
 
>  <open_babel_can_smiles> 
CC([C@H](CC(C)(C)C)C)C 
 
>  <mulliken_charges> 
32 
1   -0.451444 
2   -0.449497 
3   -0.468114 
4   -0.441035 
5   -0.444545 
6   -0.444863 
7   -0.267714 
8   -0.076219 
9   -0.057329 
10   0.09537 
11   0.138887 
12   0.142262 
13   0.145111 
14   0.138886 
15   0.137302 
16   0.14212 
17   0.146865 
18   0.142717 
19   0.140999 
20   0.135998 
21   0.136496 
22   0.13691 
23   0.137194 
24   0.141614 
25   0.136241 
26   0.13586 
27   0.137684 
28   0.143909 
29   0.125305 
30   0.124487 
31   0.119438 
32   0.119104 
 
>  <lowdin_charges> 
32 
1   -0.449422 
2   -0.446744 
3   -0.447877 
4   -0.44174 
5   -0.444802 
6   -0.445658 
7   -0.276121 
8   -0.123618 
9   -0.127077 
10   0.016372 
11   0.147019 
12   0.147655 
13   0.148347 
14   0.14714 
15   0.144845 
16   0.147078 
17   0.150793 
18   0.144387 
19   0.145562 
20   0.14695 
21   0.144573 
22   0.145117 
23   0.148055 
24   0.146016 
25   0.144333 
26   0.147767 
27   0.145676 
28   0.147501 
29   0.138765 
30   0.138598 
31   0.136457 
32   0.134052 
 
$$$$ 
 
