PCCDB-ID:  69414 
public computational chemistry database (PCCDB) project, http://pccdb.org 
 
 27 26  0  0  0  0  0  0  0  0999 V2000 
    2.7019    1.7145   -1.1526 C   0  0  0  0  0  0  0  0  0  0  0  0 
    4.0445    1.0861   -0.7666 C   0  0  0  0  0  0  0  0  0  0  0  0 
    4.0043   -0.4469   -0.7222 C   0  0  0  0  0  0  0  0  0  0  0  0 
    5.3467   -1.0822   -0.3366 C   0  0  0  0  0  0  0  0  0  0  0  0 
    5.2967   -2.6166   -0.3222 C   0  0  0  0  0  0  0  0  0  0  0  0 
    6.5944   -3.3424    0.0789 C   0  0  0  0  0  0  0  0  0  0  0  0 
    6.9973   -3.2262    1.5597 C   0  0  0  0  0  0  0  0  0  0  0  0 
    7.8093   -2.0073    1.9867 C   0  0  0  0  0  0  0  0  0  0  0  0 
    8.3572   -1.1085    1.2799 N   0  0  0  0  0  0  0  0  0  0  0  0 
    7.9954   -1.9235    3.3386 O   0  0  0  0  0  0  0  0  0  0  0  0 
    2.7629    2.8086   -1.1715 H   0  0  0  0  0  0  0  0  0  0  0  0 
    1.9146    1.4375   -0.4403 H   0  0  0  0  0  0  0  0  0  0  0  0 
    2.3782    1.3820   -2.1468 H   0  0  0  0  0  0  0  0  0  0  0  0 
    4.3598    1.4677    0.2146 H   0  0  0  0  0  0  0  0  0  0  0  0 
    4.8177    1.4068   -1.4790 H   0  0  0  0  0  0  0  0  0  0  0  0 
    3.6861   -0.8301   -1.7036 H   0  0  0  0  0  0  0  0  0  0  0  0 
    3.2319   -0.7681   -0.0071 H   0  0  0  0  0  0  0  0  0  0  0  0 
    5.6605   -0.7008    0.6430 H   0  0  0  0  0  0  0  0  0  0  0  0 
    6.1174   -0.7524   -1.0496 H   0  0  0  0  0  0  0  0  0  0  0  0 
    5.0111   -2.9658   -1.3245 H   0  0  0  0  0  0  0  0  0  0  0  0 
    4.4895   -2.9465    0.3492 H   0  0  0  0  0  0  0  0  0  0  0  0 
    7.4271   -3.0154   -0.5599 H   0  0  0  0  0  0  0  0  0  0  0  0 
    6.4635   -4.4092   -0.1398 H   0  0  0  0  0  0  0  0  0  0  0  0 
    7.5932   -4.1067    1.8431 H   0  0  0  0  0  0  0  0  0  0  0  0 
    6.0904   -3.2688    2.1827 H   0  0  0  0  0  0  0  0  0  0  0  0 
    8.1598   -1.2668    0.2923 H   0  0  0  0  0  0  0  0  0  0  0  0 
    7.5229   -2.6498    3.7732 H   0  0  0  0  0  0  0  0  0  0  0  0 
  1  2  1  0  0  0  0 
  1 12  1  0  0  0  0 
  2  3  1  0  0  0  0 
  2 14  1  0  0  0  0 
  3  4  1  0  0  0  0 
  3 17  1  0  0  0  0 
  4  5  1  0  0  0  0 
  4 18  1  0  0  0  0 
  5  6  1  0  0  0  0 
  5 21  1  0  0  0  0 
  6  7  1  0  0  0  0 
  7 24  1  0  0  0  0 
  7  8  1  0  0  0  0 
  7 25  1  0  0  0  0 
  8 10  1  0  0  0  0 
  9  8  2  0  0  0  0 
 10 27  1  0  0  0  0 
 11  1  1  0  0  0  0 
 13  1  1  0  0  0  0 
 15  2  1  0  0  0  0 
 16  3  1  0  0  0  0 
 19  4  1  0  0  0  0 
 20  5  1  0  0  0  0 
 22  6  1  0  0  0  0 
 23  6  1  0  0  0  0 
 26  9  1  0  0  0  0 
M  END 
>  <HBA> 
2 
 
>  <HBD> 
1 
 
>  <TPSA> 
43.09 
 
>  <cid> 
69414 
 
>  <dipole> 
4.18 
 
>  <excitation_energy_1> 
6.193 
 
>  <excitation_energy_2> 
6.239 
 
>  <excitation_energy_3> 
6.342 
 
>  <excitation_energy_4> 
6.832 
 
>  <homo_energy> 
-7.07 
 
>  <homo_lumo_gap> 
7.919 
 
>  <logP> 
2.533 
 
>  <lumo_energy> 
0.849 
 
>  <melting_point> 
47.75 
 
>  <molecular_refractivity> 
43.48 
 
>  <oscillator_strength_1> 
0.0057 
 
>  <oscillator_strength_2> 
0.0043 
 
>  <oscillator_strength_3> 
0.0076 
 
>  <oscillator_strength_4> 
0.0171 
 
>  <open_babel_can_smiles> 
CCCCCCCC(=N)O 
 
>  <mulliken_charges> 
27 
1   -0.441905 
2   -0.248093 
3   -0.246999 
4   -0.26499 
5   -0.254585 
6   -0.275833 
7   -0.373578 
8   0.489925 
9   -0.590257 
10   -0.576196 
11   0.143507 
12   0.140346 
13   0.140196 
14   0.136747 
15   0.132313 
16   0.125503 
17   0.125596 
18   0.149383 
19   0.127068 
20   0.134951 
21   0.128822 
22   0.140802 
23   0.142008 
24   0.167516 
25   0.151185 
26   0.291659 
27   0.40491 
 
>  <lowdin_charges> 
27 
1   -0.44267 
2   -0.272624 
3   -0.274978 
4   -0.283568 
5   -0.274921 
6   -0.277373 
7   -0.320798 
8   0.126714 
9   -0.396319 
10   -0.371335 
11   0.148152 
12   0.146462 
13   0.145111 
14   0.141874 
15   0.14097 
16   0.136025 
17   0.13758 
18   0.148022 
19   0.138263 
20   0.143146 
21   0.138825 
22   0.145274 
23   0.150679 
24   0.164293 
25   0.153929 
26   0.255231 
27   0.354034 
 
$$$$ 
 
