PCCDB-ID:  34037 
public computational chemistry database (PCCDB) project, http://pccdb.org 
 
 15 15  0  0  0  0  0  0  0  0999 V2000 
   -0.6518    1.2851   -0.0111 C   0  0  0  0  0  0  0  0  0  0  0  0 
   -0.6431   -1.1197    0.0593 C   0  0  0  0  0  0  0  0  0  0  0  0 
    1.3660   -0.0192    0.0059 C   0  0  0  0  0  0  0  0  0  0  0  0 
   -1.3646    0.0790    0.0212 C   0  0  0  0  0  0  0  0  0  0  0  0 
    0.7412    1.2383   -0.0134 C   0  0  0  0  0  0  0  0  0  0  0  0 
   -2.8612    0.0139    0.0494 C   0  0  0  0  0  0  0  0  0  0  0  0 
    0.6933   -1.1687    0.0415 N   0  0  0  0  0  0  0  0  0  0  0  0 
    1.5426    2.3382   -0.0262 O   0  0  0  0  0  0  0  0  0  0  0  0 
   -3.4771   -0.9033    0.5337 O   0  0  0  0  0  0  0  0  0  0  0  0 
   -3.5244    1.0674   -0.5064 O   0  0  0  0  0  0  0  0  0  0  0  0 
   -1.1645    2.2462    0.0104 H   0  0  0  0  0  0  0  0  0  0  0  0 
   -1.1768   -2.0647    0.1002 H   0  0  0  0  0  0  0  0  0  0  0  0 
    2.4528   -0.0690    0.0016 H   0  0  0  0  0  0  0  0  0  0  0  0 
    0.9993    3.1419   -0.0124 H   0  0  0  0  0  0  0  0  0  0  0  0 
   -2.9084    1.6176   -1.0169 H   0  0  0  0  0  0  0  0  0  0  0  0 
  1 11  1  0  0  0  0 
  1  4  1  0  0  0  0 
  2 12  1  0  0  0  0 
  3  7  2  0  0  0  0 
  4  6  1  0  0  0  0 
  4  2  2  0  0  0  0 
  5  1  2  0  0  0  0 
  5  3  1  0  0  0  0 
  6  9  2  0  0  0  0 
  7  2  1  0  0  0  0 
  8  5  1  0  0  0  0 
  8 14  1  0  0  0  0 
 10  6  1  0  0  0  0 
 13  3  1  0  0  0  0 
 15 10  1  0  0  0  0 
M  END 
>  <HBA> 
4 
 
>  <HBD> 
2 
 
>  <TPSA> 
70.42 
 
>  <cid> 
34037 
 
>  <dipole> 
5.29 
 
>  <excitation_energy_1> 
4.25 
 
>  <excitation_energy_2> 
4.535 
 
>  <excitation_energy_3> 
4.832 
 
>  <excitation_energy_4> 
5.094 
 
>  <homo_energy> 
-6.95 
 
>  <homo_lumo_gap> 
5.151 
 
>  <logP> 
0.485 
 
>  <lumo_energy> 
-1.799 
 
>  <melting_point> 
151.12 
 
>  <molecular_refractivity> 
33.22 
 
>  <oscillator_strength_1> 
0.0046 
 
>  <oscillator_strength_2> 
0.0945 
 
>  <oscillator_strength_3> 
0.0047 
 
>  <oscillator_strength_4> 
0.002 
 
>  <open_babel_can_smiles> 
Oc1cncc(c1)C(=O)O 
 
>  <mulliken_charges> 
15 
1   -0.223836 
2   0.017953 
3   0.027348 
4   0.024641 
5   0.335319 
6   0.552048 
7   -0.406347 
8   -0.632355 
9   -0.432917 
10   -0.571259 
11   0.138502 
12   0.179923 
13   0.166785 
14   0.414179 
15   0.410017 
 
>  <lowdin_charges> 
15 
1   -0.199732 
2   -0.085047 
3   -0.096643 
4   -0.062667 
5   0.086979 
6   0.196976 
7   -0.123166 
8   -0.362909 
9   -0.226614 
10   -0.357568 
11   0.158707 
12   0.178936 
13   0.169851 
14   0.36363 
15   0.359266 
 
$$$$ 
 
