PCCDB-ID:  51079 
public computational chemistry database (PCCDB) project, http://pccdb.org 
 
 27 28  0  0  0  0  0  0  0  0999 V2000 
    3.1055   -0.1703    1.3378 C   0  0  0  0  0  0  0  0  0  0  0  0 
    6.9810   -2.9775   -4.7996 C   0  0  0  0  0  0  0  0  0  0  0  0 
    2.1399   -0.3404    0.1607 C   0  0  0  0  0  0  0  0  0  0  0  0 
    6.1409   -2.4419   -3.9118 C   0  0  0  0  0  0  0  0  0  0  0  0 
    2.7569   -5.3650   -1.2491 C   0  0  0  0  0  0  0  0  0  0  0  0 
    2.1224   -4.8566   -0.0973 C   0  0  0  0  0  0  0  0  0  0  0  0 
    3.3166   -4.5148   -2.1942 C   0  0  0  0  0  0  0  0  0  0  0  0 
    2.0333   -3.4884    0.1336 C   0  0  0  0  0  0  0  0  0  0  0  0 
    3.3057   -0.8682   -2.0109 C   0  0  0  0  0  0  0  0  0  0  0  0 
    3.2422   -3.1288   -1.9868 C   0  0  0  0  0  0  0  0  0  0  0  0 
    2.5945   -2.6330   -0.8226 C   0  0  0  0  0  0  0  0  0  0  0  0 
    3.6934   -1.9770   -2.7280 C   0  0  0  0  0  0  0  0  0  0  0  0 
    2.6358   -1.2457   -0.8681 N   0  0  0  0  0  0  0  0  0  0  0  0 
    4.4780   -1.9377   -4.3116 S   0  0  0  0  0  0  0  0  0  0  0  0 
    2.6759    0.5074    2.0842 H   0  0  0  0  0  0  0  0  0  0  0  0 
    4.0595    0.2486    1.0010 H   0  0  0  0  0  0  0  0  0  0  0  0 
    3.3080   -1.1308    1.8219 H   0  0  0  0  0  0  0  0  0  0  0  0 
    8.0072   -3.2017   -4.5231 H   0  0  0  0  0  0  0  0  0  0  0  0 
    6.6851   -3.1970   -5.8221 H   0  0  0  0  0  0  0  0  0  0  0  0 
    1.9472    0.6245   -0.3190 H   0  0  0  0  0  0  0  0  0  0  0  0 
    1.1725   -0.7200    0.5083 H   0  0  0  0  0  0  0  0  0  0  0  0 
    6.4417   -2.2332   -2.8875 H   0  0  0  0  0  0  0  0  0  0  0  0 
    2.8073   -6.4403   -1.3965 H   0  0  0  0  0  0  0  0  0  0  0  0 
    1.6969   -5.5465    0.6263 H   0  0  0  0  0  0  0  0  0  0  0  0 
    3.8062   -4.9066   -3.0811 H   0  0  0  0  0  0  0  0  0  0  0  0 
    1.5449   -3.1050    1.0251 H   0  0  0  0  0  0  0  0  0  0  0  0 
    3.4502    0.1784   -2.2433 H   0  0  0  0  0  0  0  0  0  0  0  0 
  1 17  1  0  0  0  0 
  1 15  1  0  0  0  0 
  2 18  1  0  0  0  0 
  2  4  2  0  0  0  0 
  3 21  1  0  0  0  0 
  3  1  1  0  0  0  0 
  4 22  1  0  0  0  0 
  5  6  2  0  0  0  0 
  6  8  1  0  0  0  0 
  6 24  1  0  0  0  0 
  7 10  2  0  0  0  0 
  7  5  1  0  0  0  0 
  8 26  1  0  0  0  0 
  9 13  1  0  0  0  0 
 10 11  1  0  0  0  0 
 11  8  2  0  0  0  0 
 12  9  2  0  0  0  0 
 12 10  1  0  0  0  0 
 13 11  1  0  0  0  0 
 13  3  1  0  0  0  0 
 14  4  1  0  0  0  0 
 14 12  1  0  0  0  0 
 16  1  1  0  0  0  0 
 19  2  1  0  0  0  0 
 20  3  1  0  0  0  0 
 23  5  1  0  0  0  0 
 25  7  1  0  0  0  0 
 27  9  1  0  0  0  0 
M  END 
>  <HBA> 
2 
 
>  <HBD> 
0 
 
>  <TPSA> 
30.23 
 
>  <cid> 
51079 
 
>  <dipole> 
3.57 
 
>  <excitation_energy_1> 
4.303 
 
>  <excitation_energy_2> 
4.695 
 
>  <excitation_energy_3> 
4.762 
 
>  <excitation_energy_4> 
4.882 
 
>  <homo_energy> 
-5.415 
 
>  <homo_lumo_gap> 
5.075 
 
>  <logP> 
3.897 
 
>  <lumo_energy> 
-0.34 
 
>  <melting_point> 
42.71 
 
>  <molecular_refractivity> 
64.06 
 
>  <oscillator_strength_1> 
0.0721 
 
>  <oscillator_strength_2> 
0.0375 
 
>  <oscillator_strength_3> 
0.0193 
 
>  <oscillator_strength_4> 
0.008 
 
>  <open_babel_can_smiles> 
C=CSc1cn(c2c1cccc2)CC 
 
>  <mulliken_charges> 
27 
1   -0.442501 
2   -0.331485 
3   -0.155867 
4   -0.236275 
5   -0.138369 
6   -0.150656 
7   -0.203411 
8   -0.16657 
9   0.033906 
10   0.104661 
11   0.310615 
12   -0.224437 
13   -0.491116 
14   0.137706 
15   0.15269 
16   0.160656 
17   0.167519 
18   0.147569 
19   0.150842 
20   0.161197 
21   0.164554 
22   0.167311 
23   0.12393 
24   0.124379 
25   0.145879 
26   0.125359 
27   0.161914 
 
>  <lowdin_charges> 
27 
1   -0.452557 
2   -0.352272 
3   -0.189533 
4   -0.26712 
5   -0.170209 
6   -0.163642 
7   -0.154698 
8   -0.191453 
9   -0.117352 
10   -0.028706 
11   0.027449 
12   -0.206706 
13   -0.022195 
14   0.195635 
15   0.158554 
16   0.157837 
17   0.160624 
18   0.163791 
19   0.162416 
20   0.158084 
21   0.156562 
22   0.168687 
23   0.154382 
24   0.157654 
25   0.167368 
26   0.157161 
27   0.170239 
 
$$$$ 
 
