PCCDB-ID:  54607 
public computational chemistry database (PCCDB) project, http://pccdb.org 
 
 39 39  0  0  1  0  0  0  0  0999 V2000 
    5.3843    3.0885    0.1355 C   0  0  0  0  0  0  0  0  0  0  0  0 
   -0.3640   -0.9535   -3.0673 C   0  0  0  0  0  0  0  0  0  0  0  0 
   -1.6200    0.3821   -4.6091 C   0  0  0  0  0  0  0  0  0  0  0  0 
    6.3408    1.2309   -5.8564 C   0  0  0  0  0  0  0  0  0  0  0  0 
    5.8726    2.5450   -5.7760 C   0  0  0  0  0  0  0  0  0  0  0  0 
    6.0390    0.3302   -4.8351 C   0  0  0  0  0  0  0  0  0  0  0  0 
    1.8041    1.2102   -3.2250 C   0  0  0  0  0  0  0  0  0  0  0  0 
    5.1062    2.9541   -4.6855 C   0  0  0  0  0  0  0  0  0  0  0  0 
    5.2735    0.7435   -3.7421 C   0  0  0  0  0  0  0  0  0  0  0  0 
    2.4260    2.5581   -2.8421 C   0  0  0  0  0  0  0  0  0  0  0  0 
    0.3057    1.3409   -3.5233 C   0  0  0  0  0  0  0  0  0  0  0  0 
    4.9286    4.0433   -0.9502 C   0  0  0  0  0  0  0  0  0  0  0  0 
    4.7932    2.0551   -3.6563 C   0  0  0  0  0  0  0  0  0  0  0  0 
    3.9292    2.4923   -2.4765 C   0  0  1  0  0  0  0  0  0  0  0  0 
    4.3305    3.8218   -2.0416 N   0  0  0  0  0  0  0  0  0  0  0  0 
   -0.3006    0.1177   -4.0520 N   0  0  0  0  0  0  0  0  0  0  0  0 
    5.2330    5.3561   -0.6892 O   0  0  0  0  0  0  0  0  0  0  0  0 
    4.9284    3.3582    1.0966 H   0  0  0  0  0  0  0  0  0  0  0  0 
    6.4736    3.1504    0.2529 H   0  0  0  0  0  0  0  0  0  0  0  0 
    5.1296    2.0514   -0.0829 H   0  0  0  0  0  0  0  0  0  0  0  0 
   -0.8086   -1.8435   -3.5258 H   0  0  0  0  0  0  0  0  0  0  0  0 
   -0.9707   -0.6902   -2.1762 H   0  0  0  0  0  0  0  0  0  0  0  0 
    0.6396   -1.2230   -2.7267 H   0  0  0  0  0  0  0  0  0  0  0  0 
   -2.0201   -0.5333   -5.0596 H   0  0  0  0  0  0  0  0  0  0  0  0 
   -1.5458    1.1420   -5.3946 H   0  0  0  0  0  0  0  0  0  0  0  0 
   -2.3531    0.7382   -3.8568 H   0  0  0  0  0  0  0  0  0  0  0  0 
    6.9393    0.9138   -6.7065 H   0  0  0  0  0  0  0  0  0  0  0  0 
    6.1109    3.2560   -6.5632 H   0  0  0  0  0  0  0  0  0  0  0  0 
    6.4014   -0.6936   -4.8845 H   0  0  0  0  0  0  0  0  0  0  0  0 
    1.9679    0.4949   -2.4072 H   0  0  0  0  0  0  0  0  0  0  0  0 
    2.3004    0.7958   -4.1100 H   0  0  0  0  0  0  0  0  0  0  0  0 
    4.7586    3.9800   -4.6112 H   0  0  0  0  0  0  0  0  0  0  0  0 
    5.0465    0.0365   -2.9465 H   0  0  0  0  0  0  0  0  0  0  0  0 
    1.8972    2.9788   -1.9757 H   0  0  0  0  0  0  0  0  0  0  0  0 
    2.3040    3.2810   -3.6587 H   0  0  0  0  0  0  0  0  0  0  0  0 
    0.1730    2.1218   -4.2829 H   0  0  0  0  0  0  0  0  0  0  0  0 
   -0.2255    1.6956   -2.6142 H   0  0  0  0  0  0  0  0  0  0  0  0 
    4.0378    1.7288   -1.6880 H   0  0  0  0  0  0  0  0  0  0  0  0 
    5.6929    5.4127    0.1622 H   0  0  0  0  0  0  0  0  0  0  0  0 
  1 19  1  0  0  0  0 
  1 18  1  0  0  0  0 
  2 23  1  0  0  0  0 
  2 22  1  0  0  0  0 
  3 16  1  0  0  0  0 
  3 26  1  0  0  0  0 
  4  5  2  0  0  0  0 
  4  6  1  0  0  0  0 
  5  8  1  0  0  0  0 
  6  9  2  0  0  0  0 
  7 10  1  0  0  0  0 
  7 30  1  0  0  0  0 
  8 32  1  0  0  0  0 
  8 13  2  0  0  0  0 
  9 13  1  0  0  0  0 
  9 33  1  0  0  0  0 
 10 14  1  0  0  0  0 
 10 34  1  0  0  0  0 
 11  7  1  0  0  0  0 
 11 37  1  0  0  0  0 
 12 17  1  0  0  0  0 
 12  1  1  0  0  0  0 
 13 14  1  0  0  0  0 
 14 15  1  0  0  0  0 
 14 38  1  1  0  0  0 
 15 12  2  0  0  0  0 
 16 11  1  0  0  0  0 
 16  2  1  0  0  0  0 
 17 39  1  0  0  0  0 
 20  1  1  0  0  0  0 
 21  2  1  0  0  0  0 
 24  3  1  0  0  0  0 
 25  3  1  0  0  0  0 
 27  4  1  0  0  0  0 
 28  5  1  0  0  0  0 
 29  6  1  0  0  0  0 
 31  7  1  0  0  0  0 
 35 10  1  0  0  0  0 
 36 11  1  0  0  0  0 
M  END 
>  <HBA> 
3 
 
>  <HBD> 
1 
 
>  <TPSA> 
32.34 
 
>  <cid> 
54607 
 
>  <dipole> 
3.53 
 
>  <excitation_energy_1> 
5.042 
 
>  <excitation_energy_2> 
5.126 
 
>  <excitation_energy_3> 
5.159 
 
>  <excitation_energy_4> 
5.285 
 
>  <homo_energy> 
-5.554 
 
>  <homo_lumo_gap> 
5.744 
 
>  <logP> 
2.596 
 
>  <lumo_energy> 
0.19 
 
>  <melting_point> 
53.71 
 
>  <molecular_refractivity> 
70.95 
 
>  <oscillator_strength_1> 
0.0028 
 
>  <oscillator_strength_2> 
0.0005 
 
>  <oscillator_strength_3> 
0.001 
 
>  <oscillator_strength_4> 
0.0016 
 
>  <open_babel_can_smiles> 
CN(CCC[C@@H](c1ccccc1)/N=C(/O)\C)C 
 
>  <mulliken_charges> 
39 
1   -0.55693 
2   -0.29878 
3   -0.292155 
4   -0.12957 
5   -0.13208 
6   -0.12916 
7   -0.275469 
8   -0.170932 
9   -0.189024 
10   -0.243822 
11   -0.106168 
12   0.490743 
13   0.173046 
14   -0.087368 
15   -0.405408 
16   -0.366909 
17   -0.579276 
18   0.171339 
19   0.176632 
20   0.184583 
21   0.146018 
22   0.11207 
23   0.151953 
24   0.145212 
25   0.14831 
26   0.113868 
27   0.125009 
28   0.127156 
29   0.124614 
30   0.123967 
31   0.159989 
32   0.151593 
33   0.11616 
34   0.13231 
35   0.145832 
36   0.134814 
37   0.102279 
38   0.103097 
39   0.402455 
 
>  <lowdin_charges> 
39 
1   -0.480315 
2   -0.358614 
3   -0.357773 
4   -0.161666 
5   -0.157046 
6   -0.157222 
7   -0.287099 
8   -0.155892 
9   -0.174229 
10   -0.274201 
11   -0.199148 
12   0.13185 
13   -0.00517 
14   -0.058177 
15   -0.194259 
16   -0.182846 
17   -0.373771 
18   0.166987 
19   0.1684 
20   0.172038 
21   0.149829 
22   0.117343 
23   0.149574 
24   0.148501 
25   0.149621 
26   0.11906 
27   0.156046 
28   0.157125 
29   0.154159 
30   0.135972 
31   0.156532 
32   0.167614 
33   0.151241 
34   0.144231 
35   0.150099 
36   0.144401 
37   0.112372 
38   0.12268 
39   0.351753 
 
$$$$ 
 
