PCCDB-ID:  42614 
public computational chemistry database (PCCDB) project, http://pccdb.org 
 
 24 23  0  0  0  0  0  0  0  0999 V2000 
    3.4302    0.0022   -2.7194 C   0  0  0  0  0  0  0  0  0  0  0  0 
    1.4336    3.0819    6.0032 C   0  0  0  0  0  0  0  0  0  0  0  0 
    2.9555   -0.1517   -1.2737 C   0  0  0  0  0  0  0  0  0  0  0  0 
    0.2719    0.4614    2.4179 C   0  0  0  0  0  0  0  0  0  0  0  0 
    1.2842    1.2750    3.0353 C   0  0  0  0  0  0  0  0  0  0  0  0 
    2.6529    1.3494    2.3842 C   0  0  0  0  0  0  0  0  0  0  0  0 
    1.9369    1.4477    0.1359 C   0  0  0  0  0  0  0  0  0  0  0  0 
   -0.5223   -0.2383    1.9389 N   0  0  0  0  0  0  0  0  0  0  0  0 
    1.9271    0.8349   -0.9742 N   0  0  0  0  0  0  0  0  0  0  0  0 
    2.9000    1.3473    1.1388 N   0  0  0  0  0  0  0  0  0  0  0  0 
    0.9147    1.8061    4.1548 N   0  0  0  0  0  0  0  0  0  0  0  0 
    3.6972    1.3231    3.2328 O   0  0  0  0  0  0  0  0  0  0  0  0 
    0.9818    2.3901    0.4063 O   0  0  0  0  0  0  0  0  0  0  0  0 
    1.9174    2.5353    4.7627 O   0  0  0  0  0  0  0  0  0  0  0  0 
    4.1634   -0.7737   -2.9686 H   0  0  0  0  0  0  0  0  0  0  0  0 
    3.9010    0.9797   -2.8715 H   0  0  0  0  0  0  0  0  0  0  0  0 
    2.5873   -0.0792   -3.4138 H   0  0  0  0  0  0  0  0  0  0  0  0 
    1.1544    2.2784    6.6899 H   0  0  0  0  0  0  0  0  0  0  0  0 
    0.5775    3.7328    5.8111 H   0  0  0  0  0  0  0  0  0  0  0  0 
    2.2702    3.6570    6.4021 H   0  0  0  0  0  0  0  0  0  0  0  0 
    3.8057   -0.0825   -0.5798 H   0  0  0  0  0  0  0  0  0  0  0  0 
    2.5167   -1.1513   -1.1427 H   0  0  0  0  0  0  0  0  0  0  0  0 
    3.3917    1.5753    4.1245 H   0  0  0  0  0  0  0  0  0  0  0  0 
    0.3827    2.3684   -0.3629 H   0  0  0  0  0  0  0  0  0  0  0  0 
  1  3  1  0  0  0  0 
  2 20  1  0  0  0  0 
  2 18  1  0  0  0  0 
  3 22  1  0  0  0  0 
  3  9  1  0  0  0  0 
  3 21  1  0  0  0  0 
  4  5  1  0  0  0  0 
  5 11  2  0  0  0  0 
  6  5  1  0  0  0  0 
  6 12  1  0  0  0  0 
  7 13  1  0  0  0  0 
  7 10  1  0  0  0  0 
  8  4  3  0  0  0  0 
  9  7  2  0  0  0  0 
 10  6  2  0  0  0  0 
 11 14  1  0  0  0  0 
 12 23  1  0  0  0  0 
 14  2  1  0  0  0  0 
 15  1  1  0  0  0  0 
 16  1  1  0  0  0  0 
 17  1  1  0  0  0  0 
 19  2  1  0  0  0  0 
 24 13  1  0  0  0  0 
M  END 
>  <HBA> 
7 
 
>  <HBD> 
2 
 
>  <TPSA> 
103.58 
 
>  <cid> 
42614 
 
>  <dipole> 
5.73 
 
>  <excitation_energy_1> 
3.031 
 
>  <excitation_energy_2> 
3.427 
 
>  <excitation_energy_3> 
4.231 
 
>  <excitation_energy_4> 
4.844 
 
>  <homo_energy> 
-6.572 
 
>  <homo_lumo_gap> 
3.78 
 
>  <logP> 
0.14 
 
>  <lumo_energy> 
-2.792 
 
>  <melting_point> 
125.41 
 
>  <molecular_refractivity> 
46.67 
 
>  <oscillator_strength_1> 
0.0199 
 
>  <oscillator_strength_2> 
0.0003 
 
>  <oscillator_strength_3> 
0.018 
 
>  <oscillator_strength_4> 
0.1054 
 
>  <open_babel_can_smiles> 
CC/N=C(\N=C(/C(=N\OC)/C#N)\O)/O 
 
>  <mulliken_charges> 
24 
1   -0.435409 
2   -0.201347 
3   -0.146704 
4   0.35926 
5   0.238476 
6   0.528846 
7   0.608295 
8   -0.465603 
9   -0.452703 
10   -0.449515 
11   -0.146917 
12   -0.577126 
13   -0.605165 
14   -0.393514 
15   0.136062 
16   0.147591 
17   0.152429 
18   0.179455 
19   0.186264 
20   0.182838 
21   0.150616 
22   0.146336 
23   0.440247 
24   0.417291 
 
>  <lowdin_charges> 
24 
1   -0.447096 
2   -0.278696 
3   -0.196626 
4   -0.001507 
5   -0.004609 
6   0.151944 
7   0.146085 
8   -0.074831 
9   -0.230974 
10   -0.15094 
11   0.008823 
12   -0.33187 
13   -0.38224 
14   -0.179258 
15   0.148665 
16   0.150012 
17   0.153828 
18   0.163942 
19   0.168099 
20   0.171683 
21   0.141627 
22   0.14569 
23   0.361426 
24   0.366823 
 
$$$$ 
 
