PCCDB-ID:  31625 
public computational chemistry database (PCCDB) project, http://pccdb.org 
 
 27 29  0  0  0  0  0  0  0  0999 V2000 
   -3.5816   -0.7445   -0.0056 C   0  0  0  0  0  0  0  0  0  0  0  0 
    3.5914   -0.7126   -0.0128 C   0  0  0  0  0  0  0  0  0  0  0  0 
   -2.3764   -1.3869    0.0128 C   0  0  0  0  0  0  0  0  0  0  0  0 
    2.3921   -1.3658    0.0080 C   0  0  0  0  0  0  0  0  0  0  0  0 
   -0.0050    1.4879   -0.0666 C   0  0  0  0  0  0  0  0  0  0  0  0 
   -2.4907    1.4254   -0.0555 C   0  0  0  0  0  0  0  0  0  0  0  0 
    2.4812    1.4475   -0.0602 C   0  0  0  0  0  0  0  0  0  0  0  0 
   -1.2173    0.7883   -0.0474 C   0  0  0  0  0  0  0  0  0  0  0  0 
    1.2135    0.7991   -0.0497 C   0  0  0  0  0  0  0  0  0  0  0  0 
   -3.6570    0.6889   -0.0380 C   0  0  0  0  0  0  0  0  0  0  0  0 
    3.6540    0.7213   -0.0451 C   0  0  0  0  0  0  0  0  0  0  0  0 
   -1.1481   -0.6547   -0.0074 C   0  0  0  0  0  0  0  0  0  0  0  0 
    1.1572   -0.6445   -0.0097 C   0  0  0  0  0  0  0  0  0  0  0  0 
   -4.9171    1.2859   -0.1127 N   0  0  0  0  0  0  0  0  0  0  0  0 
    4.9086    1.3297   -0.1220 N   0  0  0  0  0  0  0  0  0  0  0  0 
    0.0076   -1.3366    0.0113 N   0  0  0  0  0  0  0  0  0  0  0  0 
   -4.5079   -1.3151   -0.0047 H   0  0  0  0  0  0  0  0  0  0  0  0 
    4.5227   -1.2750   -0.0138 H   0  0  0  0  0  0  0  0  0  0  0  0 
   -2.3121   -2.4703    0.0408 H   0  0  0  0  0  0  0  0  0  0  0  0 
    2.3374   -2.4496    0.0359 H   0  0  0  0  0  0  0  0  0  0  0  0 
   -0.0098    2.5761   -0.0967 H   0  0  0  0  0  0  0  0  0  0  0  0 
   -2.5322    2.5129   -0.0821 H   0  0  0  0  0  0  0  0  0  0  0  0 
    2.5130    2.5353   -0.0867 H   0  0  0  0  0  0  0  0  0  0  0  0 
   -5.6659    0.7622    0.3235 H   0  0  0  0  0  0  0  0  0  0  0  0 
   -4.9439    2.2627    0.1530 H   0  0  0  0  0  0  0  0  0  0  0  0 
    5.6630    0.8122    0.3120 H   0  0  0  0  0  0  0  0  0  0  0  0 
    4.9274    2.3065    0.1443 H   0  0  0  0  0  0  0  0  0  0  0  0 
  1 17  1  0  0  0  0 
  1  3  1  0  0  0  0 
  2  4  2  0  0  0  0 
  3 19  1  0  0  0  0 
  4 20  1  0  0  0  0 
  5  9  2  0  0  0  0 
  5  8  1  0  0  0  0 
  6  8  2  0  0  0  0 
  6 10  1  0  0  0  0 
  7  9  1  0  0  0  0 
  7 11  2  0  0  0  0 
  8 12  1  0  0  0  0 
  9 13  1  0  0  0  0 
 10  1  2  0  0  0  0 
 11  2  1  0  0  0  0 
 12 16  1  0  0  0  0 
 12  3  2  0  0  0  0 
 13  4  1  0  0  0  0 
 13 16  2  0  0  0  0 
 14 10  1  0  0  0  0 
 14 25  1  0  0  0  0 
 14 24  1  0  0  0  0 
 15 11  1  0  0  0  0 
 15 27  1  0  0  0  0 
 15 26  1  0  0  0  0 
 18  2  1  0  0  0  0 
 21  5  1  0  0  0  0 
 22  6  1  0  0  0  0 
 23  7  1  0  0  0  0 
M  END 
>  <HBA> 
3 
 
>  <HBD> 
2 
 
>  <TPSA> 
64.93 
 
>  <cid> 
31625 
 
>  <dipole> 
3.34 
 
>  <excitation_energy_1> 
3.005 
 
>  <excitation_energy_2> 
3.39 
 
>  <excitation_energy_3> 
3.938 
 
>  <excitation_energy_4> 
4.252 
 
>  <homo_energy> 
-4.928 
 
>  <homo_lumo_gap> 
3.418 
 
>  <logP> 
3.715 
 
>  <lumo_energy> 
-1.51 
 
>  <melting_point> 
208.81 
 
>  <molecular_refractivity> 
68.06 
 
>  <oscillator_strength_1> 
0.027 
 
>  <oscillator_strength_2> 
0.1764 
 
>  <oscillator_strength_3> 
0.0006 
 
>  <oscillator_strength_4> 
0.1751 
 
>  <open_babel_can_smiles> 
Nc1ccc2c(c1)cc1c(n2)ccc(c1)N 
 
>  <mulliken_charges> 
27 
1   -0.169859 
2   -0.16985 
3   -0.151849 
4   -0.15187 
5   -0.254003 
6   -0.263962 
7   -0.263973 
8   0.168441 
9   0.168432 
10   0.313705 
11   0.313708 
12   0.244278 
13   0.24429 
14   -0.789088 
15   -0.789081 
16   -0.609419 
17   0.123531 
18   0.123514 
19   0.141201 
20   0.141208 
21   0.122363 
22   0.111491 
23   0.11151 
24   0.321099 
25   0.32154 
26   0.321098 
27   0.321545 
 
>  <lowdin_charges> 
27 
1   -0.182423 
2   -0.182367 
3   -0.139432 
4   -0.139437 
5   -0.156219 
6   -0.221494 
7   -0.221473 
8   -0.00482 
9   -0.004834 
10   0.059635 
11   0.059583 
12   0.026906 
13   0.026915 
14   -0.483264 
15   -0.483186 
16   -0.154158 
17   0.156454 
18   0.156401 
19   0.166787 
20   0.166778 
21   0.152189 
22   0.148481 
23   0.148479 
24   0.277528 
25   0.274735 
26   0.277497 
27   0.274741 
 
$$$$ 
 
