PCCDB-ID:  67322 
public computational chemistry database (PCCDB) project, http://pccdb.org 
 
 40 39  0  0  0  0  0  0  0  0999 V2000 
    1.4796   -0.5201   -0.1744 C   0  0  0  0  0  0  0  0  0  0  0  0 
    0.3955   -1.0693    0.7678 C   0  0  0  0  0  0  0  0  0  0  0  0 
    3.4740   -1.8342    0.3971 C   0  0  0  0  0  0  0  0  0  0  0  0 
    3.6743    0.5671   -0.0463 C   0  0  0  0  0  0  0  0  0  0  0  0 
   -1.7694   -2.1803    0.3255 C   0  0  0  0  0  0  0  0  0  0  0  0 
   -1.6077    0.2879    0.3572 C   0  0  0  0  0  0  0  0  0  0  0  0 
    4.3499   -2.0802    1.6318 C   0  0  0  0  0  0  0  0  0  0  0  0 
    3.3915    1.8525    0.7375 C   0  0  0  0  0  0  0  0  0  0  0  0 
   -2.9242   -2.2494   -0.6821 C   0  0  0  0  0  0  0  0  0  0  0  0 
   -2.2603    0.5180    1.7344 C   0  0  0  0  0  0  0  0  0  0  0  0 
    2.8132   -0.5238    0.4408 N   0  0  0  0  0  0  0  0  0  0  0  0 
   -0.9310   -0.9950    0.1504 N   0  0  0  0  0  0  0  0  0  0  0  0 
    5.0777   -3.2974    1.5366 O   0  0  0  0  0  0  0  0  0  0  0  0 
    3.5063    1.6183    2.1278 O   0  0  0  0  0  0  0  0  0  0  0  0 
   -3.6593   -3.4594   -0.5474 O   0  0  0  0  0  0  0  0  0  0  0  0 
   -2.8524    1.8099    1.8128 O   0  0  0  0  0  0  0  0  0  0  0  0 
    1.2265    0.5140   -0.4300 H   0  0  0  0  0  0  0  0  0  0  0  0 
    1.4592   -1.0877   -1.1204 H   0  0  0  0  0  0  0  0  0  0  0  0 
    0.4549   -0.5259    1.7252 H   0  0  0  0  0  0  0  0  0  0  0  0 
    0.6130   -2.1172    1.0019 H   0  0  0  0  0  0  0  0  0  0  0  0 
    2.7024   -2.6137    0.3602 H   0  0  0  0  0  0  0  0  0  0  0  0 
    4.0881   -1.9591   -0.5108 H   0  0  0  0  0  0  0  0  0  0  0  0 
    4.7163    0.2845    0.1319 H   0  0  0  0  0  0  0  0  0  0  0  0 
    3.5607    0.7320   -1.1323 H   0  0  0  0  0  0  0  0  0  0  0  0 
   -1.1312   -3.0578    0.1542 H   0  0  0  0  0  0  0  0  0  0  0  0 
   -2.1866   -2.2948    1.3423 H   0  0  0  0  0  0  0  0  0  0  0  0 
   -0.8709    1.0845    0.1867 H   0  0  0  0  0  0  0  0  0  0  0  0 
   -2.3784    0.4288   -0.4093 H   0  0  0  0  0  0  0  0  0  0  0  0 
    3.7214   -2.0455    2.5356 H   0  0  0  0  0  0  0  0  0  0  0  0 
    5.1014   -1.2912    1.7333 H   0  0  0  0  0  0  0  0  0  0  0  0 
    2.3922    2.2454    0.4788 H   0  0  0  0  0  0  0  0  0  0  0  0 
    4.1209    2.6244    0.4684 H   0  0  0  0  0  0  0  0  0  0  0  0 
   -2.5262   -2.1157   -1.6999 H   0  0  0  0  0  0  0  0  0  0  0  0 
   -3.6525   -1.4523   -0.5058 H   0  0  0  0  0  0  0  0  0  0  0  0 
   -1.5325    0.3584    2.5455 H   0  0  0  0  0  0  0  0  0  0  0  0 
   -3.0817   -0.1868    1.8944 H   0  0  0  0  0  0  0  0  0  0  0  0 
    4.4412   -4.0276    1.5797 H   0  0  0  0  0  0  0  0  0  0  0  0 
    3.0671    0.7561    2.2564 H   0  0  0  0  0  0  0  0  0  0  0  0 
   -3.0782   -4.1882   -0.8150 H   0  0  0  0  0  0  0  0  0  0  0  0 
   -2.1371    2.4642    1.7801 H   0  0  0  0  0  0  0  0  0  0  0  0 
  1 11  1  0  0  0  0 
  1  2  1  0  0  0  0 
  2 20  1  0  0  0  0 
  2 19  1  0  0  0  0 
  3 11  1  0  0  0  0 
  3  7  1  0  0  0  0 
  4 23  1  0  0  0  0 
  4 11  1  0  0  0  0 
  4  8  1  0  0  0  0 
  5 26  1  0  0  0  0 
  6 10  1  0  0  0  0 
  7 30  1  0  0  0  0 
  7 29  1  0  0  0  0 
  8 14  1  0  0  0  0 
  9 15  1  0  0  0  0 
  9 34  1  0  0  0  0 
  9  5  1  0  0  0  0 
 10 16  1  0  0  0  0 
 10 36  1  0  0  0  0 
 10 35  1  0  0  0  0 
 12  5  1  0  0  0  0 
 12  6  1  0  0  0  0 
 12  2  1  0  0  0  0 
 13 37  1  0  0  0  0 
 13  7  1  0  0  0  0 
 14 38  1  0  0  0  0 
 17  1  1  0  0  0  0 
 18  1  1  0  0  0  0 
 21  3  1  0  0  0  0 
 22  3  1  0  0  0  0 
 24  4  1  0  0  0  0 
 25  5  1  0  0  0  0 
 27  6  1  0  0  0  0 
 28  6  1  0  0  0  0 
 31  8  1  0  0  0  0 
 32  8  1  0  0  0  0 
 33  9  1  0  0  0  0 
 39 15  1  0  0  0  0 
 40 16  1  0  0  0  0 
M  END 
>  <HBA> 
6 
 
>  <HBD> 
4 
 
>  <TPSA> 
87.4 
 
>  <cid> 
67322 
 
>  <dipole> 
2.72 
 
>  <excitation_energy_1> 
4.892 
 
>  <excitation_energy_2> 
5.046 
 
>  <excitation_energy_3> 
5.278 
 
>  <excitation_energy_4> 
5.407 
 
>  <homo_energy> 
-5.782 
 
>  <homo_lumo_gap> 
7.276 
 
>  <logP> 
-2.44 
 
>  <lumo_energy> 
1.494 
 
>  <melting_point> 
50.52 
 
>  <molecular_refractivity> 
60.62 
 
>  <oscillator_strength_1> 
0.0029 
 
>  <oscillator_strength_2> 
0.0007 
 
>  <oscillator_strength_3> 
0.0128 
 
>  <oscillator_strength_4> 
0.0115 
 
>  <open_babel_can_smiles> 
OCCN(CCO)CCN(CCO)CCO 
 
>  <mulliken_charges> 
40 
1   -0.125152 
2   -0.13192 
3   -0.150461 
4   -0.160904 
5   -0.140044 
6   -0.169631 
7   -0.038658 
8   -0.017827 
9   -0.04381 
10   -0.045836 
11   -0.421728 
12   -0.39744 
13   -0.610137 
14   -0.626544 
15   -0.612649 
16   -0.611026 
17   0.144722 
18   0.131641 
19   0.130203 
20   0.13373 
21   0.126858 
22   0.141233 
23   0.156328 
24   0.126385 
25   0.122315 
26   0.134144 
27   0.126625 
28   0.159646 
29   0.124753 
30   0.161291 
31   0.110744 
32   0.143694 
33   0.132305 
34   0.155887 
35   0.127243 
36   0.155541 
37   0.388298 
38   0.392498 
39   0.387902 
40   0.389782 
 
>  <lowdin_charges> 
40 
1   -0.207432 
2   -0.20418 
3   -0.221038 
4   -0.217878 
5   -0.218931 
6   -0.227605 
7   -0.146579 
8   -0.140222 
9   -0.142604 
10   -0.154271 
11   -0.192968 
12   -0.190546 
13   -0.463393 
14   -0.47542 
15   -0.463258 
16   -0.463888 
17   0.145622 
18   0.131768 
19   0.128793 
20   0.141368 
21   0.139442 
22   0.136081 
23   0.152335 
24   0.130741 
25   0.137898 
26   0.126506 
27   0.139924 
28   0.152115 
29   0.128585 
30   0.152848 
31   0.117852 
32   0.148987 
33   0.131087 
34   0.150897 
35   0.128744 
36   0.150893 
37   0.342435 
38   0.330238 
39   0.342215 
40   0.34284 
 
$$$$ 
 
