PCCDB-ID:  16657 
public computational chemistry database (PCCDB) project, http://pccdb.org 
 
 21 20  0  0  0  0  0  0  0  0999 V2000 
    1.5515   -0.9370    1.0231 C   0  0  0  0  0  0  0  0  0  0  0  0 
    3.1731    0.5641    2.1634 C   0  0  0  0  0  0  0  0  0  0  0  0 
    4.8708   -2.0765   -0.1074 C   0  0  0  0  0  0  0  0  0  0  0  0 
    5.5513   -0.2084   -1.6722 C   0  0  0  0  0  0  0  0  0  0  0  0 
    3.4120    0.0074   -0.3404 C   0  0  0  0  0  0  0  0  0  0  0  0 
    2.6489   -0.1752    0.9551 C   0  0  0  0  0  0  0  0  0  0  0  0 
    4.8531   -0.5615   -0.3511 C   0  0  0  0  0  0  0  0  0  0  0  0 
    0.9959   -1.0606    1.9499 H   0  0  0  0  0  0  0  0  0  0  0  0 
    1.1655   -1.4626    0.1530 H   0  0  0  0  0  0  0  0  0  0  0  0 
    2.5356    0.4078    3.0390 H   0  0  0  0  0  0  0  0  0  0  0  0 
    3.2284    1.6443    1.9693 H   0  0  0  0  0  0  0  0  0  0  0  0 
    4.1895    0.2430    2.4261 H   0  0  0  0  0  0  0  0  0  0  0  0 
    5.8980   -2.4590   -0.0843 H   0  0  0  0  0  0  0  0  0  0  0  0 
    4.3369   -2.6050   -0.9084 H   0  0  0  0  0  0  0  0  0  0  0  0 
    4.3873   -2.3398    0.8391 H   0  0  0  0  0  0  0  0  0  0  0  0 
    6.5830   -0.5793   -1.6862 H   0  0  0  0  0  0  0  0  0  0  0  0 
    5.5816    0.8759   -1.8332 H   0  0  0  0  0  0  0  0  0  0  0  0 
    5.0258   -0.6575   -2.5252 H   0  0  0  0  0  0  0  0  0  0  0  0 
    3.4709    1.0834   -0.5677 H   0  0  0  0  0  0  0  0  0  0  0  0 
    2.8486   -0.4542   -1.1627 H   0  0  0  0  0  0  0  0  0  0  0  0 
    5.4170   -0.0788    0.4606 H   0  0  0  0  0  0  0  0  0  0  0  0 
  1  8  1  0  0  0  0 
  2 12  1  0  0  0  0 
  2 10  1  0  0  0  0 
  3 13  1  0  0  0  0 
  3 15  1  0  0  0  0 
  4  7  1  0  0  0  0 
  5  6  1  0  0  0  0 
  6  1  2  0  0  0  0 
  6  2  1  0  0  0  0 
  7  5  1  0  0  0  0 
  7  3  1  0  0  0  0 
  7 21  1  0  0  0  0 
  9  1  1  0  0  0  0 
 11  2  1  0  0  0  0 
 14  3  1  0  0  0  0 
 16  4  1  0  0  0  0 
 17  4  1  0  0  0  0 
 18  4  1  0  0  0  0 
 19  5  1  0  0  0  0 
 20  5  1  0  0  0  0 
M  END 
>  <HBA> 
0 
 
>  <HBD> 
0 
 
>  <TPSA> 
0.0 
 
>  <cid> 
16657 
 
>  <dipole> 
0.51 
 
>  <excitation_energy_1> 
6.08 
 
>  <excitation_energy_2> 
6.408 
 
>  <excitation_energy_3> 
6.616 
 
>  <excitation_energy_4> 
6.652 
 
>  <homo_energy> 
-6.498 
 
>  <homo_lumo_gap> 
7.279 
 
>  <logP> 
2.609 
 
>  <lumo_energy> 
0.781 
 
>  <melting_point> 
-44.41 
 
>  <molecular_refractivity> 
35.29 
 
>  <oscillator_strength_1> 
0.0139 
 
>  <oscillator_strength_2> 
0.1815 
 
>  <oscillator_strength_3> 
0.0254 
 
>  <oscillator_strength_4> 
0.005 
 
>  <open_babel_can_smiles> 
CC(CC(=C)C)C 
 
>  <mulliken_charges> 
21 
1   -0.402079 
2   -0.51473 
3   -0.440751 
4   -0.440005 
5   -0.319362 
6   0.238581 
7   -0.073578 
8   0.129053 
9   0.13077 
10   0.152136 
11   0.151058 
12   0.157007 
13   0.137502 
14   0.136491 
15   0.151485 
16   0.140817 
17   0.138762 
18   0.139219 
19   0.132101 
20   0.131914 
21   0.123611 
 
>  <lowdin_charges> 
21 
1   -0.367468 
2   -0.440457 
3   -0.447621 
4   -0.441607 
5   -0.273089 
6   0.009848 
7   -0.121143 
8   0.152469 
9   0.153702 
10   0.156757 
11   0.152855 
12   0.154998 
13   0.146096 
14   0.146089 
15   0.153965 
16   0.147427 
17   0.144973 
18   0.146333 
19   0.143427 
20   0.14606 
21   0.136387 
 
$$$$ 
 
