PCCDB-ID:  33590 
public computational chemistry database (PCCDB) project, http://pccdb.org 
 
 23 23  0  0  0  0  0  0  0  0999 V2000 
    1.8883   -0.4171    1.3072 C   0  0  0  0  0  0  0  0  0  0  0  0 
    4.1750   -1.2267   -3.3442 C   0  0  0  0  0  0  0  0  0  0  0  0 
    2.4879    0.0489   -0.0198 C   0  0  0  0  0  0  0  0  0  0  0  0 
    3.6883   -0.3411   -2.1967 C   0  0  0  0  0  0  0  0  0  0  0  0 
    3.2340   -3.6369    0.0104 C   0  0  0  0  0  0  0  0  0  0  0  0 
    2.3788   -3.7448   -1.2478 C   0  0  0  0  0  0  0  0  0  0  0  0 
    3.0184   -1.0402   -0.9867 C   0  0  0  0  0  0  0  0  0  0  0  0 
    4.2830   -2.1443   -0.1561 S   0  0  0  0  0  0  0  0  0  0  0  0 
    1.5817   -2.1181   -1.5210 S   0  0  0  0  0  0  0  0  0  0  0  0 
    1.5866    0.4509    1.9043 H   0  0  0  0  0  0  0  0  0  0  0  0 
    2.6182   -0.9884    1.8900 H   0  0  0  0  0  0  0  0  0  0  0  0 
    1.0047   -1.0424    1.1480 H   0  0  0  0  0  0  0  0  0  0  0  0 
    4.6032   -0.6040   -4.1379 H   0  0  0  0  0  0  0  0  0  0  0  0 
    3.3491   -1.8008   -3.7765 H   0  0  0  0  0  0  0  0  0  0  0  0 
    4.9470   -1.9259   -3.0094 H   0  0  0  0  0  0  0  0  0  0  0  0 
    3.3226    0.7343    0.1816 H   0  0  0  0  0  0  0  0  0  0  0  0 
    1.7399    0.6369   -0.5709 H   0  0  0  0  0  0  0  0  0  0  0  0 
    2.9662    0.3898   -2.5858 H   0  0  0  0  0  0  0  0  0  0  0  0 
    4.5320    0.2463   -1.8066 H   0  0  0  0  0  0  0  0  0  0  0  0 
    3.9062   -4.4959    0.1128 H   0  0  0  0  0  0  0  0  0  0  0  0 
    2.6073   -3.5681    0.9041 H   0  0  0  0  0  0  0  0  0  0  0  0 
    1.5777   -4.4820   -1.1255 H   0  0  0  0  0  0  0  0  0  0  0  0 
    2.9887   -4.0232   -2.1120 H   0  0  0  0  0  0  0  0  0  0  0  0 
  1 11  1  0  0  0  0 
  1 10  1  0  0  0  0 
  2 15  1  0  0  0  0 
  2  4  1  0  0  0  0 
  3 16  1  0  0  0  0 
  3  1  1  0  0  0  0 
  4 19  1  0  0  0  0 
  4  7  1  0  0  0  0 
  5 20  1  0  0  0  0 
  5 21  1  0  0  0  0 
  6 22  1  0  0  0  0 
  6  5  1  0  0  0  0 
  7  8  1  0  0  0  0 
  7  3  1  0  0  0  0 
  8  5  1  0  0  0  0 
  9  6  1  0  0  0  0 
  9  7  1  0  0  0  0 
 12  1  1  0  0  0  0 
 13  2  1  0  0  0  0 
 14  2  1  0  0  0  0 
 17  3  1  0  0  0  0 
 18  4  1  0  0  0  0 
 23  6  1  0  0  0  0 
M  END 
>  <HBA> 
2 
 
>  <HBD> 
0 
 
>  <TPSA> 
50.6 
 
>  <cid> 
33590 
 
>  <dipole> 
0.79 
 
>  <excitation_energy_1> 
4.718 
 
>  <excitation_energy_2> 
4.757 
 
>  <excitation_energy_3> 
5.653 
 
>  <excitation_energy_4> 
5.689 
 
>  <homo_energy> 
-6.09 
 
>  <homo_lumo_gap> 
6.123 
 
>  <logP> 
2.983 
 
>  <lumo_energy> 
0.033 
 
>  <melting_point> 
24.31 
 
>  <molecular_refractivity> 
48.87 
 
>  <oscillator_strength_1> 
0.0013 
 
>  <oscillator_strength_2> 
0.0008 
 
>  <oscillator_strength_3> 
0.0348 
 
>  <oscillator_strength_4> 
0.0031 
 
>  <open_babel_can_smiles> 
CCC1(CC)SCCS1 
 
>  <mulliken_charges> 
23 
1   -0.453074 
2   -0.452921 
3   -0.240245 
4   -0.240749 
5   -0.414674 
6   -0.414058 
7   -0.24651 
8   0.100762 
9   0.10023 
10   0.141123 
11   0.162449 
12   0.164281 
13   0.14104 
14   0.16286 
15   0.164141 
16   0.146629 
17   0.146614 
18   0.146617 
19   0.146786 
20   0.181085 
21   0.188345 
22   0.180979 
23   0.188292 
 
>  <lowdin_charges> 
23 
1   -0.454668 
2   -0.455315 
3   -0.278337 
4   -0.278401 
5   -0.374902 
6   -0.375436 
7   -0.172924 
8   0.089445 
9   0.089377 
10   0.152139 
11   0.158427 
12   0.157636 
13   0.152481 
14   0.158285 
15   0.158158 
16   0.150227 
17   0.150443 
18   0.150709 
19   0.150084 
20   0.172169 
21   0.163892 
22   0.17222 
23   0.164293 
 
$$$$ 
 
