PCCDB-ID:  43677 
public computational chemistry database (PCCDB) project, http://pccdb.org 
 
 23 22  0  0  1  0  0  0  0  0999 V2000 
    2.9633   -1.4804   -3.1959 C   0  0  0  0  0  0  0  0  0  0  0  0 
    1.3251   -3.2096    2.3025 C   0  0  0  0  0  0  0  0  0  0  0  0 
    1.7368   -1.5861   -0.9370 C   0  0  0  0  0  0  0  0  0  0  0  0 
    1.9213   -3.9889   -0.1194 C   0  0  0  0  0  0  0  0  0  0  0  0 
    1.6213   -1.6062   -2.4786 C   0  0  1  0  0  0  0  0  0  0  0  0 
    0.9757   -4.0559    1.0960 C   0  0  0  0  0  0  0  0  0  0  0  0 
    3.8073   -2.5564   -0.0120 N   0  0  0  0  0  0  0  0  0  0  0  0 
    2.5152   -2.6900   -0.3760 N   0  0  0  0  0  0  0  0  0  0  0  0 
    0.7053   -0.5890   -2.8745 O   0  0  0  0  0  0  0  0  0  0  0  0 
    0.0256   -4.8101    1.0664 O   0  0  0  0  0  0  0  0  0  0  0  0 
    4.3022   -1.4548   -0.2177 O   0  0  0  0  0  0  0  0  0  0  0  0 
    3.6414   -2.2961   -2.9267 H   0  0  0  0  0  0  0  0  0  0  0  0 
    3.4612   -0.5398   -2.9296 H   0  0  0  0  0  0  0  0  0  0  0  0 
    2.8059   -1.5003   -4.2789 H   0  0  0  0  0  0  0  0  0  0  0  0 
    1.1502   -2.1475    2.0890 H   0  0  0  0  0  0  0  0  0  0  0  0 
    2.3871   -3.3075    2.5565 H   0  0  0  0  0  0  0  0  0  0  0  0 
    0.7025   -3.5103    3.1470 H   0  0  0  0  0  0  0  0  0  0  0  0 
    0.7269   -1.6232   -0.5161 H   0  0  0  0  0  0  0  0  0  0  0  0 
    2.2254   -0.6618   -0.6144 H   0  0  0  0  0  0  0  0  0  0  0  0 
    1.3742   -4.3477   -0.9962 H   0  0  0  0  0  0  0  0  0  0  0  0 
    2.7532   -4.6780    0.0719 H   0  0  0  0  0  0  0  0  0  0  0  0 
    1.1363   -2.5430   -2.7793 H   0  0  0  0  0  0  0  0  0  0  0  0 
    1.1654    0.2631   -2.7996 H   0  0  0  0  0  0  0  0  0  0  0  0 
  1 13  1  0  0  0  0 
  1 12  1  0  0  0  0 
  1  5  1  0  0  0  0 
  2 16  1  0  0  0  0 
  2 17  1  0  0  0  0 
  3 19  1  0  0  0  0 
  3 18  1  0  0  0  0 
  3  8  1  0  0  0  0 
  4 21  1  0  0  0  0 
  4  6  1  0  0  0  0 
  5 22  1  6  0  0  0 
  5  3  1  0  0  0  0 
  6  2  1  0  0  0  0 
  8  4  1  0  0  0  0 
  8  7  1  0  0  0  0 
  9 23  1  0  0  0  0 
  9  5  1  0  0  0  0 
 10  6  2  0  0  0  0 
 11  7  2  0  0  0  0 
 14  1  1  0  0  0  0 
 15  2  1  0  0  0  0 
 20  4  1  0  0  0  0 
M  END 
>  <HBA> 
5 
 
>  <HBD> 
1 
 
>  <TPSA> 
69.97 
 
>  <cid> 
43677 
 
>  <dipole> 
0.91 
 
>  <excitation_energy_1> 
3.345 
 
>  <excitation_energy_2> 
4.222 
 
>  <excitation_energy_3> 
4.815 
 
>  <excitation_energy_4> 
5.032 
 
>  <homo_energy> 
-6.509 
 
>  <homo_lumo_gap> 
5.159 
 
>  <logP> 
-0.06 
 
>  <lumo_energy> 
-1.35 
 
>  <melting_point> 
35.13 
 
>  <molecular_refractivity> 
39.95 
 
>  <oscillator_strength_1> 
0.0009 
 
>  <oscillator_strength_2> 
0.0026 
 
>  <oscillator_strength_3> 
0.011 
 
>  <oscillator_strength_4> 
0.0549 
 
>  <open_babel_can_smiles> 
O=NN(CC(=O)C)C[C@@H](O)C 
 
>  <mulliken_charges> 
23 
1   -0.463479 
2   -0.53743 
3   -0.176388 
4   -0.228445 
5   0.13534 
6   0.450426 
7   0.156172 
8   -0.232182 
9   -0.61298 
10   -0.422894 
11   -0.371708 
12   0.16108 
13   0.151876 
14   0.161867 
15   0.18247 
16   0.18484 
17   0.188217 
18   0.17052 
19   0.177009 
20   0.188396 
21   0.20379 
22   0.143819 
23   0.389684 
 
>  <lowdin_charges> 
23 
1   -0.461305 
2   -0.47473 
3   -0.24157 
4   -0.238036 
5   -0.001629 
6   0.153335 
7   0.052061 
8   -0.04526 
9   -0.453465 
10   -0.217352 
11   -0.262006 
12   0.163754 
13   0.154261 
14   0.158534 
15   0.176607 
16   0.176108 
17   0.179105 
18   0.162913 
19   0.1688 
20   0.173707 
21   0.188404 
22   0.144597 
23   0.343165 
 
$$$$ 
 
