PCCDB-ID:  31955 
public computational chemistry database (PCCDB) project, http://pccdb.org 
 
 30 30  0  0  0  0  0  0  0  0999 V2000 
    2.7225    0.1606    4.3725 C   0  0  0  0  0  0  0  0  0  0  0  0 
    4.1246    3.5899    1.9564 C   0  0  0  0  0  0  0  0  0  0  0  0 
    3.4644   -0.4214    0.6338 C   0  0  0  0  0  0  0  0  0  0  0  0 
    3.0433   -0.7285    3.6200 C   0  0  0  0  0  0  0  0  0  0  0  0 
    7.7634   -2.2977    1.7602 C   0  0  0  0  0  0  0  0  0  0  0  0 
    8.3916   -1.0620    1.9314 C   0  0  0  0  0  0  0  0  0  0  0  0 
    6.3800   -2.3561    1.6176 C   0  0  0  0  0  0  0  0  0  0  0  0 
    7.6249    0.0983    1.9875 C   0  0  0  0  0  0  0  0  0  0  0  0 
    3.4114   -1.7969    2.6701 C   0  0  0  0  0  0  0  0  0  0  0  0 
    5.5797   -1.2027    1.6800 C   0  0  0  0  0  0  0  0  0  0  0  0 
    6.2351    0.0218    1.8968 C   0  0  0  0  0  0  0  0  0  0  0  0 
    5.4116    1.9624    3.0553 C   0  0  0  0  0  0  0  0  0  0  0  0 
    4.8046    3.0680    3.1325 N   0  0  0  0  0  0  0  0  0  0  0  0 
    4.1745   -1.3584    1.4987 N   0  0  0  0  0  0  0  0  0  0  0  0 
    6.0702    1.4328    4.1086 O   0  0  0  0  0  0  0  0  0  0  0  0 
    5.4758    1.1950    1.9341 O   0  0  0  0  0  0  0  0  0  0  0  0 
    2.4514    0.9485    5.0381 H   0  0  0  0  0  0  0  0  0  0  0  0 
    3.9069    4.6497    2.1194 H   0  0  0  0  0  0  0  0  0  0  0  0 
    3.1691    3.0745    1.7880 H   0  0  0  0  0  0  0  0  0  0  0  0 
    4.7199    3.4940    1.0384 H   0  0  0  0  0  0  0  0  0  0  0  0 
    2.5581   -0.9144    0.2581 H   0  0  0  0  0  0  0  0  0  0  0  0 
    4.0966   -0.1766   -0.2234 H   0  0  0  0  0  0  0  0  0  0  0  0 
    3.1726    0.5129    1.1299 H   0  0  0  0  0  0  0  0  0  0  0  0 
    8.3524   -3.2088    1.7042 H   0  0  0  0  0  0  0  0  0  0  0  0 
    9.4726   -0.9993    2.0173 H   0  0  0  0  0  0  0  0  0  0  0  0 
    5.8817   -3.3023    1.4267 H   0  0  0  0  0  0  0  0  0  0  0  0 
    8.0892    1.0694    2.1251 H   0  0  0  0  0  0  0  0  0  0  0  0 
    2.4929   -2.2851    2.3144 H   0  0  0  0  0  0  0  0  0  0  0  0 
    3.9938   -2.5647    3.1913 H   0  0  0  0  0  0  0  0  0  0  0  0 
    5.9225    2.0660    4.8329 H   0  0  0  0  0  0  0  0  0  0  0  0 
  1 17  1  0  0  0  0 
  2 18  1  0  0  0  0 
  2 13  1  0  0  0  0 
  3 23  1  0  0  0  0 
  3 14  1  0  0  0  0 
  4  1  3  0  0  0  0 
  5  6  2  0  0  0  0 
  6  8  1  0  0  0  0 
  6 25  1  0  0  0  0 
  7 10  2  0  0  0  0 
  7  5  1  0  0  0  0 
  8 27  1  0  0  0  0 
  9 29  1  0  0  0  0 
  9  4  1  0  0  0  0 
 10 11  1  0  0  0  0 
 11 16  1  0  0  0  0 
 11  8  2  0  0  0  0 
 12 13  2  0  0  0  0 
 12 15  1  0  0  0  0 
 14 10  1  0  0  0  0 
 14  9  1  0  0  0  0 
 15 30  1  0  0  0  0 
 16 12  1  0  0  0  0 
 19  2  1  0  0  0  0 
 20  2  1  0  0  0  0 
 21  3  1  0  0  0  0 
 22  3  1  0  0  0  0 
 24  5  1  0  0  0  0 
 26  7  1  0  0  0  0 
 28  9  1  0  0  0  0 
M  END 
>  <HBA> 
4 
 
>  <HBD> 
1 
 
>  <TPSA> 
41.57 
 
>  <cid> 
31955 
 
>  <dipole> 
0.91 
 
>  <excitation_energy_1> 
4.543 
 
>  <excitation_energy_2> 
4.685 
 
>  <excitation_energy_3> 
5.209 
 
>  <excitation_energy_4> 
5.436 
 
>  <homo_energy> 
-5.698 
 
>  <homo_lumo_gap> 
5.54 
 
>  <logP> 
1.865 
 
>  <lumo_energy> 
-0.158 
 
>  <melting_point> 
93.03 
 
>  <molecular_refractivity> 
63.11 
 
>  <oscillator_strength_1> 
0.0372 
 
>  <oscillator_strength_2> 
0.054 
 
>  <oscillator_strength_3> 
0.004 
 
>  <oscillator_strength_4> 
0.0222 
 
>  <open_babel_can_smiles> 
C#CCN(c1ccccc1O/C(=N\C)/O)C 
 
>  <mulliken_charges> 
30 
1   -0.480852 
2   -0.320777 
3   -0.305644 
4   0.338973 
5   -0.129475 
6   -0.140535 
7   -0.165124 
8   -0.145678 
9   -0.292238 
10   0.24373 
11   0.330804 
12   0.732053 
13   -0.495086 
14   -0.456872 
15   -0.592821 
16   -0.547203 
17   0.190729 
18   0.15136 
19   0.154379 
20   0.147097 
21   0.142871 
22   0.159059 
23   0.162926 
24   0.131829 
25   0.134141 
26   0.135667 
27   0.142381 
28   0.172735 
29   0.179626 
30   0.421946 
 
>  <lowdin_charges> 
30 
1   -0.250647 
2   -0.352452 
3   -0.355729 
4   -0.056726 
5   -0.160306 
6   -0.15305 
7   -0.162133 
8   -0.163306 
9   -0.182158 
10   0.028725 
11   0.085044 
12   0.195598 
13   -0.269876 
14   -0.152134 
15   -0.35552 
16   -0.155506 
17   0.206423 
18   0.149202 
19   0.147432 
20   0.143316 
21   0.146655 
22   0.159824 
23   0.144623 
24   0.160503 
25   0.158913 
26   0.163777 
27   0.168153 
28   0.165122 
29   0.173553 
30   0.372679 
 
$$$$ 
 
