PCCDB-ID:  61917 
public computational chemistry database (PCCDB) project, http://pccdb.org 
 
 22 21  0  0  1  0  0  0  0  0999 V2000 
    2.9775    0.8818   -1.1759 C   0  0  0  0  0  0  0  0  0  0  0  0 
    2.5341   -0.8695    2.3089 C   0  0  0  0  0  0  0  0  0  0  0  0 
    5.4952    0.3701    2.4698 C   0  0  0  0  0  0  0  0  0  0  0  0 
    2.5603   -0.1476   -0.1186 C   0  0  0  0  0  0  0  0  0  0  0  0 
    5.1291   -1.6753    1.0461 C   0  0  0  0  0  0  0  0  0  0  0  0 
    3.2352    0.0140    1.2626 C   0  0  2  0  0  0  0  0  0  0  0  0 
    4.7834   -0.2110    1.2438 C   0  0  1  0  0  0  0  0  0  0  0  0 
    5.8238   -2.3308    1.7933 O   0  0  0  0  0  0  0  0  0  0  0  0 
    2.4040    0.7428   -2.0991 H   0  0  0  0  0  0  0  0  0  0  0  0 
    4.0383    0.8062   -1.4402 H   0  0  0  0  0  0  0  0  0  0  0  0 
    2.7964    1.9047   -0.8234 H   0  0  0  0  0  0  0  0  0  0  0  0 
    1.4784   -0.5904    2.4012 H   0  0  0  0  0  0  0  0  0  0  0  0 
    2.9900   -0.7737    3.2995 H   0  0  0  0  0  0  0  0  0  0  0  0 
    2.5708   -1.9300    2.0294 H   0  0  0  0  0  0  0  0  0  0  0  0 
    6.5778    0.2339    2.3906 H   0  0  0  0  0  0  0  0  0  0  0  0 
    5.1778   -0.1235    3.3929 H   0  0  0  0  0  0  0  0  0  0  0  0 
    5.2872    1.4418    2.5609 H   0  0  0  0  0  0  0  0  0  0  0  0 
    2.7275   -1.1628   -0.5041 H   0  0  0  0  0  0  0  0  0  0  0  0 
    1.4753   -0.0679    0.0336 H   0  0  0  0  0  0  0  0  0  0  0  0 
    4.7010   -2.1466    0.1323 H   0  0  0  0  0  0  0  0  0  0  0  0 
    3.0950    1.0629    1.5645 H   0  0  0  0  0  0  0  0  0  0  0  0 
    5.1667    0.2990    0.3455 H   0  0  0  0  0  0  0  0  0  0  0  0 
  1 11  1  0  0  0  0 
  1  4  1  0  0  0  0 
  2 12  1  0  0  0  0 
  2 13  1  0  0  0  0 
  3 17  1  0  0  0  0 
  3 16  1  0  0  0  0 
  4 19  1  0  0  0  0 
  4  6  1  0  0  0  0 
  5  7  1  0  0  0  0 
  5  8  2  0  0  0  0 
  6 21  1  1  0  0  0 
  6  2  1  0  0  0  0 
  7 22  1  6  0  0  0 
  7  6  1  0  0  0  0 
  7  3  1  0  0  0  0 
  9  1  1  0  0  0  0 
 10  1  1  0  0  0  0 
 14  2  1  0  0  0  0 
 15  3  1  0  0  0  0 
 18  4  1  0  0  0  0 
 20  5  1  0  0  0  0 
M  END 
>  <HBA> 
1 
 
>  <HBD> 
0 
 
>  <TPSA> 
17.07 
 
>  <cid> 
61917 
 
>  <dipole> 
2.8 
 
>  <excitation_energy_1> 
4.195 
 
>  <excitation_energy_2> 
6.279 
 
>  <excitation_energy_3> 
6.692 
 
>  <excitation_energy_4> 
6.72 
 
>  <homo_energy> 
-6.686 
 
>  <homo_lumo_gap> 
6.153 
 
>  <logP> 
1.867 
 
>  <lumo_energy> 
-0.533 
 
>  <melting_point> 
4.5 
 
>  <molecular_refractivity> 
35.96 
 
>  <oscillator_strength_1> 
0.0001 
 
>  <oscillator_strength_2> 
0.0113 
 
>  <oscillator_strength_3> 
0.0091 
 
>  <oscillator_strength_4> 
0.0005 
 
>  <open_babel_can_smiles> 
CC[C@H]([C@H](C=O)C)C 
 
>  <mulliken_charges> 
22 
1   -0.451553 
2   -0.460143 
3   -0.447473 
4   -0.259794 
5   0.250301 
6   -0.078385 
7   -0.165933 
8   -0.390917 
9   0.148792 
10   0.145654 
11   0.145855 
12   0.146244 
13   0.15553 
14   0.149425 
15   0.158697 
16   0.161149 
17   0.13897 
18   0.135351 
19   0.137309 
20   0.103455 
21   0.129381 
22   0.148086 
 
>  <lowdin_charges> 
22 
1   -0.445766 
2   -0.445624 
3   -0.439479 
4   -0.275727 
5   0.052184 
6   -0.119397 
7   -0.165726 
8   -0.220771 
9   0.154055 
10   0.144446 
11   0.147638 
12   0.150684 
13   0.154447 
14   0.148876 
15   0.158502 
16   0.157627 
17   0.14728 
18   0.138824 
19   0.14408 
20   0.115434 
21   0.13994 
22   0.158473 
 
$$$$ 
 
