PCCDB-ID:  69236 
public computational chemistry database (PCCDB) project, http://pccdb.org 
 
 19 18  0  0  1  0  0  0  0  0999 V2000 
    3.4514    0.9673   -3.1565 C   0  0  0  0  0  0  0  0  0  0  0  0 
    4.8976   -0.2832    1.9758 C   0  0  0  0  0  0  0  0  0  0  0  0 
    2.8794    0.6831   -1.7761 C   0  0  0  0  0  0  0  0  0  0  0  0 
    5.6317    0.0227    0.6504 C   0  0  2  0  0  0  0  0  0  0  0  0 
    4.6702   -0.2377   -0.5037 C   0  0  0  0  0  0  0  0  0  0  0  0 
    6.8390   -0.7657    0.4100 N   0  0  0  0  0  0  0  0  0  0  0  0 
    4.5817   -1.2987   -1.0865 O   0  0  0  0  0  0  0  0  0  0  0  0 
    3.8894    0.8337   -0.7468 O   0  0  0  0  0  0  0  0  0  0  0  0 
    2.6526    0.9205   -3.9057 H   0  0  0  0  0  0  0  0  0  0  0  0 
    4.2118    0.2263   -3.4177 H   0  0  0  0  0  0  0  0  0  0  0  0 
    3.9004    1.9651   -3.1940 H   0  0  0  0  0  0  0  0  0  0  0  0 
    4.0167    0.3560    2.1041 H   0  0  0  0  0  0  0  0  0  0  0  0 
    5.5707   -0.1077    2.8230 H   0  0  0  0  0  0  0  0  0  0  0  0 
    4.5765   -1.3309    2.0025 H   0  0  0  0  0  0  0  0  0  0  0  0 
    2.4667   -0.3271   -1.7184 H   0  0  0  0  0  0  0  0  0  0  0  0 
    2.1078    1.4074   -1.5036 H   0  0  0  0  0  0  0  0  0  0  0  0 
    5.8930    1.0871    0.6365 H   0  0  0  0  0  0  0  0  0  0  0  0 
    6.5611   -1.7080    0.1385 H   0  0  0  0  0  0  0  0  0  0  0  0 
    7.3792   -0.8418    1.2698 H   0  0  0  0  0  0  0  0  0  0  0  0 
  1  3  1  0  0  0  0 
  2 14  1  0  0  0  0 
  2 12  1  0  0  0  0 
  2 13  1  0  0  0  0 
  3 15  1  0  0  0  0 
  3 16  1  0  0  0  0 
  3  8  1  0  0  0  0 
  4 17  1  6  0  0  0 
  4  2  1  0  0  0  0 
  5  4  1  0  0  0  0 
  6  4  1  0  0  0  0 
  6 19  1  0  0  0  0 
  7  5  2  0  0  0  0 
  8  5  1  0  0  0  0 
  9  1  1  0  0  0  0 
 10  1  1  0  0  0  0 
 11  1  1  0  0  0  0 
 18  6  1  0  0  0  0 
M  END 
>  <HBA> 
3 
 
>  <HBD> 
1 
 
>  <TPSA> 
52.32 
 
>  <cid> 
69236 
 
>  <dipole> 
1.98 
 
>  <excitation_energy_1> 
5.544 
 
>  <excitation_energy_2> 
5.862 
 
>  <excitation_energy_3> 
5.914 
 
>  <excitation_energy_4> 
6.569 
 
>  <homo_energy> 
-6.357 
 
>  <homo_lumo_gap> 
6.694 
 
>  <logP> 
0.597 
 
>  <lumo_energy> 
0.337 
 
>  <melting_point> 
40.79 
 
>  <molecular_refractivity> 
30.14 
 
>  <oscillator_strength_1> 
0.013 
 
>  <oscillator_strength_2> 
0.0107 
 
>  <oscillator_strength_3> 
0.0202 
 
>  <oscillator_strength_4> 
0.0028 
 
>  <open_babel_can_smiles> 
CCOC(=O)[C@H](N)C 
 
>  <mulliken_charges> 
19 
1   -0.461924 
2   -0.461926 
3   -0.047457 
4   -0.041714 
5   0.636544 
6   -0.715085 
7   -0.488388 
8   -0.461308 
9   0.150163 
10   0.180751 
11   0.159247 
12   0.157252 
13   0.149014 
14   0.155667 
15   0.169905 
16   0.15317 
17   0.158397 
18   0.313687 
19   0.294004 
 
>  <lowdin_charges> 
19 
1   -0.455442 
2   -0.45674 
3   -0.127616 
4   -0.084938 
5   0.199704 
6   -0.546417 
7   -0.271748 
8   -0.188834 
9   0.159417 
10   0.168589 
11   0.156707 
12   0.158134 
13   0.152933 
14   0.15329 
15   0.15763 
16   0.15348 
17   0.154238 
18   0.263438 
19   0.254174 
 
$$$$ 
 
