PCCDB-ID:  71704 
public computational chemistry database (PCCDB) project, http://pccdb.org 
 
 28 28  0  0  0  0  0  0  0  0999 V2000 
    0.8742   -0.2428    2.0322 C   0  0  0  0  0  0  0  0  0  0  0  0 
    5.3977    1.7434    2.1274 C   0  0  0  0  0  0  0  0  0  0  0  0 
    5.5388    0.2376    1.8586 C   0  0  0  0  0  0  0  0  0  0  0  0 
    3.9298    2.1328    2.3567 C   0  0  0  0  0  0  0  0  0  0  0  0 
    4.6165   -0.2272    0.7162 C   0  0  0  0  0  0  0  0  0  0  0  0 
    3.0536    1.6963    1.1736 C   0  0  0  0  0  0  0  0  0  0  0  0 
    2.8601   -1.6938    2.5847 C   0  0  0  0  0  0  0  0  0  0  0  0 
    2.3320   -0.6477    1.9187 C   0  0  0  0  0  0  0  0  0  0  0  0 
    3.1347    0.1676    0.9036 C   0  0  0  0  0  0  0  0  0  0  0  0 
    2.1816   -2.6440    3.5115 C   0  0  0  0  0  0  0  0  0  0  0  0 
    2.4521   -3.8212    3.5453 O   0  0  0  0  0  0  0  0  0  0  0  0 
    1.2397   -2.1435    4.3666 O   0  0  0  0  0  0  0  0  0  0  0  0 
    0.2435   -1.0447    2.4212 H   0  0  0  0  0  0  0  0  0  0  0  0 
    0.4842    0.0398    1.0476 H   0  0  0  0  0  0  0  0  0  0  0  0 
    0.7425    0.6385    2.6756 H   0  0  0  0  0  0  0  0  0  0  0  0 
    5.7852    2.3063    1.2650 H   0  0  0  0  0  0  0  0  0  0  0  0 
    6.0105    2.0326    2.9903 H   0  0  0  0  0  0  0  0  0  0  0  0 
    5.3073   -0.3110    2.7799 H   0  0  0  0  0  0  0  0  0  0  0  0 
    6.5788   -0.0058    1.6071 H   0  0  0  0  0  0  0  0  0  0  0  0 
    3.8411    3.2167    2.5025 H   0  0  0  0  0  0  0  0  0  0  0  0 
    3.5662    1.6624    3.2821 H   0  0  0  0  0  0  0  0  0  0  0  0 
    4.7109   -1.3078    0.5561 H   0  0  0  0  0  0  0  0  0  0  0  0 
    4.9583    0.2442   -0.2157 H   0  0  0  0  0  0  0  0  0  0  0  0 
    3.4012    2.2124    0.2678 H   0  0  0  0  0  0  0  0  0  0  0  0 
    2.0156    2.0134    1.3226 H   0  0  0  0  0  0  0  0  0  0  0  0 
    3.8813   -1.9994    2.3887 H   0  0  0  0  0  0  0  0  0  0  0  0 
    2.6249   -0.0073   -0.0579 H   0  0  0  0  0  0  0  0  0  0  0  0 
    1.2454   -1.1743    4.3180 H   0  0  0  0  0  0  0  0  0  0  0  0 
  1 13  1  0  0  0  0 
  1 15  1  0  0  0  0 
  2  4  1  0  0  0  0 
  2 17  1  0  0  0  0 
  3  2  1  0  0  0  0 
  3 18  1  0  0  0  0 
  4 20  1  0  0  0  0 
  4 21  1  0  0  0  0 
  5  9  1  0  0  0  0 
  5  3  1  0  0  0  0 
  6 25  1  0  0  0  0 
  6  4  1  0  0  0  0 
  7 10  1  0  0  0  0 
  8  1  1  0  0  0  0 
  8  7  2  0  0  0  0 
  9  6  1  0  0  0  0 
  9  8  1  0  0  0  0 
 10 11  2  0  0  0  0 
 10 12  1  0  0  0  0 
 14  1  1  0  0  0  0 
 16  2  1  0  0  0  0 
 19  3  1  0  0  0  0 
 22  5  1  0  0  0  0 
 23  5  1  0  0  0  0 
 24  6  1  0  0  0  0 
 26  7  1  0  0  0  0 
 27  9  1  0  0  0  0 
 28 12  1  0  0  0  0 
M  END 
>  <HBA> 
2 
 
>  <HBD> 
1 
 
>  <TPSA> 
37.3 
 
>  <cid> 
71704 
 
>  <dipole> 
5.42 
 
>  <excitation_energy_1> 
4.828 
 
>  <excitation_energy_2> 
5.809 
 
>  <excitation_energy_3> 
6.126 
 
>  <excitation_energy_4> 
6.331 
 
>  <homo_energy> 
-6.963 
 
>  <homo_lumo_gap> 
5.992 
 
>  <logP> 
2.598 
 
>  <lumo_energy> 
-0.971 
 
>  <melting_point> 
83.73 
 
>  <molecular_refractivity> 
49.37 
 
>  <oscillator_strength_1> 
0.0193 
 
>  <oscillator_strength_2> 
0.291 
 
>  <oscillator_strength_3> 
0.0248 
 
>  <oscillator_strength_4> 
0.0047 
 
>  <open_babel_can_smiles> 
C/C(=C\C(=O)O)/C1CCCCC1 
 
>  <mulliken_charges> 
28 
1   -0.569169 
2   -0.256388 
3   -0.262768 
4   -0.256783 
5   -0.281078 
6   -0.275228 
7   -0.281122 
8   0.191445 
9   -0.149141 
10   0.564084 
11   -0.44448 
12   -0.573507 
13   0.182997 
14   0.171814 
15   0.165955 
16   0.129052 
17   0.134851 
18   0.139648 
19   0.13688 
20   0.135672 
21   0.128021 
22   0.146415 
23   0.13422 
24   0.137048 
25   0.135838 
26   0.163382 
27   0.141719 
28   0.410625 
 
>  <lowdin_charges> 
28 
1   -0.465004 
2   -0.278746 
3   -0.281189 
4   -0.277903 
5   -0.280885 
6   -0.278399 
7   -0.241514 
8   0.021225 
9   -0.129521 
10   0.187872 
11   -0.238537 
12   -0.360118 
13   0.170553 
14   0.166629 
15   0.16121 
16   0.13857 
17   0.146448 
18   0.142924 
19   0.145998 
20   0.144518 
21   0.137544 
22   0.147741 
23   0.146374 
24   0.144925 
25   0.143812 
26   0.17815 
27   0.152916 
28   0.354408 
 
$$$$ 
 
