PCCDB-ID:  10262 
public computational chemistry database (PCCDB) project, http://pccdb.org 
 
 18 17  0  0  0  0  0  0  0  0999 V2000 
    1.9198   -2.0579   -0.3968 C   0  0  0  0  0  0  0  0  0  0  0  0 
    3.7162    0.5710    1.9896 C   0  0  0  0  0  0  0  0  0  0  0  0 
    2.8144   -0.9722    0.1608 C   0  0  0  0  0  0  0  0  0  0  0  0 
    2.8215   -0.5147    1.4320 C   0  0  0  0  0  0  0  0  0  0  0  0 
    3.6965   -0.3690   -0.9083 C   0  0  0  0  0  0  0  0  0  0  0  0 
    1.9393   -1.1178    2.5011 C   0  0  0  0  0  0  0  0  0  0  0  0 
    3.2550    0.0342   -1.9560 O   0  0  0  0  0  0  0  0  0  0  0  0 
    5.0330   -0.3325   -0.6655 O   0  0  0  0  0  0  0  0  0  0  0  0 
    2.3806   -1.5210    3.5489 O   0  0  0  0  0  0  0  0  0  0  0  0 
    0.6028   -1.1542    2.2581 O   0  0  0  0  0  0  0  0  0  0  0  0 
    1.2830   -2.5196    0.3592 H   0  0  0  0  0  0  0  0  0  0  0  0 
    2.5266   -2.8488   -0.8544 H   0  0  0  0  0  0  0  0  0  0  0  0 
    1.2961   -1.6458   -1.1982 H   0  0  0  0  0  0  0  0  0  0  0  0 
    4.3398    0.1589    2.7911 H   0  0  0  0  0  0  0  0  0  0  0  0 
    3.1093    1.3618    2.4472 H   0  0  0  0  0  0  0  0  0  0  0  0 
    4.3529    1.0326    1.2336 H   0  0  0  0  0  0  0  0  0  0  0  0 
    5.2208   -0.7690    0.1828 H   0  0  0  0  0  0  0  0  0  0  0  0 
    0.4151   -0.7178    1.4098 H   0  0  0  0  0  0  0  0  0  0  0  0 
  1  3  1  0  0  0  0 
  1 11  1  0  0  0  0 
  2 15  1  0  0  0  0 
  2 14  1  0  0  0  0 
  3  4  2  0  0  0  0 
  4  2  1  0  0  0  0 
  4  6  1  0  0  0  0 
  5  8  1  0  0  0  0 
  5  3  1  0  0  0  0 
  6  9  2  0  0  0  0 
  7  5  2  0  0  0  0 
  8 17  1  0  0  0  0 
 10  6  1  0  0  0  0 
 12  1  1  0  0  0  0 
 13  1  1  0  0  0  0 
 16  2  1  0  0  0  0 
 18 10  1  0  0  0  0 
M  END 
>  <HBA> 
4 
 
>  <HBD> 
2 
 
>  <TPSA> 
74.6 
 
>  <cid> 
10262 
 
>  <dipole> 
0.0 
 
>  <excitation_energy_1> 
4.818 
 
>  <excitation_energy_2> 
5.172 
 
>  <excitation_energy_3> 
5.793 
 
>  <excitation_energy_4> 
6.117 
 
>  <homo_energy> 
-7.622 
 
>  <homo_lumo_gap> 
6.044 
 
>  <logP> 
0.492 
 
>  <lumo_energy> 
-1.578 
 
>  <melting_point> 
144.38 
 
>  <molecular_refractivity> 
34.03 
 
>  <oscillator_strength_1> 
0.0 
 
>  <oscillator_strength_2> 
0.0666 
 
>  <oscillator_strength_3> 
0.1774 
 
>  <oscillator_strength_4> 
0.0 
 
>  <open_babel_can_smiles> 
C/C(=C(\C(=O)O)/C)/C(=O)O 
 
>  <mulliken_charges> 
18 
1   -0.535584 
2   -0.535601 
3   -0.000889 
4   -0.000943 
5   0.54884 
6   0.54886 
7   -0.427887 
8   -0.557305 
9   -0.427889 
10   -0.557316 
11   0.175922 
12   0.180359 
13   0.196792 
14   0.196798 
15   0.180361 
16   0.175917 
17   0.419783 
18   0.419782 
 
>  <lowdin_charges> 
18 
1   -0.453907 
2   -0.453908 
3   -0.055619 
4   -0.055616 
5   0.194195 
6   0.194196 
7   -0.225974 
8   -0.345879 
9   -0.225974 
10   -0.345892 
11   0.168384 
12   0.173885 
13   0.180985 
14   0.180986 
15   0.173885 
16   0.168384 
17   0.363936 
18   0.363933 
 
$$$$ 
 
