PCCDB-ID:  27830 
public computational chemistry database (PCCDB) project, http://pccdb.org 
 
 13 12  0  0  0  0  0  0  0  0999 V2000 
    0.3831    0.0009   -0.5499 C   0  0  0  0  0  0  0  0  0  0  0  0 
    0.5653    1.7957    2.8003 C   0  0  0  0  0  0  0  0  0  0  0  0 
   -0.4904    1.0545   -0.0024 C   0  0  0  0  0  0  0  0  0  0  0  0 
   -0.1352    0.5477    2.4717 C   0  0  0  0  0  0  0  0  0  0  0  0 
    1.0837   -0.8323   -0.9504 N   0  0  0  0  0  0  0  0  0  0  0  0 
    1.1241    2.7877    3.0238 N   0  0  0  0  0  0  0  0  0  0  0  0 
   -2.3522    0.5035    1.3768 N   0  0  0  0  0  0  0  0  0  0  0  0 
   -1.0072    0.7096    1.3108 N   0  0  0  0  0  0  0  0  0  0  0  0 
   -2.7822    0.2046    2.4720 O   0  0  0  0  0  0  0  0  0  0  0  0 
   -1.3596    1.1967   -0.6522 H   0  0  0  0  0  0  0  0  0  0  0  0 
    0.0674    1.9981    0.0426 H   0  0  0  0  0  0  0  0  0  0  0  0 
   -0.7903    0.2439    3.2954 H   0  0  0  0  0  0  0  0  0  0  0  0 
    0.5964   -0.2487    2.2884 H   0  0  0  0  0  0  0  0  0  0  0  0 
  1  3  1  0  0  0  0 
  2  6  3  0  0  0  0 
  3 11  1  0  0  0  0 
  3  8  1  0  0  0  0 
  4  2  1  0  0  0  0 
  4 12  1  0  0  0  0 
  5  1  3  0  0  0  0 
  7  9  2  0  0  0  0 
  8  7  1  0  0  0  0 
  8  4  1  0  0  0  0 
 10  3  1  0  0  0  0 
 13  4  1  0  0  0  0 
M  END 
>  <HBA> 
5 
 
>  <HBD> 
0 
 
>  <TPSA> 
80.25 
 
>  <cid> 
27830 
 
>  <dipole> 
0.91 
 
>  <excitation_energy_1> 
3.4 
 
>  <excitation_energy_2> 
5.717 
 
>  <excitation_energy_3> 
6.251 
 
>  <excitation_energy_4> 
6.444 
 
>  <homo_energy> 
-7.497 
 
>  <homo_lumo_gap> 
5.249 
 
>  <logP> 
0.017 
 
>  <lumo_energy> 
-2.248 
 
>  <melting_point> 
64.25 
 
>  <molecular_refractivity> 
28.47 
 
>  <oscillator_strength_1> 
0.0007 
 
>  <oscillator_strength_2> 
0.0609 
 
>  <oscillator_strength_3> 
0.0211 
 
>  <oscillator_strength_4> 
0.1224 
 
>  <open_babel_can_smiles> 
O=NN(CC#N)CC#N 
 
>  <mulliken_charges> 
13 
1   0.366201 
2   0.365438 
3   -0.214103 
4   -0.234129 
5   -0.440502 
6   -0.442875 
7   0.198815 
8   -0.230936 
9   -0.330398 
10   0.239985 
11   0.233929 
12   0.253138 
13   0.235438 
 
>  <lowdin_charges> 
13 
1   -0.028705 
2   -0.025823 
3   -0.192642 
4   -0.213276 
5   -0.087829 
6   -0.092849 
7   0.084905 
8   -0.048566 
9   -0.215328 
10   0.2081 
11   0.197237 
12   0.214291 
13   0.200485 
 
$$$$ 
 
