PCCDB-ID:  10419 
public computational chemistry database (PCCDB) project, http://pccdb.org 
 
 10  9  0  0  0  0  0  0  0  0999 V2000 
    0.9030   -0.0289   -0.0663 C   0  0  0  0  0  0  0  0  0  0  0  0 
    5.0351   -0.0290   -0.0663 C   0  0  0  0  0  0  0  0  0  0  0  0 
    2.3645   -0.0284   -0.0639 C   0  0  0  0  0  0  0  0  0  0  0  0 
    3.5737   -0.0288   -0.0647 C   0  0  0  0  0  0  0  0  0  0  0  0 
    0.5038    0.6495   -0.8305 H   0  0  0  0  0  0  0  0  0  0  0  0 
    0.4999    0.2914    0.9023 H   0  0  0  0  0  0  0  0  0  0  0  0 
    0.5045   -1.0298   -0.2743 H   0  0  0  0  0  0  0  0  0  0  0  0 
    5.4334   -0.1826   -1.0770 H   0  0  0  0  0  0  0  0  0  0  0  0 
    5.4360   -0.8272    0.5706 H   0  0  0  0  0  0  0  0  0  0  0  0 
    5.4368    0.9220    0.3050 H   0  0  0  0  0  0  0  0  0  0  0  0 
  1  3  1  0  0  0  0 
  1  6  1  0  0  0  0 
  2  4  1  0  0  0  0 
  2 10  1  0  0  0  0 
  2  9  1  0  0  0  0 
  4  3  3  0  0  0  0 
  5  1  1  0  0  0  0 
  7  1  1  0  0  0  0 
  8  2  1  0  0  0  0 
M  END 
>  <HBA> 
0 
 
>  <HBD> 
0 
 
>  <TPSA> 
0.0 
 
>  <cid> 
10419 
 
>  <dipole> 
0.0 
 
>  <excitation_energy_1> 
6.211 
 
>  <excitation_energy_2> 
6.211 
 
>  <excitation_energy_3> 
6.539 
 
>  <excitation_energy_4> 
6.64 
 
>  <homo_energy> 
-6.547 
 
>  <homo_lumo_gap> 
8.398 
 
>  <logP> 
1.03 
 
>  <lumo_energy> 
1.85 
 
>  <melting_point> 
-7.89 
 
>  <molecular_refractivity> 
19.5 
 
>  <oscillator_strength_1> 
0.0059 
 
>  <oscillator_strength_2> 
0.006 
 
>  <oscillator_strength_3> 
0.0 
 
>  <oscillator_strength_4> 
0.0 
 
>  <open_babel_can_smiles> 
CC#CC 
 
>  <mulliken_charges> 
10 
1   -0.574873 
2   -0.574956 
3   0.047738 
4   0.048112 
5   0.175695 
6   0.175648 
7   0.175681 
8   0.175644 
9   0.175652 
10   0.175659 
 
>  <lowdin_charges> 
10 
1   -0.424507 
2   -0.42448 
3   -0.088123 
4   -0.088108 
5   0.171762 
6   0.170613 
7   0.170254 
8   0.170115 
9   0.171677 
10   0.170797 
 
$$$$ 
 
