PCCDB-ID:  17084 
public computational chemistry database (PCCDB) project, http://pccdb.org 
 
 30 30  0  0  0  0  0  0  0  0999 V2000 
    0.8399   -0.1760   -0.0198 C   0  0  0  0  0  0  0  0  0  0  0  0 
    2.6119    3.6133   -0.4677 C   0  0  0  0  0  0  0  0  0  0  0  0 
    6.8962    0.9086    1.0156 C   0  0  0  0  0  0  0  0  0  0  0  0 
    3.6164   -2.3996   -1.1474 C   0  0  0  0  0  0  0  0  0  0  0  0 
    2.1232    0.5193    0.4458 C   0  0  0  0  0  0  0  0  0  0  0  0 
    2.3615    2.3307   -1.2678 C   0  0  0  0  0  0  0  0  0  0  0  0 
    6.1229   -0.2833    0.5462 C   0  0  0  0  0  0  0  0  0  0  0  0 
    4.6504   -1.6328   -0.3960 C   0  0  0  0  0  0  0  0  0  0  0  0 
    4.9018   -0.3000   -0.2130 C   0  0  0  0  0  0  0  0  0  0  0  0 
    4.2631    0.9104   -0.8122 C   0  0  0  0  0  0  0  0  0  0  0  0 
    6.5368   -1.4967    0.8207 N   0  0  0  0  0  0  0  0  0  0  0  0 
    2.9128    1.1213   -0.6353 N   0  0  0  0  0  0  0  0  0  0  0  0 
    4.9578    1.6892   -1.4663 O   0  0  0  0  0  0  0  0  0  0  0  0 
    5.6070   -2.3604    0.2146 O   0  0  0  0  0  0  0  0  0  0  0  0 
    0.3175   -0.5983    0.8462 H   0  0  0  0  0  0  0  0  0  0  0  0 
    1.0554   -0.9887   -0.7193 H   0  0  0  0  0  0  0  0  0  0  0  0 
    0.1503    0.5184   -0.5108 H   0  0  0  0  0  0  0  0  0  0  0  0 
    2.1641    4.4699   -0.9845 H   0  0  0  0  0  0  0  0  0  0  0  0 
    3.6858    3.7926   -0.3722 H   0  0  0  0  0  0  0  0  0  0  0  0 
    2.1712    3.5628    0.5347 H   0  0  0  0  0  0  0  0  0  0  0  0 
    6.3169    1.4908    1.7422 H   0  0  0  0  0  0  0  0  0  0  0  0 
    7.1172    1.5659    0.1699 H   0  0  0  0  0  0  0  0  0  0  0  0 
    7.8274    0.5881    1.4888 H   0  0  0  0  0  0  0  0  0  0  0  0 
    3.0265   -1.7263   -1.7727 H   0  0  0  0  0  0  0  0  0  0  0  0 
    2.9395   -2.9308   -0.4674 H   0  0  0  0  0  0  0  0  0  0  0  0 
    4.0935   -3.1481   -1.7886 H   0  0  0  0  0  0  0  0  0  0  0  0 
    2.7623   -0.1908    0.9727 H   0  0  0  0  0  0  0  0  0  0  0  0 
    1.8645    1.3047    1.1706 H   0  0  0  0  0  0  0  0  0  0  0  0 
    2.8212    2.4180   -2.2540 H   0  0  0  0  0  0  0  0  0  0  0  0 
    1.2885    2.1703   -1.4107 H   0  0  0  0  0  0  0  0  0  0  0  0 
  1  5  1  0  0  0  0 
  1 15  1  0  0  0  0 
  2 19  1  0  0  0  0 
  2 20  1  0  0  0  0 
  3 23  1  0  0  0  0 
  3 21  1  0  0  0  0 
  4 25  1  0  0  0  0 
  4  8  1  0  0  0  0 
  5 27  1  0  0  0  0 
  5 28  1  0  0  0  0 
  6 12  1  0  0  0  0 
  6  2  1  0  0  0  0 
  7 11  2  0  0  0  0 
  7  3  1  0  0  0  0 
  8  9  2  0  0  0  0 
  8 14  1  0  0  0  0 
  9  7  1  0  0  0  0 
 10 12  1  0  0  0  0 
 10  9  1  0  0  0  0 
 12  5  1  0  0  0  0 
 13 10  2  0  0  0  0 
 14 11  1  0  0  0  0 
 16  1  1  0  0  0  0 
 17  1  1  0  0  0  0 
 18  2  1  0  0  0  0 
 22  3  1  0  0  0  0 
 24  4  1  0  0  0  0 
 26  4  1  0  0  0  0 
 29  6  1  0  0  0  0 
 30  6  1  0  0  0  0 
M  END 
>  <HBA> 
4 
 
>  <HBD> 
0 
 
>  <TPSA> 
46.34 
 
>  <cid> 
17084 
 
>  <dipole> 
4.64 
 
>  <excitation_energy_1> 
5.03 
 
>  <excitation_energy_2> 
5.513 
 
>  <excitation_energy_3> 
5.795 
 
>  <excitation_energy_4> 
5.883 
 
>  <homo_energy> 
-6.547 
 
>  <homo_lumo_gap> 
6.12 
 
>  <logP> 
1.773 
 
>  <lumo_energy> 
-0.427 
 
>  <melting_point> 
63.27 
 
>  <molecular_refractivity> 
53.95 
 
>  <oscillator_strength_1> 
0.0153 
 
>  <oscillator_strength_2> 
0.0468 
 
>  <oscillator_strength_3> 
0.0189 
 
>  <oscillator_strength_4> 
0.0497 
 
>  <open_babel_can_smiles> 
CCN(C(=O)c1c(C)noc1C)CC 
 
>  <mulliken_charges> 
30 
1   -0.45276 
2   -0.453424 
3   -0.522697 
4   -0.530625 
5   -0.146996 
6   -0.141045 
7   0.329792 
8   0.390223 
9   -0.121498 
10   0.522619 
11   -0.233526 
12   -0.414712 
13   -0.520794 
14   -0.373949 
15   0.153599 
16   0.155979 
17   0.157197 
18   0.148727 
19   0.180412 
20   0.141846 
21   0.163175 
22   0.198624 
23   0.177487 
24   0.181517 
25   0.181276 
26   0.189869 
27   0.166747 
28   0.151709 
29   0.180846 
30   0.140381 
 
>  <lowdin_charges> 
30 
1   -0.456707 
2   -0.453121 
3   -0.444746 
4   -0.448824 
5   -0.201241 
6   -0.19443 
7   0.034536 
8   0.093527 
9   -0.123134 
10   0.161991 
11   -0.08782 
12   -0.10739 
13   -0.31016 
14   -0.075693 
15   0.159107 
16   0.154473 
17   0.154476 
18   0.15681 
19   0.165062 
20   0.145039 
21   0.166387 
22   0.183504 
23   0.173495 
24   0.175844 
25   0.174861 
26   0.181178 
27   0.164857 
28   0.145697 
29   0.168784 
30   0.14364 
 
$$$$ 
 
