PCCDB-ID:  34415 
public computational chemistry database (PCCDB) project, http://pccdb.org 
 
 23 22  0  0  0  0  0  0  0  0999 V2000 
    2.4469   -1.5702   -0.3368 C   0  0  0  0  0  0  0  0  0  0  0  0 
    0.5962    0.3002    6.1035 C   0  0  0  0  0  0  0  0  0  0  0  0 
    2.3539    0.6714    2.2491 C   0  0  0  0  0  0  0  0  0  0  0  0 
    3.0547    1.1891    3.5109 C   0  0  0  0  0  0  0  0  0  0  0  0 
    3.3376    0.4077    1.0898 C   0  0  0  0  0  0  0  0  0  0  0  0 
    2.0989    1.4215    4.6757 C   0  0  0  0  0  0  0  0  0  0  0  0 
    2.5938   -0.0692   -0.1534 C   0  0  0  0  0  0  0  0  0  0  0  0 
    2.1195    0.7243   -0.9448 O   0  0  0  0  0  0  0  0  0  0  0  0 
    1.5168    0.1823    5.0414 O   0  0  0  0  0  0  0  0  0  0  0  0 
    3.4260   -2.0100   -0.5694 H   0  0  0  0  0  0  0  0  0  0  0  0 
    1.7544   -1.7829   -1.1538 H   0  0  0  0  0  0  0  0  0  0  0  0 
    2.0968   -2.0475    0.5866 H   0  0  0  0  0  0  0  0  0  0  0  0 
    0.2116   -0.7018    6.3119 H   0  0  0  0  0  0  0  0  0  0  0  0 
   -0.2479    0.9594    5.8426 H   0  0  0  0  0  0  0  0  0  0  0  0 
    1.0727    0.6960    7.0153 H   0  0  0  0  0  0  0  0  0  0  0  0 
    1.6072    1.4033    1.9137 H   0  0  0  0  0  0  0  0  0  0  0  0 
    1.8082   -0.2457    2.5000 H   0  0  0  0  0  0  0  0  0  0  0  0 
    3.5695    2.1347    3.2925 H   0  0  0  0  0  0  0  0  0  0  0  0 
    3.8243    0.4742    3.8310 H   0  0  0  0  0  0  0  0  0  0  0  0 
    4.0844   -0.3341    1.4017 H   0  0  0  0  0  0  0  0  0  0  0  0 
    3.8594    1.3364    0.8325 H   0  0  0  0  0  0  0  0  0  0  0  0 
    1.3121    2.1424    4.3901 H   0  0  0  0  0  0  0  0  0  0  0  0 
    2.6413    1.8547    5.5340 H   0  0  0  0  0  0  0  0  0  0  0  0 
  1  7  1  0  0  0  0 
  1 12  1  0  0  0  0 
  2 13  1  0  0  0  0 
  2 15  1  0  0  0  0 
  3 17  1  0  0  0  0 
  3  4  1  0  0  0  0 
  4 19  1  0  0  0  0 
  4  6  1  0  0  0  0 
  5 20  1  0  0  0  0 
  5  3  1  0  0  0  0 
  6  9  1  0  0  0  0 
  6 23  1  0  0  0  0 
  7  5  1  0  0  0  0 
  8  7  2  0  0  0  0 
  9  2  1  0  0  0  0 
 10  1  1  0  0  0  0 
 11  1  1  0  0  0  0 
 14  2  1  0  0  0  0 
 16  3  1  0  0  0  0 
 18  4  1  0  0  0  0 
 21  5  1  0  0  0  0 
 22  6  1  0  0  0  0 
M  END 
>  <HBA> 
2 
 
>  <HBD> 
0 
 
>  <TPSA> 
26.3 
 
>  <cid> 
34415 
 
>  <dipole> 
2.84 
 
>  <excitation_energy_1> 
4.341 
 
>  <excitation_energy_2> 
6.11 
 
>  <excitation_energy_3> 
6.143 
 
>  <excitation_energy_4> 
6.524 
 
>  <homo_energy> 
-6.452 
 
>  <homo_lumo_gap> 
6.223 
 
>  <logP> 
1.392 
 
>  <lumo_energy> 
-0.229 
 
>  <melting_point> 
-14.79 
 
>  <molecular_refractivity> 
37.05 
 
>  <oscillator_strength_1> 
0.0005 
 
>  <oscillator_strength_2> 
0.0017 
 
>  <oscillator_strength_3> 
0.0375 
 
>  <oscillator_strength_4> 
0.0205 
 
>  <open_babel_can_smiles> 
COCCCCC(=O)C 
 
>  <mulliken_charges> 
23 
1   -0.532959 
2   -0.190631 
3   -0.26736 
4   -0.272289 
5   -0.332741 
6   -0.012656 
7   0.448276 
8   -0.43983 
9   -0.460559 
10   0.170565 
11   0.177692 
12   0.167968 
13   0.157833 
14   0.131003 
15   0.129434 
16   0.151083 
17   0.159605 
18   0.136248 
19   0.145087 
20   0.136992 
21   0.159304 
22   0.118298 
23   0.119635 
 
>  <lowdin_charges> 
23 
1   -0.478091 
2   -0.279363 
3   -0.271588 
4   -0.281134 
5   -0.308087 
6   -0.130854 
7   0.169439 
8   -0.241256 
9   -0.274381 
10   0.171101 
11   0.17192 
12   0.167779 
13   0.154517 
14   0.132481 
15   0.131552 
16   0.150926 
17   0.152659 
18   0.147697 
19   0.14929 
20   0.148867 
21   0.161563 
22   0.126151 
23   0.128812 
 
$$$$ 
 
