PCCDB-ID:  62220 
public computational chemistry database (PCCDB) project, http://pccdb.org 
 
 23 22  0  0  0  0  0  0  0  0999 V2000 
    0.6470   -1.8909    0.9449 C   0  0  0  0  0  0  0  0  0  0  0  0 
    2.1176   -1.5885    0.8915 C   0  0  0  0  0  0  0  0  0  0  0  0 
    2.8483   -1.4996   -0.2230 C   0  0  0  0  0  0  0  0  0  0  0  0 
    4.3228   -1.2049   -0.2764 C   0  0  0  0  0  0  0  0  0  0  0  0 
    5.1427   -2.3411   -0.9174 C   0  0  0  0  0  0  0  0  0  0  0  0 
    6.6379   -2.0168   -1.0157 C   0  0  0  0  0  0  0  0  0  0  0  0 
    7.4522   -3.1407   -1.6578 C   0  0  0  0  0  0  0  0  0  0  0  0 
    8.9331   -2.8567   -1.7632 C   0  0  0  0  0  0  0  0  0  0  0  0 
    9.4725   -1.8402   -1.3841 O   0  0  0  0  0  0  0  0  0  0  0  0 
    0.4468   -2.7971    1.5330 H   0  0  0  0  0  0  0  0  0  0  0  0 
    0.2297   -2.0388   -0.0570 H   0  0  0  0  0  0  0  0  0  0  0  0 
    0.0894   -1.0764    1.4271 H   0  0  0  0  0  0  0  0  0  0  0  0 
    2.6084   -1.4261    1.8536 H   0  0  0  0  0  0  0  0  0  0  0  0 
    2.3591   -1.6641   -1.1864 H   0  0  0  0  0  0  0  0  0  0  0  0 
    4.6986   -1.0085    0.7367 H   0  0  0  0  0  0  0  0  0  0  0  0 
    4.4946   -0.2836   -0.8547 H   0  0  0  0  0  0  0  0  0  0  0  0 
    4.7444   -2.5523   -1.9210 H   0  0  0  0  0  0  0  0  0  0  0  0 
    4.9968   -3.2600   -0.3324 H   0  0  0  0  0  0  0  0  0  0  0  0 
    7.0428   -1.8095   -0.0171 H   0  0  0  0  0  0  0  0  0  0  0  0 
    6.7845   -1.0950   -1.5928 H   0  0  0  0  0  0  0  0  0  0  0  0 
    7.0912   -3.3702   -2.6737 H   0  0  0  0  0  0  0  0  0  0  0  0 
    7.3405   -4.0866   -1.1030 H   0  0  0  0  0  0  0  0  0  0  0  0 
    9.5320   -3.6722   -2.2311 H   0  0  0  0  0  0  0  0  0  0  0  0 
  1 12  1  0  0  0  0 
  1 10  1  0  0  0  0 
  2  1  1  0  0  0  0 
  2 13  1  0  0  0  0 
  3  2  2  0  0  0  0 
  4  3  1  0  0  0  0 
  4 15  1  0  0  0  0 
  5 18  1  0  0  0  0 
  5  4  1  0  0  0  0 
  6  5  1  0  0  0  0 
  6 19  1  0  0  0  0 
  7 22  1  0  0  0  0 
  7  6  1  0  0  0  0 
  8  7  1  0  0  0  0 
  8  9  2  0  0  0  0 
 11  1  1  0  0  0  0 
 14  3  1  0  0  0  0 
 16  4  1  0  0  0  0 
 17  5  1  0  0  0  0 
 20  6  1  0  0  0  0 
 21  7  1  0  0  0  0 
 23  8  1  0  0  0  0 
M  END 
>  <HBA> 
1 
 
>  <HBD> 
0 
 
>  <TPSA> 
17.07 
 
>  <cid> 
62220 
 
>  <dipole> 
2.56 
 
>  <excitation_energy_1> 
4.329 
 
>  <excitation_energy_2> 
5.339 
 
>  <excitation_energy_3> 
6.134 
 
>  <excitation_energy_4> 
6.36 
 
>  <homo_energy> 
-6.463 
 
>  <homo_lumo_gap> 
5.951 
 
>  <logP> 
2.322 
 
>  <lumo_energy> 
-0.512 
 
>  <melting_point> 
13.62 
 
>  <molecular_refractivity> 
40.3 
 
>  <oscillator_strength_1> 
0.0002 
 
>  <oscillator_strength_2> 
0.0001 
 
>  <oscillator_strength_3> 
0.0128 
 
>  <oscillator_strength_4> 
0.0023 
 
>  <open_babel_can_smiles> 
O=CCCCC/C=C/C 
 
>  <mulliken_charges> 
23 
1   -0.486197 
2   -0.092475 
3   -0.08643 
4   -0.302331 
5   -0.256733 
6   -0.247625 
7   -0.350919 
8   0.253351 
9   -0.382603 
10   0.153085 
11   0.150746 
12   0.154215 
13   0.117022 
14   0.112098 
15   0.137478 
16   0.140135 
17   0.127911 
18   0.135173 
19   0.150041 
20   0.149188 
21   0.160472 
22   0.161246 
23   0.103152 
 
>  <lowdin_charges> 
23 
1   -0.439998 
2   -0.166484 
3   -0.170636 
4   -0.269123 
5   -0.273297 
6   -0.271837 
7   -0.311891 
8   0.05493 
9   -0.219895 
10   0.155679 
11   0.153147 
12   0.157043 
13   0.145213 
14   0.143253 
15   0.144864 
16   0.147039 
17   0.137198 
18   0.141536 
19   0.150698 
20   0.150835 
21   0.162285 
22   0.163309 
23   0.11613 
 
$$$$ 
 
