PCCDB-ID:  7824 
public computational chemistry database (PCCDB) project, http://pccdb.org 
 
 23 22  0  0  0  0  0  0  0  0999 V2000 
    0.8836   -0.0496   -0.0653 C   0  0  0  0  0  0  0  0  0  0  0  0 
    8.4571   -3.3042    2.9170 C   0  0  0  0  0  0  0  0  0  0  0  0 
    2.4048   -0.2065   -0.1544 C   0  0  0  0  0  0  0  0  0  0  0  0 
    2.9878   -1.0909    0.9552 C   0  0  0  0  0  0  0  0  0  0  0  0 
    4.5106   -1.2468    0.8676 C   0  0  0  0  0  0  0  0  0  0  0  0 
    5.0795   -2.1312    1.9789 C   0  0  0  0  0  0  0  0  0  0  0  0 
    6.5865   -2.2830    1.9073 C   0  0  0  0  0  0  0  0  0  0  0  0 
    7.3151   -1.7589    1.0928 O   0  0  0  0  0  0  0  0  0  0  0  0 
    7.0361   -3.0966    2.8925 O   0  0  0  0  0  0  0  0  0  0  0  0 
    0.4988    0.5852   -0.8715 H   0  0  0  0  0  0  0  0  0  0  0  0 
    0.5865    0.4056    0.8877 H   0  0  0  0  0  0  0  0  0  0  0  0 
    0.3796   -1.0215   -0.1372 H   0  0  0  0  0  0  0  0  0  0  0  0 
    8.6413   -3.9733    3.7583 H   0  0  0  0  0  0  0  0  0  0  0  0 
    8.9832   -2.3561    3.0583 H   0  0  0  0  0  0  0  0  0  0  0  0 
    8.7966   -3.7599    1.9828 H   0  0  0  0  0  0  0  0  0  0  0  0 
    2.8793    0.7841   -0.1136 H   0  0  0  0  0  0  0  0  0  0  0  0 
    2.6730   -0.6304   -1.1324 H   0  0  0  0  0  0  0  0  0  0  0  0 
    2.5126   -2.0828    0.9144 H   0  0  0  0  0  0  0  0  0  0  0  0 
    2.7178   -0.6673    1.9344 H   0  0  0  0  0  0  0  0  0  0  0  0 
    4.9904   -0.2612    0.9120 H   0  0  0  0  0  0  0  0  0  0  0  0 
    4.7878   -1.6704   -0.1059 H   0  0  0  0  0  0  0  0  0  0  0  0 
    4.6377   -3.1365    1.9531 H   0  0  0  0  0  0  0  0  0  0  0  0 
    4.8311   -1.7300    2.9711 H   0  0  0  0  0  0  0  0  0  0  0  0 
  1 11  1  0  0  0  0 
  2 14  1  0  0  0  0 
  2 13  1  0  0  0  0 
  3 16  1  0  0  0  0 
  3  1  1  0  0  0  0 
  3  4  1  0  0  0  0 
  4 19  1  0  0  0  0 
  5 20  1  0  0  0  0 
  5  4  1  0  0  0  0 
  5  6  1  0  0  0  0 
  6 23  1  0  0  0  0 
  7  6  1  0  0  0  0 
  7  9  1  0  0  0  0 
  8  7  2  0  0  0  0 
  9  2  1  0  0  0  0 
 10  1  1  0  0  0  0 
 12  1  1  0  0  0  0 
 15  2  1  0  0  0  0 
 17  3  1  0  0  0  0 
 18  4  1  0  0  0  0 
 21  5  1  0  0  0  0 
 22  6  1  0  0  0  0 
M  END 
>  <HBA> 
2 
 
>  <HBD> 
0 
 
>  <TPSA> 
26.3 
 
>  <cid> 
7824 
 
>  <dipole> 
1.54 
 
>  <excitation_energy_1> 
5.85 
 
>  <excitation_energy_2> 
7.0 
 
>  <excitation_energy_3> 
7.503 
 
>  <excitation_energy_4> 
7.698 
 
>  <homo_energy> 
-7.298 
 
>  <homo_lumo_gap> 
7.753 
 
>  <logP> 
1.74 
 
>  <lumo_energy> 
0.454 
 
>  <melting_point> 
-14.79 
 
>  <molecular_refractivity> 
37.05 
 
>  <oscillator_strength_1> 
0.0006 
 
>  <oscillator_strength_2> 
0.0179 
 
>  <oscillator_strength_3> 
0.007 
 
>  <oscillator_strength_4> 
0.0061 
 
>  <open_babel_can_smiles> 
CCCCCC(=O)OC 
 
>  <mulliken_charges> 
23 
1   -0.441931 
2   -0.217001 
3   -0.247682 
4   -0.250235 
5   -0.248232 
6   -0.362711 
7   0.620217 
8   -0.478414 
9   -0.454731 
10   0.143132 
11   0.1412 
12   0.141149 
13   0.162732 
14   0.168721 
15   0.168873 
16   0.133273 
17   0.133161 
18   0.126414 
19   0.126455 
20   0.148836 
21   0.1475 
22   0.169424 
23   0.169851 
 
>  <lowdin_charges> 
23 
1   -0.445302 
2   -0.278698 
3   -0.270701 
4   -0.274213 
5   -0.269992 
6   -0.299884 
7   0.197309 
8   -0.264977 
9   -0.199809 
10   0.151022 
11   0.146149 
12   0.145904 
13   0.160098 
14   0.158468 
15   0.158688 
16   0.140003 
17   0.140088 
18   0.136453 
19   0.136619 
20   0.150135 
21   0.14961 
22   0.166272 
23   0.166758 
 
$$$$ 
 
