PCCDB-ID:  11566 
public computational chemistry database (PCCDB) project, http://pccdb.org 
 
 22 22  0  0  1  0  0  0  0  0999 V2000 
    0.9967    0.0241    0.0253 C   0  0  0  0  0  0  0  0  0  0  0  0 
    4.6244   -1.1908    0.8619 C   0  0  0  0  0  0  0  0  0  0  0  0 
    3.0908   -1.2143    0.7762 C   0  0  0  0  0  0  0  0  0  0  0  0 
    5.1322    0.0909    1.5411 C   0  0  0  0  0  0  0  0  0  0  0  0 
    3.0576    1.3145    0.7693 C   0  0  0  0  0  0  0  0  0  0  0  0 
    2.5286    0.0406    0.0823 C   0  0  2  0  0  0  0  0  0  0  0  0 
    4.5892    1.3485    0.8515 C   0  0  1  0  0  0  0  0  0  0  0  0 
    5.0623    2.5451    1.4708 O   0  0  0  0  0  0  0  0  0  0  0  0 
    0.6280   -0.8665   -0.4977 H   0  0  0  0  0  0  0  0  0  0  0  0 
    0.6080    0.9058   -0.4980 H   0  0  0  0  0  0  0  0  0  0  0  0 
    0.5659    0.0193    1.0350 H   0  0  0  0  0  0  0  0  0  0  0  0 
    5.0453   -1.2533   -0.1524 H   0  0  0  0  0  0  0  0  0  0  0  0 
    4.9892   -2.0733    1.4020 H   0  0  0  0  0  0  0  0  0  0  0  0 
    2.6696   -1.2785    1.7916 H   0  0  0  0  0  0  0  0  0  0  0  0 
    2.7558   -2.1147    0.2444 H   0  0  0  0  0  0  0  0  0  0  0  0 
    6.2279    0.1265    1.5520 H   0  0  0  0  0  0  0  0  0  0  0  0 
    4.8028    0.1008    2.5930 H   0  0  0  0  0  0  0  0  0  0  0  0 
    2.6499    1.3654    1.7932 H   0  0  0  0  0  0  0  0  0  0  0  0 
    2.7050    2.2122    0.2460 H   0  0  0  0  0  0  0  0  0  0  0  0 
    2.9056    0.0425   -0.9534 H   0  0  0  0  0  0  0  0  0  0  0  0 
    4.9965    1.3957   -0.1671 H   0  0  0  0  0  0  0  0  0  0  0  0 
    4.7228    2.5486    2.3805 H   0  0  0  0  0  0  0  0  0  0  0  0 
  1  6  1  0  0  0  0 
  1 11  1  0  0  0  0 
  2 13  1  0  0  0  0 
  2  4  1  0  0  0  0 
  3  2  1  0  0  0  0 
  3 14  1  0  0  0  0 
  4 16  1  0  0  0  0 
  4 17  1  0  0  0  0 
  5  7  1  0  0  0  0 
  5 18  1  0  0  0  0 
  6 20  1  6  0  0  0 
  6  5  1  0  0  0  0 
  6  3  1  0  0  0  0 
  7 21  1  6  0  0  0 
  7  8  1  0  0  0  0 
  7  4  1  0  0  0  0 
  8 22  1  0  0  0  0 
  9  1  1  0  0  0  0 
 10  1  1  0  0  0  0 
 12  2  1  0  0  0  0 
 15  3  1  0  0  0  0 
 19  5  1  0  0  0  0 
M  END 
>  <HBA> 
1 
 
>  <HBD> 
1 
 
>  <TPSA> 
20.23 
 
>  <cid> 
11566 
 
>  <dipole> 
1.69 
 
>  <excitation_energy_1> 
6.414 
 
>  <excitation_energy_2> 
6.738 
 
>  <excitation_energy_3> 
7.043 
 
>  <excitation_energy_4> 
7.09 
 
>  <homo_energy> 
-6.904 
 
>  <homo_lumo_gap> 
9.067 
 
>  <logP> 
1.557 
 
>  <lumo_energy> 
2.163 
 
>  <melting_point> 
13.97 
 
>  <molecular_refractivity> 
34.81 
 
>  <oscillator_strength_1> 
0.0154 
 
>  <oscillator_strength_2> 
0.0056 
 
>  <oscillator_strength_3> 
0.0158 
 
>  <oscillator_strength_4> 
0.0022 
 
>  <open_babel_can_smiles> 
C[C@@H]1CCC[C@@H](C1)O 
 
>  <mulliken_charges> 
22 
1   -0.44428 
2   -0.269611 
3   -0.254107 
4   -0.272623 
5   -0.272328 
6   -0.077915 
7   0.139257 
8   -0.627467 
9   0.140668 
10   0.142125 
11   0.138587 
12   0.132049 
13   0.134359 
14   0.124117 
15   0.129846 
16   0.143482 
17   0.113198 
18   0.109576 
19   0.141025 
20   0.120564 
21   0.129886 
22   0.379591 
 
>  <lowdin_charges> 
22 
1   -0.443592 
2   -0.278249 
3   -0.278739 
4   -0.290463 
5   -0.29385 
6   -0.124307 
7   -0.005642 
8   -0.460516 
9   0.149022 
10   0.149893 
11   0.144854 
12   0.139096 
13   0.146811 
14   0.135441 
15   0.144057 
16   0.14853 
17   0.130558 
18   0.129958 
19   0.149834 
20   0.133685 
21   0.138494 
22   0.335125 
 
$$$$ 
 
