PCCDB-ID:  30659 
public computational chemistry database (PCCDB) project, http://pccdb.org 
 
 38 39  0  0  1  0  0  0  0  0999 V2000 
    0.4530    0.1454    0.7324 C   0  0  0  0  0  0  0  0  0  0  0  0 
    2.7244    0.3230    1.5002 C   0  0  0  0  0  0  0  0  0  0  0  0 
    3.1317   -8.7404   -1.2375 C   0  0  0  0  0  0  0  0  0  0  0  0 
    3.9430   -5.5219   -3.9805 C   0  0  0  0  0  0  0  0  0  0  0  0 
    2.4207   -5.0667    0.7266 C   0  0  0  0  0  0  0  0  0  0  0  0 
    1.5303   -1.5647   -1.5652 C   0  0  0  0  0  0  0  0  0  0  0  0 
    2.1694   -2.7483   -2.3033 C   0  0  0  0  0  0  0  0  0  0  0  0 
    2.6826   -6.2972    0.1241 C   0  0  0  0  0  0  0  0  0  0  0  0 
    1.9111   -2.5948    0.6786 C   0  0  0  0  0  0  0  0  0  0  0  0 
    2.2326   -3.9041   -0.0236 C   0  0  0  0  0  0  0  0  0  0  0  0 
    2.1963   -1.3572   -0.1990 C   0  0  2  0  0  0  0  0  0  0  0  0 
    2.3342   -3.9781   -1.4274 C   0  0  0  0  0  0  0  0  0  0  0  0 
    2.7704   -6.3801   -1.2676 C   0  0  0  0  0  0  0  0  0  0  0  0 
    2.6115   -5.2097   -2.0356 C   0  0  0  0  0  0  0  0  0  0  0  0 
    1.8555   -0.0560    0.3967 N   0  0  0  0  0  0  0  0  0  0  0  0 
    3.0022   -7.5332   -1.9688 O   0  0  0  0  0  0  0  0  0  0  0  0 
    2.6571   -5.2683   -3.4127 O   0  0  0  0  0  0  0  0  0  0  0  0 
    0.2979    1.2001    0.9888 H   0  0  0  0  0  0  0  0  0  0  0  0 
    0.0990   -0.4579    1.5903 H   0  0  0  0  0  0  0  0  0  0  0  0 
   -0.1830   -0.0817   -0.1277 H   0  0  0  0  0  0  0  0  0  0  0  0 
    2.5504    1.3757    1.7537 H   0  0  0  0  0  0  0  0  0  0  0  0 
    3.7728    0.2180    1.1989 H   0  0  0  0  0  0  0  0  0  0  0  0 
    2.5742   -0.2680    2.4245 H   0  0  0  0  0  0  0  0  0  0  0  0 
    3.2874   -9.5256   -1.9799 H   0  0  0  0  0  0  0  0  0  0  0  0 
    2.2236   -8.9616   -0.6611 H   0  0  0  0  0  0  0  0  0  0  0  0 
    3.9917   -8.7124   -0.5545 H   0  0  0  0  0  0  0  0  0  0  0  0 
    3.8128   -5.4623   -5.0640 H   0  0  0  0  0  0  0  0  0  0  0  0 
    4.3105   -6.5166   -3.7101 H   0  0  0  0  0  0  0  0  0  0  0  0 
    4.6714   -4.7638   -3.6622 H   0  0  0  0  0  0  0  0  0  0  0  0 
    2.3538   -5.0159    1.8113 H   0  0  0  0  0  0  0  0  0  0  0  0 
    0.4577   -1.7607   -1.4322 H   0  0  0  0  0  0  0  0  0  0  0  0 
    1.6218   -0.6504   -2.1625 H   0  0  0  0  0  0  0  0  0  0  0  0 
    3.1573   -2.4463   -2.6828 H   0  0  0  0  0  0  0  0  0  0  0  0 
    1.5845   -3.0079   -3.1913 H   0  0  0  0  0  0  0  0  0  0  0  0 
    2.8116   -7.1792    0.7411 H   0  0  0  0  0  0  0  0  0  0  0  0 
    2.4763   -2.5379    1.6174 H   0  0  0  0  0  0  0  0  0  0  0  0 
    0.8482   -2.5891    0.9630 H   0  0  0  0  0  0  0  0  0  0  0  0 
    3.2817   -1.3160   -0.3736 H   0  0  0  0  0  0  0  0  0  0  0  0 
  1 18  1  0  0  0  0 
  1 19  1  0  0  0  0 
  2 21  1  0  0  0  0 
  2 23  1  0  0  0  0 
  3 25  1  0  0  0  0 
  3 26  1  0  0  0  0 
  4 28  1  0  0  0  0 
  4 29  1  0  0  0  0 
  4 17  1  0  0  0  0 
  5 30  1  0  0  0  0 
  6 31  1  0  0  0  0 
  6 11  1  0  0  0  0 
  7  6  1  0  0  0  0 
  7 12  1  0  0  0  0 
  8  5  1  0  0  0  0 
  8 35  1  0  0  0  0 
  9 37  1  0  0  0  0 
  9 36  1  0  0  0  0 
 10  9  1  0  0  0  0 
 10  5  2  0  0  0  0 
 11 38  1  6  0  0  0 
 11 15  1  0  0  0  0 
 11  9  1  0  0  0  0 
 12 10  1  0  0  0  0 
 13  8  2  0  0  0  0 
 14 12  2  0  0  0  0 
 14 13  1  0  0  0  0 
 15  1  1  0  0  0  0 
 15  2  1  0  0  0  0 
 16 13  1  0  0  0  0 
 16  3  1  0  0  0  0 
 17 14  1  0  0  0  0 
 20  1  1  0  0  0  0 
 22  2  1  0  0  0  0 
 24  3  1  0  0  0  0 
 27  4  1  0  0  0  0 
 32  6  1  0  0  0  0 
 33  7  1  0  0  0  0 
 34  7  1  0  0  0  0 
M  END 
>  <HBA> 
3 
 
>  <HBD> 
0 
 
>  <TPSA> 
21.7 
 
>  <cid> 
30659 
 
>  <dipole> 
2.1 
 
>  <excitation_energy_1> 
4.746 
 
>  <excitation_energy_2> 
4.896 
 
>  <excitation_energy_3> 
4.954 
 
>  <excitation_energy_4> 
5.146 
 
>  <homo_energy> 
-5.361 
 
>  <homo_lumo_gap> 
5.578 
 
>  <logP> 
2.123 
 
>  <lumo_energy> 
0.218 
 
>  <melting_point> 
46.77 
 
>  <molecular_refractivity> 
69.37 
 
>  <oscillator_strength_1> 
0.0137 
 
>  <oscillator_strength_2> 
0.0203 
 
>  <oscillator_strength_3> 
0.0056 
 
>  <oscillator_strength_4> 
0.0107 
 
>  <open_babel_can_smiles> 
COc1c(OC)ccc2c1CC[C@H](C2)N(C)C 
 
>  <mulliken_charges> 
38 
1   -0.304943 
2   -0.295455 
3   -0.212989 
4   -0.207928 
5   -0.201382 
6   -0.280906 
7   -0.337499 
8   -0.20647 
9   -0.358979 
10   0.117554 
11   0.043 
12   0.066991 
13   0.355958 
14   0.234334 
15   -0.376598 
16   -0.511631 
17   -0.521987 
18   0.145967 
19   0.119239 
20   0.153291 
21   0.145427 
22   0.145486 
23   0.118519 
24   0.168052 
25   0.152823 
26   0.149226 
27   0.155253 
28   0.161136 
29   0.135977 
30   0.116213 
31   0.135392 
32   0.142596 
33   0.14601 
34   0.164408 
35   0.128413 
36   0.14195 
37   0.149472 
38   0.124081 
 
>  <lowdin_charges> 
38 
1   -0.359781 
2   -0.35324 
3   -0.278287 
4   -0.27341 
5   -0.164562 
6   -0.280265 
7   -0.272015 
8   -0.213404 
9   -0.289074 
10   -0.027201 
11   -0.062507 
12   -0.029064 
13   0.07491 
14   0.061371 
15   -0.18336 
16   -0.197805 
17   -0.227204 
18   0.147791 
19   0.120469 
20   0.152796 
21   0.146535 
22   0.146909 
23   0.118901 
24   0.162607 
25   0.146221 
26   0.143513 
27   0.152018 
28   0.148439 
29   0.137499 
30   0.150897 
31   0.138895 
32   0.151663 
33   0.14929 
34   0.163482 
35   0.161508 
36   0.149513 
37   0.149573 
38   0.13638 
 
$$$$ 
 
