PCCDB-ID:  29483 
public computational chemistry database (PCCDB) project, http://pccdb.org 
 
 13 13  0  0  0  0  0  0  0  0999 V2000 
   -0.9844   -0.0115   -0.1128 C   0  0  0  0  0  0  0  0  0  0  0  0 
    0.9971   -0.7568    0.0252 C   0  0  0  0  0  0  0  0  0  0  0  0 
    1.1084    0.6158    0.0170 C   0  0  0  0  0  0  0  0  0  0  0  0 
   -0.2939   -1.1432   -0.0549 N   0  0  0  0  0  0  0  0  0  0  0  0 
   -0.1824    1.0794   -0.0727 N   0  0  0  0  0  0  0  0  0  0  0  0 
    2.0739   -1.7456    0.1061 N   0  0  0  0  0  0  0  0  0  0  0  0 
    2.2171    1.5029    0.0792 N   0  0  0  0  0  0  0  0  0  0  0  0 
    2.5371   -2.1325   -0.9584 O   0  0  0  0  0  0  0  0  0  0  0  0 
    2.3940   -2.1097    1.2296 O   0  0  0  0  0  0  0  0  0  0  0  0 
    3.3338    0.9969    0.1607 O   0  0  0  0  0  0  0  0  0  0  0  0 
    1.9562    2.7117    0.0456 O   0  0  0  0  0  0  0  0  0  0  0  0 
   -2.0608    0.0553   -0.1839 H   0  0  0  0  0  0  0  0  0  0  0  0 
   -0.4249    2.0627   -0.1001 H   0  0  0  0  0  0  0  0  0  0  0  0 
  1  5  1  0  0  0  0 
  1  4  2  0  0  0  0 
  2  6  1  0  0  0  0 
  3  2  2  0  0  0  0 
  3  7  1  0  0  0  0 
  4  2  1  0  0  0  0 
  5  3  1  0  0  0  0 
  6  9  2  0  0  0  0 
  7 10  2  0  0  0  0 
  8  6  2  0  0  0  0 
 11  7  2  0  0  0  0 
 12  1  1  0  0  0  0 
 13  5  1  0  0  0  0 
M  END 
>  <HBA> 
1 
 
>  <HBD> 
1 
 
>  <TPSA> 
120.32 
 
>  <cid> 
29483 
 
>  <dipole> 
6.47 
 
>  <excitation_energy_1> 
3.797 
 
>  <excitation_energy_2> 
3.876 
 
>  <excitation_energy_3> 
4.232 
 
>  <excitation_energy_4> 
4.261 
 
>  <homo_energy> 
-7.905 
 
>  <homo_lumo_gap> 
4.74 
 
>  <logP> 
1.272 
 
>  <lumo_energy> 
-3.165 
 
>  <melting_point> 
144.69 
 
>  <molecular_refractivity> 
36.23 
 
>  <oscillator_strength_1> 
0.0 
 
>  <oscillator_strength_2> 
0.0 
 
>  <oscillator_strength_3> 
0.143 
 
>  <oscillator_strength_4> 
0.0004 
 
>  <open_babel_can_smiles> 
O=N(=O)c1[nH]cnc1N(=O)=O 
 
>  <mulliken_charges> 
13 
1   0.249207 
2   0.410689 
3   0.56236 
4   -0.422671 
5   -0.603658 
6   0.377755 
7   0.345171 
8   -0.351511 
9   -0.351442 
10   -0.379779 
11   -0.41673 
12   0.202089 
13   0.37852 
 
>  <lowdin_charges> 
13 
1   -0.036038 
2   0.052353 
3   0.003812 
4   -0.144557 
5   -0.137441 
6   0.310714 
7   0.308473 
8   -0.196968 
9   -0.196263 
10   -0.218639 
11   -0.2564 
12   0.189423 
13   0.32153 
 
$$$$ 
 
