PCCDB-ID:  60178 
public computational chemistry database (PCCDB) project, http://pccdb.org 
 
 42 42  0  0  1  0  0  0  0  0999 V2000 
    7.4842    0.9164    9.9539 C   0  0  0  0  0  0  0  0  0  0  0  0 
    3.8446    3.0230   -3.7940 C   0  0  0  0  0  0  0  0  0  0  0  0 
    6.6444    0.2234    8.8738 C   0  0  0  0  0  0  0  0  0  0  0  0 
    6.5131    1.0130    7.5595 C   0  0  0  0  0  0  0  0  0  0  0  0 
    7.8239    1.1528    6.7717 C   0  0  0  0  0  0  0  0  0  0  0  0 
    7.7093    1.9863    5.4835 C   0  0  0  0  0  0  0  0  0  0  0  0 
    6.8097    1.3686    4.4036 C   0  0  0  0  0  0  0  0  0  0  0  0 
    4.6489    1.9144   -1.1839 C   0  0  0  0  0  0  0  0  0  0  0  0 
    6.1278    3.7534   -0.7717 C   0  0  0  0  0  0  0  0  0  0  0  0 
    4.8902    1.4266    0.0965 C   0  0  0  0  0  0  0  0  0  0  0  0 
    6.3818    3.2788    0.5163 C   0  0  0  0  0  0  0  0  0  0  0  0 
    6.8027    2.1909    3.1217 C   0  0  0  0  0  0  0  0  0  0  0  0 
    5.0480    3.6375   -3.0589 C   0  0  2  0  0  0  0  0  0  0  0  0 
    5.2630    3.0873   -1.6490 C   0  0  0  0  0  0  0  0  0  0  0  0 
    5.7602    2.1047    0.9590 C   0  0  0  0  0  0  0  0  0  0  0  0 
    5.0036    5.1116   -2.9987 N   0  0  0  0  0  0  0  0  0  0  0  0 
    5.9307    1.5481    2.1954 O   0  0  0  0  0  0  0  0  0  0  0  0 
    7.5058    0.3230   10.8751 H   0  0  0  0  0  0  0  0  0  0  0  0 
    7.0698    1.9015   10.2030 H   0  0  0  0  0  0  0  0  0  0  0  0 
    8.5223    1.0644    9.6360 H   0  0  0  0  0  0  0  0  0  0  0  0 
    3.9577    1.9445   -3.9542 H   0  0  0  0  0  0  0  0  0  0  0  0 
    3.7371    3.4891   -4.7806 H   0  0  0  0  0  0  0  0  0  0  0  0 
    2.9137    3.1893   -3.2373 H   0  0  0  0  0  0  0  0  0  0  0  0 
    5.6379    0.0390    9.2728 H   0  0  0  0  0  0  0  0  0  0  0  0 
    7.0705   -0.7671    8.6583 H   0  0  0  0  0  0  0  0  0  0  0  0 
    6.1144    2.0154    7.7790 H   0  0  0  0  0  0  0  0  0  0  0  0 
    5.7615    0.5175    6.9312 H   0  0  0  0  0  0  0  0  0  0  0  0 
    8.2030    0.1505    6.5216 H   0  0  0  0  0  0  0  0  0  0  0  0 
    8.5868    1.6162    7.4105 H   0  0  0  0  0  0  0  0  0  0  0  0 
    8.7172    2.1289    5.0683 H   0  0  0  0  0  0  0  0  0  0  0  0 
    7.3395    2.9910    5.7366 H   0  0  0  0  0  0  0  0  0  0  0  0 
    5.7768    1.2804    4.7600 H   0  0  0  0  0  0  0  0  0  0  0  0 
    7.1499    0.3517    4.1670 H   0  0  0  0  0  0  0  0  0  0  0  0 
    3.9666    1.3628   -1.8227 H   0  0  0  0  0  0  0  0  0  0  0  0 
    6.6018    4.6703   -1.1068 H   0  0  0  0  0  0  0  0  0  0  0  0 
    4.4108    0.5190    0.4507 H   0  0  0  0  0  0  0  0  0  0  0  0 
    7.0577    3.8294    1.1608 H   0  0  0  0  0  0  0  0  0  0  0  0 
    7.8161    2.2605    2.6985 H   0  0  0  0  0  0  0  0  0  0  0  0 
    6.4522    3.2152    3.3194 H   0  0  0  0  0  0  0  0  0  0  0  0 
    5.9455    3.3983   -3.6503 H   0  0  0  0  0  0  0  0  0  0  0  0 
    4.1713    5.3987   -2.4820 H   0  0  0  0  0  0  0  0  0  0  0  0 
    4.8969    5.4823   -3.9429 H   0  0  0  0  0  0  0  0  0  0  0  0 
  1 19  1  0  0  0  0 
  1 18  1  0  0  0  0 
  2 23  1  0  0  0  0 
  2 13  1  0  0  0  0 
  3 24  1  0  0  0  0 
  3  1  1  0  0  0  0 
  4 26  1  0  0  0  0 
  4  3  1  0  0  0  0 
  5 29  1  0  0  0  0 
  5  4  1  0  0  0  0 
  6 31  1  0  0  0  0 
  6  5  1  0  0  0  0 
  7 32  1  0  0  0  0 
  7  6  1  0  0  0  0 
  8 10  1  0  0  0  0 
  9 11  2  0  0  0  0 
 10 36  1  0  0  0  0 
 10 15  2  0  0  0  0 
 11 15  1  0  0  0  0 
 11 37  1  0  0  0  0 
 12 39  1  0  0  0  0 
 12  7  1  0  0  0  0 
 13 40  1  6  0  0  0 
 13 16  1  0  0  0  0 
 13 14  1  0  0  0  0 
 14  8  2  0  0  0  0 
 14  9  1  0  0  0  0 
 15 17  1  0  0  0  0 
 16 41  1  0  0  0  0 
 17 12  1  0  0  0  0 
 20  1  1  0  0  0  0 
 21  2  1  0  0  0  0 
 22  2  1  0  0  0  0 
 25  3  1  0  0  0  0 
 27  4  1  0  0  0  0 
 28  5  1  0  0  0  0 
 30  6  1  0  0  0  0 
 33  7  1  0  0  0  0 
 34  8  1  0  0  0  0 
 35  9  1  0  0  0  0 
 38 12  1  0  0  0  0 
 42 16  1  0  0  0  0 
M  END 
>  <HBA> 
2 
 
>  <HBD> 
1 
 
>  <TPSA> 
35.25 
 
>  <cid> 
60178 
 
>  <dipole> 
0.51 
 
>  <excitation_energy_1> 
4.936 
 
>  <excitation_energy_2> 
5.178 
 
>  <excitation_energy_3> 
5.444 
 
>  <excitation_energy_4> 
5.615 
 
>  <homo_energy> 
-5.567 
 
>  <homo_lumo_gap> 
5.826 
 
>  <logP> 
4.756 
 
>  <lumo_energy> 
0.259 
 
>  <melting_point> 
62.86 
 
>  <molecular_refractivity> 
74.26 
 
>  <oscillator_strength_1> 
0.0245 
 
>  <oscillator_strength_2> 
0.1508 
 
>  <oscillator_strength_3> 
0.0324 
 
>  <oscillator_strength_4> 
0.0064 
 
>  <open_babel_can_smiles> 
CCCCCCCOc1ccc(cc1)[C@H](N)C 
 
>  <mulliken_charges> 
42 
1   -0.443827 
2   -0.458409 
3   -0.249455 
4   -0.252352 
5   -0.254162 
6   -0.266567 
7   -0.277102 
8   -0.191113 
9   -0.180042 
10   -0.183842 
11   -0.196698 
12   -0.026568 
13   -0.038394 
14   0.137847 
15   0.382632 
16   -0.709132 
17   -0.528672 
18   0.142771 
19   0.1408 
20   0.145867 
21   0.147171 
22   0.134329 
23   0.143467 
24   0.131618 
25   0.130394 
26   0.125326 
27   0.13518 
28   0.128617 
29   0.133921 
30   0.130343 
31   0.13089 
32   0.153027 
33   0.146046 
34   0.121586 
35   0.151412 
36   0.130841 
37   0.129862 
38   0.135843 
39   0.135664 
40   0.146407 
41   0.292526 
42   0.29195 
 
>  <lowdin_charges> 
42 
1   -0.445945 
2   -0.46049 
3   -0.271682 
4   -0.279102 
5   -0.276468 
6   -0.274066 
7   -0.280561 
8   -0.163629 
9   -0.147878 
10   -0.18764 
11   -0.216546 
12   -0.124923 
13   -0.060866 
14   -0.036863 
15   0.101195 
16   -0.547781 
17   -0.203947 
18   0.150163 
19   0.145446 
20   0.145529 
21   0.149596 
22   0.146117 
23   0.147987 
24   0.141647 
25   0.138553 
26   0.136117 
27   0.143869 
28   0.137986 
29   0.144204 
30   0.140724 
31   0.13847 
32   0.150008 
33   0.148035 
34   0.158305 
35   0.170004 
36   0.163317 
37   0.161802 
38   0.134745 
39   0.134639 
40   0.146806 
41   0.25249 
42   0.250633 
 
$$$$ 
 
