PCCDB-ID:  20534 
public computational chemistry database (PCCDB) project, http://pccdb.org 
 
 21 21  0  0  0  0  0  0  0  0999 V2000 
    1.0314   -1.6672   -1.3228 C   0  0  0  0  0  0  0  0  0  0  0  0 
    2.3643   -0.9132   -1.2820 C   0  0  0  0  0  0  0  0  0  0  0  0 
    3.3441   -1.3664   -2.3709 C   0  0  0  0  0  0  0  0  0  0  0  0 
    7.0894   -1.4085   -5.0626 C   0  0  0  0  0  0  0  0  0  0  0  0 
    4.6924   -0.6205   -2.3135 C   0  0  0  0  0  0  0  0  0  0  0  0 
    6.2337   -0.4414   -4.4357 C   0  0  0  0  0  0  0  0  0  0  0  0 
    6.9823   -2.5413   -4.3189 C   0  0  0  0  0  0  0  0  0  0  0  0 
    5.6681   -1.0546   -3.3560 C   0  0  0  0  0  0  0  0  0  0  0  0 
    6.1217   -2.3472   -3.2762 O   0  0  0  0  0  0  0  0  0  0  0  0 
    0.3508   -1.3192   -0.5374 H   0  0  0  0  0  0  0  0  0  0  0  0 
    1.1809   -2.7446   -1.1813 H   0  0  0  0  0  0  0  0  0  0  0  0 
    0.5267   -1.5282   -2.2868 H   0  0  0  0  0  0  0  0  0  0  0  0 
    2.8312   -1.0463   -0.2956 H   0  0  0  0  0  0  0  0  0  0  0  0 
    2.1778    0.1653   -1.3871 H   0  0  0  0  0  0  0  0  0  0  0  0 
    2.8931   -1.2168   -3.3615 H   0  0  0  0  0  0  0  0  0  0  0  0 
    3.5294   -2.4443   -2.2754 H   0  0  0  0  0  0  0  0  0  0  0  0 
    7.7014   -1.2713   -5.9435 H   0  0  0  0  0  0  0  0  0  0  0  0 
    5.1342   -0.7572   -1.3157 H   0  0  0  0  0  0  0  0  0  0  0  0 
    4.5269    0.4570   -2.4355 H   0  0  0  0  0  0  0  0  0  0  0  0 
    6.0632    0.5800   -4.7480 H   0  0  0  0  0  0  0  0  0  0  0  0 
    7.4255   -3.5235   -4.3835 H   0  0  0  0  0  0  0  0  0  0  0  0 
  1  2  1  0  0  0  0 
  1 11  1  0  0  0  0 
  1 10  1  0  0  0  0 
  2 13  1  0  0  0  0 
  3  5  1  0  0  0  0 
  3 16  1  0  0  0  0 
  3  2  1  0  0  0  0 
  4  6  1  0  0  0  0 
  4  7  2  0  0  0  0 
  5 18  1  0  0  0  0 
  6  8  2  0  0  0  0 
  7  9  1  0  0  0  0 
  8  9  1  0  0  0  0 
  8  5  1  0  0  0  0 
 12  1  1  0  0  0  0 
 14  2  1  0  0  0  0 
 15  3  1  0  0  0  0 
 17  4  1  0  0  0  0 
 19  5  1  0  0  0  0 
 20  6  1  0  0  0  0 
 21  7  1  0  0  0  0 
M  END 
>  <HBA> 
1 
 
>  <HBD> 
0 
 
>  <TPSA> 
13.14 
 
>  <cid> 
20534 
 
>  <dipole> 
0.5 
 
>  <excitation_energy_1> 
5.458 
 
>  <excitation_energy_2> 
5.782 
 
>  <excitation_energy_3> 
5.879 
 
>  <excitation_energy_4> 
6.102 
 
>  <homo_energy> 
-5.755 
 
>  <homo_lumo_gap> 
6.389 
 
>  <logP> 
2.622 
 
>  <lumo_energy> 
0.634 
 
>  <melting_point> 
4.39 
 
>  <molecular_refractivity> 
38.09 
 
>  <oscillator_strength_1> 
0.0112 
 
>  <oscillator_strength_2> 
0.1476 
 
>  <oscillator_strength_3> 
0.0841 
 
>  <oscillator_strength_4> 
0.0264 
 
>  <open_babel_can_smiles> 
CCCCc1ccco1 
 
>  <mulliken_charges> 
21 
1   -0.441744 
2   -0.248045 
3   -0.249754 
4   -0.181866 
5   -0.345827 
6   -0.211937 
7   0.079309 
8   0.349206 
9   -0.441106 
10   0.142602 
11   0.143811 
12   0.142852 
13   0.132105 
14   0.130316 
15   0.135939 
16   0.147393 
17   0.136401 
18   0.152485 
19   0.147714 
20   0.131499 
21   0.148647 
 
>  <lowdin_charges> 
21 
1   -0.442811 
2   -0.270494 
3   -0.27159 
4   -0.206265 
5   -0.27274 
6   -0.223953 
7   -0.087487 
8   0.068587 
9   -0.108295 
10   0.150752 
11   0.145832 
12   0.146969 
13   0.139143 
14   0.136675 
15   0.142619 
16   0.145609 
17   0.166912 
18   0.154818 
19   0.15438 
20   0.163888 
21   0.167453 
 
$$$$ 
 
