PCCDB-ID:  8004 
public computational chemistry database (PCCDB) project, http://pccdb.org 
 
 15 14  0  0  0  0  0  0  0  0999 V2000 
    1.3011   -0.8305    0.6411 C   0  0  0  0  0  0  0  0  0  0  0  0 
    5.4892    1.6868    1.2377 C   0  0  0  0  0  0  0  0  0  0  0  0 
    2.1675    0.0035    0.0648 C   0  0  0  0  0  0  0  0  0  0  0  0 
    4.5696    0.6865    0.5307 C   0  0  0  0  0  0  0  0  0  0  0  0 
    3.0755    0.9565    0.7932 C   0  0  0  0  0  0  0  0  0  0  0  0 
    0.6754   -1.5017    0.0585 H   0  0  0  0  0  0  0  0  0  0  0  0 
    1.1810   -0.8710    1.7222 H   0  0  0  0  0  0  0  0  0  0  0  0 
    6.5442    1.4729    1.0324 H   0  0  0  0  0  0  0  0  0  0  0  0 
    5.3485    1.6550    2.3251 H   0  0  0  0  0  0  0  0  0  0  0  0 
    5.2865    2.7135    0.9085 H   0  0  0  0  0  0  0  0  0  0  0  0 
    2.2547    0.0056   -1.0238 H   0  0  0  0  0  0  0  0  0  0  0  0 
    4.8090   -0.3347    0.8553 H   0  0  0  0  0  0  0  0  0  0  0  0 
    4.7572    0.7154   -0.5518 H   0  0  0  0  0  0  0  0  0  0  0  0 
    2.8759    0.9072    1.8721 H   0  0  0  0  0  0  0  0  0  0  0  0 
    2.8481    1.9880    0.4810 H   0  0  0  0  0  0  0  0  0  0  0  0 
  1  7  1  0  0  0  0 
  2  9  1  0  0  0  0 
  3  1  2  0  0  0  0 
  3  5  1  0  0  0  0 
  4  5  1  0  0  0  0 
  4 12  1  0  0  0  0 
  4  2  1  0  0  0  0 
  5 14  1  0  0  0  0 
  6  1  1  0  0  0  0 
  8  2  1  0  0  0  0 
 10  2  1  0  0  0  0 
 11  3  1  0  0  0  0 
 13  4  1  0  0  0  0 
 15  5  1  0  0  0  0 
M  END 
>  <HBA> 
0 
 
>  <HBD> 
0 
 
>  <TPSA> 
0.0 
 
>  <cid> 
8004 
 
>  <dipole> 
0.36 
 
>  <excitation_energy_1> 
6.523 
 
>  <excitation_energy_2> 
6.914 
 
>  <excitation_energy_3> 
6.948 
 
>  <excitation_energy_4> 
7.012 
 
>  <homo_energy> 
-6.773 
 
>  <homo_lumo_gap> 
7.494 
 
>  <logP> 
1.972 
 
>  <lumo_energy> 
0.721 
 
>  <melting_point> 
-46.5 
 
>  <molecular_refractivity> 
25.68 
 
>  <oscillator_strength_1> 
0.0383 
 
>  <oscillator_strength_2> 
0.0426 
 
>  <oscillator_strength_3> 
0.0116 
 
>  <oscillator_strength_4> 
0.302 
 
>  <open_babel_can_smiles> 
CCCC=C 
 
>  <mulliken_charges> 
15 
1   -0.341762 
2   -0.44193 
3   -0.041332 
4   -0.248317 
5   -0.293834 
6   0.136482 
7   0.133 
8   0.144037 
9   0.142947 
10   0.141867 
11   0.121794 
12   0.140659 
13   0.13214 
14   0.135288 
15   0.138962 
 
>  <lowdin_charges> 
15 
1   -0.344899 
2   -0.440281 
3   -0.141356 
4   -0.268146 
5   -0.269622 
6   0.158256 
7   0.150916 
8   0.14921 
9   0.145187 
10   0.145514 
11   0.145551 
12   0.143109 
13   0.137901 
14   0.142908 
15   0.145753 
 
$$$$ 
 
