PCCDB-ID:  12472 
public computational chemistry database (PCCDB) project, http://pccdb.org 
 
 20 19  0  0  0  0  0  0  0  0999 V2000 
    3.1239   -0.5317    1.8644 C   0  0  0  0  0  0  0  0  0  0  0  0 
    2.2259    3.0128   -0.8957 C   0  0  0  0  0  0  0  0  0  0  0  0 
    3.1674    0.0158    0.4345 C   0  0  0  0  0  0  0  0  0  0  0  0 
    2.7178    2.4872    0.4585 C   0  0  0  0  0  0  0  0  0  0  0  0 
    5.0106    1.6653    0.2031 C   0  0  0  0  0  0  0  0  0  0  0  0 
    5.6234    2.7858    0.0724 N   0  0  0  0  0  0  0  0  0  0  0  0 
    3.6731    1.3901    0.3489 N   0  0  0  0  0  0  0  0  0  0  0  0 
    5.7628    0.5265    0.2155 O   0  0  0  0  0  0  0  0  0  0  0  0 
    2.7081   -1.5464    1.8731 H   0  0  0  0  0  0  0  0  0  0  0  0 
    2.5005    0.0942    2.5135 H   0  0  0  0  0  0  0  0  0  0  0  0 
    4.1325   -0.5692    2.2868 H   0  0  0  0  0  0  0  0  0  0  0  0 
    1.5060    3.8277   -0.7553 H   0  0  0  0  0  0  0  0  0  0  0  0 
    1.7339    2.2184   -1.4678 H   0  0  0  0  0  0  0  0  0  0  0  0 
    3.0609    3.3902   -1.4950 H   0  0  0  0  0  0  0  0  0  0  0  0 
    2.1627    0.0111   -0.0051 H   0  0  0  0  0  0  0  0  0  0  0  0 
    3.7915   -0.6236   -0.1923 H   0  0  0  0  0  0  0  0  0  0  0  0 
    1.8685    2.1283    1.0503 H   0  0  0  0  0  0  0  0  0  0  0  0 
    3.1726    3.2975    1.0407 H   0  0  0  0  0  0  0  0  0  0  0  0 
    4.9938    3.5835    0.0378 H   0  0  0  0  0  0  0  0  0  0  0  0 
    6.6713    0.8497    0.0810 H   0  0  0  0  0  0  0  0  0  0  0  0 
  1  9  1  0  0  0  0 
  1 11  1  0  0  0  0 
  1 10  1  0  0  0  0 
  2 12  1  0  0  0  0 
  2  4  1  0  0  0  0 
  3  1  1  0  0  0  0 
  4 18  1  0  0  0  0 
  4 17  1  0  0  0  0 
  5  8  1  0  0  0  0 
  5  7  1  0  0  0  0 
  6  5  2  0  0  0  0 
  7  3  1  0  0  0  0 
  7  4  1  0  0  0  0 
 13  2  1  0  0  0  0 
 14  2  1  0  0  0  0 
 15  3  1  0  0  0  0 
 16  3  1  0  0  0  0 
 19  6  1  0  0  0  0 
 20  8  1  0  0  0  0 
M  END 
>  <HBA> 
3 
 
>  <HBD> 
1 
 
>  <TPSA> 
46.33 
 
>  <cid> 
12472 
 
>  <dipole> 
2.56 
 
>  <excitation_energy_1> 
5.275 
 
>  <excitation_energy_2> 
5.785 
 
>  <excitation_energy_3> 
5.805 
 
>  <excitation_energy_4> 
5.92 
 
>  <homo_energy> 
-5.785 
 
>  <homo_lumo_gap> 
7.641 
 
>  <logP> 
1.107 
 
>  <lumo_energy> 
1.856 
 
>  <melting_point> 
62.71 
 
>  <molecular_refractivity> 
32.34 
 
>  <oscillator_strength_1> 
0.0182 
 
>  <oscillator_strength_2> 
0.0072 
 
>  <oscillator_strength_3> 
0.0396 
 
>  <oscillator_strength_4> 
0.0076 
 
>  <open_babel_can_smiles> 
CCN(C(=N)O)CC 
 
>  <mulliken_charges> 
20 
1   -0.441166 
2   -0.440483 
3   -0.138916 
4   -0.162604 
5   0.663077 
6   -0.687165 
7   -0.416166 
8   -0.616527 
9   0.142681 
10   0.143648 
11   0.169235 
12   0.146406 
13   0.152531 
14   0.162532 
15   0.141042 
16   0.177522 
17   0.151592 
18   0.153437 
19   0.280259 
20   0.419066 
 
>  <lowdin_charges> 
20 
1   -0.453887 
2   -0.457889 
3   -0.192871 
4   -0.197605 
5   0.161577 
6   -0.512203 
7   -0.124196 
8   -0.383305 
9   0.151163 
10   0.148947 
11   0.160571 
12   0.153975 
13   0.154157 
14   0.157998 
15   0.143487 
16   0.166441 
17   0.152045 
18   0.150471 
19   0.255188 
20   0.365936 
 
$$$$ 
 
