PCCDB-ID:  40031 
public computational chemistry database (PCCDB) project, http://pccdb.org 
 
 25 26  0  0  1  0  0  0  0  0999 V2000 
    2.9125    1.3682    0.3240 C   0  0  0  0  0  0  0  0  0  0  0  0 
    0.8771   -0.1035    0.2858 C   0  0  0  0  0  0  0  0  0  0  0  0 
    2.3582   -2.0869   -1.5027 C   0  0  0  0  0  0  0  0  0  0  0  0 
    4.3679   -0.6083   -1.4842 C   0  0  0  0  0  0  0  0  0  0  0  0 
    2.2467    0.1830   -2.5419 C   0  0  0  0  0  0  0  0  0  0  0  0 
    2.3973   -0.0563    0.0373 C   0  0  0  0  0  0  0  0  0  0  0  0 
    2.8258   -0.6191   -1.3574 C   0  0  1  0  0  0  0  0  0  0  0  0 
    2.7875   -2.6745   -2.7584 O   0  0  0  0  0  0  0  0  0  0  0  0 
    4.8173   -1.1778   -2.7411 O   0  0  0  0  0  0  0  0  0  0  0  0 
    2.6686   -0.3773   -3.8154 O   0  0  0  0  0  0  0  0  0  0  0  0 
    3.6341   -1.6866   -3.7355 P   0  0  2  0  0  0  0  0  0  0  0  0 
    4.1927   -2.4233   -5.4076 S   0  0  0  0  0  0  0  0  0  0  0  0 
    2.6143    1.6644    1.3352 H   0  0  0  0  0  0  0  0  0  0  0  0 
    2.4870    2.1052   -0.3671 H   0  0  0  0  0  0  0  0  0  0  0  0 
    4.0022    1.4483    0.2735 H   0  0  0  0  0  0  0  0  0  0  0  0 
    0.6622    0.2507    1.2998 H   0  0  0  0  0  0  0  0  0  0  0  0 
    0.4593   -1.1110    0.2020 H   0  0  0  0  0  0  0  0  0  0  0  0 
    0.3307    0.5480   -0.4060 H   0  0  0  0  0  0  0  0  0  0  0  0 
    1.2681   -2.1632   -1.4824 H   0  0  0  0  0  0  0  0  0  0  0  0 
    2.7698   -2.7046   -0.6960 H   0  0  0  0  0  0  0  0  0  0  0  0 
    4.8250   -1.1938   -0.6779 H   0  0  0  0  0  0  0  0  0  0  0  0 
    4.7634    0.4098   -1.4472 H   0  0  0  0  0  0  0  0  0  0  0  0 
    2.5861    1.2234   -2.5251 H   0  0  0  0  0  0  0  0  0  0  0  0 
    1.1526    0.1695   -2.5374 H   0  0  0  0  0  0  0  0  0  0  0  0 
    2.8671   -0.7232    0.7760 H   0  0  0  0  0  0  0  0  0  0  0  0 
  1 13  1  0  0  0  0 
  2 16  1  0  0  0  0 
  3 19  1  0  0  0  0 
  3  7  1  0  0  0  0 
  3 20  1  0  0  0  0 
  4 22  1  0  0  0  0 
  4  7  1  0  0  0  0 
  4 21  1  0  0  0  0 
  5 24  1  0  0  0  0 
  5 23  1  0  0  0  0 
  5  7  1  0  0  0  0 
  6  2  1  0  0  0  0 
  6  1  1  0  0  0  0 
  6 25  1  0  0  0  0 
  7  6  1  1  0  0  0 
  8  3  1  0  0  0  0 
  9  4  1  0  0  0  0 
 10 11  1  0  0  0  0 
 10  5  1  0  0  0  0 
 11 12  1  6  0  0  0 
 11  8  1  0  0  0  0 
 11  9  1  0  0  0  0 
 14  1  1  0  0  0  0 
 15  1  1  0  0  0  0 
 17  2  1  0  0  0  0 
 18  2  1  0  0  0  0 
M  RAD  1  12   2 
M  END 
>  <HBA> 
4 
 
>  <HBD> 
0 
 
>  <TPSA> 
69.59 
 
>  <cid> 
40031 
 
>  <dipole> 
8.45 
 
>  <excitation_energy_1> 
5.703 
 
>  <excitation_energy_2> 
5.704 
 
>  <excitation_energy_3> 
5.853 
 
>  <excitation_energy_4> 
5.855 
 
>  <homo_energy> 
-6.566 
 
>  <homo_lumo_gap> 
7.236 
 
>  <logP> 
2.581 
 
>  <lumo_energy> 
0.669 
 
>  <melting_point> 
26.18 
 
>  <molecular_refractivity> 
50.1 
 
>  <oscillator_strength_1> 
0.0007 
 
>  <oscillator_strength_2> 
0.0008 
 
>  <oscillator_strength_3> 
0.0246 
 
>  <oscillator_strength_4> 
0.0234 
 
>  <open_babel_can_smiles> 
CC([C@]12CO[P@](OC1)(OC2)[S])C 
 
>  <mulliken_charges> 
25 
1   -0.466329 
2   -0.466352 
3   -0.023984 
4   -0.024448 
5   -0.02176 
6   -0.085747 
7   -0.114978 
8   -0.539332 
9   -0.539028 
10   -0.542607 
11   1.082047 
12   -0.323819 
13   0.158987 
14   0.154305 
15   0.157441 
16   0.158868 
17   0.157275 
18   0.154496 
19   0.167128 
20   0.161243 
21   0.161139 
22   0.167255 
23   0.165331 
24   0.165532 
25   0.137336 
 
>  <lowdin_charges> 
25 
1   -0.448421 
2   -0.449975 
3   -0.121606 
4   -0.123064 
5   -0.118089 
6   -0.118459 
7   -0.053886 
8   -0.394772 
9   -0.39503 
10   -0.398425 
11   0.915063 
12   -0.310835 
13   0.159445 
14   0.153488 
15   0.152764 
16   0.159243 
17   0.153961 
18   0.153816 
19   0.155997 
20   0.156802 
21   0.156836 
22   0.157363 
23   0.15579 
24   0.154989 
25   0.147006 
 
$$$$ 
 
