PCCDB-ID:  30924 
public computational chemistry database (PCCDB) project, http://pccdb.org 
 
 25 26  0  0  0  0  0  0  0  0999 V2000 
    0.8961    0.3645   -0.0140 C   0  0  0  0  0  0  0  0  0  0  0  0 
    3.5294   -3.5183    0.3231 C   0  0  0  0  0  0  0  0  0  0  0  0 
    6.8260    0.1563    0.0038 C   0  0  0  0  0  0  0  0  0  0  0  0 
    5.9256   -1.1280    0.1222 C   0  0  0  0  0  0  0  0  0  0  0  0 
    5.8935    1.4172   -0.0973 C   0  0  0  0  0  0  0  0  0  0  0  0 
    2.3780    0.1710    0.0061 C   0  0  0  0  0  0  0  0  0  0  0  0 
    2.5719   -2.3384    0.2213 C   0  0  0  0  0  0  0  0  0  0  0  0 
    4.5265   -0.5762    0.0736 C   0  0  0  0  0  0  0  0  0  0  0  0 
    4.5427    0.7822   -0.0442 C   0  0  0  0  0  0  0  0  0  0  0  0 
    3.1501   -0.9969    0.1079 C   0  0  0  0  0  0  0  0  0  0  0  0 
    3.2401    1.2347   -0.0848 N   0  0  0  0  0  0  0  0  0  0  0  0 
    1.3562   -2.5229    0.2329 O   0  0  0  0  0  0  0  0  0  0  0  0 
    0.4328   -0.0417    0.8905 H   0  0  0  0  0  0  0  0  0  0  0  0 
    0.4378   -0.1684   -0.8535 H   0  0  0  0  0  0  0  0  0  0  0  0 
    0.6421    1.4285   -0.0932 H   0  0  0  0  0  0  0  0  0  0  0  0 
    4.1981   -3.4087    1.1852 H   0  0  0  0  0  0  0  0  0  0  0  0 
    4.1636   -3.5834   -0.5696 H   0  0  0  0  0  0  0  0  0  0  0  0 
    2.9509   -4.4388    0.4245 H   0  0  0  0  0  0  0  0  0  0  0  0 
    7.4716    0.0914   -0.8771 H   0  0  0  0  0  0  0  0  0  0  0  0 
    7.4882    0.2428    0.8704 H   0  0  0  0  0  0  0  0  0  0  0  0 
    6.1346   -1.6719    1.0529 H   0  0  0  0  0  0  0  0  0  0  0  0 
    6.1317   -1.8326   -0.6944 H   0  0  0  0  0  0  0  0  0  0  0  0 
    6.0715    1.9775   -1.0258 H   0  0  0  0  0  0  0  0  0  0  0  0 
    6.0728    2.1196    0.7290 H   0  0  0  0  0  0  0  0  0  0  0  0 
    2.9425    2.1961   -0.1676 H   0  0  0  0  0  0  0  0  0  0  0  0 
  1  6  1  0  0  0  0 
  1 13  1  0  0  0  0 
  2 18  1  0  0  0  0 
  2 16  1  0  0  0  0 
  3  4  1  0  0  0  0 
  3 20  1  0  0  0  0 
  4 21  1  0  0  0  0 
  5  9  1  0  0  0  0 
  5  3  1  0  0  0  0 
  5 24  1  0  0  0  0 
  6 10  2  0  0  0  0 
  7 12  2  0  0  0  0 
  7  2  1  0  0  0  0 
  8 10  1  0  0  0  0 
  8  4  1  0  0  0  0 
  9  8  2  0  0  0  0 
 10  7  1  0  0  0  0 
 11  9  1  0  0  0  0 
 11  6  1  0  0  0  0 
 14  1  1  0  0  0  0 
 15  1  1  0  0  0  0 
 17  2  1  0  0  0  0 
 19  3  1  0  0  0  0 
 22  4  1  0  0  0  0 
 23  5  1  0  0  0  0 
 25 11  1  0  0  0  0 
M  END 
>  <HBA> 
1 
 
>  <HBD> 
1 
 
>  <TPSA> 
32.86 
 
>  <cid> 
30924 
 
>  <dipole> 
4.21 
 
>  <excitation_energy_1> 
4.105 
 
>  <excitation_energy_2> 
4.36 
 
>  <excitation_energy_3> 
4.585 
 
>  <excitation_energy_4> 
5.169 
 
>  <homo_energy> 
-5.361 
 
>  <homo_lumo_gap> 
5.007 
 
>  <logP> 
2.014 
 
>  <lumo_energy> 
-0.354 
 
>  <melting_point> 
121.92 
 
>  <molecular_refractivity> 
48.58 
 
>  <oscillator_strength_1> 
0.0002 
 
>  <oscillator_strength_2> 
0.0584 
 
>  <oscillator_strength_3> 
0.0001 
 
>  <oscillator_strength_4> 
0.0017 
 
>  <open_babel_can_smiles> 
CC(=O)c1c(C)[nH]c2c1CCC2 
 
>  <mulliken_charges> 
25 
1   -0.497544 
2   -0.534747 
3   -0.28882 
4   -0.348209 
5   -0.337418 
6   0.315066 
7   0.393086 
8   0.054408 
9   0.296485 
10   -0.047945 
11   -0.704433 
12   -0.498285 
13   0.1876 
14   0.186563 
15   0.126593 
16   0.16259 
17   0.163332 
18   0.170015 
19   0.14761 
20   0.147276 
21   0.145498 
22   0.145576 
23   0.146252 
24   0.146409 
25   0.323042 
 
>  <lowdin_charges> 
25 
1   -0.439868 
2   -0.472189 
3   -0.270564 
4   -0.27275 
5   -0.277371 
6   0.052467 
7   0.154743 
8   -0.060734 
9   -0.022802 
10   -0.117747 
11   -0.169947 
12   -0.280291 
13   0.178199 
14   0.177938 
15   0.143535 
16   0.165434 
17   0.16592 
18   0.16849 
19   0.149924 
20   0.149888 
21   0.146904 
22   0.147604 
23   0.147504 
24   0.147922 
25   0.287791 
 
$$$$ 
 
