PCCDB-ID:  7337 
public computational chemistry database (PCCDB) project, http://pccdb.org 
 
 20 20  0  0  0  0  0  0  0  0999 V2000 
    2.2490    1.2538    0.0996 C   0  0  0  0  0  0  0  0  0  0  0  0 
    4.3816   -0.7793   -4.0188 C   0  0  0  0  0  0  0  0  0  0  0  0 
    3.9974   -1.8172   -3.1773 C   0  0  0  0  0  0  0  0  0  0  0  0 
    3.5264    0.8312   -2.3978 C   0  0  0  0  0  0  0  0  0  0  0  0 
    4.1442    0.5328   -3.6210 C   0  0  0  0  0  0  0  0  0  0  0  0 
    3.3817   -1.5604   -1.9430 C   0  0  0  0  0  0  0  0  0  0  0  0 
    3.1483   -0.2077   -1.5659 C   0  0  0  0  0  0  0  0  0  0  0  0 
    3.0331   -2.5620   -1.0660 N   0  0  0  0  0  0  0  0  0  0  0  0 
    4.5375    1.6305   -4.4904 N   0  0  0  0  0  0  0  0  0  0  0  0 
    5.0790    1.3546   -5.5651 O   0  0  0  0  0  0  0  0  0  0  0  0 
    4.3083    2.7832   -4.1075 O   0  0  0  0  0  0  0  0  0  0  0  0 
    2.5300   -0.0642   -0.3530 O   0  0  0  0  0  0  0  0  0  0  0  0 
    1.7619    1.1405    1.0694 H   0  0  0  0  0  0  0  0  0  0  0  0 
    1.5752    1.7771   -0.5906 H   0  0  0  0  0  0  0  0  0  0  0  0 
    3.1705    1.8371    0.2189 H   0  0  0  0  0  0  0  0  0  0  0  0 
    4.8583   -0.9713   -4.9715 H   0  0  0  0  0  0  0  0  0  0  0  0 
    4.1786   -2.8477   -3.4709 H   0  0  0  0  0  0  0  0  0  0  0  0 
    3.3602    1.8680   -2.1407 H   0  0  0  0  0  0  0  0  0  0  0  0 
    2.9153   -3.4912   -1.4440 H   0  0  0  0  0  0  0  0  0  0  0  0 
    2.3802   -2.3072   -0.3381 H   0  0  0  0  0  0  0  0  0  0  0  0 
  1 15  1  0  0  0  0 
  1 13  1  0  0  0  0 
  2  5  2  0  0  0  0 
  2  3  1  0  0  0  0 
  3  6  2  0  0  0  0 
  4 18  1  0  0  0  0 
  4  7  2  0  0  0  0 
  5  4  1  0  0  0  0 
  6  7  1  0  0  0  0 
  6  8  1  0  0  0  0 
  7 12  1  0  0  0  0 
  8 20  1  0  0  0  0 
  9 11  2  0  0  0  0 
  9  5  1  0  0  0  0 
 10  9  2  0  0  0  0 
 12  1  1  0  0  0  0 
 14  1  1  0  0  0  0 
 16  2  1  0  0  0  0 
 17  3  1  0  0  0  0 
 19  8  1  0  0  0  0 
M  END 
>  <HBA> 
2 
 
>  <HBD> 
1 
 
>  <TPSA> 
81.07 
 
>  <cid> 
7337 
 
>  <dipole> 
6.63 
 
>  <excitation_energy_1> 
3.556 
 
>  <excitation_energy_2> 
3.766 
 
>  <excitation_energy_3> 
4.144 
 
>  <excitation_energy_4> 
4.348 
 
>  <homo_energy> 
-5.848 
 
>  <homo_lumo_gap> 
3.951 
 
>  <logP> 
2.29 
 
>  <lumo_energy> 
-1.897 
 
>  <melting_point> 
98.38 
 
>  <molecular_refractivity> 
46.16 
 
>  <oscillator_strength_1> 
0.2389 
 
>  <oscillator_strength_2> 
0.0 
 
>  <oscillator_strength_3> 
0.0736 
 
>  <oscillator_strength_4> 
0.0004 
 
>  <open_babel_can_smiles> 
COc1cc(ccc1N)N(=O)=O 
 
>  <mulliken_charges> 
20 
1   -0.21923 
2   -0.162036 
3   -0.195093 
4   -0.241931 
5   0.270518 
6   0.31213 
7   0.35559 
8   -0.795101 
9   0.368407 
10   -0.412175 
11   -0.417416 
12   -0.538615 
13   0.173167 
14   0.162949 
15   0.165307 
16   0.176022 
17   0.133681 
18   0.180429 
19   0.332766 
20   0.350628 
 
>  <lowdin_charges> 
20 
1   -0.276983 
2   -0.139568 
3   -0.194403 
4   -0.190569 
5   -0.020658 
6   0.061682 
7   0.072711 
8   -0.459765 
9   0.307441 
10   -0.264574 
11   -0.269668 
12   -0.210227 
13   0.164598 
14   0.152959 
15   0.1534 
16   0.185761 
17   0.161023 
18   0.188464 
19   0.284842 
20   0.293535 
 
$$$$ 
 
