PCCDB-ID:  16137 
public computational chemistry database (PCCDB) project, http://pccdb.org 
 
 28 29  0  0  0  0  0  0  0  0999 V2000 
    0.9159   -0.0717    0.1703 C   0  0  0  0  0  0  0  0  0  0  0  0 
    3.0543   -0.5625    1.3952 C   0  0  0  0  0  0  0  0  0  0  0  0 
    3.8238   -2.1841   -3.3954 C   0  0  0  0  0  0  0  0  0  0  0  0 
    3.3057   -2.8486   -2.2827 C   0  0  0  0  0  0  0  0  0  0  0  0 
    2.6886    2.1696   -1.3245 C   0  0  0  0  0  0  0  0  0  0  0  0 
    3.9009   -0.7955   -3.3802 C   0  0  0  0  0  0  0  0  0  0  0  0 
    3.6066    1.4670   -2.3265 C   0  0  0  0  0  0  0  0  0  0  0  0 
    2.8827   -2.1138   -1.1789 C   0  0  0  0  0  0  0  0  0  0  0  0 
    2.8670    1.5363    0.0563 C   0  0  0  0  0  0  0  0  0  0  0  0 
    3.4789   -0.0449   -2.2724 C   0  0  0  0  0  0  0  0  0  0  0  0 
    2.9650   -0.7112   -1.1412 C   0  0  0  0  0  0  0  0  0  0  0  0 
    2.4585    0.0427    0.1039 C   0  0  0  0  0  0  0  0  0  0  0  0 
    0.5322    0.4312    1.0672 H   0  0  0  0  0  0  0  0  0  0  0  0 
    0.5989   -1.1195    0.2100 H   0  0  0  0  0  0  0  0  0  0  0  0 
    0.4381    0.3815   -0.7047 H   0  0  0  0  0  0  0  0  0  0  0  0 
    2.7504    0.0354    2.2636 H   0  0  0  0  0  0  0  0  0  0  0  0 
    4.1494   -0.5718    1.3569 H   0  0  0  0  0  0  0  0  0  0  0  0 
    2.7147   -1.5885    1.5706 H   0  0  0  0  0  0  0  0  0  0  0  0 
    4.1563   -2.7414   -4.2673 H   0  0  0  0  0  0  0  0  0  0  0  0 
    3.2290   -3.9329   -2.2741 H   0  0  0  0  0  0  0  0  0  0  0  0 
    1.6438    2.0873   -1.6517 H   0  0  0  0  0  0  0  0  0  0  0  0 
    2.9215    3.2408   -1.2861 H   0  0  0  0  0  0  0  0  0  0  0  0 
    4.2945   -0.2690   -4.2478 H   0  0  0  0  0  0  0  0  0  0  0  0 
    4.6490    1.7485   -2.1096 H   0  0  0  0  0  0  0  0  0  0  0  0 
    3.4080    1.8151   -3.3481 H   0  0  0  0  0  0  0  0  0  0  0  0 
    2.4752   -2.6467   -0.3242 H   0  0  0  0  0  0  0  0  0  0  0  0 
    2.2916    2.0824    0.8152 H   0  0  0  0  0  0  0  0  0  0  0  0 
    3.9246    1.6276    0.3442 H   0  0  0  0  0  0  0  0  0  0  0  0 
  1 14  1  0  0  0  0 
  1 13  1  0  0  0  0 
  2 18  1  0  0  0  0 
  2 16  1  0  0  0  0 
  3  6  2  0  0  0  0 
  3  4  1  0  0  0  0 
  4 20  1  0  0  0  0 
  4  8  2  0  0  0  0 
  5 22  1  0  0  0  0 
  5  9  1  0  0  0  0 
  6 10  1  0  0  0  0 
  7 10  1  0  0  0  0 
  7 24  1  0  0  0  0 
  7  5  1  0  0  0  0 
  8 11  1  0  0  0  0 
  8 26  1  0  0  0  0 
  9 12  1  0  0  0  0 
  9 28  1  0  0  0  0 
  9 27  1  0  0  0  0 
 10 11  2  0  0  0  0 
 11 12  1  0  0  0  0 
 12  1  1  0  0  0  0 
 12  2  1  0  0  0  0 
 15  1  1  0  0  0  0 
 17  2  1  0  0  0  0 
 19  3  1  0  0  0  0 
 21  5  1  0  0  0  0 
 23  6  1  0  0  0  0 
 25  7  1  0  0  0  0 
M  END 
>  <HBA> 
0 
 
>  <HBD> 
0 
 
>  <TPSA> 
0.0 
 
>  <cid> 
16137 
 
>  <dipole> 
0.5 
 
>  <excitation_energy_1> 
5.18 
 
>  <excitation_energy_2> 
5.735 
 
>  <excitation_energy_3> 
5.871 
 
>  <excitation_energy_4> 
6.001 
 
>  <homo_energy> 
-6.237 
 
>  <homo_lumo_gap> 
6.381 
 
>  <logP> 
3.3 
 
>  <lumo_energy> 
0.144 
 
>  <melting_point> 
38.86 
 
>  <molecular_refractivity> 
53.37 
 
>  <oscillator_strength_1> 
0.0047 
 
>  <oscillator_strength_2> 
0.0102 
 
>  <oscillator_strength_3> 
0.0005 
 
>  <oscillator_strength_4> 
0.0121 
 
>  <open_babel_can_smiles> 
CC1(C)CCCc2c1cccc2 
 
>  <mulliken_charges> 
28 
1   -0.442928 
2   -0.449731 
3   -0.128216 
4   -0.132614 
5   -0.273568 
6   -0.188586 
7   -0.340447 
8   -0.190848 
9   -0.271784 
10   0.109229 
11   0.122155 
12   0.026686 
13   0.136654 
14   0.143446 
15   0.147826 
16   0.138063 
17   0.147007 
18   0.141182 
19   0.123898 
20   0.123372 
21   0.139657 
22   0.131712 
23   0.117316 
24   0.148727 
25   0.142359 
26   0.1209 
27   0.128093 
28   0.13044 
 
>  <lowdin_charges> 
28 
1   -0.441183 
2   -0.437203 
3   -0.161169 
4   -0.160089 
5   -0.27467 
6   -0.1668 
7   -0.273833 
8   -0.16495 
9   -0.274963 
10   -0.015116 
11   -0.012487 
12   0.012078 
13   0.145666 
14   0.148634 
15   0.150886 
16   0.147823 
17   0.149067 
18   0.145872 
19   0.15601 
20   0.152793 
21   0.140985 
22   0.143652 
23   0.152809 
24   0.148908 
25   0.149468 
26   0.153964 
27   0.144401 
28   0.139445 
 
$$$$ 
 
