PCCDB-ID:  72846 
public computational chemistry database (PCCDB) project, http://pccdb.org 
 
 25 27  0  0  0  0  0  0  0  0999 V2000 
   -3.6382    0.7064   -0.0493 C   0  0  0  0  0  0  0  0  0  0  0  0 
   -3.6283   -0.7145   -0.0321 C   0  0  0  0  0  0  0  0  0  0  0  0 
   -2.4571    1.4069   -0.0217 C   0  0  0  0  0  0  0  0  0  0  0  0 
   -2.4416   -1.4053    0.0125 C   0  0  0  0  0  0  0  0  0  0  0  0 
    0.0220    1.4160    0.0539 C   0  0  0  0  0  0  0  0  0  0  0  0 
    0.0381   -1.3965    0.0902 C   0  0  0  0  0  0  0  0  0  0  0  0 
    3.5292   -0.7502    0.1945 C   0  0  0  0  0  0  0  0  0  0  0  0 
   -1.2069    0.7258    0.0246 C   0  0  0  0  0  0  0  0  0  0  0  0 
   -1.1957   -0.7143    0.0428 C   0  0  0  0  0  0  0  0  0  0  0  0 
    1.2221    0.7267    0.0995 C   0  0  0  0  0  0  0  0  0  0  0  0 
    1.2425   -0.7068    0.1197 C   0  0  0  0  0  0  0  0  0  0  0  0 
    2.4905    1.4670    0.1314 C   0  0  0  0  0  0  0  0  0  0  0  0 
    4.9100    1.1984    0.2164 N   0  0  0  0  0  0  0  0  0  0  0  0 
    2.4349   -1.4269    0.1667 N   0  0  0  0  0  0  0  0  0  0  0  0 
    3.6172    0.6284    0.1792 N   0  0  0  0  0  0  0  0  0  0  0  0 
    2.6281    2.6844    0.1209 O   0  0  0  0  0  0  0  0  0  0  0  0 
   -4.5866    1.2351   -0.0846 H   0  0  0  0  0  0  0  0  0  0  0  0 
   -4.5707   -1.2550   -0.0549 H   0  0  0  0  0  0  0  0  0  0  0  0 
   -2.4570    2.4940   -0.0346 H   0  0  0  0  0  0  0  0  0  0  0  0 
   -2.4349   -2.4923    0.0254 H   0  0  0  0  0  0  0  0  0  0  0  0 
    0.0440    2.5019    0.0405 H   0  0  0  0  0  0  0  0  0  0  0  0 
    0.0650   -2.4821    0.1050 H   0  0  0  0  0  0  0  0  0  0  0  0 
    4.4961   -1.2448    0.2339 H   0  0  0  0  0  0  0  0  0  0  0  0 
    4.9843    1.8035   -0.6036 H   0  0  0  0  0  0  0  0  0  0  0  0 
    4.9207    1.8395    1.0119 H   0  0  0  0  0  0  0  0  0  0  0  0 
  1  2  2  0  0  0  0 
  1  3  1  0  0  0  0 
  2  4  1  0  0  0  0 
  3  8  2  0  0  0  0 
  4 20  1  0  0  0  0 
  4  9  2  0  0  0  0 
  5 10  2  0  0  0  0 
  6 22  1  0  0  0  0 
  6 11  2  0  0  0  0 
  7 23  1  0  0  0  0 
  8  9  1  0  0  0  0 
  8  5  1  0  0  0  0 
  9  6  1  0  0  0  0 
 10 11  1  0  0  0  0 
 10 12  1  0  0  0  0 
 11 14  1  0  0  0  0 
 12 15  1  0  0  0  0 
 13 25  1  0  0  0  0 
 14  7  2  0  0  0  0 
 15  7  1  0  0  0  0 
 15 13  1  0  0  0  0 
 16 12  2  0  0  0  0 
 17  1  1  0  0  0  0 
 18  2  1  0  0  0  0 
 19  3  1  0  0  0  0 
 21  5  1  0  0  0  0 
 24 13  1  0  0  0  0 
M  END 
>  <HBA> 
4 
 
>  <HBD> 
1 
 
>  <TPSA> 
60.91 
 
>  <cid> 
72846 
 
>  <dipole> 
0.8 
 
>  <excitation_energy_1> 
3.539 
 
>  <excitation_energy_2> 
3.98 
 
>  <excitation_energy_3> 
4.556 
 
>  <excitation_energy_4> 
4.714 
 
>  <homo_energy> 
-5.821 
 
>  <homo_lumo_gap> 
4.027 
 
>  <logP> 
1.845 
 
>  <lumo_energy> 
-1.793 
 
>  <melting_point> 
188.88 
 
>  <molecular_refractivity> 
63.65 
 
>  <oscillator_strength_1> 
0.0534 
 
>  <oscillator_strength_2> 
0.0145 
 
>  <oscillator_strength_3> 
0.0004 
 
>  <oscillator_strength_4> 
0.5737 
 
>  <open_babel_can_smiles> 
Nn1cnc2c(c1=O)cc1c(c2)cccc1 
 
>  <mulliken_charges> 
25 
1   -0.14043 
2   -0.132484 
3   -0.17936 
4   -0.18977 
5   -0.270044 
6   -0.250925 
7   0.250226 
8   0.138738 
9   0.154033 
10   0.059069 
11   0.247737 
12   0.57404 
13   -0.553112 
14   -0.50575 
15   -0.400764 
16   -0.518408 
17   0.136148 
18   0.136565 
19   0.139182 
20   0.138061 
21   0.165841 
22   0.146199 
23   0.180588 
24   0.337191 
25   0.337429 
 
>  <lowdin_charges> 
25 
1   -0.157638 
2   -0.149069 
3   -0.14599 
4   -0.152721 
5   -0.121443 
6   -0.155945 
7   -0.023466 
8   -0.003418 
9   0.010069 
10   -0.066372 
11   0.040148 
12   0.147262 
13   -0.434589 
14   -0.178816 
15   -0.026109 
16   -0.299405 
17   0.16183 
18   0.162005 
19   0.160409 
20   0.15981 
21   0.175528 
22   0.168924 
23   0.177968 
24   0.275373 
25   0.275654 
 
$$$$ 
 
