PCCDB-ID:  67422 
public computational chemistry database (PCCDB) project, http://pccdb.org 
 
 32 33  0  0  0  0  0  0  0  0999 V2000 
   -1.2435    0.7814   -0.8228 C   0  0  0  0  0  0  0  0  0  0  0  0 
    5.3629   -1.2982    4.9538 C   0  0  0  0  0  0  0  0  0  0  0  0 
   -0.4409    1.8099   -1.3250 C   0  0  0  0  0  0  0  0  0  0  0  0 
   -0.6282   -0.3339   -0.2565 C   0  0  0  0  0  0  0  0  0  0  0  0 
    5.1044    0.0611    4.7560 C   0  0  0  0  0  0  0  0  0  0  0  0 
    5.6313   -2.0968    3.8430 C   0  0  0  0  0  0  0  0  0  0  0  0 
    0.9452    1.7237   -1.2583 C   0  0  0  0  0  0  0  0  0  0  0  0 
    0.7624   -0.4347   -0.1888 C   0  0  0  0  0  0  0  0  0  0  0  0 
    5.1130    0.6065    3.4770 C   0  0  0  0  0  0  0  0  0  0  0  0 
    5.6432   -1.5606    2.5546 C   0  0  0  0  0  0  0  0  0  0  0  0 
    3.7148   -0.6547   -0.3805 C   0  0  0  0  0  0  0  0  0  0  0  0 
    5.1959   -0.3278   -0.1354 C   0  0  0  0  0  0  0  0  0  0  0  0 
    1.5732    0.6003   -0.6854 C   0  0  0  0  0  0  0  0  0  0  0  0 
    5.3874   -0.1925    2.3493 C   0  0  0  0  0  0  0  0  0  0  0  0 
    2.9722    0.5797   -0.5987 N   0  0  0  0  0  0  0  0  0  0  0  0 
    5.4535    0.4166    1.0882 N   0  0  0  0  0  0  0  0  0  0  0  0 
   -2.3260    0.8495   -0.8751 H   0  0  0  0  0  0  0  0  0  0  0  0 
    5.3531   -1.7239    5.9528 H   0  0  0  0  0  0  0  0  0  0  0  0 
   -0.8972    2.6883   -1.7746 H   0  0  0  0  0  0  0  0  0  0  0  0 
   -1.2332   -1.1476    0.1358 H   0  0  0  0  0  0  0  0  0  0  0  0 
    4.8879    0.7045    5.6052 H   0  0  0  0  0  0  0  0  0  0  0  0 
    5.8337   -3.1573    3.9722 H   0  0  0  0  0  0  0  0  0  0  0  0 
    1.5593    2.5349   -1.6456 H   0  0  0  0  0  0  0  0  0  0  0  0 
    1.2087   -1.3205    0.2497 H   0  0  0  0  0  0  0  0  0  0  0  0 
    4.9096    1.6665    3.3375 H   0  0  0  0  0  0  0  0  0  0  0  0 
    5.8624   -2.2129    1.7157 H   0  0  0  0  0  0  0  0  0  0  0  0 
    3.3208   -1.1526    0.5106 H   0  0  0  0  0  0  0  0  0  0  0  0 
    3.6181   -1.3626   -1.2235 H   0  0  0  0  0  0  0  0  0  0  0  0 
    5.5835    0.2669   -0.9745 H   0  0  0  0  0  0  0  0  0  0  0  0 
    5.7801   -1.2515   -0.1306 H   0  0  0  0  0  0  0  0  0  0  0  0 
    3.4039    1.1668   -1.3053 H   0  0  0  0  0  0  0  0  0  0  0  0 
    4.9771    1.3120    1.0785 H   0  0  0  0  0  0  0  0  0  0  0  0 
  1  4  2  0  0  0  0 
  2 18  1  0  0  0  0 
  3  7  2  0  0  0  0 
  3  1  1  0  0  0  0 
  4  8  1  0  0  0  0 
  4 20  1  0  0  0  0 
  5  2  1  0  0  0  0 
  5 21  1  0  0  0  0 
  6 22  1  0  0  0  0 
  6  2  2  0  0  0  0 
  7 13  1  0  0  0  0 
  8 24  1  0  0  0  0 
  9  5  2  0  0  0  0 
 10  6  1  0  0  0  0 
 11 12  1  0  0  0  0 
 11 27  1  0  0  0  0 
 12 30  1  0  0  0  0 
 12 16  1  0  0  0  0 
 13 15  1  0  0  0  0 
 13  8  2  0  0  0  0 
 14 10  2  0  0  0  0 
 14  9  1  0  0  0  0 
 15 11  1  0  0  0  0 
 16 14  1  0  0  0  0 
 17  1  1  0  0  0  0 
 19  3  1  0  0  0  0 
 23  7  1  0  0  0  0 
 25  9  1  0  0  0  0 
 26 10  1  0  0  0  0 
 28 11  1  0  0  0  0 
 29 12  1  0  0  0  0 
 31 15  1  0  0  0  0 
 32 16  1  0  0  0  0 
M  END 
>  <HBA> 
2 
 
>  <HBD> 
2 
 
>  <TPSA> 
24.06 
 
>  <cid> 
67422 
 
>  <dipole> 
1.79 
 
>  <excitation_energy_1> 
4.575 
 
>  <excitation_energy_2> 
4.588 
 
>  <excitation_energy_3> 
4.664 
 
>  <excitation_energy_4> 
4.731 
 
>  <homo_energy> 
-5.265 
 
>  <homo_lumo_gap> 
5.434 
 
>  <logP> 
3.357 
 
>  <lumo_energy> 
0.169 
 
>  <melting_point> 
98.32 
 
>  <molecular_refractivity> 
69.38 
 
>  <oscillator_strength_1> 
0.0322 
 
>  <oscillator_strength_2> 
0.0103 
 
>  <oscillator_strength_3> 
0.0164 
 
>  <oscillator_strength_4> 
0.0281 
 
>  <open_babel_can_smiles> 
C(Nc1ccccc1)CNc1ccccc1 
 
>  <mulliken_charges> 
32 
1   -0.136819 
2   -0.138168 
3   -0.133534 
4   -0.138419 
5   -0.132184 
6   -0.137384 
7   -0.189175 
8   -0.179186 
9   -0.190885 
10   -0.180793 
11   -0.114843 
12   -0.176172 
13   0.352454 
14   0.339353 
15   -0.6689 
16   -0.624748 
17   0.121449 
18   0.120335 
19   0.12514 
20   0.12601 
21   0.125292 
22   0.123545 
23   0.112619 
24   0.125936 
25   0.117106 
26   0.117691 
27   0.171616 
28   0.132156 
29   0.142645 
30   0.162975 
31   0.306497 
32   0.318391 
 
>  <lowdin_charges> 
32 
1   -0.184332 
2   -0.187785 
3   -0.14744 
4   -0.14607 
5   -0.147388 
6   -0.144152 
7   -0.201434 
8   -0.206436 
9   -0.195551 
10   -0.211722 
11   -0.213451 
12   -0.207159 
13   0.059688 
14   0.059453 
15   -0.310471 
16   -0.296228 
17   0.153122 
18   0.154088 
19   0.156542 
20   0.15719 
21   0.156934 
22   0.153138 
23   0.150891 
24   0.158566 
25   0.150567 
26   0.153845 
27   0.159782 
28   0.13308 
29   0.146294 
30   0.157504 
31   0.267405 
32   0.271532 
 
$$$$ 
 
