PCCDB-ID:  34715 
public computational chemistry database (PCCDB) project, http://pccdb.org 
 
 29 29  0  0  1  0  0  0  0  0999 V2000 
    2.4206    1.5280   -0.2129 C   0  0  0  0  0  0  0  0  0  0  0  0 
    3.9149   -4.3816   -0.1514 C   0  0  0  0  0  0  0  0  0  0  0  0 
    5.3870    0.1450   -0.4755 C   0  0  0  0  0  0  0  0  0  0  0  0 
    5.1972   -1.4967   -2.3468 C   0  0  0  0  0  0  0  0  0  0  0  0 
    2.3920    0.0082   -0.0030 C   0  0  0  0  0  0  0  0  0  0  0  0 
    2.5724   -2.3315   -0.9660 C   0  0  0  0  0  0  0  0  0  0  0  0 
    3.5540   -2.9154    0.0576 C   0  0  2  0  0  0  0  0  0  0  0  0 
    4.5868   -1.0453   -1.0071 C   0  0  0  0  0  0  0  0  0  0  0  0 
    3.0315   -0.8618   -1.1176 C   0  0  2  0  0  0  0  0  0  0  0  0 
    2.7301   -0.3286   -2.4085 O   0  0  0  0  0  0  0  0  0  0  0  0 
    4.7356   -2.0975   -0.0298 O   0  0  0  0  0  0  0  0  0  0  0  0 
    1.8662    2.0253    0.5912 H   0  0  0  0  0  0  0  0  0  0  0  0 
    1.9547    1.8044   -1.1637 H   0  0  0  0  0  0  0  0  0  0  0  0 
    3.4342    1.9341   -0.2181 H   0  0  0  0  0  0  0  0  0  0  0  0 
    3.0341   -5.0213   -0.0157 H   0  0  0  0  0  0  0  0  0  0  0  0 
    4.6782   -4.6923    0.5695 H   0  0  0  0  0  0  0  0  0  0  0  0 
    4.3111   -4.5435   -1.1600 H   0  0  0  0  0  0  0  0  0  0  0  0 
    5.3228    0.9981   -1.1582 H   0  0  0  0  0  0  0  0  0  0  0  0 
    6.4399   -0.1434   -0.3894 H   0  0  0  0  0  0  0  0  0  0  0  0 
    5.0461    0.4507    0.5168 H   0  0  0  0  0  0  0  0  0  0  0  0 
    5.1670   -0.6900   -3.0846 H   0  0  0  0  0  0  0  0  0  0  0  0 
    4.6721   -2.3567   -2.7711 H   0  0  0  0  0  0  0  0  0  0  0  0 
    6.2396   -1.7855   -2.1763 H   0  0  0  0  0  0  0  0  0  0  0  0 
    1.3383   -0.2971    0.0840 H   0  0  0  0  0  0  0  0  0  0  0  0 
    2.8522   -0.2525    0.9581 H   0  0  0  0  0  0  0  0  0  0  0  0 
    1.5292   -2.4207   -0.6428 H   0  0  0  0  0  0  0  0  0  0  0  0 
    2.6672   -2.8361   -1.9336 H   0  0  0  0  0  0  0  0  0  0  0  0 
    3.1490   -2.7941    1.0741 H   0  0  0  0  0  0  0  0  0  0  0  0 
    1.7648   -0.2569   -2.4763 H   0  0  0  0  0  0  0  0  0  0  0  0 
  1  5  1  0  0  0  0 
  1 12  1  0  0  0  0 
  2 15  1  0  0  0  0 
  2  7  1  0  0  0  0 
  2 16  1  0  0  0  0 
  3 19  1  0  0  0  0 
  3 20  1  0  0  0  0 
  4 23  1  0  0  0  0 
  4  8  1  0  0  0  0 
  5 24  1  0  0  0  0 
  5 25  1  0  0  0  0 
  6 26  1  0  0  0  0 
  6  7  1  0  0  0  0 
  7 28  1  1  0  0  0 
  8  3  1  0  0  0  0 
  8 11  1  0  0  0  0 
  9 10  1  6  0  0  0 
  9  8  1  0  0  0  0 
  9  6  1  0  0  0  0 
  9  5  1  0  0  0  0 
 11  7  1  0  0  0  0 
 13  1  1  0  0  0  0 
 14  1  1  0  0  0  0 
 17  2  1  0  0  0  0 
 18  3  1  0  0  0  0 
 21  4  1  0  0  0  0 
 22  4  1  0  0  0  0 
 27  6  1  0  0  0  0 
 29 10  1  0  0  0  0 
M  END 
>  <HBA> 
2 
 
>  <HBD> 
1 
 
>  <TPSA> 
29.46 
 
>  <cid> 
34715 
 
>  <dipole> 
2.19 
 
>  <excitation_energy_1> 
5.902 
 
>  <excitation_energy_2> 
6.311 
 
>  <excitation_energy_3> 
6.324 
 
>  <excitation_energy_4> 
6.548 
 
>  <homo_energy> 
-6.441 
 
>  <homo_lumo_gap> 
8.093 
 
>  <logP> 
1.715 
 
>  <lumo_energy> 
1.652 
 
>  <melting_point> 
25.74 
 
>  <molecular_refractivity> 
45.59 
 
>  <oscillator_strength_1> 
0.0079 
 
>  <oscillator_strength_2> 
0.0181 
 
>  <oscillator_strength_3> 
0.0146 
 
>  <oscillator_strength_4> 
0.0167 
 
>  <open_babel_can_smiles> 
CC[C@]1(O)C[C@H](OC1(C)C)C 
 
>  <mulliken_charges> 
29 
1   -0.439912 
2   -0.452506 
3   -0.461139 
4   -0.444286 
5   -0.307247 
6   -0.351459 
7   0.182048 
8   0.312826 
9   0.311492 
10   -0.650856 
11   -0.535036 
12   0.139881 
13   0.140837 
14   0.156853 
15   0.135802 
16   0.156372 
17   0.147721 
18   0.150593 
19   0.15119 
20   0.14895 
21   0.155909 
22   0.139477 
23   0.143015 
24   0.12152 
25   0.155857 
26   0.133289 
27   0.150236 
28   0.119041 
29   0.38953 
 
>  <lowdin_charges> 
29 
1   -0.449021 
2   -0.452118 
3   -0.446044 
4   -0.4535 
5   -0.291943 
6   -0.310311 
7   0.009565 
8   0.125273 
9   0.103267 
10   -0.446378 
11   -0.285327 
12   0.150605 
13   0.147542 
14   0.154702 
15   0.149763 
16   0.159 
17   0.150911 
18   0.15551 
19   0.155869 
20   0.153041 
21   0.159721 
22   0.149667 
23   0.151107 
24   0.136461 
25   0.155025 
26   0.145268 
27   0.152438 
28   0.12847 
29   0.34144 
 
$$$$ 
 
