PCCDB-ID:  62550 
public computational chemistry database (PCCDB) project, http://pccdb.org 
 
 27 28  0  0  0  0  0  0  0  0999 V2000 
   -1.2092    0.8455    1.2482 C   0  0  0  0  0  0  0  0  0  0  0  0 
    3.1225   -6.4522   -1.6379 C   0  0  0  0  0  0  0  0  0  0  0  0 
   -0.4007    0.0734    2.0836 C   0  0  0  0  0  0  0  0  0  0  0  0 
   -0.9403    0.8937   -0.1215 C   0  0  0  0  0  0  0  0  0  0  0  0 
    3.1402   -5.5270   -2.6839 C   0  0  0  0  0  0  0  0  0  0  0  0 
    3.4176   -6.0348   -0.3389 C   0  0  0  0  0  0  0  0  0  0  0  0 
    0.6740   -0.6545    1.5679 C   0  0  0  0  0  0  0  0  0  0  0  0 
    0.1333    0.1801   -0.6529 C   0  0  0  0  0  0  0  0  0  0  0  0 
    3.4459   -4.1890   -2.4352 C   0  0  0  0  0  0  0  0  0  0  0  0 
    3.7337   -4.7010   -0.0734 C   0  0  0  0  0  0  0  0  0  0  0  0 
    0.9303   -0.5849    0.1979 C   0  0  0  0  0  0  0  0  0  0  0  0 
    3.7360   -3.7930   -1.1319 C   0  0  0  0  0  0  0  0  0  0  0  0 
    3.5597   -1.9073    1.6063 O   0  0  0  0  0  0  0  0  0  0  0  0 
    1.9587   -1.3119   -0.4149 O   0  0  0  0  0  0  0  0  0  0  0  0 
    4.0959   -2.4501   -0.9453 O   0  0  0  0  0  0  0  0  0  0  0  0 
    3.4564   -1.4953    0.1885 P   0  0  0  0  0  0  0  0  0  0  0  0 
   -2.0442    1.4044    1.6606 H   0  0  0  0  0  0  0  0  0  0  0  0 
    2.8820   -7.4930   -1.8348 H   0  0  0  0  0  0  0  0  0  0  0  0 
   -0.6062    0.0273    3.1495 H   0  0  0  0  0  0  0  0  0  0  0  0 
   -1.5645    1.4902   -0.7811 H   0  0  0  0  0  0  0  0  0  0  0  0 
    2.9134   -5.8439   -3.6981 H   0  0  0  0  0  0  0  0  0  0  0  0 
    3.4090   -6.7501    0.4787 H   0  0  0  0  0  0  0  0  0  0  0  0 
    1.3030   -1.2630    2.2068 H   0  0  0  0  0  0  0  0  0  0  0  0 
    0.3601    0.2016   -1.7140 H   0  0  0  0  0  0  0  0  0  0  0  0 
    3.4634   -3.4519   -3.2312 H   0  0  0  0  0  0  0  0  0  0  0  0 
    3.9706   -4.3645    0.9295 H   0  0  0  0  0  0  0  0  0  0  0  0 
    4.1231   -0.3116   -0.1515 H   0  0  0  0  0  0  0  0  0  0  0  0 
  1 17  1  0  0  0  0 
  1  3  2  0  0  0  0 
  2  6  2  0  0  0  0 
  3 19  1  0  0  0  0 
  4  1  1  0  0  0  0 
  5  9  2  0  0  0  0 
  5  2  1  0  0  0  0 
  6 10  1  0  0  0  0 
  6 22  1  0  0  0  0 
  7  3  1  0  0  0  0 
  7 23  1  0  0  0  0 
  8  4  2  0  0  0  0 
  8 11  1  0  0  0  0 
  9 12  1  0  0  0  0 
 10 26  1  0  0  0  0 
 11  7  2  0  0  0  0 
 12 15  1  0  0  0  0 
 12 10  2  0  0  0  0 
 14 16  1  0  0  0  0 
 14 11  1  0  0  0  0 
 15 16  1  0  0  0  0 
 16 13  2  0  0  0  0 
 18  2  1  0  0  0  0 
 20  4  1  0  0  0  0 
 21  5  1  0  0  0  0 
 24  8  1  0  0  0  0 
 25  9  1  0  0  0  0 
 27 16  1  0  0  0  0 
M  END 
>  <HBA> 
3 
 
>  <HBD> 
1 
 
>  <TPSA> 
59.0 
 
>  <cid> 
62550 
 
>  <dipole> 
2.19 
 
>  <excitation_energy_1> 
5.254 
 
>  <excitation_energy_2> 
5.292 
 
>  <excitation_energy_3> 
5.762 
 
>  <excitation_energy_4> 
5.787 
 
>  <homo_energy> 
-6.574 
 
>  <homo_lumo_gap> 
6.335 
 
>  <logP> 
3.534 
 
>  <lumo_energy> 
-0.239 
 
>  <melting_point> 
51.08 
 
>  <molecular_refractivity> 
63.14 
 
>  <oscillator_strength_1> 
0.0071 
 
>  <oscillator_strength_2> 
0.0038 
 
>  <oscillator_strength_3> 
0.1263 
 
>  <oscillator_strength_4> 
0.0005 
 
>  <open_babel_can_smiles> 
O=P(Oc1ccccc1)Oc1ccccc1 
 
>  <mulliken_charges> 
27 
1   -0.12221 
2   -0.121105 
3   -0.142418 
4   -0.139326 
5   -0.140213 
6   -0.143293 
7   -0.168585 
8   -0.15698 
9   -0.150282 
10   -0.161076 
11   0.325954 
12   0.338108 
13   -0.549272 
14   -0.584394 
15   -0.577757 
16   1.029516 
17   0.133219 
18   0.133648 
19   0.140293 
20   0.136843 
21   0.13724 
22   0.14038 
23   0.19127 
24   0.144803 
25   0.146643 
26   0.184154 
27   -0.02516 
 
>  <lowdin_charges> 
27 
1   -0.164067 
2   -0.160078 
3   -0.143415 
4   -0.149226 
5   -0.145974 
6   -0.146348 
7   -0.183069 
8   -0.173831 
9   -0.170766 
10   -0.176789 
11   0.100996 
12   0.105667 
13   -0.584413 
14   -0.358797 
15   -0.344116 
16   0.9872 
17   0.161062 
18   0.159281 
19   0.161208 
20   0.163123 
21   0.161091 
22   0.163991 
23   0.191667 
24   0.167796 
25   0.171521 
26   0.186631 
27   0.019655 
 
$$$$ 
 
