PCCDB-ID:  32056 
public computational chemistry database (PCCDB) project, http://pccdb.org 
 
 33 34  0  0  1  0  0  0  0  0999 V2000 
    0.3390    1.5795    0.6107 C   0  0  0  0  0  0  0  0  0  0  0  0 
    1.8956    8.2345   -5.7265 C   0  0  0  0  0  0  0  0  0  0  0  0 
    1.3587    8.2696   -4.4383 C   0  0  0  0  0  0  0  0  0  0  0  0 
    2.5626    7.0873   -6.1604 C   0  0  0  0  0  0  0  0  0  0  0  0 
    1.4866    7.1682   -3.5934 C   0  0  0  0  0  0  0  0  0  0  0  0 
    2.6915    5.9870   -5.3141 C   0  0  0  0  0  0  0  0  0  0  0  0 
    2.6323    3.8924   -0.8931 C   0  0  0  0  0  0  0  0  0  0  0  0 
    2.3358    2.4228   -2.7642 C   0  0  0  0  0  0  0  0  0  0  0  0 
    2.5076    4.9947   -1.7364 C   0  0  0  0  0  0  0  0  0  0  0  0 
    2.2081    3.5210   -3.6102 C   0  0  0  0  0  0  0  0  0  0  0  0 
    2.6520    1.3819   -0.4753 C   0  0  0  0  0  0  0  0  0  0  0  0 
    1.2995    0.6766   -0.1650 C   0  0  1  0  0  0  0  0  0  0  0  0 
    2.5477    2.5840   -1.3871 C   0  0  0  0  0  0  0  0  0  0  0  0 
    2.1555    6.0062   -4.0150 C   0  0  0  0  0  0  0  0  0  0  0  0 
    2.2903    4.8333   -3.1142 C   0  0  0  0  0  0  0  0  0  0  0  0 
    1.4582   -0.5854    0.5701 N   0  0  0  0  0  0  0  0  0  0  0  0 
    0.1347    2.5063    0.0663 H   0  0  0  0  0  0  0  0  0  0  0  0 
    0.7653    1.8514    1.5866 H   0  0  0  0  0  0  0  0  0  0  0  0 
   -0.6055    1.0574    0.7902 H   0  0  0  0  0  0  0  0  0  0  0  0 
    1.7953    9.0925   -6.3857 H   0  0  0  0  0  0  0  0  0  0  0  0 
    0.8304    9.1542   -4.0919 H   0  0  0  0  0  0  0  0  0  0  0  0 
    2.9919    7.0510   -7.1583 H   0  0  0  0  0  0  0  0  0  0  0  0 
    1.0413    7.1970   -2.6028 H   0  0  0  0  0  0  0  0  0  0  0  0 
    3.2358    5.1101   -5.6536 H   0  0  0  0  0  0  0  0  0  0  0  0 
    2.8122    4.0514    0.1679 H   0  0  0  0  0  0  0  0  0  0  0  0 
    2.2678    1.4200   -3.1814 H   0  0  0  0  0  0  0  0  0  0  0  0 
    2.6078    5.9952   -1.3246 H   0  0  0  0  0  0  0  0  0  0  0  0 
    2.0213    3.3604   -4.6685 H   0  0  0  0  0  0  0  0  0  0  0  0 
    3.3188    0.6362   -0.9311 H   0  0  0  0  0  0  0  0  0  0  0  0 
    3.1151    1.6744    0.4777 H   0  0  0  0  0  0  0  0  0  0  0  0 
    0.8306    0.4221   -1.1257 H   0  0  0  0  0  0  0  0  0  0  0  0 
    1.8993   -0.3973    1.4715 H   0  0  0  0  0  0  0  0  0  0  0  0 
    2.0997   -1.2000    0.0688 H   0  0  0  0  0  0  0  0  0  0  0  0 
  1 19  1  0  0  0  0 
  1 18  1  0  0  0  0 
  2  3  1  0  0  0  0 
  3 21  1  0  0  0  0 
  3  5  2  0  0  0  0 
  4  2  2  0  0  0  0 
  4  6  1  0  0  0  0 
  5 23  1  0  0  0  0 
  6 14  2  0  0  0  0 
  7 25  1  0  0  0  0 
  8 13  2  0  0  0  0 
  9 27  1  0  0  0  0 
  9  7  2  0  0  0  0 
 10 15  2  0  0  0  0 
 10  8  1  0  0  0  0 
 11 12  1  0  0  0  0 
 11 30  1  0  0  0  0 
 12 31  1  6  0  0  0 
 12 16  1  0  0  0  0 
 12  1  1  0  0  0  0 
 13  7  1  0  0  0  0 
 13 11  1  0  0  0  0 
 14  5  1  0  0  0  0 
 14 15  1  0  0  0  0 
 15  9  1  0  0  0  0 
 16 32  1  0  0  0  0 
 17  1  1  0  0  0  0 
 20  2  1  0  0  0  0 
 22  4  1  0  0  0  0 
 24  6  1  0  0  0  0 
 26  8  1  0  0  0  0 
 28 10  1  0  0  0  0 
 29 11  1  0  0  0  0 
 33 16  1  0  0  0  0 
M  END 
>  <HBA> 
1 
 
>  <HBD> 
1 
 
>  <TPSA> 
26.02 
 
>  <cid> 
32056 
 
>  <dipole> 
1.19 
 
>  <excitation_energy_1> 
4.644 
 
>  <excitation_energy_2> 
4.793 
 
>  <excitation_energy_3> 
4.905 
 
>  <excitation_energy_4> 
5.198 
 
>  <homo_energy> 
-5.842 
 
>  <homo_lumo_gap> 
5.157 
 
>  <logP> 
3.944 
 
>  <lumo_energy> 
-0.686 
 
>  <melting_point> 
98.35 
 
>  <molecular_refractivity> 
69.17 
 
>  <oscillator_strength_1> 
0.578 
 
>  <oscillator_strength_2> 
0.0068 
 
>  <oscillator_strength_3> 
0.0004 
 
>  <oscillator_strength_4> 
0.0239 
 
>  <open_babel_can_smiles> 
C[C@@H](Cc1ccc(cc1)c1ccccc1)N 
 
>  <mulliken_charges> 
33 
1   -0.441399 
2   -0.127206 
3   -0.133629 
4   -0.133581 
5   -0.174272 
6   -0.174366 
7   -0.191602 
8   -0.188882 
9   -0.174107 
10   -0.173837 
11   -0.357075 
12   0.030169 
13   0.182614 
14   0.090327 
15   0.087232 
16   -0.701877 
17   0.15608 
18   0.127975 
19   0.160568 
20   0.12892 
21   0.129748 
22   0.129606 
23   0.13138 
24   0.131173 
25   0.12375 
26   0.123112 
27   0.131541 
28   0.131674 
29   0.133118 
30   0.128958 
31   0.135516 
32   0.287472 
33   0.290899 
 
>  <lowdin_charges> 
33 
1   -0.449348 
2   -0.159738 
3   -0.155089 
4   -0.153497 
5   -0.16092 
6   -0.162702 
7   -0.164558 
8   -0.165404 
9   -0.160132 
10   -0.157204 
11   -0.294177 
12   -0.062092 
13   -0.003704 
14   -0.000873 
15   -0.005916 
16   -0.548552 
17   0.158156 
18   0.140843 
19   0.159889 
20   0.158285 
21   0.158227 
22   0.156836 
23   0.158075 
24   0.159219 
25   0.153189 
26   0.153678 
27   0.158556 
28   0.157499 
29   0.147062 
30   0.143056 
31   0.139676 
32   0.249588 
33   0.252073 
 
$$$$ 
 
