PCCDB-ID:  7916 
public computational chemistry database (PCCDB) project, http://pccdb.org 
 
 15 14  0  0  0  0  0  0  0  0999 V2000 
    0.6800   -0.2815   -0.2179 C   0  0  0  0  0  0  0  0  0  0  0  0 
    1.9309   -1.2149   -2.2112 C   0  0  0  0  0  0  0  0  0  0  0  0 
    5.1842    0.1377    0.4205 C   0  0  0  0  0  0  0  0  0  0  0  0 
    1.8026   -0.6425   -0.8326 C   0  0  0  0  0  0  0  0  0  0  0  0 
    3.9864    0.2681   -0.4899 C   0  0  0  0  0  0  0  0  0  0  0  0 
    3.8901    1.0227   -1.4280 O   0  0  0  0  0  0  0  0  0  0  0  0 
    3.0002   -0.5886   -0.0907 O   0  0  0  0  0  0  0  0  0  0  0  0 
   -0.2769   -0.3752   -0.7192 H   0  0  0  0  0  0  0  0  0  0  0  0 
    0.6917    0.1101    0.7933 H   0  0  0  0  0  0  0  0  0  0  0  0 
    0.9460   -1.3175   -2.6743 H   0  0  0  0  0  0  0  0  0  0  0  0 
    2.4030   -2.2048   -2.1725 H   0  0  0  0  0  0  0  0  0  0  0  0 
    2.5515   -0.5699   -2.8405 H   0  0  0  0  0  0  0  0  0  0  0  0 
    5.9886    0.7761    0.0541 H   0  0  0  0  0  0  0  0  0  0  0  0 
    5.5180   -0.9037    0.4640 H   0  0  0  0  0  0  0  0  0  0  0  0 
    4.9111    0.4351    1.4387 H   0  0  0  0  0  0  0  0  0  0  0  0 
  1  9  1  0  0  0  0 
  2 11  1  0  0  0  0 
  2  4  1  0  0  0  0 
  3 14  1  0  0  0  0 
  3 15  1  0  0  0  0 
  4  1  2  0  0  0  0 
  4  7  1  0  0  0  0 
  5  7  1  0  0  0  0 
  5  3  1  0  0  0  0 
  6  5  2  0  0  0  0 
  8  1  1  0  0  0  0 
 10  2  1  0  0  0  0 
 12  2  1  0  0  0  0 
 13  3  1  0  0  0  0 
M  END 
>  <HBA> 
2 
 
>  <HBD> 
0 
 
>  <TPSA> 
26.3 
 
>  <cid> 
7916 
 
>  <dipole> 
1.63 
 
>  <excitation_energy_1> 
5.564 
 
>  <excitation_energy_2> 
6.13 
 
>  <excitation_energy_3> 
6.382 
 
>  <excitation_energy_4> 
6.692 
 
>  <homo_energy> 
-6.8 
 
>  <homo_lumo_gap> 
6.836 
 
>  <logP> 
1.083 
 
>  <lumo_energy> 
0.035 
 
>  <melting_point> 
-30.64 
 
>  <molecular_refractivity> 
26.96 
 
>  <oscillator_strength_1> 
0.0178 
 
>  <oscillator_strength_2> 
0.0359 
 
>  <oscillator_strength_3> 
0.0068 
 
>  <oscillator_strength_4> 
0.176 
 
>  <open_babel_can_smiles> 
CC(=C)OC(=O)C 
 
>  <mulliken_charges> 
15 
1   -0.391186 
2   -0.521091 
3   -0.522945 
4   0.409098 
5   0.596617 
6   -0.452263 
7   -0.487859 
8   0.147276 
9   0.150254 
10   0.160227 
11   0.163157 
12   0.196274 
13   0.184253 
14   0.182459 
15   0.185727 
 
>  <lowdin_charges> 
15 
1   -0.364135 
2   -0.451686 
3   -0.463108 
4   0.118868 
5   0.207536 
6   -0.250217 
7   -0.175277 
8   0.168207 
9   0.168413 
10   0.164944 
11   0.162317 
12   0.180002 
13   0.177558 
14   0.176941 
15   0.179637 
 
$$$$ 
 
