PCCDB-ID:  23635 
public computational chemistry database (PCCDB) project, http://pccdb.org 
 
 30 31  0  0  0  0  0  0  0  0999 V2000 
    0.7946    0.1203   -2.0451 C   0  0  0  0  0  0  0  0  0  0  0  0 
    2.3182    0.2875   -2.0276 C   0  0  0  0  0  0  0  0  0  0  0  0 
    5.9597    3.2527    0.2349 C   0  0  0  0  0  0  0  0  0  0  0  0 
    5.5219    2.3114    1.1690 C   0  0  0  0  0  0  0  0  0  0  0  0 
    5.9473    2.9281   -1.1218 C   0  0  0  0  0  0  0  0  0  0  0  0 
    5.0773    1.0591    0.7458 C   0  0  0  0  0  0  0  0  0  0  0  0 
    5.5043    1.6715   -1.5402 C   0  0  0  0  0  0  0  0  0  0  0  0 
    3.0032   -0.6968   -1.0710 C   0  0  0  0  0  0  0  0  0  0  0  0 
    5.1820   -1.2942   -2.3182 C   0  0  0  0  0  0  0  0  0  0  0  0 
    5.1311   -1.8811   -0.2959 C   0  0  0  0  0  0  0  0  0  0  0  0 
    5.0627    0.7162   -0.6149 C   0  0  0  0  0  0  0  0  0  0  0  0 
    4.5493   -0.6413   -1.0486 C   0  0  0  0  0  0  0  0  0  0  0  0 
    5.2460   -2.5858   -1.5942 N   0  0  0  0  0  0  0  0  0  0  0  0 
    0.3228    0.8351   -2.7290 H   0  0  0  0  0  0  0  0  0  0  0  0 
    0.3670    0.2824   -1.0479 H   0  0  0  0  0  0  0  0  0  0  0  0 
    0.5088   -0.8886   -2.3669 H   0  0  0  0  0  0  0  0  0  0  0  0 
    2.5712    1.3162   -1.7431 H   0  0  0  0  0  0  0  0  0  0  0  0 
    2.7087    0.1457   -3.0451 H   0  0  0  0  0  0  0  0  0  0  0  0 
    6.3085    4.2285    0.5621 H   0  0  0  0  0  0  0  0  0  0  0  0 
    5.5293    2.5512    2.2293 H   0  0  0  0  0  0  0  0  0  0  0  0 
    6.2847    3.6528   -1.8586 H   0  0  0  0  0  0  0  0  0  0  0  0 
    4.7407    0.3338    1.4836 H   0  0  0  0  0  0  0  0  0  0  0  0 
    5.5025    1.4331   -2.6008 H   0  0  0  0  0  0  0  0  0  0  0  0 
    2.7106   -1.7229   -1.3309 H   0  0  0  0  0  0  0  0  0  0  0  0 
    2.6383   -0.5159   -0.0492 H   0  0  0  0  0  0  0  0  0  0  0  0 
    6.1638   -0.8589   -2.5566 H   0  0  0  0  0  0  0  0  0  0  0  0 
    4.5759   -1.3197   -3.2325 H   0  0  0  0  0  0  0  0  0  0  0  0 
    4.4752   -2.3777    0.4313 H   0  0  0  0  0  0  0  0  0  0  0  0 
    6.0918   -1.6510    0.1880 H   0  0  0  0  0  0  0  0  0  0  0  0 
    6.1144   -3.1015   -1.7221 H   0  0  0  0  0  0  0  0  0  0  0  0 
  1  2  1  0  0  0  0 
  1 15  1  0  0  0  0 
  2 17  1  0  0  0  0 
  2  8  1  0  0  0  0 
  3 19  1  0  0  0  0 
  3  4  2  0  0  0  0 
  4 20  1  0  0  0  0 
  5  3  1  0  0  0  0 
  6  4  1  0  0  0  0 
  6 22  1  0  0  0  0 
  7  5  2  0  0  0  0 
  7 11  1  0  0  0  0 
  8 12  1  0  0  0  0 
  8 25  1  0  0  0  0 
  9 13  1  0  0  0  0 
  9 12  1  0  0  0  0 
 10 29  1  0  0  0  0 
 10 28  1  0  0  0  0 
 11  6  2  0  0  0  0 
 12 11  1  0  0  0  0 
 12 10  1  0  0  0  0 
 13 10  1  0  0  0  0 
 14  1  1  0  0  0  0 
 16  1  1  0  0  0  0 
 18  2  1  0  0  0  0 
 21  5  1  0  0  0  0 
 23  7  1  0  0  0  0 
 24  8  1  0  0  0  0 
 26  9  1  0  0  0  0 
 27  9  1  0  0  0  0 
 30 13  1  0  0  0  0 
M  END 
>  <HBA> 
1 
 
>  <HBD> 
1 
 
>  <TPSA> 
12.03 
 
>  <cid> 
23635 
 
>  <dipole> 
1.12 
 
>  <excitation_energy_1> 
5.121 
 
>  <excitation_energy_2> 
5.24 
 
>  <excitation_energy_3> 
5.364 
 
>  <excitation_energy_4> 
5.463 
 
>  <homo_energy> 
-5.943 
 
>  <homo_lumo_gap> 
5.959 
 
>  <logP> 
2.656 
 
>  <lumo_energy> 
0.016 
 
>  <melting_point> 
60.53 
 
>  <molecular_refractivity> 
59.93 
 
>  <oscillator_strength_1> 
0.0031 
 
>  <oscillator_strength_2> 
0.0146 
 
>  <oscillator_strength_3> 
0.0001 
 
>  <oscillator_strength_4> 
0.0001 
 
>  <open_babel_can_smiles> 
CCCC1(CNC1)c1ccccc1 
 
>  <mulliken_charges> 
30 
1   -0.441487 
2   -0.258994 
3   -0.130518 
4   -0.130619 
5   -0.130951 
6   -0.179635 
7   -0.1827 
8   -0.256917 
9   -0.141531 
10   -0.13768 
11   0.140198 
12   -0.020354 
13   -0.564398 
14   0.141146 
15   0.141471 
16   0.142577 
17   0.145485 
18   0.12912 
19   0.127362 
20   0.128128 
21   0.127924 
22   0.126641 
23   0.127848 
24   0.15048 
25   0.128729 
26   0.125469 
27   0.138458 
28   0.13469 
29   0.127454 
30   0.292605 
 
>  <lowdin_charges> 
30 
1   -0.443325 
2   -0.275643 
3   -0.161721 
4   -0.153042 
5   -0.157199 
6   -0.169319 
7   -0.168673 
8   -0.267015 
9   -0.207743 
10   -0.205506 
11   -0.001778 
12   0.000509 
13   -0.377443 
14   0.15027 
15   0.145786 
16   0.145946 
17   0.146005 
18   0.137019 
19   0.156427 
20   0.155177 
21   0.157945 
22   0.156823 
23   0.154678 
24   0.151377 
25   0.139714 
26   0.131566 
27   0.138485 
28   0.138971 
29   0.132313 
30   0.249396 
 
$$$$ 
 
