PCCDB-ID:  25792 
public computational chemistry database (PCCDB) project, http://pccdb.org 
 
 26 26  0  0  0  0  0  0  0  0999 V2000 
    5.3798   -4.0518    0.5775 C   0  0  0  0  0  0  0  0  0  0  0  0 
    4.3092    0.6909    3.4105 C   0  0  0  0  0  0  0  0  0  0  0  0 
    4.7063   -3.2718   -0.5395 C   0  0  0  0  0  0  0  0  0  0  0  0 
    2.9282    2.0655    0.3145 C   0  0  0  0  0  0  0  0  0  0  0  0 
    4.7361    0.3299    0.3728 C   0  0  0  0  0  0  0  0  0  0  0  0 
    3.5695    1.4287    2.3446 C   0  0  0  0  0  0  0  0  0  0  0  0 
    2.2279    2.7054    1.3057 C   0  0  0  0  0  0  0  0  0  0  0  0 
    4.2303   -1.1163    0.3626 C   0  0  0  0  0  0  0  0  0  0  0  0 
    2.6221    2.3166    2.5513 N   0  0  0  0  0  0  0  0  0  0  0  0 
    3.8009    1.2480    0.9881 N   0  0  0  0  0  0  0  0  0  0  0  0 
    1.1959    3.6860    1.0814 N   0  0  0  0  0  0  0  0  0  0  0  0 
    3.2913   -1.5239    1.0050 O   0  0  0  0  0  0  0  0  0  0  0  0 
    0.9328    3.9382   -0.1020 O   0  0  0  0  0  0  0  0  0  0  0  0 
    0.6547    4.1997    2.0545 O   0  0  0  0  0  0  0  0  0  0  0  0 
    5.0094   -1.8503   -0.4472 O   0  0  0  0  0  0  0  0  0  0  0  0 
    5.1984   -5.1234    0.4384 H   0  0  0  0  0  0  0  0  0  0  0  0 
    4.9765   -3.7621    1.5520 H   0  0  0  0  0  0  0  0  0  0  0  0 
    6.4616   -3.8838    0.5749 H   0  0  0  0  0  0  0  0  0  0  0  0 
    3.9628    1.0549    4.3792 H   0  0  0  0  0  0  0  0  0  0  0  0 
    5.3932    0.8526    3.3503 H   0  0  0  0  0  0  0  0  0  0  0  0 
    4.1195   -0.3865    3.3504 H   0  0  0  0  0  0  0  0  0  0  0  0 
    3.6214   -3.3957   -0.5194 H   0  0  0  0  0  0  0  0  0  0  0  0 
    5.0882   -3.5585   -1.5215 H   0  0  0  0  0  0  0  0  0  0  0  0 
    2.8789    2.1287   -0.7605 H   0  0  0  0  0  0  0  0  0  0  0  0 
    4.9384    0.6522   -0.6513 H   0  0  0  0  0  0  0  0  0  0  0  0 
    5.6921    0.3560    0.9071 H   0  0  0  0  0  0  0  0  0  0  0  0 
  1 17  1  0  0  0  0 
  2 19  1  0  0  0  0 
  3 22  1  0  0  0  0 
  3 15  1  0  0  0  0 
  3  1  1  0  0  0  0 
  4 10  1  0  0  0  0 
  4  7  2  0  0  0  0 
  5 26  1  0  0  0  0 
  5 10  1  0  0  0  0 
  6  9  2  0  0  0  0 
  6  2  1  0  0  0  0 
  7  9  1  0  0  0  0 
  8  5  1  0  0  0  0 
  8 12  2  0  0  0  0 
 10  6  1  0  0  0  0 
 11  7  1  0  0  0  0 
 11 14  2  0  0  0  0 
 13 11  2  0  0  0  0 
 15  8  1  0  0  0  0 
 16  1  1  0  0  0  0 
 18  1  1  0  0  0  0 
 20  2  1  0  0  0  0 
 21  2  1  0  0  0  0 
 23  3  1  0  0  0  0 
 24  4  1  0  0  0  0 
 25  5  1  0  0  0  0 
M  END 
>  <HBA> 
4 
 
>  <HBD> 
0 
 
>  <TPSA> 
89.94 
 
>  <cid> 
25792 
 
>  <dipole> 
9.95 
 
>  <excitation_energy_1> 
3.816 
 
>  <excitation_energy_2> 
4.313 
 
>  <excitation_energy_3> 
4.345 
 
>  <excitation_energy_4> 
5.009 
 
>  <homo_energy> 
-6.776 
 
>  <homo_lumo_gap> 
5.007 
 
>  <logP> 
1.186 
 
>  <lumo_energy> 
-1.769 
 
>  <melting_point> 
76.07 
 
>  <molecular_refractivity> 
52.98 
 
>  <oscillator_strength_1> 
0.0 
 
>  <oscillator_strength_2> 
0.1589 
 
>  <oscillator_strength_3> 
0.0003 
 
>  <oscillator_strength_4> 
0.0005 
 
>  <open_babel_can_smiles> 
CCOC(=O)Cn1cc(nc1C)N(=O)=O 
 
>  <mulliken_charges> 
26 
1   -0.465208 
2   -0.549124 
3   -0.052281 
4   0.051527 
5   -0.266774 
6   0.513681 
7   0.388898 
8   0.630781 
9   -0.478904 
10   -0.419414 
11   0.347352 
12   -0.453172 
13   -0.421666 
14   -0.384194 
15   -0.455378 
16   0.162772 
17   0.176876 
18   0.162355 
19   0.204239 
20   0.161442 
21   0.19102 
22   0.181747 
23   0.165138 
24   0.193254 
25   0.207344 
26   0.207689 
 
>  <lowdin_charges> 
26 
1   -0.450932 
2   -0.448139 
3   -0.120132 
4   -0.127489 
5   -0.22193 
6   0.074636 
7   -0.004032 
8   0.184316 
9   -0.15878 
10   0.003505 
11   0.309504 
12   -0.246262 
13   -0.273658 
14   -0.228396 
15   -0.188877 
16   0.16433 
17   0.165525 
18   0.157113 
19   0.189958 
20   0.159797 
21   0.174791 
22   0.162311 
23   0.158687 
24   0.190218 
25   0.187706 
26   0.18623 
 
$$$$ 
 
