PCCDB-ID:  17091 
public computational chemistry database (PCCDB) project, http://pccdb.org 
 
 23 24  0  0  0  0  0  0  0  0999 V2000 
    0.7732    0.1181    0.1084 C   0  0  0  0  0  0  0  0  0  0  0  0 
    2.1942   -2.5498    0.0719 C   0  0  0  0  0  0  0  0  0  0  0  0 
    6.5297   -2.3525   -0.0968 C   0  0  0  0  0  0  0  0  0  0  0  0 
    7.1920   -1.1023   -0.1309 C   0  0  0  0  0  0  0  0  0  0  0  0 
    5.1541   -2.4152   -0.0434 C   0  0  0  0  0  0  0  0  0  0  0  0 
    6.4624    0.0645   -0.1113 C   0  0  0  0  0  0  0  0  0  0  0  0 
    3.0652    1.1702    0.0154 C   0  0  0  0  0  0  0  0  0  0  0  0 
    2.2782   -0.0156    0.0517 C   0  0  0  0  0  0  0  0  0  0  0  0 
    2.9376   -1.2361    0.0335 C   0  0  0  0  0  0  0  0  0  0  0  0 
    4.3685   -1.2302   -0.0216 C   0  0  0  0  0  0  0  0  0  0  0  0 
    5.0443    0.0306   -0.0559 C   0  0  0  0  0  0  0  0  0  0  0  0 
    4.3768    1.2211   -0.0360 N   0  0  0  0  0  0  0  0  0  0  0  0 
    0.4810    1.1729    0.0982 H   0  0  0  0  0  0  0  0  0  0  0  0 
    0.3534   -0.3283    1.0182 H   0  0  0  0  0  0  0  0  0  0  0  0 
    0.2834   -0.3648   -0.7459 H   0  0  0  0  0  0  0  0  0  0  0  0 
    1.1129   -2.4087    0.1077 H   0  0  0  0  0  0  0  0  0  0  0  0 
    2.4817   -3.1418    0.9498 H   0  0  0  0  0  0  0  0  0  0  0  0 
    2.4215   -3.1600   -0.8111 H   0  0  0  0  0  0  0  0  0  0  0  0 
    7.1121   -3.2699   -0.1114 H   0  0  0  0  0  0  0  0  0  0  0  0 
    8.2773   -1.0687   -0.1728 H   0  0  0  0  0  0  0  0  0  0  0  0 
    4.6643   -3.3832   -0.0154 H   0  0  0  0  0  0  0  0  0  0  0  0 
    6.9373    1.0404   -0.1360 H   0  0  0  0  0  0  0  0  0  0  0  0 
    2.5494    2.1319    0.0311 H   0  0  0  0  0  0  0  0  0  0  0  0 
  1 14  1  0  0  0  0 
  2 16  1  0  0  0  0 
  2 17  1  0  0  0  0 
  3  5  2  0  0  0  0 
  4  6  2  0  0  0  0 
  4  3  1  0  0  0  0 
  5 10  1  0  0  0  0 
  5 21  1  0  0  0  0 
  6 11  1  0  0  0  0 
  7 23  1  0  0  0  0 
  7  8  2  0  0  0  0 
  8  1  1  0  0  0  0 
  9  8  1  0  0  0  0 
  9  2  1  0  0  0  0 
 10  9  2  0  0  0  0 
 11 12  2  0  0  0  0 
 11 10  1  0  0  0  0 
 12  7  1  0  0  0  0 
 13  1  1  0  0  0  0 
 15  1  1  0  0  0  0 
 18  2  1  0  0  0  0 
 19  3  1  0  0  0  0 
 20  4  1  0  0  0  0 
 22  6  1  0  0  0  0 
M  END 
>  <HBA> 
1 
 
>  <HBD> 
0 
 
>  <TPSA> 
12.89 
 
>  <cid> 
17091 
 
>  <dipole> 
2.58 
 
>  <excitation_energy_1> 
4.272 
 
>  <excitation_energy_2> 
4.289 
 
>  <excitation_energy_3> 
4.44 
 
>  <excitation_energy_4> 
5.285 
 
>  <homo_energy> 
-6.063 
 
>  <homo_lumo_gap> 
4.787 
 
>  <logP> 
2.852 
 
>  <lumo_energy> 
-1.276 
 
>  <melting_point> 
72.83 
 
>  <molecular_refractivity> 
51.67 
 
>  <oscillator_strength_1> 
0.0016 
 
>  <oscillator_strength_2> 
0.0601 
 
>  <oscillator_strength_3> 
0.0357 
 
>  <oscillator_strength_4> 
0.0 
 
>  <open_babel_can_smiles> 
Cc1cnc2c(c1C)cccc2 
 
>  <mulliken_charges> 
23 
1   -0.545813 
2   -0.539829 
3   -0.129526 
4   -0.138678 
5   -0.205358 
6   -0.141094 
7   -0.004456 
8   0.094718 
9   0.105472 
10   0.111304 
11   0.231181 
12   -0.49647 
13   0.161581 
14   0.165829 
15   0.1657 
16   0.162333 
17   0.170206 
18   0.170021 
19   0.13033 
20   0.132194 
21   0.127961 
22   0.142422 
23   0.129972 
 
>  <lowdin_charges> 
23 
1   -0.444625 
2   -0.44712 
3   -0.155702 
4   -0.153841 
5   -0.165688 
6   -0.150205 
7   -0.097955 
8   -0.034917 
9   0.012953 
10   -0.022636 
11   0.038556 
12   -0.151264 
13   0.159083 
14   0.161901 
15   0.162204 
16   0.161713 
17   0.166094 
18   0.16589 
19   0.158936 
20   0.157657 
21   0.158941 
22   0.168689 
23   0.151335 
 
$$$$ 
 
