PCCDB-ID:  66899 
public computational chemistry database (PCCDB) project, http://pccdb.org 
 
 26 26  0  0  0  0  0  0  0  0999 V2000 
    5.9347   -1.4167    1.3099 C   0  0  0  0  0  0  0  0  0  0  0  0 
    1.7055   -5.6733    0.3592 C   0  0  0  0  0  0  0  0  0  0  0  0 
    2.4948   -5.1834    1.5833 C   0  0  0  0  0  0  0  0  0  0  0  0 
    1.8625   -4.7130   -0.8301 C   0  0  0  0  0  0  0  0  0  0  0  0 
    2.1122   -3.7422    1.9608 C   0  0  0  0  0  0  0  0  0  0  0  0 
    1.4742   -3.2760   -0.4430 C   0  0  0  0  0  0  0  0  0  0  0  0 
    3.7162   -2.4300    0.4460 C   0  0  0  0  0  0  0  0  0  0  0  0 
    4.4289   -1.5541    1.4739 C   0  0  0  0  0  0  0  0  0  0  0  0 
    2.2494   -2.7482    0.7844 C   0  0  0  0  0  0  0  0  0  0  0  0 
    3.8350   -0.9848    2.3707 O   0  0  0  0  0  0  0  0  0  0  0  0 
    6.4217   -2.3695    1.5556 H   0  0  0  0  0  0  0  0  0  0  0  0 
    6.3125   -0.6402    1.9782 H   0  0  0  0  0  0  0  0  0  0  0  0 
    6.2017   -1.1809    0.2727 H   0  0  0  0  0  0  0  0  0  0  0  0 
    0.6399   -5.7420    0.6248 H   0  0  0  0  0  0  0  0  0  0  0  0 
    2.0220   -6.6859    0.0778 H   0  0  0  0  0  0  0  0  0  0  0  0 
    3.5718   -5.2461    1.3687 H   0  0  0  0  0  0  0  0  0  0  0  0 
    2.3185   -5.8478    2.4390 H   0  0  0  0  0  0  0  0  0  0  0  0 
    1.2466   -5.0501   -1.6737 H   0  0  0  0  0  0  0  0  0  0  0  0 
    2.9039   -4.7369   -1.1831 H   0  0  0  0  0  0  0  0  0  0  0  0 
    2.7039   -3.3930    2.8143 H   0  0  0  0  0  0  0  0  0  0  0  0 
    1.0637   -3.7362    2.2918 H   0  0  0  0  0  0  0  0  0  0  0  0 
    0.4002   -3.2556   -0.2078 H   0  0  0  0  0  0  0  0  0  0  0  0 
    1.6161   -2.6007   -1.2979 H   0  0  0  0  0  0  0  0  0  0  0  0 
    4.3162   -3.3360    0.2857 H   0  0  0  0  0  0  0  0  0  0  0  0 
    3.7710   -1.8859   -0.5111 H   0  0  0  0  0  0  0  0  0  0  0  0 
    1.7961   -1.8004    1.0982 H   0  0  0  0  0  0  0  0  0  0  0  0 
  1  8  1  0  0  0  0 
  1 11  1  0  0  0  0 
  1 12  1  0  0  0  0 
  2 14  1  0  0  0  0 
  2  3  1  0  0  0  0 
  3  5  1  0  0  0  0 
  3 17  1  0  0  0  0 
  4  6  1  0  0  0  0 
  4  2  1  0  0  0  0 
  5 21  1  0  0  0  0 
  5 20  1  0  0  0  0 
  6 22  1  0  0  0  0 
  6  9  1  0  0  0  0 
  7  9  1  0  0  0  0 
  7  8  1  0  0  0  0 
  8 10  2  0  0  0  0 
  9 26  1  0  0  0  0 
  9  5  1  0  0  0  0 
 13  1  1  0  0  0  0 
 15  2  1  0  0  0  0 
 16  3  1  0  0  0  0 
 18  4  1  0  0  0  0 
 19  4  1  0  0  0  0 
 23  6  1  0  0  0  0 
 24  7  1  0  0  0  0 
 25  7  1  0  0  0  0 
M  END 
>  <HBA> 
1 
 
>  <HBD> 
0 
 
>  <TPSA> 
17.07 
 
>  <cid> 
66899 
 
>  <dipole> 
2.51 
 
>  <excitation_energy_1> 
4.411 
 
>  <excitation_energy_2> 
6.037 
 
>  <excitation_energy_3> 
6.618 
 
>  <excitation_energy_4> 
6.661 
 
>  <homo_energy> 
-6.604 
 
>  <homo_lumo_gap> 
6.324 
 
>  <logP> 
2.546 
 
>  <lumo_energy> 
-0.28 
 
>  <melting_point> 
15.41 
 
>  <molecular_refractivity> 
43.46 
 
>  <oscillator_strength_1> 
0.0 
 
>  <oscillator_strength_2> 
0.0276 
 
>  <oscillator_strength_3> 
0.0011 
 
>  <oscillator_strength_4> 
0.0008 
 
>  <open_babel_can_smiles> 
CC(=O)CC1CCCCC1 
 
>  <mulliken_charges> 
26 
1   -0.529038 
2   -0.253534 
3   -0.26177 
4   -0.259698 
5   -0.271143 
6   -0.270254 
7   -0.366341 
8   0.455867 
9   -0.068581 
10   -0.439238 
11   0.171082 
12   0.179069 
13   0.163166 
14   0.127708 
15   0.128044 
16   0.12251 
17   0.131946 
18   0.130705 
19   0.125938 
20   0.14717 
21   0.128565 
22   0.129928 
23   0.123706 
24   0.152734 
25   0.157562 
26   0.143897 
 
>  <lowdin_charges> 
26 
1   -0.476381 
2   -0.275504 
3   -0.279793 
4   -0.27996 
5   -0.280404 
6   -0.278052 
7   -0.317026 
8   0.168419 
9   -0.127025 
10   -0.23794 
11   0.171538 
12   0.173386 
13   0.164849 
14   0.135845 
15   0.141154 
16   0.13119 
17   0.14513 
18   0.144358 
19   0.133788 
20   0.151626 
21   0.140087 
22   0.138949 
23   0.139618 
24   0.155741 
25   0.16339 
26   0.153017 
 
$$$$ 
 
