PCCDB-ID:  58277 
public computational chemistry database (PCCDB) project, http://pccdb.org 
 
 25 25  0  0  0  0  0  0  0  0999 V2000 
    5.8888    1.9862   -2.4237 C   0  0  0  0  0  0  0  0  0  0  0  0 
    3.9704    2.4391   -0.9303 C   0  0  0  0  0  0  0  0  0  0  0  0 
    5.6547   -2.0104   -0.9821 C   0  0  0  0  0  0  0  0  0  0  0  0 
    6.9059   -2.3943   -0.1840 C   0  0  0  0  0  0  0  0  0  0  0  0 
    8.0905   -4.4233    0.6084 C   0  0  0  0  0  0  0  0  0  0  0  0 
    7.3665   -4.7880   -0.6417 C   0  0  0  0  0  0  0  0  0  0  0  0 
    4.8623    0.1747   -1.1547 C   0  0  0  0  0  0  0  0  0  0  0  0 
    5.7753   -0.6552   -1.4859 N   0  0  0  0  0  0  0  0  0  0  0  0 
    4.8016    1.4679   -1.6127 N   0  0  0  0  0  0  0  0  0  0  0  0 
    6.8237   -3.7812    0.2698 N   0  0  0  0  0  0  0  0  0  0  0  0 
    5.5058    2.7652   -3.0926 H   0  0  0  0  0  0  0  0  0  0  0  0 
    6.3091    1.1679   -3.0092 H   0  0  0  0  0  0  0  0  0  0  0  0 
    6.6929    2.4188   -1.8079 H   0  0  0  0  0  0  0  0  0  0  0  0 
    3.5231    3.1300   -1.6552 H   0  0  0  0  0  0  0  0  0  0  0  0 
    4.5364    3.0363   -0.1966 H   0  0  0  0  0  0  0  0  0  0  0  0 
    3.1606    1.9273   -0.4020 H   0  0  0  0  0  0  0  0  0  0  0  0 
    4.7650   -2.1624   -0.3456 H   0  0  0  0  0  0  0  0  0  0  0  0 
    5.5594   -2.7028   -1.8315 H   0  0  0  0  0  0  0  0  0  0  0  0 
    6.9826   -1.7504    0.7010 H   0  0  0  0  0  0  0  0  0  0  0  0 
    7.7996   -2.2020   -0.8058 H   0  0  0  0  0  0  0  0  0  0  0  0 
    9.0057   -3.8393    0.5003 H   0  0  0  0  0  0  0  0  0  0  0  0 
    8.0717   -5.0823    1.4742 H   0  0  0  0  0  0  0  0  0  0  0  0 
    6.8083   -5.7196   -0.7089 H   0  0  0  0  0  0  0  0  0  0  0  0 
    7.7985   -4.4463   -1.5837 H   0  0  0  0  0  0  0  0  0  0  0  0 
    4.0189   -0.0863   -0.4967 H   0  0  0  0  0  0  0  0  0  0  0  0 
  1 13  1  0  0  0  0 
  1  9  1  0  0  0  0 
  2 16  1  0  0  0  0 
  2 15  1  0  0  0  0 
  3 17  1  0  0  0  0 
  3  4  1  0  0  0  0 
  4 10  1  0  0  0  0 
  4 19  1  0  0  0  0 
  5 22  1  0  0  0  0 
  6 10  1  0  0  0  0 
  6  5  1  0  0  0  0 
  7 25  1  0  0  0  0 
  8  7  2  0  0  0  0 
  8  3  1  0  0  0  0 
  9  7  1  0  0  0  0 
  9  2  1  0  0  0  0 
 10  5  1  0  0  0  0 
 11  1  1  0  0  0  0 
 12  1  1  0  0  0  0 
 14  2  1  0  0  0  0 
 18  3  1  0  0  0  0 
 20  4  1  0  0  0  0 
 21  5  1  0  0  0  0 
 23  6  1  0  0  0  0 
 24  6  1  0  0  0  0 
M  END 
>  <HBA> 
3 
 
>  <HBD> 
0 
 
>  <TPSA> 
18.61 
 
>  <cid> 
58277 
 
>  <dipole> 
1.94 
 
>  <excitation_energy_1> 
5.132 
 
>  <excitation_energy_2> 
5.601 
 
>  <excitation_energy_3> 
5.709 
 
>  <excitation_energy_4> 
5.733 
 
>  <homo_energy> 
-5.589 
 
>  <homo_lumo_gap> 
6.672 
 
>  <logP> 
-0.17 
 
>  <lumo_energy> 
1.083 
 
>  <melting_point> 
4.56 
 
>  <molecular_refractivity> 
47.04 
 
>  <oscillator_strength_1> 
0.0232 
 
>  <oscillator_strength_2> 
0.1483 
 
>  <oscillator_strength_3> 
0.0464 
 
>  <oscillator_strength_4> 
0.0053 
 
>  <open_babel_can_smiles> 
CN(/C=N/CCN1CC1)C 
 
>  <mulliken_charges> 
25 
1   -0.306124 
2   -0.307934 
3   -0.135985 
4   -0.120237 
5   -0.191129 
6   -0.194474 
7   0.256276 
8   -0.440271 
9   -0.372457 
10   -0.35675 
11   0.144416 
12   0.19462 
13   0.145847 
14   0.156962 
15   0.14903 
16   0.160801 
17   0.119816 
18   0.1368 
19   0.138098 
20   0.119849 
21   0.142395 
22   0.152933 
23   0.153541 
24   0.144803 
25   0.109172 
 
>  <lowdin_charges> 
25 
1   -0.355832 
2   -0.351444 
3   -0.19916 
4   -0.20451 
5   -0.243217 
6   -0.246476 
7   -0.040031 
8   -0.251166 
9   -0.10785 
10   -0.195551 
11   0.149487 
12   0.179546 
13   0.143466 
14   0.152889 
15   0.14186 
16   0.159601 
17   0.125838 
18   0.141368 
19   0.143802 
20   0.12533 
21   0.146726 
22   0.156635 
23   0.156624 
24   0.147233 
25   0.124832 
 
$$$$ 
 
