PCCDB-ID:  12116 
public computational chemistry database (PCCDB) project, http://pccdb.org 
 
 30 31  0  0  0  0  0  0  0  0999 V2000 
    3.5497    1.5527    3.9895 C   0  0  0  0  0  0  0  0  0  0  0  0 
   -1.3981   -1.8826   -2.4765 C   0  0  0  0  0  0  0  0  0  0  0  0 
    4.6431    1.2592    3.1715 C   0  0  0  0  0  0  0  0  0  0  0  0 
    2.2540    1.3681    3.5046 C   0  0  0  0  0  0  0  0  0  0  0  0 
   -0.6136   -0.8361   -2.9640 C   0  0  0  0  0  0  0  0  0  0  0  0 
   -0.7892   -2.9536   -1.8188 C   0  0  0  0  0  0  0  0  0  0  0  0 
    4.4450    0.7895    1.8737 C   0  0  0  0  0  0  0  0  0  0  0  0 
    2.0549    0.8933    2.2079 C   0  0  0  0  0  0  0  0  0  0  0  0 
    0.7708   -0.8594   -2.7905 C   0  0  0  0  0  0  0  0  0  0  0  0 
    0.5946   -2.9773   -1.6499 C   0  0  0  0  0  0  0  0  0  0  0  0 
    2.9299    0.0856   -0.0170 C   0  0  0  0  0  0  0  0  0  0  0  0 
    2.8816   -1.9517   -1.9303 C   0  0  0  0  0  0  0  0  0  0  0  0 
    3.1455    0.6053    1.3765 C   0  0  0  0  0  0  0  0  0  0  0  0 
    1.3949   -1.9309   -2.1351 C   0  0  0  0  0  0  0  0  0  0  0  0 
    4.9021   -1.7879   -0.1200 O   0  0  0  0  0  0  0  0  0  0  0  0 
    3.3896   -1.7216   -0.1382 S   0  0  0  0  0  0  0  0  0  0  0  0 
    3.7069    1.9232    4.9990 H   0  0  0  0  0  0  0  0  0  0  0  0 
   -2.4761   -1.8658   -2.6110 H   0  0  0  0  0  0  0  0  0  0  0  0 
    5.6544    1.3956    3.5450 H   0  0  0  0  0  0  0  0  0  0  0  0 
    1.3975    1.5936    4.1344 H   0  0  0  0  0  0  0  0  0  0  0  0 
   -1.0779   -0.0014   -3.4822 H   0  0  0  0  0  0  0  0  0  0  0  0 
   -1.3923   -3.7737   -1.4385 H   0  0  0  0  0  0  0  0  0  0  0  0 
    5.2945    0.5445    1.2435 H   0  0  0  0  0  0  0  0  0  0  0  0 
    1.0434    0.7511    1.8337 H   0  0  0  0  0  0  0  0  0  0  0  0 
    1.3770   -0.0442   -3.1789 H   0  0  0  0  0  0  0  0  0  0  0  0 
    1.0621   -3.8171   -1.1413 H   0  0  0  0  0  0  0  0  0  0  0  0 
    3.5752    0.5859   -0.7485 H   0  0  0  0  0  0  0  0  0  0  0  0 
    1.8860    0.1745   -0.3313 H   0  0  0  0  0  0  0  0  0  0  0  0 
    3.4068   -1.1844   -2.5080 H   0  0  0  0  0  0  0  0  0  0  0  0 
    3.3235   -2.9235   -2.1736 H   0  0  0  0  0  0  0  0  0  0  0  0 
  1 17  1  0  0  0  0 
  2  6  2  0  0  0  0 
  3 19  1  0  0  0  0 
  3  1  2  0  0  0  0 
  4  1  1  0  0  0  0 
  4 20  1  0  0  0  0 
  5  9  2  0  0  0  0 
  5  2  1  0  0  0  0 
  6 10  1  0  0  0  0 
  6 22  1  0  0  0  0 
  7  3  1  0  0  0  0 
  8  4  2  0  0  0  0 
  9 14  1  0  0  0  0 
 10 26  1  0  0  0  0 
 11 13  1  0  0  0  0 
 12 16  1  0  0  0  0 
 13  7  2  0  0  0  0 
 13  8  1  0  0  0  0 
 14 12  1  0  0  0  0 
 14 10  2  0  0  0  0 
 16 15  2  0  0  0  0 
 16 11  1  0  0  0  0 
 18  2  1  0  0  0  0 
 21  5  1  0  0  0  0 
 23  7  1  0  0  0  0 
 24  8  1  0  0  0  0 
 25  9  1  0  0  0  0 
 27 11  1  0  0  0  0 
 28 11  1  0  0  0  0 
 29 12  1  0  0  0  0 
 30 12  1  0  0  0  0 
M  END 
>  <HBA> 
1 
 
>  <HBD> 
0 
 
>  <TPSA> 
36.28 
 
>  <cid> 
12116 
 
>  <dipole> 
3.9 
 
>  <excitation_energy_1> 
4.59 
 
>  <excitation_energy_2> 
4.836 
 
>  <excitation_energy_3> 
4.893 
 
>  <excitation_energy_4> 
5.06 
 
>  <homo_energy> 
-5.946 
 
>  <homo_lumo_gap> 
5.314 
 
>  <logP> 
4.001 
 
>  <lumo_energy> 
-0.631 
 
>  <melting_point> 
56.18 
 
>  <molecular_refractivity> 
68.98 
 
>  <oscillator_strength_1> 
0.0322 
 
>  <oscillator_strength_2> 
0.0035 
 
>  <oscillator_strength_3> 
0.0651 
 
>  <oscillator_strength_4> 
0.0023 
 
>  <open_babel_can_smiles> 
O=S(Cc1ccccc1)Cc1ccccc1 
 
>  <mulliken_charges> 
30 
1   -0.126779 
2   -0.128776 
3   -0.131506 
4   -0.128325 
5   -0.127027 
6   -0.128326 
7   -0.163581 
8   -0.174038 
9   -0.180862 
10   -0.169669 
11   -0.559208 
12   -0.564602 
13   0.15259 
14   0.158291 
15   -0.634135 
16   0.780219 
17   0.130481 
18   0.135832 
19   0.134174 
20   0.130102 
21   0.136158 
22   0.137676 
23   0.160673 
24   0.126465 
25   0.131319 
26   0.139349 
27   0.190397 
28   0.185791 
29   0.186668 
30   0.200648 
 
>  <lowdin_charges> 
30 
1   -0.153328 
2   -0.152261 
3   -0.151631 
4   -0.157158 
5   -0.153878 
6   -0.151441 
7   -0.154922 
8   -0.162873 
9   -0.167826 
10   -0.161616 
11   -0.418802 
12   -0.420416 
13   -0.016636 
14   -0.016784 
15   -0.670181 
16   0.799143 
17   0.157252 
18   0.158939 
19   0.159228 
20   0.158913 
21   0.161817 
22   0.162623 
23   0.173799 
24   0.154846 
25   0.158773 
26   0.163128 
27   0.172671 
28   0.175238 
29   0.171124 
30   0.18226 
 
$$$$ 
 
