PCCDB-ID:  72997 
public computational chemistry database (PCCDB) project, http://pccdb.org 
 
 21 21  0  0  0  0  0  0  0  0999 V2000 
    1.1714   -0.1967   -0.3367 C   0  0  0  0  0  0  0  0  0  0  0  0 
    3.0030    4.4001    0.2206 C   0  0  0  0  0  0  0  0  0  0  0  0 
    5.4601   -0.5928   -0.2070 C   0  0  0  0  0  0  0  0  0  0  0  0 
    4.6187   -1.6578   -0.2224 C   0  0  0  0  0  0  0  0  0  0  0  0 
    2.6712   -0.2407   -0.2982 C   0  0  0  0  0  0  0  0  0  0  0  0 
    3.1300    2.9691    0.6670 C   0  0  0  0  0  0  0  0  0  0  0  0 
    4.9530    0.7743   -0.2420 C   0  0  0  0  0  0  0  0  0  0  0  0 
    3.4841    0.8517   -0.2893 C   0  0  0  0  0  0  0  0  0  0  0  0 
    3.2595   -1.4906   -0.2723 N   0  0  0  0  0  0  0  0  0  0  0  0 
    3.3446    2.5755    1.7829 O   0  0  0  0  0  0  0  0  0  0  0  0 
    5.6600    1.7864   -0.2402 O   0  0  0  0  0  0  0  0  0  0  0  0 
    2.9430    2.1196   -0.4114 O   0  0  0  0  0  0  0  0  0  0  0  0 
    0.8300    0.8319   -0.4537 H   0  0  0  0  0  0  0  0  0  0  0  0 
    0.7417   -0.5989    0.5895 H   0  0  0  0  0  0  0  0  0  0  0  0 
    0.7793   -0.7869   -1.1748 H   0  0  0  0  0  0  0  0  0  0  0  0 
    2.8907    5.0488    1.0901 H   0  0  0  0  0  0  0  0  0  0  0  0 
    2.1604    4.5254   -0.4655 H   0  0  0  0  0  0  0  0  0  0  0  0 
    3.9172    4.6675   -0.3207 H   0  0  0  0  0  0  0  0  0  0  0  0 
    6.5337   -0.7382   -0.1738 H   0  0  0  0  0  0  0  0  0  0  0  0 
    4.9613   -2.6869   -0.2004 H   0  0  0  0  0  0  0  0  0  0  0  0 
    2.6605   -2.3033   -0.2745 H   0  0  0  0  0  0  0  0  0  0  0  0 
  1  5  1  0  0  0  0 
  1 14  1  0  0  0  0 
  2  6  1  0  0  0  0 
  2 16  1  0  0  0  0 
  3 19  1  0  0  0  0 
  4  3  2  0  0  0  0 
  4 20  1  0  0  0  0 
  5  8  2  0  0  0  0 
  5  9  1  0  0  0  0 
  6 10  2  0  0  0  0 
  7 11  2  0  0  0  0 
  7  3  1  0  0  0  0 
  8  7  1  0  0  0  0 
  9  4  1  0  0  0  0 
 12  8  1  0  0  0  0 
 12  6  1  0  0  0  0 
 13  1  1  0  0  0  0 
 15  1  1  0  0  0  0 
 17  2  1  0  0  0  0 
 18  2  1  0  0  0  0 
 21  9  1  0  0  0  0 
M  END 
>  <HBA> 
3 
 
>  <HBD> 
1 
 
>  <TPSA> 
59.16 
 
>  <cid> 
72997 
 
>  <dipole> 
6.42 
 
>  <excitation_energy_1> 
4.236 
 
>  <excitation_energy_2> 
4.81 
 
>  <excitation_energy_3> 
4.869 
 
>  <excitation_energy_4> 
4.929 
 
>  <homo_energy> 
-5.889 
 
>  <homo_lumo_gap> 
5.415 
 
>  <logP> 
0.609 
 
>  <lumo_energy> 
-0.473 
 
>  <melting_point> 
116.7 
 
>  <molecular_refractivity> 
43.53 
 
>  <oscillator_strength_1> 
0.0001 
 
>  <oscillator_strength_2> 
0.0011 
 
>  <oscillator_strength_3> 
0.0016 
 
>  <oscillator_strength_4> 
0.0464 
 
>  <open_babel_can_smiles> 
Cc1c(OC(=O)C)c(=O)cc[nH]1 
 
>  <mulliken_charges> 
21 
1   -0.533213 
2   -0.530608 
3   -0.241217 
4   0.09534 
5   0.359376 
6   0.613234 
7   0.468811 
8   0.192104 
9   -0.664175 
10   -0.43991 
11   -0.550751 
12   -0.526527 
13   0.198856 
14   0.177855 
15   0.165979 
16   0.179012 
17   0.17229 
18   0.206932 
19   0.151389 
20   0.165761 
21   0.339461 
 
>  <lowdin_charges> 
21 
1   -0.446619 
2   -0.46436 
3   -0.21613 
4   -0.083703 
5   0.041194 
6   0.218751 
7   0.119826 
8   0.031813 
9   -0.183297 
10   -0.233953 
11   -0.314714 
12   -0.170087 
13   0.183686 
14   0.17001 
15   0.164457 
16   0.174965 
17   0.173153 
18   0.192317 
19   0.176162 
20   0.169281 
21   0.297249 
 
$$$$ 
 
