PCCDB-ID:  47918 
public computational chemistry database (PCCDB) project, http://pccdb.org 
 
 28 30  0  0  1  0  0  0  0  0999 V2000 
   -0.8067    1.1107    1.2739 C   0  0  0  0  0  0  0  0  0  0  0  0 
   -1.0336    0.7638   -1.2127 C   0  0  0  0  0  0  0  0  0  0  0  0 
   -1.2639   -1.1921    0.3572 C   0  0  0  0  0  0  0  0  0  0  0  0 
    1.2243    1.3087   -0.2087 C   0  0  0  0  0  0  0  0  0  0  0  0 
    0.9930   -0.6540    1.3661 C   0  0  0  0  0  0  0  0  0  0  0  0 
    0.7641   -1.0005   -1.1278 C   0  0  0  0  0  0  0  0  0  0  0  0 
   -1.5386    0.3148    0.1741 C   0  0  1  0  0  0  0  0  0  0  0  0 
    0.7119    0.8527    1.1756 C   0  0  2  0  0  0  0  0  0  0  0  0 
    0.4917    0.5130   -1.2940 C   0  0  1  0  0  0  0  0  0  0  0  0 
    0.2624   -1.4349    0.2692 C   0  0  2  0  0  0  0  0  0  0  0  0 
    0.8854    0.8429   -2.7071 N   0  0  0  0  0  0  0  0  0  0  0  0 
    0.4427   -2.9271    0.3195 N   0  0  0  0  0  0  0  0  0  0  0  0 
    1.7085    1.7264   -2.8053 O   0  0  0  0  0  0  0  0  0  0  0  0 
    1.1187   -3.3194    1.2451 O   0  0  0  0  0  0  0  0  0  0  0  0 
   -1.1773    0.8119    2.2634 H   0  0  0  0  0  0  0  0  0  0  0  0 
   -1.0157    2.1830    1.1646 H   0  0  0  0  0  0  0  0  0  0  0  0 
   -1.2364    1.8311   -1.3667 H   0  0  0  0  0  0  0  0  0  0  0  0 
   -1.5434    0.2156   -2.0142 H   0  0  0  0  0  0  0  0  0  0  0  0 
   -1.7783   -1.7827   -0.4105 H   0  0  0  0  0  0  0  0  0  0  0  0 
   -1.6319   -1.5324    1.3334 H   0  0  0  0  0  0  0  0  0  0  0  0 
    2.3062    1.1510   -0.2948 H   0  0  0  0  0  0  0  0  0  0  0  0 
    1.0520    2.3818   -0.3517 H   0  0  0  0  0  0  0  0  0  0  0  0 
    0.6546   -0.9910    2.3528 H   0  0  0  0  0  0  0  0  0  0  0  0 
    2.0695   -0.8584    1.3179 H   0  0  0  0  0  0  0  0  0  0  0  0 
    1.8404   -1.1958   -1.2135 H   0  0  0  0  0  0  0  0  0  0  0  0 
    0.2599   -1.5725   -1.9146 H   0  0  0  0  0  0  0  0  0  0  0  0 
   -2.6196    0.4924    0.2369 H   0  0  0  0  0  0  0  0  0  0  0  0 
    1.2331    1.4188    1.9574 H   0  0  0  0  0  0  0  0  0  0  0  0 
  1 15  1  0  0  0  0 
  2  7  1  0  0  0  0 
  3 20  1  0  0  0  0 
  4  8  1  0  0  0  0 
  5 23  1  0  0  0  0 
  6 10  1  0  0  0  0 
  7 27  1  1  0  0  0 
  7  3  1  0  0  0  0 
  7  1  1  0  0  0  0 
  8  1  1  0  0  0  0 
  8  5  1  0  0  0  0 
  8 28  1  1  0  0  0 
  9 11  1  6  0  0  0 
  9  2  1  0  0  0  0 
  9  6  1  0  0  0  0 
  9  4  1  0  0  0  0 
 10 12  1  1  0  0  0 
 10  3  1  0  0  0  0 
 10  5  1  0  0  0  0 
 12 14  1  0  0  0  0 
 13 11  1  0  0  0  0 
 16  1  1  0  0  0  0 
 17  2  1  0  0  0  0 
 18  2  1  0  0  0  0 
 19  3  1  0  0  0  0 
 21  4  1  0  0  0  0 
 22  4  1  0  0  0  0 
 24  5  1  0  0  0  0 
 25  6  1  0  0  0  0 
 26  6  1  0  0  0  0 
M  RAD  4  11   2  12   2  13   2  14   2 
M  END 
>  <HBA> 
4 
 
>  <HBD> 
0 
 
>  <TPSA> 
58.86 
 
>  <cid> 
47918 
 
>  <dipole> 
3.02 
 
>  <excitation_energy_1> 
1.723 
 
>  <excitation_energy_2> 
1.762 
 
>  <excitation_energy_3> 
3.178 
 
>  <excitation_energy_4> 
3.273 
 
>  <homo_energy> 
-5.973 
 
>  <homo_lumo_gap> 
3.524 
 
>  <logP> 
2.611 
 
>  <lumo_energy> 
-2.449 
 
>  <melting_point> 
98.66 
 
>  <molecular_refractivity> 
53.39 
 
>  <oscillator_strength_1> 
0.0 
 
>  <oscillator_strength_2> 
0.0002 
 
>  <oscillator_strength_3> 
0.0001 
 
>  <oscillator_strength_4> 
0.018 
 
>  <open_babel_can_smiles> 
[O][N][C@]12C[C@@H]3C[C@H](C1)C[C@](C2)(C3)[N][O] 
 
>  <mulliken_charges> 
28 
1   -0.269642 
2   -0.278022 
3   -0.278089 
4   -0.26807 
5   -0.268181 
6   -0.287424 
7   -0.100136 
8   -0.106089 
9   0.128765 
10   0.128797 
11   0.02576 
12   0.025905 
13   -0.256166 
14   -0.256123 
15   0.136835 
16   0.136913 
17   0.148349 
18   0.15386 
19   0.153805 
20   0.148357 
21   0.146779 
22   0.147088 
23   0.147055 
24   0.146828 
25   0.157737 
26   0.168246 
27   0.135574 
28   0.131291 
 
>  <lowdin_charges> 
28 
1   -0.280044 
2   -0.277518 
3   -0.279322 
4   -0.284124 
5   -0.285838 
6   -0.275048 
7   -0.123248 
8   -0.128023 
9   0.006936 
10   0.007019 
11   0.047597 
12   0.048195 
13   -0.15066 
14   -0.151126 
15   0.145517 
16   0.144267 
17   0.150306 
18   0.15597 
19   0.156111 
20   0.15172 
21   0.150957 
22   0.151689 
23   0.153012 
24   0.151079 
25   0.154213 
26   0.164478 
27   0.147694 
28   0.148191 
 
$$$$ 
 
