PCCDB-ID:  20155 
public computational chemistry database (PCCDB) project, http://pccdb.org 
 
 18 18  0  0  1  0  0  0  0  0999 V2000 
    5.7538    0.2109    1.5992 C   0  0  0  0  0  0  0  0  0  0  0  0 
    4.8120    0.0241    0.8660 C   0  0  0  0  0  0  0  0  0  0  0  0 
    4.7103   -2.2556   -3.6276 C   0  0  0  0  0  0  0  0  0  0  0  0 
    4.4350   -2.9776   -2.4636 C   0  0  0  0  0  0  0  0  0  0  0  0 
    4.6215   -0.8632   -3.6155 C   0  0  0  0  0  0  0  0  0  0  0  0 
    4.0789   -2.3121   -1.2912 C   0  0  0  0  0  0  0  0  0  0  0  0 
    4.2589   -0.1972   -2.4434 C   0  0  0  0  0  0  0  0  0  0  0  0 
    3.9899   -0.9161   -1.2760 C   0  0  0  0  0  0  0  0  0  0  0  0 
    3.6297   -0.1819    0.0092 C   0  0  1  0  0  0  0  0  0  0  0  0 
    2.6257   -0.9354    0.6937 O   0  0  0  0  0  0  0  0  0  0  0  0 
    6.6004    0.3733    2.2273 H   0  0  0  0  0  0  0  0  0  0  0  0 
    4.9878   -2.7770   -4.5399 H   0  0  0  0  0  0  0  0  0  0  0  0 
    4.4968   -4.0627   -2.4695 H   0  0  0  0  0  0  0  0  0  0  0  0 
    4.8242   -0.2940   -4.5189 H   0  0  0  0  0  0  0  0  0  0  0  0 
    3.8563   -2.8668   -0.3859 H   0  0  0  0  0  0  0  0  0  0  0  0 
    4.1836    0.8881   -2.4386 H   0  0  0  0  0  0  0  0  0  0  0  0 
    3.2342    0.8107   -0.2627 H   0  0  0  0  0  0  0  0  0  0  0  0 
    2.5816   -0.5974    1.6022 H   0  0  0  0  0  0  0  0  0  0  0  0 
  1 11  1  0  0  0  0 
  2  1  3  0  0  0  0 
  3  5  2  0  0  0  0 
  3  4  1  0  0  0  0 
  4  6  2  0  0  0  0 
  5  7  1  0  0  0  0 
  6  8  1  0  0  0  0 
  6 15  1  0  0  0  0 
  7 16  1  0  0  0  0 
  7  8  2  0  0  0  0 
  8  9  1  0  0  0  0 
  9 17  1  6  0  0  0 
  9 10  1  0  0  0  0 
  9  2  1  0  0  0  0 
 10 18  1  0  0  0  0 
 12  3  1  0  0  0  0 
 13  4  1  0  0  0  0 
 14  5  1  0  0  0  0 
M  END 
>  <HBA> 
1 
 
>  <HBD> 
1 
 
>  <TPSA> 
20.23 
 
>  <cid> 
20155 
 
>  <dipole> 
1.25 
 
>  <excitation_energy_1> 
5.252 
 
>  <excitation_energy_2> 
5.683 
 
>  <excitation_energy_3> 
5.938 
 
>  <excitation_energy_4> 
5.999 
 
>  <homo_energy> 
-6.588 
 
>  <homo_lumo_gap> 
6.378 
 
>  <logP> 
1.353 
 
>  <lumo_energy> 
-0.21 
 
>  <melting_point> 
41.79 
 
>  <molecular_refractivity> 
40.35 
 
>  <oscillator_strength_1> 
0.0007 
 
>  <oscillator_strength_2> 
0.0752 
 
>  <oscillator_strength_3> 
0.0071 
 
>  <oscillator_strength_4> 
0.0101 
 
>  <open_babel_can_smiles> 
O[C@H](c1ccccc1)C#C 
 
>  <mulliken_charges> 
18 
1   -0.479513 
2   0.313064 
3   -0.125242 
4   -0.132737 
5   -0.130761 
6   -0.151705 
7   -0.171244 
8   0.14552 
9   -0.064464 
10   -0.616576 
11   0.194559 
12   0.129521 
13   0.131118 
14   0.130068 
15   0.149306 
16   0.127096 
17   0.153662 
18   0.398329 
 
>  <lowdin_charges> 
18 
1   -0.241228 
2   -0.05989 
3   -0.155962 
4   -0.150819 
5   -0.155937 
6   -0.147256 
7   -0.159071 
8   -0.006575 
9   0.018687 
10   -0.446554 
11   0.208028 
12   0.158171 
13   0.156159 
14   0.158527 
15   0.169528 
16   0.153979 
17   0.151667 
18   0.348544 
 
$$$$ 
 
