PCCDB-ID:  18838 
public computational chemistry database (PCCDB) project, http://pccdb.org 
 
 27 26  0  0  0  0  0  0  0  0999 V2000 
    2.9263    2.5433   -1.7679 C   0  0  0  0  0  0  0  0  0  0  0  0 
    8.9472   -3.0526   -3.0121 C   0  0  0  0  0  0  0  0  0  0  0  0 
    4.0827    1.7671   -1.1299 C   0  0  0  0  0  0  0  0  0  0  0  0 
    4.3353    0.4045   -1.7888 C   0  0  0  0  0  0  0  0  0  0  0  0 
    5.4954   -0.3724   -1.1487 C   0  0  0  0  0  0  0  0  0  0  0  0 
    5.7231   -1.7827   -1.7192 C   0  0  0  0  0  0  0  0  0  0  0  0 
    6.2011   -1.8477   -3.1897 C   0  0  0  0  0  0  0  0  0  0  0  0 
    7.5493   -1.1763   -3.4133 C   0  0  0  0  0  0  0  0  0  0  0  0 
    8.7142   -1.6643   -3.3380 N   0  0  0  0  0  0  0  0  0  0  0  0 
    7.4829    0.1689   -3.6913 O   0  0  0  0  0  0  0  0  0  0  0  0 
    2.7698    3.5070   -1.2704 H   0  0  0  0  0  0  0  0  0  0  0  0 
    1.9873    1.9797   -1.7053 H   0  0  0  0  0  0  0  0  0  0  0  0 
    3.1200    2.7455   -2.8288 H   0  0  0  0  0  0  0  0  0  0  0  0 
    9.5054   -3.1121   -2.0685 H   0  0  0  0  0  0  0  0  0  0  0  0 
    9.5894   -3.4976   -3.7824 H   0  0  0  0  0  0  0  0  0  0  0  0 
    8.0522   -3.6865   -2.9097 H   0  0  0  0  0  0  0  0  0  0  0  0 
    3.8766    1.6144   -0.0612 H   0  0  0  0  0  0  0  0  0  0  0  0 
    5.0011    2.3686   -1.1785 H   0  0  0  0  0  0  0  0  0  0  0  0 
    4.5218    0.5635   -2.8630 H   0  0  0  0  0  0  0  0  0  0  0  0 
    3.4180   -0.2010   -1.7369 H   0  0  0  0  0  0  0  0  0  0  0  0 
    5.2934   -0.4701   -0.0733 H   0  0  0  0  0  0  0  0  0  0  0  0 
    6.4206    0.2130   -1.2316 H   0  0  0  0  0  0  0  0  0  0  0  0 
    4.7925   -2.3612   -1.6395 H   0  0  0  0  0  0  0  0  0  0  0  0 
    6.4637   -2.3001   -1.0969 H   0  0  0  0  0  0  0  0  0  0  0  0 
    5.4543   -1.3914   -3.8529 H   0  0  0  0  0  0  0  0  0  0  0  0 
    6.2636   -2.8974   -3.4916 H   0  0  0  0  0  0  0  0  0  0  0  0 
    6.5540    0.4224   -3.7959 H   0  0  0  0  0  0  0  0  0  0  0  0 
  1 12  1  0  0  0  0 
  1 11  1  0  0  0  0 
  1  3  1  0  0  0  0 
  2 16  1  0  0  0  0 
  2 14  1  0  0  0  0 
  3 17  1  0  0  0  0 
  4 20  1  0  0  0  0 
  4  5  1  0  0  0  0 
  4  3  1  0  0  0  0 
  5 21  1  0  0  0  0 
  6 23  1  0  0  0  0 
  6  5  1  0  0  0  0 
  6 24  1  0  0  0  0 
  7  6  1  0  0  0  0 
  8  9  2  0  0  0  0 
  8  7  1  0  0  0  0 
  9  2  1  0  0  0  0 
 10  8  1  0  0  0  0 
 13  1  1  0  0  0  0 
 15  2  1  0  0  0  0 
 18  3  1  0  0  0  0 
 19  4  1  0  0  0  0 
 22  5  1  0  0  0  0 
 25  7  1  0  0  0  0 
 26  7  1  0  0  0  0 
 27 10  1  0  0  0  0 
M  END 
>  <HBA> 
2 
 
>  <HBD> 
1 
 
>  <TPSA> 
29.1 
 
>  <cid> 
18838 
 
>  <dipole> 
3.69 
 
>  <excitation_energy_1> 
5.552 
 
>  <excitation_energy_2> 
5.935 
 
>  <excitation_energy_3> 
5.952 
 
>  <excitation_energy_4> 
6.2 
 
>  <homo_energy> 
-6.433 
 
>  <homo_lumo_gap> 
7.189 
 
>  <logP> 
2.094 
 
>  <lumo_energy> 
0.756 
 
>  <melting_point> 
20.68 
 
>  <molecular_refractivity> 
43.57 
 
>  <oscillator_strength_1> 
0.0011 
 
>  <oscillator_strength_2> 
0.0094 
 
>  <oscillator_strength_3> 
0.0051 
 
>  <oscillator_strength_4> 
0.0147 
 
>  <open_babel_can_smiles> 
CCCCCC/C(=N\C)/O 
 
>  <mulliken_charges> 
27 
1   -0.442894 
2   -0.321586 
3   -0.24888 
4   -0.250363 
5   -0.276024 
6   -0.254753 
7   -0.368256 
8   0.482584 
9   -0.402751 
10   -0.58564 
11   0.146787 
12   0.142795 
13   0.140599 
14   0.157218 
15   0.158614 
16   0.12002 
17   0.135437 
18   0.138247 
19   0.10583 
20   0.132697 
21   0.137016 
22   0.156187 
23   0.137428 
24   0.1496 
25   0.140077 
26   0.164285 
27   0.405727 
 
>  <lowdin_charges> 
27 
1   -0.442728 
2   -0.357809 
3   -0.270587 
4   -0.274777 
5   -0.284591 
6   -0.271179 
7   -0.313775 
8   0.123976 
9   -0.204044 
10   -0.376098 
11   0.151828 
12   0.14692 
13   0.144304 
14   0.15328 
15   0.15503 
16   0.125067 
17   0.13997 
18   0.142957 
19   0.121727 
20   0.140139 
21   0.144755 
22   0.150781 
23   0.144661 
24   0.152467 
25   0.149249 
26   0.162233 
27   0.346244 
 
$$$$ 
 
