PCCDB-ID:  12796 
public computational chemistry database (PCCDB) project, http://pccdb.org 
 
 19 19  0  0  0  0  0  0  0  0999 V2000 
   -0.4906    1.5602   -0.1636 C   0  0  0  0  0  0  0  0  0  0  0  0 
   -1.2193    0.3850    0.0073 C   0  0  0  0  0  0  0  0  0  0  0  0 
    0.9023    1.5514   -0.2182 C   0  0  0  0  0  0  0  0  0  0  0  0 
    0.8646   -0.8589    0.0576 C   0  0  0  0  0  0  0  0  0  0  0  0 
   -0.5341   -0.8383    0.1080 C   0  0  0  0  0  0  0  0  0  0  0  0 
    1.5769    0.3314   -0.0963 C   0  0  0  0  0  0  0  0  0  0  0  0 
   -2.4548   -2.4153   -0.1742 C   0  0  0  0  0  0  0  0  0  0  0  0 
   -3.2489   -1.8358   -0.9868 N   0  0  0  0  0  0  0  0  0  0  0  0 
   -1.2105   -2.0523    0.3110 N   0  0  0  0  0  0  0  0  0  0  0  0 
    2.9399    0.2353   -0.1336 O   0  0  0  0  0  0  0  0  0  0  0  0 
   -2.7990   -3.6140    0.3709 O   0  0  0  0  0  0  0  0  0  0  0  0 
   -1.0202    2.5061   -0.2373 H   0  0  0  0  0  0  0  0  0  0  0  0 
   -2.2975    0.4180    0.1078 H   0  0  0  0  0  0  0  0  0  0  0  0 
    1.4596    2.4771   -0.3448 H   0  0  0  0  0  0  0  0  0  0  0  0 
    1.4126   -1.7941    0.1238 H   0  0  0  0  0  0  0  0  0  0  0  0 
   -2.8426   -0.9900   -1.3810 H   0  0  0  0  0  0  0  0  0  0  0  0 
   -0.6838   -2.8092    0.7258 H   0  0  0  0  0  0  0  0  0  0  0  0 
    3.3137    1.1212   -0.2594 H   0  0  0  0  0  0  0  0  0  0  0  0 
   -3.6427   -3.8458   -0.0554 H   0  0  0  0  0  0  0  0  0  0  0  0 
  1  2  1  0  0  0  0 
  2 13  1  0  0  0  0 
  2  5  2  0  0  0  0 
  3  1  2  0  0  0  0 
  3  6  1  0  0  0  0 
  4  5  1  0  0  0  0 
  4 15  1  0  0  0  0 
  5  9  1  0  0  0  0 
  6  4  2  0  0  0  0 
  7  9  1  0  0  0  0 
  7 11  1  0  0  0  0 
  8  7  2  0  0  0  0 
  9 17  1  0  0  0  0 
 10  6  1  0  0  0  0 
 12  1  1  0  0  0  0 
 14  3  1  0  0  0  0 
 16  8  1  0  0  0  0 
 18 10  1  0  0  0  0 
 19 11  1  0  0  0  0 
M  END 
>  <HBA> 
4 
 
>  <HBD> 
3 
 
>  <TPSA> 
75.35 
 
>  <cid> 
12796 
 
>  <dipole> 
2.51 
 
>  <excitation_energy_1> 
4.748 
 
>  <excitation_energy_2> 
5.09 
 
>  <excitation_energy_3> 
5.174 
 
>  <excitation_energy_4> 
5.448 
 
>  <homo_energy> 
-5.842 
 
>  <homo_lumo_gap> 
5.616 
 
>  <logP> 
1.656 
 
>  <lumo_energy> 
-0.226 
 
>  <melting_point> 
164.82 
 
>  <molecular_refractivity> 
41.07 
 
>  <oscillator_strength_1> 
0.0569 
 
>  <oscillator_strength_2> 
0.1431 
 
>  <oscillator_strength_3> 
0.0008 
 
>  <oscillator_strength_4> 
0.0014 
 
>  <open_babel_can_smiles> 
OC(=N)Nc1cccc(c1)O 
 
>  <mulliken_charges> 
19 
1   -0.14383 
2   -0.191155 
3   -0.197657 
4   -0.22923 
5   0.362248 
6   0.355687 
7   0.640034 
8   -0.650976 
9   -0.713478 
10   -0.642742 
11   -0.605227 
12   0.13758 
13   0.152537 
14   0.119388 
15   0.137454 
16   0.292303 
17   0.34472 
18   0.409779 
19   0.422566 
 
>  <lowdin_charges> 
19 
1   -0.134118 
2   -0.213373 
3   -0.230143 
4   -0.219379 
5   0.068692 
6   0.114919 
7   0.167653 
8   -0.481188 
9   -0.257838 
10   -0.376438 
11   -0.382262 
12   0.162513 
13   0.167795 
14   0.155351 
15   0.167296 
16   0.264025 
17   0.299216 
18   0.358445 
19   0.368835 
 
$$$$ 
 
