PCCDB-ID:  36972 
public computational chemistry database (PCCDB) project, http://pccdb.org 
 
 26 27  0  0  0  0  0  0  0  0999 V2000 
    1.1211   -1.2254   -0.0909 C   0  0  0  0  0  0  0  0  0  0  0  0 
   -0.2484   -1.4328    0.0836 C   0  0  0  0  0  0  0  0  0  0  0  0 
    1.5446    4.8654    0.3928 C   0  0  0  0  0  0  0  0  0  0  0  0 
    0.9675    3.6005    0.5171 C   0  0  0  0  0  0  0  0  0  0  0  0 
    2.4777    5.1239   -0.6087 C   0  0  0  0  0  0  0  0  0  0  0  0 
    1.5920    0.0762   -0.2380 C   0  0  0  0  0  0  0  0  0  0  0  0 
   -1.1237   -0.3524    0.0984 C   0  0  0  0  0  0  0  0  0  0  0  0 
    2.2451    2.8156   -1.3701 C   0  0  0  0  0  0  0  0  0  0  0  0 
    1.3061    2.5523   -0.3610 C   0  0  0  0  0  0  0  0  0  0  0  0 
    2.8100    4.0834   -1.4733 C   0  0  0  0  0  0  0  0  0  0  0  0 
    0.7333    1.1865   -0.2127 C   0  0  0  0  0  0  0  0  0  0  0  0 
   -0.6577    0.9648   -0.0501 C   0  0  0  0  0  0  0  0  0  0  0  0 
   -1.5702    2.0260   -0.0008 N   0  0  0  0  0  0  0  0  0  0  0  0 
    3.7906    4.3365   -2.5443 N   0  0  0  0  0  0  0  0  0  0  0  0 
    4.2643    5.4694   -2.6287 O   0  0  0  0  0  0  0  0  0  0  0  0 
    4.0789    3.4017   -3.2909 O   0  0  0  0  0  0  0  0  0  0  0  0 
    1.8126   -2.0623   -0.1042 H   0  0  0  0  0  0  0  0  0  0  0  0 
   -0.6405   -2.4394    0.2026 H   0  0  0  0  0  0  0  0  0  0  0  0 
    1.2712    5.6533    1.0886 H   0  0  0  0  0  0  0  0  0  0  0  0 
    0.2510    3.4131    1.3107 H   0  0  0  0  0  0  0  0  0  0  0  0 
    2.9419    6.0944   -0.7298 H   0  0  0  0  0  0  0  0  0  0  0  0 
    2.6583    0.2515   -0.3544 H   0  0  0  0  0  0  0  0  0  0  0  0 
   -2.1914   -0.5197    0.2242 H   0  0  0  0  0  0  0  0  0  0  0  0 
    2.5311    2.0497   -2.0803 H   0  0  0  0  0  0  0  0  0  0  0  0 
   -2.5237    1.7562   -0.2120 H   0  0  0  0  0  0  0  0  0  0  0  0 
   -1.2983    2.8481   -0.5270 H   0  0  0  0  0  0  0  0  0  0  0  0 
  1  2  2  0  0  0  0 
  2  7  1  0  0  0  0 
  2 18  1  0  0  0  0 
  3  4  1  0  0  0  0 
  3 19  1  0  0  0  0 
  4 20  1  0  0  0  0 
  5  3  2  0  0  0  0 
  6 11  2  0  0  0  0 
  6  1  1  0  0  0  0 
  7 23  1  0  0  0  0 
  8  9  1  0  0  0  0 
  9 11  1  0  0  0  0 
  9  4  2  0  0  0  0 
 10  8  2  0  0  0  0 
 10  5  1  0  0  0  0 
 11 12  1  0  0  0  0 
 12 13  1  0  0  0  0 
 12  7  2  0  0  0  0 
 14 10  1  0  0  0  0 
 15 14  2  0  0  0  0 
 16 14  2  0  0  0  0 
 17  1  1  0  0  0  0 
 21  5  1  0  0  0  0 
 22  6  1  0  0  0  0 
 24  8  1  0  0  0  0 
 25 13  1  0  0  0  0 
 26 13  1  0  0  0  0 
M  END 
>  <HBA> 
1 
 
>  <HBD> 
1 
 
>  <TPSA> 
71.84 
 
>  <cid> 
36972 
 
>  <dipole> 
4.95 
 
>  <excitation_energy_1> 
2.683 
 
>  <excitation_energy_2> 
3.583 
 
>  <excitation_energy_3> 
3.743 
 
>  <excitation_energy_4> 
3.988 
 
>  <homo_energy> 
-5.739 
 
>  <homo_lumo_gap> 
3.361 
 
>  <logP> 
3.948 
 
>  <lumo_energy> 
-2.378 
 
>  <melting_point> 
130.54 
 
>  <molecular_refractivity> 
65.1 
 
>  <oscillator_strength_1> 
0.0023 
 
>  <oscillator_strength_2> 
0.0093 
 
>  <oscillator_strength_3> 
0.0002 
 
>  <oscillator_strength_4> 
0.101 
 
>  <open_babel_can_smiles> 
Nc1ccccc1c1cccc(c1)N(=O)=O 
 
>  <mulliken_charges> 
26 
1   -0.140326 
2   -0.129725 
3   -0.14362 
4   -0.160677 
5   -0.151013 
6   -0.184142 
7   -0.175018 
8   -0.197776 
9   0.032939 
10   0.274019 
11   0.065228 
12   0.260434 
13   -0.799344 
14   0.379714 
15   -0.39469 
16   -0.394076 
17   0.129797 
18   0.1318 
19   0.149688 
20   0.17085 
21   0.181955 
22   0.137414 
23   0.121118 
24   0.18531 
25   0.323627 
26   0.326513 
 
>  <lowdin_charges> 
26 
1   -0.183254 
2   -0.140629 
3   -0.151224 
4   -0.143816 
5   -0.142344 
6   -0.145541 
7   -0.194857 
8   -0.145983 
9   0.00033 
10   0.001672 
11   -0.049136 
12   0.057357 
13   -0.489333 
14   0.308876 
15   -0.245749 
16   -0.246361 
17   0.1604 
18   0.159025 
19   0.168905 
20   0.177284 
21   0.187255 
22   0.160015 
23   0.152451 
24   0.19015 
25   0.275765 
26   0.278741 
 
$$$$ 
 
