PCCDB-ID:  32758 
public computational chemistry database (PCCDB) project, http://pccdb.org 
 
 15 15  0  0  0  0  0  0  0  0999 V2000 
    1.0288    0.0239    0.1136 C   0  0  0  0  0  0  0  0  0  0  0  0 
    2.2358    0.0180    0.0233 C   0  0  0  0  0  0  0  0  0  0  0  0 
    4.3715   -1.2005   -0.1488 C   0  0  0  0  0  0  0  0  0  0  0  0 
    4.3881    1.2173   -0.1247 C   0  0  0  0  0  0  0  0  0  0  0  0 
    5.7590   -1.2082   -0.2536 C   0  0  0  0  0  0  0  0  0  0  0  0 
    5.7726    1.2151   -0.2275 C   0  0  0  0  0  0  0  0  0  0  0  0 
    3.6603    0.0108   -0.0830 C   0  0  0  0  0  0  0  0  0  0  0  0 
    6.4648   -0.0003   -0.2932 C   0  0  0  0  0  0  0  0  0  0  0  0 
    7.8251    0.0571   -0.3948 O   0  0  0  0  0  0  0  0  0  0  0  0 
   -0.0343    0.0291    0.1928 H   0  0  0  0  0  0  0  0  0  0  0  0 
    3.8272   -2.1390   -0.1168 H   0  0  0  0  0  0  0  0  0  0  0  0 
    3.8520    2.1598   -0.0752 H   0  0  0  0  0  0  0  0  0  0  0  0 
    6.2948   -2.1543   -0.3053 H   0  0  0  0  0  0  0  0  0  0  0  0 
    6.3358    2.1422   -0.2586 H   0  0  0  0  0  0  0  0  0  0  0  0 
    8.1791   -0.8453   -0.4347 H   0  0  0  0  0  0  0  0  0  0  0  0 
  1 10  1  0  0  0  0 
  2  1  3  0  0  0  0 
  3 11  1  0  0  0  0 
  3  7  2  0  0  0  0 
  4  7  1  0  0  0  0 
  4 12  1  0  0  0  0 
  5  3  1  0  0  0  0 
  6  4  2  0  0  0  0 
  7  2  1  0  0  0  0 
  8  5  2  0  0  0  0 
  8  6  1  0  0  0  0 
  9  8  1  0  0  0  0 
 13  5  1  0  0  0  0 
 14  6  1  0  0  0  0 
 15  9  1  0  0  0  0 
M  END 
>  <HBA> 
1 
 
>  <HBD> 
1 
 
>  <TPSA> 
20.23 
 
>  <cid> 
32758 
 
>  <dipole> 
1.68 
 
>  <excitation_energy_1> 
4.717 
 
>  <excitation_energy_2> 
4.967 
 
>  <excitation_energy_3> 
5.076 
 
>  <excitation_energy_4> 
5.502 
 
>  <homo_energy> 
-5.802 
 
>  <homo_lumo_gap> 
5.328 
 
>  <logP> 
1.373 
 
>  <lumo_energy> 
-0.473 
 
>  <melting_point> 
64.81 
 
>  <molecular_refractivity> 
36.4 
 
>  <oscillator_strength_1> 
0.0192 
 
>  <oscillator_strength_2> 
0.3933 
 
>  <oscillator_strength_3> 
0.0003 
 
>  <oscillator_strength_4> 
0.0 
 
>  <open_babel_can_smiles> 
C#Cc1ccc(cc1)O 
 
>  <mulliken_charges> 
15 
1   -0.610859 
2   0.361511 
3   -0.141588 
4   -0.1416 
5   -0.201166 
6   -0.165088 
7   0.009001 
8   0.360513 
9   -0.638243 
10   0.19524 
11   0.145829 
12   0.146072 
13   0.12447 
14   0.146087 
15   0.40982 
 
>  <lowdin_charges> 
15 
1   -0.251735 
2   -0.035097 
3   -0.132095 
4   -0.131297 
5   -0.212881 
6   -0.183871 
7   -0.018187 
8   0.110152 
9   -0.372299 
10   0.203871 
11   0.168491 
12   0.168953 
13   0.15657 
14   0.171159 
15   0.358265 
 
$$$$ 
 
