PCCDB-ID:  72926 
public computational chemistry database (PCCDB) project, http://pccdb.org 
 
 15 16  0  0  0  0  0  0  0  0999 V2000 
    0.9440    1.4402    0.0023 C   0  0  0  0  0  0  0  0  0  0  0  0 
    2.1259    0.6747   -0.0006 C   0  0  0  0  0  0  0  0  0  0  0  0 
    1.0007   -1.3360   -0.0017 C   0  0  0  0  0  0  0  0  0  0  0  0 
   -0.2393    0.7220    0.0028 C   0  0  0  0  0  0  0  0  0  0  0  0 
   -0.2131   -0.6714    0.0017 C   0  0  0  0  0  0  0  0  0  0  0  0 
   -1.6980    1.0608    0.0040 C   0  0  0  0  0  0  0  0  0  0  0  0 
   -1.6562   -1.1217    0.0046 C   0  0  0  0  0  0  0  0  0  0  0  0 
    2.1671   -0.6606   -0.0030 N   0  0  0  0  0  0  0  0  0  0  0  0 
   -2.4896    0.0433    0.0049 N   0  0  0  0  0  0  0  0  0  0  0  0 
   -2.1655    2.3100    0.0029 O   0  0  0  0  0  0  0  0  0  0  0  0 
   -2.0570   -2.2610    0.0072 O   0  0  0  0  0  0  0  0  0  0  0  0 
    0.9966    2.5262    0.0042 H   0  0  0  0  0  0  0  0  0  0  0  0 
    3.0909    1.1778   -0.0013 H   0  0  0  0  0  0  0  0  0  0  0  0 
    1.0585   -2.4217   -0.0036 H   0  0  0  0  0  0  0  0  0  0  0  0 
   -1.4274    2.9413    0.0016 H   0  0  0  0  0  0  0  0  0  0  0  0 
  1  4  1  0  0  0  0 
  1 12  1  0  0  0  0 
  2  1  2  0  0  0  0 
  3  5  1  0  0  0  0 
  4  6  1  0  0  0  0 
  5  4  2  0  0  0  0 
  5  7  1  0  0  0  0 
  6  9  2  0  0  0  0 
  7  9  1  0  0  0  0 
  7 11  2  0  0  0  0 
  8  3  2  0  0  0  0 
  8  2  1  0  0  0  0 
 10  6  1  0  0  0  0 
 13  2  1  0  0  0  0 
 14  3  1  0  0  0  0 
 15 10  1  0  0  0  0 
M  END 
>  <HBA> 
4 
 
>  <HBD> 
1 
 
>  <TPSA> 
59.06 
 
>  <cid> 
72926 
 
>  <dipole> 
6.13 
 
>  <excitation_energy_1> 
3.127 
 
>  <excitation_energy_2> 
3.877 
 
>  <excitation_energy_3> 
4.043 
 
>  <excitation_energy_4> 
4.265 
 
>  <homo_energy> 
-7.285 
 
>  <homo_lumo_gap> 
4.392 
 
>  <logP> 
0.294 
 
>  <lumo_energy> 
-2.893 
 
>  <melting_point> 
140.7 
 
>  <molecular_refractivity> 
39.61 
 
>  <oscillator_strength_1> 
0.0003 
 
>  <oscillator_strength_2> 
0.0007 
 
>  <oscillator_strength_3> 
0.0005 
 
>  <oscillator_strength_4> 
0.0003 
 
>  <open_babel_can_smiles> 
OC1=NC(=O)c2c1ccnc2 
 
>  <mulliken_charges> 
15 
1   -0.215497 
2   0.054125 
3   -0.001139 
4   0.083592 
5   0.033168 
6   0.500943 
7   0.516024 
8   -0.403802 
9   -0.486898 
10   -0.564908 
11   -0.42726 
12   0.141407 
13   0.161686 
14   0.180554 
15   0.428005 
 
>  <lowdin_charges> 
15 
1   -0.174836 
2   -0.069283 
3   -0.055025 
4   -0.032326 
5   -0.056343 
6   0.154835 
7   0.171803 
8   -0.132907 
9   -0.195305 
10   -0.301932 
11   -0.186455 
12   0.162595 
13   0.167289 
14   0.175758 
15   0.372132 
 
$$$$ 
 
