PCCDB-ID:  15720 
public computational chemistry database (PCCDB) project, http://pccdb.org 
 
 21 21  0  0  0  0  0  0  0  0999 V2000 
   -0.4860    1.7035   -0.2667 C   0  0  0  0  0  0  0  0  0  0  0  0 
    1.7546    0.7609   -0.1466 C   0  0  0  0  0  0  0  0  0  0  0  0 
   -1.0327    0.4557    0.0249 C   0  0  0  0  0  0  0  0  0  0  0  0 
    1.2126   -0.4809    0.1465 C   0  0  0  0  0  0  0  0  0  0  0  0 
   -1.9780   -2.1092    0.8732 C   0  0  0  0  0  0  0  0  0  0  0  0 
    0.8961    1.8441   -0.3476 C   0  0  0  0  0  0  0  0  0  0  0  0 
   -0.1790   -0.6353    0.2344 C   0  0  0  0  0  0  0  0  0  0  0  0 
   -2.8957   -2.2456   -0.3481 C   0  0  0  0  0  0  0  0  0  0  0  0 
    1.4648    3.1609   -0.6530 N   0  0  0  0  0  0  0  0  0  0  0  0 
   -4.0876   -2.0904   -0.2759 O   0  0  0  0  0  0  0  0  0  0  0  0 
   -2.2713   -2.6016   -1.4870 O   0  0  0  0  0  0  0  0  0  0  0  0 
    0.6831    4.0976   -0.8185 O   0  0  0  0  0  0  0  0  0  0  0  0 
    2.6909    3.2500   -0.7250 O   0  0  0  0  0  0  0  0  0  0  0  0 
   -0.6085   -1.9093    0.5183 O   0  0  0  0  0  0  0  0  0  0  0  0 
   -1.1206    2.5644   -0.4368 H   0  0  0  0  0  0  0  0  0  0  0  0 
    2.8251    0.9078   -0.2180 H   0  0  0  0  0  0  0  0  0  0  0  0 
   -2.1106    0.3494    0.0674 H   0  0  0  0  0  0  0  0  0  0  0  0 
    1.8469   -1.3443    0.3170 H   0  0  0  0  0  0  0  0  0  0  0  0 
   -2.0000   -3.0534    1.4262 H   0  0  0  0  0  0  0  0  0  0  0  0 
   -2.3532   -1.3174    1.5263 H   0  0  0  0  0  0  0  0  0  0  0  0 
   -1.3129   -2.6574   -1.3098 H   0  0  0  0  0  0  0  0  0  0  0  0 
  1  3  1  0  0  0  0 
  2  4  2  0  0  0  0 
  3 17  1  0  0  0  0 
  3  7  2  0  0  0  0 
  4  7  1  0  0  0  0 
  4 18  1  0  0  0  0 
  5 19  1  0  0  0  0 
  5 20  1  0  0  0  0 
  6  1  2  0  0  0  0 
  6  2  1  0  0  0  0 
  7 14  1  0  0  0  0 
  8 10  2  0  0  0  0 
  8  5  1  0  0  0  0 
  9  6  1  0  0  0  0 
 11 21  1  0  0  0  0 
 11  8  1  0  0  0  0 
 12  9  2  0  0  0  0 
 13  9  2  0  0  0  0 
 14  5  1  0  0  0  0 
 15  1  1  0  0  0  0 
 16  2  1  0  0  0  0 
M  END 
>  <HBA> 
3 
 
>  <HBD> 
1 
 
>  <TPSA> 
92.35 
 
>  <cid> 
15720 
 
>  <dipole> 
4.59 
 
>  <excitation_energy_1> 
3.759 
 
>  <excitation_energy_2> 
4.246 
 
>  <excitation_energy_3> 
4.29 
 
>  <excitation_energy_4> 
4.511 
 
>  <homo_energy> 
-7.298 
 
>  <homo_lumo_gap> 
4.762 
 
>  <logP> 
1.581 
 
>  <lumo_energy> 
-2.536 
 
>  <melting_point> 
124.71 
 
>  <molecular_refractivity> 
48.33 
 
>  <oscillator_strength_1> 
0.0002 
 
>  <oscillator_strength_2> 
0.2732 
 
>  <oscillator_strength_3> 
0.0038 
 
>  <oscillator_strength_4> 
0.0126 
 
>  <open_babel_can_smiles> 
OC(=O)COc1ccc(cc1)N(=O)=O 
 
>  <mulliken_charges> 
21 
1   -0.159402 
2   -0.150675 
3   -0.193982 
4   -0.182845 
5   -0.166876 
6   0.277718 
7   0.373866 
8   0.57981 
9   0.378324 
10   -0.433336 
11   -0.555239 
12   -0.395545 
13   -0.395733 
14   -0.53645 
15   0.194635 
16   0.190884 
17   0.174573 
18   0.162383 
19   0.210459 
20   0.197827 
21   0.429605 
 
>  <lowdin_charges> 
21 
1   -0.120917 
2   -0.122944 
3   -0.197246 
4   -0.172725 
5   -0.173195 
6   -0.009912 
7   0.110318 
8   0.166677 
9   0.30761 
10   -0.227728 
11   -0.335448 
12   -0.247773 
13   -0.245837 
14   -0.204043 
15   0.194207 
16   0.190539 
17   0.179011 
18   0.178902 
19   0.188034 
20   0.177959 
21   0.364512 
 
$$$$ 
 
