PCCDB-ID:  58485 
public computational chemistry database (PCCDB) project, http://pccdb.org 
 
 27 27  0  0  0  0  0  0  0  0999 V2000 
    2.2648    1.6260   -1.2953 C   0  0  0  0  0  0  0  0  0  0  0  0 
    2.8232    1.8340    1.1586 C   0  0  0  0  0  0  0  0  0  0  0  0 
    1.0437    0.2397    0.4232 C   0  0  0  0  0  0  0  0  0  0  0  0 
    8.6977    1.1564   -1.2849 C   0  0  0  0  0  0  0  0  0  0  0  0 
    9.0669    1.8564   -0.1808 C   0  0  0  0  0  0  0  0  0  0  0  0 
    4.6065   -0.1463   -0.6886 C   0  0  0  0  0  0  0  0  0  0  0  0 
    6.7872    0.9555   -0.1987 C   0  0  0  0  0  0  0  0  0  0  0  0 
    2.3938    0.8685    0.0394 C   0  0  0  0  0  0  0  0  0  0  0  0 
    4.8675   -0.7312   -1.7899 N   0  0  0  0  0  0  0  0  0  0  0  0 
    7.4161    0.6446   -1.2970 N   0  0  0  0  0  0  0  0  0  0  0  0 
    5.4883    0.6236    0.1061 N   0  0  0  0  0  0  0  0  0  0  0  0 
    3.3442   -0.2866   -0.0729 N   0  0  0  0  0  0  0  0  0  0  0  0 
    7.7367    1.9161    0.9527 S   0  0  0  0  0  0  0  0  0  0  0  0 
    1.5241    2.4306   -1.2159 H   0  0  0  0  0  0  0  0  0  0  0  0 
    1.9532    0.9498   -2.0989 H   0  0  0  0  0  0  0  0  0  0  0  0 
    3.2204    2.0728   -1.5894 H   0  0  0  0  0  0  0  0  0  0  0  0 
    2.0267    2.5616    1.3492 H   0  0  0  0  0  0  0  0  0  0  0  0 
    3.7196    2.4024    0.8911 H   0  0  0  0  0  0  0  0  0  0  0  0 
    3.0094    1.2873    2.0908 H   0  0  0  0  0  0  0  0  0  0  0  0 
    0.2820    1.0150    0.5555 H   0  0  0  0  0  0  0  0  0  0  0  0 
    1.1314   -0.3258    1.3570 H   0  0  0  0  0  0  0  0  0  0  0  0 
    0.6906   -0.4436   -0.3593 H   0  0  0  0  0  0  0  0  0  0  0  0 
    9.3374    0.9710   -2.1402 H   0  0  0  0  0  0  0  0  0  0  0  0 
   10.0123    2.3276    0.0457 H   0  0  0  0  0  0  0  0  0  0  0  0 
    5.8539   -0.6265   -2.0348 H   0  0  0  0  0  0  0  0  0  0  0  0 
    5.1894    0.7589    1.0612 H   0  0  0  0  0  0  0  0  0  0  0  0 
    2.8851   -1.0277   -0.5983 H   0  0  0  0  0  0  0  0  0  0  0  0 
  1 14  1  0  0  0  0 
  1  8  1  0  0  0  0 
  2 17  1  0  0  0  0 
  2 19  1  0  0  0  0 
  3 20  1  0  0  0  0 
  3 21  1  0  0  0  0 
  4  5  2  0  0  0  0 
  5 24  1  0  0  0  0 
  5 13  1  0  0  0  0 
  6 12  1  0  0  0  0 
  6 11  1  0  0  0  0 
  7 11  1  0  0  0  0 
  7 13  1  0  0  0  0 
  8  3  1  0  0  0  0 
  8  2  1  0  0  0  0 
  9  6  2  0  0  0  0 
 10  4  1  0  0  0  0 
 10  7  2  0  0  0  0 
 11 26  1  0  0  0  0 
 12  8  1  0  0  0  0 
 15  1  1  0  0  0  0 
 16  1  1  0  0  0  0 
 18  2  1  0  0  0  0 
 22  3  1  0  0  0  0 
 23  4  1  0  0  0  0 
 25  9  1  0  0  0  0 
 27 12  1  0  0  0  0 
M  END 
>  <HBA> 
5 
 
>  <HBD> 
2 
 
>  <TPSA> 
91.54 
 
>  <cid> 
58485 
 
>  <dipole> 
3.08 
 
>  <excitation_energy_1> 
4.532 
 
>  <excitation_energy_2> 
4.791 
 
>  <excitation_energy_3> 
5.063 
 
>  <excitation_energy_4> 
5.348 
 
>  <homo_energy> 
-5.886 
 
>  <homo_lumo_gap> 
5.333 
 
>  <logP> 
2.442 
 
>  <lumo_energy> 
-0.552 
 
>  <melting_point> 
133.08 
 
>  <molecular_refractivity> 
57.08 
 
>  <oscillator_strength_1> 
0.0002 
 
>  <oscillator_strength_2> 
0.2957 
 
>  <oscillator_strength_3> 
0.0263 
 
>  <oscillator_strength_4> 
0.0046 
 
>  <open_babel_can_smiles> 
N=C(NC(C)(C)C)Nc1nccs1 
 
>  <mulliken_charges> 
27 
1   -0.439583 
2   -0.464062 
3   -0.45377 
4   0.074878 
5   -0.358897 
6   0.585947 
7   0.329468 
8   0.201171 
9   -0.636776 
10   -0.457753 
11   -0.66194 
12   -0.617692 
13   0.207928 
14   0.139481 
15   0.154528 
16   0.157669 
17   0.150536 
18   0.150838 
19   0.147336 
20   0.148772 
21   0.157122 
22   0.144817 
23   0.156393 
24   0.17952 
25   0.323818 
26   0.354575 
27   0.325674 
 
>  <lowdin_charges> 
27 
1   -0.453813 
2   -0.457669 
3   -0.446381 
4   -0.115436 
5   -0.342537 
6   0.123908 
7   -0.022179 
8   0.076786 
9   -0.43356 
10   -0.200155 
11   -0.247502 
12   -0.33168 
13   0.253349 
14   0.150944 
15   0.157911 
16   0.157554 
17   0.157284 
18   0.151432 
19   0.150858 
20   0.155048 
21   0.156723 
22   0.150972 
23   0.171376 
24   0.189728 
25   0.268105 
26   0.299087 
27   0.279849 
 
$$$$ 
 
