PCCDB-ID:  9249 
public computational chemistry database (PCCDB) project, http://pccdb.org 
 
 17 19  0  0  1  0  0  0  0  0999 V2000 
    1.7309    0.0003   -0.1557 C   0  0  0  0  0  0  0  0  0  0  0  0 
    0.9819   -1.2740    0.2705 C   0  0  0  0  0  0  0  0  0  0  0  0 
    0.9818    1.2757    0.2669 C   0  0  0  0  0  0  0  0  0  0  0  0 
   -0.5139   -1.1339   -0.0128 C   0  0  1  0  0  0  0  0  0  0  0  0 
   -0.5141    1.1346   -0.0160 C   0  0  2  0  0  0  0  0  0  0  0  0 
   -1.2870    0.0012    0.5936 C   0  0  1  0  0  0  0  0  0  0  0  0 
   -1.0175   -0.0009   -0.8739 C   0  0  2  0  0  0  0  0  0  0  0  0 
    1.8049   -0.0013   -1.2507 H   0  0  0  0  0  0  0  0  0  0  0  0 
    2.7562    0.0009    0.2329 H   0  0  0  0  0  0  0  0  0  0  0  0 
    1.1297   -1.4744    1.3409 H   0  0  0  0  0  0  0  0  0  0  0  0 
    1.3896   -2.1377   -0.2712 H   0  0  0  0  0  0  0  0  0  0  0  0 
    1.3894    2.1379   -0.2772 H   0  0  0  0  0  0  0  0  0  0  0  0 
    1.1295    1.4790    1.3368 H   0  0  0  0  0  0  0  0  0  0  0  0 
   -1.0636   -2.0726   -0.1019 H   0  0  0  0  0  0  0  0  0  0  0  0 
   -1.0638    2.0730   -0.1077 H   0  0  0  0  0  0  0  0  0  0  0  0 
   -2.2374    0.0018    1.1112 H   0  0  0  0  0  0  0  0  0  0  0  0 
   -1.7194   -0.0021   -1.6972 H   0  0  0  0  0  0  0  0  0  0  0  0 
  1  9  1  0  0  0  0 
  1  3  1  0  0  0  0 
  1  2  1  0  0  0  0 
  2 10  1  0  0  0  0 
  3 13  1  0  0  0  0 
  4 14  1  6  0  0  0 
  4  2  1  0  0  0  0 
  4  6  1  0  0  0  0 
  5 15  1  6  0  0  0 
  5  3  1  0  0  0  0 
  5  6  1  0  0  0  0 
  6 16  1  1  0  0  0 
  7 17  1  6  0  0  0 
  7  5  1  0  0  0  0 
  7  4  1  0  0  0  0 
  7  6  1  0  0  0  0 
  8  1  1  0  0  0  0 
 11  2  1  0  0  0  0 
 12  3  1  0  0  0  0 
M  END 
>  <HBA> 
0 
 
>  <HBD> 
0 
 
>  <TPSA> 
0.0 
 
>  <cid> 
9249 
 
>  <dipole> 
0.55 
 
>  <excitation_energy_1> 
5.819 
 
>  <excitation_energy_2> 
6.249 
 
>  <excitation_energy_3> 
6.355 
 
>  <excitation_energy_4> 
6.357 
 
>  <homo_energy> 
-6.272 
 
>  <homo_lumo_gap> 
8.803 
 
>  <logP> 
1.662 
 
>  <lumo_energy> 
2.531 
 
>  <melting_point> 
40.51 
 
>  <molecular_refractivity> 
29.42 
 
>  <oscillator_strength_1> 
0.0043 
 
>  <oscillator_strength_2> 
0.0406 
 
>  <oscillator_strength_3> 
0.0228 
 
>  <oscillator_strength_4> 
0.0244 
 
>  <open_babel_can_smiles> 
C1C[C@@H]2[C@@H]3[C@H](C1)[C@H]23 
 
>  <mulliken_charges> 
17 
1   -0.272414 
2   -0.249486 
3   -0.249489 
4   -0.164013 
5   -0.164016 
6   -0.106512 
7   -0.109443 
8   0.138899 
9   0.127057 
10   0.13246 
11   0.127781 
12   0.127783 
13   0.132462 
14   0.127843 
15   0.127844 
16   0.137649 
17   0.135594 
 
>  <lowdin_charges> 
17 
1   -0.27101 
2   -0.27648 
3   -0.276499 
4   -0.127832 
5   -0.12784 
6   -0.194674 
7   -0.198499 
8   0.142144 
9   0.141219 
10   0.139677 
11   0.143384 
12   0.143393 
13   0.139688 
14   0.148977 
15   0.148981 
16   0.162074 
17   0.163298 
 
$$$$ 
 
