PCCDB-ID:  9263 
public computational chemistry database (PCCDB) project, http://pccdb.org 
 
  8  8  0  0  0  0  0  0  0  0999 V2000 
   -0.6877    1.0626    0.0790 C   0  0  0  0  0  0  0  0  0  0  0  0 
    0.6944   -1.0568    0.0840 C   0  0  0  0  0  0  0  0  0  0  0  0 
   -1.3608   -0.0953    0.0839 N   0  0  0  0  0  0  0  0  0  0  0  0 
    0.6433    1.2116    0.0797 N   0  0  0  0  0  0  0  0  0  0  0  0 
   -0.6366   -1.2058    0.0867 N   0  0  0  0  0  0  0  0  0  0  0  0 
    1.3675    0.1011    0.0822 N   0  0  0  0  0  0  0  0  0  0  0  0 
   -1.2809    1.9721    0.0747 H   0  0  0  0  0  0  0  0  0  0  0  0 
    1.2875   -1.9663    0.0838 H   0  0  0  0  0  0  0  0  0  0  0  0 
  1  4  1  0  0  0  0 
  1  3  2  0  0  0  0 
  2  5  2  0  0  0  0 
  3  5  1  0  0  0  0 
  4  6  2  0  0  0  0 
  6  2  1  0  0  0  0 
  7  1  1  0  0  0  0 
  8  2  1  0  0  0  0 
M  END 
>  <HBA> 
4 
 
>  <HBD> 
0 
 
>  <TPSA> 
51.56 
 
>  <cid> 
9263 
 
>  <dipole> 
0.01 
 
>  <excitation_energy_1> 
2.238 
 
>  <excitation_energy_2> 
3.439 
 
>  <excitation_energy_3> 
4.764 
 
>  <excitation_energy_4> 
5.191 
 
>  <homo_energy> 
-6.819 
 
>  <homo_lumo_gap> 
3.671 
 
>  <logP> 
-0.733 
 
>  <lumo_energy> 
-3.148 
 
>  <melting_point> 
64.33 
 
>  <molecular_refractivity> 
17.62 
 
>  <oscillator_strength_1> 
0.0054 
 
>  <oscillator_strength_2> 
0.0 
 
>  <oscillator_strength_3> 
0.0 
 
>  <oscillator_strength_4> 
0.0 
 
>  <open_babel_can_smiles> 
n1ncnnc1 
 
>  <mulliken_charges> 
8 
1   0.195587 
2   0.195551 
3   -0.196393 
4   -0.196383 
5   -0.196387 
6   -0.196399 
7   0.197206 
8   0.197218 
 
>  <lowdin_charges> 
8 
1   -0.068421 
2   -0.068426 
3   -0.058793 
4   -0.058371 
5   -0.05837 
6   -0.058793 
7   0.185586 
8   0.185588 
 
$$$$ 
 
