PCCDB-ID:  26851 
public computational chemistry database (PCCDB) project, http://pccdb.org 
 
 38 38  0  0  0  0  0  0  0  0999 V2000 
    3.7392    3.3353    0.7481 C   0  0  0  0  0  0  0  0  0  0  0  0 
    1.9266   -0.4051   -2.0047 C   0  0  0  0  0  0  0  0  0  0  0  0 
    9.8065    3.2935   -7.6122 C   0  0  0  0  0  0  0  0  0  0  0  0 
    2.9190    2.9312   -0.4782 C   0  0  0  0  0  0  0  0  0  0  0  0 
    2.0383    1.1096   -1.8216 C   0  0  0  0  0  0  0  0  0  0  0  0 
    9.3861    1.0952   -4.4483 C   0  0  0  0  0  0  0  0  0  0  0  0 
    7.8285    2.6356   -5.4553 C   0  0  0  0  0  0  0  0  0  0  0  0 
    8.4678    0.8037   -3.4564 C   0  0  0  0  0  0  0  0  0  0  0  0 
    6.8902    2.3518   -4.4630 C   0  0  0  0  0  0  0  0  0  0  0  0 
    4.4049    1.0669   -1.1198 C   0  0  0  0  0  0  0  0  0  0  0  0 
    5.0765    1.6679   -2.3655 C   0  0  0  0  0  0  0  0  0  0  0  0 
   10.1192    2.2919   -6.5090 C   0  0  0  0  0  0  0  0  0  0  0  0 
    9.0857    2.0186   -5.4687 C   0  0  0  0  0  0  0  0  0  0  0  0 
    7.2087    1.4314   -3.4551 C   0  0  0  0  0  0  0  0  0  0  0  0 
    3.0452    1.5147   -0.8355 N   0  0  0  0  0  0  0  0  0  0  0  0 
   11.2022    1.7231   -6.4831 O   0  0  0  0  0  0  0  0  0  0  0  0 
    6.3767    1.0798   -2.4401 O   0  0  0  0  0  0  0  0  0  0  0  0 
    3.4651    4.3499    1.0575 H   0  0  0  0  0  0  0  0  0  0  0  0 
    4.8170    3.3366    0.5542 H   0  0  0  0  0  0  0  0  0  0  0  0 
    3.5412    2.6542    1.5826 H   0  0  0  0  0  0  0  0  0  0  0  0 
    1.0525   -0.6388   -2.6225 H   0  0  0  0  0  0  0  0  0  0  0  0 
    1.8068   -0.8996   -1.0349 H   0  0  0  0  0  0  0  0  0  0  0  0 
    2.8004   -0.8367   -2.5044 H   0  0  0  0  0  0  0  0  0  0  0  0 
    8.9392    2.9735   -8.2023 H   0  0  0  0  0  0  0  0  0  0  0  0 
   10.6765    3.3721   -8.2664 H   0  0  0  0  0  0  0  0  0  0  0  0 
    9.5740    4.2818   -7.1980 H   0  0  0  0  0  0  0  0  0  0  0  0 
    3.1620    3.6086   -1.3213 H   0  0  0  0  0  0  0  0  0  0  0  0 
    1.8586    3.1022   -0.2557 H   0  0  0  0  0  0  0  0  0  0  0  0 
    1.0754    1.4847   -1.4538 H   0  0  0  0  0  0  0  0  0  0  0  0 
    2.1901    1.5887   -2.8096 H   0  0  0  0  0  0  0  0  0  0  0  0 
   10.3607    0.6182   -4.4615 H   0  0  0  0  0  0  0  0  0  0  0  0 
    7.5621    3.3514   -6.2271 H   0  0  0  0  0  0  0  0  0  0  0  0 
    8.6911    0.0935   -2.6664 H   0  0  0  0  0  0  0  0  0  0  0  0 
    5.9261    2.8463   -4.4808 H   0  0  0  0  0  0  0  0  0  0  0  0 
    5.0396    1.2840   -0.2553 H   0  0  0  0  0  0  0  0  0  0  0  0 
    4.4052   -0.0218   -1.2276 H   0  0  0  0  0  0  0  0  0  0  0  0 
    5.1652    2.7597   -2.2862 H   0  0  0  0  0  0  0  0  0  0  0  0 
    4.5107    1.4372   -3.2781 H   0  0  0  0  0  0  0  0  0  0  0  0 
  1 18  1  0  0  0  0 
  1 20  1  0  0  0  0 
  2  5  1  0  0  0  0 
  2 22  1  0  0  0  0 
  3 26  1  0  0  0  0 
  3 12  1  0  0  0  0 
  4 28  1  0  0  0  0 
  4  1  1  0  0  0  0 
  5 29  1  0  0  0  0 
  5 15  1  0  0  0  0 
  6  8  2  0  0  0  0 
  7  9  1  0  0  0  0 
  8 14  1  0  0  0  0 
  8 33  1  0  0  0  0 
  9 14  2  0  0  0  0 
 10 15  1  0  0  0  0 
 10 35  1  0  0  0  0 
 11 37  1  0  0  0  0 
 11 10  1  0  0  0  0 
 12 16  2  0  0  0  0 
 12 13  1  0  0  0  0 
 13  7  2  0  0  0  0 
 13  6  1  0  0  0  0 
 14 17  1  0  0  0  0 
 15  4  1  0  0  0  0 
 17 11  1  0  0  0  0 
 19  1  1  0  0  0  0 
 21  2  1  0  0  0  0 
 23  2  1  0  0  0  0 
 24  3  1  0  0  0  0 
 25  3  1  0  0  0  0 
 27  4  1  0  0  0  0 
 30  5  1  0  0  0  0 
 31  6  1  0  0  0  0 
 32  7  1  0  0  0  0 
 34  9  1  0  0  0  0 
 36 10  1  0  0  0  0 
 38 11  1  0  0  0  0 
M  END 
>  <HBA> 
3 
 
>  <HBD> 
0 
 
>  <TPSA> 
29.54 
 
>  <cid> 
26851 
 
>  <dipole> 
4.86 
 
>  <excitation_energy_1> 
3.837 
 
>  <excitation_energy_2> 
4.081 
 
>  <excitation_energy_3> 
4.669 
 
>  <excitation_energy_4> 
4.801 
 
>  <homo_energy> 
-5.81 
 
>  <homo_lumo_gap> 
4.64 
 
>  <logP> 
2.61 
 
>  <lumo_energy> 
-1.17 
 
>  <melting_point> 
43.64 
 
>  <molecular_refractivity> 
70.06 
 
>  <oscillator_strength_1> 
0.0001 
 
>  <oscillator_strength_2> 
0.0 
 
>  <oscillator_strength_3> 
0.4437 
 
>  <oscillator_strength_4> 
0.0022 
 
>  <open_babel_can_smiles> 
CCN(CCOc1ccc(cc1)C(=O)C)CC 
 
>  <mulliken_charges> 
38 
1   -0.459243 
2   -0.459165 
3   -0.542606 
4   -0.10875 
5   -0.108507 
6   -0.16507 
7   -0.194634 
8   -0.176988 
9   -0.198054 
10   -0.167978 
11   -0.050066 
12   0.404192 
13   0.078334 
14   0.392017 
15   -0.384401 
16   -0.462 
17   -0.518922 
18   0.147244 
19   0.149862 
20   0.16018 
21   0.147157 
22   0.160092 
23   0.150062 
24   0.16753 
25   0.179601 
26   0.166948 
27   0.109088 
28   0.140141 
29   0.140052 
30   0.109185 
31   0.164988 
32   0.13455 
33   0.143751 
34   0.137373 
35   0.160929 
36   0.161065 
37   0.145946 
38   0.146097 
 
>  <lowdin_charges> 
38 
1   -0.449887 
2   -0.45311 
3   -0.477418 
4   -0.19665 
5   -0.196598 
6   -0.118304 
7   -0.138795 
8   -0.181766 
9   -0.217165 
10   -0.214735 
11   -0.142423 
12   0.158566 
13   -0.072273 
14   0.116148 
15   -0.188071 
16   -0.252246 
17   -0.190075 
18   0.155096 
19   0.147474 
20   0.157647 
21   0.15628 
22   0.156903 
23   0.150053 
24   0.168392 
25   0.174403 
26   0.166986 
27   0.114239 
28   0.143982 
29   0.145465 
30   0.112907 
31   0.177509 
32   0.162375 
33   0.16976 
34   0.163925 
35   0.157001 
36   0.154193 
37   0.138723 
38   0.14149 
 
$$$$ 
 
