PCCDB-ID:  23195 
public computational chemistry database (PCCDB) project, http://pccdb.org 
 
 29 29  0  0  1  0  0  0  0  0999 V2000 
    1.9592    1.1874   -0.1320 C   0  0  0  0  0  0  0  0  0  0  0  0 
    1.2305   -1.4494   -2.7304 C   0  0  0  0  0  0  0  0  0  0  0  0 
    5.6555   -2.7146    0.1330 C   0  0  0  0  0  0  0  0  0  0  0  0 
    1.6633   -0.2877    0.1560 C   0  0  0  0  0  0  0  0  0  0  0  0 
    2.5899   -1.1756   -2.0769 C   0  0  0  0  0  0  0  0  0  0  0  0 
    2.3803   -2.7209   -0.0321 C   0  0  0  0  0  0  0  0  0  0  0  0 
    4.5080   -1.9401    0.7810 C   0  0  2  0  0  0  0  0  0  0  0  0 
    3.3025   -2.8261    1.1925 C   0  0  2  0  0  0  0  0  0  0  0  0 
    2.6160   -1.2866   -0.5419 C   0  0  0  0  0  0  0  0  0  0  0  0 
    3.6236   -4.1443    1.6015 O   0  0  0  0  0  0  0  0  0  0  0  0 
    3.9805   -0.9769   -0.1387 O   0  0  0  0  0  0  0  0  0  0  0  0 
    1.3292    1.8349    0.4881 H   0  0  0  0  0  0  0  0  0  0  0  0 
    1.7668    1.4486   -1.1788 H   0  0  0  0  0  0  0  0  0  0  0  0 
    3.0066    1.4165    0.0865 H   0  0  0  0  0  0  0  0  0  0  0  0 
    1.3176   -1.4191   -3.8222 H   0  0  0  0  0  0  0  0  0  0  0  0 
    0.4786   -0.7066   -2.4417 H   0  0  0  0  0  0  0  0  0  0  0  0 
    0.8427   -2.4386   -2.4587 H   0  0  0  0  0  0  0  0  0  0  0  0 
    6.1265   -3.3913    0.8548 H   0  0  0  0  0  0  0  0  0  0  0  0 
    6.4134   -2.0128   -0.2277 H   0  0  0  0  0  0  0  0  0  0  0  0 
    5.3135   -3.2991   -0.7310 H   0  0  0  0  0  0  0  0  0  0  0  0 
    0.6286   -0.5258   -0.1242 H   0  0  0  0  0  0  0  0  0  0  0  0 
    1.7302   -0.4577    1.2387 H   0  0  0  0  0  0  0  0  0  0  0  0 
    2.9457   -0.1779   -2.3590 H   0  0  0  0  0  0  0  0  0  0  0  0 
    3.3346   -1.8820   -2.4651 H   0  0  0  0  0  0  0  0  0  0  0  0 
    1.3352   -2.9295    0.2135 H   0  0  0  0  0  0  0  0  0  0  0  0 
    2.6962   -3.4540   -0.7880 H   0  0  0  0  0  0  0  0  0  0  0  0 
    4.9003   -1.3958    1.6500 H   0  0  0  0  0  0  0  0  0  0  0  0 
    2.8134   -2.3842    2.0657 H   0  0  0  0  0  0  0  0  0  0  0  0 
    4.0159   -4.6016    0.8409 H   0  0  0  0  0  0  0  0  0  0  0  0 
  1 14  1  0  0  0  0 
  1  4  1  0  0  0  0 
  1 12  1  0  0  0  0 
  2 17  1  0  0  0  0 
  2 16  1  0  0  0  0 
  2  5  1  0  0  0  0 
  3  7  1  0  0  0  0 
  3 18  1  0  0  0  0 
  4 22  1  0  0  0  0 
  5  9  1  0  0  0  0 
  6 25  1  0  0  0  0 
  6  8  1  0  0  0  0 
  7  8  1  0  0  0  0 
  7 27  1  1  0  0  0 
  8 10  1  0  0  0  0 
  8 28  1  1  0  0  0 
  9 11  1  0  0  0  0 
  9  6  1  0  0  0  0 
  9  4  1  0  0  0  0 
 11  7  1  0  0  0  0 
 13  1  1  0  0  0  0 
 15  2  1  0  0  0  0 
 19  3  1  0  0  0  0 
 20  3  1  0  0  0  0 
 21  4  1  0  0  0  0 
 23  5  1  0  0  0  0 
 24  5  1  0  0  0  0 
 26  6  1  0  0  0  0 
 29 10  1  0  0  0  0 
M  END 
>  <HBA> 
2 
 
>  <HBD> 
1 
 
>  <TPSA> 
29.46 
 
>  <cid> 
23195 
 
>  <dipole> 
1.25 
 
>  <excitation_energy_1> 
6.069 
 
>  <excitation_energy_2> 
6.297 
 
>  <excitation_energy_3> 
6.396 
 
>  <excitation_energy_4> 
6.53 
 
>  <homo_energy> 
-6.582 
 
>  <homo_lumo_gap> 
8.37 
 
>  <logP> 
1.715 
 
>  <lumo_energy> 
1.788 
 
>  <melting_point> 
14.71 
 
>  <molecular_refractivity> 
45.55 
 
>  <oscillator_strength_1> 
0.0311 
 
>  <oscillator_strength_2> 
0.0057 
 
>  <oscillator_strength_3> 
0.0075 
 
>  <oscillator_strength_4> 
0.0011 
 
>  <open_babel_can_smiles> 
CCC1(CC)C[C@H]([C@H](O1)C)O 
 
>  <mulliken_charges> 
29 
1   -0.45477 
2   -0.460403 
3   -0.477555 
4   -0.269749 
5   -0.271731 
6   -0.34083 
7   0.155583 
8   0.103336 
9   0.351065 
10   -0.62525 
11   -0.539196 
12   0.139399 
13   0.142798 
14   0.166796 
15   0.147539 
16   0.150192 
17   0.145686 
18   0.150362 
19   0.164324 
20   0.132788 
21   0.131432 
22   0.132168 
23   0.148251 
24   0.131318 
25   0.154363 
26   0.126762 
27   0.129512 
28   0.145683 
29   0.39013 
 
>  <lowdin_charges> 
29 
1   -0.448314 
2   -0.448414 
3   -0.467507 
4   -0.282175 
5   -0.281046 
6   -0.306777 
7   -0.014295 
8   -0.020147 
9   0.125196 
10   -0.449763 
11   -0.283412 
12   0.151049 
13   0.144901 
14   0.158328 
15   0.151727 
16   0.150307 
17   0.146954 
18   0.156154 
19   0.165156 
20   0.142569 
21   0.141587 
22   0.141012 
23   0.150888 
24   0.144852 
25   0.157058 
26   0.143078 
27   0.140023 
28   0.149519 
29   0.34149 
 
$$$$ 
 
