PCCDB-ID:  21407 
public computational chemistry database (PCCDB) project, http://pccdb.org 
 
 18 17  0  0  0  0  0  0  0  0999 V2000 
    2.5195   -1.3915   -1.2504 C   0  0  0  0  0  0  0  0  0  0  0  0 
    4.7496    2.3524   -2.1140 C   0  0  0  0  0  0  0  0  0  0  0  0 
    2.2639   -0.4897   -0.0404 C   0  0  0  0  0  0  0  0  0  0  0  0 
    2.9186    0.8945   -0.1668 C   0  0  0  0  0  0  0  0  0  0  0  0 
    5.1033    1.3881   -0.9985 C   0  0  0  0  0  0  0  0  0  0  0  0 
    4.3620    0.7770   -0.1777 N   0  0  0  0  0  0  0  0  0  0  0  0 
    6.4536    1.1700   -0.8691 O   0  0  0  0  0  0  0  0  0  0  0  0 
    2.0406   -2.3693   -1.1255 H   0  0  0  0  0  0  0  0  0  0  0  0 
    3.5931   -1.5564   -1.3897 H   0  0  0  0  0  0  0  0  0  0  0  0 
    2.1235   -0.9431   -2.1713 H   0  0  0  0  0  0  0  0  0  0  0  0 
    3.6730    2.4781   -2.2321 H   0  0  0  0  0  0  0  0  0  0  0  0 
    5.1588    1.9976   -3.0685 H   0  0  0  0  0  0  0  0  0  0  0  0 
    5.1855    3.3389   -1.9108 H   0  0  0  0  0  0  0  0  0  0  0  0 
    2.6483   -0.9705    0.8673 H   0  0  0  0  0  0  0  0  0  0  0  0 
    1.1837   -0.3481    0.1008 H   0  0  0  0  0  0  0  0  0  0  0  0 
    2.6364    1.4957    0.7095 H   0  0  0  0  0  0  0  0  0  0  0  0 
    2.4993    1.4073   -1.0499 H   0  0  0  0  0  0  0  0  0  0  0  0 
    6.9236    1.6819   -1.5448 H   0  0  0  0  0  0  0  0  0  0  0  0 
  1  8  1  0  0  0  0 
  1  3  1  0  0  0  0 
  2 13  1  0  0  0  0 
  2  5  1  0  0  0  0 
  3 15  1  0  0  0  0 
  3 14  1  0  0  0  0 
  4  3  1  0  0  0  0 
  4 16  1  0  0  0  0 
  5  7  1  0  0  0  0 
  5  6  2  0  0  0  0 
  6  4  1  0  0  0  0 
  9  1  1  0  0  0  0 
 10  1  1  0  0  0  0 
 11  2  1  0  0  0  0 
 12  2  1  0  0  0  0 
 17  4  1  0  0  0  0 
 18  7  1  0  0  0  0 
M  END 
>  <HBA> 
2 
 
>  <HBD> 
1 
 
>  <TPSA> 
29.1 
 
>  <cid> 
21407 
 
>  <dipole> 
3.42 
 
>  <excitation_energy_1> 
5.689 
 
>  <excitation_energy_2> 
5.793 
 
>  <excitation_energy_3> 
5.868 
 
>  <excitation_energy_4> 
6.48 
 
>  <homo_energy> 
-6.536 
 
>  <homo_lumo_gap> 
7.325 
 
>  <logP> 
0.923 
 
>  <lumo_energy> 
0.789 
 
>  <melting_point> 
22.67 
 
>  <molecular_refractivity> 
29.15 
 
>  <oscillator_strength_1> 
0.0019 
 
>  <oscillator_strength_2> 
0.0028 
 
>  <oscillator_strength_3> 
0.0062 
 
>  <oscillator_strength_4> 
0.0146 
 
>  <open_babel_can_smiles> 
CCC/N=C(/O)\C 
 
>  <mulliken_charges> 
18 
1   -0.445165 
2   -0.557196 
3   -0.241655 
4   -0.14443 
5   0.489885 
6   -0.401813 
7   -0.579643 
8   0.140849 
9   0.161247 
10   0.129097 
11   0.182242 
12   0.169313 
13   0.174267 
14   0.147975 
15   0.123816 
16   0.14272 
17   0.107501 
18   0.400989 
 
>  <lowdin_charges> 
18 
1   -0.446718 
2   -0.483212 
3   -0.273659 
4   -0.198833 
5   0.130931 
6   -0.20239 
7   -0.379723 
8   0.148774 
9   0.154055 
10   0.140291 
11   0.171067 
12   0.16593 
13   0.168276 
14   0.15008 
15   0.137109 
16   0.147264 
17   0.118271 
18   0.352487 
 
$$$$ 
 
