PCCDB-ID:  19920 
public computational chemistry database (PCCDB) project, http://pccdb.org 
 
 20 20  0  0  1  0  0  0  0  0999 V2000 
    0.6610   -0.5854    1.5701 C   0  0  0  0  0  0  0  0  0  0  0  0 
    0.3933   -2.4768   -0.0997 C   0  0  0  0  0  0  0  0  0  0  0  0 
    0.2538    1.0542   -1.0308 C   0  0  0  0  0  0  0  0  0  0  0  0 
   -0.6927    1.7115   -3.3629 C   0  0  0  0  0  0  0  0  0  0  0  0 
    0.7484   -1.0069    0.1000 C   0  0  0  0  0  0  0  0  0  0  0  0 
   -0.8127    1.6760   -1.9009 C   0  0  2  0  0  0  0  0  0  0  0  0 
   -0.1601   -0.2618   -0.7183 O   0  0  0  0  0  0  0  0  0  0  0  0 
   -0.4287    2.8810   -2.5727 O   0  0  0  0  0  0  0  0  0  0  0  0 
    1.3671   -1.1629    2.1776 H   0  0  0  0  0  0  0  0  0  0  0  0 
   -0.3504   -0.7620    1.9531 H   0  0  0  0  0  0  0  0  0  0  0  0 
    0.8985    0.4749    1.7060 H   0  0  0  0  0  0  0  0  0  0  0  0 
    1.0639   -3.1210    0.4793 H   0  0  0  0  0  0  0  0  0  0  0  0 
    0.4709   -2.7497   -1.1567 H   0  0  0  0  0  0  0  0  0  0  0  0 
   -0.6355   -2.6643    0.2277 H   0  0  0  0  0  0  0  0  0  0  0  0 
    0.3830    1.6683   -0.1254 H   0  0  0  0  0  0  0  0  0  0  0  0 
    1.2163    1.0555   -1.5689 H   0  0  0  0  0  0  0  0  0  0  0  0 
   -1.5897    1.7604   -3.9803 H   0  0  0  0  0  0  0  0  0  0  0  0 
    0.1791    1.2641   -3.8413 H   0  0  0  0  0  0  0  0  0  0  0  0 
    1.7749   -0.8314   -0.2651 H   0  0  0  0  0  0  0  0  0  0  0  0 
   -1.8114    1.6931   -1.4608 H   0  0  0  0  0  0  0  0  0  0  0  0 
  1 11  1  0  0  0  0 
  1 10  1  0  0  0  0 
  1  9  1  0  0  0  0 
  2  5  1  0  0  0  0 
  2 14  1  0  0  0  0 
  2 12  1  0  0  0  0 
  3  7  1  0  0  0  0 
  3 15  1  0  0  0  0 
  4  8  1  0  0  0  0 
  4  6  1  0  0  0  0 
  5  1  1  0  0  0  0 
  6 20  1  1  0  0  0 
  6  3  1  0  0  0  0 
  7  5  1  0  0  0  0 
  8  6  1  0  0  0  0 
 13  2  1  0  0  0  0 
 16  3  1  0  0  0  0 
 17  4  1  0  0  0  0 
 18  4  1  0  0  0  0 
 19  5  1  0  0  0  0 
M  END 
>  <HBA> 
2 
 
>  <HBD> 
0 
 
>  <TPSA> 
21.76 
 
>  <cid> 
19920 
 
>  <dipole> 
1.79 
 
>  <excitation_energy_1> 
6.553 
 
>  <excitation_energy_2> 
6.96 
 
>  <excitation_energy_3> 
7.013 
 
>  <excitation_energy_4> 
7.069 
 
>  <homo_energy> 
-6.936 
 
>  <homo_lumo_gap> 
9.056 
 
>  <logP> 
0.81 
 
>  <lumo_energy> 
2.12 
 
>  <melting_point> 
-21.88 
 
>  <molecular_refractivity> 
31.01 
 
>  <oscillator_strength_1> 
0.0086 
 
>  <oscillator_strength_2> 
0.0066 
 
>  <oscillator_strength_3> 
0.0166 
 
>  <oscillator_strength_4> 
0.0095 
 
>  <open_babel_can_smiles> 
CC(OC[C@H]1OC1)C 
 
>  <mulliken_charges> 
20 
1   -0.456265 
2   -0.447358 
3   -0.031158 
4   -0.103542 
5   0.163649 
6   0.092523 
7   -0.48818 
8   -0.448603 
9   0.143782 
10   0.153098 
11   0.148835 
12   0.141148 
13   0.153674 
14   0.153683 
15   0.132378 
16   0.126255 
17   0.152307 
18   0.150394 
19   0.111728 
20   0.151652 
 
>  <lowdin_charges> 
20 
1   -0.459246 
2   -0.446936 
3   -0.133338 
4   -0.164319 
5   0.012481 
6   -0.023135 
7   -0.276261 
8   -0.286201 
9   0.155498 
10   0.15414 
11   0.15064 
12   0.153715 
13   0.155601 
14   0.15457 
15   0.134917 
16   0.132822 
17   0.155546 
18   0.15377 
19   0.123079 
20   0.152656 
 
$$$$ 
 
