PCCDB-ID:  68073 
public computational chemistry database (PCCDB) project, http://pccdb.org 
 
 20 20  0  0  0  0  0  0  0  0999 V2000 
    1.1808    0.3060    0.9122 C   0  0  0  0  0  0  0  0  0  0  0  0 
    4.6445    1.5760   -2.4892 C   0  0  0  0  0  0  0  0  0  0  0  0 
    3.5299    3.3946   -1.3467 C   0  0  0  0  0  0  0  0  0  0  0  0 
    2.5874    0.0802    0.3736 C   0  0  0  0  0  0  0  0  0  0  0  0 
    4.3807    2.9390   -2.3523 C   0  0  0  0  0  0  0  0  0  0  0  0 
    4.0608    0.6622   -1.6042 C   0  0  0  0  0  0  0  0  0  0  0  0 
    2.9443    2.4708   -0.4814 C   0  0  0  0  0  0  0  0  0  0  0  0 
    3.1845    1.0815   -0.5744 C   0  0  0  0  0  0  0  0  0  0  0  0 
    3.2048   -0.9210    0.6969 O   0  0  0  0  0  0  0  0  0  0  0  0 
    4.9277    3.8763   -3.1761 O   0  0  0  0  0  0  0  0  0  0  0  0 
    4.2955   -0.6665   -1.7496 O   0  0  0  0  0  0  0  0  0  0  0  0 
    2.1262    2.9064    0.5222 O   0  0  0  0  0  0  0  0  0  0  0  0 
    0.5234    0.7856    0.1811 H   0  0  0  0  0  0  0  0  0  0  0  0 
    1.2162    0.9568    1.7918 H   0  0  0  0  0  0  0  0  0  0  0  0 
    0.7788   -0.6658    1.2096 H   0  0  0  0  0  0  0  0  0  0  0  0 
    5.3035    1.2199   -3.2800 H   0  0  0  0  0  0  0  0  0  0  0  0 
    3.3449    4.4602   -1.2460 H   0  0  0  0  0  0  0  0  0  0  0  0 
    5.5044    3.4370   -3.8204 H   0  0  0  0  0  0  0  0  0  0  0  0 
    4.8593   -0.7981   -2.5278 H   0  0  0  0  0  0  0  0  0  0  0  0 
    2.0600    3.8726    0.4711 H   0  0  0  0  0  0  0  0  0  0  0  0 
  1 15  1  0  0  0  0 
  1 14  1  0  0  0  0 
  2  5  2  0  0  0  0 
  2  6  1  0  0  0  0 
  3 17  1  0  0  0  0 
  3  7  2  0  0  0  0 
  4  9  2  0  0  0  0 
  4  1  1  0  0  0  0 
  5  3  1  0  0  0  0 
  6  8  2  0  0  0  0 
  7 12  1  0  0  0  0 
  8  7  1  0  0  0  0 
  8  4  1  0  0  0  0 
 10  5  1  0  0  0  0 
 11  6  1  0  0  0  0 
 13  1  1  0  0  0  0 
 16  2  1  0  0  0  0 
 18 10  1  0  0  0  0 
 19 11  1  0  0  0  0 
 20 12  1  0  0  0  0 
M  END 
>  <HBA> 
4 
 
>  <HBD> 
3 
 
>  <TPSA> 
77.76 
 
>  <cid> 
68073 
 
>  <dipole> 
4.75 
 
>  <excitation_energy_1> 
3.887 
 
>  <excitation_energy_2> 
4.536 
 
>  <excitation_energy_3> 
4.895 
 
>  <excitation_energy_4> 
5.13 
 
>  <homo_energy> 
-6.052 
 
>  <homo_lumo_gap> 
5.325 
 
>  <logP> 
1.006 
 
>  <lumo_energy> 
-0.727 
 
>  <melting_point> 
161.14 
 
>  <molecular_refractivity> 
42.71 
 
>  <oscillator_strength_1> 
0.0018 
 
>  <oscillator_strength_2> 
0.0238 
 
>  <oscillator_strength_3> 
0.2086 
 
>  <oscillator_strength_4> 
0.0008 
 
>  <open_babel_can_smiles> 
CC(=O)c1c(O)cc(cc1O)O 
 
>  <mulliken_charges> 
20 
1   -0.510601 
2   -0.287624 
3   -0.252458 
4   0.401485 
5   0.374536 
6   0.326273 
7   0.31003 
8   -0.00726 
9   -0.435976 
10   -0.641842 
11   -0.609554 
12   -0.64452 
13   0.154422 
14   0.181619 
15   0.166314 
16   0.107932 
17   0.130069 
18   0.412575 
19   0.408922 
20   0.415656 
 
>  <lowdin_charges> 
20 
1   -0.474321 
2   -0.293883 
3   -0.269073 
4   0.168449 
5   0.129866 
6   0.142491 
7   0.128738 
8   -0.125908 
9   -0.236148 
10   -0.36672 
11   -0.34307 
12   -0.362529 
13   0.161533 
14   0.177867 
15   0.167047 
16   0.151466 
17   0.163814 
18   0.362586 
19   0.358068 
20   0.359726 
 
$$$$ 
 
