PCCDB-ID:  70467 
public computational chemistry database (PCCDB) project, http://pccdb.org 
 
 26 25  0  0  0  0  0  0  0  0999 V2000 
    1.1177    3.7939    1.8252 C   0  0  0  0  0  0  0  0  0  0  0  0 
    2.8234    3.6762   -0.0508 C   0  0  0  0  0  0  0  0  0  0  0  0 
    5.3971    1.8598    4.0714 C   0  0  0  0  0  0  0  0  0  0  0  0 
    6.8424    1.1508    2.1188 C   0  0  0  0  0  0  0  0  0  0  0  0 
    3.1021    2.3267    2.0736 C   0  0  0  0  0  0  0  0  0  0  0  0 
    4.3840    1.6101    1.7324 C   0  0  0  0  0  0  0  0  0  0  0  0 
    5.9460    3.4871    2.2858 C   0  0  0  0  0  0  0  0  0  0  0  0 
    2.4124    3.2005    1.3215 C   0  0  0  0  0  0  0  0  0  0  0  0 
    5.6540    2.0157    2.5567 C   0  0  0  0  0  0  0  0  0  0  0  0 
    6.9435    3.9130    1.7443 O   0  0  0  0  0  0  0  0  0  0  0  0 
    1.1769    4.8903    1.8725 H   0  0  0  0  0  0  0  0  0  0  0  0 
    0.8584    3.4241    2.8222 H   0  0  0  0  0  0  0  0  0  0  0  0 
    0.2852    3.5580    1.1475 H   0  0  0  0  0  0  0  0  0  0  0  0 
    2.0532    3.4266   -0.7937 H   0  0  0  0  0  0  0  0  0  0  0  0 
    3.7701    3.2535   -0.3945 H   0  0  0  0  0  0  0  0  0  0  0  0 
    2.9228    4.7702   -0.0640 H   0  0  0  0  0  0  0  0  0  0  0  0 
    5.0757    0.8360    4.2977 H   0  0  0  0  0  0  0  0  0  0  0  0 
    4.6190    2.5431    4.4290 H   0  0  0  0  0  0  0  0  0  0  0  0 
    6.3099    2.0595    4.6440 H   0  0  0  0  0  0  0  0  0  0  0  0 
    6.6412    0.0928    2.3228 H   0  0  0  0  0  0  0  0  0  0  0  0 
    7.7536    1.4382    2.6527 H   0  0  0  0  0  0  0  0  0  0  0  0 
    7.0415    1.2654    1.0487 H   0  0  0  0  0  0  0  0  0  0  0  0 
    2.6808    2.0741    3.0472 H   0  0  0  0  0  0  0  0  0  0  0  0 
    4.6227    1.7160    0.6688 H   0  0  0  0  0  0  0  0  0  0  0  0 
    4.2383    0.5333    1.9058 H   0  0  0  0  0  0  0  0  0  0  0  0 
    5.1506    4.1849    2.6304 H   0  0  0  0  0  0  0  0  0  0  0  0 
  1 11  1  0  0  0  0 
  1 12  1  0  0  0  0 
  2  8  1  0  0  0  0 
  3 17  1  0  0  0  0 
  3 18  1  0  0  0  0 
  3 19  1  0  0  0  0 
  4 20  1  0  0  0  0 
  4  9  1  0  0  0  0 
  4 21  1  0  0  0  0 
  5 23  1  0  0  0  0 
  6 25  1  0  0  0  0 
  6  5  1  0  0  0  0 
  6  9  1  0  0  0  0 
  7  9  1  0  0  0  0 
  7 26  1  0  0  0  0 
  8  1  1  0  0  0  0 
  8  5  2  0  0  0  0 
  9  3  1  0  0  0  0 
 10  7  2  0  0  0  0 
 13  1  1  0  0  0  0 
 14  2  1  0  0  0  0 
 15  2  1  0  0  0  0 
 16  2  1  0  0  0  0 
 22  4  1  0  0  0  0 
 24  6  1  0  0  0  0 
M  END 
>  <HBA> 
1 
 
>  <HBD> 
0 
 
>  <TPSA> 
17.07 
 
>  <cid> 
70467 
 
>  <dipole> 
2.65 
 
>  <excitation_energy_1> 
4.109 
 
>  <excitation_energy_2> 
5.075 
 
>  <excitation_energy_3> 
5.716 
 
>  <excitation_energy_4> 
6.128 
 
>  <homo_energy> 
-6.24 
 
>  <homo_lumo_gap> 
5.761 
 
>  <logP> 
2.568 
 
>  <lumo_energy> 
-0.479 
 
>  <melting_point> 
35.07 
 
>  <molecular_refractivity> 
44.84 
 
>  <oscillator_strength_1> 
0.001 
 
>  <oscillator_strength_2> 
0.0047 
 
>  <oscillator_strength_3> 
0.0136 
 
>  <oscillator_strength_4> 
0.0641 
 
>  <open_babel_can_smiles> 
O=CC(CC=C(C)C)(C)C 
 
>  <mulliken_charges> 
26 
1   -0.506823 
2   -0.51588 
3   -0.466309 
4   -0.440586 
5   -0.176828 
6   -0.316545 
7   0.254083 
8   0.189633 
9   0.017608 
10   -0.394151 
11   0.152591 
12   0.151837 
13   0.152666 
14   0.155498 
15   0.158673 
16   0.158309 
17   0.151198 
18   0.153115 
19   0.155827 
20   0.135843 
21   0.154669 
22   0.155364 
23   0.116801 
24   0.148961 
25   0.146382 
26   0.108062 
 
>  <lowdin_charges> 
26 
1   -0.437866 
2   -0.445345 
3   -0.443778 
4   -0.436788 
5   -0.203101 
6   -0.268231 
7   0.05111 
8   -0.003443 
9   -0.022859 
10   -0.220981 
11   0.152483 
12   0.154092 
13   0.155328 
14   0.158482 
15   0.15747 
16   0.157073 
17   0.153933 
18   0.154625 
19   0.156184 
20   0.146126 
21   0.15795 
22   0.155805 
23   0.146909 
24   0.150431 
25   0.152041 
26   0.12235 
 
$$$$ 
 
