PCCDB-ID:  12703 
public computational chemistry database (PCCDB) project, http://pccdb.org 
 
 21 20  0  0  0  0  0  0  0  0999 V2000 
    2.6261    0.1455    1.4900 C   0  0  0  0  0  0  0  0  0  0  0  0 
    1.8648   -2.4876   -2.0760 C   0  0  0  0  0  0  0  0  0  0  0  0 
    5.1490   -3.1165   -0.5304 C   0  0  0  0  0  0  0  0  0  0  0  0 
    2.8394   -0.1060   -0.0054 C   0  0  0  0  0  0  0  0  0  0  0  0 
    2.2991   -2.4790   -0.6053 C   0  0  0  0  0  0  0  0  0  0  0  0 
    4.6595   -1.7027   -0.2339 C   0  0  0  0  0  0  0  0  0  0  0  0 
    3.3070   -1.4662   -0.2957 N   0  0  0  0  0  0  0  0  0  0  0  0 
    5.4536   -0.8116    0.0570 O   0  0  0  0  0  0  0  0  0  0  0  0 
    2.2517    1.1623    1.6571 H   0  0  0  0  0  0  0  0  0  0  0  0 
    3.5735    0.0349    2.0250 H   0  0  0  0  0  0  0  0  0  0  0  0 
    1.8996   -0.5565    1.9167 H   0  0  0  0  0  0  0  0  0  0  0  0 
    1.0818   -3.2373   -2.2400 H   0  0  0  0  0  0  0  0  0  0  0  0 
    2.7085   -2.7229   -2.7337 H   0  0  0  0  0  0  0  0  0  0  0  0 
    1.4667   -1.5126   -2.3773 H   0  0  0  0  0  0  0  0  0  0  0  0 
    4.7690   -3.5069   -1.4805 H   0  0  0  0  0  0  0  0  0  0  0  0 
    4.8516   -3.8152    0.2609 H   0  0  0  0  0  0  0  0  0  0  0  0 
    6.2383   -3.0796   -0.5680 H   0  0  0  0  0  0  0  0  0  0  0  0 
    3.5843    0.5913   -0.3945 H   0  0  0  0  0  0  0  0  0  0  0  0 
    1.9067    0.0531   -0.5585 H   0  0  0  0  0  0  0  0  0  0  0  0 
    2.6778   -3.4637   -0.3207 H   0  0  0  0  0  0  0  0  0  0  0  0 
    1.4295   -2.2922    0.0373 H   0  0  0  0  0  0  0  0  0  0  0  0 
  1  9  1  0  0  0  0 
  1 11  1  0  0  0  0 
  1 10  1  0  0  0  0 
  2  5  1  0  0  0  0 
  3  6  1  0  0  0  0 
  3 16  1  0  0  0  0 
  4  1  1  0  0  0  0 
  5 20  1  0  0  0  0 
  5  7  1  0  0  0  0 
  5 21  1  0  0  0  0 
  6  8  2  0  0  0  0 
  7  6  1  0  0  0  0 
  7  4  1  0  0  0  0 
 12  2  1  0  0  0  0 
 13  2  1  0  0  0  0 
 14  2  1  0  0  0  0 
 15  3  1  0  0  0  0 
 17  3  1  0  0  0  0 
 18  4  1  0  0  0  0 
 19  4  1  0  0  0  0 
M  END 
>  <HBA> 
2 
 
>  <HBD> 
0 
 
>  <TPSA> 
20.31 
 
>  <cid> 
12703 
 
>  <dipole> 
3.69 
 
>  <excitation_energy_1> 
5.552 
 
>  <excitation_energy_2> 
5.704 
 
>  <excitation_energy_3> 
6.045 
 
>  <excitation_energy_4> 
6.168 
 
>  <homo_energy> 
-6.264 
 
>  <homo_lumo_gap> 
7.225 
 
>  <logP> 
0.875 
 
>  <lumo_energy> 
0.961 
 
>  <melting_point> 
-2.54 
 
>  <molecular_refractivity> 
34.05 
 
>  <oscillator_strength_1> 
0.0021 
 
>  <oscillator_strength_2> 
0.0161 
 
>  <oscillator_strength_3> 
0.0241 
 
>  <oscillator_strength_4> 
0.0456 
 
>  <open_babel_can_smiles> 
CCN(C(=O)C)CC 
 
>  <mulliken_charges> 
21 
1   -0.444368 
2   -0.440949 
3   -0.549601 
4   -0.140981 
5   -0.151895 
6   0.577053 
7   -0.39271 
8   -0.517353 
9   0.143708 
10   0.177025 
11   0.138157 
12   0.147542 
13   0.155761 
14   0.1565 
15   0.162259 
16   0.16905 
17   0.186445 
18   0.180112 
19   0.135056 
20   0.156483 
21   0.152706 
 
>  <lowdin_charges> 
21 
1   -0.452085 
2   -0.454931 
3   -0.475474 
4   -0.195696 
5   -0.197294 
6   0.162268 
7   -0.111807 
8   -0.322737 
9   0.151796 
10   0.165262 
11   0.145634 
12   0.154829 
13   0.153933 
14   0.154058 
15   0.162018 
16   0.167625 
17   0.176494 
18   0.169407 
19   0.141987 
20   0.154687 
21   0.150025 
 
$$$$ 
 
