PCCDB-ID:  36830 
public computational chemistry database (PCCDB) project, http://pccdb.org 
 
 21 21  0  0  0  0  0  0  0  0999 V2000 
    5.1842    4.0204    1.1155 C   0  0  0  0  0  0  0  0  0  0  0  0 
    4.2909    3.0490    1.3112 C   0  0  0  0  0  0  0  0  0  0  0  0 
   -0.2233    3.1765    1.1289 C   0  0  0  0  0  0  0  0  0  0  0  0 
    0.0806    0.8396    1.6679 C   0  0  0  0  0  0  0  0  0  0  0  0 
   -1.6030    2.9751    1.1234 C   0  0  0  0  0  0  0  0  0  0  0  0 
   -1.2944    0.6431    1.6612 C   0  0  0  0  0  0  0  0  0  0  0  0 
    0.6354    2.1025    1.4033 C   0  0  0  0  0  0  0  0  0  0  0  0 
   -2.1481    1.7162    1.3871 C   0  0  0  0  0  0  0  0  0  0  0  0 
    2.8264    3.3275    1.2023 C   0  0  0  0  0  0  0  0  0  0  0  0 
    2.0425    2.2175    1.4308 N   0  0  0  0  0  0  0  0  0  0  0  0 
   -3.4957    1.4712    1.3925 O   0  0  0  0  0  0  0  0  0  0  0  0 
    2.3811    4.4396    0.9353 O   0  0  0  0  0  0  0  0  0  0  0  0 
    6.2523    3.8415    1.1909 H   0  0  0  0  0  0  0  0  0  0  0  0 
    4.8480    5.0244    0.8734 H   0  0  0  0  0  0  0  0  0  0  0  0 
    4.6124    2.0367    1.5537 H   0  0  0  0  0  0  0  0  0  0  0  0 
    0.1946    4.1520    0.9250 H   0  0  0  0  0  0  0  0  0  0  0  0 
    0.7355   -0.0028    1.8834 H   0  0  0  0  0  0  0  0  0  0  0  0 
   -2.2602    3.8162    0.9087 H   0  0  0  0  0  0  0  0  0  0  0  0 
   -1.7201   -0.3340    1.8656 H   0  0  0  0  0  0  0  0  0  0  0  0 
    2.5338    1.3582    1.6367 H   0  0  0  0  0  0  0  0  0  0  0  0 
   -3.9640    2.2952    1.1877 H   0  0  0  0  0  0  0  0  0  0  0  0 
  1 13  1  0  0  0  0 
  1  2  2  0  0  0  0 
  2 15  1  0  0  0  0 
  3  7  1  0  0  0  0 
  4 17  1  0  0  0  0 
  5  3  2  0  0  0  0 
  5  8  1  0  0  0  0 
  6  4  1  0  0  0  0 
  6 19  1  0  0  0  0 
  7 10  1  0  0  0  0 
  7  4  2  0  0  0  0 
  8 11  1  0  0  0  0 
  8  6  2  0  0  0  0 
  9  2  1  0  0  0  0 
  9 10  1  0  0  0  0 
 10 20  1  0  0  0  0 
 12  9  2  0  0  0  0 
 14  1  1  0  0  0  0 
 16  3  1  0  0  0  0 
 18  5  1  0  0  0  0 
 21 11  1  0  0  0  0 
M  END 
>  <HBA> 
3 
 
>  <HBD> 
2 
 
>  <TPSA> 
49.33 
 
>  <cid> 
36830 
 
>  <dipole> 
1.92 
 
>  <excitation_energy_1> 
3.931 
 
>  <excitation_energy_2> 
4.382 
 
>  <excitation_energy_3> 
4.565 
 
>  <excitation_energy_4> 
4.772 
 
>  <homo_energy> 
-5.483 
 
>  <homo_lumo_gap> 
4.365 
 
>  <logP> 
1.59 
 
>  <lumo_energy> 
-1.118 
 
>  <melting_point> 
78.31 
 
>  <molecular_refractivity> 
47.11 
 
>  <oscillator_strength_1> 
0.3536 
 
>  <oscillator_strength_2> 
0.0001 
 
>  <oscillator_strength_3> 
0.0255 
 
>  <oscillator_strength_4> 
0.0001 
 
>  <open_babel_can_smiles> 
C=CC(=O)Nc1ccc(cc1)O 
 
>  <mulliken_charges> 
21 
1   -0.30785 
2   -0.151851 
3   -0.164702 
4   -0.200722 
5   -0.21041 
6   -0.163391 
7   0.353589 
8   0.356328 
9   0.619234 
10   -0.738715 
11   -0.646789 
12   -0.522092 
13   0.151888 
14   0.182251 
15   0.126364 
16   0.191096 
17   0.122893 
18   0.123603 
19   0.14182 
20   0.329651 
21   0.407807 
 
>  <lowdin_charges> 
21 
1   -0.270609 
2   -0.195464 
3   -0.166425 
4   -0.176981 
5   -0.205492 
6   -0.178467 
7   0.041835 
8   0.096046 
9   0.163441 
10   -0.232196 
11   -0.383137 
12   -0.304494 
13   0.164916 
14   0.180797 
15   0.151621 
16   0.190591 
17   0.154823 
18   0.156773 
19   0.168782 
20   0.285546 
21   0.358096 
 
$$$$ 
 
