PCCDB-ID:  30210 
public computational chemistry database (PCCDB) project, http://pccdb.org 
 
 23 22  0  0  0  0  0  0  0  0999 V2000 
    2.6627    0.4450   -2.4418 C   0  0  0  0  0  0  0  0  0  0  0  0 
    4.9208   -1.4907    3.1481 C   0  0  0  0  0  0  0  0  0  0  0  0 
    5.4372   -4.2725   -0.1567 C   0  0  0  0  0  0  0  0  0  0  0  0 
    3.4302   -1.5637   -1.4868 C   0  0  0  0  0  0  0  0  0  0  0  0 
    4.0848   -1.6182    0.9517 C   0  0  0  0  0  0  0  0  0  0  0  0 
    4.4083   -2.1246   -0.4516 C   0  0  0  0  0  0  0  0  0  0  0  0 
    3.5267   -0.1527   -1.4990 O   0  0  0  0  0  0  0  0  0  0  0  0 
    5.1572   -1.9281    1.8274 O   0  0  0  0  0  0  0  0  0  0  0  0 
    4.2958   -3.5362   -0.5679 O   0  0  0  0  0  0  0  0  0  0  0  0 
    2.8070    1.5264   -2.3720 H   0  0  0  0  0  0  0  0  0  0  0  0 
    1.6065    0.2098   -2.2333 H   0  0  0  0  0  0  0  0  0  0  0  0 
    2.8929    0.1186   -3.4687 H   0  0  0  0  0  0  0  0  0  0  0  0 
    5.8014   -1.7549    3.7398 H   0  0  0  0  0  0  0  0  0  0  0  0 
    4.0350   -1.9773    3.5879 H   0  0  0  0  0  0  0  0  0  0  0  0 
    4.7731   -0.3995    3.1940 H   0  0  0  0  0  0  0  0  0  0  0  0 
    6.3379   -3.9499   -0.7024 H   0  0  0  0  0  0  0  0  0  0  0  0 
    5.2335   -5.3194   -0.3997 H   0  0  0  0  0  0  0  0  0  0  0  0 
    5.6255   -4.1721    0.9174 H   0  0  0  0  0  0  0  0  0  0  0  0 
    2.4040   -1.8870   -1.2411 H   0  0  0  0  0  0  0  0  0  0  0  0 
    3.6815   -1.9877   -2.4713 H   0  0  0  0  0  0  0  0  0  0  0  0 
    3.1519   -2.0955    1.2974 H   0  0  0  0  0  0  0  0  0  0  0  0 
    3.9216   -0.5301    0.9146 H   0  0  0  0  0  0  0  0  0  0  0  0 
    5.4265   -1.7958   -0.7122 H   0  0  0  0  0  0  0  0  0  0  0  0 
  1 10  1  0  0  0  0 
  1 11  1  0  0  0  0 
  1  7  1  0  0  0  0 
  2 15  1  0  0  0  0 
  2 14  1  0  0  0  0 
  2 13  1  0  0  0  0 
  3 18  1  0  0  0  0 
  4 19  1  0  0  0  0 
  4  6  1  0  0  0  0 
  5 21  1  0  0  0  0 
  5  8  1  0  0  0  0 
  6  5  1  0  0  0  0 
  7  4  1  0  0  0  0 
  8  2  1  0  0  0  0 
  9  6  1  0  0  0  0 
  9  3  1  0  0  0  0 
 12  1  1  0  0  0  0 
 16  3  1  0  0  0  0 
 17  3  1  0  0  0  0 
 20  4  1  0  0  0  0 
 22  5  1  0  0  0  0 
 23  6  1  0  0  0  0 
M  END 
>  <HBA> 
3 
 
>  <HBD> 
0 
 
>  <TPSA> 
27.69 
 
>  <cid> 
30210 
 
>  <dipole> 
0.94 
 
>  <excitation_energy_1> 
6.447 
 
>  <excitation_energy_2> 
6.559 
 
>  <excitation_energy_3> 
6.617 
 
>  <excitation_energy_4> 
6.69 
 
>  <homo_energy> 
-6.588 
 
>  <homo_lumo_gap> 
8.882 
 
>  <logP> 
0.294 
 
>  <lumo_energy> 
2.294 
 
>  <melting_point> 
-53.41 
 
>  <molecular_refractivity> 
34.21 
 
>  <oscillator_strength_1> 
0.0124 
 
>  <oscillator_strength_2> 
0.017 
 
>  <oscillator_strength_3> 
0.0131 
 
>  <oscillator_strength_4> 
0.0097 
 
>  <open_babel_can_smiles> 
COC(COC)COC 
 
>  <mulliken_charges> 
23 
1   -0.190108 
2   -0.190164 
3   -0.198025 
4   -0.02853 
5   -0.015981 
6   0.109369 
7   -0.466376 
8   -0.468519 
9   -0.486604 
10   0.158888 
11   0.131736 
12   0.132926 
13   0.156429 
14   0.130885 
15   0.130969 
16   0.127377 
17   0.147624 
18   0.160011 
19   0.12667 
20   0.134967 
21   0.120774 
22   0.142327 
23   0.133354 
 
>  <lowdin_charges> 
23 
1   -0.273141 
2   -0.277441 
3   -0.279149 
4   -0.134143 
5   -0.145458 
6   -0.007857 
7   -0.272975 
8   -0.271957 
9   -0.273791 
10   0.153348 
11   0.130923 
12   0.132089 
13   0.154822 
14   0.132601 
15   0.130077 
16   0.131835 
17   0.147792 
18   0.145295 
19   0.130072 
20   0.137456 
21   0.130636 
22   0.14015 
23   0.138816 
 
$$$$ 
 
