PCCDB-ID:  10009 
public computational chemistry database (PCCDB) project, http://pccdb.org 
 
 13 13  0  0  0  0  0  0  0  0999 V2000 
   -0.7598    1.1481   -0.0026 C   0  0  0  0  0  0  0  0  0  0  0  0 
   -1.4212   -0.0762   -0.0130 C   0  0  0  0  0  0  0  0  0  0  0  0 
    0.6350    1.1672    0.0336 C   0  0  0  0  0  0  0  0  0  0  0  0 
    0.7349   -1.1203    0.0482 C   0  0  0  0  0  0  0  0  0  0  0  0 
   -0.6661   -1.2575    0.0150 C   0  0  0  0  0  0  0  0  0  0  0  0 
   -1.2658   -2.5162    0.0657 N   0  0  0  0  0  0  0  0  0  0  0  0 
    1.3725    0.0495    0.0580 N   0  0  0  0  0  0  0  0  0  0  0  0 
   -1.3215    2.0777   -0.0247 H   0  0  0  0  0  0  0  0  0  0  0  0 
   -2.5079   -0.1229   -0.0378 H   0  0  0  0  0  0  0  0  0  0  0  0 
    1.1810    2.1083    0.0417 H   0  0  0  0  0  0  0  0  0  0  0  0 
    1.3604   -2.0142    0.0706 H   0  0  0  0  0  0  0  0  0  0  0  0 
   -2.1950   -2.5665   -0.3334 H   0  0  0  0  0  0  0  0  0  0  0  0 
   -0.6831   -3.2795   -0.2561 H   0  0  0  0  0  0  0  0  0  0  0  0 
  1  3  1  0  0  0  0 
  2  1  2  0  0  0  0 
  2  5  1  0  0  0  0 
  3 10  1  0  0  0  0 
  3  7  2  0  0  0  0 
  4  7  1  0  0  0  0 
  4 11  1  0  0  0  0 
  5  4  2  0  0  0  0 
  5  6  1  0  0  0  0 
  8  1  1  0  0  0  0 
  9  2  1  0  0  0  0 
 12  6  1  0  0  0  0 
 13  6  1  0  0  0  0 
M  END 
>  <HBA> 
2 
 
>  <HBD> 
1 
 
>  <TPSA> 
38.91 
 
>  <cid> 
10009 
 
>  <dipole> 
3.25 
 
>  <excitation_energy_1> 
4.618 
 
>  <excitation_energy_2> 
4.87 
 
>  <excitation_energy_3> 
4.98 
 
>  <excitation_energy_4> 
5.494 
 
>  <homo_energy> 
-5.766 
 
>  <homo_lumo_gap> 
5.393 
 
>  <logP> 
1.245 
 
>  <lumo_energy> 
-0.373 
 
>  <melting_point> 
67.98 
 
>  <molecular_refractivity> 
28.64 
 
>  <oscillator_strength_1> 
0.0584 
 
>  <oscillator_strength_2> 
0.0051 
 
>  <oscillator_strength_3> 
0.0063 
 
>  <oscillator_strength_4> 
0.0279 
 
>  <open_babel_can_smiles> 
Nc1cccnc1 
 
>  <mulliken_charges> 
13 
1   -0.142888 
2   -0.142497 
3   0.024247 
4   -0.004534 
5   0.299096 
6   -0.792222 
7   -0.4108 
8   0.132822 
9   0.12897 
10   0.13381 
11   0.126379 
12   0.322433 
13   0.325183 
 
>  <lowdin_charges> 
13 
1   -0.165646 
2   -0.173246 
3   -0.119878 
4   -0.133514 
5   0.040429 
6   -0.485882 
7   -0.139853 
8   0.162525 
9   0.155029 
10   0.153984 
11   0.149772 
12   0.276593 
13   0.279686 
 
$$$$ 
 
