PCCDB-ID:  22541 
public computational chemistry database (PCCDB) project, http://pccdb.org 
 
 27 26  0  0  0  0  0  0  0  0999 V2000 
    1.5504   -0.4432    0.1282 C   0  0  0  0  0  0  0  0  0  0  0  0 
    2.9144   -1.6740    1.8307 C   0  0  0  0  0  0  0  0  0  0  0  0 
    3.1728   -2.1942   -0.6331 C   0  0  0  0  0  0  0  0  0  0  0  0 
    5.6993    1.3150   -0.2006 C   0  0  0  0  0  0  0  0  0  0  0  0 
    5.2966    0.4934    2.1327 C   0  0  0  0  0  0  0  0  0  0  0  0 
    6.0584   -1.1072    0.3264 C   0  0  0  0  0  0  0  0  0  0  0  0 
    2.9181   -1.0879    0.4092 C   0  0  0  0  0  0  0  0  0  0  0  0 
    5.1975    0.1279    0.6386 C   0  0  0  0  0  0  0  0  0  0  0  0 
    3.8201    0.0230    0.2201 O   0  0  0  0  0  0  0  0  0  0  0  0 
    0.7451   -1.1828    0.1988 H   0  0  0  0  0  0  0  0  0  0  0  0 
    1.5391   -0.0085   -0.8764 H   0  0  0  0  0  0  0  0  0  0  0  0 
    1.3556    0.3589    0.8474 H   0  0  0  0  0  0  0  0  0  0  0  0 
    2.1169   -2.4216    1.9134 H   0  0  0  0  0  0  0  0  0  0  0  0 
    2.7239   -0.8950    2.5753 H   0  0  0  0  0  0  0  0  0  0  0  0 
    3.8552   -2.1737    2.0804 H   0  0  0  0  0  0  0  0  0  0  0  0 
    2.3387   -2.9058   -0.6421 H   0  0  0  0  0  0  0  0  0  0  0  0 
    4.0858   -2.7591   -0.4291 H   0  0  0  0  0  0  0  0  0  0  0  0 
    3.2565   -1.7514   -1.6310 H   0  0  0  0  0  0  0  0  0  0  0  0 
    6.7430    1.5504    0.0354 H   0  0  0  0  0  0  0  0  0  0  0  0 
    5.0874    2.2008   -0.0023 H   0  0  0  0  0  0  0  0  0  0  0  0 
    5.6238    1.0827   -1.2678 H   0  0  0  0  0  0  0  0  0  0  0  0 
    6.3178    0.8070    2.3797 H   0  0  0  0  0  0  0  0  0  0  0  0 
    5.0423   -0.3453    2.7857 H   0  0  0  0  0  0  0  0  0  0  0  0 
    4.6192    1.3238    2.3576 H   0  0  0  0  0  0  0  0  0  0  0  0 
    7.1056   -0.8900    0.5671 H   0  0  0  0  0  0  0  0  0  0  0  0 
    6.0038   -1.3653   -0.7357 H   0  0  0  0  0  0  0  0  0  0  0  0 
    5.7644   -1.9819    0.9142 H   0  0  0  0  0  0  0  0  0  0  0  0 
  1 10  1  0  0  0  0 
  1  7  1  0  0  0  0 
  1 12  1  0  0  0  0 
  2 13  1  0  0  0  0 
  2 15  1  0  0  0  0 
  2 14  1  0  0  0  0 
  3 17  1  0  0  0  0 
  3  7  1  0  0  0  0 
  4 20  1  0  0  0  0 
  4 19  1  0  0  0  0 
  4  8  1  0  0  0  0 
  5 24  1  0  0  0  0 
  5 22  1  0  0  0  0 
  5 23  1  0  0  0  0 
  6 25  1  0  0  0  0 
  6  8  1  0  0  0  0 
  6 27  1  0  0  0  0 
  7  2  1  0  0  0  0 
  8  5  1  0  0  0  0 
  9  7  1  0  0  0  0 
  9  8  1  0  0  0  0 
 11  1  1  0  0  0  0 
 16  3  1  0  0  0  0 
 18  3  1  0  0  0  0 
 21  4  1  0  0  0  0 
 26  6  1  0  0  0  0 
M  END 
>  <HBA> 
1 
 
>  <HBD> 
0 
 
>  <TPSA> 
9.23 
 
>  <cid> 
22541 
 
>  <dipole> 
1.01 
 
>  <excitation_energy_1> 
6.135 
 
>  <excitation_energy_2> 
6.626 
 
>  <excitation_energy_3> 
6.787 
 
>  <excitation_energy_4> 
6.84 
 
>  <homo_energy> 
-6.52 
 
>  <homo_lumo_gap> 
8.52 
 
>  <logP> 
2.6 
 
>  <lumo_energy> 
2.0 
 
>  <melting_point> 
-14.79 
 
>  <molecular_refractivity> 
41.73 
 
>  <oscillator_strength_1> 
0.0367 
 
>  <oscillator_strength_2> 
0.0001 
 
>  <oscillator_strength_3> 
0.0052 
 
>  <oscillator_strength_4> 
0.0001 
 
>  <open_babel_can_smiles> 
CC(OC(C)(C)C)(C)C 
 
>  <mulliken_charges> 
27 
1   -0.438197 
2   -0.468486 
3   -0.453713 
4   -0.438337 
5   -0.453462 
6   -0.468546 
7   0.336059 
8   0.335828 
9   -0.535023 
10   0.131192 
11   0.150111 
12   0.145995 
13   0.141643 
14   0.15197 
15   0.144709 
16   0.135111 
17   0.142548 
18   0.148635 
19   0.131228 
20   0.15018 
21   0.14596 
22   0.135016 
23   0.142574 
24   0.14858 
25   0.14172 
26   0.15193 
27   0.144776 
 
>  <lowdin_charges> 
27 
1   -0.443916 
2   -0.45893 
3   -0.457776 
4   -0.44055 
5   -0.458738 
6   -0.455431 
7   0.137433 
8   0.139081 
9   -0.284744 
10   0.146064 
11   0.154244 
12   0.153235 
13   0.15413 
14   0.155448 
15   0.147882 
16   0.149535 
17   0.150792 
18   0.153519 
19   0.144336 
20   0.155279 
21   0.150878 
22   0.148147 
23   0.151279 
24   0.154775 
25   0.152414 
26   0.153253 
27   0.148361 
 
$$$$ 
 
