PCCDB-ID:  11375 
public computational chemistry database (PCCDB) project, http://pccdb.org 
 
 19 20  0  0  0  0  0  0  0  0999 V2000 
   -2.4368    0.6313    0.0015 C   0  0  0  0  0  0  0  0  0  0  0  0 
   -2.3790   -0.7839    0.0408 C   0  0  0  0  0  0  0  0  0  0  0  0 
   -1.2814    1.3800   -0.0433 C   0  0  0  0  0  0  0  0  0  0  0  0 
   -1.1609   -1.4272    0.0349 C   0  0  0  0  0  0  0  0  0  0  0  0 
    1.2128    1.4584   -0.0937 C   0  0  0  0  0  0  0  0  0  0  0  0 
    2.3435   -0.6614   -0.0593 C   0  0  0  0  0  0  0  0  0  0  0  0 
   -0.0100    0.7463   -0.0519 C   0  0  0  0  0  0  0  0  0  0  0  0 
    2.4095    0.7668   -0.1011 C   0  0  0  0  0  0  0  0  0  0  0  0 
    0.0454   -0.6834   -0.0113 C   0  0  0  0  0  0  0  0  0  0  0  0 
    3.6521    1.3900   -0.2043 N   0  0  0  0  0  0  0  0  0  0  0  0 
    1.2339   -1.3583   -0.0140 N   0  0  0  0  0  0  0  0  0  0  0  0 
   -3.4034    1.1283    0.0064 H   0  0  0  0  0  0  0  0  0  0  0  0 
   -3.3006   -1.3583    0.0752 H   0  0  0  0  0  0  0  0  0  0  0  0 
   -1.3283    2.4663   -0.0738 H   0  0  0  0  0  0  0  0  0  0  0  0 
   -1.0834   -2.5098    0.0644 H   0  0  0  0  0  0  0  0  0  0  0  0 
    1.2002    2.5465   -0.1238 H   0  0  0  0  0  0  0  0  0  0  0  0 
    3.2777   -1.2272   -0.0668 H   0  0  0  0  0  0  0  0  0  0  0  0 
    3.6760    2.3577    0.0924 H   0  0  0  0  0  0  0  0  0  0  0  0 
    4.4293    0.8641    0.1764 H   0  0  0  0  0  0  0  0  0  0  0  0 
  1 12  1  0  0  0  0 
  1  2  2  0  0  0  0 
  2 13  1  0  0  0  0 
  3  1  1  0  0  0  0 
  4  2  1  0  0  0  0 
  4 15  1  0  0  0  0 
  5  7  1  0  0  0  0 
  6 11  2  0  0  0  0 
  7  3  2  0  0  0  0 
  7  9  1  0  0  0  0 
  8  5  2  0  0  0  0 
  8  6  1  0  0  0  0 
  9  4  2  0  0  0  0 
 10  8  1  0  0  0  0 
 10 18  1  0  0  0  0 
 10 19  1  0  0  0  0 
 11  9  1  0  0  0  0 
 14  3  1  0  0  0  0 
 16  5  1  0  0  0  0 
 17  6  1  0  0  0  0 
M  END 
>  <HBA> 
2 
 
>  <HBD> 
1 
 
>  <TPSA> 
38.91 
 
>  <cid> 
11375 
 
>  <dipole> 
3.04 
 
>  <excitation_energy_1> 
3.871 
 
>  <excitation_energy_2> 
4.42 
 
>  <excitation_energy_3> 
4.455 
 
>  <excitation_energy_4> 
4.792 
 
>  <homo_energy> 
-5.54 
 
>  <homo_lumo_gap> 
4.411 
 
>  <logP> 
2.398 
 
>  <lumo_energy> 
-1.129 
 
>  <melting_point> 
113.31 
 
>  <molecular_refractivity> 
46.15 
 
>  <oscillator_strength_1> 
0.0694 
 
>  <oscillator_strength_2> 
0.0018 
 
>  <oscillator_strength_3> 
0.0061 
 
>  <oscillator_strength_4> 
0.009 
 
>  <open_babel_can_smiles> 
Nc1cnc2c(c1)cccc2 
 
>  <mulliken_charges> 
19 
1   -0.130563 
2   -0.145033 
3   -0.205324 
4   -0.137915 
5   -0.209046 
6   0.009208 
7   0.165712 
8   0.294934 
9   0.223687 
10   -0.795996 
11   -0.497116 
12   0.129006 
13   0.129169 
14   0.125428 
15   0.139756 
16   0.124313 
17   0.129666 
18   0.324388 
19   0.325727 
 
>  <lowdin_charges> 
19 
1   -0.153379 
2   -0.166481 
3   -0.165102 
4   -0.146373 
5   -0.186528 
6   -0.114086 
7   -0.00431 
8   0.035306 
9   0.025042 
10   -0.482699 
11   -0.13855 
12   0.157897 
13   0.158875 
14   0.153232 
15   0.165485 
16   0.153613 
17   0.150769 
18   0.277142 
19   0.280146 
 
$$$$ 
 
