PCCDB-ID:  19588 
public computational chemistry database (PCCDB) project, http://pccdb.org 
 
 32 32  0  0  1  0  0  0  0  0999 V2000 
    0.9529   -1.0715   -2.9964 C   0  0  0  0  0  0  0  0  0  0  0  0 
    2.4498   -1.2412   -0.2241 C   0  0  0  0  0  0  0  0  0  0  0  0 
    3.8610    4.4542   -0.9848 C   0  0  0  0  0  0  0  0  0  0  0  0 
    2.4617   -1.2567   -2.7975 C   0  0  0  0  0  0  0  0  0  0  0  0 
    6.6563   -1.8283   -1.5865 C   0  0  0  0  0  0  0  0  0  0  0  0 
    7.3681   -0.6427   -1.3955 C   0  0  0  0  0  0  0  0  0  0  0  0 
    5.2632   -1.8055   -1.6280 C   0  0  0  0  0  0  0  0  0  0  0  0 
    6.6750    0.5559   -1.2463 C   0  0  0  0  0  0  0  0  0  0  0  0 
    3.0132   -0.6011   -1.5093 C   0  0  2  0  0  0  0  0  0  0  0  0 
    4.5357   -0.6143   -1.4809 C   0  0  0  0  0  0  0  0  0  0  0  0 
    5.2820    0.5539   -1.2825 C   0  0  0  0  0  0  0  0  0  0  0  0 
    4.4083    2.3868   -0.0017 C   0  0  0  0  0  0  0  0  0  0  0  0 
    4.0422    3.5838    0.1650 N   0  0  0  0  0  0  0  0  0  0  0  0 
    4.6002    1.5472    1.0435 O   0  0  0  0  0  0  0  0  0  0  0  0 
    4.6204    1.7904   -1.2047 O   0  0  0  0  0  0  0  0  0  0  0  0 
    0.6349   -1.4885   -3.9587 H   0  0  0  0  0  0  0  0  0  0  0  0 
    0.6808   -0.0087   -2.9892 H   0  0  0  0  0  0  0  0  0  0  0  0 
    0.3692   -1.5698   -2.2148 H   0  0  0  0  0  0  0  0  0  0  0  0 
    1.3575   -1.1691   -0.1891 H   0  0  0  0  0  0  0  0  0  0  0  0 
    2.8519   -0.7385    0.6613 H   0  0  0  0  0  0  0  0  0  0  0  0 
    2.7201   -2.3026   -0.1608 H   0  0  0  0  0  0  0  0  0  0  0  0 
    4.2307    5.4544   -0.7338 H   0  0  0  0  0  0  0  0  0  0  0  0 
    2.7921    4.5535   -1.2160 H   0  0  0  0  0  0  0  0  0  0  0  0 
    4.3738    4.1058   -1.8903 H   0  0  0  0  0  0  0  0  0  0  0  0 
    2.9909   -0.8272   -3.6580 H   0  0  0  0  0  0  0  0  0  0  0  0 
    2.6984   -2.3296   -2.7981 H   0  0  0  0  0  0  0  0  0  0  0  0 
    7.1848   -2.7703   -1.7039 H   0  0  0  0  0  0  0  0  0  0  0  0 
    8.4539   -0.6486   -1.3651 H   0  0  0  0  0  0  0  0  0  0  0  0 
    4.7230   -2.7367   -1.7757 H   0  0  0  0  0  0  0  0  0  0  0  0 
    7.1976    1.4971   -1.1051 H   0  0  0  0  0  0  0  0  0  0  0  0 
    2.6978    0.4482   -1.5234 H   0  0  0  0  0  0  0  0  0  0  0  0 
    4.4188    2.0893    1.8316 H   0  0  0  0  0  0  0  0  0  0  0  0 
  1 17  1  0  0  0  0 
  1  4  1  0  0  0  0 
  1 18  1  0  0  0  0 
  2 19  1  0  0  0  0 
  2 21  1  0  0  0  0 
  2 20  1  0  0  0  0 
  3 22  1  0  0  0  0 
  3 13  1  0  0  0  0 
  4  9  1  0  0  0  0 
  5  6  1  0  0  0  0 
  6 28  1  0  0  0  0 
  6  8  2  0  0  0  0 
  7  5  2  0  0  0  0 
  7 10  1  0  0  0  0 
  8 30  1  0  0  0  0 
  9 31  1  6  0  0  0 
  9 10  1  0  0  0  0 
  9  2  1  0  0  0  0 
 10 11  2  0  0  0  0 
 11  8  1  0  0  0  0 
 11 15  1  0  0  0  0 
 12 13  2  0  0  0  0 
 12 14  1  0  0  0  0 
 14 32  1  0  0  0  0 
 15 12  1  0  0  0  0 
 16  1  1  0  0  0  0 
 23  3  1  0  0  0  0 
 24  3  1  0  0  0  0 
 25  4  1  0  0  0  0 
 26  4  1  0  0  0  0 
 27  5  1  0  0  0  0 
 29  7  1  0  0  0  0 
M  END 
>  <HBA> 
3 
 
>  <HBD> 
1 
 
>  <TPSA> 
38.33 
 
>  <cid> 
19588 
 
>  <dipole> 
1.08 
 
>  <excitation_energy_1> 
5.243 
 
>  <excitation_energy_2> 
5.75 
 
>  <excitation_energy_3> 
5.821 
 
>  <excitation_energy_4> 
5.887 
 
>  <homo_energy> 
-6.474 
 
>  <homo_lumo_gap> 
6.365 
 
>  <logP> 
3.309 
 
>  <lumo_energy> 
-0.109 
 
>  <melting_point> 
69.51 
 
>  <molecular_refractivity> 
60.52 
 
>  <oscillator_strength_1> 
0.0055 
 
>  <oscillator_strength_2> 
0.0005 
 
>  <oscillator_strength_3> 
0.0332 
 
>  <oscillator_strength_4> 
0.004 
 
>  <open_babel_can_smiles> 
CC[C@H](c1ccccc1O/C(=N\C)/O)C 
 
>  <mulliken_charges> 
32 
1   -0.44841 
2   -0.450344 
3   -0.323292 
4   -0.250587 
5   -0.117802 
6   -0.146434 
7   -0.210309 
8   -0.138595 
9   -0.161534 
10   0.16989 
11   0.271382 
12   0.708228 
13   -0.481733 
14   -0.591127 
15   -0.54022 
16   0.144358 
17   0.144554 
18   0.146715 
19   0.145087 
20   0.161425 
21   0.139243 
22   0.153226 
23   0.153108 
24   0.152118 
25   0.140984 
26   0.129586 
27   0.12985 
28   0.133862 
29   0.131519 
30   0.138595 
31   0.143293 
32   0.423363 
 
>  <lowdin_charges> 
32 
1   -0.446578 
2   -0.441681 
3   -0.351385 
4   -0.270546 
5   -0.158919 
6   -0.151635 
7   -0.158673 
8   -0.167483 
9   -0.122458 
10   -0.009041 
11   0.091465 
12   0.186243 
13   -0.263488 
14   -0.361626 
15   -0.164911 
16   0.151538 
17   0.146535 
18   0.14928 
19   0.147366 
20   0.159088 
21   0.144277 
22   0.150564 
23   0.148957 
24   0.144012 
25   0.147462 
26   0.136495 
27   0.158943 
28   0.158225 
29   0.158278 
30   0.166792 
31   0.149878 
32   0.373027 
 
$$$$ 
 
