PCCDB-ID:  13195 
public computational chemistry database (PCCDB) project, http://pccdb.org 
 
 12 12  0  0  0  0  0  0  0  0999 V2000 
    0.9312   -0.0728    0.0894 C   0  0  0  0  0  0  0  0  0  0  0  0 
    3.3119    1.0378    0.0878 C   0  0  0  0  0  0  0  0  0  0  0  0 
    4.5317   -0.7159    0.0968 C   0  0  0  0  0  0  0  0  0  0  0  0 
    2.4234   -0.0114    0.0895 C   0  0  0  0  0  0  0  0  0  0  0  0 
    4.6179    0.5946    0.0922 N   0  0  0  0  0  0  0  0  0  0  0  0 
    3.2294   -1.1382    0.0962 N   0  0  0  0  0  0  0  0  0  0  0  0 
    0.5204    0.9408    0.0907 H   0  0  0  0  0  0  0  0  0  0  0  0 
    0.5365   -0.5897    0.9744 H   0  0  0  0  0  0  0  0  0  0  0  0 
    0.5359   -0.5876   -0.7966 H   0  0  0  0  0  0  0  0  0  0  0  0 
    3.0784    2.0948    0.0844 H   0  0  0  0  0  0  0  0  0  0  0  0 
    5.3635   -1.4081    0.1028 H   0  0  0  0  0  0  0  0  0  0  0  0 
    2.9096   -2.0963    0.0961 H   0  0  0  0  0  0  0  0  0  0  0  0 
  1  4  1  0  0  0  0 
  1  7  1  0  0  0  0 
  1  8  1  0  0  0  0 
  2  4  2  0  0  0  0 
  2  5  1  0  0  0  0 
  3 11  1  0  0  0  0 
  4  6  1  0  0  0  0 
  5  3  2  0  0  0  0 
  6  3  1  0  0  0  0 
  9  1  1  0  0  0  0 
 10  2  1  0  0  0  0 
 12  6  1  0  0  0  0 
M  END 
>  <HBA> 
1 
 
>  <HBD> 
1 
 
>  <TPSA> 
28.68 
 
>  <cid> 
13195 
 
>  <dipole> 
3.9 
 
>  <excitation_energy_1> 
5.112 
 
>  <excitation_energy_2> 
5.824 
 
>  <excitation_energy_3> 
6.131 
 
>  <excitation_energy_4> 
6.285 
 
>  <homo_energy> 
-5.842 
 
>  <homo_lumo_gap> 
6.776 
 
>  <logP> 
0.718 
 
>  <lumo_energy> 
0.933 
 
>  <melting_point> 
69.93 
 
>  <molecular_refractivity> 
23.55 
 
>  <oscillator_strength_1> 
0.0013 
 
>  <oscillator_strength_2> 
0.0033 
 
>  <oscillator_strength_3> 
0.1573 
 
>  <oscillator_strength_4> 
0.0039 
 
>  <open_babel_can_smiles> 
Cc1cnc[nH]1 
 
>  <mulliken_charges> 
12 
1   -0.531981 
2   -0.078887 
3   0.204429 
4   0.326105 
5   -0.424289 
6   -0.597029 
7   0.17471 
8   0.160842 
9   0.160856 
10   0.127196 
11   0.150458 
12   0.32759 
 
>  <lowdin_charges> 
12 
1   -0.442633 
2   -0.173386 
3   -0.099635 
4   -0.010467 
5   -0.187045 
6   -0.188252 
7   0.171165 
8   0.159261 
9   0.159212 
10   0.156903 
11   0.165538 
12   0.289338 
 
$$$$ 
 
