PCCDB-ID:  70195 
public computational chemistry database (PCCDB) project, http://pccdb.org 
 
 38 37  0  0  0  0  0  0  0  0999 V2000 
    5.4449   -1.9111    1.8202 C   0  0  0  0  0  0  0  0  0  0  0  0 
    3.3981    5.9078   -1.1700 C   0  0  0  0  0  0  0  0  0  0  0  0 
    3.6245    4.2793    3.6150 C   0  0  0  0  0  0  0  0  0  0  0  0 
    8.2610    3.3805   -1.2125 C   0  0  0  0  0  0  0  0  0  0  0  0 
    4.7346   -0.8931    0.9223 C   0  0  0  0  0  0  0  0  0  0  0  0 
    4.5504    5.1893   -0.4868 C   0  0  0  0  0  0  0  0  0  0  0  0 
    3.5710    3.4523    2.3400 C   0  0  0  0  0  0  0  0  0  0  0  0 
    6.8667    2.7911   -1.0682 C   0  0  0  0  0  0  0  0  0  0  0  0 
    5.2191    0.5451    1.1457 C   0  0  0  0  0  0  0  0  0  0  0  0 
    4.5050    1.5602    0.2472 C   0  0  0  0  0  0  0  0  0  0  0  0 
    4.9948    3.0044    0.4407 C   0  0  0  0  0  0  0  0  0  0  0  0 
    4.2288    3.7908   -0.4483 O   0  0  0  0  0  0  0  0  0  0  0  0 
    4.8803    3.4558    1.7701 O   0  0  0  0  0  0  0  0  0  0  0  0 
    6.3760    3.1603    0.2209 O   0  0  0  0  0  0  0  0  0  0  0  0 
    5.0804   -2.9287    1.6388 H   0  0  0  0  0  0  0  0  0  0  0  0 
    5.2844   -1.6831    2.8812 H   0  0  0  0  0  0  0  0  0  0  0  0 
    6.5275   -1.9079    1.6431 H   0  0  0  0  0  0  0  0  0  0  0  0 
    3.6153    6.9786   -1.2554 H   0  0  0  0  0  0  0  0  0  0  0  0 
    2.4696    5.7870   -0.6019 H   0  0  0  0  0  0  0  0  0  0  0  0 
    3.2348    5.5080   -2.1765 H   0  0  0  0  0  0  0  0  0  0  0  0 
    2.6448    4.2845    4.1059 H   0  0  0  0  0  0  0  0  0  0  0  0 
    3.9097    5.3134    3.3957 H   0  0  0  0  0  0  0  0  0  0  0  0 
    4.3598    3.8639    4.3116 H   0  0  0  0  0  0  0  0  0  0  0  0 
    8.6937    3.1013   -2.1797 H   0  0  0  0  0  0  0  0  0  0  0  0 
    8.9177    3.0107   -0.4185 H   0  0  0  0  0  0  0  0  0  0  0  0 
    8.2289    4.4728   -1.1461 H   0  0  0  0  0  0  0  0  0  0  0  0 
    3.6502   -0.9452    1.0970 H   0  0  0  0  0  0  0  0  0  0  0  0 
    4.8840   -1.1684   -0.1318 H   0  0  0  0  0  0  0  0  0  0  0  0 
    4.7081    5.5621    0.5308 H   0  0  0  0  0  0  0  0  0  0  0  0 
    5.4847    5.3410   -1.0429 H   0  0  0  0  0  0  0  0  0  0  0  0 
    2.8478    3.8708    1.6289 H   0  0  0  0  0  0  0  0  0  0  0  0 
    3.2575    2.4234    2.5699 H   0  0  0  0  0  0  0  0  0  0  0  0 
    6.9071    1.6960   -1.1624 H   0  0  0  0  0  0  0  0  0  0  0  0 
    6.1967    3.1682   -1.8514 H   0  0  0  0  0  0  0  0  0  0  0  0 
    6.3011    0.6017    0.9698 H   0  0  0  0  0  0  0  0  0  0  0  0 
    5.0756    0.8237    2.1977 H   0  0  0  0  0  0  0  0  0  0  0  0 
    3.4239    1.5395    0.4253 H   0  0  0  0  0  0  0  0  0  0  0  0 
    4.6338    1.2963   -0.8085 H   0  0  0  0  0  0  0  0  0  0  0  0 
  1 16  1  0  0  0  0 
  2 19  1  0  0  0  0 
  2  6  1  0  0  0  0 
  3 21  1  0  0  0  0 
  3 23  1  0  0  0  0 
  4 26  1  0  0  0  0 
  4  8  1  0  0  0  0 
  4 25  1  0  0  0  0 
  5 27  1  0  0  0  0 
  5  9  1  0  0  0  0 
  5  1  1  0  0  0  0 
  6 12  1  0  0  0  0 
  6 29  1  0  0  0  0 
  7 32  1  0  0  0  0 
  7  3  1  0  0  0  0 
  8 14  1  0  0  0  0 
  9 36  1  0  0  0  0 
 10 37  1  0  0  0  0 
 10 11  1  0  0  0  0 
 10  9  1  0  0  0  0 
 11 13  1  0  0  0  0 
 12 11  1  0  0  0  0 
 13  7  1  0  0  0  0 
 14 11  1  0  0  0  0 
 15  1  1  0  0  0  0 
 17  1  1  0  0  0  0 
 18  2  1  0  0  0  0 
 20  2  1  0  0  0  0 
 22  3  1  0  0  0  0 
 24  4  1  0  0  0  0 
 28  5  1  0  0  0  0 
 30  6  1  0  0  0  0 
 31  7  1  0  0  0  0 
 33  8  1  0  0  0  0 
 34  8  1  0  0  0  0 
 35  9  1  0  0  0  0 
 38 10  1  0  0  0  0 
M  END 
>  <HBA> 
3 
 
>  <HBD> 
0 
 
>  <TPSA> 
27.69 
 
>  <cid> 
70195 
 
>  <dipole> 
1.01 
 
>  <excitation_energy_1> 
6.689 
 
>  <excitation_energy_2> 
6.761 
 
>  <excitation_energy_3> 
6.937 
 
>  <excitation_energy_4> 
7.062 
 
>  <homo_energy> 
-7.048 
 
>  <homo_lumo_gap> 
9.067 
 
>  <logP> 
2.94 
 
>  <lumo_energy> 
2.019 
 
>  <melting_point> 
-45.71 
 
>  <molecular_refractivity> 
58.28 
 
>  <oscillator_strength_1> 
0.0022 
 
>  <oscillator_strength_2> 
0.0032 
 
>  <oscillator_strength_3> 
0.0085 
 
>  <oscillator_strength_4> 
0.008 
 
>  <open_babel_can_smiles> 
CCCCC(OCC)(OCC)OCC 
 
>  <mulliken_charges> 
38 
1   -0.440993 
2   -0.45659 
3   -0.455082 
4   -0.455914 
5   -0.249316 
6   -0.025838 
7   -0.025693 
8   -0.025039 
9   -0.250538 
10   -0.334426 
11   0.809431 
12   -0.519832 
13   -0.513736 
14   -0.517707 
15   0.140903 
16   0.142176 
17   0.142277 
18   0.142994 
19   0.152748 
20   0.155148 
21   0.141738 
22   0.156534 
23   0.160886 
24   0.141709 
25   0.161141 
26   0.157405 
27   0.12868 
28   0.128595 
29   0.15035 
30   0.13385 
31   0.143252 
32   0.128679 
33   0.129109 
34   0.143199 
35   0.143995 
36   0.143338 
37   0.146485 
38   0.146081 
 
>  <lowdin_charges> 
38 
1   -0.439818 
2   -0.446309 
3   -0.446708 
4   -0.446173 
5   -0.268206 
6   -0.12841 
7   -0.130293 
8   -0.128141 
9   -0.273112 
10   -0.298768 
11   0.276244 
12   -0.272173 
13   -0.25329 
14   -0.253286 
15   0.147973 
16   0.145251 
17   0.144962 
18   0.151884 
19   0.152826 
20   0.154234 
21   0.152639 
22   0.154035 
23   0.159197 
24   0.152825 
25   0.159289 
26   0.153325 
27   0.13566 
28   0.136153 
29   0.143337 
30   0.134277 
31   0.139278 
32   0.129379 
33   0.128014 
34   0.139337 
35   0.14476 
36   0.144937 
37   0.152324 
38   0.152547 
 
$$$$ 
 
