PCCDB-ID:  7557 
public computational chemistry database (PCCDB) project, http://pccdb.org 
 
 21 21  0  0  0  0  0  0  0  0999 V2000 
    5.6086   -1.4180   -0.8238 C   0  0  0  0  0  0  0  0  0  0  0  0 
    1.2764   -3.8815   -3.3922 C   0  0  0  0  0  0  0  0  0  0  0  0 
    0.6617   -2.6363   -3.2446 C   0  0  0  0  0  0  0  0  0  0  0  0 
    2.5291   -4.1041   -2.8161 C   0  0  0  0  0  0  0  0  0  0  0  0 
    1.3005   -1.6270   -2.5314 C   0  0  0  0  0  0  0  0  0  0  0  0 
    3.1726   -3.0926   -2.1073 C   0  0  0  0  0  0  0  0  0  0  0  0 
    3.1671   -0.7032   -1.2295 C   0  0  0  0  0  0  0  0  0  0  0  0 
    4.6296    0.7943   -0.0596 C   0  0  0  0  0  0  0  0  0  0  0  0 
    4.4170   -0.5022   -0.7407 C   0  0  0  0  0  0  0  0  0  0  0  0 
    2.5729   -1.8250   -1.9549 C   0  0  0  0  0  0  0  0  0  0  0  0 
    5.6837    1.1614    0.4281 O   0  0  0  0  0  0  0  0  0  0  0  0 
    5.7634   -1.7941   -1.8409 H   0  0  0  0  0  0  0  0  0  0  0  0 
    5.5020   -2.2856   -0.1600 H   0  0  0  0  0  0  0  0  0  0  0  0 
    6.4997   -0.8693   -0.5088 H   0  0  0  0  0  0  0  0  0  0  0  0 
    0.7812   -4.6742   -3.9462 H   0  0  0  0  0  0  0  0  0  0  0  0 
   -0.3162   -2.4536   -3.6815 H   0  0  0  0  0  0  0  0  0  0  0  0 
    3.0081   -5.0742   -2.9168 H   0  0  0  0  0  0  0  0  0  0  0  0 
    0.8157   -0.6603   -2.4171 H   0  0  0  0  0  0  0  0  0  0  0  0 
    4.1346   -3.2975   -1.6564 H   0  0  0  0  0  0  0  0  0  0  0  0 
    2.4705    0.1233   -1.0759 H   0  0  0  0  0  0  0  0  0  0  0  0 
    3.7300    1.4481   -0.0168 H   0  0  0  0  0  0  0  0  0  0  0  0 
  1  9  1  0  0  0  0 
  1 14  1  0  0  0  0 
  1 13  1  0  0  0  0 
  2  3  2  0  0  0  0 
  2  4  1  0  0  0  0 
  3  5  1  0  0  0  0 
  4  6  2  0  0  0  0 
  5 18  1  0  0  0  0 
  5 10  2  0  0  0  0 
  6 10  1  0  0  0  0 
  6 19  1  0  0  0  0 
  7 20  1  0  0  0  0 
  7  9  2  0  0  0  0 
  8 21  1  0  0  0  0 
  8 11  2  0  0  0  0 
  9  8  1  0  0  0  0 
 10  7  1  0  0  0  0 
 12  1  1  0  0  0  0 
 15  2  1  0  0  0  0 
 16  3  1  0  0  0  0 
 17  4  1  0  0  0  0 
M  END 
>  <HBA> 
1 
 
>  <HBD> 
0 
 
>  <TPSA> 
17.07 
 
>  <cid> 
7557 
 
>  <dipole> 
4.11 
 
>  <excitation_energy_1> 
3.551 
 
>  <excitation_energy_2> 
4.334 
 
>  <excitation_energy_3> 
4.471 
 
>  <excitation_energy_4> 
5.428 
 
>  <homo_energy> 
-6.411 
 
>  <homo_lumo_gap> 
4.457 
 
>  <logP> 
2.289 
 
>  <lumo_energy> 
-1.954 
 
>  <melting_point> 
60.65 
 
>  <molecular_refractivity> 
46.35 
 
>  <oscillator_strength_1> 
0.0009 
 
>  <oscillator_strength_2> 
0.7269 
 
>  <oscillator_strength_3> 
0.0095 
 
>  <oscillator_strength_4> 
0.0635 
 
>  <open_babel_can_smiles> 
O=C/C(=C/c1ccccc1)/C 
 
>  <mulliken_charges> 
21 
1   -0.545407 
2   -0.123435 
3   -0.130827 
4   -0.132118 
5   -0.184097 
6   -0.177323 
7   -0.246231 
8   0.203029 
9   0.129797 
10   0.175837 
11   -0.423548 
12   0.164816 
13   0.167827 
14   0.190276 
15   0.138374 
16   0.138141 
17   0.138115 
18   0.13665 
19   0.143592 
20   0.135599 
21   0.100934 
 
>  <lowdin_charges> 
21 
1   -0.451934 
2   -0.146389 
3   -0.153021 
4   -0.152838 
5   -0.149047 
6   -0.151297 
7   -0.132144 
8   0.032297 
9   -0.044494 
10   -0.008651 
11   -0.236456 
12   0.162493 
13   0.163943 
14   0.177583 
15   0.16328 
16   0.161449 
17   0.161392 
18   0.159693 
19   0.167848 
20   0.159139 
21   0.117154 
 
$$$$ 
 
