PCCDB-ID:  19217 
public computational chemistry database (PCCDB) project, http://pccdb.org 
 
 16 17  0  0  0  0  0  0  0  0999 V2000 
    2.2076   -0.6664   -0.0004 C   0  0  0  0  0  0  0  0  0  0  0  0 
    2.1566    0.7391   -0.0018 C   0  0  0  0  0  0  0  0  0  0  0  0 
    1.0488   -1.4318    0.0010 C   0  0  0  0  0  0  0  0  0  0  0  0 
   -1.6226    1.1295   -0.0012 C   0  0  0  0  0  0  0  0  0  0  0  0 
   -2.5278    0.1178    0.0004 C   0  0  0  0  0  0  0  0  0  0  0  0 
   -0.2642    0.6550   -0.0011 C   0  0  0  0  0  0  0  0  0  0  0  0 
    0.9337    1.4003   -0.0028 C   0  0  0  0  0  0  0  0  0  0  0  0 
   -0.1785   -0.7564    0.0008 C   0  0  0  0  0  0  0  0  0  0  0  0 
    0.8137    2.7628   -0.0063 O   0  0  0  0  0  0  0  0  0  0  0  0 
   -1.7847   -1.4697    0.0022 S   0  0  0  0  0  0  0  0  0  0  0  0 
    3.1764   -1.1578   -0.0019 H   0  0  0  0  0  0  0  0  0  0  0  0 
    3.0805    1.3144   -0.0010 H   0  0  0  0  0  0  0  0  0  0  0  0 
    1.0945   -2.5161    0.0026 H   0  0  0  0  0  0  0  0  0  0  0  0 
   -1.8872    2.1800   -0.0018 H   0  0  0  0  0  0  0  0  0  0  0  0 
   -3.6072    0.1949    0.0007 H   0  0  0  0  0  0  0  0  0  0  0  0 
    1.7008    3.1551   -0.0016 H   0  0  0  0  0  0  0  0  0  0  0  0 
  1  3  2  0  0  0  0 
  2 12  1  0  0  0  0 
  2  1  1  0  0  0  0 
  3 13  1  0  0  0  0 
  4  6  1  0  0  0  0 
  4  5  2  0  0  0  0 
  5 15  1  0  0  0  0 
  5 10  1  0  0  0  0 
  6  8  2  0  0  0  0 
  7  2  2  0  0  0  0 
  7  6  1  0  0  0  0 
  8  3  1  0  0  0  0 
  8 10  1  0  0  0  0 
  9  7  1  0  0  0  0 
  9 16  1  0  0  0  0 
 11  1  1  0  0  0  0 
 14  4  1  0  0  0  0 
M  END 
>  <HBA> 
2 
 
>  <HBD> 
1 
 
>  <TPSA> 
48.47 
 
>  <cid> 
19217 
 
>  <dipole> 
1.75 
 
>  <excitation_energy_1> 
4.426 
 
>  <excitation_energy_2> 
4.796 
 
>  <excitation_energy_3> 
4.894 
 
>  <excitation_energy_4> 
4.896 
 
>  <homo_energy> 
-5.516 
 
>  <homo_lumo_gap> 
5.023 
 
>  <logP> 
2.607 
 
>  <lumo_energy> 
-0.493 
 
>  <melting_point> 
87.85 
 
>  <molecular_refractivity> 
43.85 
 
>  <oscillator_strength_1> 
0.1171 
 
>  <oscillator_strength_2> 
0.0001 
 
>  <oscillator_strength_3> 
0.0002 
 
>  <oscillator_strength_4> 
0.0301 
 
>  <open_babel_can_smiles> 
Oc1cccc2c1ccs2 
 
>  <mulliken_charges> 
16 
1   -0.12898 
2   -0.200908 
3   -0.168622 
4   -0.104498 
5   -0.355983 
6   0.118318 
7   0.287018 
8   -0.158421 
9   -0.640301 
10   0.225587 
11   0.132076 
12   0.116685 
13   0.137438 
14   0.157121 
15   0.173559 
16   0.409911 
 
>  <lowdin_charges> 
16 
1   -0.14749 
2   -0.226282 
3   -0.180933 
4   -0.173471 
5   -0.300704 
6   -0.044075 
7   0.10485 
8   -0.128763 
9   -0.3772 
10   0.28334 
11   0.160468 
12   0.154078 
13   0.162233 
14   0.174533 
15   0.180322 
16   0.359093 
 
$$$$ 
 
