PCCDB-ID:  72822 
public computational chemistry database (PCCDB) project, http://pccdb.org 
 
 10 10  0  0  0  0  0  0  0  0999 V2000 
   -0.6477   -0.9784   -0.3991 C   0  0  0  0  0  0  0  0  0  0  0  0 
    0.7189   -1.1358    0.2728 C   0  0  0  0  0  0  0  0  0  0  0  0 
   -0.0939    1.2908   -0.1800 C   0  0  0  0  0  0  0  0  0  0  0  0 
   -0.2758    2.4719   -0.2335 O   0  0  0  0  0  0  0  0  0  0  0  0 
   -1.0968    0.3722   -0.2168 O   0  0  0  0  0  0  0  0  0  0  0  0 
    1.5228    0.4831   -0.0191 S   0  0  0  0  0  0  0  0  0  0  0  0 
   -1.4079   -1.6236    0.0463 H   0  0  0  0  0  0  0  0  0  0  0  0 
   -0.5822   -1.1809   -1.4742 H   0  0  0  0  0  0  0  0  0  0  0  0 
    1.2999   -1.9408   -0.1819 H   0  0  0  0  0  0  0  0  0  0  0  0 
    0.6293   -1.3164    1.3475 H   0  0  0  0  0  0  0  0  0  0  0  0 
  1  5  1  0  0  0  0 
  1  7  1  0  0  0  0 
  1  2  1  0  0  0  0 
  2 10  1  0  0  0  0 
  3  6  1  0  0  0  0 
  4  3  2  0  0  0  0 
  5  3  1  0  0  0  0 
  6  2  1  0  0  0  0 
  8  1  1  0  0  0  0 
  9  2  1  0  0  0  0 
M  END 
>  <HBA> 
3 
 
>  <HBD> 
0 
 
>  <TPSA> 
51.6 
 
>  <cid> 
72822 
 
>  <dipole> 
4.85 
 
>  <excitation_energy_1> 
5.519 
 
>  <excitation_energy_2> 
5.964 
 
>  <excitation_energy_3> 
6.203 
 
>  <excitation_energy_4> 
6.479 
 
>  <homo_energy> 
-7.173 
 
>  <homo_lumo_gap> 
7.159 
 
>  <logP> 
0.87 
 
>  <lumo_energy> 
-0.014 
 
>  <melting_point> 
29.75 
 
>  <molecular_refractivity> 
23.69 
 
>  <oscillator_strength_1> 
0.0002 
 
>  <oscillator_strength_2> 
0.0048 
 
>  <oscillator_strength_3> 
0.0223 
 
>  <oscillator_strength_4> 
0.0201 
 
>  <open_babel_can_smiles> 
O=C1OCCS1 
 
>  <mulliken_charges> 
10 
1   -0.043851 
2   -0.459148 
3   0.450509 
4   -0.420386 
5   -0.413925 
6   0.136205 
7   0.179198 
8   0.175752 
9   0.194718 
10   0.200928 
 
>  <lowdin_charges> 
10 
1   -0.127167 
2   -0.388368 
3   0.088081 
4   -0.211907 
5   -0.183277 
6   0.148783 
7   0.168768 
8   0.155628 
9   0.180402 
10   0.169056 
 
$$$$ 
 
