PCCDB-ID:  8082 
public computational chemistry database (PCCDB) project, http://pccdb.org 
 
 17 17  0  0  0  0  0  0  0  0999 V2000 
    0.7369    1.2824   -0.2231 C   0  0  0  0  0  0  0  0  0  0  0  0 
    1.4670    0.0060    0.2251 C   0  0  0  0  0  0  0  0  0  0  0  0 
   -0.7305    1.2630    0.2354 C   0  0  0  0  0  0  0  0  0  0  0  0 
    0.6909   -1.2478   -0.2170 C   0  0  0  0  0  0  0  0  0  0  0  0 
   -1.4216   -0.0394   -0.2066 C   0  0  0  0  0  0  0  0  0  0  0  0 
   -0.7174   -1.2622    0.1968 N   0  0  0  0  0  0  0  0  0  0  0  0 
    0.7700    1.3489   -1.3210 H   0  0  0  0  0  0  0  0  0  0  0  0 
    1.2488    2.1746    0.1590 H   0  0  0  0  0  0  0  0  0  0  0  0 
    1.5602    0.0028    1.3217 H   0  0  0  0  0  0  0  0  0  0  0  0 
    2.4884   -0.0182   -0.1784 H   0  0  0  0  0  0  0  0  0  0  0  0 
   -1.2717    2.1332   -0.1600 H   0  0  0  0  0  0  0  0  0  0  0  0 
   -0.7723    1.3365    1.3327 H   0  0  0  0  0  0  0  0  0  0  0  0 
    1.1707   -2.1574    0.1635 H   0  0  0  0  0  0  0  0  0  0  0  0 
    0.7090   -1.3159   -1.3147 H   0  0  0  0  0  0  0  0  0  0  0  0 
   -1.4993   -0.0539   -1.3038 H   0  0  0  0  0  0  0  0  0  0  0  0 
   -2.4458   -0.0880    0.1824 H   0  0  0  0  0  0  0  0  0  0  0  0 
   -0.7600   -1.3452    1.2130 H   0  0  0  0  0  0  0  0  0  0  0  0 
  1  8  1  0  0  0  0 
  1  2  1  0  0  0  0 
  1  3  1  0  0  0  0 
  2  9  1  0  0  0  0 
  3 12  1  0  0  0  0 
  4 13  1  0  0  0  0 
  4  6  1  0  0  0  0 
  4  2  1  0  0  0  0 
  5 16  1  0  0  0  0 
  5  6  1  0  0  0  0 
  5  3  1  0  0  0  0 
  6 17  1  0  0  0  0 
  7  1  1  0  0  0  0 
 10  2  1  0  0  0  0 
 11  3  1  0  0  0  0 
 14  4  1  0  0  0  0 
 15  5  1  0  0  0  0 
M  END 
>  <HBA> 
1 
 
>  <HBD> 
1 
 
>  <TPSA> 
12.03 
 
>  <cid> 
8082 
 
>  <dipole> 
1.18 
 
>  <excitation_energy_1> 
5.225 
 
>  <excitation_energy_2> 
5.625 
 
>  <excitation_energy_3> 
5.898 
 
>  <excitation_energy_4> 
5.938 
 
>  <homo_energy> 
-5.682 
 
>  <homo_lumo_gap> 
7.927 
 
>  <logP> 
1.089 
 
>  <lumo_energy> 
2.245 
 
>  <melting_point> 
23.86 
 
>  <molecular_refractivity> 
30.75 
 
>  <oscillator_strength_1> 
0.0113 
 
>  <oscillator_strength_2> 
0.0172 
 
>  <oscillator_strength_3> 
0.0274 
 
>  <oscillator_strength_4> 
0.0007 
 
>  <open_babel_can_smiles> 
C1CCCNC1 
 
>  <mulliken_charges> 
17 
1   -0.255902 
2   -0.260713 
3   -0.260237 
4   -0.144939 
5   -0.145328 
6   -0.52466 
7   0.128639 
8   0.132051 
9   0.122423 
10   0.128506 
11   0.128435 
12   0.122298 
13   0.135892 
14   0.136444 
15   0.136512 
16   0.135938 
17   0.28464 
 
>  <lowdin_charges> 
17 
1   -0.277894 
2   -0.291822 
3   -0.293967 
4   -0.208437 
5   -0.206585 
6   -0.359002 
7   0.135598 
8   0.143989 
9   0.132536 
10   0.142831 
11   0.144467 
12   0.132484 
13   0.14479 
14   0.136691 
15   0.136695 
16   0.143121 
17   0.244507 
 
$$$$ 
 
