PCCDB-ID:  8087 
public computational chemistry database (PCCDB) project, http://pccdb.org 
 
 23 22  0  0  1  0  0  0  0  0999 V2000 
    3.0472    1.2725   -0.3200 C   0  0  0  0  0  0  0  0  0  0  0  0 
    3.0700    2.2828    4.5670 C   0  0  0  0  0  0  0  0  0  0  0  0 
    3.2017   -0.6043    1.4017 C   0  0  0  0  0  0  0  0  0  0  0  0 
    3.2018   -0.1244    3.7328 C   0  0  0  0  0  0  0  0  0  0  0  0 
    2.5872   -0.1311    0.0841 C   0  0  1  0  0  0  0  0  0  0  0  0 
    2.5972    0.8386    4.7551 C   0  0  2  0  0  0  0  0  0  0  0  0 
    1.1660   -0.2181    0.1489 O   0  0  0  0  0  0  0  0  0  0  0  0 
    1.1752    0.7460    4.7320 O   0  0  0  0  0  0  0  0  0  0  0  0 
    2.7438    0.2546    2.4399 O   0  0  0  0  0  0  0  0  0  0  0  0 
    4.1340    1.3079   -0.4630 H   0  0  0  0  0  0  0  0  0  0  0  0 
    2.7836    2.0035    0.4517 H   0  0  0  0  0  0  0  0  0  0  0  0 
    2.5628    1.5647   -1.2564 H   0  0  0  0  0  0  0  0  0  0  0  0 
    4.1573    2.3635    4.6858 H   0  0  0  0  0  0  0  0  0  0  0  0 
    2.5898    2.9286    5.3080 H   0  0  0  0  0  0  0  0  0  0  0  0 
    2.8113    2.6469    3.5669 H   0  0  0  0  0  0  0  0  0  0  0  0 
    4.3024   -0.5835    1.3499 H   0  0  0  0  0  0  0  0  0  0  0  0 
    2.8853   -1.6389    1.6050 H   0  0  0  0  0  0  0  0  0  0  0  0 
    2.8780   -1.1521    3.9582 H   0  0  0  0  0  0  0  0  0  0  0  0 
    4.3028   -0.0930    3.7697 H   0  0  0  0  0  0  0  0  0  0  0  0 
    2.8850   -0.8468   -0.6919 H   0  0  0  0  0  0  0  0  0  0  0  0 
    2.8930    0.4872    5.7512 H   0  0  0  0  0  0  0  0  0  0  0  0 
    0.9084    0.2594    0.9543 H   0  0  0  0  0  0  0  0  0  0  0  0 
    0.9174    0.8682    3.8037 H   0  0  0  0  0  0  0  0  0  0  0  0 
  1  5  1  0  0  0  0 
  1 11  1  0  0  0  0 
  2 13  1  0  0  0  0 
  2  6  1  0  0  0  0 
  2 14  1  0  0  0  0 
  3 17  1  0  0  0  0 
  3  9  1  0  0  0  0 
  4 19  1  0  0  0  0 
  4 18  1  0  0  0  0 
  4  6  1  0  0  0  0 
  5 20  1  6  0  0  0 
  5  7  1  0  0  0  0 
  5  3  1  0  0  0  0 
  6 21  1  1  0  0  0 
  7 22  1  0  0  0  0 
  8  6  1  0  0  0  0 
  9  4  1  0  0  0  0 
 10  1  1  0  0  0  0 
 12  1  1  0  0  0  0 
 15  2  1  0  0  0  0 
 16  3  1  0  0  0  0 
 23  8  1  0  0  0  0 
M  END 
>  <HBA> 
3 
 
>  <HBD> 
2 
 
>  <TPSA> 
49.69 
 
>  <cid> 
8087 
 
>  <dipole> 
2.65 
 
>  <excitation_energy_1> 
6.579 
 
>  <excitation_energy_2> 
6.644 
 
>  <excitation_energy_3> 
6.714 
 
>  <excitation_energy_4> 
6.958 
 
>  <homo_energy> 
-7.214 
 
>  <homo_lumo_gap> 
8.555 
 
>  <logP> 
-0.235 
 
>  <lumo_energy> 
1.342 
 
>  <melting_point> 
1.72 
 
>  <molecular_refractivity> 
34.36 
 
>  <oscillator_strength_1> 
0.0101 
 
>  <oscillator_strength_2> 
0.0357 
 
>  <oscillator_strength_3> 
0.0015 
 
>  <oscillator_strength_4> 
0.0031 
 
>  <open_babel_can_smiles> 
C[C@H](COC[C@@H](O)C)O 
 
>  <mulliken_charges> 
23 
1   -0.45484 
2   -0.455048 
3   -0.024231 
4   -0.023862 
5   0.11939 
6   0.1195 
7   -0.624375 
8   -0.624451 
9   -0.510907 
10   0.136948 
11   0.152824 
12   0.15967 
13   0.136899 
14   0.159667 
15   0.152888 
16   0.123205 
17   0.137825 
18   0.137831 
19   0.123087 
20   0.139144 
21   0.139118 
22   0.389844 
23   0.389875 
 
>  <lowdin_charges> 
23 
1   -0.460136 
2   -0.459885 
3   -0.141609 
4   -0.140559 
5   -0.00639 
6   -0.004986 
7   -0.464545 
8   -0.462678 
9   -0.289878 
10   0.148386 
11   0.154183 
12   0.159939 
13   0.148334 
14   0.161027 
15   0.152865 
16   0.130546 
17   0.137471 
18   0.137682 
19   0.130542 
20   0.148415 
21   0.146883 
22   0.338131 
23   0.33626 
 
$$$$ 
 
