PCCDB-ID:  10331 
public computational chemistry database (PCCDB) project, http://pccdb.org 
 
 18 19  0  0  0  0  0  0  0  0999 V2000 
    2.1306    0.6119    0.0278 C   0  0  0  0  0  0  0  0  0  0  0  0 
    2.0236   -0.7948    0.0252 C   0  0  0  0  0  0  0  0  0  0  0  0 
    1.0031    1.4226    0.0013 C   0  0  0  0  0  0  0  0  0  0  0  0 
    0.7862   -1.4315   -0.0042 C   0  0  0  0  0  0  0  0  0  0  0  0 
   -1.6235    1.2489   -0.0643 C   0  0  0  0  0  0  0  0  0  0  0  0 
   -0.2586    0.8040   -0.0302 C   0  0  0  0  0  0  0  0  0  0  0  0 
   -0.3316   -0.6034   -0.0285 C   0  0  0  0  0  0  0  0  0  0  0  0 
   -2.3978    0.1220   -0.0812 C   0  0  0  0  0  0  0  0  0  0  0  0 
   -3.8633   -0.0880   -0.0744 C   0  0  0  0  0  0  0  0  0  0  0  0 
   -4.3912   -1.1389    0.1882 O   0  0  0  0  0  0  0  0  0  0  0  0 
   -4.6039    1.0163   -0.3703 O   0  0  0  0  0  0  0  0  0  0  0  0 
   -1.6313   -1.0158   -0.0560 O   0  0  0  0  0  0  0  0  0  0  0  0 
    3.1167    1.0664    0.0510 H   0  0  0  0  0  0  0  0  0  0  0  0 
    2.9283   -1.3954    0.0468 H   0  0  0  0  0  0  0  0  0  0  0  0 
    1.0936    2.5050    0.0032 H   0  0  0  0  0  0  0  0  0  0  0  0 
    0.6878   -2.5116   -0.0047 H   0  0  0  0  0  0  0  0  0  0  0  0 
   -1.9685    2.2748   -0.0436 H   0  0  0  0  0  0  0  0  0  0  0  0 
   -4.0331    1.7277   -0.7043 H   0  0  0  0  0  0  0  0  0  0  0  0 
  1 13  1  0  0  0  0 
  2  1  1  0  0  0  0 
  2 14  1  0  0  0  0 
  3 15  1  0  0  0  0 
  3  1  2  0  0  0  0 
  4  2  2  0  0  0  0 
  5 17  1  0  0  0  0 
  5  6  1  0  0  0  0 
  6  7  2  0  0  0  0 
  6  3  1  0  0  0  0 
  7  4  1  0  0  0  0 
  8  9  1  0  0  0  0 
  8  5  2  0  0  0  0 
  8 12  1  0  0  0  0 
  9 10  2  0  0  0  0 
 11  9  1  0  0  0  0 
 12  7  1  0  0  0  0 
 16  4  1  0  0  0  0 
 18 11  1  0  0  0  0 
M  END 
>  <HBA> 
3 
 
>  <HBD> 
1 
 
>  <TPSA> 
50.44 
 
>  <cid> 
10331 
 
>  <dipole> 
5.39 
 
>  <excitation_energy_1> 
4.425 
 
>  <excitation_energy_2> 
4.526 
 
>  <excitation_energy_3> 
4.657 
 
>  <excitation_energy_4> 
5.571 
 
>  <homo_energy> 
-6.61 
 
>  <homo_lumo_gap> 
4.841 
 
>  <logP> 
2.131 
 
>  <lumo_energy> 
-1.769 
 
>  <melting_point> 
139.21 
 
>  <molecular_refractivity> 
43.17 
 
>  <oscillator_strength_1> 
0.0467 
 
>  <oscillator_strength_2> 
0.306 
 
>  <oscillator_strength_3> 
0.0901 
 
>  <oscillator_strength_4> 
0.0487 
 
>  <open_babel_can_smiles> 
OC(=O)c1cc2c(o1)cccc2 
 
>  <mulliken_charges> 
18 
1   -0.135734 
2   -0.141957 
3   -0.196635 
4   -0.181169 
5   -0.252144 
6   0.118258 
7   0.329884 
8   0.256473 
9   0.551255 
10   -0.431277 
11   -0.576226 
12   -0.491134 
13   0.137932 
14   0.142307 
15   0.140459 
16   0.159125 
17   0.157421 
18   0.413163 
 
>  <lowdin_charges> 
18 
1   -0.161232 
2   -0.146657 
3   -0.150523 
4   -0.16712 
5   -0.200252 
6   -0.030919 
7   0.095672 
8   0.035213 
9   0.186382 
10   -0.217122 
11   -0.355218 
12   -0.085419 
13   0.162615 
14   0.165578 
15   0.161932 
16   0.174857 
17   0.171605 
18   0.360608 
 
$$$$ 
 
