PCCDB-ID:  34337 
public computational chemistry database (PCCDB) project, http://pccdb.org 
 
 15 15  0  0  0  0  0  0  0  0999 V2000 
    0.9733   -0.1469    0.0242 C   0  0  0  0  0  0  0  0  0  0  0  0 
    2.9759    2.4906    0.0270 C   0  0  0  0  0  0  0  0  0  0  0  0 
    3.3815   -1.2063    0.0250 C   0  0  0  0  0  0  0  0  0  0  0  0 
    4.6390   -0.6923    0.0263 C   0  0  0  0  0  0  0  0  0  0  0  0 
    2.4766   -0.0868    0.0248 C   0  0  0  0  0  0  0  0  0  0  0  0 
    3.2673    1.0301    0.0259 C   0  0  0  0  0  0  0  0  0  0  0  0 
    4.5913    0.6708    0.0268 O   0  0  0  0  0  0  0  0  0  0  0  0 
    0.6288   -1.1857    0.0187 H   0  0  0  0  0  0  0  0  0  0  0  0 
    0.5406    0.3440   -0.8563 H   0  0  0  0  0  0  0  0  0  0  0  0 
    0.5401    0.3348    0.9097 H   0  0  0  0  0  0  0  0  0  0  0  0 
    1.8949    2.6560    0.0160 H   0  0  0  0  0  0  0  0  0  0  0  0 
    3.4045    2.9901   -0.8512 H   0  0  0  0  0  0  0  0  0  0  0  0 
    3.3856    2.9858    0.9167 H   0  0  0  0  0  0  0  0  0  0  0  0 
    3.1109   -2.2540    0.0243 H   0  0  0  0  0  0  0  0  0  0  0  0 
    5.6266   -1.1278    0.0265 H   0  0  0  0  0  0  0  0  0  0  0  0 
  1  5  1  0  0  0  0 
  1 10  1  0  0  0  0 
  2 13  1  0  0  0  0 
  3  4  2  0  0  0  0 
  4 15  1  0  0  0  0 
  4  7  1  0  0  0  0 
  5  3  1  0  0  0  0 
  5  6  2  0  0  0  0 
  6  7  1  0  0  0  0 
  6  2  1  0  0  0  0 
  8  1  1  0  0  0  0 
  9  1  1  0  0  0  0 
 11  2  1  0  0  0  0 
 12  2  1  0  0  0  0 
 14  3  1  0  0  0  0 
M  END 
>  <HBA> 
1 
 
>  <HBD> 
0 
 
>  <TPSA> 
13.14 
 
>  <cid> 
34337 
 
>  <dipole> 
0.82 
 
>  <excitation_energy_1> 
5.254 
 
>  <excitation_energy_2> 
5.638 
 
>  <excitation_energy_3> 
5.744 
 
>  <excitation_energy_4> 
5.819 
 
>  <homo_energy> 
-5.584 
 
>  <homo_lumo_gap> 
6.221 
 
>  <logP> 
1.896 
 
>  <lumo_energy> 
0.637 
 
>  <melting_point> 
11.22 
 
>  <molecular_refractivity> 
28.64 
 
>  <oscillator_strength_1> 
0.0068 
 
>  <oscillator_strength_2> 
0.0053 
 
>  <oscillator_strength_3> 
0.1704 
 
>  <oscillator_strength_4> 
0.0011 
 
>  <open_babel_can_smiles> 
Cc1occc1C 
 
>  <mulliken_charges> 
15 
1   -0.530455 
2   -0.527967 
3   -0.211271 
4   0.074145 
5   0.087682 
6   0.294172 
7   -0.437251 
8   0.156147 
9   0.159447 
10   0.159542 
11   0.16145 
12   0.168397 
13   0.168335 
14   0.130183 
15   0.147444 
 
>  <lowdin_charges> 
15 
1   -0.439676 
2   -0.441648 
3   -0.213938 
4   -0.086864 
5   -0.060745 
6   0.051522 
7   -0.110152 
8   0.158796 
9   0.158997 
10   0.158994 
11   0.164451 
12   0.165511 
13   0.165278 
14   0.162542 
15   0.166932 
 
$$$$ 
 
