PCCDB-ID:  20825 
public computational chemistry database (PCCDB) project, http://pccdb.org 
 
 22 23  0  0  0  0  0  0  0  0999 V2000 
    2.0733    1.4138    0.0665 C   0  0  0  0  0  0  0  0  0  0  0  0 
    2.5673    0.1127    0.2230 C   0  0  0  0  0  0  0  0  0  0  0  0 
    0.6996    1.6559   -0.0728 C   0  0  0  0  0  0  0  0  0  0  0  0 
    1.7049   -0.9919    0.2446 C   0  0  0  0  0  0  0  0  0  0  0  0 
   -3.3155   -1.4005   -0.0566 C   0  0  0  0  0  0  0  0  0  0  0  0 
   -0.1456    0.5575   -0.0472 C   0  0  0  0  0  0  0  0  0  0  0  0 
    0.3474   -0.7407    0.1101 C   0  0  0  0  0  0  0  0  0  0  0  0 
   -3.7186   -2.2754   -1.2612 C   0  0  0  0  0  0  0  0  0  0  0  0 
   -1.6303    0.4852   -0.1613 C   0  0  0  0  0  0  0  0  0  0  0  0 
   -0.8057   -1.6779    0.0805 C   0  0  0  0  0  0  0  0  0  0  0  0 
   -1.9453   -0.8982   -0.0909 N   0  0  0  0  0  0  0  0  0  0  0  0 
   -4.6988   -2.0322   -1.9201 O   0  0  0  0  0  0  0  0  0  0  0  0 
   -2.9463   -3.3478   -1.4985 O   0  0  0  0  0  0  0  0  0  0  0  0 
   -2.4409    1.3763   -0.2721 O   0  0  0  0  0  0  0  0  0  0  0  0 
   -0.8031   -2.9005    0.1728 O   0  0  0  0  0  0  0  0  0  0  0  0 
    2.7678    2.2487    0.0520 H   0  0  0  0  0  0  0  0  0  0  0  0 
    3.6371   -0.0416    0.3288 H   0  0  0  0  0  0  0  0  0  0  0  0 
    0.3070    2.6603   -0.1970 H   0  0  0  0  0  0  0  0  0  0  0  0 
    2.0783   -2.0042    0.3627 H   0  0  0  0  0  0  0  0  0  0  0  0 
   -3.4578   -1.9789    0.8654 H   0  0  0  0  0  0  0  0  0  0  0  0 
   -3.9720   -0.5314   -0.0414 H   0  0  0  0  0  0  0  0  0  0  0  0 
   -2.2098   -3.4047   -0.8459 H   0  0  0  0  0  0  0  0  0  0  0  0 
  1  2  2  0  0  0  0 
  2  4  1  0  0  0  0 
  2 17  1  0  0  0  0 
  3  6  2  0  0  0  0 
  3  1  1  0  0  0  0 
  4 19  1  0  0  0  0 
  5 21  1  0  0  0  0 
  5 20  1  0  0  0  0 
  6  7  1  0  0  0  0 
  7  4  2  0  0  0  0 
  8  5  1  0  0  0  0 
  9 11  1  0  0  0  0 
  9  6  1  0  0  0  0 
 10  7  1  0  0  0  0 
 10 15  2  0  0  0  0 
 11  5  1  0  0  0  0 
 11 10  1  0  0  0  0 
 12  8  2  0  0  0  0 
 13  8  1  0  0  0  0 
 13 22  1  0  0  0  0 
 14  9  2  0  0  0  0 
 16  1  1  0  0  0  0 
 18  3  1  0  0  0  0 
M  END 
>  <HBA> 
5 
 
>  <HBD> 
1 
 
>  <TPSA> 
74.68 
 
>  <cid> 
20825 
 
>  <dipole> 
7.5 
 
>  <excitation_energy_1> 
3.656 
 
>  <excitation_energy_2> 
3.903 
 
>  <excitation_energy_3> 
4.361 
 
>  <excitation_energy_4> 
4.42 
 
>  <homo_energy> 
-7.127 
 
>  <homo_lumo_gap> 
4.27 
 
>  <logP> 
0.305 
 
>  <lumo_energy> 
-2.857 
 
>  <melting_point> 
176.48 
 
>  <molecular_refractivity> 
53.3 
 
>  <oscillator_strength_1> 
0.0027 
 
>  <oscillator_strength_2> 
0.0002 
 
>  <oscillator_strength_3> 
0.0073 
 
>  <oscillator_strength_4> 
0.0481 
 
>  <open_babel_can_smiles> 
OC(=O)CN1C(=O)c2c(C1=O)cccc2 
 
>  <mulliken_charges> 
22 
1   -0.12599 
2   -0.127494 
3   -0.175864 
4   -0.175996 
5   -0.27454 
6   0.048046 
7   0.055822 
8   0.595341 
9   0.582126 
10   0.593358 
11   -0.532914 
12   -0.432291 
13   -0.581839 
14   -0.452477 
15   -0.522683 
16   0.157013 
17   0.156782 
18   0.174778 
19   0.173551 
20   0.197049 
21   0.224046 
22   0.444175 
 
>  <lowdin_charges> 
22 
1   -0.133056 
2   -0.131364 
3   -0.122793 
4   -0.122491 
5   -0.234584 
6   -0.034062 
7   -0.034969 
8   0.183061 
9   0.182876 
10   0.177711 
11   -0.090588 
12   -0.234457 
13   -0.358383 
14   -0.219471 
15   -0.270029 
16   0.172281 
17   0.169563 
18   0.181492 
19   0.180766 
20   0.177193 
21   0.199858 
22   0.361445 
 
$$$$ 
 
