PCCDB-ID:  70215 
public computational chemistry database (PCCDB) project, http://pccdb.org 
 
 28 27  0  0  0  0  0  0  0  0999 V2000 
    5.6672    2.9221    2.3509 C   0  0  0  0  0  0  0  0  0  0  0  0 
   -2.1489   -3.0648   -0.9068 C   0  0  0  0  0  0  0  0  0  0  0  0 
    5.3549    1.7692    1.7599 C   0  0  0  0  0  0  0  0  0  0  0  0 
   -0.8785   -2.6635   -0.8906 C   0  0  0  0  0  0  0  0  0  0  0  0 
    4.1373   -2.4407    2.4791 C   0  0  0  0  0  0  0  0  0  0  0  0 
    3.0497   -3.1639    1.6914 C   0  0  0  0  0  0  0  0  0  0  0  0 
    6.2341    0.5552    1.7957 C   0  0  0  0  0  0  0  0  0  0  0  0 
   -0.2087   -2.0582    0.3024 C   0  0  0  0  0  0  0  0  0  0  0  0 
    4.7413   -1.2990    1.6822 C   0  0  0  0  0  0  0  0  0  0  0  0 
    1.8220   -2.2924    1.4981 C   0  0  0  0  0  0  0  0  0  0  0  0 
    4.5252   -1.0805    0.5081 O   0  0  0  0  0  0  0  0  0  0  0  0 
    1.5801   -1.2785    2.1186 O   0  0  0  0  0  0  0  0  0  0  0  0 
    5.5742   -0.5650    2.4484 O   0  0  0  0  0  0  0  0  0  0  0  0 
    1.0045   -2.8098    0.5587 O   0  0  0  0  0  0  0  0  0  0  0  0 
    5.0203    3.7925    2.2849 H   0  0  0  0  0  0  0  0  0  0  0  0 
    6.5871    3.0433    2.9199 H   0  0  0  0  0  0  0  0  0  0  0  0 
   -2.6111   -3.4618   -1.8062 H   0  0  0  0  0  0  0  0  0  0  0  0 
   -2.7795   -3.0051   -0.0220 H   0  0  0  0  0  0  0  0  0  0  0  0 
    4.4298    1.6657    1.1963 H   0  0  0  0  0  0  0  0  0  0  0  0 
   -0.2654   -2.7383   -1.7879 H   0  0  0  0  0  0  0  0  0  0  0  0 
    4.9445   -3.1326    2.7498 H   0  0  0  0  0  0  0  0  0  0  0  0 
    3.7404   -2.0342    3.4141 H   0  0  0  0  0  0  0  0  0  0  0  0 
    2.7350   -4.0717    2.2221 H   0  0  0  0  0  0  0  0  0  0  0  0 
    3.4134   -3.4793    0.7098 H   0  0  0  0  0  0  0  0  0  0  0  0 
    7.1324    0.7309    2.3919 H   0  0  0  0  0  0  0  0  0  0  0  0 
    6.5158    0.2424    0.7856 H   0  0  0  0  0  0  0  0  0  0  0  0 
   -0.8494   -2.0877    1.1900 H   0  0  0  0  0  0  0  0  0  0  0  0 
    0.0702   -1.0127    0.1272 H   0  0  0  0  0  0  0  0  0  0  0  0 
  1 16  1  0  0  0  0 
  2  4  2  0  0  0  0 
  2 18  1  0  0  0  0 
  3  7  1  0  0  0  0 
  3  1  2  0  0  0  0 
  4  8  1  0  0  0  0 
  5 21  1  0  0  0  0 
  5 22  1  0  0  0  0 
  6 23  1  0  0  0  0 
  6  5  1  0  0  0  0 
  7 25  1  0  0  0  0 
  7 13  1  0  0  0  0 
  8 14  1  0  0  0  0 
  8 27  1  0  0  0  0 
  9 13  1  0  0  0  0 
  9  5  1  0  0  0  0 
 10  6  1  0  0  0  0 
 10 12  2  0  0  0  0 
 11  9  2  0  0  0  0 
 14 10  1  0  0  0  0 
 15  1  1  0  0  0  0 
 17  2  1  0  0  0  0 
 19  3  1  0  0  0  0 
 20  4  1  0  0  0  0 
 24  6  1  0  0  0  0 
 26  7  1  0  0  0  0 
 28  8  1  0  0  0  0 
M  END 
>  <HBA> 
4 
 
>  <HBD> 
0 
 
>  <TPSA> 
52.6 
 
>  <cid> 
70215 
 
>  <dipole> 
0.95 
 
>  <excitation_energy_1> 
5.857 
 
>  <excitation_energy_2> 
5.885 
 
>  <excitation_energy_3> 
6.609 
 
>  <excitation_energy_4> 
6.656 
 
>  <homo_energy> 
-7.143 
 
>  <homo_lumo_gap> 
7.304 
 
>  <logP> 
1.225 
 
>  <lumo_energy> 
0.161 
 
>  <melting_point> 
-45.53 
 
>  <molecular_refractivity> 
51.81 
 
>  <oscillator_strength_1> 
0.0017 
 
>  <oscillator_strength_2> 
0.0006 
 
>  <oscillator_strength_3> 
0.0137 
 
>  <oscillator_strength_4> 
0.0353 
 
>  <open_babel_can_smiles> 
C=CCOC(=O)CCC(=O)OCC=C 
 
>  <mulliken_charges> 
28 
1   -0.331687 
2   -0.334545 
3   -0.057345 
4   -0.056358 
5   -0.362092 
6   -0.360672 
7   -0.097781 
8   -0.086425 
9   0.642433 
10   0.647405 
11   -0.487559 
12   -0.486049 
13   -0.460848 
14   -0.465836 
15   0.150248 
16   0.140927 
17   0.149553 
18   0.144587 
19   0.162706 
20   0.146326 
21   0.174394 
22   0.196675 
23   0.175091 
24   0.190932 
25   0.155871 
26   0.175214 
27   0.159332 
28   0.175503 
 
>  <lowdin_charges> 
28 
1   -0.321473 
2   -0.323812 
3   -0.156328 
4   -0.153251 
5   -0.299983 
6   -0.298752 
7   -0.126442 
8   -0.120399 
9   0.200419 
10   0.200978 
11   -0.273048 
12   -0.269456 
13   -0.188311 
14   -0.191567 
15   0.164409 
16   0.15617 
17   0.164427 
18   0.15892 
19   0.168626 
20   0.16164 
21   0.173764 
22   0.182946 
23   0.173753 
24   0.179226 
25   0.157276 
26   0.163231 
27   0.155138 
28   0.1619 
 
$$$$ 
 
