PCCDB-ID:  23416 
public computational chemistry database (PCCDB) project, http://pccdb.org 
 
 31 30  0  0  0  0  0  0  0  0999 V2000 
    3.7076   -3.5131   -1.3086 C   0  0  0  0  0  0  0  0  0  0  0  0 
    5.1903    2.4121    1.0745 C   0  0  0  0  0  0  0  0  0  0  0  0 
    5.8067   -0.0808   -5.4609 C   0  0  0  0  0  0  0  0  0  0  0  0 
    2.9300   -2.3226   -0.7416 C   0  0  0  0  0  0  0  0  0  0  0  0 
    4.8008    1.7080   -0.2288 C   0  0  0  0  0  0  0  0  0  0  0  0 
    5.8915   -1.3312   -4.5985 C   0  0  0  0  0  0  0  0  0  0  0  0 
    3.1981   -0.9931   -1.4664 C   0  0  0  0  0  0  0  0  0  0  0  0 
    4.9868    0.1869   -0.1437 C   0  0  0  0  0  0  0  0  0  0  0  0 
    5.4947   -0.5916   -2.3743 C   0  0  0  0  0  0  0  0  0  0  0  0 
    4.5807   -0.5196   -1.3613 N   0  0  0  0  0  0  0  0  0  0  0  0 
    6.6260   -0.1300   -2.3160 O   0  0  0  0  0  0  0  0  0  0  0  0 
    5.0040   -1.2524   -3.4630 O   0  0  0  0  0  0  0  0  0  0  0  0 
    3.4668   -4.4320   -0.7622 H   0  0  0  0  0  0  0  0  0  0  0  0 
    4.7880   -3.3519   -1.2330 H   0  0  0  0  0  0  0  0  0  0  0  0 
    3.4708   -3.6750   -2.3662 H   0  0  0  0  0  0  0  0  0  0  0  0 
    5.0620    3.4968    0.9919 H   0  0  0  0  0  0  0  0  0  0  0  0 
    6.2397    2.2203    1.3291 H   0  0  0  0  0  0  0  0  0  0  0  0 
    4.5760    2.0681    1.9163 H   0  0  0  0  0  0  0  0  0  0  0  0 
    6.4320   -0.1988   -6.3539 H   0  0  0  0  0  0  0  0  0  0  0  0 
    6.1640    0.7903   -4.9047 H   0  0  0  0  0  0  0  0  0  0  0  0 
    4.7764    0.1013   -5.7849 H   0  0  0  0  0  0  0  0  0  0  0  0 
    3.1573   -2.2076    0.3272 H   0  0  0  0  0  0  0  0  0  0  0  0 
    1.8504   -2.5183   -0.8028 H   0  0  0  0  0  0  0  0  0  0  0  0 
    5.4150    2.0807   -1.0561 H   0  0  0  0  0  0  0  0  0  0  0  0 
    3.7551    1.9360   -0.4775 H   0  0  0  0  0  0  0  0  0  0  0  0 
    6.9108   -1.4933   -4.2409 H   0  0  0  0  0  0  0  0  0  0  0  0 
    5.5530   -2.2164   -5.1441 H   0  0  0  0  0  0  0  0  0  0  0  0 
    2.5467   -0.2135   -1.0496 H   0  0  0  0  0  0  0  0  0  0  0  0 
    2.9507   -1.0883   -2.5248 H   0  0  0  0  0  0  0  0  0  0  0  0 
    4.3993   -0.2209    0.6875 H   0  0  0  0  0  0  0  0  0  0  0  0 
    6.0374   -0.0451    0.0498 H   0  0  0  0  0  0  0  0  0  0  0  0 
  1 14  1  0  0  0  0 
  1 13  1  0  0  0  0 
  1  4  1  0  0  0  0 
  2 17  1  0  0  0  0 
  2 18  1  0  0  0  0 
  3 20  1  0  0  0  0 
  3  6  1  0  0  0  0 
  4 22  1  0  0  0  0 
  5  8  1  0  0  0  0 
  5  2  1  0  0  0  0 
  6 26  1  0  0  0  0 
  6 12  1  0  0  0  0 
  7 10  1  0  0  0  0 
  7 28  1  0  0  0  0 
  7  4  1  0  0  0  0 
  8 31  1  0  0  0  0 
  8 30  1  0  0  0  0 
  9 11  2  0  0  0  0 
  9 10  1  0  0  0  0 
 10  8  1  0  0  0  0 
 12  9  1  0  0  0  0 
 15  1  1  0  0  0  0 
 16  2  1  0  0  0  0 
 19  3  1  0  0  0  0 
 21  3  1  0  0  0  0 
 23  4  1  0  0  0  0 
 24  5  1  0  0  0  0 
 25  5  1  0  0  0  0 
 27  6  1  0  0  0  0 
 29  7  1  0  0  0  0 
M  END 
>  <HBA> 
3 
 
>  <HBD> 
0 
 
>  <TPSA> 
29.54 
 
>  <cid> 
23416 
 
>  <dipole> 
2.15 
 
>  <excitation_energy_1> 
5.864 
 
>  <excitation_energy_2> 
6.213 
 
>  <excitation_energy_3> 
6.255 
 
>  <excitation_energy_4> 
6.353 
 
>  <homo_energy> 
-6.278 
 
>  <homo_lumo_gap> 
7.957 
 
>  <logP> 
2.265 
 
>  <lumo_energy> 
1.679 
 
>  <melting_point> 
-3.14 
 
>  <molecular_refractivity> 
49.95 
 
>  <oscillator_strength_1> 
0.019 
 
>  <oscillator_strength_2> 
0.0034 
 
>  <oscillator_strength_3> 
0.0011 
 
>  <oscillator_strength_4> 
0.0398 
 
>  <open_babel_can_smiles> 
CCCN(C(=O)OCC)CCC 
 
>  <mulliken_charges> 
31 
1   -0.439212 
2   -0.448482 
3   -0.460918 
4   -0.252221 
5   -0.254935 
6   -0.03343 
7   -0.147208 
8   -0.136965 
9   0.805525 
10   -0.449331 
11   -0.542476 
12   -0.50119 
13   0.141097 
14   0.15462 
15   0.148245 
16   0.147714 
17   0.150478 
18   0.139165 
19   0.14581 
20   0.176522 
21   0.15091 
22   0.136589 
23   0.134356 
24   0.162437 
25   0.130557 
26   0.170648 
27   0.145465 
28   0.141492 
29   0.174051 
30   0.137342 
31   0.173344 
 
>  <lowdin_charges> 
31 
1   -0.443463 
2   -0.442483 
3   -0.456651 
4   -0.276803 
5   -0.282205 
6   -0.124605 
7   -0.198504 
8   -0.194984 
9   0.202746 
10   -0.10695 
11   -0.33177 
12   -0.216304 
13   0.14958 
14   0.151479 
15   0.149074 
16   0.151487 
17   0.149673 
18   0.145576 
19   0.156707 
20   0.166204 
21   0.151779 
22   0.139138 
23   0.143022 
24   0.156834 
25   0.137225 
26   0.158275 
27   0.149063 
28   0.145703 
29   0.163252 
30   0.14444 
31   0.163467 
 
$$$$ 
 
