PCCDB-ID:  68156 
public computational chemistry database (PCCDB) project, http://pccdb.org 
 
 11 11  0  0  0  0  0  0  0  0999 V2000 
   -0.3580    1.1633    0.1434 C   0  0  0  0  0  0  0  0  0  0  0  0 
   -1.2939   -0.0551   -0.0924 C   0  0  0  0  0  0  0  0  0  0  0  0 
    0.9073   -0.6328    0.0899 C   0  0  0  0  0  0  0  0  0  0  0  0 
    1.0230    0.6402    0.0646 N   0  0  0  0  0  0  0  0  0  0  0  0 
   -0.3732   -1.1678    0.2019 N   0  0  0  0  0  0  0  0  0  0  0  0 
   -0.5138    1.5955    1.1410 H   0  0  0  0  0  0  0  0  0  0  0  0 
   -0.5082    1.9638   -0.5877 H   0  0  0  0  0  0  0  0  0  0  0  0 
   -1.6527   -0.0968   -1.1315 H   0  0  0  0  0  0  0  0  0  0  0  0 
   -2.1615   -0.0698    0.5737 H   0  0  0  0  0  0  0  0  0  0  0  0 
    1.7605   -1.3085    0.0767 H   0  0  0  0  0  0  0  0  0  0  0  0 
   -0.5492   -2.0610   -0.2433 H   0  0  0  0  0  0  0  0  0  0  0  0 
  1  6  1  0  0  0  0 
  2  1  1  0  0  0  0 
  2  5  1  0  0  0  0 
  2  9  1  0  0  0  0 
  3  5  1  0  0  0  0 
  4  3  1  0  0  0  0 
  4  1  1  0  0  0  0 
  7  1  1  0  0  0  0 
  8  2  1  0  0  0  0 
 10  3  1  0  0  0  0 
 11  5  1  0  0  0  0 
M  RAD  2   3   2   4   2 
M  END 
>  <HBA> 
2 
 
>  <HBD> 
1 
 
>  <TPSA> 
24.39 
 
>  <cid> 
68156 
 
>  <dipole> 
2.87 
 
>  <excitation_energy_1> 
5.248 
 
>  <excitation_energy_2> 
5.947 
 
>  <excitation_energy_3> 
6.054 
 
>  <excitation_energy_4> 
6.251 
 
>  <homo_energy> 
-5.932 
 
>  <homo_lumo_gap> 
6.836 
 
>  <logP> 
-0.618 
 
>  <lumo_energy> 
0.903 
 
>  <melting_point> 
43.05 
 
>  <molecular_refractivity> 
28.15 
 
>  <oscillator_strength_1> 
0.0024 
 
>  <oscillator_strength_2> 
0.0477 
 
>  <oscillator_strength_3> 
0.0008 
 
>  <oscillator_strength_4> 
0.0005 
 
>  <open_babel_can_smiles> 
[CH]1[N]CCN1 
 
>  <mulliken_charges> 
11 
1   -0.162738 
2   -0.150893 
3   0.222417 
4   -0.407333 
5   -0.565373 
6   0.154111 
7   0.151047 
8   0.141053 
9   0.153714 
10   0.14844 
11   0.315555 
 
>  <lowdin_charges> 
11 
1   -0.211816 
2   -0.212395 
3   -0.052244 
4   -0.228246 
5   -0.317435 
6   0.14856 
7   0.152026 
8   0.135274 
9   0.1519 
10   0.160335 
11   0.274042 
 
$$$$ 
 
