PCCDB-ID:  35143 
public computational chemistry database (PCCDB) project, http://pccdb.org 
 
 18 18  0  0  0  0  0  0  0  0999 V2000 
    0.9824   -0.0115   -0.2317 C   0  0  0  0  0  0  0  0  0  0  0  0 
    3.2252   -0.6803   -1.2244 C   0  0  0  0  0  0  0  0  0  0  0  0 
    3.9024    3.2349    1.0917 C   0  0  0  0  0  0  0  0  0  0  0  0 
    3.1676    3.5373   -0.9976 C   0  0  0  0  0  0  0  0  0  0  0  0 
    2.5138    0.0665   -0.0812 C   0  0  0  0  0  0  0  0  0  0  0  0 
    2.9626    1.5099   -0.0225 C   0  0  0  0  0  0  0  0  0  0  0  0 
    3.7513    4.0870    0.0740 N   0  0  0  0  0  0  0  0  0  0  0  0 
    3.5343    1.9510    1.1104 N   0  0  0  0  0  0  0  0  0  0  0  0 
    2.7562    2.2754   -1.1098 N   0  0  0  0  0  0  0  0  0  0  0  0 
    0.6599   -1.0583   -0.2565 H   0  0  0  0  0  0  0  0  0  0  0  0 
    0.6622    0.4715   -1.1606 H   0  0  0  0  0  0  0  0  0  0  0  0 
    0.4726    0.4800    0.6045 H   0  0  0  0  0  0  0  0  0  0  0  0 
    2.9061   -1.7283   -1.2439 H   0  0  0  0  0  0  0  0  0  0  0  0 
    4.3136   -0.6604   -1.0994 H   0  0  0  0  0  0  0  0  0  0  0  0 
    2.9833   -0.2262   -2.1906 H   0  0  0  0  0  0  0  0  0  0  0  0 
    4.3712    3.6237    1.9945 H   0  0  0  0  0  0  0  0  0  0  0  0 
    3.0151    4.1847   -1.8600 H   0  0  0  0  0  0  0  0  0  0  0  0 
    2.8019   -0.3820    0.8754 H   0  0  0  0  0  0  0  0  0  0  0  0 
  1  5  1  0  0  0  0 
  1 12  1  0  0  0  0 
  2 14  1  0  0  0  0 
  2  5  1  0  0  0  0 
  3  8  1  0  0  0  0 
  3 16  1  0  0  0  0 
  4  7  2  0  0  0  0 
  5  6  1  0  0  0  0 
  5 18  1  0  0  0  0 
  6  8  2  0  0  0  0 
  7  3  2  0  0  0  0 
  9  4  1  0  0  0  0 
  9  6  1  0  0  0  0 
 10  1  1  0  0  0  0 
 11  1  1  0  0  0  0 
 13  2  1  0  0  0  0 
 15  2  1  0  0  0  0 
 17  4  1  0  0  0  0 
M  RAD  1   9   2 
M  END 
>  <HBA> 
3 
 
>  <HBD> 
0 
 
>  <TPSA> 
38.67 
 
>  <cid> 
35143 
 
>  <dipole> 
0.87 
 
>  <excitation_energy_1> 
4.505 
 
>  <excitation_energy_2> 
4.552 
 
>  <excitation_energy_3> 
4.631 
 
>  <excitation_energy_4> 
4.731 
 
>  <homo_energy> 
-7.304 
 
>  <homo_lumo_gap> 
5.938 
 
>  <logP> 
0.995 
 
>  <lumo_energy> 
-1.366 
 
>  <melting_point> 
52.34 
 
>  <molecular_refractivity> 
34.41 
 
>  <oscillator_strength_1> 
0.0017 
 
>  <oscillator_strength_2> 
0.0039 
 
>  <oscillator_strength_3> 
0.0 
 
>  <oscillator_strength_4> 
0.009 
 
>  <open_babel_can_smiles> 
CC(C1=NC=[N]=C[N]1)C 
 
>  <mulliken_charges> 
18 
1   -0.452783 
2   -0.452206 
3   0.180427 
4   0.178441 
5   -0.130993 
6   0.440353 
7   -0.367164 
8   -0.413284 
9   -0.406714 
10   0.149292 
11   0.167564 
12   0.151553 
13   0.14831 
14   0.150392 
15   0.168732 
16   0.167143 
17   0.166542 
18   0.154397 
 
>  <lowdin_charges> 
18 
1   -0.439927 
2   -0.437 
3   -0.012994 
4   -0.013755 
5   -0.127741 
6   0.118785 
7   -0.168774 
8   -0.17113 
9   -0.169008 
10   0.152629 
11   0.160154 
12   0.15429 
13   0.152138 
14   0.150947 
15   0.160367 
16   0.166929 
17   0.167035 
18   0.157054 
 
$$$$ 
 
