PCCDB-ID:  10788 
public computational chemistry database (PCCDB) project, http://pccdb.org 
 
 19 19  0  0  0  0  0  0  0  0999 V2000 
    0.8581    0.2100    0.0986 C   0  0  0  0  0  0  0  0  0  0  0  0 
    2.1572   -2.4780    2.9333 C   0  0  0  0  0  0  0  0  0  0  0  0 
    2.6799   -1.2566    0.7942 C   0  0  0  0  0  0  0  0  0  0  0  0 
    3.1384    1.0362    0.4314 C   0  0  0  0  0  0  0  0  0  0  0  0 
    2.7140   -0.1173    3.0310 C   0  0  0  0  0  0  0  0  0  0  0  0 
    2.2947   -0.0715    0.0829 N   0  0  0  0  0  0  0  0  0  0  0  0 
    2.4569   -1.2074    2.2674 N   0  0  0  0  0  0  0  0  0  0  0  0 
    2.6392   -0.0981    4.7008 S   0  0  0  0  0  0  0  0  0  0  0  0 
    3.1076    1.4466    2.2705 S   0  0  0  0  0  0  0  0  0  0  0  0 
    0.3221   -0.6689   -0.2730 H   0  0  0  0  0  0  0  0  0  0  0  0 
    0.6546    1.0443   -0.5794 H   0  0  0  0  0  0  0  0  0  0  0  0 
    0.4680    0.4654    1.0945 H   0  0  0  0  0  0  0  0  0  0  0  0 
    1.8966   -3.2153    2.1698 H   0  0  0  0  0  0  0  0  0  0  0  0 
    1.3211   -2.3523    3.6251 H   0  0  0  0  0  0  0  0  0  0  0  0 
    3.0173   -2.8365    3.5091 H   0  0  0  0  0  0  0  0  0  0  0  0 
    3.7422   -1.4536    0.5958 H   0  0  0  0  0  0  0  0  0  0  0  0 
    2.0999   -2.1033    0.4204 H   0  0  0  0  0  0  0  0  0  0  0  0 
    2.8180    1.9437   -0.0860 H   0  0  0  0  0  0  0  0  0  0  0  0 
    4.1715    0.8134    0.1525 H   0  0  0  0  0  0  0  0  0  0  0  0 
  1 12  1  0  0  0  0 
  2 15  1  0  0  0  0 
  2 14  1  0  0  0  0 
  3  7  1  0  0  0  0 
  4  9  1  0  0  0  0 
  5  8  2  0  0  0  0 
  6  1  1  0  0  0  0 
  6  4  1  0  0  0  0 
  6  3  1  0  0  0  0 
  7  2  1  0  0  0  0 
  7  5  1  0  0  0  0 
  9  5  1  0  0  0  0 
 10  1  1  0  0  0  0 
 11  1  1  0  0  0  0 
 13  2  1  0  0  0  0 
 16  3  1  0  0  0  0 
 17  3  1  0  0  0  0 
 18  4  1  0  0  0  0 
 19  4  1  0  0  0  0 
M  END 
>  <HBA> 
4 
 
>  <HBD> 
0 
 
>  <TPSA> 
63.87 
 
>  <cid> 
10788 
 
>  <dipole> 
5.93 
 
>  <excitation_energy_1> 
3.474 
 
>  <excitation_energy_2> 
4.571 
 
>  <excitation_energy_3> 
4.859 
 
>  <excitation_energy_4> 
4.944 
 
>  <homo_energy> 
-5.567 
 
>  <homo_lumo_gap> 
4.836 
 
>  <logP> 
0.672 
 
>  <lumo_energy> 
-0.732 
 
>  <melting_point> 
41.28 
 
>  <molecular_refractivity> 
53.04 
 
>  <oscillator_strength_1> 
0.0002 
 
>  <oscillator_strength_2> 
0.1006 
 
>  <oscillator_strength_3> 
0.0245 
 
>  <oscillator_strength_4> 
0.0053 
 
>  <open_babel_can_smiles> 
CN1CN(C)CSC1=S 
 
>  <mulliken_charges> 
19 
1   -0.315289 
2   -0.313367 
3   -0.02594 
4   -0.306036 
5   -0.032362 
6   -0.349485 
7   -0.346749 
8   -0.231048 
9   0.171495 
10   0.15752 
11   0.163825 
12   0.173025 
13   0.147519 
14   0.202189 
15   0.189896 
16   0.173343 
17   0.165266 
18   0.187118 
19   0.18908 
 
>  <lowdin_charges> 
19 
1   -0.359236 
2   -0.351789 
3   -0.130015 
4   -0.308494 
5   -0.168731 
6   -0.156868 
7   -0.097825 
8   -0.204817 
9   0.154948 
10   0.157405 
11   0.160069 
12   0.151598 
13   0.153154 
14   0.179779 
15   0.170084 
16   0.153675 
17   0.160196 
18   0.173035 
19   0.163832 
 
$$$$ 
 
