PCCDB-ID:  50090 
public computational chemistry database (PCCDB) project, http://pccdb.org 
 
 43 42  0  0  0  0  0  0  0  0999 V2000 
    0.9123   -3.3455   -3.0501 C   0  0  0  0  0  0  0  0  0  0  0  0 
    2.4271   -1.3814   -3.5851 C   0  0  0  0  0  0  0  0  0  0  0  0 
   11.4006   -3.8717    5.7735 C   0  0  0  0  0  0  0  0  0  0  0  0 
   12.0395   -1.7673    4.5083 C   0  0  0  0  0  0  0  0  0  0  0  0 
    6.4347   -0.5564   -0.1713 C   0  0  0  0  0  0  0  0  0  0  0  0 
    4.4959   -2.6681   -1.5860 C   0  0  0  0  0  0  0  0  0  0  0  0 
    3.1383   -3.1941   -1.9675 C   0  0  0  0  0  0  0  0  0  0  0  0 
    4.5746   -2.3167   -0.0758 C   0  0  0  0  0  0  0  0  0  0  0  0 
    9.6029   -2.5682    4.4865 C   0  0  0  0  0  0  0  0  0  0  0  0 
    9.6728   -3.3508    3.1750 C   0  0  0  0  0  0  0  0  0  0  0  0 
    6.6561   -2.6694    1.2059 C   0  0  0  0  0  0  0  0  0  0  0  0 
    2.2382   -2.6623   -2.8092 C   0  0  0  0  0  0  0  0  0  0  0  0 
   10.9267   -2.4945    5.2808 C   0  0  0  0  0  0  0  0  0  0  0  0 
    5.9510   -1.8754    0.3731 C   0  0  0  0  0  0  0  0  0  0  0  0 
    8.0091   -2.4130    1.7402 C   0  0  0  0  0  0  0  0  0  0  0  0 
    8.7371   -1.4606    1.5150 O   0  0  0  0  0  0  0  0  0  0  0  0 
    8.3675   -3.4369    2.5621 O   0  0  0  0  0  0  0  0  0  0  0  0 
    0.0741   -2.6933   -2.7664 H   0  0  0  0  0  0  0  0  0  0  0  0 
    0.8237   -4.2772   -2.4828 H   0  0  0  0  0  0  0  0  0  0  0  0 
    0.7751   -3.5806   -4.1150 H   0  0  0  0  0  0  0  0  0  0  0  0 
    1.6298   -0.6639   -3.3460 H   0  0  0  0  0  0  0  0  0  0  0  0 
    2.3573   -1.5700   -4.6655 H   0  0  0  0  0  0  0  0  0  0  0  0 
    3.3850   -0.8923   -3.3940 H   0  0  0  0  0  0  0  0  0  0  0  0 
   12.2672   -3.7703    6.4373 H   0  0  0  0  0  0  0  0  0  0  0  0 
   11.7042   -4.5198    4.9419 H   0  0  0  0  0  0  0  0  0  0  0  0 
   10.6114   -4.3909    6.3307 H   0  0  0  0  0  0  0  0  0  0  0  0 
   12.9169   -1.6104    5.1469 H   0  0  0  0  0  0  0  0  0  0  0  0 
   11.7024   -0.7874    4.1509 H   0  0  0  0  0  0  0  0  0  0  0  0 
   12.3710   -2.3425    3.6352 H   0  0  0  0  0  0  0  0  0  0  0  0 
    6.6397   -0.6407   -1.2473 H   0  0  0  0  0  0  0  0  0  0  0  0 
    7.3459   -0.2223    0.3215 H   0  0  0  0  0  0  0  0  0  0  0  0 
    5.6506    0.2044   -0.0624 H   0  0  0  0  0  0  0  0  0  0  0  0 
    4.7649   -1.7916   -2.1828 H   0  0  0  0  0  0  0  0  0  0  0  0 
    5.2562   -3.4342   -1.7973 H   0  0  0  0  0  0  0  0  0  0  0  0 
    2.8651   -4.1277   -1.4712 H   0  0  0  0  0  0  0  0  0  0  0  0 
    4.2537   -3.1878    0.5078 H   0  0  0  0  0  0  0  0  0  0  0  0 
    3.8522   -1.5135    0.1268 H   0  0  0  0  0  0  0  0  0  0  0  0 
    8.8288   -3.0267    5.1161 H   0  0  0  0  0  0  0  0  0  0  0  0 
    9.2670   -1.5507    4.2539 H   0  0  0  0  0  0  0  0  0  0  0  0 
    9.9622   -4.3918    3.3381 H   0  0  0  0  0  0  0  0  0  0  0  0 
   10.3636   -2.8878    2.4671 H   0  0  0  0  0  0  0  0  0  0  0  0 
    6.2150   -3.6022    1.5461 H   0  0  0  0  0  0  0  0  0  0  0  0 
   10.7033   -1.8912    6.1728 H   0  0  0  0  0  0  0  0  0  0  0  0 
  1 12  1  0  0  0  0 
  1 18  1  0  0  0  0 
  1 19  1  0  0  0  0 
  2 23  1  0  0  0  0 
  2 21  1  0  0  0  0 
  2 12  1  0  0  0  0 
  3 26  1  0  0  0  0 
  3 24  1  0  0  0  0 
  4 27  1  0  0  0  0 
  4 13  1  0  0  0  0 
  5 32  1  0  0  0  0 
  5 31  1  0  0  0  0 
  5 14  1  0  0  0  0 
  6  8  1  0  0  0  0 
  7  6  1  0  0  0  0 
  7 35  1  0  0  0  0 
  8 37  1  0  0  0  0 
  8 14  1  0  0  0  0 
  8 36  1  0  0  0  0 
  9 38  1  0  0  0  0 
  9 13  1  0  0  0  0 
 10 40  1  0  0  0  0 
 10  9  1  0  0  0  0 
 11 42  1  0  0  0  0 
 11 15  1  0  0  0  0 
 12  7  2  0  0  0  0 
 13  3  1  0  0  0  0 
 13 43  1  0  0  0  0 
 14 11  2  0  0  0  0 
 15 17  1  0  0  0  0 
 16 15  2  0  0  0  0 
 17 10  1  0  0  0  0 
 20  1  1  0  0  0  0 
 22  2  1  0  0  0  0 
 25  3  1  0  0  0  0 
 28  4  1  0  0  0  0 
 29  4  1  0  0  0  0 
 30  5  1  0  0  0  0 
 33  6  1  0  0  0  0 
 34  6  1  0  0  0  0 
 39  9  1  0  0  0  0 
 41 10  1  0  0  0  0 
M  END 
>  <HBA> 
2 
 
>  <HBD> 
0 
 
>  <TPSA> 
26.3 
 
>  <cid> 
50090 
 
>  <dipole> 
1.51 
 
>  <excitation_energy_1> 
4.693 
 
>  <excitation_energy_2> 
4.835 
 
>  <excitation_energy_3> 
5.736 
 
>  <excitation_energy_4> 
5.744 
 
>  <homo_energy> 
-6.313 
 
>  <homo_lumo_gap> 
5.426 
 
>  <logP> 
4.268 
 
>  <lumo_energy> 
-0.887 
 
>  <melting_point> 
6.32 
 
>  <molecular_refractivity> 
74.56 
 
>  <oscillator_strength_1> 
0.0351 
 
>  <oscillator_strength_2> 
0.0376 
 
>  <oscillator_strength_3> 
0.4106 
 
>  <oscillator_strength_4> 
0.4036 
 
>  <open_babel_can_smiles> 
CC(CCOC(=O)/C=C(/CCC=C(C)C)\C)C 
 
>  <mulliken_charges> 
43 
1   -0.506154 
2   -0.514193 
3   -0.44707 
4   -0.446227 
5   -0.537654 
6   -0.306397 
7   -0.161928 
8   -0.332044 
9   -0.278202 
10   -0.046521 
11   -0.264148 
12   0.18937 
13   -0.075426 
14   0.219859 
15   0.621033 
16   -0.509041 
17   -0.482226 
18   0.15024 
19   0.151998 
20   0.150264 
21   0.15312 
22   0.154406 
23   0.153977 
24   0.143177 
25   0.140731 
26   0.141679 
27   0.140384 
28   0.151592 
29   0.142053 
30   0.164122 
31   0.211799 
32   0.149844 
33   0.145285 
34   0.149212 
35   0.112318 
36   0.145733 
37   0.149329 
38   0.137175 
39   0.15535 
40   0.148096 
41   0.168679 
42   0.138832 
43   0.127573 
 
>  <lowdin_charges> 
43 
1   -0.438402 
2   -0.443833 
3   -0.45053 
4   -0.448072 
5   -0.456509 
6   -0.273106 
7   -0.192701 
8   -0.272952 
9   -0.290569 
10   -0.136338 
11   -0.235659 
12   -0.006997 
13   -0.120305 
14   0.055769 
15   0.199719 
16   -0.286567 
17   -0.197609 
18   0.153797 
19   0.154744 
20   0.151744 
21   0.156593 
22   0.154771 
23   0.154805 
24   0.150528 
25   0.145557 
26   0.149465 
27   0.149218 
28   0.153225 
29   0.146429 
30   0.162761 
31   0.187228 
32   0.157483 
33   0.148446 
34   0.15255 
35   0.145224 
36   0.150234 
37   0.153741 
38   0.146854 
39   0.154283 
40   0.148626 
41   0.15934 
42   0.165511 
43   0.141503 
 
$$$$ 
 
