PCCDB-ID:  8088 
public computational chemistry database (PCCDB) project, http://pccdb.org 
 
 15 14  0  0  0  0  0  0  0  0999 V2000 
   -0.0245   -1.3723   -0.2787 C   0  0  0  0  0  0  0  0  0  0  0  0 
    2.0729   -1.7867    0.8247 C   0  0  0  0  0  0  0  0  0  0  0  0 
   -1.1461   -0.3324   -0.3279 C   0  0  0  0  0  0  0  0  0  0  0  0 
    3.3938   -1.0820    1.1434 C   0  0  0  0  0  0  0  0  0  0  0  0 
   -2.0993   -0.4638   -1.0510 O   0  0  0  0  0  0  0  0  0  0  0  0 
   -1.0014    0.7023    0.5195 O   0  0  0  0  0  0  0  0  0  0  0  0 
    4.2755   -1.6343    1.7485 O   0  0  0  0  0  0  0  0  0  0  0  0 
    3.5012    0.1700    0.6637 O   0  0  0  0  0  0  0  0  0  0  0  0 
    1.1072   -0.8258    0.3983 O   0  0  0  0  0  0  0  0  0  0  0  0 
    0.2293   -1.6714   -1.3024 H   0  0  0  0  0  0  0  0  0  0  0  0 
   -0.4048   -2.2544    0.2553 H   0  0  0  0  0  0  0  0  0  0  0  0 
    1.7325   -2.3262    1.7163 H   0  0  0  0  0  0  0  0  0  0  0  0 
    2.2647   -2.5198    0.0289 H   0  0  0  0  0  0  0  0  0  0  0  0 
   -0.1543    0.5884    0.9929 H   0  0  0  0  0  0  0  0  0  0  0  0 
    2.6624    0.3933    0.2151 H   0  0  0  0  0  0  0  0  0  0  0  0 
  1 11  1  0  0  0  0 
  1  9  1  0  0  0  0 
  2  4  1  0  0  0  0 
  2 12  1  0  0  0  0 
  3  1  1  0  0  0  0 
  3  6  1  0  0  0  0 
  4  7  2  0  0  0  0 
  5  3  2  0  0  0  0 
  6 14  1  0  0  0  0 
  8  4  1  0  0  0  0 
  9  2  1  0  0  0  0 
 10  1  1  0  0  0  0 
 13  2  1  0  0  0  0 
 15  8  1  0  0  0  0 
M  END 
>  <HBA> 
5 
 
>  <HBD> 
2 
 
>  <TPSA> 
83.83 
 
>  <cid> 
8088 
 
>  <dipole> 
1.71 
 
>  <excitation_energy_1> 
5.709 
 
>  <excitation_energy_2> 
5.725 
 
>  <excitation_energy_3> 
6.589 
 
>  <excitation_energy_4> 
6.822 
 
>  <homo_energy> 
-7.783 
 
>  <homo_lumo_gap> 
7.426 
 
>  <logP> 
-0.828 
 
>  <lumo_energy> 
-0.356 
 
>  <melting_point> 
120.13 
 
>  <molecular_refractivity> 
25.97 
 
>  <oscillator_strength_1> 
0.0007 
 
>  <oscillator_strength_2> 
0.0003 
 
>  <oscillator_strength_3> 
0.0052 
 
>  <oscillator_strength_4> 
0.0128 
 
>  <open_babel_can_smiles> 
OC(=O)COCC(=O)O 
 
>  <mulliken_charges> 
15 
1   -0.125228 
2   -0.125314 
3   0.580302 
4   0.580389 
5   -0.433895 
6   -0.559659 
7   -0.433937 
8   -0.559603 
9   -0.535985 
10   0.191723 
11   0.187087 
12   0.191953 
13   0.186977 
14   0.427659 
15   0.42753 
 
>  <lowdin_charges> 
15 
1   -0.168705 
2   -0.171297 
3   0.180863 
4   0.183801 
5   -0.229785 
6   -0.339122 
7   -0.2311 
8   -0.340537 
9   -0.294126 
10   0.171134 
11   0.171129 
12   0.172859 
13   0.171384 
14   0.361789 
15   0.361715 
 
$$$$ 
 
