PCCDB-ID:  8991 
public computational chemistry database (PCCDB) project, http://pccdb.org 
 
 19 19  0  0  0  0  0  0  0  0999 V2000 
    4.1407    0.3769   -0.2124 C   0  0  0  0  0  0  0  0  0  0  0  0 
    3.6587   -4.2119    0.5776 C   0  0  0  0  0  0  0  0  0  0  0  0 
    4.9484   -4.4463    1.0199 C   0  0  0  0  0  0  0  0  0  0  0  0 
    3.2083   -2.8889    0.4454 C   0  0  0  0  0  0  0  0  0  0  0  0 
    7.1436   -3.6225    1.8284 C   0  0  0  0  0  0  0  0  0  0  0  0 
    5.7958   -3.3682    1.3469 C   0  0  0  0  0  0  0  0  0  0  0  0 
    4.0192   -1.8015    0.7568 C   0  0  0  0  0  0  0  0  0  0  0  0 
    5.3320   -2.0318    1.2298 C   0  0  0  0  0  0  0  0  0  0  0  0 
    7.9507   -2.7467    2.1537 O   0  0  0  0  0  0  0  0  0  0  0  0 
    6.1012   -0.9816    1.5615 O   0  0  0  0  0  0  0  0  0  0  0  0 
    3.4860   -0.5440    0.6688 O   0  0  0  0  0  0  0  0  0  0  0  0 
    3.5246    1.2784   -0.2069 H   0  0  0  0  0  0  0  0  0  0  0  0 
    4.1831   -0.0274   -1.2324 H   0  0  0  0  0  0  0  0  0  0  0  0 
    5.1501    0.6148    0.1320 H   0  0  0  0  0  0  0  0  0  0  0  0 
    2.9981   -5.0363    0.3290 H   0  0  0  0  0  0  0  0  0  0  0  0 
    5.3261   -5.4606    1.1254 H   0  0  0  0  0  0  0  0  0  0  0  0 
    2.2019   -2.6763    0.0970 H   0  0  0  0  0  0  0  0  0  0  0  0 
    7.4407   -4.6870    1.8977 H   0  0  0  0  0  0  0  0  0  0  0  0 
    6.9728   -1.3479    1.8655 H   0  0  0  0  0  0  0  0  0  0  0  0 
  1 12  1  0  0  0  0 
  1 14  1  0  0  0  0 
  1 11  1  0  0  0  0 
  2  3  1  0  0  0  0 
  3 16  1  0  0  0  0 
  3  6  2  0  0  0  0 
  4  2  2  0  0  0  0 
  4  7  1  0  0  0  0 
  5 18  1  0  0  0  0 
  5  9  2  0  0  0  0 
  6  5  1  0  0  0  0 
  7  8  2  0  0  0  0 
  8  6  1  0  0  0  0 
  8 10  1  0  0  0  0 
 10 19  1  0  0  0  0 
 11  7  1  0  0  0  0 
 13  1  1  0  0  0  0 
 15  2  1  0  0  0  0 
 17  4  1  0  0  0  0 
M  END 
>  <HBA> 
3 
 
>  <HBD> 
1 
 
>  <TPSA> 
46.53 
 
>  <cid> 
8991 
 
>  <dipole> 
2.54 
 
>  <excitation_energy_1> 
3.634 
 
>  <excitation_energy_2> 
3.962 
 
>  <excitation_energy_3> 
4.695 
 
>  <excitation_energy_4> 
5.199 
 
>  <homo_energy> 
-6.147 
 
>  <homo_lumo_gap> 
4.237 
 
>  <logP> 
1.213 
 
>  <lumo_energy> 
-1.91 
 
>  <melting_point> 
84.17 
 
>  <molecular_refractivity> 
40.34 
 
>  <oscillator_strength_1> 
0.0501 
 
>  <oscillator_strength_2> 
0.0022 
 
>  <oscillator_strength_3> 
0.1352 
 
>  <oscillator_strength_4> 
0.0501 
 
>  <open_babel_can_smiles> 
COc1cccc(c1O)C=O 
 
>  <mulliken_charges> 
19 
1   -0.219734 
2   -0.143148 
3   -0.189947 
4   -0.168558 
5   0.200074 
6   0.055451 
7   0.337814 
8   0.272849 
9   -0.468397 
10   -0.645191 
11   -0.518304 
12   0.162674 
13   0.140422 
14   0.180551 
15   0.138732 
16   0.140191 
17   0.149458 
18   0.129868 
19   0.445195 
 
>  <lowdin_charges> 
19 
1   -0.275376 
2   -0.176615 
3   -0.141371 
4   -0.143132 
5   0.057 
6   -0.104292 
7   0.065763 
8   0.108341 
9   -0.271279 
10   -0.357978 
11   -0.218084 
12   0.158854 
13   0.138846 
14   0.157916 
15   0.164841 
16   0.162269 
17   0.17189 
18   0.133344 
19   0.369063 
 
$$$$ 
 
