PCCDB-ID:  18053 
public computational chemistry database (PCCDB) project, http://pccdb.org 
 
 19 18  0  0  1  0  0  0  0  0999 V2000 
    0.9334    0.3564   -0.8761 C   0  0  0  0  0  0  0  0  0  0  0  0 
    1.9467   -1.2651    0.7766 C   0  0  0  0  0  0  0  0  0  0  0  0 
    3.0897   -2.1962    1.2110 C   0  0  0  0  0  0  0  0  0  0  0  0 
    2.6852   -1.2501   -1.6956 C   0  0  0  0  0  0  0  0  0  0  0  0 
    2.1981   -0.4293   -0.4976 C   0  0  1  0  0  0  0  0  0  0  0  0 
    4.3428   -1.5412    1.2999 O   0  0  0  0  0  0  0  0  0  0  0  0 
    4.0708   -1.5730   -1.5066 O   0  0  0  0  0  0  0  0  0  0  0  0 
    0.5773    0.9513   -0.0282 H   0  0  0  0  0  0  0  0  0  0  0  0 
    0.1187   -0.3197   -1.1678 H   0  0  0  0  0  0  0  0  0  0  0  0 
    1.1171    1.0409   -1.7126 H   0  0  0  0  0  0  0  0  0  0  0  0 
    1.7359   -0.5642    1.5948 H   0  0  0  0  0  0  0  0  0  0  0  0 
    1.0375   -1.8723    0.6414 H   0  0  0  0  0  0  0  0  0  0  0  0 
    3.1471   -3.0612    0.5313 H   0  0  0  0  0  0  0  0  0  0  0  0 
    2.8680   -2.5905    2.2097 H   0  0  0  0  0  0  0  0  0  0  0  0 
    2.5687   -0.6651   -2.6205 H   0  0  0  0  0  0  0  0  0  0  0  0 
    2.0830   -2.1666   -1.8024 H   0  0  0  0  0  0  0  0  0  0  0  0 
    2.9978    0.2905   -0.2758 H   0  0  0  0  0  0  0  0  0  0  0  0 
    4.6274   -1.4249    0.3751 H   0  0  0  0  0  0  0  0  0  0  0  0 
    4.3344   -2.2254   -2.1723 H   0  0  0  0  0  0  0  0  0  0  0  0 
  1  5  1  0  0  0  0 
  1  8  1  0  0  0  0 
  2  3  1  0  0  0  0 
  2 11  1  0  0  0  0 
  3  6  1  0  0  0  0 
  3 14  1  0  0  0  0 
  4  7  1  0  0  0  0 
  4  5  1  0  0  0  0 
  5 17  1  1  0  0  0 
  5  2  1  0  0  0  0 
  9  1  1  0  0  0  0 
 10  1  1  0  0  0  0 
 12  2  1  0  0  0  0 
 13  3  1  0  0  0  0 
 15  4  1  0  0  0  0 
 16  4  1  0  0  0  0 
 18  6  1  0  0  0  0 
 19  7  1  0  0  0  0 
M  END 
>  <HBA> 
2 
 
>  <HBD> 
2 
 
>  <TPSA> 
40.46 
 
>  <cid> 
18053 
 
>  <dipole> 
3.51 
 
>  <excitation_energy_1> 
5.967 
 
>  <excitation_energy_2> 
6.579 
 
>  <excitation_energy_3> 
6.594 
 
>  <excitation_energy_4> 
6.859 
 
>  <homo_energy> 
-6.55 
 
>  <homo_lumo_gap> 
8.055 
 
>  <logP> 
-0.003 
 
>  <lumo_energy> 
1.505 
 
>  <melting_point> 
11.34 
 
>  <molecular_refractivity> 
28.47 
 
>  <oscillator_strength_1> 
0.0024 
 
>  <oscillator_strength_2> 
0.0047 
 
>  <oscillator_strength_3> 
0.0077 
 
>  <oscillator_strength_4> 
0.0266 
 
>  <open_babel_can_smiles> 
OCC[C@@H](CO)C 
 
>  <mulliken_charges> 
19 
1   -0.455902 
2   -0.26531 
3   -0.027718 
4   -0.033614 
5   -0.096373 
6   -0.644497 
7   -0.634761 
8   0.152248 
9   0.140184 
10   0.143318 
11   0.139207 
12   0.115594 
13   0.10754 
14   0.133713 
15   0.128506 
16   0.125296 
17   0.151077 
18   0.419186 
19   0.402307 
 
>  <lowdin_charges> 
19 
1   -0.444889 
2   -0.295561 
3   -0.137287 
4   -0.133727 
5   -0.137192 
6   -0.485339 
7   -0.470944 
8   0.155906 
9   0.1463 
10   0.149081 
11   0.148104 
12   0.13714 
13   0.119482 
14   0.141471 
15   0.133441 
16   0.12959 
17   0.152099 
18   0.340337 
19   0.351989 
 
$$$$ 
 
