PCCDB-ID:  21985 
public computational chemistry database (PCCDB) project, http://pccdb.org 
 
 26 25  0  0  0  0  0  0  0  0999 V2000 
    4.2410   -1.3127    1.1760 C   0  0  0  0  0  0  0  0  0  0  0  0 
    3.0012    3.4697    1.3460 C   0  0  0  0  0  0  0  0  0  0  0  0 
    1.4526   -1.8571    0.2032 C   0  0  0  0  0  0  0  0  0  0  0  0 
    5.9093    4.0941    0.9176 C   0  0  0  0  0  0  0  0  0  0  0  0 
    2.6603   -1.6148   -0.6327 C   0  0  0  0  0  0  0  0  0  0  0  0 
    4.8568    3.9655   -0.1273 C   0  0  0  0  0  0  0  0  0  0  0  0 
    3.1379    0.6295    0.1652 C   0  0  0  0  0  0  0  0  0  0  0  0 
    4.2767    1.6482    0.3125 C   0  0  0  0  0  0  0  0  0  0  0  0 
    0.5362   -2.0015    0.9019 N   0  0  0  0  0  0  0  0  0  0  0  0 
    6.6986    4.1449    1.7681 N   0  0  0  0  0  0  0  0  0  0  0  0 
    3.6506   -0.7328   -0.0322 N   0  0  0  0  0  0  0  0  0  0  0  0 
    3.7900    3.0287    0.1939 N   0  0  0  0  0  0  0  0  0  0  0  0 
    4.6388   -2.3061    0.9437 H   0  0  0  0  0  0  0  0  0  0  0  0 
    3.5204   -1.4113    2.0067 H   0  0  0  0  0  0  0  0  0  0  0  0 
    5.0746   -0.6926    1.5131 H   0  0  0  0  0  0  0  0  0  0  0  0 
    2.6496    4.4921    1.1729 H   0  0  0  0  0  0  0  0  0  0  0  0 
    3.5681    3.4518    2.2933 H   0  0  0  0  0  0  0  0  0  0  0  0 
    2.1214    2.8317    1.4579 H   0  0  0  0  0  0  0  0  0  0  0  0 
    2.3325   -1.1945   -1.5902 H   0  0  0  0  0  0  0  0  0  0  0  0 
    3.1267   -2.5838   -0.8455 H   0  0  0  0  0  0  0  0  0  0  0  0 
    5.3410    3.6586   -1.0616 H   0  0  0  0  0  0  0  0  0  0  0  0 
    4.4227    4.9576   -0.2971 H   0  0  0  0  0  0  0  0  0  0  0  0 
    2.5644    0.9096   -0.7251 H   0  0  0  0  0  0  0  0  0  0  0  0 
    2.4475    0.6762    1.0250 H   0  0  0  0  0  0  0  0  0  0  0  0 
    4.9837    1.4657   -0.5042 H   0  0  0  0  0  0  0  0  0  0  0  0 
    4.8261    1.4976    1.2581 H   0  0  0  0  0  0  0  0  0  0  0  0 
  1 15  1  0  0  0  0 
  1 14  1  0  0  0  0 
  2 18  1  0  0  0  0 
  2 17  1  0  0  0  0 
  3  9  3  0  0  0  0 
  4 10  3  0  0  0  0 
  5 11  1  0  0  0  0 
  5  3  1  0  0  0  0 
  6 12  1  0  0  0  0 
  6  4  1  0  0  0  0 
  7  8  1  0  0  0  0 
  7 24  1  0  0  0  0 
  8 26  1  0  0  0  0 
 11  7  1  0  0  0  0 
 11  1  1  0  0  0  0 
 12  8  1  0  0  0  0 
 12  2  1  0  0  0  0 
 13  1  1  0  0  0  0 
 16  2  1  0  0  0  0 
 19  5  1  0  0  0  0 
 20  5  1  0  0  0  0 
 21  6  1  0  0  0  0 
 22  6  1  0  0  0  0 
 23  7  1  0  0  0  0 
 25  8  1  0  0  0  0 
M  END 
>  <HBA> 
4 
 
>  <HBD> 
0 
 
>  <TPSA> 
54.06 
 
>  <cid> 
21985 
 
>  <dipole> 
3.23 
 
>  <excitation_energy_1> 
5.551 
 
>  <excitation_energy_2> 
5.653 
 
>  <excitation_energy_3> 
5.998 
 
>  <excitation_energy_4> 
6.01 
 
>  <homo_energy> 
-6.493 
 
>  <homo_lumo_gap> 
6.92 
 
>  <logP> 
-0.103 
 
>  <lumo_energy> 
0.427 
 
>  <melting_point> 
45.18 
 
>  <molecular_refractivity> 
45.86 
 
>  <oscillator_strength_1> 
0.0 
 
>  <oscillator_strength_2> 
0.0173 
 
>  <oscillator_strength_3> 
0.0122 
 
>  <oscillator_strength_4> 
0.0287 
 
>  <open_babel_can_smiles> 
CN(CC#N)CCN(CC#N)C 
 
>  <mulliken_charges> 
26 
1   -0.324975 
2   -0.324736 
3   0.343496 
4   0.343661 
5   -0.216667 
6   -0.217016 
7   -0.141174 
8   -0.140611 
9   -0.466166 
10   -0.466194 
11   -0.367227 
12   -0.366925 
13   0.15695 
14   0.152052 
15   0.170371 
16   0.156802 
17   0.151799 
18   0.170408 
19   0.196734 
20   0.195623 
21   0.196739 
22   0.195654 
23   0.155698 
24   0.145086 
25   0.15574 
26   0.144878 
 
>  <lowdin_charges> 
26 
1   -0.364398 
2   -0.362524 
3   -0.040014 
4   -0.039697 
5   -0.1993 
6   -0.199863 
7   -0.208388 
8   -0.208283 
9   -0.1235 
10   -0.123493 
11   -0.170631 
12   -0.170381 
13   0.155136 
14   0.139931 
15   0.16108 
16   0.154781 
17   0.139058 
18   0.160445 
19   0.17975 
20   0.179802 
21   0.180071 
22   0.179476 
23   0.155438 
24   0.135289 
25   0.155547 
26   0.134667 
 
$$$$ 
 
