PCCDB-ID:  33821 
public computational chemistry database (PCCDB) project, http://pccdb.org 
 
 29 29  0  0  1  0  0  0  0  0999 V2000 
    1.2116    0.8784   -0.4232 C   0  0  0  0  0  0  0  0  0  0  0  0 
   10.9908   -0.0362   -3.7972 C   0  0  0  0  0  0  0  0  0  0  0  0 
    5.6416    1.5869   -6.2503 C   0  0  0  0  0  0  0  0  0  0  0  0 
    2.2664    0.1597   -0.8031 C   0  0  0  0  0  0  0  0  0  0  0  0 
   10.0616    1.1800   -3.7222 C   0  0  0  0  0  0  0  0  0  0  0  0 
    3.1002    0.4358   -2.0277 C   0  0  0  0  0  0  0  0  0  0  0  0 
    6.1049    1.2704   -4.8550 C   0  0  2  0  0  0  0  0  0  0  0  0 
    7.7527    0.9555   -3.2547 C   0  0  0  0  0  0  0  0  0  0  0  0 
    5.3738    0.6802   -2.6003 C   0  0  0  0  0  0  0  0  0  0  0  0 
    8.9513    0.9124   -2.8214 N   0  0  0  0  0  0  0  0  0  0  0  0 
    4.5172    0.4163   -1.6912 N   0  0  0  0  0  0  0  0  0  0  0  0 
    7.3603    1.2585   -4.5688 N   0  0  0  0  0  0  0  0  0  0  0  0 
    5.1041    1.0021   -3.9399 N   0  0  0  0  0  0  0  0  0  0  0  0 
    6.7249    0.6720   -2.3380 N   0  0  0  0  0  0  0  0  0  0  0  0 
    0.6315    0.6204    0.4585 H   0  0  0  0  0  0  0  0  0  0  0  0 
    0.8853    1.7563   -0.9779 H   0  0  0  0  0  0  0  0  0  0  0  0 
   11.8782    0.1913   -4.3999 H   0  0  0  0  0  0  0  0  0  0  0  0 
   10.4767   -0.8898   -4.2537 H   0  0  0  0  0  0  0  0  0  0  0  0 
   11.3169   -0.3353   -2.7955 H   0  0  0  0  0  0  0  0  0  0  0  0 
    6.5109    1.7823   -6.8782 H   0  0  0  0  0  0  0  0  0  0  0  0 
    4.9892    2.4688   -6.2548 H   0  0  0  0  0  0  0  0  0  0  0  0 
    5.0739    0.7488   -6.6732 H   0  0  0  0  0  0  0  0  0  0  0  0 
    2.5838   -0.7038   -0.2199 H   0  0  0  0  0  0  0  0  0  0  0  0 
    9.7302    1.4655   -4.7286 H   0  0  0  0  0  0  0  0  0  0  0  0 
   10.6238    2.0289   -3.3076 H   0  0  0  0  0  0  0  0  0  0  0  0 
    2.7821    1.4013   -2.4607 H   0  0  0  0  0  0  0  0  0  0  0  0 
    2.8698   -0.3392   -2.7849 H   0  0  0  0  0  0  0  0  0  0  0  0 
    4.1393    1.0224   -4.2349 H   0  0  0  0  0  0  0  0  0  0  0  0 
    7.0022    0.4555   -1.3894 H   0  0  0  0  0  0  0  0  0  0  0  0 
  1 15  1  0  0  0  0 
  2  5  1  0  0  0  0 
  2 19  1  0  0  0  0 
  4  1  2  0  0  0  0 
  4 23  1  0  0  0  0 
  5 25  1  0  0  0  0 
  5 10  1  0  0  0  0 
  6 11  1  0  0  0  0 
  6  4  1  0  0  0  0 
  7  3  1  6  0  0  0 
  7 12  1  0  0  0  0 
  7 13  1  0  0  0  0 
  8 10  1  0  0  0  0 
  8 14  1  0  0  0  0 
  9 14  1  0  0  0  0 
  9 11  2  0  0  0  0 
 12  8  2  0  0  0  0 
 13  9  1  0  0  0  0 
 14 29  1  0  0  0  0 
 16  1  1  0  0  0  0 
 17  2  1  0  0  0  0 
 18  2  1  0  0  0  0 
 20  3  1  0  0  0  0 
 21  3  1  0  0  0  0 
 22  3  1  0  0  0  0 
 24  5  1  0  0  0  0 
 26  6  1  0  0  0  0 
 27  6  1  0  0  0  0 
 28 13  1  0  0  0  0 
M  RAD  2   7   2  10   2 
M  END 
>  <HBA> 
5 
 
>  <HBD> 
2 
 
>  <TPSA> 
62.73 
 
>  <cid> 
33821 
 
>  <dipole> 
4.68 
 
>  <excitation_energy_1> 
4.378 
 
>  <excitation_energy_2> 
4.62 
 
>  <excitation_energy_3> 
4.908 
 
>  <excitation_energy_4> 
4.969 
 
>  <homo_energy> 
-5.88 
 
>  <homo_lumo_gap> 
5.075 
 
>  <logP> 
1.356 
 
>  <lumo_energy> 
-0.805 
 
>  <melting_point> 
102.19 
 
>  <molecular_refractivity> 
57.35 
 
>  <oscillator_strength_1> 
0.0311 
 
>  <oscillator_strength_2> 
0.0028 
 
>  <oscillator_strength_3> 
0.1057 
 
>  <oscillator_strength_4> 
0.0021 
 
>  <open_babel_can_smiles> 
C[C]1N/C(=N\CC=C)/NC(=N1)[N]CC 
 
>  <mulliken_charges> 
29 
1   -0.342026 
2   -0.432957 
3   -0.538169 
4   -0.028356 
5   -0.139007 
6   -0.203949 
7   0.523041 
8   0.65671 
9   0.767688 
10   -0.494577 
11   -0.506118 
12   -0.504314 
13   -0.702995 
14   -0.694631 
15   0.142374 
16   0.131254 
17   0.132518 
18   0.141812 
19   0.15113 
20   0.204048 
21   0.175806 
22   0.175668 
23   0.140311 
24   0.147526 
25   0.134882 
26   0.126642 
27   0.135248 
28   0.349455 
29   0.350987 
 
>  <lowdin_charges> 
29 
1   -0.34208 
2   -0.446536 
3   -0.452818 
4   -0.138841 
5   -0.197516 
6   -0.201789 
7   0.122768 
8   0.113494 
9   0.139148 
10   -0.232982 
11   -0.268586 
12   -0.211975 
13   -0.251473 
14   -0.233172 
15   0.160834 
16   0.152331 
17   0.146194 
18   0.147826 
19   0.151556 
20   0.188392 
21   0.170868 
22   0.171353 
23   0.159693 
24   0.139148 
25   0.141968 
26   0.130348 
27   0.135938 
28   0.298379 
29   0.307531 
 
$$$$ 
 
