PCCDB-ID:  60248 
public computational chemistry database (PCCDB) project, http://pccdb.org 
 
 33 32  0  0  0  0  0  0  0  0999 V2000 
    4.1737    0.6860    1.2594 C   0  0  0  0  0  0  0  0  0  0  0  0 
    7.9930   -0.0476   -1.6587 C   0  0  0  0  0  0  0  0  0  0  0  0 
    6.7626   -5.4730   -1.5200 C   0  0  0  0  0  0  0  0  0  0  0  0 
    4.6642   -5.0983   -0.2589 C   0  0  0  0  0  0  0  0  0  0  0  0 
    3.1529    0.6960    0.1343 C   0  0  0  0  0  0  0  0  0  0  0  0 
    6.7337   -0.2334   -2.4849 C   0  0  0  0  0  0  0  0  0  0  0  0 
    3.6862   -2.0395   -2.8283 C   0  0  0  0  0  0  0  0  0  0  0  0 
    5.2555   -3.7197   -2.2497 C   0  0  0  0  0  0  0  0  0  0  0  0 
    5.5302   -4.7181   -1.3655 N   0  0  0  0  0  0  0  0  0  0  0  0 
    5.9833   -3.3731   -3.1696 O   0  0  0  0  0  0  0  0  0  0  0  0 
    3.8163    0.7254   -2.9967 O   0  0  0  0  0  0  0  0  0  0  0  0 
    4.0352   -3.1508   -2.0024 O   0  0  0  0  0  0  0  0  0  0  0  0 
    3.2879   -0.4855   -0.7010 O   0  0  0  0  0  0  0  0  0  0  0  0 
    5.6378   -0.5058   -1.5676 O   0  0  0  0  0  0  0  0  0  0  0  0 
    4.1066   -0.4128   -2.0854 P   0  0  0  0  0  0  0  0  0  0  0  0 
    4.0166    1.5521    1.9135 H   0  0  0  0  0  0  0  0  0  0  0  0 
    5.1914    0.7273    0.8619 H   0  0  0  0  0  0  0  0  0  0  0  0 
    4.0755   -0.2230    1.8619 H   0  0  0  0  0  0  0  0  0  0  0  0 
    8.8441    0.1500   -2.3201 H   0  0  0  0  0  0  0  0  0  0  0  0 
    8.2102   -0.9488   -1.0766 H   0  0  0  0  0  0  0  0  0  0  0  0 
    7.8881    0.7965   -0.9691 H   0  0  0  0  0  0  0  0  0  0  0  0 
    7.3976   -5.3612   -0.6310 H   0  0  0  0  0  0  0  0  0  0  0  0 
    7.2965   -5.1037   -2.3942 H   0  0  0  0  0  0  0  0  0  0  0  0 
    6.5424   -6.5407   -1.6524 H   0  0  0  0  0  0  0  0  0  0  0  0 
    5.2276   -5.0641    0.6825 H   0  0  0  0  0  0  0  0  0  0  0  0 
    4.2871   -6.1206   -0.3972 H   0  0  0  0  0  0  0  0  0  0  0  0 
    3.8223   -4.4137   -0.1927 H   0  0  0  0  0  0  0  0  0  0  0  0 
    3.2433    1.5891   -0.4924 H   0  0  0  0  0  0  0  0  0  0  0  0 
    2.1310    0.6555    0.5215 H   0  0  0  0  0  0  0  0  0  0  0  0 
    6.8286   -1.0871   -3.1619 H   0  0  0  0  0  0  0  0  0  0  0  0 
    6.4948    0.6649   -3.0623 H   0  0  0  0  0  0  0  0  0  0  0  0 
    2.6028   -2.0788   -2.9645 H   0  0  0  0  0  0  0  0  0  0  0  0 
    4.1813   -2.1111   -3.7995 H   0  0  0  0  0  0  0  0  0  0  0  0 
  1 18  1  0  0  0  0 
  1 16  1  0  0  0  0 
  2 20  1  0  0  0  0 
  2 21  1  0  0  0  0 
  3  9  1  0  0  0  0 
  3 22  1  0  0  0  0 
  4 27  1  0  0  0  0 
  4 25  1  0  0  0  0 
  5 29  1  0  0  0  0 
  5  1  1  0  0  0  0 
  6  2  1  0  0  0  0 
  6 14  1  0  0  0  0 
  7 15  1  0  0  0  0 
  7 12  1  0  0  0  0 
  8 12  1  0  0  0  0 
  8  9  1  0  0  0  0 
  9  4  1  0  0  0  0 
 10  8  2  0  0  0  0 
 11 15  2  0  0  0  0 
 13  5  1  0  0  0  0 
 15 14  1  0  0  0  0 
 15 13  1  0  0  0  0 
 17  1  1  0  0  0  0 
 19  2  1  0  0  0  0 
 23  3  1  0  0  0  0 
 24  3  1  0  0  0  0 
 26  4  1  0  0  0  0 
 28  5  1  0  0  0  0 
 30  6  1  0  0  0  0 
 31  6  1  0  0  0  0 
 32  7  1  0  0  0  0 
 33  7  1  0  0  0  0 
M  END 
>  <HBA> 
6 
 
>  <HBD> 
0 
 
>  <TPSA> 
74.88 
 
>  <cid> 
60248 
 
>  <dipole> 
4.21 
 
>  <excitation_energy_1> 
6.011 
 
>  <excitation_energy_2> 
6.615 
 
>  <excitation_energy_3> 
6.67 
 
>  <excitation_energy_4> 
6.736 
 
>  <homo_energy> 
-6.672 
 
>  <homo_lumo_gap> 
7.981 
 
>  <logP> 
1.908 
 
>  <lumo_energy> 
1.309 
 
>  <melting_point> 
-4.95 
 
>  <molecular_refractivity> 
55.97 
 
>  <oscillator_strength_1> 
0.0173 
 
>  <oscillator_strength_2> 
0.0293 
 
>  <oscillator_strength_3> 
0.0196 
 
>  <oscillator_strength_4> 
0.0112 
 
>  <open_babel_can_smiles> 
CCOP(=O)(COC(=O)N(C)C)OCC 
 
>  <mulliken_charges> 
33 
1   -0.452463 
2   -0.454918 
3   -0.318301 
4   -0.317155 
5   -0.044516 
6   -0.057169 
7   -0.26502 
8   0.809234 
9   -0.433399 
10   -0.534013 
11   -0.565118 
12   -0.48476 
13   -0.529505 
14   -0.54121 
15   1.123305 
16   0.146058 
17   0.175757 
18   0.158268 
19   0.150017 
20   0.160178 
21   0.156605 
22   0.154586 
23   0.203436 
24   0.154664 
25   0.156382 
26   0.155776 
27   0.204807 
28   0.174166 
29   0.157096 
30   0.184476 
31   0.168574 
32   0.193339 
33   0.210822 
 
>  <lowdin_charges> 
33 
1   -0.453863 
2   -0.448449 
3   -0.34925 
4   -0.351311 
5   -0.116165 
6   -0.12653 
7   -0.300033 
8   0.21519 
9   -0.102255 
10   -0.329201 
11   -0.598528 
12   -0.200007 
13   -0.398043 
14   -0.411361 
15   1.044504 
16   0.156491 
17   0.163977 
18   0.157724 
19   0.159013 
20   0.158218 
21   0.155722 
22   0.149654 
23   0.184953 
24   0.147922 
25   0.151171 
26   0.14844 
27   0.182994 
28   0.16156 
29   0.152106 
30   0.162024 
31   0.158089 
32   0.184127 
33   0.191113 
 
$$$$ 
 
