PCCDB-ID:  68324 
public computational chemistry database (PCCDB) project, http://pccdb.org 
 
 35 34  0  0  0  0  0  0  0  0999 V2000 
    4.4045    4.3995   -1.2672 C   0  0  0  0  0  0  0  0  0  0  0  0 
    3.7068    2.7716   -3.0978 C   0  0  0  0  0  0  0  0  0  0  0  0 
    6.0542    3.6926   -3.0393 C   0  0  0  0  0  0  0  0  0  0  0  0 
    4.5470   -3.8960    0.7779 C   0  0  0  0  0  0  0  0  0  0  0  0 
    3.7946   -2.9303    2.9829 C   0  0  0  0  0  0  0  0  0  0  0  0 
    2.3389   -2.6354    0.9443 C   0  0  0  0  0  0  0  0  0  0  0  0 
    5.4320    0.3727    0.1550 C   0  0  0  0  0  0  0  0  0  0  0  0 
    4.6264    1.4737   -0.5274 C   0  0  0  0  0  0  0  0  0  0  0  0 
    4.6874   -0.9549    0.0545 C   0  0  0  0  0  0  0  0  0  0  0  0 
    4.8456    3.2685   -2.2018 C   0  0  0  0  0  0  0  0  0  0  0  0 
    3.7753   -2.7632    1.4619 C   0  0  0  0  0  0  0  0  0  0  0  0 
    3.4640    1.6963   -0.2630 O   0  0  0  0  0  0  0  0  0  0  0  0 
    4.3515   -1.4423   -1.0039 O   0  0  0  0  0  0  0  0  0  0  0  0 
    5.3860    2.1413   -1.4100 O   0  0  0  0  0  0  0  0  0  0  0  0 
    4.4901   -1.4812    1.2733 O   0  0  0  0  0  0  0  0  0  0  0  0 
    4.1168    5.2731   -1.8628 H   0  0  0  0  0  0  0  0  0  0  0  0 
    5.2290    4.6953   -0.6089 H   0  0  0  0  0  0  0  0  0  0  0  0 
    3.5530    4.0972   -0.6560 H   0  0  0  0  0  0  0  0  0  0  0  0 
    3.3908    3.5794   -3.7678 H   0  0  0  0  0  0  0  0  0  0  0  0 
    2.8478    2.4516   -2.5062 H   0  0  0  0  0  0  0  0  0  0  0  0 
    4.0456    1.9311   -3.7128 H   0  0  0  0  0  0  0  0  0  0  0  0 
    5.7861    4.5362   -3.6841 H   0  0  0  0  0  0  0  0  0  0  0  0 
    6.3951    2.8669   -3.6720 H   0  0  0  0  0  0  0  0  0  0  0  0 
    6.8848    3.9996   -2.3952 H   0  0  0  0  0  0  0  0  0  0  0  0 
    4.0865   -4.8567    1.0343 H   0  0  0  0  0  0  0  0  0  0  0  0 
    5.5856   -3.9146    1.1265 H   0  0  0  0  0  0  0  0  0  0  0  0 
    4.5390   -3.7822   -0.3071 H   0  0  0  0  0  0  0  0  0  0  0  0 
    3.2823   -3.8561    3.2649 H   0  0  0  0  0  0  0  0  0  0  0  0 
    3.2884   -2.0910    3.4704 H   0  0  0  0  0  0  0  0  0  0  0  0 
    4.8233   -2.9765    3.3554 H   0  0  0  0  0  0  0  0  0  0  0  0 
    1.7776   -3.5406    1.2019 H   0  0  0  0  0  0  0  0  0  0  0  0 
    2.3170   -2.5060   -0.1388 H   0  0  0  0  0  0  0  0  0  0  0  0 
    1.8414   -1.7793    1.4121 H   0  0  0  0  0  0  0  0  0  0  0  0 
    5.5766    0.6477    1.2031 H   0  0  0  0  0  0  0  0  0  0  0  0 
    6.4084    0.2649   -0.3240 H   0  0  0  0  0  0  0  0  0  0  0  0 
  1 18  1  0  0  0  0 
  1 17  1  0  0  0  0 
  2 20  1  0  0  0  0 
  2 10  1  0  0  0  0 
  3 24  1  0  0  0  0 
  3 10  1  0  0  0  0 
  4 25  1  0  0  0  0 
  4 26  1  0  0  0  0 
  4 11  1  0  0  0  0 
  5 28  1  0  0  0  0 
  5 30  1  0  0  0  0 
  5 29  1  0  0  0  0 
  6 31  1  0  0  0  0 
  6 33  1  0  0  0  0 
  6 11  1  0  0  0  0 
  7 34  1  0  0  0  0 
  8 12  2  0  0  0  0 
  8  7  1  0  0  0  0 
  9  7  1  0  0  0  0 
  9 15  1  0  0  0  0 
 10 14  1  0  0  0  0 
 10  1  1  0  0  0  0 
 11  5  1  0  0  0  0 
 13  9  2  0  0  0  0 
 14  8  1  0  0  0  0 
 15 11  1  0  0  0  0 
 16  1  1  0  0  0  0 
 19  2  1  0  0  0  0 
 21  2  1  0  0  0  0 
 22  3  1  0  0  0  0 
 23  3  1  0  0  0  0 
 27  4  1  0  0  0  0 
 32  6  1  0  0  0  0 
 35  7  1  0  0  0  0 
M  END 
>  <HBA> 
4 
 
>  <HBD> 
0 
 
>  <TPSA> 
52.6 
 
>  <cid> 
68324 
 
>  <dipole> 
1.55 
 
>  <excitation_energy_1> 
5.6 
 
>  <excitation_energy_2> 
5.641 
 
>  <excitation_energy_3> 
6.533 
 
>  <excitation_energy_4> 
6.548 
 
>  <homo_energy> 
-7.151 
 
>  <homo_lumo_gap> 
7.304 
 
>  <logP> 
2.06 
 
>  <lumo_energy> 
0.152 
 
>  <melting_point> 
17.04 
 
>  <molecular_refractivity> 
57.64 
 
>  <oscillator_strength_1> 
0.0008 
 
>  <oscillator_strength_2> 
0.0018 
 
>  <oscillator_strength_3> 
0.0127 
 
>  <oscillator_strength_4> 
0.0173 
 
>  <open_babel_can_smiles> 
O=C(OC(C)(C)C)CC(=O)OC(C)(C)C 
 
>  <mulliken_charges> 
35 
1   -0.466411 
2   -0.465554 
3   -0.450025 
4   -0.465916 
5   -0.450235 
6   -0.465706 
7   -0.426905 
8   0.647437 
9   0.645939 
10   0.304868 
11   0.305419 
12   -0.482704 
13   -0.482919 
14   -0.489082 
15   -0.488111 
16   0.144739 
17   0.146522 
18   0.187299 
19   0.142545 
20   0.18815 
21   0.156093 
22   0.146568 
23   0.157168 
24   0.152742 
25   0.144451 
26   0.146678 
27   0.186819 
28   0.146442 
29   0.157447 
30   0.15253 
31   0.142305 
32   0.187718 
33   0.157197 
34   0.193606 
35   0.192883 
 
>  <lowdin_charges> 
35 
1   -0.458515 
2   -0.457618 
3   -0.44626 
4   -0.453289 
5   -0.44463 
6   -0.454934 
7   -0.31933 
8   0.204808 
9   0.207999 
10   0.144422 
11   0.145657 
12   -0.26845 
13   -0.26981 
14   -0.187748 
15   -0.18894 
16   0.156498 
17   0.15421 
18   0.173136 
19   0.155717 
20   0.173857 
21   0.159144 
22   0.155771 
23   0.159198 
24   0.156898 
25   0.15562 
26   0.152425 
27   0.170373 
28   0.155242 
29   0.159436 
30   0.155097 
31   0.15513 
32   0.17125 
33   0.159791 
34   0.183671 
35   0.184174 
 
$$$$ 
 
