PCCDB-ID:  66829 
public computational chemistry database (PCCDB) project, http://pccdb.org 
 
 19 19  0  0  0  0  0  0  0  0999 V2000 
    0.4381    1.3626   -0.3922 C   0  0  0  0  0  0  0  0  0  0  0  0 
   -1.4544   -0.0672    0.0112 C   0  0  0  0  0  0  0  0  0  0  0  0 
    1.4090    0.2244   -0.0482 C   0  0  0  0  0  0  0  0  0  0  0  0 
   -0.5181   -1.2177    0.3761 C   0  0  0  0  0  0  0  0  0  0  0  0 
    1.2080   -2.0164   -1.1927 C   0  0  0  0  0  0  0  0  0  0  0  0 
   -0.8022    1.1971    0.3590 N   0  0  0  0  0  0  0  0  0  0  0  0 
    0.7784   -1.0779   -0.3143 N   0  0  0  0  0  0  0  0  0  0  0  0 
    0.2900   -3.2627   -1.8240 S   0  0  0  0  0  0  0  0  0  0  0  0 
    2.9030   -1.9772   -1.7856 S   0  0  0  0  0  0  0  0  0  0  0  0 
    0.2880    1.3658   -1.4884 H   0  0  0  0  0  0  0  0  0  0  0  0 
    0.9044    2.3144   -0.1132 H   0  0  0  0  0  0  0  0  0  0  0  0 
   -2.3783   -0.1634    0.5921 H   0  0  0  0  0  0  0  0  0  0  0  0 
   -1.7135   -0.1451   -1.0602 H   0  0  0  0  0  0  0  0  0  0  0  0 
    1.6804    0.2789    1.0140 H   0  0  0  0  0  0  0  0  0  0  0  0 
    2.3068    0.3354   -0.6522 H   0  0  0  0  0  0  0  0  0  0  0  0 
   -0.9490   -2.1804    0.1074 H   0  0  0  0  0  0  0  0  0  0  0  0 
   -0.3171   -1.1895    1.4549 H   0  0  0  0  0  0  0  0  0  0  0  0 
   -1.4271    1.9782    0.1731 H   0  0  0  0  0  0  0  0  0  0  0  0 
    3.5042   -1.2555   -0.8081 H   0  0  0  0  0  0  0  0  0  0  0  0 
  1 11  1  0  0  0  0 
  1  3  1  0  0  0  0 
  1  6  1  0  0  0  0 
  2  6  1  0  0  0  0 
  2  4  1  0  0  0  0 
  2 12  1  0  0  0  0 
  3 14  1  0  0  0  0 
  4 17  1  0  0  0  0 
  5  7  1  0  0  0  0 
  7  3  1  0  0  0  0 
  7  4  1  0  0  0  0 
  8  5  2  0  0  0  0 
  9  5  1  0  0  0  0 
  9 19  1  0  0  0  0 
 10  1  1  0  0  0  0 
 13  2  1  0  0  0  0 
 15  3  1  0  0  0  0 
 16  4  1  0  0  0  0 
 18  6  1  0  0  0  0 
M  END 
>  <HBA> 
4 
 
>  <HBD> 
2 
 
>  <TPSA> 
86.16 
 
>  <cid> 
66829 
 
>  <dipole> 
5.55 
 
>  <excitation_energy_1> 
3.374 
 
>  <excitation_energy_2> 
4.578 
 
>  <excitation_energy_3> 
4.818 
 
>  <excitation_energy_4> 
4.916 
 
>  <homo_energy> 
-5.663 
 
>  <homo_lumo_gap> 
4.702 
 
>  <logP> 
0.373 
 
>  <lumo_energy> 
-0.961 
 
>  <melting_point> 
77.12 
 
>  <molecular_refractivity> 
53.28 
 
>  <oscillator_strength_1> 
0.001 
 
>  <oscillator_strength_2> 
0.0895 
 
>  <oscillator_strength_3> 
0.0572 
 
>  <oscillator_strength_4> 
0.0171 
 
>  <open_babel_can_smiles> 
SC(=S)N1CCNCC1 
 
>  <mulliken_charges> 
19 
1   -0.133645 
2   -0.143092 
3   -0.148632 
4   -0.144467 
5   -0.036176 
6   -0.552628 
7   -0.334522 
8   -0.215551 
9   0.049059 
10   0.136264 
11   0.151545 
12   0.152751 
13   0.144864 
14   0.167681 
15   0.156768 
16   0.205395 
17   0.161604 
18   0.307237 
19   0.075546 
 
>  <lowdin_charges> 
19 
1   -0.206267 
2   -0.207805 
3   -0.203314 
4   -0.19936 
5   -0.154846 
6   -0.369736 
7   -0.074248 
8   -0.203685 
9   0.02349 
10   0.127048 
11   0.155331 
12   0.156325 
13   0.132689 
14   0.154676 
15   0.164264 
16   0.186856 
17   0.152807 
18   0.262409 
19   0.103367 
 
$$$$ 
 
