PCCDB-ID:  37892 
public computational chemistry database (PCCDB) project, http://pccdb.org 
 
 34 35  0  0  0  0  0  0  0  0999 V2000 
    0.3791   -0.4777   -0.5295 C   0  0  0  0  0  0  0  0  0  0  0  0 
    2.1436   -3.0370   -0.0348 C   0  0  0  0  0  0  0  0  0  0  0  0 
    8.9900    4.3474    0.3886 C   0  0  0  0  0  0  0  0  0  0  0  0 
    7.4316    3.5547    2.0395 C   0  0  0  0  0  0  0  0  0  0  0  0 
    6.7780    0.7121    0.0179 C   0  0  0  0  0  0  0  0  0  0  0  0 
    6.0514   -0.4664    0.0810 C   0  0  0  0  0  0  0  0  0  0  0  0 
    4.7636    1.9811   -0.3444 C   0  0  0  0  0  0  0  0  0  0  0  0 
    6.9733    3.2200   -0.3168 C   0  0  0  0  0  0  0  0  0  0  0  0 
    1.8756   -0.4994   -0.3656 C   0  0  0  0  0  0  0  0  0  0  0  0 
    2.6158   -1.6192   -0.1524 C   0  0  0  0  0  0  0  0  0  0  0  0 
    6.1439    1.9548   -0.1997 C   0  0  0  0  0  0  0  0  0  0  0  0 
    4.0023    0.8004   -0.2911 C   0  0  0  0  0  0  0  0  0  0  0  0 
    4.6613   -0.4125   -0.0778 C   0  0  0  0  0  0  0  0  0  0  0  0 
    2.5359    0.8150   -0.4488 C   0  0  0  0  0  0  0  0  0  0  0  0 
    8.0031    3.3273    0.7169 N   0  0  0  0  0  0  0  0  0  0  0  0 
    1.9012    1.8545   -0.6397 O   0  0  0  0  0  0  0  0  0  0  0  0 
    3.9780   -1.5948   -0.0114 O   0  0  0  0  0  0  0  0  0  0  0  0 
   -0.0769   -1.4679   -0.4779 H   0  0  0  0  0  0  0  0  0  0  0  0 
    0.1150   -0.0214   -1.4900 H   0  0  0  0  0  0  0  0  0  0  0  0 
   -0.0742    0.1563    0.2408 H   0  0  0  0  0  0  0  0  0  0  0  0 
    1.0606   -3.1198   -0.1160 H   0  0  0  0  0  0  0  0  0  0  0  0 
    2.4563   -3.4563    0.9288 H   0  0  0  0  0  0  0  0  0  0  0  0 
    2.6021   -3.6519   -0.8185 H   0  0  0  0  0  0  0  0  0  0  0  0 
    9.7799    4.3494    1.1477 H   0  0  0  0  0  0  0  0  0  0  0  0 
    8.5648    5.3693    0.3391 H   0  0  0  0  0  0  0  0  0  0  0  0 
    9.4490    4.1233   -0.5805 H   0  0  0  0  0  0  0  0  0  0  0  0 
    8.2281    3.5356    2.7911 H   0  0  0  0  0  0  0  0  0  0  0  0 
    6.7168    2.7622    2.2783 H   0  0  0  0  0  0  0  0  0  0  0  0 
    6.9067    4.5271    2.1196 H   0  0  0  0  0  0  0  0  0  0  0  0 
    7.8552    0.6961    0.1533 H   0  0  0  0  0  0  0  0  0  0  0  0 
    6.5299   -1.4261    0.2492 H   0  0  0  0  0  0  0  0  0  0  0  0 
    4.2286    2.9129   -0.5049 H   0  0  0  0  0  0  0  0  0  0  0  0 
    6.2988    4.0990   -0.3279 H   0  0  0  0  0  0  0  0  0  0  0  0 
    7.4898    3.2158   -1.2865 H   0  0  0  0  0  0  0  0  0  0  0  0 
  1 18  1  0  0  0  0 
  1  9  1  0  0  0  0 
  1 20  1  0  0  0  0 
  2 22  1  0  0  0  0 
  3 15  1  0  0  0  0 
  3 24  1  0  0  0  0 
  4 29  1  0  0  0  0 
  4 28  1  0  0  0  0 
  4 27  1  0  0  0  0 
  5  6  1  0  0  0  0 
  5 30  1  0  0  0  0 
  6 31  1  0  0  0  0 
  7 12  2  0  0  0  0 
  7 11  1  0  0  0  0 
  8 11  1  0  0  0  0 
  8 15  1  0  0  0  0 
  9 10  2  0  0  0  0 
 10  2  1  0  0  0  0 
 10 17  1  0  0  0  0 
 11  5  2  0  0  0  0 
 12 13  1  0  0  0  0 
 13 17  1  0  0  0  0 
 13  6  2  0  0  0  0 
 14  9  1  0  0  0  0 
 14 12  1  0  0  0  0 
 15  4  1  0  0  0  0 
 16 14  2  0  0  0  0 
 19  1  1  0  0  0  0 
 21  2  1  0  0  0  0 
 23  2  1  0  0  0  0 
 25  3  1  0  0  0  0 
 26  3  1  0  0  0  0 
 32  7  1  0  0  0  0 
 33  8  1  0  0  0  0 
 34  8  1  0  0  0  0 
M  END 
>  <HBA> 
3 
 
>  <HBD> 
0 
 
>  <TPSA> 
33.45 
 
>  <cid> 
37892 
 
>  <dipole> 
2.92 
 
>  <excitation_energy_1> 
3.775 
 
>  <excitation_energy_2> 
3.914 
 
>  <excitation_energy_3> 
4.345 
 
>  <excitation_energy_4> 
4.754 
 
>  <homo_energy> 
-5.894 
 
>  <homo_lumo_gap> 
4.623 
 
>  <logP> 
2.471 
 
>  <lumo_energy> 
-1.271 
 
>  <melting_point> 
98.15 
 
>  <molecular_refractivity> 
69.89 
 
>  <oscillator_strength_1> 
0.0001 
 
>  <oscillator_strength_2> 
0.0082 
 
>  <oscillator_strength_3> 
0.0714 
 
>  <oscillator_strength_4> 
0.0008 
 
>  <open_babel_can_smiles> 
CN(Cc1ccc2c(c1)c(=O)c(c(o2)C)C)C 
 
>  <mulliken_charges> 
34 
1   -0.511181 
2   -0.521513 
3   -0.294324 
4   -0.303514 
5   -0.162533 
6   -0.177592 
7   -0.250432 
8   -0.195935 
9   0.027872 
10   0.297917 
11   0.147996 
12   0.072115 
13   0.293746 
14   0.380724 
15   -0.368339 
16   -0.518956 
17   -0.528217 
18   0.142213 
19   0.176551 
20   0.175684 
21   0.174524 
22   0.179314 
23   0.179633 
24   0.15024 
25   0.120943 
26   0.148895 
27   0.148752 
28   0.161936 
29   0.120564 
30   0.150716 
31   0.145075 
32   0.159522 
33   0.125151 
34   0.152453 
 
>  <lowdin_charges> 
34 
1   -0.433054 
2   -0.443677 
3   -0.355016 
4   -0.361028 
5   -0.134122 
6   -0.176137 
7   -0.137756 
8   -0.196618 
9   -0.086544 
10   0.112722 
11   -0.019414 
12   -0.066755 
13   0.099993 
14   0.135761 
15   -0.182819 
16   -0.291355 
17   -0.1199 
18   0.150347 
19   0.170387 
20   0.171024 
21   0.167965 
22   0.172927 
23   0.17414 
24   0.151369 
25   0.121197 
26   0.149242 
27   0.150881 
28   0.158084 
29   0.122201 
30   0.16869 
31   0.169853 
32   0.176009 
33   0.127499 
34   0.153903 
 
$$$$ 
 
