PCCDB-ID:  15145 
public computational chemistry database (PCCDB) project, http://pccdb.org 
 
 14 14  0  0  0  0  0  0  0  0999 V2000 
    1.1346    0.0946    0.0309 C   0  0  0  0  0  0  0  0  0  0  0  0 
    4.8350   -0.7760   -0.1129 C   0  0  0  0  0  0  0  0  0  0  0  0 
    3.3821   -1.1672    0.0241 C   0  0  0  0  0  0  0  0  0  0  0  0 
    4.7216    0.7643   -0.2754 C   0  0  0  0  0  0  0  0  0  0  0  0 
    2.6142   -0.0750   -0.0461 C   0  0  0  0  0  0  0  0  0  0  0  0 
    3.3117    1.0979   -0.2191 O   0  0  0  0  0  0  0  0  0  0  0  0 
    0.6405   -0.8706    0.1675 H   0  0  0  0  0  0  0  0  0  0  0  0 
    0.7506    0.5617   -0.8842 H   0  0  0  0  0  0  0  0  0  0  0  0 
    0.8637    0.7516    0.8665 H   0  0  0  0  0  0  0  0  0  0  0  0 
    5.3199   -1.2430   -0.9810 H   0  0  0  0  0  0  0  0  0  0  0  0 
    5.4331   -1.0504    0.7667 H   0  0  0  0  0  0  0  0  0  0  0  0 
    3.0228   -2.1792    0.1564 H   0  0  0  0  0  0  0  0  0  0  0  0 
    5.1089    1.1200   -1.2357 H   0  0  0  0  0  0  0  0  0  0  0  0 
    5.2250    1.3146    0.5262 H   0  0  0  0  0  0  0  0  0  0  0  0 
  1  7  1  0  0  0  0 
  1  9  1  0  0  0  0 
  2  3  1  0  0  0  0 
  2 11  1  0  0  0  0 
  3 12  1  0  0  0  0 
  4  6  1  0  0  0  0 
  4  2  1  0  0  0  0 
  4 14  1  0  0  0  0 
  5  3  2  0  0  0  0 
  5  1  1  0  0  0  0 
  6  5  1  0  0  0  0 
  8  1  1  0  0  0  0 
 10  2  1  0  0  0  0 
 13  4  1  0  0  0  0 
M  END 
>  <HBA> 
1 
 
>  <HBD> 
0 
 
>  <TPSA> 
9.23 
 
>  <cid> 
15145 
 
>  <dipole> 
0.79 
 
>  <excitation_energy_1> 
5.008 
 
>  <excitation_energy_2> 
5.417 
 
>  <excitation_energy_3> 
5.755 
 
>  <excitation_energy_4> 
5.924 
 
>  <homo_energy> 
-5.382 
 
>  <homo_lumo_gap> 
6.67 
 
>  <logP> 
1.31 
 
>  <lumo_energy> 
1.287 
 
>  <melting_point> 
0.94 
 
>  <molecular_refractivity> 
24.65 
 
>  <oscillator_strength_1> 
0.0057 
 
>  <oscillator_strength_2> 
0.0001 
 
>  <oscillator_strength_3> 
0.0001 
 
>  <oscillator_strength_4> 
0.0199 
 
>  <open_babel_can_smiles> 
CC1=CCCO1 
 
>  <mulliken_charges> 
14 
1   -0.518703 
2   -0.326351 
3   -0.230941 
4   -0.032855 
5   0.402904 
6   -0.505072 
7   0.160566 
8   0.168429 
9   0.168478 
10   0.147236 
11   0.147239 
12   0.123239 
13   0.147905 
14   0.147925 
 
>  <lowdin_charges> 
14 
1   -0.441977 
2   -0.283008 
3   -0.267074 
4   -0.121895 
5   0.098035 
6   -0.233273 
7   0.164257 
8   0.166739 
9   0.167051 
10   0.148786 
11   0.148534 
12   0.16038 
13   0.146064 
14   0.14738 
 
$$$$ 
 
