PCCDB-ID:  34709 
public computational chemistry database (PCCDB) project, http://pccdb.org 
 
 26 26  0  0  1  0  0  0  0  0999 V2000 
    1.0477   -0.0404   -2.6147 C   0  0  0  0  0  0  0  0  0  0  0  0 
    5.4205   -1.2231   -2.1403 C   0  0  0  0  0  0  0  0  0  0  0  0 
    2.5702   -0.0475   -2.4400 C   0  0  0  0  0  0  0  0  0  0  0  0 
    3.0244   -0.9549   -1.2896 C   0  0  0  0  0  0  0  0  0  0  0  0 
    4.8544   -1.7639    0.3077 C   0  0  0  0  0  0  0  0  0  0  0  0 
    4.8530    0.5263    0.8855 C   0  0  0  0  0  0  0  0  0  0  0  0 
    5.5305   -0.7833    1.2868 C   0  0  2  0  0  0  0  0  0  0  0  0 
    4.5261   -0.8911   -0.9437 C   0  0  1  0  0  0  0  0  0  0  0  0 
    6.9400   -0.7071    1.0974 O   0  0  0  0  0  0  0  0  0  0  0  0 
    4.8648    0.4710   -0.5408 O   0  0  0  0  0  0  0  0  0  0  0  0 
    0.7453    0.6077   -3.4452 H   0  0  0  0  0  0  0  0  0  0  0  0 
    0.5456    0.3229   -1.7095 H   0  0  0  0  0  0  0  0  0  0  0  0 
    0.6648   -1.0475   -2.8223 H   0  0  0  0  0  0  0  0  0  0  0  0 
    5.1551   -2.1982   -2.5646 H   0  0  0  0  0  0  0  0  0  0  0  0 
    6.4714   -1.2633   -1.8338 H   0  0  0  0  0  0  0  0  0  0  0  0 
    5.3245   -0.4661   -2.9241 H   0  0  0  0  0  0  0  0  0  0  0  0 
    2.9291    0.9704   -2.2459 H   0  0  0  0  0  0  0  0  0  0  0  0 
    3.0373   -0.3698   -3.3796 H   0  0  0  0  0  0  0  0  0  0  0  0 
    2.7637   -2.0005   -1.5112 H   0  0  0  0  0  0  0  0  0  0  0  0 
    2.4585   -0.6883   -0.3849 H   0  0  0  0  0  0  0  0  0  0  0  0 
    3.9372   -2.1712    0.7493 H   0  0  0  0  0  0  0  0  0  0  0  0 
    5.5192   -2.6012    0.0793 H   0  0  0  0  0  0  0  0  0  0  0  0 
    5.4104    1.4142    1.1971 H   0  0  0  0  0  0  0  0  0  0  0  0 
    3.8264    0.5893    1.2818 H   0  0  0  0  0  0  0  0  0  0  0  0 
    5.3786   -1.0539    2.3354 H   0  0  0  0  0  0  0  0  0  0  0  0 
    7.0756   -0.2439    0.2537 H   0  0  0  0  0  0  0  0  0  0  0  0 
  1  3  1  0  0  0  0 
  1 12  1  0  0  0  0 
  2 15  1  0  0  0  0 
  3 17  1  0  0  0  0 
  3  4  1  0  0  0  0 
  4  8  1  0  0  0  0 
  4 20  1  0  0  0  0 
  5 21  1  0  0  0  0 
  5  7  1  0  0  0  0 
  6 23  1  0  0  0  0 
  6 24  1  0  0  0  0 
  6  7  1  0  0  0  0 
  7 25  1  1  0  0  0 
  8  2  1  6  0  0  0 
  8 10  1  0  0  0  0 
  8  5  1  0  0  0  0 
  9  7  1  0  0  0  0 
 10  6  1  0  0  0  0 
 11  1  1  0  0  0  0 
 13  1  1  0  0  0  0 
 14  2  1  0  0  0  0 
 16  2  1  0  0  0  0 
 18  3  1  0  0  0  0 
 19  4  1  0  0  0  0 
 22  5  1  0  0  0  0 
 26  9  1  0  0  0  0 
M  END 
>  <HBA> 
2 
 
>  <HBD> 
1 
 
>  <TPSA> 
29.46 
 
>  <cid> 
34709 
 
>  <dipole> 
1.5 
 
>  <excitation_energy_1> 
6.242 
 
>  <excitation_energy_2> 
6.547 
 
>  <excitation_energy_3> 
6.813 
 
>  <excitation_energy_4> 
6.892 
 
>  <homo_energy> 
-6.68 
 
>  <homo_lumo_gap> 
8.55 
 
>  <logP> 
1.326 
 
>  <lumo_energy> 
1.869 
 
>  <melting_point> 
15.38 
 
>  <molecular_refractivity> 
40.74 
 
>  <oscillator_strength_1> 
0.0094 
 
>  <oscillator_strength_2> 
0.0116 
 
>  <oscillator_strength_3> 
0.0046 
 
>  <oscillator_strength_4> 
0.0035 
 
>  <open_babel_can_smiles> 
C[C@@]1(CCC)C[C@H](CO1)O 
 
>  <mulliken_charges> 
26 
1   -0.443905 
2   -0.468063 
3   -0.258184 
4   -0.267951 
5   -0.339476 
6   -0.061348 
7   0.121585 
8   0.334744 
9   -0.631606 
10   -0.51456 
11   0.14343 
12   0.141085 
13   0.139506 
14   0.144485 
15   0.140177 
16   0.162259 
17   0.154395 
18   0.132914 
19   0.128231 
20   0.127314 
21   0.140667 
22   0.159591 
23   0.15525 
24   0.12526 
25   0.137522 
26   0.39668 
 
>  <lowdin_charges> 
26 
1   -0.444343 
2   -0.448134 
3   -0.27698 
4   -0.28391 
5   -0.312101 
6   -0.153001 
7   -0.012282 
8   0.123033 
9   -0.463305 
10   -0.29187 
11   0.150901 
12   0.146246 
13   0.144416 
14   0.153011 
15   0.148012 
16   0.160311 
17   0.150204 
18   0.140574 
19   0.140832 
20   0.141033 
21   0.151934 
22   0.161964 
23   0.154988 
24   0.13038 
25   0.146493 
26   0.341594 
 
$$$$ 
 
