PCCDB-ID:  18855 
public computational chemistry database (PCCDB) project, http://pccdb.org 
 
 31 30  0  0  0  0  0  0  0  0999 V2000 
    2.8426    1.4639    0.2423 C   0  0  0  0  0  0  0  0  0  0  0  0 
    4.9839   -4.5720   -1.2945 C   0  0  0  0  0  0  0  0  0  0  0  0 
    6.0769   -1.0655    3.0808 C   0  0  0  0  0  0  0  0  0  0  0  0 
    3.3357    0.0796    0.6752 C   0  0  0  0  0  0  0  0  0  0  0  0 
    5.5432   -3.7682   -0.1168 C   0  0  0  0  0  0  0  0  0  0  0  0 
    3.2687   -0.1326    2.1924 C   0  0  0  0  0  0  0  0  0  0  0  0 
    4.8655   -4.1032    1.2174 C   0  0  0  0  0  0  0  0  0  0  0  0 
    3.7389   -1.5197    2.6524 C   0  0  0  0  0  0  0  0  0  0  0  0 
    5.3964   -3.2806    2.3999 C   0  0  0  0  0  0  0  0  0  0  0  0 
    5.1248   -1.8407    2.2937 N   0  0  0  0  0  0  0  0  0  0  0  0 
    2.8948    1.5846   -0.8460 H   0  0  0  0  0  0  0  0  0  0  0  0 
    3.4476    2.2604    0.6935 H   0  0  0  0  0  0  0  0  0  0  0  0 
    1.8012    1.6303    0.5456 H   0  0  0  0  0  0  0  0  0  0  0  0 
    5.4930   -4.3163   -2.2310 H   0  0  0  0  0  0  0  0  0  0  0  0 
    3.9133   -4.3772   -1.4355 H   0  0  0  0  0  0  0  0  0  0  0  0 
    5.1035   -5.6511   -1.1350 H   0  0  0  0  0  0  0  0  0  0  0  0 
    5.9126    0.0055    2.9310 H   0  0  0  0  0  0  0  0  0  0  0  0 
    7.0967   -1.2929    2.7534 H   0  0  0  0  0  0  0  0  0  0  0  0 
    6.0105   -1.2689    4.1688 H   0  0  0  0  0  0  0  0  0  0  0  0 
    4.3677   -0.0741    0.3389 H   0  0  0  0  0  0  0  0  0  0  0  0 
    2.7351   -0.6957    0.1777 H   0  0  0  0  0  0  0  0  0  0  0  0 
    5.4333   -2.6943   -0.3075 H   0  0  0  0  0  0  0  0  0  0  0  0 
    6.6234   -3.9549   -0.0265 H   0  0  0  0  0  0  0  0  0  0  0  0 
    2.2318   -0.0064    2.5360 H   0  0  0  0  0  0  0  0  0  0  0  0 
    3.8440    0.6550    2.6982 H   0  0  0  0  0  0  0  0  0  0  0  0 
    5.0166   -5.1667    1.4532 H   0  0  0  0  0  0  0  0  0  0  0  0 
    3.7790   -3.9725    1.1182 H   0  0  0  0  0  0  0  0  0  0  0  0 
    3.0905   -2.2688    2.1846 H   0  0  0  0  0  0  0  0  0  0  0  0 
    3.5851   -1.6144    3.7477 H   0  0  0  0  0  0  0  0  0  0  0  0 
    6.4856   -3.4069    2.4403 H   0  0  0  0  0  0  0  0  0  0  0  0 
    5.0023   -3.6927    3.3505 H   0  0  0  0  0  0  0  0  0  0  0  0 
  1 13  1  0  0  0  0 
  1  4  1  0  0  0  0 
  1 12  1  0  0  0  0 
  2 16  1  0  0  0  0 
  2  5  1  0  0  0  0 
  3 19  1  0  0  0  0 
  4  6  1  0  0  0  0 
  5 23  1  0  0  0  0 
  5  7  1  0  0  0  0 
  6 24  1  0  0  0  0 
  6  8  1  0  0  0  0 
  6 25  1  0  0  0  0 
  7 26  1  0  0  0  0 
  7  9  1  0  0  0  0 
  8 29  1  0  0  0  0 
  9 30  1  0  0  0  0 
  9 31  1  0  0  0  0 
 10  9  1  0  0  0  0 
 10  8  1  0  0  0  0 
 10  3  1  0  0  0  0 
 11  1  1  0  0  0  0 
 14  2  1  0  0  0  0 
 15  2  1  0  0  0  0 
 17  3  1  0  0  0  0 
 18  3  1  0  0  0  0 
 20  4  1  0  0  0  0 
 21  4  1  0  0  0  0 
 22  5  1  0  0  0  0 
 27  7  1  0  0  0  0 
 28  8  1  0  0  0  0 
M  END 
>  <HBA> 
1 
 
>  <HBD> 
0 
 
>  <TPSA> 
3.24 
 
>  <cid> 
18855 
 
>  <dipole> 
0.56 
 
>  <excitation_energy_1> 
5.288 
 
>  <excitation_energy_2> 
5.543 
 
>  <excitation_energy_3> 
5.589 
 
>  <excitation_energy_4> 
5.612 
 
>  <homo_energy> 
-5.616 
 
>  <homo_lumo_gap> 
7.9 
 
>  <logP> 
2.518 
 
>  <lumo_energy> 
2.283 
 
>  <melting_point> 
-25.92 
 
>  <molecular_refractivity> 
48.27 
 
>  <oscillator_strength_1> 
0.0392 
 
>  <oscillator_strength_2> 
0.0143 
 
>  <oscillator_strength_3> 
0.0211 
 
>  <oscillator_strength_4> 
0.0466 
 
>  <open_babel_can_smiles> 
CCCCN(CCCC)C 
 
>  <mulliken_charges> 
31 
1   -0.44216 
2   -0.44223 
3   -0.302082 
4   -0.24191 
5   -0.244184 
6   -0.263839 
7   -0.254317 
8   -0.122775 
9   -0.119817 
10   -0.369657 
11   0.141038 
12   0.138866 
13   0.138292 
14   0.140523 
15   0.139494 
16   0.137848 
17   0.151231 
18   0.14839 
19   0.115218 
20   0.153115 
21   0.124976 
22   0.154377 
23   0.122831 
24   0.127762 
25   0.130914 
26   0.125808 
27   0.131553 
28   0.136758 
29   0.105919 
30   0.129397 
31   0.10866 
 
>  <lowdin_charges> 
31 
1   -0.442767 
2   -0.441054 
3   -0.353816 
4   -0.274277 
5   -0.271261 
6   -0.28173 
7   -0.277336 
8   -0.200531 
9   -0.196538 
10   -0.187168 
11   0.146899 
12   0.145858 
13   0.143127 
14   0.148576 
15   0.143398 
16   0.14218 
17   0.147918 
18   0.148521 
19   0.117001 
20   0.147725 
21   0.138472 
22   0.147764 
23   0.133891 
24   0.141371 
25   0.139366 
26   0.139364 
27   0.13676 
28   0.145013 
29   0.114101 
30   0.140101 
31   0.119071 
 
$$$$ 
 
