PCCDB-ID:  33336 
public computational chemistry database (PCCDB) project, http://pccdb.org 
 
 34 35  0  0  0  0  0  0  0  0999 V2000 
    0.7016   -0.7544   -1.0805 C   0  0  0  0  0  0  0  0  0  0  0  0 
    7.0333   -3.7226   -0.3058 C   0  0  0  0  0  0  0  0  0  0  0  0 
    4.2033   -3.3502   -0.1523 C   0  0  0  0  0  0  0  0  0  0  0  0 
    8.8697   -1.3583   -0.0870 C   0  0  0  0  0  0  0  0  0  0  0  0 
    2.1749   -1.0420   -1.1207 C   0  0  0  0  0  0  0  0  0  0  0  0 
    7.1240    2.5443   -0.2122 C   0  0  0  0  0  0  0  0  0  0  0  0 
    5.7274    2.7261   -0.2876 C   0  0  0  0  0  0  0  0  0  0  0  0 
    3.0681   -0.5872   -0.2325 C   0  0  0  0  0  0  0  0  0  0  0  0 
    7.6517    1.2722   -0.1668 C   0  0  0  0  0  0  0  0  0  0  0  0 
    4.8929    1.6301   -0.3078 C   0  0  0  0  0  0  0  0  0  0  0  0 
    6.5076   -2.3000   -0.2408 C   0  0  0  0  0  0  0  0  0  0  0  0 
    5.0797   -2.1164   -0.2324 C   0  0  0  0  0  0  0  0  0  0  0  0 
    7.3644   -1.2101   -0.1772 C   0  0  0  0  0  0  0  0  0  0  0  0 
    4.5320   -0.8383   -0.2497 C   0  0  0  0  0  0  0  0  0  0  0  0 
    6.8197    0.1180   -0.1869 C   0  0  0  0  0  0  0  0  0  0  0  0 
    5.4036    0.3048   -0.2445 C   0  0  0  0  0  0  0  0  0  0  0  0 
    0.1155   -1.6810   -1.0089 H   0  0  0  0  0  0  0  0  0  0  0  0 
    0.3710   -0.2468   -1.9969 H   0  0  0  0  0  0  0  0  0  0  0  0 
    0.4384   -0.1207   -0.2267 H   0  0  0  0  0  0  0  0  0  0  0  0 
    6.4115   -4.3443   -0.9561 H   0  0  0  0  0  0  0  0  0  0  0  0 
    7.0394   -4.2057    0.6817 H   0  0  0  0  0  0  0  0  0  0  0  0 
    8.0490   -3.7739   -0.6999 H   0  0  0  0  0  0  0  0  0  0  0  0 
    4.5869   -4.0594    0.5897 H   0  0  0  0  0  0  0  0  0  0  0  0 
    4.1585   -3.8898   -1.1085 H   0  0  0  0  0  0  0  0  0  0  0  0 
    3.1804   -3.0931    0.1227 H   0  0  0  0  0  0  0  0  0  0  0  0 
    9.1865   -2.3912    0.0539 H   0  0  0  0  0  0  0  0  0  0  0  0 
    9.2659   -0.7884    0.7616 H   0  0  0  0  0  0  0  0  0  0  0  0 
    9.3712   -0.9787   -0.9873 H   0  0  0  0  0  0  0  0  0  0  0  0 
    2.5219   -1.6616   -1.9484 H   0  0  0  0  0  0  0  0  0  0  0  0 
    7.7850    3.4071   -0.2005 H   0  0  0  0  0  0  0  0  0  0  0  0 
    5.3107    3.7286   -0.3385 H   0  0  0  0  0  0  0  0  0  0  0  0 
    2.7050    0.0610    0.5679 H   0  0  0  0  0  0  0  0  0  0  0  0 
    8.7285    1.1527   -0.1263 H   0  0  0  0  0  0  0  0  0  0  0  0 
    3.8216    1.7765   -0.3931 H   0  0  0  0  0  0  0  0  0  0  0  0 
  1 17  1  0  0  0  0 
  1 19  1  0  0  0  0 
  2 11  1  0  0  0  0 
  2 21  1  0  0  0  0 
  3 25  1  0  0  0  0 
  3 23  1  0  0  0  0 
  4 26  1  0  0  0  0 
  4 27  1  0  0  0  0 
  5  1  1  0  0  0  0 
  5  8  2  0  0  0  0 
  6 30  1  0  0  0  0 
  6  9  2  0  0  0  0 
  7  6  1  0  0  0  0 
  8 32  1  0  0  0  0 
  9 33  1  0  0  0  0 
 10  7  2  0  0  0  0 
 10 16  1  0  0  0  0 
 11 12  2  0  0  0  0 
 11 13  1  0  0  0  0 
 12  3  1  0  0  0  0 
 13  4  1  0  0  0  0 
 14 16  2  0  0  0  0 
 14  8  1  0  0  0  0 
 14 12  1  0  0  0  0 
 15 13  2  0  0  0  0 
 15  9  1  0  0  0  0 
 16 15  1  0  0  0  0 
 18  1  1  0  0  0  0 
 20  2  1  0  0  0  0 
 22  2  1  0  0  0  0 
 24  3  1  0  0  0  0 
 28  4  1  0  0  0  0 
 29  5  1  0  0  0  0 
 31  7  1  0  0  0  0 
 34 10  1  0  0  0  0 
M  END 
>  <HBA> 
0 
 
>  <HBD> 
0 
 
>  <TPSA> 
0.0 
 
>  <cid> 
33336 
 
>  <dipole> 
0.79 
 
>  <excitation_energy_1> 
3.981 
 
>  <excitation_energy_2> 
4.23 
 
>  <excitation_energy_3> 
4.863 
 
>  <excitation_energy_4> 
5.028 
 
>  <homo_energy> 
-5.342 
 
>  <homo_lumo_gap> 
4.474 
 
>  <logP> 
4.798 
 
>  <lumo_energy> 
-0.868 
 
>  <melting_point> 
86.03 
 
>  <molecular_refractivity> 
73.74 
 
>  <oscillator_strength_1> 
0.1633 
 
>  <oscillator_strength_2> 
0.0008 
 
>  <oscillator_strength_3> 
0.0165 
 
>  <oscillator_strength_4> 
0.0134 
 
>  <open_babel_can_smiles> 
C/C=C/c1c(C)c(C)c(c2c1cccc2)C 
 
>  <mulliken_charges> 
34 
1   -0.489458 
2   -0.54113 
3   -0.540489 
4   -0.54276 
5   -0.069053 
6   -0.131114 
7   -0.133429 
8   -0.214926 
9   -0.204629 
10   -0.198827 
11   0.05757 
12   0.076126 
13   0.07542 
14   0.030619 
15   0.080833 
16   0.084847 
17   0.155827 
18   0.157426 
19   0.153378 
20   0.158325 
21   0.160172 
22   0.158222 
23   0.153009 
24   0.154401 
25   0.166436 
26   0.155441 
27   0.162843 
28   0.161116 
29   0.129754 
30   0.123747 
31   0.124116 
32   0.132888 
33   0.124469 
34   0.12883 
 
>  <lowdin_charges> 
34 
1   -0.440678 
2   -0.448207 
3   -0.449827 
4   -0.449753 
5   -0.151281 
6   -0.16182 
7   -0.160967 
8   -0.173087 
9   -0.163339 
10   -0.160083 
11   -0.018406 
12   -0.00973 
13   -0.012468 
14   -0.02175 
15   -0.010179 
16   -0.004856 
17   0.157278 
18   0.158352 
19   0.155514 
20   0.161156 
21   0.157923 
22   0.157724 
23   0.156582 
24   0.15483 
25   0.165075 
26   0.157946 
27   0.161164 
28   0.159544 
29   0.152425 
30   0.156303 
31   0.155176 
32   0.153848 
33   0.156559 
34   0.159031 
 
$$$$ 
 
