PCCDB-ID:  11157 
public computational chemistry database (PCCDB) project, http://pccdb.org 
 
 19 19  0  0  0  0  0  0  0  0999 V2000 
   -2.0113    0.1437   -0.0548 C   0  0  0  0  0  0  0  0  0  0  0  0 
   -1.2189    1.2774   -0.2360 C   0  0  0  0  0  0  0  0  0  0  0  0 
   -1.4039   -1.1017    0.1255 C   0  0  0  0  0  0  0  0  0  0  0  0 
    0.1731    1.1645   -0.2376 C   0  0  0  0  0  0  0  0  0  0  0  0 
   -0.0138   -1.2109    0.1301 C   0  0  0  0  0  0  0  0  0  0  0  0 
    2.3002   -0.1939   -0.0312 C   0  0  0  0  0  0  0  0  0  0  0  0 
    0.7914   -0.0766   -0.0488 C   0  0  0  0  0  0  0  0  0  0  0  0 
    4.2203   -1.2073   -1.0096 N   0  0  0  0  0  0  0  0  0  0  0  0 
    2.7469   -1.2887   -0.9049 N   0  0  0  0  0  0  0  0  0  0  0  0 
   -3.0949    0.2282   -0.0566 H   0  0  0  0  0  0  0  0  0  0  0  0 
   -1.6820    2.2499   -0.3821 H   0  0  0  0  0  0  0  0  0  0  0  0 
   -2.0153   -1.9897    0.2655 H   0  0  0  0  0  0  0  0  0  0  0  0 
    0.7869    2.0502   -0.3861 H   0  0  0  0  0  0  0  0  0  0  0  0 
    0.4619   -2.1785    0.2603 H   0  0  0  0  0  0  0  0  0  0  0  0 
    2.6444   -0.4339    0.9870 H   0  0  0  0  0  0  0  0  0  0  0  0 
    2.7647    0.7690   -0.3007 H   0  0  0  0  0  0  0  0  0  0  0  0 
    4.4717   -2.0600   -1.5172 H   0  0  0  0  0  0  0  0  0  0  0  0 
    4.5413   -1.4081   -0.0577 H   0  0  0  0  0  0  0  0  0  0  0  0 
    2.4308   -1.0403   -1.8449 H   0  0  0  0  0  0  0  0  0  0  0  0 
  1  3  2  0  0  0  0 
  2  1  1  0  0  0  0 
  3  5  1  0  0  0  0 
  3 12  1  0  0  0  0 
  4  2  2  0  0  0  0 
  4  7  1  0  0  0  0 
  5 14  1  0  0  0  0 
  6 15  1  0  0  0  0 
  7  6  1  0  0  0  0 
  7  5  2  0  0  0  0 
  8  9  1  0  0  0  0 
  8 18  1  0  0  0  0 
  9  6  1  0  0  0  0 
 10  1  1  0  0  0  0 
 11  2  1  0  0  0  0 
 13  4  1  0  0  0  0 
 16  6  1  0  0  0  0 
 17  8  1  0  0  0  0 
 19  9  1  0  0  0  0 
M  END 
>  <HBA> 
2 
 
>  <HBD> 
2 
 
>  <TPSA> 
38.05 
 
>  <cid> 
11157 
 
>  <dipole> 
0.45 
 
>  <excitation_energy_1> 
4.491 
 
>  <excitation_energy_2> 
4.722 
 
>  <excitation_energy_3> 
4.96 
 
>  <excitation_energy_4> 
5.31 
 
>  <homo_energy> 
-5.388 
 
>  <homo_lumo_gap> 
5.388 
 
>  <logP> 
1.741 
 
>  <lumo_energy> 
0.0 
 
>  <melting_point> 
88.58 
 
>  <molecular_refractivity> 
36.92 
 
>  <oscillator_strength_1> 
0.0037 
 
>  <oscillator_strength_2> 
0.0074 
 
>  <oscillator_strength_3> 
0.0071 
 
>  <oscillator_strength_4> 
0.0006 
 
>  <open_babel_can_smiles> 
NNCc1ccccc1 
 
>  <mulliken_charges> 
19 
1   -0.128577 
2   -0.128826 
3   -0.131285 
4   -0.185397 
5   -0.161956 
6   -0.191892 
7   0.129319 
8   -0.592825 
9   -0.466261 
10   0.127663 
11   0.128169 
12   0.128477 
13   0.12541 
14   0.142145 
15   0.147128 
16   0.138636 
17   0.305919 
18   0.30352 
19   0.310634 
 
>  <lowdin_charges> 
19 
1   -0.156104 
2   -0.157173 
3   -0.157203 
4   -0.16784 
5   -0.158404 
6   -0.204915 
7   -0.013953 
8   -0.494877 
9   -0.318783 
10   0.154649 
11   0.156768 
12   0.157433 
13   0.155908 
14   0.164717 
15   0.143969 
16   0.133956 
17   0.255 
18   0.251864 
19   0.254989 
 
$$$$ 
 
