PCCDB-ID:  17352 
public computational chemistry database (PCCDB) project, http://pccdb.org 
 
 14 14  0  0  1  0  0  0  0  0999 V2000 
    1.0911   -0.2806   -0.2761 C   0  0  0  0  0  0  0  0  0  0  0  0 
    2.5608   -0.0226    0.0744 C   0  0  0  0  0  0  0  0  0  0  0  0 
    4.8327   -1.2887   -0.3187 C   0  0  0  0  0  0  0  0  0  0  0  0 
    3.3930   -1.2862    0.0461 C   0  0  2  0  0  0  0  0  0  0  0  0 
    3.8199   -1.7543   -1.2868 N   0  0  0  0  0  0  0  0  0  0  0  0 
    0.5085    0.6472   -0.2606 H   0  0  0  0  0  0  0  0  0  0  0  0 
    0.6274   -0.9762    0.4349 H   0  0  0  0  0  0  0  0  0  0  0  0 
    1.0097   -0.7182   -1.2770 H   0  0  0  0  0  0  0  0  0  0  0  0 
    2.6390    0.4350    1.0708 H   0  0  0  0  0  0  0  0  0  0  0  0 
    2.9910    0.6921   -0.6381 H   0  0  0  0  0  0  0  0  0  0  0  0 
    5.4882   -2.0186    0.1544 H   0  0  0  0  0  0  0  0  0  0  0  0 
    5.3231   -0.3554   -0.5890 H   0  0  0  0  0  0  0  0  0  0  0  0 
    3.0785   -2.0523    0.7587 H   0  0  0  0  0  0  0  0  0  0  0  0 
    3.8181   -2.7738   -1.3222 H   0  0  0  0  0  0  0  0  0  0  0  0 
  1  6  1  0  0  0  0 
  1  2  1  0  0  0  0 
  1  7  1  0  0  0  0 
  2  9  1  0  0  0  0 
  3  4  1  0  0  0  0 
  3 11  1  0  0  0  0 
  4  2  1  0  0  0  0 
  4 13  1  1  0  0  0 
  5  3  1  0  0  0  0 
  5  4  1  0  0  0  0 
  8  1  1  0  0  0  0 
 10  2  1  0  0  0  0 
 12  3  1  0  0  0  0 
 14  5  1  0  0  0  0 
M  END 
>  <HBA> 
1 
 
>  <HBD> 
1 
 
>  <TPSA> 
21.94 
 
>  <cid> 
17352 
 
>  <dipole> 
1.61 
 
>  <excitation_energy_1> 
5.971 
 
>  <excitation_energy_2> 
6.546 
 
>  <excitation_energy_3> 
6.699 
 
>  <excitation_energy_4> 
6.836 
 
>  <homo_energy> 
-6.558 
 
>  <homo_lumo_gap> 
8.749 
 
>  <logP> 
0.697 
 
>  <lumo_energy> 
2.191 
 
>  <melting_point> 
29.5 
 
>  <molecular_refractivity> 
25.94 
 
>  <oscillator_strength_1> 
0.0017 
 
>  <oscillator_strength_2> 
0.0393 
 
>  <oscillator_strength_3> 
0.009 
 
>  <oscillator_strength_4> 
0.0225 
 
>  <open_babel_can_smiles> 
CC[C@@H]1CN1 
 
>  <mulliken_charges> 
14 
1   -0.44671 
2   -0.243466 
3   -0.216129 
4   -0.007091 
5   -0.529419 
6   0.1417 
7   0.135506 
8   0.161421 
9   0.131187 
10   0.142416 
11   0.142839 
12   0.154946 
13   0.130034 
14   0.302765 
 
>  <lowdin_charges> 
14 
1   -0.445485 
2   -0.269473 
3   -0.253017 
4   -0.096397 
5   -0.381484 
6   0.149638 
7   0.144689 
8   0.155581 
9   0.142132 
10   0.15187 
11   0.149928 
12   0.156266 
13   0.141466 
14   0.254286 
 
$$$$ 
 
