PCCDB-ID:  8390 
public computational chemistry database (PCCDB) project, http://pccdb.org 
 
 19 19  0  0  0  0  0  0  0  0999 V2000 
    0.9283   -0.0944   -0.3473 C   0  0  0  0  0  0  0  0  0  0  0  0 
    3.1973   -1.1658   -0.3410 C   0  0  0  0  0  0  0  0  0  0  0  0 
    4.5855   -1.1771   -0.2970 C   0  0  0  0  0  0  0  0  0  0  0  0 
    4.5797    1.2174   -0.1537 C   0  0  0  0  0  0  0  0  0  0  0  0 
    2.4335    0.0112   -0.2893 C   0  0  0  0  0  0  0  0  0  0  0  0 
    5.3074    0.0248   -0.2013 C   0  0  0  0  0  0  0  0  0  0  0  0 
    3.1848    1.1992   -0.1938 C   0  0  0  0  0  0  0  0  0  0  0  0 
    6.6971    0.0271   -0.0982 N   0  0  0  0  0  0  0  0  0  0  0  0 
    2.5338    2.5231   -0.1368 N   0  0  0  0  0  0  0  0  0  0  0  0 
    3.2552    3.5224   -0.1490 O   0  0  0  0  0  0  0  0  0  0  0  0 
    1.3043    2.5712   -0.0776 O   0  0  0  0  0  0  0  0  0  0  0  0 
    0.6428   -1.1451   -0.4620 H   0  0  0  0  0  0  0  0  0  0  0  0 
    0.5081    0.4747   -1.1817 H   0  0  0  0  0  0  0  0  0  0  0  0 
    0.4562    0.2988    0.5576 H   0  0  0  0  0  0  0  0  0  0  0  0 
    2.6715   -2.1135   -0.4216 H   0  0  0  0  0  0  0  0  0  0  0  0 
    5.1185   -2.1243   -0.3355 H   0  0  0  0  0  0  0  0  0  0  0  0 
    5.0803    2.1752   -0.0820 H   0  0  0  0  0  0  0  0  0  0  0  0 
    7.1639   -0.7727   -0.5067 H   0  0  0  0  0  0  0  0  0  0  0  0 
    7.1483    0.8965   -0.3533 H   0  0  0  0  0  0  0  0  0  0  0  0 
  1  5  1  0  0  0  0 
  1 14  1  0  0  0  0 
  2  3  2  0  0  0  0 
  2  5  1  0  0  0  0 
  3  6  1  0  0  0  0 
  4 17  1  0  0  0  0 
  5  7  2  0  0  0  0 
  6  4  2  0  0  0  0 
  6  8  1  0  0  0  0 
  7  4  1  0  0  0  0 
  7  9  1  0  0  0  0 
  9 11  2  0  0  0  0 
 10  9  2  0  0  0  0 
 12  1  1  0  0  0  0 
 13  1  1  0  0  0  0 
 15  2  1  0  0  0  0 
 16  3  1  0  0  0  0 
 18  8  1  0  0  0  0 
 19  8  1  0  0  0  0 
M  END 
>  <HBA> 
1 
 
>  <HBD> 
1 
 
>  <TPSA> 
71.84 
 
>  <cid> 
8390 
 
>  <dipole> 
5.28 
 
>  <excitation_energy_1> 
3.097 
 
>  <excitation_energy_2> 
3.692 
 
>  <excitation_energy_3> 
4.278 
 
>  <excitation_energy_4> 
4.554 
 
>  <homo_energy> 
-5.968 
 
>  <homo_lumo_gap> 
3.804 
 
>  <logP> 
2.59 
 
>  <lumo_energy> 
-2.163 
 
>  <melting_point> 
97.11 
 
>  <molecular_refractivity> 
44.63 
 
>  <oscillator_strength_1> 
0.0374 
 
>  <oscillator_strength_2> 
0.0005 
 
>  <oscillator_strength_3> 
0.0008 
 
>  <oscillator_strength_4> 
0.1095 
 
>  <open_babel_can_smiles> 
Nc1ccc(c(c1)N(=O)=O)C 
 
>  <mulliken_charges> 
19 
1   -0.49879 
2   -0.20352 
3   -0.14503 
4   -0.213087 
5   0.154934 
6   0.318859 
7   0.210547 
8   -0.791742 
9   0.375118 
10   -0.400749 
11   -0.402837 
12   0.142373 
13   0.17682 
14   0.180679 
15   0.136536 
16   0.131579 
17   0.173288 
18   0.325687 
19   0.329336 
 
>  <lowdin_charges> 
19 
1   -0.43731 
2   -0.151823 
3   -0.175386 
4   -0.185628 
5   -0.001047 
6   0.062701 
7   0.002765 
8   -0.484627 
9   0.305498 
10   -0.256407 
11   -0.241127 
12   0.148839 
13   0.171324 
14   0.172675 
15   0.162659 
16   0.160677 
17   0.183758 
18   0.280671 
19   0.281787 
 
$$$$ 
 
