PCCDB-ID:  71028 
public computational chemistry database (PCCDB) project, http://pccdb.org 
 
 32 34  0  0  1  0  0  0  0  0999 V2000 
    1.0045    0.2070   -0.1572 C   0  0  0  0  0  0  0  0  0  0  0  0 
    5.6271   -1.5971    7.0364 C   0  0  0  0  0  0  0  0  0  0  0  0 
    4.5584    1.4850    5.4039 C   0  0  0  0  0  0  0  0  0  0  0  0 
    4.0072    1.9767    4.2304 C   0  0  0  0  0  0  0  0  0  0  0  0 
    3.5175   -2.3967    1.7205 C   0  0  0  0  0  0  0  0  0  0  0  0 
    2.5448   -2.5619    0.5428 C   0  0  0  0  0  0  0  0  0  0  0  0 
    4.5005   -0.8098    4.5676 C   0  0  0  0  0  0  0  0  0  0  0  0 
    2.5047   -0.1569   -0.0649 C   0  0  1  0  0  0  0  0  0  0  0  0 
    4.8030    0.1021    5.5745 C   0  0  0  0  0  0  0  0  0  0  0  0 
    3.5162   -0.9580    2.1470 C   0  0  0  0  0  0  0  0  0  0  0  0 
    3.9427   -0.3269    3.3669 C   0  0  0  0  0  0  0  0  0  0  0  0 
    3.7011    1.0641    3.2163 C   0  0  0  0  0  0  0  0  0  0  0  0 
    3.0522    0.0350    1.3200 C   0  0  0  0  0  0  0  0  0  0  0  0 
    2.8187   -1.5376   -0.4745 N   0  0  0  0  0  0  0  0  0  0  0  0 
    3.1491    1.2575    1.9599 N   0  0  0  0  0  0  0  0  0  0  0  0 
    5.3499   -0.2323    6.7897 O   0  0  0  0  0  0  0  0  0  0  0  0 
    0.8237    1.2450    0.1481 H   0  0  0  0  0  0  0  0  0  0  0  0 
    0.4016   -0.4395    0.4890 H   0  0  0  0  0  0  0  0  0  0  0  0 
    0.6490    0.0998   -1.1897 H   0  0  0  0  0  0  0  0  0  0  0  0 
    6.0476   -1.6435    8.0432 H   0  0  0  0  0  0  0  0  0  0  0  0 
    6.3574   -1.9996    6.3204 H   0  0  0  0  0  0  0  0  0  0  0  0 
    4.7162   -2.2109    6.9962 H   0  0  0  0  0  0  0  0  0  0  0  0 
    4.8154    2.1509    6.2213 H   0  0  0  0  0  0  0  0  0  0  0  0 
    3.8227    3.0414    4.1114 H   0  0  0  0  0  0  0  0  0  0  0  0 
    4.5234   -2.7139    1.4101 H   0  0  0  0  0  0  0  0  0  0  0  0 
    3.2141   -3.0589    2.5428 H   0  0  0  0  0  0  0  0  0  0  0  0 
    1.5098   -2.5275    0.9304 H   0  0  0  0  0  0  0  0  0  0  0  0 
    2.6816   -3.5405    0.0699 H   0  0  0  0  0  0  0  0  0  0  0  0 
    4.6874   -1.8707    4.6894 H   0  0  0  0  0  0  0  0  0  0  0  0 
    3.0481    0.5064   -0.7566 H   0  0  0  0  0  0  0  0  0  0  0  0 
    2.3081   -1.7526   -1.3277 H   0  0  0  0  0  0  0  0  0  0  0  0 
    2.9225    2.1519    1.5542 H   0  0  0  0  0  0  0  0  0  0  0  0 
  1  8  1  0  0  0  0 
  1 17  1  0  0  0  0 
  1 18  1  0  0  0  0 
  2 20  1  0  0  0  0 
  3  9  1  0  0  0  0 
  3 23  1  0  0  0  0 
  4  3  2  0  0  0  0 
  5 10  1  0  0  0  0 
  5 26  1  0  0  0  0 
  6 27  1  0  0  0  0 
  6  5  1  0  0  0  0 
  7 29  1  0  0  0  0 
  7  9  2  0  0  0  0 
  8 30  1  6  0  0  0 
  8 13  1  0  0  0  0 
  9 16  1  0  0  0  0 
 10 11  1  0  0  0  0 
 11  7  1  0  0  0  0 
 12 11  2  0  0  0  0 
 12  4  1  0  0  0  0 
 13 15  1  0  0  0  0 
 13 10  2  0  0  0  0 
 14  8  1  0  0  0  0 
 14  6  1  0  0  0  0 
 15 12  1  0  0  0  0 
 16  2  1  0  0  0  0 
 19  1  1  0  0  0  0 
 21  2  1  0  0  0  0 
 22  2  1  0  0  0  0 
 24  4  1  0  0  0  0 
 25  5  1  0  0  0  0 
 28  6  1  0  0  0  0 
 31 14  1  0  0  0  0 
 32 15  1  0  0  0  0 
M  END 
>  <HBA> 
2 
 
>  <HBD> 
2 
 
>  <TPSA> 
37.05 
 
>  <cid> 
71028 
 
>  <dipole> 
2.5 
 
>  <excitation_energy_1> 
4.399 
 
>  <excitation_energy_2> 
4.493 
 
>  <excitation_energy_3> 
4.597 
 
>  <excitation_energy_4> 
4.673 
 
>  <homo_energy> 
-5.083 
 
>  <homo_lumo_gap> 
5.127 
 
>  <logP> 
2.712 
 
>  <lumo_energy> 
0.044 
 
>  <melting_point> 
159.14 
 
>  <molecular_refractivity> 
68.94 
 
>  <oscillator_strength_1> 
0.0292 
 
>  <oscillator_strength_2> 
0.1043 
 
>  <oscillator_strength_3> 
0.0387 
 
>  <oscillator_strength_4> 
0.0565 
 
>  <open_babel_can_smiles> 
COc1ccc2c(c1)c1CCN[C@H](c1[nH]2)C 
 
>  <mulliken_charges> 
32 
1   -0.449841 
2   -0.20607 
3   -0.192418 
4   -0.174351 
5   -0.316566 
6   -0.14891 
7   -0.28789 
8   -0.026762 
9   0.369792 
10   0.037507 
11   0.058027 
12   0.327821 
13   0.310489 
14   -0.557966 
15   -0.78021 
16   -0.516894 
17   0.135572 
18   0.159236 
19   0.139373 
20   0.162601 
21   0.146324 
22   0.145235 
23   0.129832 
24   0.119946 
25   0.151441 
26   0.134098 
27   0.121112 
28   0.134636 
29   0.122741 
30   0.139385 
31   0.294584 
32   0.318125 
 
>  <lowdin_charges> 
32 
1   -0.459838 
2   -0.278138 
3   -0.190006 
4   -0.176298 
5   -0.271644 
6   -0.198616 
7   -0.224531 
8   -0.06276 
9   0.08973 
10   -0.076748 
11   -0.024798 
12   0.020425 
13   0.015356 
14   -0.36165 
15   -0.210873 
16   -0.209151 
17   0.146394 
18   0.15751 
19   0.145675 
20   0.157942 
21   0.14275 
22   0.141487 
23   0.164899 
24   0.153651 
25   0.151302 
26   0.147731 
27   0.118126 
28   0.145137 
29   0.158283 
30   0.146859 
31   0.254463 
32   0.287329 
 
$$$$ 
 
