PCCDB-ID:  8468 
public computational chemistry database (PCCDB) project, http://pccdb.org 
 
 20 20  0  0  0  0  0  0  0  0999 V2000 
    2.3744   -1.3871    0.3171 C   0  0  0  0  0  0  0  0  0  0  0  0 
    4.4639   -0.1197   -4.0657 C   0  0  0  0  0  0  0  0  0  0  0  0 
    4.1278   -1.4135   -3.6837 C   0  0  0  0  0  0  0  0  0  0  0  0 
    3.0917    0.7483   -2.2805 C   0  0  0  0  0  0  0  0  0  0  0  0 
    3.9313    0.9786   -3.3813 C   0  0  0  0  0  0  0  0  0  0  0  0 
    3.2669   -1.6392   -2.6046 C   0  0  0  0  0  0  0  0  0  0  0  0 
    2.7548   -0.5417   -1.8804 C   0  0  0  0  0  0  0  0  0  0  0  0 
    4.3230    2.3460   -3.8416 C   0  0  0  0  0  0  0  0  0  0  0  0 
    2.8876   -2.8892   -2.2133 O   0  0  0  0  0  0  0  0  0  0  0  0 
    5.2887    2.5653   -4.5356 O   0  0  0  0  0  0  0  0  0  0  0  0 
    3.5287    3.3794   -3.4435 O   0  0  0  0  0  0  0  0  0  0  0  0 
    1.8814   -0.6950   -0.8370 O   0  0  0  0  0  0  0  0  0  0  0  0 
    1.5764   -1.3286    1.0600 H   0  0  0  0  0  0  0  0  0  0  0  0 
    3.2734   -0.8945    0.7096 H   0  0  0  0  0  0  0  0  0  0  0  0 
    2.5948   -2.4345    0.0940 H   0  0  0  0  0  0  0  0  0  0  0  0 
    5.1343    0.0590   -4.8990 H   0  0  0  0  0  0  0  0  0  0  0  0 
    4.5277   -2.2652   -4.2315 H   0  0  0  0  0  0  0  0  0  0  0  0 
    2.6937    1.5591   -1.6758 H   0  0  0  0  0  0  0  0  0  0  0  0 
    3.3056   -3.5420   -2.7971 H   0  0  0  0  0  0  0  0  0  0  0  0 
    2.7142    3.0368   -3.0416 H   0  0  0  0  0  0  0  0  0  0  0  0 
  1 14  1  0  0  0  0 
  1 13  1  0  0  0  0 
  2  3  2  0  0  0  0 
  2  5  1  0  0  0  0 
  3  6  1  0  0  0  0 
  4  7  1  0  0  0  0 
  4 18  1  0  0  0  0 
  5  4  2  0  0  0  0 
  6  9  1  0  0  0  0 
  6  7  2  0  0  0  0 
  7 12  1  0  0  0  0 
  8 11  1  0  0  0  0 
  8  5  1  0  0  0  0 
 10  8  2  0  0  0  0 
 11 20  1  0  0  0  0 
 12  1  1  0  0  0  0 
 15  1  1  0  0  0  0 
 16  2  1  0  0  0  0 
 17  3  1  0  0  0  0 
 19  9  1  0  0  0  0 
M  END 
>  <HBA> 
4 
 
>  <HBD> 
2 
 
>  <TPSA> 
66.76 
 
>  <cid> 
8468 
 
>  <dipole> 
5.26 
 
>  <excitation_energy_1> 
4.652 
 
>  <excitation_energy_2> 
4.803 
 
>  <excitation_energy_3> 
5.077 
 
>  <excitation_energy_4> 
5.349 
 
>  <homo_energy> 
-6.397 
 
>  <homo_lumo_gap> 
5.265 
 
>  <logP> 
1.099 
 
>  <lumo_energy> 
-1.132 
 
>  <melting_point> 
141.73 
 
>  <molecular_refractivity> 
41.92 
 
>  <oscillator_strength_1> 
0.0863 
 
>  <oscillator_strength_2> 
0.0044 
 
>  <oscillator_strength_3> 
0.0905 
 
>  <oscillator_strength_4> 
0.0007 
 
>  <open_babel_can_smiles> 
COc1cc(ccc1O)C(=O)O 
 
>  <mulliken_charges> 
20 
1   -0.21959 
2   -0.157721 
3   -0.202878 
4   -0.255199 
5   0.053548 
6   0.322935 
7   0.337449 
8   0.547243 
9   -0.632039 
10   -0.452749 
11   -0.57728 
12   -0.520148 
13   0.16555 
14   0.145394 
15   0.17326 
16   0.170197 
17   0.133916 
18   0.13907 
19   0.416386 
20   0.412656 
 
>  <lowdin_charges> 
20 
1   -0.27566 
2   -0.126471 
3   -0.204546 
4   -0.178896 
5   -0.071115 
6   0.090617 
7   0.071221 
8   0.191261 
9   -0.364406 
10   -0.245865 
11   -0.358301 
12   -0.219331 
13   0.160823 
14   0.143023 
15   0.153542 
16   0.182166 
17   0.161115 
18   0.167101 
19   0.365634 
20   0.358086 
 
$$$$ 
 
