PCCDB-ID:  6656 
public computational chemistry database (PCCDB) project, http://pccdb.org 
 
 15 14  0  0  0  0  0  0  0  0999 V2000 
    0.9045    0.2567    0.1211 C   0  0  0  0  0  0  0  0  0  0  0  0 
    2.5653   -1.5248   -1.8950 C   0  0  0  0  0  0  0  0  0  0  0  0 
    2.3964    0.1676   -0.0027 C   0  0  0  0  0  0  0  0  0  0  0  0 
    3.1169   -0.6017   -0.8399 C   0  0  0  0  0  0  0  0  0  0  0  0 
    4.6183   -0.5005   -0.8529 C   0  0  0  0  0  0  0  0  0  0  0  0 
    5.2809   -0.7105   -1.8421 O   0  0  0  0  0  0  0  0  0  0  0  0 
    5.2336   -0.1520    0.3125 O   0  0  0  0  0  0  0  0  0  0  0  0 
    0.5903    0.0159    1.1456 H   0  0  0  0  0  0  0  0  0  0  0  0 
    0.3753   -0.4131   -0.5598 H   0  0  0  0  0  0  0  0  0  0  0  0 
    0.5640    1.2820   -0.0753 H   0  0  0  0  0  0  0  0  0  0  0  0 
    1.4746   -1.5142   -1.9331 H   0  0  0  0  0  0  0  0  0  0  0  0 
    2.8941   -2.5566   -1.7205 H   0  0  0  0  0  0  0  0  0  0  0  0 
    2.9583   -1.2358   -2.8749 H   0  0  0  0  0  0  0  0  0  0  0  0 
    2.9347    0.8500    0.6573 H   0  0  0  0  0  0  0  0  0  0  0  0 
    4.5891   -0.1904    1.0377 H   0  0  0  0  0  0  0  0  0  0  0  0 
  1  8  1  0  0  0  0 
  2 12  1  0  0  0  0 
  2  4  1  0  0  0  0 
  3  1  1  0  0  0  0 
  3 14  1  0  0  0  0 
  4  3  2  0  0  0  0 
  5  4  1  0  0  0  0 
  5  7  1  0  0  0  0 
  6  5  2  0  0  0  0 
  7 15  1  0  0  0  0 
  9  1  1  0  0  0  0 
 10  1  1  0  0  0  0 
 11  2  1  0  0  0  0 
 13  2  1  0  0  0  0 
M  END 
>  <HBA> 
2 
 
>  <HBD> 
1 
 
>  <TPSA> 
37.3 
 
>  <cid> 
6656 
 
>  <dipole> 
4.76 
 
>  <excitation_energy_1> 
4.845 
 
>  <excitation_energy_2> 
5.918 
 
>  <excitation_energy_3> 
6.309 
 
>  <excitation_energy_4> 
6.604 
 
>  <homo_energy> 
-7.2 
 
>  <homo_lumo_gap> 
6.212 
 
>  <logP> 
1.037 
 
>  <lumo_energy> 
-0.988 
 
>  <melting_point> 
64.47 
 
>  <molecular_refractivity> 
27.45 
 
>  <oscillator_strength_1> 
0.003 
 
>  <oscillator_strength_2> 
0.2843 
 
>  <oscillator_strength_3> 
0.0147 
 
>  <oscillator_strength_4> 
0.0084 
 
>  <open_babel_can_smiles> 
C/C(=C\C)/C(=O)O 
 
>  <mulliken_charges> 
15 
1   -0.49277 
2   -0.511486 
3   -0.16425 
4   0.082317 
5   0.550297 
6   -0.446519 
7   -0.570727 
8   0.16628 
9   0.167548 
10   0.171679 
11   0.150933 
12   0.168628 
13   0.193053 
14   0.130752 
15   0.404265 
 
>  <lowdin_charges> 
15 
1   -0.441292 
2   -0.436119 
3   -0.159668 
4   -0.053841 
5   0.193027 
6   -0.242402 
7   -0.361522 
8   0.164313 
9   0.163323 
10   0.166744 
11   0.153779 
12   0.165372 
13   0.179727 
14   0.152992 
15   0.355565 
 
$$$$ 
 
