PCCDB-ID:  7780 
public computational chemistry database (PCCDB) project, http://pccdb.org 
 
 34 33  0  0  0  0  0  0  0  0999 V2000 
    6.1411    1.2396    3.1066 C   0  0  0  0  0  0  0  0  0  0  0  0 
    3.7190    1.5772    2.4320 C   0  0  0  0  0  0  0  0  0  0  0  0 
    6.6839    0.5692   -2.9742 C   0  0  0  0  0  0  0  0  0  0  0  0 
   10.7287    1.6486    0.7400 C   0  0  0  0  0  0  0  0  0  0  0  0 
    4.6081    0.7876   -0.4818 C   0  0  0  0  0  0  0  0  0  0  0  0 
    5.4735    0.8720    0.7467 C   0  0  0  0  0  0  0  0  0  0  0  0 
    4.9612    1.8479   -1.5630 C   0  0  0  0  0  0  0  0  0  0  0  0 
    7.2790    2.6978   -1.7593 C   0  0  0  0  0  0  0  0  0  0  0  0 
    8.7154    2.7618   -2.1793 C   0  0  0  0  0  0  0  0  0  0  0  0 
    5.1166    1.2084    1.9963 C   0  0  0  0  0  0  0  0  0  0  0  0 
    6.3807    1.7544   -2.0856 C   0  0  0  0  0  0  0  0  0  0  0  0 
    9.8799    1.5203   -0.5049 C   0  0  0  0  0  0  0  0  0  0  0  0 
    9.4884    0.4720   -0.9736 O   0  0  0  0  0  0  0  0  0  0  0  0 
    9.6050    2.7372   -1.0229 O   0  0  0  0  0  0  0  0  0  0  0  0 
    6.2098    2.2410    3.5556 H   0  0  0  0  0  0  0  0  0  0  0  0 
    7.1369    0.9574    2.7502 H   0  0  0  0  0  0  0  0  0  0  0  0 
    5.8653    0.5546    3.9212 H   0  0  0  0  0  0  0  0  0  0  0  0 
    3.7041    2.5838    2.8733 H   0  0  0  0  0  0  0  0  0  0  0  0 
    3.3634    0.8928    3.2152 H   0  0  0  0  0  0  0  0  0  0  0  0 
    2.9908    1.5597    1.6180 H   0  0  0  0  0  0  0  0  0  0  0  0 
    6.4101    0.7821   -4.0171 H   0  0  0  0  0  0  0  0  0  0  0  0 
    6.0979   -0.3052   -2.6704 H   0  0  0  0  0  0  0  0  0  0  0  0 
    7.7372    0.2836   -2.9394 H   0  0  0  0  0  0  0  0  0  0  0  0 
   11.5527    2.3493    0.5778 H   0  0  0  0  0  0  0  0  0  0  0  0 
   11.1132    0.6672    1.0204 H   0  0  0  0  0  0  0  0  0  0  0  0 
   10.1169    2.0446    1.5586 H   0  0  0  0  0  0  0  0  0  0  0  0 
    3.5476    0.9014   -0.2341 H   0  0  0  0  0  0  0  0  0  0  0  0 
    4.7099   -0.2151   -0.9215 H   0  0  0  0  0  0  0  0  0  0  0  0 
    6.5230    0.6322    0.5737 H   0  0  0  0  0  0  0  0  0  0  0  0 
    4.7865    2.8450   -1.1426 H   0  0  0  0  0  0  0  0  0  0  0  0 
    4.2578    1.7238   -2.4000 H   0  0  0  0  0  0  0  0  0  0  0  0 
    6.9616    3.5178   -1.1153 H   0  0  0  0  0  0  0  0  0  0  0  0 
    8.9468    3.7224   -2.6495 H   0  0  0  0  0  0  0  0  0  0  0  0 
    8.9971    1.9564   -2.8580 H   0  0  0  0  0  0  0  0  0  0  0  0 
  1 15  1  0  0  0  0 
  1 17  1  0  0  0  0 
  2 18  1  0  0  0  0 
  2 19  1  0  0  0  0 
  3 23  1  0  0  0  0 
  3 22  1  0  0  0  0 
  3 11  1  0  0  0  0 
  4 25  1  0  0  0  0 
  4 26  1  0  0  0  0 
  5 27  1  0  0  0  0 
  5  6  1  0  0  0  0 
  6 10  2  0  0  0  0 
  7 30  1  0  0  0  0 
  7  5  1  0  0  0  0 
  8 32  1  0  0  0  0 
  9  8  1  0  0  0  0 
  9 14  1  0  0  0  0 
 10  2  1  0  0  0  0 
 10  1  1  0  0  0  0 
 11  8  2  0  0  0  0 
 11  7  1  0  0  0  0 
 12  4  1  0  0  0  0 
 13 12  2  0  0  0  0 
 14 12  1  0  0  0  0 
 16  1  1  0  0  0  0 
 20  2  1  0  0  0  0 
 21  3  1  0  0  0  0 
 24  4  1  0  0  0  0 
 28  5  1  0  0  0  0 
 29  6  1  0  0  0  0 
 31  7  1  0  0  0  0 
 33  9  1  0  0  0  0 
 34  9  1  0  0  0  0 
M  END 
>  <HBA> 
2 
 
>  <HBD> 
0 
 
>  <TPSA> 
26.3 
 
>  <cid> 
7780 
 
>  <dipole> 
1.4 
 
>  <excitation_energy_1> 
5.449 
 
>  <excitation_energy_2> 
5.599 
 
>  <excitation_energy_3> 
5.699 
 
>  <excitation_energy_4> 
5.882 
 
>  <homo_energy> 
-6.109 
 
>  <homo_lumo_gap> 
6.455 
 
>  <logP> 
3.242 
 
>  <lumo_energy> 
0.346 
 
>  <melting_point> 
8.31 
 
>  <molecular_refractivity> 
60.13 
 
>  <oscillator_strength_1> 
0.0272 
 
>  <oscillator_strength_2> 
0.0066 
 
>  <oscillator_strength_3> 
0.0062 
 
>  <oscillator_strength_4> 
0.0019 
 
>  <open_babel_can_smiles> 
C/C(=C\COC(=O)C)/CCC=C(C)C 
 
>  <mulliken_charges> 
34 
1   -0.505695 
2   -0.512061 
3   -0.538751 
4   -0.525504 
5   -0.315965 
6   -0.161954 
7   -0.324656 
8   -0.190388 
9   -0.090494 
10   0.185073 
11   0.212405 
12   0.606784 
13   -0.470202 
14   -0.450718 
15   0.145916 
16   0.150852 
17   0.148111 
18   0.14996 
19   0.151442 
20   0.152597 
21   0.15368 
22   0.155034 
23   0.190863 
24   0.178425 
25   0.180488 
26   0.183759 
27   0.13874 
28   0.145136 
29   0.132584 
30   0.142572 
31   0.135934 
32   0.125187 
33   0.154421 
34   0.166423 
 
>  <lowdin_charges> 
34 
1   -0.438545 
2   -0.445769 
3   -0.452113 
4   -0.467587 
5   -0.27144 
6   -0.191117 
7   -0.270952 
8   -0.214765 
9   -0.129568 
10   -0.011487 
11   0.015695 
12   0.202326 
13   -0.271405 
14   -0.199467 
15   0.149999 
16   0.153244 
17   0.152403 
18   0.153303 
19   0.155579 
20   0.154804 
21   0.156578 
22   0.157417 
23   0.171352 
24   0.175656 
25   0.174336 
26   0.179613 
27   0.146141 
28   0.147388 
29   0.153263 
30   0.148091 
31   0.146938 
32   0.152662 
33   0.156601 
34   0.160826 
 
$$$$ 
 
