PCCDB-ID:  21108 
public computational chemistry database (PCCDB) project, http://pccdb.org 
 
 26 25  0  0  0  0  0  0  0  0999 V2000 
    2.2346   -1.9955    0.3321 C   0  0  0  0  0  0  0  0  0  0  0  0 
    8.7141   -1.2385   -0.9319 C   0  0  0  0  0  0  0  0  0  0  0  0 
    2.8215   -0.9489    0.9151 C   0  0  0  0  0  0  0  0  0  0  0  0 
    3.8299   -1.0365    2.0301 C   0  0  0  0  0  0  0  0  0  0  0  0 
    5.2440   -0.5417    1.6522 C   0  0  0  0  0  0  0  0  0  0  0  0 
    5.3140    0.9529    1.3068 C   0  0  0  0  0  0  0  0  0  0  0  0 
    6.7324    1.5085    1.0883 C   0  0  0  0  0  0  0  0  0  0  0  0 
    7.4935    0.8827   -0.0899 C   0  0  0  0  0  0  0  0  0  0  0  0 
    8.2762   -0.3860    0.2476 C   0  0  0  0  0  0  0  0  0  0  0  0 
    8.5643   -0.6863    1.3910 O   0  0  0  0  0  0  0  0  0  0  0  0 
    1.5164   -1.8765   -0.4751 H   0  0  0  0  0  0  0  0  0  0  0  0 
    2.4466   -3.0163    0.6456 H   0  0  0  0  0  0  0  0  0  0  0  0 
    7.8364   -1.7033   -1.3998 H   0  0  0  0  0  0  0  0  0  0  0  0 
    9.3975   -2.0203   -0.5945 H   0  0  0  0  0  0  0  0  0  0  0  0 
    9.1975   -0.6259   -1.7028 H   0  0  0  0  0  0  0  0  0  0  0  0 
    2.5686    0.0533    0.5667 H   0  0  0  0  0  0  0  0  0  0  0  0 
    3.8976   -2.0773    2.3713 H   0  0  0  0  0  0  0  0  0  0  0  0 
    3.4736   -0.4477    2.8898 H   0  0  0  0  0  0  0  0  0  0  0  0 
    5.6069   -1.1422    0.8073 H   0  0  0  0  0  0  0  0  0  0  0  0 
    5.9239   -0.7479    2.4879 H   0  0  0  0  0  0  0  0  0  0  0  0 
    4.8454    1.5254    2.1205 H   0  0  0  0  0  0  0  0  0  0  0  0 
    4.7123    1.1552    0.4089 H   0  0  0  0  0  0  0  0  0  0  0  0 
    7.3310    1.3679    1.9957 H   0  0  0  0  0  0  0  0  0  0  0  0 
    6.6541    2.5899    0.9218 H   0  0  0  0  0  0  0  0  0  0  0  0 
    8.2434    1.5922   -0.4744 H   0  0  0  0  0  0  0  0  0  0  0  0 
    6.8265    0.6837   -0.9407 H   0  0  0  0  0  0  0  0  0  0  0  0 
  1 12  1  0  0  0  0 
  1  3  2  0  0  0  0 
  2 14  1  0  0  0  0 
  2  9  1  0  0  0  0 
  3  4  1  0  0  0  0 
  4 17  1  0  0  0  0 
  4 18  1  0  0  0  0 
  5  4  1  0  0  0  0 
  5 20  1  0  0  0  0 
  6  5  1  0  0  0  0 
  6 21  1  0  0  0  0 
  7  6  1  0  0  0  0 
  7 23  1  0  0  0  0 
  8  9  1  0  0  0  0 
  8  7  1  0  0  0  0 
  9 10  2  0  0  0  0 
 11  1  1  0  0  0  0 
 13  2  1  0  0  0  0 
 15  2  1  0  0  0  0 
 16  3  1  0  0  0  0 
 19  5  1  0  0  0  0 
 22  6  1  0  0  0  0 
 24  7  1  0  0  0  0 
 25  8  1  0  0  0  0 
 26  8  1  0  0  0  0 
M  END 
>  <HBA> 
1 
 
>  <HBD> 
0 
 
>  <TPSA> 
17.07 
 
>  <cid> 
21108 
 
>  <dipole> 
2.39 
 
>  <excitation_energy_1> 
4.433 
 
>  <excitation_energy_2> 
5.84 
 
>  <excitation_energy_3> 
6.086 
 
>  <excitation_energy_4> 
6.399 
 
>  <homo_energy> 
-6.634 
 
>  <homo_lumo_gap> 
6.343 
 
>  <logP> 
2.712 
 
>  <lumo_energy> 
-0.291 
 
>  <melting_point> 
-27.76 
 
>  <molecular_refractivity> 
45.1 
 
>  <oscillator_strength_1> 
0.0 
 
>  <oscillator_strength_2> 
0.0005 
 
>  <oscillator_strength_3> 
0.0176 
 
>  <oscillator_strength_4> 
0.0459 
 
>  <open_babel_can_smiles> 
C=CCCCCCC(=O)C 
 
>  <mulliken_charges> 
26 
1   -0.342921 
2   -0.530799 
3   -0.041793 
4   -0.308891 
5   -0.251292 
6   -0.261045 
7   -0.260399 
8   -0.356965 
9   0.463152 
10   -0.442166 
11   0.135471 
12   0.133763 
13   0.17328 
14   0.179107 
15   0.163999 
16   0.12474 
17   0.137768 
18   0.138981 
19   0.127716 
20   0.153344 
21   0.130128 
22   0.128711 
23   0.163784 
24   0.128838 
25   0.163687 
26   0.149803 
 
>  <lowdin_charges> 
26 
1   -0.344506 
2   -0.477639 
3   -0.145828 
4   -0.273153 
5   -0.277052 
6   -0.278018 
7   -0.275388 
8   -0.315332 
9   0.164731 
10   -0.23884 
11   0.156266 
12   0.151736 
13   0.172808 
14   0.173164 
15   0.167693 
16   0.14752 
17   0.147369 
18   0.147404 
19   0.139511 
20   0.15358 
21   0.142484 
22   0.136583 
23   0.158243 
24   0.142752 
25   0.168834 
26   0.155075 
 
$$$$ 
 
