PCCDB-ID:  20954 
public computational chemistry database (PCCDB) project, http://pccdb.org 
 
 32 31  0  0  1  0  0  0  0  0999 V2000 
    3.4679    0.5137   -3.0787 C   0  0  0  0  0  0  0  0  0  0  0  0 
    1.7241    1.5216    0.2763 C   0  0  0  0  0  0  0  0  0  0  0  0 
    6.4852    4.2882   -0.5453 C   0  0  0  0  0  0  0  0  0  0  0  0 
    2.8074    0.3873   -1.7007 C   0  0  0  0  0  0  0  0  0  0  0  0 
    4.0768    2.2118   -0.4412 C   0  0  0  0  0  0  0  0  0  0  0  0 
    4.0861    3.6460    0.1102 C   0  0  0  0  0  0  0  0  0  0  0  0 
    5.3629    5.4406    1.4313 C   0  0  0  0  0  0  0  0  0  0  0  0 
    2.6933    1.7050   -0.9033 C   0  0  2  0  0  0  0  0  0  0  0  0 
    5.4690    4.1324    0.5968 C   0  0  2  0  0  0  0  0  0  0  0  0 
    4.8937    6.6440    0.6229 C   0  0  0  0  0  0  0  0  0  0  0  0 
    5.6334    7.4324    0.0891 O   0  0  0  0  0  0  0  0  0  0  0  0 
    3.5424    6.7879    0.4865 O   0  0  0  0  0  0  0  0  0  0  0  0 
    3.4629   -0.4493   -3.6018 H   0  0  0  0  0  0  0  0  0  0  0  0 
    4.5112    0.8417   -3.0132 H   0  0  0  0  0  0  0  0  0  0  0  0 
    2.9322    1.2353   -3.7078 H   0  0  0  0  0  0  0  0  0  0  0  0 
    0.7403    1.1879   -0.0738 H   0  0  0  0  0  0  0  0  0  0  0  0 
    1.5724    2.4484    0.8401 H   0  0  0  0  0  0  0  0  0  0  0  0 
    2.1010    0.7643    0.9765 H   0  0  0  0  0  0  0  0  0  0  0  0 
    6.6568    3.3363   -1.0574 H   0  0  0  0  0  0  0  0  0  0  0  0 
    7.4503    4.6396   -0.1640 H   0  0  0  0  0  0  0  0  0  0  0  0 
    6.1427    5.0181   -1.2872 H   0  0  0  0  0  0  0  0  0  0  0  0 
    3.3540   -0.3508   -1.0948 H   0  0  0  0  0  0  0  0  0  0  0  0 
    1.7975   -0.0235   -1.8348 H   0  0  0  0  0  0  0  0  0  0  0  0 
    4.4677    1.5251    0.3256 H   0  0  0  0  0  0  0  0  0  0  0  0 
    4.7744    2.1570   -1.2845 H   0  0  0  0  0  0  0  0  0  0  0  0 
    3.3819    3.7065    0.9541 H   0  0  0  0  0  0  0  0  0  0  0  0 
    3.7086    4.3299   -0.6633 H   0  0  0  0  0  0  0  0  0  0  0  0 
    6.3496    5.6972    1.8269 H   0  0  0  0  0  0  0  0  0  0  0  0 
    4.6947    5.2733    2.2874 H   0  0  0  0  0  0  0  0  0  0  0  0 
    2.2657    2.4636   -1.5788 H   0  0  0  0  0  0  0  0  0  0  0  0 
    5.8555    3.3754    1.2951 H   0  0  0  0  0  0  0  0  0  0  0  0 
    3.0860    6.0741    0.9603 H   0  0  0  0  0  0  0  0  0  0  0  0 
  1 14  1  0  0  0  0 
  1  4  1  0  0  0  0 
  2 17  1  0  0  0  0 
  2 18  1  0  0  0  0 
  3 20  1  0  0  0  0 
  3  9  1  0  0  0  0 
  4 22  1  0  0  0  0 
  4  8  1  0  0  0  0 
  5  6  1  0  0  0  0 
  5 24  1  0  0  0  0 
  6  9  1  0  0  0  0 
  6 26  1  0  0  0  0 
  7 28  1  0  0  0  0 
  7 29  1  0  0  0  0 
  8 30  1  6  0  0  0 
  8  5  1  0  0  0  0 
  8  2  1  0  0  0  0 
  9 31  1  1  0  0  0 
  9  7  1  0  0  0  0 
 10  7  1  0  0  0  0 
 11 10  2  0  0  0  0 
 12 10  1  0  0  0  0 
 12 32  1  0  0  0  0 
 13  1  1  0  0  0  0 
 15  1  1  0  0  0  0 
 16  2  1  0  0  0  0 
 19  3  1  0  0  0  0 
 21  3  1  0  0  0  0 
 23  4  1  0  0  0  0 
 25  5  1  0  0  0  0 
 27  6  1  0  0  0  0 
M  END 
>  <HBA> 
2 
 
>  <HBD> 
1 
 
>  <TPSA> 
37.3 
 
>  <cid> 
20954 
 
>  <dipole> 
4.4 
 
>  <excitation_energy_1> 
5.516 
 
>  <excitation_energy_2> 
6.469 
 
>  <excitation_energy_3> 
7.091 
 
>  <excitation_energy_4> 
7.267 
 
>  <homo_energy> 
-7.192 
 
>  <homo_lumo_gap> 
7.404 
 
>  <logP> 
2.924 
 
>  <lumo_energy> 
0.212 
 
>  <melting_point> 
47.94 
 
>  <molecular_refractivity> 
51.96 
 
>  <oscillator_strength_1> 
0.0019 
 
>  <oscillator_strength_2> 
0.0101 
 
>  <oscillator_strength_3> 
0.0014 
 
>  <oscillator_strength_4> 
0.004 
 
>  <open_babel_can_smiles> 
C[C@@H](CC(=O)O)CC[C@@H](CC)C 
 
>  <mulliken_charges> 
32 
1   -0.450601 
2   -0.451739 
3   -0.454788 
4   -0.248802 
5   -0.265117 
6   -0.287317 
7   -0.378384 
8   -0.064583 
9   -0.074579 
10   0.589544 
11   -0.44114 
12   -0.564113 
13   0.14509 
14   0.146389 
15   0.144283 
16   0.144588 
17   0.1371 
18   0.140198 
19   0.148589 
20   0.152402 
21   0.166079 
22   0.127885 
23   0.130719 
24   0.125853 
25   0.143472 
26   0.114988 
27   0.146183 
28   0.176324 
29   0.139509 
30   0.119279 
31   0.13403 
32   0.408659 
 
>  <lowdin_charges> 
32 
1   -0.447248 
2   -0.447339 
3   -0.450115 
4   -0.274152 
5   -0.279738 
6   -0.290063 
7   -0.318656 
8   -0.12481 
9   -0.116872 
10   0.19845 
11   -0.241987 
12   -0.365796 
13   0.151721 
14   0.145381 
15   0.148897 
16   0.1499 
17   0.144364 
18   0.147076 
19   0.151483 
20   0.155837 
21   0.160233 
22   0.140026 
23   0.141312 
24   0.138873 
25   0.147025 
26   0.131295 
27   0.146431 
28   0.172633 
29   0.149439 
30   0.135711 
31   0.144412 
32   0.356278 
 
$$$$ 
 
