PCCDB-ID:  26464 
public computational chemistry database (PCCDB) project, http://pccdb.org 
 
 25 24  0  0  0  0  0  0  0  0999 V2000 
    4.7755   -2.4844   -2.9994 C   0  0  0  0  0  0  0  0  0  0  0  0 
    2.5843    2.1455   -3.4175 C   0  0  0  0  0  0  0  0  0  0  0  0 
    2.5487    0.7620   -2.7546 C   0  0  0  0  0  0  0  0  0  0  0  0 
    1.3995    3.0561   -3.0538 C   0  0  0  0  0  0  0  0  0  0  0  0 
    3.7076   -0.1331   -3.1962 C   0  0  0  0  0  0  0  0  0  0  0  0 
    1.3351    3.4780   -1.5803 C   0  0  0  0  0  0  0  0  0  0  0  0 
    3.7431   -1.4881   -2.4968 C   0  0  0  0  0  0  0  0  0  0  0  0 
    2.4449    4.4429   -1.1738 C   0  0  0  0  0  0  0  0  0  0  0  0 
    2.9876   -1.7598   -1.5821 O   0  0  0  0  0  0  0  0  0  0  0  0 
    3.2112    4.9781   -1.9352 O   0  0  0  0  0  0  0  0  0  0  0  0 
    2.5216    4.7100    0.1606 O   0  0  0  0  0  0  0  0  0  0  0  0 
    5.7717   -2.0286   -3.0510 H   0  0  0  0  0  0  0  0  0  0  0  0 
    4.5197   -2.8066   -4.0172 H   0  0  0  0  0  0  0  0  0  0  0  0 
    4.7995   -3.3568   -2.3433 H   0  0  0  0  0  0  0  0  0  0  0  0 
    2.5906    2.0191   -4.5093 H   0  0  0  0  0  0  0  0  0  0  0  0 
    3.5198    2.6605   -3.1664 H   0  0  0  0  0  0  0  0  0  0  0  0 
    1.5995    0.2596   -2.9844 H   0  0  0  0  0  0  0  0  0  0  0  0 
    2.5810    0.8491   -1.6623 H   0  0  0  0  0  0  0  0  0  0  0  0 
    0.4587    2.5497   -3.3069 H   0  0  0  0  0  0  0  0  0  0  0  0 
    1.4480    3.9638   -3.6650 H   0  0  0  0  0  0  0  0  0  0  0  0 
    4.6730    0.3620   -3.0050 H   0  0  0  0  0  0  0  0  0  0  0  0 
    3.6877   -0.3000   -4.2837 H   0  0  0  0  0  0  0  0  0  0  0  0 
    1.3602    2.6038   -0.9152 H   0  0  0  0  0  0  0  0  0  0  0  0 
    0.3788    3.9819   -1.3763 H   0  0  0  0  0  0  0  0  0  0  0  0 
    1.8443    4.2043    0.6399 H   0  0  0  0  0  0  0  0  0  0  0  0 
  1  7  1  0  0  0  0 
  1 14  1  0  0  0  0 
  2 16  1  0  0  0  0 
  2  4  1  0  0  0  0 
  2  3  1  0  0  0  0 
  3 18  1  0  0  0  0 
  4  6  1  0  0  0  0 
  5 21  1  0  0  0  0 
  5  3  1  0  0  0  0 
  5  7  1  0  0  0  0 
  6 24  1  0  0  0  0 
  6  8  1  0  0  0  0 
  6 23  1  0  0  0  0 
  7  9  2  0  0  0  0 
  8 11  1  0  0  0  0 
 10  8  2  0  0  0  0 
 11 25  1  0  0  0  0 
 12  1  1  0  0  0  0 
 13  1  1  0  0  0  0 
 15  2  1  0  0  0  0 
 17  3  1  0  0  0  0 
 19  4  1  0  0  0  0 
 20  4  1  0  0  0  0 
 22  5  1  0  0  0  0 
M  END 
>  <HBA> 
3 
 
>  <HBD> 
1 
 
>  <TPSA> 
54.37 
 
>  <cid> 
26464 
 
>  <dipole> 
2.36 
 
>  <excitation_energy_1> 
4.438 
 
>  <excitation_energy_2> 
5.711 
 
>  <excitation_energy_3> 
6.029 
 
>  <excitation_energy_4> 
6.25 
 
>  <homo_energy> 
-6.7 
 
>  <homo_lumo_gap> 
6.351 
 
>  <logP> 
1.611 
 
>  <lumo_energy> 
-0.348 
 
>  <melting_point> 
70.66 
 
>  <molecular_refractivity> 
42.54 
 
>  <oscillator_strength_1> 
0.0001 
 
>  <oscillator_strength_2> 
0.0006 
 
>  <oscillator_strength_3> 
0.009 
 
>  <oscillator_strength_4> 
0.0204 
 
>  <open_babel_can_smiles> 
CC(=O)CCCCCC(=O)O 
 
>  <mulliken_charges> 
25 
1   -0.528662 
2   -0.269826 
3   -0.250026 
4   -0.25086 
5   -0.358713 
6   -0.408058 
7   0.453923 
8   0.607845 
9   -0.439442 
10   -0.439661 
11   -0.566696 
12   0.16581 
13   0.170855 
14   0.179811 
15   0.130917 
16   0.159457 
17   0.141408 
18   0.147157 
19   0.132388 
20   0.160007 
21   0.163021 
22   0.153593 
23   0.163724 
24   0.172885 
25   0.409142 
 
>  <lowdin_charges> 
25 
1   -0.474657 
2   -0.278872 
3   -0.272273 
4   -0.270394 
5   -0.308099 
6   -0.328901 
7   0.165609 
8   0.200246 
9   -0.238003 
10   -0.240765 
11   -0.363175 
12   0.167026 
13   0.170704 
14   0.173209 
15   0.1412 
16   0.153345 
17   0.146202 
18   0.145421 
19   0.14502 
20   0.160062 
21   0.163315 
22   0.155807 
23   0.15991 
24   0.168793 
25   0.359271 
 
$$$$ 
 
