PCCDB-ID:  21735 
public computational chemistry database (PCCDB) project, http://pccdb.org 
 
 26 26  0  0  1  0  0  0  0  0999 V2000 
    2.1922    0.7992    2.3979 C   0  0  0  0  0  0  0  0  0  0  0  0 
    3.5344    1.1172    0.4348 C   0  0  0  0  0  0  0  0  0  0  0  0 
    8.4719   -0.9101    0.3645 C   0  0  0  0  0  0  0  0  0  0  0  0 
    9.1444   -1.9126    1.3402 C   0  0  0  0  0  0  0  0  0  0  0  0 
    3.8798   -0.8410    1.8294 C   0  0  0  0  0  0  0  0  0  0  0  0 
    4.1965   -1.9077    0.7760 C   0  0  0  0  0  0  0  0  0  0  0  0 
    6.9158   -2.3076    1.0486 C   0  0  3  0  0  0  0  0  0  0  0  0 
    7.0234   -1.1836    0.4426 N   0  0  0  0  0  0  0  0  0  0  0  0 
    8.0967   -2.9436    1.4373 N   0  0  0  0  0  0  0  0  0  0  0  0 
    2.9153    0.1365    1.3206 N   0  0  0  0  0  0  0  0  0  0  0  0 
    5.3965   -3.1655    1.3703 S   0  0  0  0  0  0  0  0  0  0  0  0 
    1.4416    1.4747    1.9724 H   0  0  0  0  0  0  0  0  0  0  0  0 
    2.8448    1.3970    3.0653 H   0  0  0  0  0  0  0  0  0  0  0  0 
    1.6698    0.0556    3.0095 H   0  0  0  0  0  0  0  0  0  0  0  0 
    2.7601    1.7633    0.0064 H   0  0  0  0  0  0  0  0  0  0  0  0 
    4.0518    0.6199   -0.3899 H   0  0  0  0  0  0  0  0  0  0  0  0 
    4.2717    1.7589    0.9557 H   0  0  0  0  0  0  0  0  0  0  0  0 
    8.8109   -1.0761   -0.6673 H   0  0  0  0  0  0  0  0  0  0  0  0 
    8.6833    0.1336    0.6175 H   0  0  0  0  0  0  0  0  0  0  0  0 
    9.3448   -1.4515    2.3188 H   0  0  0  0  0  0  0  0  0  0  0  0 
   10.0791   -2.3305    0.9552 H   0  0  0  0  0  0  0  0  0  0  0  0 
    4.8188   -0.3662    2.1659 H   0  0  0  0  0  0  0  0  0  0  0  0 
    3.4363   -1.3363    2.6999 H   0  0  0  0  0  0  0  0  0  0  0  0 
    4.6284   -1.4766   -0.1283 H   0  0  0  0  0  0  0  0  0  0  0  0 
    3.2918   -2.4610    0.5097 H   0  0  0  0  0  0  0  0  0  0  0  0 
    8.0612   -3.4978    2.2856 H   0  0  0  0  0  0  0  0  0  0  0  0 
  1 14  1  0  0  0  0 
  1 13  1  0  0  0  0 
  2 17  1  0  0  0  0 
  2 10  1  0  0  0  0 
  3  8  1  0  0  0  0 
  3 19  1  0  0  0  0 
  3  4  1  0  0  0  0 
  4  9  1  0  0  0  0 
  4 20  1  0  0  0  0 
  5 22  1  0  0  0  0 
  5 23  1  0  0  0  0 
  6 11  1  0  0  0  0 
  6  5  1  0  0  0  0 
  7 11  1  0  0  0  0 
  7  9  1  0  0  0  0 
  8  7  1  0  0  0  0 
  9 26  1  0  0  0  0 
 10  5  1  0  0  0  0 
 10  1  1  0  0  0  0 
 12  1  1  0  0  0  0 
 15  2  1  0  0  0  0 
 16  2  1  0  0  0  0 
 18  3  1  0  0  0  0 
 21  4  1  0  0  0  0 
 24  6  1  0  0  0  0 
 25  6  1  0  0  0  0 
M  RAD  2   7   2   8   2 
M  END 
>  <HBA> 
4 
 
>  <HBD> 
1 
 
>  <TPSA> 
52.93 
 
>  <cid> 
21735 
 
>  <dipole> 
2.2 
 
>  <excitation_energy_1> 
5.101 
 
>  <excitation_energy_2> 
5.249 
 
>  <excitation_energy_3> 
5.334 
 
>  <excitation_energy_4> 
5.446 
 
>  <homo_energy> 
-5.638 
 
>  <homo_lumo_gap> 
6.332 
 
>  <logP> 
0.005 
 
>  <lumo_energy> 
0.694 
 
>  <melting_point> 
52.0 
 
>  <molecular_refractivity> 
57.86 
 
>  <oscillator_strength_1> 
0.0072 
 
>  <oscillator_strength_2> 
0.0034 
 
>  <oscillator_strength_3> 
0.0108 
 
>  <oscillator_strength_4> 
0.0029 
 
>  <open_babel_can_smiles> 
CN(CCS[C]1[N]CCN1)C 
 
>  <mulliken_charges> 
26 
1   -0.294096 
2   -0.30037 
3   -0.155203 
4   -0.15064 
5   -0.108593 
6   -0.422811 
7   0.294497 
8   -0.456483 
9   -0.592269 
10   -0.373796 
11   0.117317 
12   0.147598 
13   0.117609 
14   0.148042 
15   0.145132 
16   0.161729 
17   0.121371 
18   0.154247 
19   0.150322 
20   0.143175 
21   0.156031 
22   0.139063 
23   0.140469 
24   0.212331 
25   0.179506 
26   0.325821 
 
>  <lowdin_charges> 
26 
1   -0.359613 
2   -0.360908 
3   -0.20125 
4   -0.208601 
5   -0.205123 
6   -0.372076 
7   -0.033417 
8   -0.264458 
9   -0.314343 
10   -0.186094 
11   0.152697 
12   0.150421 
13   0.121593 
14   0.150143 
15   0.149491 
16   0.156848 
17   0.124094 
18   0.147037 
19   0.149233 
20   0.136961 
21   0.152832 
22   0.133928 
23   0.148231 
24   0.181686 
25   0.171612 
26   0.279073 
 
$$$$ 
 
