PCCDB-ID:  27905 
public computational chemistry database (PCCDB) project, http://pccdb.org 
 
 22 22  0  0  0  0  0  0  0  0999 V2000 
    3.1425   -3.4146   -0.1141 C   0  0  0  0  0  0  0  0  0  0  0  0 
    3.1351   -2.1385    0.2549 C   0  0  0  0  0  0  0  0  0  0  0  0 
    4.6422    2.7680   -1.4607 C   0  0  0  0  0  0  0  0  0  0  0  0 
    5.6297    3.2176   -0.3740 C   0  0  0  0  0  0  0  0  0  0  0  0 
    5.0053    1.2903   -1.6678 C   0  0  0  0  0  0  0  0  0  0  0  0 
    5.6558    2.0301    0.6139 C   0  0  0  0  0  0  0  0  0  0  0  0 
    5.3315    0.7616   -0.2273 C   0  0  0  0  0  0  0  0  0  0  0  0 
    4.1395    0.0009    0.3161 C   0  0  0  0  0  0  0  0  0  0  0  0 
    3.2339    0.4554    0.9773 O   0  0  0  0  0  0  0  0  0  0  0  0 
    4.1868   -1.3081   -0.0939 O   0  0  0  0  0  0  0  0  0  0  0  0 
    2.3160   -4.0592    0.1617 H   0  0  0  0  0  0  0  0  0  0  0  0 
    3.9580   -3.8397   -0.6900 H   0  0  0  0  0  0  0  0  0  0  0  0 
    2.3546   -1.6542    0.8300 H   0  0  0  0  0  0  0  0  0  0  0  0 
    4.7123    3.3538   -2.3840 H   0  0  0  0  0  0  0  0  0  0  0  0 
    3.6131    2.8524   -1.0890 H   0  0  0  0  0  0  0  0  0  0  0  0 
    5.3434    4.1572    0.1103 H   0  0  0  0  0  0  0  0  0  0  0  0 
    6.6227    3.3690   -0.8182 H   0  0  0  0  0  0  0  0  0  0  0  0 
    5.9089    1.2091   -2.2836 H   0  0  0  0  0  0  0  0  0  0  0  0 
    4.2229    0.7094   -2.1668 H   0  0  0  0  0  0  0  0  0  0  0  0 
    4.8814    2.1583    1.3753 H   0  0  0  0  0  0  0  0  0  0  0  0 
    6.6156    1.9353    1.1313 H   0  0  0  0  0  0  0  0  0  0  0  0 
    6.1713    0.0630   -0.2716 H   0  0  0  0  0  0  0  0  0  0  0  0 
  1 11  1  0  0  0  0 
  1  2  2  0  0  0  0 
  2 13  1  0  0  0  0 
  3 15  1  0  0  0  0 
  3  4  1  0  0  0  0 
  4 16  1  0  0  0  0 
  4  6  1  0  0  0  0 
  5  3  1  0  0  0  0 
  5  7  1  0  0  0  0 
  6 21  1  0  0  0  0 
  6 20  1  0  0  0  0 
  7  8  1  0  0  0  0 
  7  6  1  0  0  0  0 
  8  9  2  0  0  0  0 
 10  2  1  0  0  0  0 
 10  8  1  0  0  0  0 
 12  1  1  0  0  0  0 
 14  3  1  0  0  0  0 
 17  4  1  0  0  0  0 
 18  5  1  0  0  0  0 
 19  5  1  0  0  0  0 
 22  7  1  0  0  0  0 
M  END 
>  <HBA> 
2 
 
>  <HBD> 
0 
 
>  <TPSA> 
26.3 
 
>  <cid> 
27905 
 
>  <dipole> 
1.58 
 
>  <excitation_energy_1> 
5.587 
 
>  <excitation_energy_2> 
5.872 
 
>  <excitation_energy_3> 
6.437 
 
>  <excitation_energy_4> 
6.784 
 
>  <homo_energy> 
-6.735 
 
>  <homo_lumo_gap> 
6.487 
 
>  <logP> 
1.863 
 
>  <lumo_energy> 
-0.248 
 
>  <melting_point> 
-13.47 
 
>  <molecular_refractivity> 
39.27 
 
>  <oscillator_strength_1> 
0.0022 
 
>  <oscillator_strength_2> 
0.3217 
 
>  <oscillator_strength_3> 
0.0437 
 
>  <oscillator_strength_4> 
0.0555 
 
>  <open_babel_can_smiles> 
C=COC(=O)C1CCCC1 
 
>  <mulliken_charges> 
22 
1   -0.388969 
2   0.155085 
3   -0.267015 
4   -0.271286 
5   -0.278797 
6   -0.282379 
7   -0.179863 
8   0.611945 
9   -0.465797 
10   -0.461126 
11   0.154033 
12   0.154605 
13   0.182245 
14   0.138536 
15   0.152942 
16   0.141158 
17   0.133209 
18   0.14611 
19   0.153516 
20   0.174434 
21   0.13977 
22   0.157645 
 
>  <lowdin_charges> 
22 
1   -0.365188 
2   -0.038398 
3   -0.280376 
4   -0.27899 
5   -0.273601 
6   -0.285896 
7   -0.15695 
8   0.20758 
9   -0.255497 
10   -0.156253 
11   0.173231 
12   0.170159 
13   0.175109 
14   0.147799 
15   0.148617 
16   0.148941 
17   0.139244 
18   0.149206 
19   0.154422 
20   0.164264 
21   0.149014 
22   0.163562 
 
$$$$ 
 
