PCCDB-ID:  30750 
public computational chemistry database (PCCDB) project, http://pccdb.org 
 
 19 19  0  0  0  0  0  0  0  0999 V2000 
    1.2021    0.3091    0.0194 C   0  0  0  0  0  0  0  0  0  0  0  0 
    3.3693    2.5394   -0.0595 C   0  0  0  0  0  0  0  0  0  0  0  0 
    2.6752    0.0696   -0.0032 C   0  0  0  0  0  0  0  0  0  0  0  0 
    4.8561    0.5245   -0.0822 C   0  0  0  0  0  0  0  0  0  0  0  0 
    4.6003   -0.8427   -0.0251 C   0  0  0  0  0  0  0  0  0  0  0  0 
    6.0291    1.2351   -0.0666 N   0  0  0  0  0  0  0  0  0  0  0  0 
    3.2534   -1.1006    0.0228 N   0  0  0  0  0  0  0  0  0  0  0  0 
    3.6144    1.1072   -0.0603 N   0  0  0  0  0  0  0  0  0  0  0  0 
    5.5914   -1.8527   -0.0490 N   0  0  0  0  0  0  0  0  0  0  0  0 
    6.7849   -1.4642   -0.0774 O   0  0  0  0  0  0  0  0  0  0  0  0 
    5.2553   -3.0333   -0.0474 O   0  0  0  0  0  0  0  0  0  0  0  0 
    0.7047   -0.6623    0.0395 H   0  0  0  0  0  0  0  0  0  0  0  0 
    0.8573    0.8573   -0.8666 H   0  0  0  0  0  0  0  0  0  0  0  0 
    0.8849    0.8741    0.9056 H   0  0  0  0  0  0  0  0  0  0  0  0 
    2.3696    2.7341    0.3312 H   0  0  0  0  0  0  0  0  0  0  0  0 
    3.4382    2.9625   -1.0692 H   0  0  0  0  0  0  0  0  0  0  0  0 
    4.1012    3.0319    0.5879 H   0  0  0  0  0  0  0  0  0  0  0  0 
    6.8208    0.6008   -0.1520 H   0  0  0  0  0  0  0  0  0  0  0  0 
    6.0784    2.0396   -0.6816 H   0  0  0  0  0  0  0  0  0  0  0  0 
  1 12  1  0  0  0  0 
  1 14  1  0  0  0  0 
  2 15  1  0  0  0  0 
  2 17  1  0  0  0  0 
  3  1  1  0  0  0  0 
  3  7  2  0  0  0  0 
  4  6  1  0  0  0  0 
  4  8  1  0  0  0  0 
  4  5  2  0  0  0  0 
  5  7  1  0  0  0  0 
  8  2  1  0  0  0  0 
  8  3  1  0  0  0  0 
  9 11  2  0  0  0  0 
  9  5  1  0  0  0  0 
 10  9  2  0  0  0  0 
 13  1  1  0  0  0  0 
 16  2  1  0  0  0  0 
 18  6  1  0  0  0  0 
 19  6  1  0  0  0  0 
M  END 
>  <HBA> 
3 
 
>  <HBD> 
1 
 
>  <TPSA> 
89.66 
 
>  <cid> 
30750 
 
>  <dipole> 
8.65 
 
>  <excitation_energy_1> 
3.899 
 
>  <excitation_energy_2> 
4.015 
 
>  <excitation_energy_3> 
4.548 
 
>  <excitation_energy_4> 
4.761 
 
>  <homo_energy> 
-5.927 
 
>  <homo_lumo_gap> 
4.416 
 
>  <logP> 
1.323 
 
>  <lumo_energy> 
-1.51 
 
>  <melting_point> 
115.78 
 
>  <molecular_refractivity> 
41.68 
 
>  <oscillator_strength_1> 
0.081 
 
>  <oscillator_strength_2> 
0.1047 
 
>  <oscillator_strength_3> 
0.0057 
 
>  <oscillator_strength_4> 
0.0013 
 
>  <open_babel_can_smiles> 
O=N(=O)c1nc(n(c1N)C)C 
 
>  <mulliken_charges> 
19 
1   -0.53972 
2   -0.346154 
3   0.487817 
4   0.516571 
5   0.381463 
6   -0.79952 
7   -0.488607 
8   -0.488022 
9   0.335564 
10   -0.46753 
11   -0.399582 
12   0.204979 
13   0.166344 
14   0.167615 
15   0.189034 
16   0.178244 
17   0.19355 
18   0.377746 
19   0.330208 
 
>  <lowdin_charges> 
19 
1   -0.448448 
2   -0.352753 
3   0.058988 
4   0.082217 
5   -0.051437 
6   -0.467509 
7   -0.159266 
8   -0.034182 
9   0.307614 
10   -0.319916 
11   -0.238123 
12   0.190111 
13   0.164415 
14   0.164143 
15   0.176589 
16   0.160716 
17   0.175477 
18   0.306422 
19   0.284942 
 
$$$$ 
 
