PCCDB-ID:  18840 
public computational chemistry database (PCCDB) project, http://pccdb.org 
 
 18 18  0  0  0  0  0  0  0  0999 V2000 
   -0.5690   -1.2714    0.0450 C   0  0  0  0  0  0  0  0  0  0  0  0 
    0.8216   -0.9883    0.6313 C   0  0  0  0  0  0  0  0  0  0  0  0 
   -1.2028    0.1305   -0.0818 C   0  0  0  0  0  0  0  0  0  0  0  0 
    1.2806    0.2606   -0.1409 C   0  0  0  0  0  0  0  0  0  0  0  0 
   -0.0120    1.1224   -0.3211 C   0  0  0  0  0  0  0  0  0  0  0  0 
   -0.0530    1.8297   -1.6692 C   0  0  0  0  0  0  0  0  0  0  0  0 
    0.0438    3.0215   -1.8199 O   0  0  0  0  0  0  0  0  0  0  0  0 
   -0.1943    1.0217   -2.7638 O   0  0  0  0  0  0  0  0  0  0  0  0 
   -1.1726   -1.9537    0.6522 H   0  0  0  0  0  0  0  0  0  0  0  0 
   -0.4610   -1.7410   -0.9447 H   0  0  0  0  0  0  0  0  0  0  0  0 
    1.5164   -1.8286    0.5286 H   0  0  0  0  0  0  0  0  0  0  0  0 
    0.7359   -0.7602    1.7019 H   0  0  0  0  0  0  0  0  0  0  0  0 
   -1.7027    0.3984    0.8548 H   0  0  0  0  0  0  0  0  0  0  0  0 
   -1.9666    0.1853   -0.8652 H   0  0  0  0  0  0  0  0  0  0  0  0 
    1.6776   -0.0387   -1.1200 H   0  0  0  0  0  0  0  0  0  0  0  0 
    2.0732    0.8211    0.3629 H   0  0  0  0  0  0  0  0  0  0  0  0 
   -0.0336    1.9215    0.4223 H   0  0  0  0  0  0  0  0  0  0  0  0 
   -0.2715    0.0938   -2.4870 H   0  0  0  0  0  0  0  0  0  0  0  0 
  1  2  1  0  0  0  0 
  1  9  1  0  0  0  0 
  2 12  1  0  0  0  0 
  3  1  1  0  0  0  0 
  3 13  1  0  0  0  0 
  4 16  1  0  0  0  0 
  4  2  1  0  0  0  0 
  5  4  1  0  0  0  0 
  5  3  1  0  0  0  0 
  5 17  1  0  0  0  0 
  6  5  1  0  0  0  0 
  7  6  2  0  0  0  0 
  8 18  1  0  0  0  0 
  8  6  1  0  0  0  0 
 10  1  1  0  0  0  0 
 11  2  1  0  0  0  0 
 14  3  1  0  0  0  0 
 15  4  1  0  0  0  0 
M  END 
>  <HBA> 
2 
 
>  <HBD> 
1 
 
>  <TPSA> 
37.3 
 
>  <cid> 
18840 
 
>  <dipole> 
4.77 
 
>  <excitation_energy_1> 
5.596 
 
>  <excitation_energy_2> 
6.373 
 
>  <excitation_energy_3> 
7.002 
 
>  <excitation_energy_4> 
7.368 
 
>  <homo_energy> 
-7.11 
 
>  <homo_lumo_gap> 
7.494 
 
>  <logP> 
1.261 
 
>  <lumo_energy> 
0.384 
 
>  <melting_point> 
73.17 
 
>  <molecular_refractivity> 
30.61 
 
>  <oscillator_strength_1> 
0.0013 
 
>  <oscillator_strength_2> 
0.0085 
 
>  <oscillator_strength_3> 
0.0006 
 
>  <oscillator_strength_4> 
0.0092 
 
>  <open_babel_can_smiles> 
OC(=O)C1CCCC1 
 
>  <mulliken_charges> 
18 
1   -0.279025 
2   -0.267003 
3   -0.307649 
4   -0.28897 
5   -0.187525 
6   0.57676 
7   -0.440791 
8   -0.572077 
9   0.150342 
10   0.127151 
11   0.145558 
12   0.144842 
13   0.159638 
14   0.154387 
15   0.144315 
16   0.161559 
17   0.168699 
18   0.409789 
 
>  <lowdin_charges> 
18 
1   -0.284785 
2   -0.279201 
3   -0.293832 
4   -0.281743 
5   -0.170523 
6   0.1875 
7   -0.237169 
8   -0.363422 
9   0.155353 
10   0.133129 
11   0.151719 
12   0.144609 
13   0.157852 
14   0.152151 
15   0.144475 
16   0.160646 
17   0.169408 
18   0.353833 
 
$$$$ 
 
