PCCDB-ID:  26548 
public computational chemistry database (PCCDB) project, http://pccdb.org 
 
 17 17  0  0  0  0  0  0  0  0999 V2000 
   -0.7332    0.9751   -0.1026 C   0  0  0  0  0  0  0  0  0  0  0  0 
    1.4408   -0.0531   -0.1223 C   0  0  0  0  0  0  0  0  0  0  0  0 
   -1.3323   -0.2823   -0.0482 C   0  0  0  0  0  0  0  0  0  0  0  0 
    0.8572   -1.3147   -0.0694 C   0  0  0  0  0  0  0  0  0  0  0  0 
    1.3061    2.4841   -0.1877 C   0  0  0  0  0  0  0  0  0  0  0  0 
    1.5234    3.0643    1.1469 C   0  0  0  0  0  0  0  0  0  0  0  0 
    0.6575    1.1077   -0.1406 C   0  0  0  0  0  0  0  0  0  0  0  0 
   -0.5366   -1.4327   -0.0310 C   0  0  0  0  0  0  0  0  0  0  0  0 
    1.6879    3.5148    2.2040 N   0  0  0  0  0  0  0  0  0  0  0  0 
   -1.0590   -2.6934    0.0176 O   0  0  0  0  0  0  0  0  0  0  0  0 
   -1.3623    1.8620   -0.1130 H   0  0  0  0  0  0  0  0  0  0  0  0 
    2.5248    0.0285   -0.1490 H   0  0  0  0  0  0  0  0  0  0  0  0 
   -2.4169   -0.3684   -0.0215 H   0  0  0  0  0  0  0  0  0  0  0  0 
    1.4621   -2.2155   -0.0583 H   0  0  0  0  0  0  0  0  0  0  0  0 
    2.2754    2.4344   -0.6984 H   0  0  0  0  0  0  0  0  0  0  0  0 
    0.6867    3.1826   -0.7635 H   0  0  0  0  0  0  0  0  0  0  0  0 
   -2.0268   -2.6361    0.0450 H   0  0  0  0  0  0  0  0  0  0  0  0 
  1  3  2  0  0  0  0 
  2  4  1  0  0  0  0 
  3  8  1  0  0  0  0 
  3 13  1  0  0  0  0 
  4 14  1  0  0  0  0 
  4  8  2  0  0  0  0 
  5  7  1  0  0  0  0 
  5  6  1  0  0  0  0 
  6  9  3  0  0  0  0 
  7  2  2  0  0  0  0 
  7  1  1  0  0  0  0 
  8 10  1  0  0  0  0 
 10 17  1  0  0  0  0 
 11  1  1  0  0  0  0 
 12  2  1  0  0  0  0 
 15  5  1  0  0  0  0 
 16  5  1  0  0  0  0 
M  END 
>  <HBA> 
2 
 
>  <HBD> 
1 
 
>  <TPSA> 
44.02 
 
>  <cid> 
26548 
 
>  <dipole> 
4.31 
 
>  <excitation_energy_1> 
4.961 
 
>  <excitation_energy_2> 
5.351 
 
>  <excitation_energy_3> 
5.53 
 
>  <excitation_energy_4> 
5.813 
 
>  <homo_energy> 
-6.313 
 
>  <homo_lumo_gap> 
5.856 
 
>  <logP> 
1.458 
 
>  <lumo_energy> 
-0.457 
 
>  <melting_point> 
81.36 
 
>  <molecular_refractivity> 
37.99 
 
>  <oscillator_strength_1> 
0.0262 
 
>  <oscillator_strength_2> 
0.0064 
 
>  <oscillator_strength_3> 
0.0728 
 
>  <oscillator_strength_4> 
0.017 
 
>  <open_babel_can_smiles> 
N#CCc1ccc(cc1)O 
 
>  <mulliken_charges> 
17 
1   -0.173164 
2   -0.174867 
3   -0.191062 
4   -0.155593 
5   -0.444828 
6   0.367078 
7   0.161551 
8   0.35408 
9   -0.466238 
10   -0.637884 
11   0.137539 
12   0.13712 
13   0.126527 
14   0.148083 
15   0.200822 
16   0.20057 
17   0.410264 
 
>  <lowdin_charges> 
17 
1   -0.147411 
2   -0.143856 
3   -0.2055 
4   -0.179811 
5   -0.269067 
6   -0.017081 
7   -0.024509 
8   0.106762 
9   -0.12803 
10   -0.370468 
11   0.162275 
12   0.159646 
13   0.155295 
14   0.17216 
15   0.185329 
16   0.186723 
17   0.357542 
 
$$$$ 
 
