PCCDB-ID:  7457 
public computational chemistry database (PCCDB) project, http://pccdb.org 
 
 23 23  0  0  0  0  0  0  0  0999 V2000 
    2.2150   -2.6085   -1.4449 C   0  0  0  0  0  0  0  0  0  0  0  0 
    3.5478   -2.3945   -2.1455 C   0  0  0  0  0  0  0  0  0  0  0  0 
    6.4701   -1.0670    0.5704 C   0  0  0  0  0  0  0  0  0  0  0  0 
    5.8115    1.2346    0.1593 C   0  0  0  0  0  0  0  0  0  0  0  0 
    7.4442   -0.6326    1.4643 C   0  0  0  0  0  0  0  0  0  0  0  0 
    6.7814    1.6808    1.0501 C   0  0  0  0  0  0  0  0  0  0  0  0 
    5.6515   -0.1364   -0.0850 C   0  0  0  0  0  0  0  0  0  0  0  0 
    7.5827    0.7357    1.6889 C   0  0  0  0  0  0  0  0  0  0  0  0 
    4.5873   -0.5493   -1.0532 C   0  0  0  0  0  0  0  0  0  0  0  0 
    8.6133    1.1999    2.6365 N   0  0  0  0  0  0  0  0  0  0  0  0 
    3.8499    0.2351   -1.6169 O   0  0  0  0  0  0  0  0  0  0  0  0 
    9.3065    0.3463    3.1880 O   0  0  0  0  0  0  0  0  0  0  0  0 
    8.7162    2.4122    2.8173 O   0  0  0  0  0  0  0  0  0  0  0  0 
    4.5485   -1.8859   -1.2267 O   0  0  0  0  0  0  0  0  0  0  0  0 
    1.4979   -3.0534   -2.1441 H   0  0  0  0  0  0  0  0  0  0  0  0 
    1.8059   -1.6569   -1.0942 H   0  0  0  0  0  0  0  0  0  0  0  0 
    2.3262   -3.2840   -0.5905 H   0  0  0  0  0  0  0  0  0  0  0  0 
    3.4517   -1.6944   -2.9783 H   0  0  0  0  0  0  0  0  0  0  0  0 
    3.9701   -3.3355   -2.5054 H   0  0  0  0  0  0  0  0  0  0  0  0 
    6.3410   -2.1253    0.3775 H   0  0  0  0  0  0  0  0  0  0  0  0 
    5.1659    1.9352   -0.3587 H   0  0  0  0  0  0  0  0  0  0  0  0 
    8.0907   -1.3279    1.9849 H   0  0  0  0  0  0  0  0  0  0  0  0 
    6.9266    2.7338    1.2564 H   0  0  0  0  0  0  0  0  0  0  0  0 
  1 16  1  0  0  0  0 
  1 17  1  0  0  0  0 
  2  1  1  0  0  0  0 
  2 14  1  0  0  0  0 
  3  5  2  0  0  0  0 
  4  6  1  0  0  0  0 
  5  8  1  0  0  0  0 
  5 22  1  0  0  0  0 
  6 23  1  0  0  0  0 
  6  8  2  0  0  0  0 
  7  4  2  0  0  0  0 
  7  3  1  0  0  0  0 
  8 10  1  0  0  0  0 
  9  7  1  0  0  0  0 
 10 13  2  0  0  0  0 
 10 12  2  0  0  0  0 
 11  9  2  0  0  0  0 
 14  9  1  0  0  0  0 
 15  1  1  0  0  0  0 
 18  2  1  0  0  0  0 
 19  2  1  0  0  0  0 
 20  3  1  0  0  0  0 
 21  4  1  0  0  0  0 
M  END 
>  <HBA> 
2 
 
>  <HBD> 
0 
 
>  <TPSA> 
72.12 
 
>  <cid> 
7457 
 
>  <dipole> 
4.61 
 
>  <excitation_energy_1> 
3.667 
 
>  <excitation_energy_2> 
4.139 
 
>  <excitation_energy_3> 
4.168 
 
>  <excitation_energy_4> 
4.22 
 
>  <homo_energy> 
-7.753 
 
>  <homo_lumo_gap> 
4.95 
 
>  <logP> 
2.295 
 
>  <lumo_energy> 
-2.803 
 
>  <melting_point> 
68.4 
 
>  <molecular_refractivity> 
51.35 
 
>  <oscillator_strength_1> 
0.0 
 
>  <oscillator_strength_2> 
0.0188 
 
>  <oscillator_strength_3> 
0.0006 
 
>  <oscillator_strength_4> 
0.0011 
 
>  <open_babel_can_smiles> 
CCOC(=O)c1ccc(cc1)N(=O)=O 
 
>  <mulliken_charges> 
23 
1   -0.463045 
2   -0.047143 
3   -0.17136 
4   -0.167431 
5   -0.15627 
6   -0.156856 
7   0.066936 
8   0.28415 
9   0.606199 
10   0.382971 
11   -0.483261 
12   -0.390191 
13   -0.38862 
14   -0.475991 
15   0.156077 
16   0.178553 
17   0.160079 
18   0.17652 
19   0.158316 
20   0.172469 
21   0.180234 
22   0.188165 
23   0.189498 
 
>  <lowdin_charges> 
23 
1   -0.455935 
2   -0.126977 
3   -0.131886 
4   -0.125885 
5   -0.139623 
6   -0.13623 
7   -0.024981 
8   0.013226 
9   0.199551 
10   0.307574 
11   -0.264226 
12   -0.242057 
13   -0.238026 
14   -0.189016 
15   0.163282 
16   0.166837 
17   0.158127 
18   0.162753 
19   0.155586 
20   0.179342 
21   0.187355 
22   0.191618 
23   0.18959 
 
$$$$ 
 
