PCCDB-ID:  17849 
public computational chemistry database (PCCDB) project, http://pccdb.org 
 
 33 33  0  0  1  0  0  0  0  0999 V2000 
    1.8858   -1.0693    0.7743 C   0  0  0  0  0  0  0  0  0  0  0  0 
    5.3286   -3.0201   -4.7509 C   0  0  0  0  0  0  0  0  0  0  0  0 
    5.3237   -0.6534   -5.6580 C   0  0  0  0  0  0  0  0  0  0  0  0 
    7.2830   -2.1812   -6.0913 C   0  0  0  0  0  0  0  0  0  0  0  0 
    2.7170    0.0522    0.1397 C   0  0  0  0  0  0  0  0  0  0  0  0 
    4.5623   -0.4160   -1.2735 C   0  0  0  0  0  0  0  0  0  0  0  0 
    6.3281   -0.8660   -2.7254 C   0  0  1  0  0  0  0  0  0  0  0  0 
    6.7239   -0.0209   -0.5523 C   0  0  0  0  0  0  0  0  0  0  0  0 
    6.1898   -1.7901   -5.0835 C   0  0  0  0  0  0  0  0  0  0  0  0 
    7.1317    0.9709    2.5542 N   0  0  0  0  0  0  0  0  0  0  0  0 
    3.2951   -0.4011   -1.1131 N   0  0  0  0  0  0  0  0  0  0  0  0 
    5.0603   -0.8735   -2.5095 N   0  0  0  0  0  0  0  0  0  0  0  0 
    5.4793    0.0029   -0.2655 N   0  0  0  0  0  0  0  0  0  0  0  0 
    7.2468   -0.3725   -1.7789 N   0  0  0  0  0  0  0  0  0  0  0  0 
    6.9193   -1.3444   -3.8641 N   0  0  0  0  0  0  0  0  0  0  0  0 
    7.7490    0.3224    0.3545 N   0  0  0  0  0  0  0  0  0  0  0  0 
    7.3548    0.6523    1.4909 N   0  0  0  0  0  0  0  0  0  0  0  0 
    1.3728   -0.7098    1.6744 H   0  0  0  0  0  0  0  0  0  0  0  0 
    2.5257   -1.9125    1.0588 H   0  0  0  0  0  0  0  0  0  0  0  0 
    1.1358   -1.4398    0.0676 H   0  0  0  0  0  0  0  0  0  0  0  0 
    4.8479   -3.3883   -5.6642 H   0  0  0  0  0  0  0  0  0  0  0  0 
    4.5554   -2.7663   -4.0240 H   0  0  0  0  0  0  0  0  0  0  0  0 
    5.9496   -3.8243   -4.3408 H   0  0  0  0  0  0  0  0  0  0  0  0 
    4.8290   -0.9864   -6.5776 H   0  0  0  0  0  0  0  0  0  0  0  0 
    5.9405    0.2199   -5.9032 H   0  0  0  0  0  0  0  0  0  0  0  0 
    4.5588   -0.3533   -4.9387 H   0  0  0  0  0  0  0  0  0  0  0  0 
    6.8264   -2.5445   -7.0168 H   0  0  0  0  0  0  0  0  0  0  0  0 
    7.9237   -2.9753   -5.6912 H   0  0  0  0  0  0  0  0  0  0  0  0 
    7.9145   -1.3208   -6.3516 H   0  0  0  0  0  0  0  0  0  0  0  0 
    3.4634    0.4180    0.8571 H   0  0  0  0  0  0  0  0  0  0  0  0 
    2.0479    0.8928   -0.0955 H   0  0  0  0  0  0  0  0  0  0  0  0 
    8.2304   -0.6044   -1.8318 H   0  0  0  0  0  0  0  0  0  0  0  0 
    7.8322   -0.9498   -4.0567 H   0  0  0  0  0  0  0  0  0  0  0  0 
  1 19  1  0  0  0  0 
  1 18  1  0  0  0  0 
  2 23  1  0  0  0  0 
  2 22  1  0  0  0  0 
  3  9  1  0  0  0  0 
  3 26  1  0  0  0  0 
  4 28  1  0  0  0  0 
  4  9  1  0  0  0  0 
  5  1  1  0  0  0  0 
  5 30  1  0  0  0  0 
  6 11  1  0  0  0  0 
  6 13  2  0  0  0  0 
  7 15  1  1  0  0  0 
  7 12  1  0  0  0  0 
  7 14  1  0  0  0  0 
  8 13  2  0  0  0  0 
  8 16  1  0  0  0  0 
  9  2  1  0  0  0  0 
  9 15  1  0  0  0  0 
 11  5  1  0  0  0  0 
 12  6  2  0  0  0  0 
 14  8  1  0  0  0  0 
 16 17  2  0  0  0  0 
 17 10  2  0  0  0  0 
 20  1  1  0  0  0  0 
 21  2  1  0  0  0  0 
 24  3  1  0  0  0  0 
 25  3  1  0  0  0  0 
 27  4  1  0  0  0  0 
 29  4  1  0  0  0  0 
 31  5  1  0  0  0  0 
 32 14  1  0  0  0  0 
 33 15  1  0  0  0  0 
M  RAD  3   7   2  10   2  11   2 
M  END 
>  <HBA> 
6 
 
>  <HBD> 
2 
 
>  <TPSA> 
90.88 
 
>  <cid> 
17849 
 
>  <dipole> 
6.14 
 
>  <excitation_energy_1> 
3.366 
 
>  <excitation_energy_2> 
3.599 
 
>  <excitation_energy_3> 
3.862 
 
>  <excitation_energy_4> 
3.864 
 
>  <homo_energy> 
-5.671 
 
>  <homo_lumo_gap> 
4.101 
 
>  <logP> 
2.433 
 
>  <lumo_energy> 
-1.57 
 
>  <melting_point> 
162.58 
 
>  <molecular_refractivity> 
65.81 
 
>  <oscillator_strength_1> 
0.0001 
 
>  <oscillator_strength_2> 
0.017 
 
>  <oscillator_strength_3> 
0.0026 
 
>  <oscillator_strength_4> 
0.0007 
 
>  <open_babel_can_smiles> 
CC[N][C]1=N[C](NC(=[N]=1)N=[N]=[N])NC(C)(C)C 
 
>  <mulliken_charges> 
33 
1   -0.431704 
2   -0.449004 
3   -0.448969 
4   -0.47263 
5   -0.139026 
6   0.556896 
7   0.776298 
8   0.731379 
9   0.229686 
10   -0.201754 
11   -0.460837 
12   -0.519899 
13   -0.51883 
14   -0.720685 
15   -0.681275 
16   -0.486632 
17   0.477273 
18   0.129261 
19   0.13986 
20   0.151992 
21   0.13871 
22   0.203717 
23   0.139378 
24   0.14164 
25   0.128792 
26   0.199755 
27   0.161678 
28   0.152945 
29   0.137011 
30   0.138001 
31   0.132665 
32   0.348331 
33   0.315976 
 
>  <lowdin_charges> 
33 
1   -0.44721 
2   -0.452732 
3   -0.456798 
4   -0.449978 
5   -0.204419 
6   0.09935 
7   0.146985 
8   0.134496 
9   0.088104 
10   -0.024045 
11   -0.203739 
12   -0.221048 
13   -0.229708 
14   -0.251628 
15   -0.281334 
16   -0.192938 
17   0.229541 
18   0.144366 
19   0.146714 
20   0.153472 
21   0.151214 
22   0.180587 
23   0.150593 
24   0.152556 
25   0.14432 
26   0.178948 
27   0.162511 
28   0.15449 
29   0.145592 
30   0.135664 
31   0.141023 
32   0.299347 
33   0.275702 
 
$$$$ 
 
