PCCDB-ID:  11760 
public computational chemistry database (PCCDB) project, http://pccdb.org 
 
 16 16  0  0  0  0  0  0  0  0999 V2000 
   -1.1962   -0.6821    0.0766 C   0  0  0  0  0  0  0  0  0  0  0  0 
   -0.0010   -1.3988    0.0724 C   0  0  0  0  0  0  0  0  0  0  0  0 
   -1.2063    0.7097    0.0046 C   0  0  0  0  0  0  0  0  0  0  0  0 
    1.2143   -0.7100   -0.0069 C   0  0  0  0  0  0  0  0  0  0  0  0 
    0.0061    1.4038   -0.0732 C   0  0  0  0  0  0  0  0  0  0  0  0 
    1.2022    0.6840   -0.0788 C   0  0  0  0  0  0  0  0  0  0  0  0 
    2.4824    1.4131   -0.1639 N   0  0  0  0  0  0  0  0  0  0  0  0 
    2.4292   -1.3189   -0.0179 O   0  0  0  0  0  0  0  0  0  0  0  0 
    0.0990    2.7576   -0.1458 O   0  0  0  0  0  0  0  0  0  0  0  0 
    3.0050    1.7444    0.8945 O   0  0  0  0  0  0  0  0  0  0  0  0 
    2.9241    1.6309   -1.2866 O   0  0  0  0  0  0  0  0  0  0  0  0 
   -2.1383   -1.2187    0.1372 H   0  0  0  0  0  0  0  0  0  0  0  0 
   -0.0037   -2.4843    0.1301 H   0  0  0  0  0  0  0  0  0  0  0  0 
   -2.1440    1.2595    0.0080 H   0  0  0  0  0  0  0  0  0  0  0  0 
    2.3068   -2.2798    0.0265 H   0  0  0  0  0  0  0  0  0  0  0  0 
   -0.7913    3.1415   -0.1330 H   0  0  0  0  0  0  0  0  0  0  0  0 
  1 12  1  0  0  0  0 
  2  1  1  0  0  0  0 
  2 13  1  0  0  0  0 
  3 14  1  0  0  0  0 
  3  1  2  0  0  0  0 
  4  2  2  0  0  0  0 
  5  3  1  0  0  0  0 
  6  5  2  0  0  0  0 
  6  4  1  0  0  0  0 
  7  6  1  0  0  0  0 
  7 10  2  0  0  0  0 
  8  4  1  0  0  0  0 
  8 15  1  0  0  0  0 
  9 16  1  0  0  0  0 
  9  5  1  0  0  0  0 
 11  7  2  0  0  0  0 
M  END 
>  <HBA> 
2 
 
>  <HBD> 
2 
 
>  <TPSA> 
86.28 
 
>  <cid> 
11760 
 
>  <dipole> 
6.04 
 
>  <excitation_energy_1> 
3.5 
 
>  <excitation_energy_2> 
3.842 
 
>  <excitation_energy_3> 
4.42 
 
>  <excitation_energy_4> 
4.807 
 
>  <homo_energy> 
-6.525 
 
>  <homo_lumo_gap> 
4.893 
 
>  <logP> 
1.529 
 
>  <lumo_energy> 
-1.633 
 
>  <melting_point> 
124.06 
 
>  <molecular_refractivity> 
39.31 
 
>  <oscillator_strength_1> 
0.0 
 
>  <oscillator_strength_2> 
0.0 
 
>  <oscillator_strength_3> 
0.0006 
 
>  <oscillator_strength_4> 
0.0 
 
>  <open_babel_can_smiles> 
O=N(=O)c1c(O)cccc1O 
 
>  <mulliken_charges> 
16 
1   -0.125787 
2   -0.20271 
3   -0.202603 
4   0.361156 
5   0.361031 
6   0.168462 
7   0.394231 
8   -0.632431 
9   -0.632355 
10   -0.368418 
11   -0.368637 
12   0.145213 
13   0.131237 
14   0.131145 
15   0.420236 
16   0.420231 
 
>  <lowdin_charges> 
16 
1   -0.125886 
2   -0.223237 
3   -0.226557 
4   0.116106 
5   0.118328 
6   -0.040997 
7   0.315039 
8   -0.355447 
9   -0.35828 
10   -0.22088 
11   -0.220356 
12   0.167446 
13   0.159758 
14   0.162054 
15   0.365983 
16   0.366926 
 
$$$$ 
 
