PCCDB-ID:  70654 
public computational chemistry database (PCCDB) project, http://pccdb.org 
 
 32 32  0  0  1  0  0  0  0  0999 V2000 
    0.4305   -0.0473    1.0500 C   0  0  0  0  0  0  0  0  0  0  0  0 
    4.1200   -2.1828    2.8402 C   0  0  0  0  0  0  0  0  0  0  0  0 
    3.5252    2.4590    3.3681 C   0  0  0  0  0  0  0  0  0  0  0  0 
    2.3277   -1.9594   -1.4138 C   0  0  0  0  0  0  0  0  0  0  0  0 
    2.8295    4.0266    0.8068 C   0  0  0  0  0  0  0  0  0  0  0  0 
    1.8985    0.1662    0.6111 C   0  0  2  0  0  0  0  0  0  0  0  0 
    3.3576   -1.0650    2.1828 C   0  0  0  0  0  0  0  0  0  0  0  0 
    3.0548    1.3587    2.4480 C   0  0  0  0  0  0  0  0  0  0  0  0 
    2.8624   -2.1766   -0.0016 C   0  0  0  0  0  0  0  0  0  0  0  0 
    2.2467    2.6701    0.4214 C   0  0  0  0  0  0  0  0  0  0  0  0 
    2.7583   -1.0471    0.9586 C   0  0  0  0  0  0  0  0  0  0  0  0 
    2.4597    1.4461    1.2240 C   0  0  0  0  0  0  0  0  0  0  0  0 
    3.3054    0.0910    2.9607 N   0  0  0  0  0  0  0  0  0  0  0  0 
    3.3604   -3.2678    0.2709 O   0  0  0  0  0  0  0  0  0  0  0  0 
    1.5973    2.6002   -0.6214 O   0  0  0  0  0  0  0  0  0  0  0  0 
    0.0115   -0.9528    0.5936 H   0  0  0  0  0  0  0  0  0  0  0  0 
   -0.1829    0.8063    0.7432 H   0  0  0  0  0  0  0  0  0  0  0  0 
    0.3581   -0.1587    2.1379 H   0  0  0  0  0  0  0  0  0  0  0  0 
    4.1692   -3.0471    2.1831 H   0  0  0  0  0  0  0  0  0  0  0  0 
    3.6203   -2.4744    3.7746 H   0  0  0  0  0  0  0  0  0  0  0  0 
    5.1368   -1.8571    3.0988 H   0  0  0  0  0  0  0  0  0  0  0  0 
    2.9188    3.3589    3.2858 H   0  0  0  0  0  0  0  0  0  0  0  0 
    4.5702    2.7319    3.1726 H   0  0  0  0  0  0  0  0  0  0  0  0 
    3.4657    2.1218    4.4099 H   0  0  0  0  0  0  0  0  0  0  0  0 
    2.8349   -1.1226   -1.9091 H   0  0  0  0  0  0  0  0  0  0  0  0 
    1.2561   -1.7300   -1.4138 H   0  0  0  0  0  0  0  0  0  0  0  0 
    2.4995   -2.8744   -1.9836 H   0  0  0  0  0  0  0  0  0  0  0  0 
    3.8653    3.9674    1.1537 H   0  0  0  0  0  0  0  0  0  0  0  0 
    2.2343    4.4994    1.5980 H   0  0  0  0  0  0  0  0  0  0  0  0 
    2.7775    4.6655   -0.0772 H   0  0  0  0  0  0  0  0  0  0  0  0 
    1.8891    0.3230   -0.4682 H   0  0  0  0  0  0  0  0  0  0  0  0 
    3.7755    0.0462    3.8546 H   0  0  0  0  0  0  0  0  0  0  0  0 
  1 18  1  0  0  0  0 
  2 21  1  0  0  0  0 
  2 20  1  0  0  0  0 
  3 24  1  0  0  0  0 
  4  9  1  0  0  0  0 
  5 28  1  0  0  0  0 
  5 29  1  0  0  0  0 
  6 31  1  6  0  0  0 
  6 11  1  0  0  0  0 
  6  1  1  0  0  0  0 
  6 12  1  0  0  0  0 
  7  2  1  0  0  0  0 
  7 13  1  0  0  0  0 
  8 13  1  0  0  0  0 
  8  3  1  0  0  0  0 
  9 14  2  0  0  0  0 
  9 11  1  0  0  0  0 
 10  5  1  0  0  0  0 
 10 12  1  0  0  0  0 
 11  7  2  0  0  0  0 
 12  8  2  0  0  0  0 
 13 32  1  0  0  0  0 
 15 10  2  0  0  0  0 
 16  1  1  0  0  0  0 
 17  1  1  0  0  0  0 
 19  2  1  0  0  0  0 
 22  3  1  0  0  0  0 
 23  3  1  0  0  0  0 
 25  4  1  0  0  0  0 
 26  4  1  0  0  0  0 
 27  4  1  0  0  0  0 
 30  5  1  0  0  0  0 
M  END 
>  <HBA> 
3 
 
>  <HBD> 
1 
 
>  <TPSA> 
46.17 
 
>  <cid> 
70654 
 
>  <dipole> 
5.73 
 
>  <excitation_energy_1> 
3.482 
 
>  <excitation_energy_2> 
3.594 
 
>  <excitation_energy_3> 
3.766 
 
>  <excitation_energy_4> 
4.451 
 
>  <homo_energy> 
-5.597 
 
>  <homo_lumo_gap> 
4.123 
 
>  <logP> 
2.28 
 
>  <lumo_energy> 
-1.475 
 
>  <melting_point> 
95.25 
 
>  <molecular_refractivity> 
63.85 
 
>  <oscillator_strength_1> 
0.1025 
 
>  <oscillator_strength_2> 
0.0452 
 
>  <oscillator_strength_3> 
0.0049 
 
>  <oscillator_strength_4> 
0.0204 
 
>  <open_babel_can_smiles> 
CC1=C(C(=O)C)[C@H](C(=C(N1)C)C(=O)C)C 
 
>  <mulliken_charges> 
32 
1   -0.433105 
2   -0.555807 
3   -0.542777 
4   -0.544842 
5   -0.545139 
6   -0.220021 
7   0.343759 
8   0.330708 
9   0.402541 
10   0.417725 
11   -0.018548 
12   -0.030197 
13   -0.6794 
14   -0.483195 
15   -0.478341 
16   0.13913 
17   0.160556 
18   0.138582 
19   0.237838 
20   0.161309 
21   0.152909 
22   0.186028 
23   0.182243 
24   0.159168 
25   0.174143 
26   0.173185 
27   0.172887 
28   0.157486 
29   0.16728 
30   0.1811 
31   0.166546 
32   0.32625 
 
>  <lowdin_charges> 
32 
1   -0.443438 
2   -0.464439 
3   -0.447667 
4   -0.474717 
5   -0.473703 
6   -0.11886 
7   0.082291 
8   0.067887 
9   0.157489 
10   0.149475 
11   -0.104843 
12   -0.103796 
13   -0.216376 
14   -0.275717 
15   -0.270759 
16   0.146744 
17   0.158882 
18   0.143508 
19   0.20353 
20   0.163221 
21   0.156488 
22   0.175876 
23   0.170122 
24   0.159473 
25   0.17068 
26   0.167903 
27   0.170196 
28   0.158841 
29   0.167314 
30   0.175271 
31   0.165048 
32   0.284079 
 
$$$$ 
 
