PCCDB-ID:  53236 
public computational chemistry database (PCCDB) project, http://pccdb.org 
 
 29 30  0  0  0  0  0  0  0  0999 V2000 
   -1.9875    0.5996    0.4987 C   0  0  0  0  0  0  0  0  0  0  0  0 
   -1.4564   -0.6017    0.0255 C   0  0  0  0  0  0  0  0  0  0  0  0 
   -1.1353    1.6786    0.7404 C   0  0  0  0  0  0  0  0  0  0  0  0 
   -0.0868   -0.7219   -0.2049 C   0  0  0  0  0  0  0  0  0  0  0  0 
    0.2345    1.5568    0.5115 C   0  0  0  0  0  0  0  0  0  0  0  0 
    4.3568    1.1683   -0.9701 C   0  0  0  0  0  0  0  0  0  0  0  0 
    4.2957   -1.0878   -0.1441 C   0  0  0  0  0  0  0  0  0  0  0  0 
    2.9874    1.2920   -0.7411 C   0  0  0  0  0  0  0  0  0  0  0  0 
    2.9273   -0.9673    0.0803 C   0  0  0  0  0  0  0  0  0  0  0  0 
    6.5240   -0.1433   -0.9000 C   0  0  0  0  0  0  0  0  0  0  0  0 
    5.0339   -0.0189   -0.6716 C   0  0  0  0  0  0  0  0  0  0  0  0 
    0.7843    0.3548    0.0340 C   0  0  0  0  0  0  0  0  0  0  0  0 
    2.2435    0.2264   -0.2103 C   0  0  0  0  0  0  0  0  0  0  0  0 
    8.2735   -1.3685   -1.9527 N   0  0  0  0  0  0  0  0  0  0  0  0 
    6.8452   -1.4113   -1.5705 N   0  0  0  0  0  0  0  0  0  0  0  0 
   -3.0551    0.6938    0.6780 H   0  0  0  0  0  0  0  0  0  0  0  0 
   -2.1113   -1.4458   -0.1745 H   0  0  0  0  0  0  0  0  0  0  0  0 
   -1.5360    2.6159    1.1177 H   0  0  0  0  0  0  0  0  0  0  0  0 
    0.3119   -1.6527   -0.5987 H   0  0  0  0  0  0  0  0  0  0  0  0 
    0.8920    2.3940    0.7292 H   0  0  0  0  0  0  0  0  0  0  0  0 
    4.9056    2.0052   -1.3964 H   0  0  0  0  0  0  0  0  0  0  0  0 
    4.8064   -2.0178    0.0869 H   0  0  0  0  0  0  0  0  0  0  0  0 
    2.4830    2.2169   -1.0067 H   0  0  0  0  0  0  0  0  0  0  0  0 
    2.3826   -1.8009    0.5154 H   0  0  0  0  0  0  0  0  0  0  0  0 
    7.0502   -0.1489    0.0676 H   0  0  0  0  0  0  0  0  0  0  0  0 
    6.9025    0.7298   -1.4570 H   0  0  0  0  0  0  0  0  0  0  0  0 
    8.4597   -2.3166   -2.2906 H   0  0  0  0  0  0  0  0  0  0  0  0 
    8.7635   -1.3489   -1.0532 H   0  0  0  0  0  0  0  0  0  0  0  0 
    6.3600   -1.3812   -2.4698 H   0  0  0  0  0  0  0  0  0  0  0  0 
  1 16  1  0  0  0  0 
  1  3  2  0  0  0  0 
  2  1  1  0  0  0  0 
  3 18  1  0  0  0  0 
  4  2  2  0  0  0  0 
  4 12  1  0  0  0  0 
  5 20  1  0  0  0  0 
  5  3  1  0  0  0  0 
  6  8  2  0  0  0  0 
  6 11  1  0  0  0  0 
  7  9  1  0  0  0  0 
  7 22  1  0  0  0  0 
  8 13  1  0  0  0  0 
  9 24  1  0  0  0  0 
 10 11  1  0  0  0  0 
 10 25  1  0  0  0  0 
 11  7  2  0  0  0  0 
 12  5  2  0  0  0  0 
 13 12  1  0  0  0  0 
 13  9  2  0  0  0  0 
 14 15  1  0  0  0  0 
 14 28  1  0  0  0  0 
 15 10  1  0  0  0  0 
 17  2  1  0  0  0  0 
 19  4  1  0  0  0  0 
 21  6  1  0  0  0  0 
 23  8  1  0  0  0  0 
 26 10  1  0  0  0  0 
 27 14  1  0  0  0  0 
 29 15  1  0  0  0  0 
M  END 
>  <HBA> 
2 
 
>  <HBD> 
2 
 
>  <TPSA> 
38.05 
 
>  <cid> 
53236 
 
>  <dipole> 
0.47 
 
>  <excitation_energy_1> 
4.119 
 
>  <excitation_energy_2> 
4.63 
 
>  <excitation_energy_3> 
4.764 
 
>  <excitation_energy_4> 
4.85 
 
>  <homo_energy> 
-5.412 
 
>  <homo_lumo_gap> 
4.713 
 
>  <logP> 
3.408 
 
>  <lumo_energy> 
-0.699 
 
>  <melting_point> 
126.85 
 
>  <molecular_refractivity> 
62.35 
 
>  <oscillator_strength_1> 
0.0008 
 
>  <oscillator_strength_2> 
0.0086 
 
>  <oscillator_strength_3> 
0.5508 
 
>  <oscillator_strength_4> 
0.0157 
 
>  <open_babel_can_smiles> 
NNCc1ccc(cc1)c1ccccc1 
 
>  <mulliken_charges> 
29 
1   -0.127015 
2   -0.13369 
3   -0.133766 
4   -0.173991 
5   -0.173754 
6   -0.191722 
7   -0.169949 
8   -0.175673 
9   -0.17721 
10   -0.1911 
11   0.133147 
12   0.089046 
13   0.090658 
14   -0.592326 
15   -0.467327 
16   0.12891 
17   0.129755 
18   0.129742 
19   0.131997 
20   0.131632 
21   0.126566 
22   0.143965 
23   0.131692 
24   0.131946 
25   0.14823 
26   0.139315 
27   0.30627 
28   0.303812 
29   0.310841 
 
>  <lowdin_charges> 
29 
1   -0.156269 
2   -0.155976 
3   -0.154873 
4   -0.161886 
5   -0.163054 
6   -0.165705 
7   -0.157356 
8   -0.162249 
9   -0.161909 
10   -0.206095 
11   -0.015195 
12   -0.000621 
13   -0.002783 
14   -0.493674 
15   -0.319299 
16   0.155898 
17   0.158567 
18   0.157864 
19   0.159333 
20   0.159871 
21   0.157167 
22   0.166215 
23   0.159487 
24   0.160093 
25   0.145117 
26   0.135327 
27   0.253957 
28   0.252513 
29   0.255533 
 
$$$$ 
 
