PCCDB-ID:  15405 
public computational chemistry database (PCCDB) project, http://pccdb.org 
 
 19 20  0  0  1  0  0  0  0  0999 V2000 
   -1.2847    0.4867   -0.9405 C   0  0  0  0  0  0  0  0  0  0  0  0 
   -0.4414   -1.5974    0.1704 C   0  0  0  0  0  0  0  0  0  0  0  0 
    0.1882    0.8358   -1.3067 C   0  0  0  0  0  0  0  0  0  0  0  0 
    1.0033   -1.1765   -0.2319 C   0  0  0  0  0  0  0  0  0  0  0  0 
   -1.2265   -0.2820    0.4032 C   0  0  1  0  0  0  0  0  0  0  0  0 
   -0.3776    0.5552    1.3303 C   0  0  0  0  0  0  0  0  0  0  0  0 
    0.8210    0.8653    1.0001 N   0  0  0  0  0  0  0  0  0  0  0  0 
    1.1398    0.2925   -0.3156 N   0  0  0  0  0  0  0  0  0  0  0  0 
   -0.8569    0.9932    2.5208 O   0  0  0  0  0  0  0  0  0  0  0  0 
   -1.7598   -0.1459   -1.7000 H   0  0  0  0  0  0  0  0  0  0  0  0 
   -1.8954    1.3906   -0.8394 H   0  0  0  0  0  0  0  0  0  0  0  0 
   -0.4395   -2.2103    1.0784 H   0  0  0  0  0  0  0  0  0  0  0  0 
   -0.9357   -2.1796   -0.6166 H   0  0  0  0  0  0  0  0  0  0  0  0 
    0.3420    1.9179   -1.3364 H   0  0  0  0  0  0  0  0  0  0  0  0 
    0.4682    0.4309   -2.2850 H   0  0  0  0  0  0  0  0  0  0  0  0 
    1.2881   -1.5881   -1.2061 H   0  0  0  0  0  0  0  0  0  0  0  0 
    1.7346   -1.5226    0.5036 H   0  0  0  0  0  0  0  0  0  0  0  0 
   -2.2289   -0.4733    0.8046 H   0  0  0  0  0  0  0  0  0  0  0  0 
   -1.7674    0.6779    2.6263 H   0  0  0  0  0  0  0  0  0  0  0  0 
  1 11  1  0  0  0  0 
  1  5  1  0  0  0  0 
  2  5  1  0  0  0  0 
  2 12  1  0  0  0  0 
  3  1  1  0  0  0  0 
  3  8  1  0  0  0  0 
  4  2  1  0  0  0  0 
  4 17  1  0  0  0  0 
  5 18  1  1  0  0  0 
  5  6  1  0  0  0  0 
  6  9  1  0  0  0  0 
  7  6  2  0  0  0  0 
  8  4  1  0  0  0  0 
  8  7  1  0  0  0  0 
  9 19  1  0  0  0  0 
 10  1  1  0  0  0  0 
 13  2  1  0  0  0  0 
 14  3  1  0  0  0  0 
 15  3  1  0  0  0  0 
 16  4  1  0  0  0  0 
M  END 
>  <HBA> 
3 
 
>  <HBD> 
1 
 
>  <TPSA> 
32.34 
 
>  <cid> 
15405 
 
>  <dipole> 
4.99 
 
>  <excitation_energy_1> 
4.53 
 
>  <excitation_energy_2> 
4.727 
 
>  <excitation_energy_3> 
5.172 
 
>  <excitation_energy_4> 
5.571 
 
>  <homo_energy> 
-5.453 
 
>  <homo_lumo_gap> 
6.106 
 
>  <logP> 
0.01 
 
>  <lumo_energy> 
0.653 
 
>  <melting_point> 
69.8 
 
>  <molecular_refractivity> 
40.46 
 
>  <oscillator_strength_1> 
0.0025 
 
>  <oscillator_strength_2> 
0.0 
 
>  <oscillator_strength_3> 
0.0109 
 
>  <oscillator_strength_4> 
0.0197 
 
>  <open_babel_can_smiles> 
OC1=NN2CC[C@H]1CC2 
 
>  <mulliken_charges> 
19 
1   -0.278764 
2   -0.278901 
3   -0.139433 
4   -0.139702 
5   -0.190362 
6   0.500968 
7   -0.307265 
8   -0.310274 
9   -0.584757 
10   0.141396 
11   0.148034 
12   0.148021 
13   0.141446 
14   0.164469 
15   0.146453 
16   0.146499 
17   0.16453 
18   0.118725 
19   0.408918 
 
>  <lowdin_charges> 
19 
1   -0.296272 
2   -0.296091 
3   -0.214327 
4   -0.21781 
5   -0.158374 
6   0.107812 
7   -0.164623 
8   -0.12592 
9   -0.34797 
10   0.148634 
11   0.150796 
12   0.150736 
13   0.148614 
14   0.155472 
15   0.149595 
16   0.149798 
17   0.158686 
18   0.143686 
19   0.357558 
 
$$$$ 
 
