PCCDB-ID:  69355 
public computational chemistry database (PCCDB) project, http://pccdb.org 
 
 26 25  0  0  0  0  0  0  0  0999 V2000 
    0.8773   -1.1888   -2.8556 C   0  0  0  0  0  0  0  0  0  0  0  0 
    2.3885   -1.1973   -2.6038 C   0  0  0  0  0  0  0  0  0  0  0  0 
    2.7448   -1.0643   -1.1177 C   0  0  0  0  0  0  0  0  0  0  0  0 
    4.2423   -1.0361   -0.8360 C   0  0  0  0  0  0  0  0  0  0  0  0 
    6.4336   -3.0311    0.3679 C   0  0  0  0  0  0  0  0  0  0  0  0 
    6.7771   -3.2593   -2.1577 C   0  0  0  0  0  0  0  0  0  0  0  0 
    6.2333   -2.4027   -1.0146 C   0  0  0  0  0  0  0  0  0  0  0  0 
    5.7126   -4.2456    0.4894 O   0  0  0  0  0  0  0  0  0  0  0  0 
    6.4987   -2.6713   -3.4164 O   0  0  0  0  0  0  0  0  0  0  0  0 
    4.8207   -2.2698   -1.2653 O   0  0  0  0  0  0  0  0  0  0  0  0 
    0.6516   -1.2849   -3.9234 H   0  0  0  0  0  0  0  0  0  0  0  0 
    0.4200   -0.2569   -2.5007 H   0  0  0  0  0  0  0  0  0  0  0  0 
    0.3839   -2.0187   -2.3351 H   0  0  0  0  0  0  0  0  0  0  0  0 
    2.8586   -0.3752   -3.1623 H   0  0  0  0  0  0  0  0  0  0  0  0 
    2.8202   -2.1267   -2.9947 H   0  0  0  0  0  0  0  0  0  0  0  0 
    2.2944   -1.8915   -0.5521 H   0  0  0  0  0  0  0  0  0  0  0  0 
    2.3122   -0.1380   -0.7141 H   0  0  0  0  0  0  0  0  0  0  0  0 
    4.4216   -0.8839    0.2389 H   0  0  0  0  0  0  0  0  0  0  0  0 
    4.7230   -0.2028   -1.3732 H   0  0  0  0  0  0  0  0  0  0  0  0 
    6.1350   -2.3111    1.1483 H   0  0  0  0  0  0  0  0  0  0  0  0 
    7.4920   -3.2653    0.5288 H   0  0  0  0  0  0  0  0  0  0  0  0 
    6.3593   -4.2734   -2.0765 H   0  0  0  0  0  0  0  0  0  0  0  0 
    7.8662   -3.3358   -2.0740 H   0  0  0  0  0  0  0  0  0  0  0  0 
    6.7068   -1.4107   -1.0572 H   0  0  0  0  0  0  0  0  0  0  0  0 
    4.8285   -4.0524    0.1319 H   0  0  0  0  0  0  0  0  0  0  0  0 
    5.5425   -2.4984   -3.4079 H   0  0  0  0  0  0  0  0  0  0  0  0 
  1  2  1  0  0  0  0 
  1 12  1  0  0  0  0 
  1 13  1  0  0  0  0 
  2  3  1  0  0  0  0 
  3  4  1  0  0  0  0 
  3 17  1  0  0  0  0 
  3 16  1  0  0  0  0 
  4 18  1  0  0  0  0 
  5  8  1  0  0  0  0 
  5 21  1  0  0  0  0 
  5 20  1  0  0  0  0 
  6 22  1  0  0  0  0 
  6 23  1  0  0  0  0 
  6  7  1  0  0  0  0 
  7  5  1  0  0  0  0 
  9 26  1  0  0  0  0 
  9  6  1  0  0  0  0 
 10  7  1  0  0  0  0 
 10  4  1  0  0  0  0 
 11  1  1  0  0  0  0 
 14  2  1  0  0  0  0 
 15  2  1  0  0  0  0 
 19  4  1  0  0  0  0 
 24  7  1  0  0  0  0 
 25  8  1  0  0  0  0 
M  END 
>  <HBA> 
3 
 
>  <HBD> 
2 
 
>  <TPSA> 
49.69 
 
>  <cid> 
69355 
 
>  <dipole> 
2.91 
 
>  <excitation_energy_1> 
6.347 
 
>  <excitation_energy_2> 
6.474 
 
>  <excitation_energy_3> 
6.642 
 
>  <excitation_energy_4> 
6.906 
 
>  <homo_energy> 
-6.748 
 
>  <homo_lumo_gap> 
8.444 
 
>  <logP> 
0.156 
 
>  <lumo_energy> 
1.695 
 
>  <melting_point> 
1.06 
 
>  <molecular_refractivity> 
39.17 
 
>  <oscillator_strength_1> 
0.0023 
 
>  <oscillator_strength_2> 
0.0081 
 
>  <oscillator_strength_3> 
0.0001 
 
>  <oscillator_strength_4> 
0.0004 
 
>  <open_babel_can_smiles> 
CCCCOC(CO)CO 
 
>  <mulliken_charges> 
26 
1   -0.443016 
2   -0.251541 
3   -0.269013 
4   -0.025322 
5   -0.035169 
6   -0.027474 
7   0.083181 
8   -0.618198 
9   -0.627372 
10   -0.51765 
11   0.14746 
12   0.142529 
13   0.144931 
14   0.132423 
15   0.146608 
16   0.141198 
17   0.137133 
18   0.130733 
19   0.132916 
20   0.12273 
21   0.146745 
22   0.140362 
23   0.143267 
24   0.127963 
25   0.396551 
26   0.398025 
 
>  <lowdin_charges> 
26 
1   -0.443673 
2   -0.276181 
3   -0.283237 
4   -0.130105 
5   -0.146754 
6   -0.14086 
7   -0.034851 
8   -0.466241 
9   -0.465828 
10   -0.291147 
11   0.150971 
12   0.146996 
13   0.149207 
14   0.141295 
15   0.145586 
16   0.147306 
17   0.148924 
18   0.131311 
19   0.133839 
20   0.129619 
21   0.149462 
22   0.137937 
23   0.148214 
24   0.139106 
25   0.340413 
26   0.338691 
 
$$$$ 
 
