PCCDB-ID:  7921 
public computational chemistry database (PCCDB) project, http://pccdb.org 
 
 15 15  0  0  1  0  0  0  0  0999 V2000 
    0.9218   -0.0627   -0.3780 C   0  0  0  0  0  0  0  0  0  0  0  0 
    2.8326   -1.2984    0.8547 C   0  0  0  0  0  0  0  0  0  0  0  0 
    3.2074   -0.8010    2.2574 C   0  0  0  0  0  0  0  0  0  0  0  0 
    2.3687   -0.0239    0.0923 C   0  0  2  0  0  0  0  0  0  0  0  0 
    2.9992    0.7099    2.2253 C   0  0  0  0  0  0  0  0  0  0  0  0 
    3.1962    1.4982    3.1130 O   0  0  0  0  0  0  0  0  0  0  0  0 
    2.5324    1.0875    1.0050 O   0  0  0  0  0  0  0  0  0  0  0  0 
    0.7885   -0.8570   -1.1216 H   0  0  0  0  0  0  0  0  0  0  0  0 
    0.6359    0.8902   -0.8335 H   0  0  0  0  0  0  0  0  0  0  0  0 
    0.2475   -0.2591    0.4634 H   0  0  0  0  0  0  0  0  0  0  0  0 
    2.0299   -2.0412    0.8848 H   0  0  0  0  0  0  0  0  0  0  0  0 
    3.6832   -1.7623    0.3479 H   0  0  0  0  0  0  0  0  0  0  0  0 
    4.2457   -1.0049    2.5356 H   0  0  0  0  0  0  0  0  0  0  0  0 
    2.5806   -1.2169    3.0525 H   0  0  0  0  0  0  0  0  0  0  0  0 
    3.0276    0.1849   -0.7576 H   0  0  0  0  0  0  0  0  0  0  0  0 
  1  4  1  0  0  0  0 
  1 10  1  0  0  0  0 
  2 11  1  0  0  0  0 
  2  3  1  0  0  0  0 
  3 13  1  0  0  0  0 
  3 14  1  0  0  0  0 
  4 15  1  6  0  0  0 
  4  2  1  0  0  0  0 
  4  7  1  0  0  0  0 
  5  3  1  0  0  0  0 
  5  6  2  0  0  0  0 
  7  5  1  0  0  0  0 
  8  1  1  0  0  0  0 
  9  1  1  0  0  0  0 
 12  2  1  0  0  0  0 
M  END 
>  <HBA> 
2 
 
>  <HBD> 
0 
 
>  <TPSA> 
26.3 
 
>  <cid> 
7921 
 
>  <dipole> 
4.51 
 
>  <excitation_energy_1> 
5.715 
 
>  <excitation_energy_2> 
6.652 
 
>  <excitation_energy_3> 
7.221 
 
>  <excitation_energy_4> 
7.249 
 
>  <homo_energy> 
-7.151 
 
>  <homo_lumo_gap> 
7.581 
 
>  <logP> 
0.712 
 
>  <lumo_energy> 
0.43 
 
>  <melting_point> 
9.12 
 
>  <molecular_refractivity> 
25.32 
 
>  <oscillator_strength_1> 
0.0002 
 
>  <oscillator_strength_2> 
0.0097 
 
>  <oscillator_strength_3> 
0.0255 
 
>  <oscillator_strength_4> 
0.0216 
 
>  <open_babel_can_smiles> 
C[C@@H]1CCC(=O)O1 
 
>  <mulliken_charges> 
15 
1   -0.453288 
2   -0.320726 
3   -0.386768 
4   0.138253 
5   0.603673 
6   -0.453569 
7   -0.446982 
8   0.149818 
9   0.169561 
10   0.154543 
11   0.160114 
12   0.160411 
13   0.188249 
14   0.187767 
15   0.148943 
 
>  <lowdin_charges> 
15 
1   -0.452097 
2   -0.298539 
3   -0.316383 
4   0.007733 
5   0.193128 
6   -0.243286 
7   -0.18928 
8   0.157616 
9   0.164613 
10   0.156455 
11   0.158368 
12   0.159611 
13   0.176741 
14   0.178248 
15   0.147069 
 
$$$$ 
 
