PCCDB-ID:  66679 
public computational chemistry database (PCCDB) project, http://pccdb.org 
 
 29 29  0  0  0  0  0  0  0  0999 V2000 
    2.4710    0.8647    0.5108 C   0  0  0  0  0  0  0  0  0  0  0  0 
    2.0290   -2.9862   -1.8920 C   0  0  0  0  0  0  0  0  0  0  0  0 
    7.0983   -4.4031   -0.3983 C   0  0  0  0  0  0  0  0  0  0  0  0 
    2.7357    0.1090   -0.7993 C   0  0  0  0  0  0  0  0  0  0  0  0 
    2.3322   -2.3242   -0.5404 C   0  0  0  0  0  0  0  0  0  0  0  0 
    6.9429   -0.6015   -0.3593 C   0  0  0  0  0  0  0  0  0  0  0  0 
    7.4563   -1.8978   -0.3272 C   0  0  0  0  0  0  0  0  0  0  0  0 
    5.5752   -0.3654   -0.4513 C   0  0  0  0  0  0  0  0  0  0  0  0 
    5.2021   -2.7489   -0.4955 C   0  0  0  0  0  0  0  0  0  0  0  0 
    6.5768   -2.9830   -0.3955 C   0  0  0  0  0  0  0  0  0  0  0  0 
    4.6614   -1.4436   -0.5240 C   0  0  0  0  0  0  0  0  0  0  0  0 
    3.2897   -1.2271   -0.6158 N   0  0  0  0  0  0  0  0  0  0  0  0 
    2.0410    1.8528    0.3065 H   0  0  0  0  0  0  0  0  0  0  0  0 
    3.3946    1.0023    1.0820 H   0  0  0  0  0  0  0  0  0  0  0  0 
    1.7664    0.3128    1.1433 H   0  0  0  0  0  0  0  0  0  0  0  0 
    1.2976   -3.7947   -1.7714 H   0  0  0  0  0  0  0  0  0  0  0  0 
    2.9361   -3.4056   -2.3384 H   0  0  0  0  0  0  0  0  0  0  0  0 
    1.6150   -2.2578   -2.5986 H   0  0  0  0  0  0  0  0  0  0  0  0 
    8.1289   -4.4495   -0.0318 H   0  0  0  0  0  0  0  0  0  0  0  0 
    7.0909   -4.8299   -1.4103 H   0  0  0  0  0  0  0  0  0  0  0  0 
    6.4864   -5.0590    0.2318 H   0  0  0  0  0  0  0  0  0  0  0  0 
    3.3998    0.6913   -1.4473 H   0  0  0  0  0  0  0  0  0  0  0  0 
    1.7956    0.0050   -1.3546 H   0  0  0  0  0  0  0  0  0  0  0  0 
    2.6914   -3.0698    0.1773 H   0  0  0  0  0  0  0  0  0  0  0  0 
    1.4038   -1.9250   -0.1140 H   0  0  0  0  0  0  0  0  0  0  0  0 
    7.6183    0.2487   -0.2988 H   0  0  0  0  0  0  0  0  0  0  0  0 
    8.5270   -2.0656   -0.2463 H   0  0  0  0  0  0  0  0  0  0  0  0 
    5.2219    0.6587   -0.4456 H   0  0  0  0  0  0  0  0  0  0  0  0 
    4.5460   -3.6096   -0.5673 H   0  0  0  0  0  0  0  0  0  0  0  0 
  1 14  1  0  0  0  0 
  1 15  1  0  0  0  0 
  2 16  1  0  0  0  0 
  2  5  1  0  0  0  0 
  3 10  1  0  0  0  0 
  3 19  1  0  0  0  0 
  3 21  1  0  0  0  0 
  4 12  1  0  0  0  0 
  4  1  1  0  0  0  0 
  5 25  1  0  0  0  0 
  5 24  1  0  0  0  0 
  6  7  1  0  0  0  0 
  6 26  1  0  0  0  0 
  7 27  1  0  0  0  0 
  8 28  1  0  0  0  0 
  8  6  2  0  0  0  0 
  9 10  1  0  0  0  0 
 10  7  2  0  0  0  0 
 11  9  2  0  0  0  0 
 11  8  1  0  0  0  0 
 12  5  1  0  0  0  0 
 12 11  1  0  0  0  0 
 13  1  1  0  0  0  0 
 17  2  1  0  0  0  0 
 18  2  1  0  0  0  0 
 20  3  1  0  0  0  0 
 22  4  1  0  0  0  0 
 23  4  1  0  0  0  0 
 29  9  1  0  0  0  0 
M  END 
>  <HBA> 
1 
 
>  <HBD> 
0 
 
>  <TPSA> 
3.24 
 
>  <cid> 
66679 
 
>  <dipole> 
1.8 
 
>  <excitation_energy_1> 
4.315 
 
>  <excitation_energy_2> 
4.37 
 
>  <excitation_energy_3> 
4.729 
 
>  <excitation_energy_4> 
4.867 
 
>  <homo_energy> 
-4.83 
 
>  <homo_lumo_gap> 
5.195 
 
>  <logP> 
2.841 
 
>  <lumo_energy> 
0.365 
 
>  <melting_point> 
16.17 
 
>  <molecular_refractivity> 
55.23 
 
>  <oscillator_strength_1> 
0.0243 
 
>  <oscillator_strength_2> 
0.0374 
 
>  <oscillator_strength_3> 
0.1106 
 
>  <oscillator_strength_4> 
0.0008 
 
>  <open_babel_can_smiles> 
CCN(c1cccc(c1)C)CC 
 
>  <mulliken_charges> 
29 
1   -0.442071 
2   -0.442103 
3   -0.529229 
4   -0.1488 
5   -0.147545 
6   -0.134149 
7   -0.193852 
8   -0.197951 
9   -0.254201 
10   0.177472 
11   0.373062 
12   -0.479775 
13   0.140791 
14   0.162012 
15   0.147843 
16   0.140694 
17   0.161907 
18   0.147818 
19   0.152436 
20   0.160084 
21   0.15251 
22   0.153719 
23   0.143407 
24   0.15358 
25   0.143375 
26   0.118699 
27   0.108415 
28   0.119016 
29   0.112835 
 
>  <lowdin_charges> 
29 
1   -0.457799 
2   -0.458866 
3   -0.441647 
4   -0.196688 
5   -0.197211 
6   -0.147249 
7   -0.203771 
8   -0.219598 
9   -0.228235 
10   0.010802 
11   0.066465 
12   -0.118775 
13   0.149981 
14   0.156918 
15   0.151776 
16   0.150917 
17   0.157165 
18   0.151604 
19   0.15445 
20   0.15812 
21   0.1567 
22   0.151619 
23   0.146116 
24   0.151109 
25   0.146537 
26   0.153747 
27   0.147822 
28   0.154514 
29   0.153478 
 
$$$$ 
 
