PCCDB-ID:  51361 
public computational chemistry database (PCCDB) project, http://pccdb.org 
 
 27 28  0  0  0  0  0  0  0  0999 V2000 
    0.7450    0.6555    0.1478 C   0  0  0  0  0  0  0  0  0  0  0  0 
    5.9094   -4.8484   -0.2959 C   0  0  0  0  0  0  0  0  0  0  0  0 
    6.6807    0.9238   -0.0039 C   0  0  0  0  0  0  0  0  0  0  0  0 
    5.4795    1.6094    0.1603 C   0  0  0  0  0  0  0  0  0  0  0  0 
    6.6996   -0.4564   -0.2557 C   0  0  0  0  0  0  0  0  0  0  0  0 
    2.1837    0.3041    0.0333 C   0  0  0  0  0  0  0  0  0  0  0  0 
    6.1832   -3.4457    0.1760 C   0  0  0  0  0  0  0  0  0  0  0  0 
    4.3193    0.8563    0.0553 C   0  0  0  0  0  0  0  0  0  0  0  0 
    5.5124   -1.1723   -0.3442 C   0  0  0  0  0  0  0  0  0  0  0  0 
    2.8542   -0.8715   -0.2159 C   0  0  0  0  0  0  0  0  0  0  0  0 
    4.2742   -0.5263   -0.1984 C   0  0  0  0  0  0  0  0  0  0  0  0 
    2.1466   -2.1581   -0.4628 C   0  0  0  0  0  0  0  0  0  0  0  0 
    6.8677   -3.1070    1.1009 O   0  0  0  0  0  0  0  0  0  0  0  0 
    0.9605   -2.3147   -0.2567 O   0  0  0  0  0  0  0  0  0  0  0  0 
    2.8747   -3.1800   -0.9630 O   0  0  0  0  0  0  0  0  0  0  0  0 
    3.0489    1.3489    0.1921 O   0  0  0  0  0  0  0  0  0  0  0  0 
    5.5078   -2.5413   -0.6457 O   0  0  0  0  0  0  0  0  0  0  0  0 
    0.1349   -0.2257   -0.0431 H   0  0  0  0  0  0  0  0  0  0  0  0 
    0.4926    1.4549   -0.5590 H   0  0  0  0  0  0  0  0  0  0  0  0 
    0.5278    1.0303    1.1559 H   0  0  0  0  0  0  0  0  0  0  0  0 
    6.4264   -5.5533    0.3553 H   0  0  0  0  0  0  0  0  0  0  0  0 
    6.2540   -4.9720   -1.3280 H   0  0  0  0  0  0  0  0  0  0  0  0 
    4.8320   -5.0449   -0.2818 H   0  0  0  0  0  0  0  0  0  0  0  0 
    7.6214    1.4604    0.0675 H   0  0  0  0  0  0  0  0  0  0  0  0 
    5.4403    2.6743    0.3609 H   0  0  0  0  0  0  0  0  0  0  0  0 
    7.6419   -0.9771   -0.3735 H   0  0  0  0  0  0  0  0  0  0  0  0 
    3.8138   -2.9304   -1.0748 H   0  0  0  0  0  0  0  0  0  0  0  0 
  1 20  1  0  0  0  0 
  2 23  1  0  0  0  0 
  2  7  1  0  0  0  0 
  2 21  1  0  0  0  0 
  3 24  1  0  0  0  0 
  3  4  2  0  0  0  0 
  4 25  1  0  0  0  0 
  5  3  1  0  0  0  0 
  6  1  1  0  0  0  0 
  6 16  1  0  0  0  0 
  7 13  2  0  0  0  0 
  8  4  1  0  0  0  0 
  8 16  1  0  0  0  0 
  9  5  2  0  0  0  0 
  9 11  1  0  0  0  0 
 10 11  1  0  0  0  0 
 10  6  2  0  0  0  0 
 11  8  2  0  0  0  0 
 12 14  2  0  0  0  0 
 12 10  1  0  0  0  0 
 15 12  1  0  0  0  0 
 17  9  1  0  0  0  0 
 17  7  1  0  0  0  0 
 18  1  1  0  0  0  0 
 19  1  1  0  0  0  0 
 22  2  1  0  0  0  0 
 26  5  1  0  0  0  0 
 27 15  1  0  0  0  0 
M  END 
>  <HBA> 
5 
 
>  <HBD> 
1 
 
>  <TPSA> 
76.74 
 
>  <cid> 
51361 
 
>  <dipole> 
3.48 
 
>  <excitation_energy_1> 
4.713 
 
>  <excitation_energy_2> 
4.867 
 
>  <excitation_energy_3> 
4.925 
 
>  <excitation_energy_4> 
5.108 
 
>  <homo_energy> 
-6.389 
 
>  <homo_lumo_gap> 
5.165 
 
>  <logP> 
2.365 
 
>  <lumo_energy> 
-1.225 
 
>  <melting_point> 
170.89 
 
>  <molecular_refractivity> 
59.64 
 
>  <oscillator_strength_1> 
0.1619 
 
>  <oscillator_strength_2> 
0.0205 
 
>  <oscillator_strength_3> 
0.0152 
 
>  <oscillator_strength_4> 
0.0074 
 
>  <open_babel_can_smiles> 
CC(=O)Oc1cccc2c1c(C(=O)O)c(o2)C 
 
>  <mulliken_charges> 
27 
1   -0.545242 
2   -0.544178 
3   -0.159267 
4   -0.174793 
5   -0.135386 
6   0.333155 
7   0.602901 
8   0.300294 
9   0.277255 
10   -0.065383 
11   0.045933 
12   0.569732 
13   -0.419698 
14   -0.471452 
15   -0.6182 
16   -0.499361 
17   -0.579675 
18   0.225353 
19   0.175986 
20   0.180763 
21   0.195609 
22   0.193501 
23   0.208942 
24   0.146189 
25   0.154813 
26   0.152226 
27   0.449981 
 
>  <lowdin_charges> 
27 
1   -0.452524 
2   -0.465302 
3   -0.147609 
4   -0.170567 
5   -0.169815 
6   0.138262 
7   0.218936 
8   0.091169 
9   0.091318 
10   -0.12428 
11   -0.050452 
12   0.195345 
13   -0.211499 
14   -0.262703 
15   -0.368193 
16   -0.099494 
17   -0.195051 
18   0.199558 
19   0.174356 
20   0.176255 
21   0.185115 
22   0.184032 
23   0.189507 
24   0.167988 
25   0.17422 
26   0.176285 
27   0.355145 
 
$$$$ 
 
