PCCDB-ID:  70692 
public computational chemistry database (PCCDB) project, http://pccdb.org 
 
 19 18  0  0  0  0  0  0  0  0999 V2000 
    1.2880    1.4464    1.1168 C   0  0  0  0  0  0  0  0  0  0  0  0 
    1.7168    0.2396   -3.2936 C   0  0  0  0  0  0  0  0  0  0  0  0 
    0.4392    1.0614    2.2463 C   0  0  0  0  0  0  0  0  0  0  0  0 
    1.1065    0.8779   -4.4614 C   0  0  0  0  0  0  0  0  0  0  0  0 
    1.6028    0.2333    0.2078 C   0  0  0  0  0  0  0  0  0  0  0  0 
    1.8832    1.2448   -2.1284 C   0  0  0  0  0  0  0  0  0  0  0  0 
   -0.2368    0.7261    3.1279 N   0  0  0  0  0  0  0  0  0  0  0  0 
    0.6140    1.4086   -5.3684 N   0  0  0  0  0  0  0  0  0  0  0  0 
    3.7438    0.3559   -0.8115 N   0  0  0  0  0  0  0  0  0  0  0  0 
    2.4233    0.6012   -0.9346 N   0  0  0  0  0  0  0  0  0  0  0  0 
    4.4150    0.6821   -1.7824 O   0  0  0  0  0  0  0  0  0  0  0  0 
    2.2260    1.8692    1.4941 H   0  0  0  0  0  0  0  0  0  0  0  0 
    0.7806    2.2347    0.5475 H   0  0  0  0  0  0  0  0  0  0  0  0 
    2.6999   -0.1565   -3.5659 H   0  0  0  0  0  0  0  0  0  0  0  0 
    1.0910   -0.6050   -2.9821 H   0  0  0  0  0  0  0  0  0  0  0  0 
    0.6740   -0.2261   -0.1455 H   0  0  0  0  0  0  0  0  0  0  0  0 
    2.1603   -0.5173    0.7722 H   0  0  0  0  0  0  0  0  0  0  0  0 
    0.9210    1.6939   -1.8713 H   0  0  0  0  0  0  0  0  0  0  0  0 
    2.5751    2.0361   -2.4282 H   0  0  0  0  0  0  0  0  0  0  0  0 
  1 12  1  0  0  0  0 
  1  3  1  0  0  0  0 
  2 15  1  0  0  0  0 
  2  6  1  0  0  0  0 
  3  7  3  0  0  0  0 
  4  2  1  0  0  0  0 
  5 17  1  0  0  0  0 
  5  1  1  0  0  0  0 
  6 18  1  0  0  0  0 
  6 10  1  0  0  0  0 
  8  4  3  0  0  0  0 
 10  9  1  0  0  0  0 
 10  5  1  0  0  0  0 
 11  9  1  0  0  0  0 
 13  1  1  0  0  0  0 
 14  2  1  0  0  0  0 
 16  5  1  0  0  0  0 
 19  6  1  0  0  0  0 
M  RAD  2   9   2  11   2 
M  END 
>  <HBA> 
5 
 
>  <HBD> 
0 
 
>  <TPSA> 
80.25 
 
>  <cid> 
70692 
 
>  <dipole> 
0.88 
 
>  <excitation_energy_1> 
3.32 
 
>  <excitation_energy_2> 
5.748 
 
>  <excitation_energy_3> 
5.883 
 
>  <excitation_energy_4> 
6.34 
 
>  <homo_energy> 
-7.023 
 
>  <homo_lumo_gap> 
5.178 
 
>  <logP> 
0.797 
 
>  <lumo_energy> 
-1.845 
 
>  <melting_point> 
62.93 
 
>  <molecular_refractivity> 
38.09 
 
>  <oscillator_strength_1> 
0.0012 
 
>  <oscillator_strength_2> 
0.1636 
 
>  <oscillator_strength_3> 
0.002 
 
>  <oscillator_strength_4> 
0.0002 
 
>  <open_babel_can_smiles> 
[O][N]N(CCC#N)CCC#N 
 
>  <mulliken_charges> 
19 
1   -0.345126 
2   -0.342347 
3   0.350168 
4   0.348804 
5   -0.14822 
6   -0.156542 
7   -0.45233 
8   -0.456314 
9   0.166472 
10   -0.234765 
11   -0.362806 
12   0.21814 
13   0.20313 
14   0.231362 
15   0.19935 
16   0.183609 
17   0.208343 
18   0.179297 
19   0.209774 
 
>  <lowdin_charges> 
19 
1   -0.283149 
2   -0.279109 
3   -0.020134 
4   -0.018895 
5   -0.196582 
6   -0.20788 
7   -0.107585 
8   -0.112142 
9   0.064121 
10   -0.04992 
11   -0.251999 
12   0.193395 
13   0.185317 
14   0.199312 
15   0.183921 
16   0.166326 
17   0.18433 
18   0.167243 
19   0.183431 
 
$$$$ 
 
