PCCDB-ID:  34740 
public computational chemistry database (PCCDB) project, http://pccdb.org 
 
 17 17  0  0  1  0  0  0  0  0999 V2000 
    1.0690   -0.0145    0.4404 C   0  0  0  0  0  0  0  0  0  0  0  0 
    2.9854    0.8978   -1.0522 C   0  0  0  0  0  0  0  0  0  0  0  0 
    4.2585   -1.0133   -1.2756 C   0  0  0  0  0  0  0  0  0  0  0  0 
    2.5503   -0.0821    0.0734 C   0  0  2  0  0  0  0  0  0  0  0  0 
    3.0259   -1.4490   -0.4864 C   0  0  1  0  0  0  0  0  0  0  0  0 
    2.0727   -2.0646   -1.3447 O   0  0  0  0  0  0  0  0  0  0  0  0 
    3.7974    0.1474   -1.9727 O   0  0  0  0  0  0  0  0  0  0  0  0 
    0.7915    0.9928    0.7727 H   0  0  0  0  0  0  0  0  0  0  0  0 
    0.8325   -0.7114    1.2522 H   0  0  0  0  0  0  0  0  0  0  0  0 
    0.4428   -0.2819   -0.4160 H   0  0  0  0  0  0  0  0  0  0  0  0 
    3.5576    1.7472   -0.6534 H   0  0  0  0  0  0  0  0  0  0  0  0 
    2.1349    1.2969   -1.6168 H   0  0  0  0  0  0  0  0  0  0  0  0 
    4.5808   -1.7490   -2.0174 H   0  0  0  0  0  0  0  0  0  0  0  0 
    5.1053   -0.7739   -0.6109 H   0  0  0  0  0  0  0  0  0  0  0  0 
    3.1502    0.1248    0.9694 H   0  0  0  0  0  0  0  0  0  0  0  0 
    3.2383   -2.1744    0.3041 H   0  0  0  0  0  0  0  0  0  0  0  0 
    2.0496   -1.5242   -2.1531 H   0  0  0  0  0  0  0  0  0  0  0  0 
  1  8  1  0  0  0  0 
  1  9  1  0  0  0  0 
  2 11  1  0  0  0  0 
  2  4  1  0  0  0  0 
  3 14  1  0  0  0  0 
  3  5  1  0  0  0  0 
  4  1  1  0  0  0  0 
  4 15  1  1  0  0  0 
  5  4  1  0  0  0  0 
  5 16  1  1  0  0  0 
  6  5  1  0  0  0  0 
  7  3  1  0  0  0  0 
  7  2  1  0  0  0  0 
 10  1  1  0  0  0  0 
 12  2  1  0  0  0  0 
 13  3  1  0  0  0  0 
 17  6  1  0  0  0  0 
M  END 
>  <HBA> 
2 
 
>  <HBD> 
1 
 
>  <TPSA> 
29.46 
 
>  <cid> 
34740 
 
>  <dipole> 
1.46 
 
>  <excitation_energy_1> 
6.159 
 
>  <excitation_energy_2> 
6.58 
 
>  <excitation_energy_3> 
6.815 
 
>  <excitation_energy_4> 
6.962 
 
>  <homo_energy> 
-6.727 
 
>  <homo_lumo_gap> 
8.689 
 
>  <logP> 
0.014 
 
>  <lumo_energy> 
1.962 
 
>  <melting_point> 
6.35 
 
>  <molecular_refractivity> 
26.28 
 
>  <oscillator_strength_1> 
0.009 
 
>  <oscillator_strength_2> 
0.0081 
 
>  <oscillator_strength_3> 
0.0038 
 
>  <oscillator_strength_4> 
0.0202 
 
>  <open_babel_can_smiles> 
O[C@H]1COC[C@H]1C 
 
>  <mulliken_charges> 
17 
1   -0.443747 
2   -0.028449 
3   -0.060958 
4   -0.14278 
5   0.121727 
6   -0.624501 
7   -0.492527 
8   0.141249 
9   0.149607 
10   0.154702 
11   0.134531 
12   0.142605 
13   0.156787 
14   0.125387 
15   0.132527 
16   0.137917 
17   0.395921 
 
>  <lowdin_charges> 
17 
1   -0.442265 
2   -0.144148 
3   -0.154724 
4   -0.16281 
5   -0.020286 
6   -0.457038 
7   -0.290103 
8   0.148297 
9   0.155192 
10   0.155538 
11   0.138896 
12   0.144756 
13   0.156333 
14   0.132743 
15   0.145871 
16   0.149589 
17   0.344161 
 
$$$$ 
 
