PCCDB-ID:  15079 
public computational chemistry database (PCCDB) project, http://pccdb.org 
 
 23 24  0  0  0  0  0  0  0  0999 V2000 
    2.2287   -0.3602    1.1212 C   0  0  0  0  0  0  0  0  0  0  0  0 
    3.0032    1.6446   -0.1489 C   0  0  0  0  0  0  0  0  0  0  0  0 
    3.9302    0.0021   -2.2383 C   0  0  0  0  0  0  0  0  0  0  0  0 
    4.4357   -0.7718   -3.3009 C   0  0  0  0  0  0  0  0  0  0  0  0 
    3.2985   -0.5591   -1.1194 C   0  0  0  0  0  0  0  0  0  0  0  0 
    4.3688   -2.1470   -3.3371 C   0  0  0  0  0  0  0  0  0  0  0  0 
    3.2289   -2.0119   -1.1359 C   0  0  0  0  0  0  0  0  0  0  0  0 
    3.7541   -2.8012   -2.2278 C   0  0  0  0  0  0  0  0  0  0  0  0 
    2.7248   -2.8370   -0.2358 N   0  0  0  0  0  0  0  0  0  0  0  0 
    3.5484   -4.0800   -1.9598 N   0  0  0  0  0  0  0  0  0  0  0  0 
    2.7920    0.2008   -0.1085 N   0  0  0  0  0  0  0  0  0  0  0  0 
    4.9124   -2.8721   -4.4616 N   0  0  0  0  0  0  0  0  0  0  0  0 
    5.4314   -2.2177   -5.3743 O   0  0  0  0  0  0  0  0  0  0  0  0 
    4.8249   -4.1009   -4.4413 O   0  0  0  0  0  0  0  0  0  0  0  0 
    2.9198   -4.0807   -0.7383 O   0  0  0  0  0  0  0  0  0  0  0  0 
    1.5836    0.3922    1.5791 H   0  0  0  0  0  0  0  0  0  0  0  0 
    3.0127   -0.6376    1.8388 H   0  0  0  0  0  0  0  0  0  0  0  0 
    1.6365   -1.2476    0.9071 H   0  0  0  0  0  0  0  0  0  0  0  0 
    2.5466    2.0937    0.7330 H   0  0  0  0  0  0  0  0  0  0  0  0 
    2.5385    2.0846   -1.0392 H   0  0  0  0  0  0  0  0  0  0  0  0 
    4.0720    1.8972   -0.1532 H   0  0  0  0  0  0  0  0  0  0  0  0 
    4.0406    1.0751   -2.3123 H   0  0  0  0  0  0  0  0  0  0  0  0 
    4.9080   -0.2732   -4.1396 H   0  0  0  0  0  0  0  0  0  0  0  0 
  1 16  1  0  0  0  0 
  1 17  1  0  0  0  0 
  2 11  1  0  0  0  0 
  2 19  1  0  0  0  0 
  3  5  2  0  0  0  0 
  4  3  1  0  0  0  0 
  5 11  1  0  0  0  0 
  6  4  2  0  0  0  0 
  6  8  1  0  0  0  0 
  7  5  1  0  0  0  0 
  7  9  2  0  0  0  0 
  8 10  2  0  0  0  0 
  8  7  1  0  0  0  0 
 10 15  1  0  0  0  0 
 11  1  1  0  0  0  0 
 12 14  2  0  0  0  0 
 12  6  1  0  0  0  0 
 13 12  2  0  0  0  0 
 15  9  1  0  0  0  0 
 18  1  1  0  0  0  0 
 20  2  1  0  0  0  0 
 21  2  1  0  0  0  0 
 22  3  1  0  0  0  0 
 23  4  1  0  0  0  0 
M  END 
>  <HBA> 
4 
 
>  <HBD> 
0 
 
>  <TPSA> 
87.98 
 
>  <cid> 
15079 
 
>  <dipole> 
9.71 
 
>  <excitation_energy_1> 
3.07 
 
>  <excitation_energy_2> 
3.53 
 
>  <excitation_energy_3> 
4.008 
 
>  <excitation_energy_4> 
4.094 
 
>  <homo_energy> 
-6.177 
 
>  <homo_lumo_gap> 
3.393 
 
>  <logP> 
1.72 
 
>  <lumo_energy> 
-2.784 
 
>  <melting_point> 
128.04 
 
>  <molecular_refractivity> 
54.83 
 
>  <oscillator_strength_1> 
0.2668 
 
>  <oscillator_strength_2> 
0.0 
 
>  <oscillator_strength_3> 
0.1827 
 
>  <oscillator_strength_4> 
0.0004 
 
>  <open_babel_can_smiles> 
CN(c1ccc(c2c1non2)N(=O)=O)C 
 
>  <mulliken_charges> 
23 
1   -0.329264 
2   -0.326488 
3   -0.237536 
4   -0.174927 
5   0.43522 
6   0.301096 
7   0.235116 
8   0.277413 
9   -0.24551 
10   -0.225615 
11   -0.492541 
12   0.35465 
13   -0.421619 
14   -0.398319 
15   -0.182345 
16   0.164741 
17   0.177247 
18   0.216074 
19   0.17502 
20   0.180895 
21   0.177288 
22   0.148143 
23   0.191262 
 
>  <lowdin_charges> 
23 
1   -0.357386 
2   -0.350067 
3   -0.232381 
4   -0.102182 
5   0.07926 
6   -0.045235 
7   -0.016738 
8   0.005709 
9   -0.051579 
10   -0.028721 
11   -0.065827 
12   0.306789 
13   -0.275132 
14   -0.237212 
15   0.001797 
16   0.162968 
17   0.161394 
18   0.186172 
19   0.169685 
20   0.164408 
21   0.158595 
22   0.170954 
23   0.19473 
 
$$$$ 
 
