PCCDB-ID:  32263 
public computational chemistry database (PCCDB) project, http://pccdb.org 
 
 26 26  0  0  1  0  0  0  0  0999 V2000 
    2.0858   -2.6713   -3.3400 C   0  0  0  0  0  0  0  0  0  0  0  0 
    6.7690    0.5268    3.5095 C   0  0  0  0  0  0  0  0  0  0  0  0 
    3.4743   -2.4816   -2.7567 C   0  0  0  0  0  0  0  0  0  0  0  0 
    6.6910   -1.9444    0.2573 C   0  0  0  0  0  0  0  0  0  0  0  0 
    3.8854   -1.8242    0.8442 C   0  0  0  0  0  0  0  0  0  0  0  0 
    7.3372   -0.8727    3.4906 C   0  0  1  0  0  0  0  0  0  0  0  0 
    6.3323   -1.7554    1.5552 C   0  0  0  0  0  0  0  0  0  0  0  0 
    4.8527   -1.6489    1.9129 C   0  0  0  0  0  0  0  0  0  0  0  0 
    5.7231   -2.0613   -0.8234 C   0  0  0  0  0  0  0  0  0  0  0  0 
    4.2520   -2.0309   -0.4483 C   0  0  0  0  0  0  0  0  0  0  0  0 
    7.2296   -1.7580    2.5832 N   0  0  0  0  0  0  0  0  0  0  0  0 
    8.1243   -1.1960    4.5436 O   0  0  0  0  0  0  0  0  0  0  0  0 
    4.5237   -1.4017    3.0707 O   0  0  0  0  0  0  0  0  0  0  0  0 
    6.0738   -2.1779   -1.9970 O   0  0  0  0  0  0  0  0  0  0  0  0 
    3.2771   -2.1655   -1.3548 O   0  0  0  0  0  0  0  0  0  0  0  0 
    2.1655   -2.8982   -4.4088 H   0  0  0  0  0  0  0  0  0  0  0  0 
    1.4857   -1.7633   -3.2229 H   0  0  0  0  0  0  0  0  0  0  0  0 
    1.5626   -3.4972   -2.8478 H   0  0  0  0  0  0  0  0  0  0  0  0 
    6.2815    0.7699    2.5655 H   0  0  0  0  0  0  0  0  0  0  0  0 
    7.5727    1.2537    3.6838 H   0  0  0  0  0  0  0  0  0  0  0  0 
    6.0292    0.6211    4.3109 H   0  0  0  0  0  0  0  0  0  0  0  0 
    4.0138   -1.6654   -3.2414 H   0  0  0  0  0  0  0  0  0  0  0  0 
    4.0818   -3.3850   -2.8472 H   0  0  0  0  0  0  0  0  0  0  0  0 
    7.7342   -2.0180   -0.0315 H   0  0  0  0  0  0  0  0  0  0  0  0 
    2.8363   -1.7764    1.1162 H   0  0  0  0  0  0  0  0  0  0  0  0 
    8.1743   -0.4431    5.1531 H   0  0  0  0  0  0  0  0  0  0  0  0 
  1 17  1  0  0  0  0 
  1 18  1  0  0  0  0 
  1  3  1  0  0  0  0 
  2 20  1  0  0  0  0 
  2 21  1  0  0  0  0 
  3 15  1  0  0  0  0 
  4  7  2  0  0  0  0 
  5 25  1  0  0  0  0 
  5  8  1  0  0  0  0 
  6 11  1  6  0  0  0 
  6  2  1  0  0  0  0 
  6 12  1  0  0  0  0 
  7  8  1  0  0  0  0 
  7 11  1  0  0  0  0 
  8 13  2  0  0  0  0 
  9 10  1  0  0  0  0 
  9  4  1  0  0  0  0 
 10  5  2  0  0  0  0 
 12 26  1  0  0  0  0 
 14  9  2  0  0  0  0 
 15 10  1  0  0  0  0 
 16  1  1  0  0  0  0 
 19  2  1  0  0  0  0 
 22  3  1  0  0  0  0 
 23  3  1  0  0  0  0 
 24  4  1  0  0  0  0 
M  RAD  2   6   2  11   2 
M  END 
>  <HBA> 
5 
 
>  <HBD> 
1 
 
>  <TPSA> 
72.47 
 
>  <cid> 
32263 
 
>  <dipole> 
3.11 
 
>  <excitation_energy_1> 
2.53 
 
>  <excitation_energy_2> 
2.791 
 
>  <excitation_energy_3> 
2.91 
 
>  <excitation_energy_4> 
3.732 
 
>  <homo_energy> 
-6.237 
 
>  <homo_lumo_gap> 
3.336 
 
>  <logP> 
0.469 
 
>  <lumo_energy> 
-2.901 
 
>  <melting_point> 
102.18 
 
>  <molecular_refractivity> 
51.61 
 
>  <oscillator_strength_1> 
0.0037 
 
>  <oscillator_strength_2> 
0.0009 
 
>  <oscillator_strength_3> 
0.0003 
 
>  <oscillator_strength_4> 
0.2821 
 
>  <open_babel_can_smiles> 
CCOC1=CC(=O)C(=CC1=O)[N][C](O)C 
 
>  <mulliken_charges> 
26 
1   -0.460536 
2   -0.538428 
3   -0.026247 
4   -0.263425 
5   -0.283933 
6   0.518431 
7   0.233256 
8   0.442392 
9   0.413545 
10   0.373256 
11   -0.45919 
12   -0.555463 
13   -0.501432 
14   -0.490943 
15   -0.504653 
16   0.153663 
17   0.161851 
18   0.161915 
19   0.188779 
20   0.164866 
21   0.205955 
22   0.168925 
23   0.165366 
24   0.157302 
25   0.1579 
26   0.416849 
 
>  <lowdin_charges> 
26 
1   -0.451122 
2   -0.47523 
3   -0.116888 
4   -0.222107 
5   -0.236033 
6   0.179702 
7   0.04618 
8   0.13649 
9   0.13085 
10   0.102593 
11   -0.147886 
12   -0.338149 
13   -0.245805 
14   -0.239791 
15   -0.169308 
16   0.158656 
17   0.159382 
18   0.159993 
19   0.180625 
20   0.165426 
21   0.187761 
22   0.158297 
23   0.155652 
24   0.178114 
25   0.179114 
26   0.363482 
 
$$$$ 
 
