PCCDB-ID:  31464 
public computational chemistry database (PCCDB) project, http://pccdb.org 
 
 26 26  0  0  1  0  0  0  0  0999 V2000 
    1.0126    0.2365    1.0982 C   0  0  0  0  0  0  0  0  0  0  0  0 
    5.7810   -1.0379    5.6532 C   0  0  0  0  0  0  0  0  0  0  0  0 
    2.5375    0.2766    0.9506 C   0  0  0  0  0  0  0  0  0  0  0  0 
    3.2365   -0.8461    1.7293 C   0  0  0  0  0  0  0  0  0  0  0  0 
    5.3756   -2.1558    2.1823 C   0  0  0  0  0  0  0  0  0  0  0  0 
    5.4749    0.3031    2.2495 C   0  0  0  0  0  0  0  0  0  0  0  0 
    5.9380   -1.0030    4.1489 C   0  0  1  0  0  0  0  0  0  0  0  0 
    4.7680   -0.8830    1.5705 C   0  0  2  0  0  0  0  0  0  0  0  0 
    5.2848   -2.1334    3.6058 O   0  0  0  0  0  0  0  0  0  0  0  0 
    5.3807    0.2056    3.6700 O   0  0  0  0  0  0  0  0  0  0  0  0 
    0.5345    1.0431    0.5308 H   0  0  0  0  0  0  0  0  0  0  0  0 
    0.7145    0.3444    2.1481 H   0  0  0  0  0  0  0  0  0  0  0  0 
    0.6041   -0.7145    0.7348 H   0  0  0  0  0  0  0  0  0  0  0  0 
    6.2122   -1.9597    6.0533 H   0  0  0  0  0  0  0  0  0  0  0  0 
    4.7184   -1.0011    5.9098 H   0  0  0  0  0  0  0  0  0  0  0  0 
    6.2860   -0.1783    6.1026 H   0  0  0  0  0  0  0  0  0  0  0  0 
    2.9031    1.2553    1.2889 H   0  0  0  0  0  0  0  0  0  0  0  0 
    2.8032    0.2023   -0.1141 H   0  0  0  0  0  0  0  0  0  0  0  0 
    2.8297   -1.8109    1.3922 H   0  0  0  0  0  0  0  0  0  0  0  0 
    2.9933   -0.7669    2.7955 H   0  0  0  0  0  0  0  0  0  0  0  0 
    6.4337   -2.2508    1.8813 H   0  0  0  0  0  0  0  0  0  0  0  0 
    4.8471   -3.0568    1.8560 H   0  0  0  0  0  0  0  0  0  0  0  0 
    5.0301    1.2649    1.9811 H   0  0  0  0  0  0  0  0  0  0  0  0 
    6.5369    0.3252    1.9490 H   0  0  0  0  0  0  0  0  0  0  0  0 
    7.0047   -1.0382    3.8492 H   0  0  0  0  0  0  0  0  0  0  0  0 
    5.0204   -0.8658    0.4991 H   0  0  0  0  0  0  0  0  0  0  0  0 
  1 12  1  0  0  0  0 
  2 15  1  0  0  0  0 
  2 14  1  0  0  0  0 
  2 16  1  0  0  0  0 
  3  1  1  0  0  0  0 
  3 17  1  0  0  0  0 
  3  4  1  0  0  0  0 
  4 20  1  0  0  0  0 
  5  9  1  0  0  0  0 
  6 10  1  0  0  0  0 
  7 25  1  6  0  0  0 
  7  2  1  0  0  0  0 
  8 26  1  6  0  0  0 
  8  4  1  0  0  0  0 
  8  5  1  0  0  0  0 
  8  6  1  0  0  0  0 
  9  7  1  0  0  0  0 
 10  7  1  0  0  0  0 
 11  1  1  0  0  0  0 
 13  1  1  0  0  0  0 
 18  3  1  0  0  0  0 
 19  4  1  0  0  0  0 
 21  5  1  0  0  0  0 
 22  5  1  0  0  0  0 
 23  6  1  0  0  0  0 
 24  6  1  0  0  0  0 
M  END 
>  <HBA> 
2 
 
>  <HBD> 
0 
 
>  <TPSA> 
18.46 
 
>  <cid> 
31464 
 
>  <dipole> 
1.57 
 
>  <excitation_energy_1> 
6.424 
 
>  <excitation_energy_2> 
6.747 
 
>  <excitation_energy_3> 
6.961 
 
>  <excitation_energy_4> 
7.011 
 
>  <homo_energy> 
-6.89 
 
>  <homo_lumo_gap> 
9.168 
 
>  <logP> 
1.796 
 
>  <lumo_energy> 
2.278 
 
>  <melting_point> 
-23.21 
 
>  <molecular_refractivity> 
40.63 
 
>  <oscillator_strength_1> 
0.0025 
 
>  <oscillator_strength_2> 
0.0507 
 
>  <oscillator_strength_3> 
0.0037 
 
>  <oscillator_strength_4> 
0.0031 
 
>  <open_babel_can_smiles> 
CCC[C@@H]1CO[C@@H](OC1)C 
 
>  <mulliken_charges> 
26 
1   -0.441713 
2   -0.465113 
3   -0.257514 
4   -0.245544 
5   -0.046458 
6   -0.04806 
7   0.364792 
8   -0.115612 
9   -0.475251 
10   -0.475886 
11   0.141491 
12   0.146119 
13   0.141504 
14   0.155988 
15   0.166394 
16   0.155784 
17   0.135835 
18   0.1268 
19   0.124168 
20   0.156787 
21   0.119337 
22   0.14691 
23   0.15172 
24   0.120055 
25   0.096875 
26   0.120589 
 
>  <lowdin_charges> 
26 
1   -0.443419 
2   -0.448423 
3   -0.272357 
4   -0.27667 
5   -0.132783 
6   -0.134121 
7   0.103241 
8   -0.157682 
9   -0.268722 
10   -0.269624 
11   0.150259 
12   0.147633 
13   0.146272 
14   0.162168 
15   0.163573 
16   0.162498 
17   0.139691 
18   0.134736 
19   0.139344 
20   0.151711 
21   0.125577 
22   0.150862 
23   0.151268 
24   0.126421 
25   0.106889 
26   0.141655 
 
$$$$ 
 
