PCCDB-ID:  34724 
public computational chemistry database (PCCDB) project, http://pccdb.org 
 
 31 31  0  0  1  0  0  0  0  0999 V2000 
    1.0423    0.1168    0.0490 C   0  0  0  0  0  0  0  0  0  0  0  0 
    3.1557   -0.1209    1.3960 C   0  0  0  0  0  0  0  0  0  0  0  0 
    4.8681   -1.9561   -1.9179 C   0  0  0  0  0  0  0  0  0  0  0  0 
    3.0038   -0.8649   -3.2014 C   0  0  0  0  0  0  0  0  0  0  0  0 
    3.1975    1.2137   -0.8218 C   0  0  2  0  0  0  0  0  0  0  0  0 
    3.4540    2.5111   -0.0634 C   0  0  2  0  0  0  0  0  0  0  0  0 
    2.5717    0.0376   -0.0127 C   0  0  0  0  0  0  0  0  0  0  0  0 
    3.8041   -0.8576   -1.8902 C   0  0  0  0  0  0  0  0  0  0  0  0 
    4.3845    0.5520   -1.5519 C   0  0  0  0  0  0  0  0  0  0  0  0 
    4.5397    2.9765    0.3954 N   0  0  0  0  0  0  0  0  0  0  0  0 
    2.3232    3.2598    0.1369 O   0  0  0  0  0  0  0  0  0  0  0  0 
    4.7724    1.2070   -2.7332 O   0  0  0  0  0  0  0  0  0  0  0  0 
    5.4861    0.4815   -0.6598 O   0  0  0  0  0  0  0  0  0  0  0  0 
    2.9174   -1.1374   -0.7891 O   0  0  0  0  0  0  0  0  0  0  0  0 
    0.7160    0.9846    0.6347 H   0  0  0  0  0  0  0  0  0  0  0  0 
    0.6417   -0.7800    0.5324 H   0  0  0  0  0  0  0  0  0  0  0  0 
    0.6127    0.1766   -0.9569 H   0  0  0  0  0  0  0  0  0  0  0  0 
    2.8454    0.7038    2.0465 H   0  0  0  0  0  0  0  0  0  0  0  0 
    4.2464   -0.1530    1.3676 H   0  0  0  0  0  0  0  0  0  0  0  0 
    2.7904   -1.0588    1.8272 H   0  0  0  0  0  0  0  0  0  0  0  0 
    5.6087   -1.7628   -2.7041 H   0  0  0  0  0  0  0  0  0  0  0  0 
    4.3959   -2.9189   -2.1349 H   0  0  0  0  0  0  0  0  0  0  0  0 
    5.3688   -2.0383   -0.9502 H   0  0  0  0  0  0  0  0  0  0  0  0 
    3.6576   -0.7277   -4.0671 H   0  0  0  0  0  0  0  0  0  0  0  0 
    2.2444   -0.0774   -3.2234 H   0  0  0  0  0  0  0  0  0  0  0  0 
    2.4895   -1.8271   -3.2905 H   0  0  0  0  0  0  0  0  0  0  0  0 
    2.4970    1.4579   -1.6317 H   0  0  0  0  0  0  0  0  0  0  0  0 
    5.2900    2.3051    0.2332 H   0  0  0  0  0  0  0  0  0  0  0  0 
    1.5807    2.8686   -0.3472 H   0  0  0  0  0  0  0  0  0  0  0  0 
    5.0714    2.0970   -2.4769 H   0  0  0  0  0  0  0  0  0  0  0  0 
    6.2164    0.0675   -1.1495 H   0  0  0  0  0  0  0  0  0  0  0  0 
  1 16  1  0  0  0  0 
  1 15  1  0  0  0  0 
  2 20  1  0  0  0  0 
  2 18  1  0  0  0  0 
  3  8  1  0  0  0  0 
  3 23  1  0  0  0  0 
  4  8  1  0  0  0  0 
  5 27  1  6  0  0  0 
  5  6  1  0  0  0  0 
  5  7  1  0  0  0  0 
  6 11  1  1  0  0  0 
  6 10  1  0  0  0  0 
  7  1  1  0  0  0  0 
  7  2  1  0  0  0  0 
  8  9  1  0  0  0  0 
  8 14  1  0  0  0  0 
  9  5  1  0  0  0  0 
  9 13  1  0  0  0  0 
 12 30  1  0  0  0  0 
 12  9  1  0  0  0  0 
 14  7  1  0  0  0  0 
 17  1  1  0  0  0  0 
 19  2  1  0  0  0  0 
 21  3  1  0  0  0  0 
 22  3  1  0  0  0  0 
 24  4  1  0  0  0  0 
 25  4  1  0  0  0  0 
 26  4  1  0  0  0  0 
 28 10  1  0  0  0  0 
 29 11  1  0  0  0  0 
 31 13  1  0  0  0  0 
M  RAD  2   6   2  10   2 
M  END 
>  <HBA> 
5 
 
>  <HBD> 
3 
 
>  <TPSA> 
92.78 
 
>  <cid> 
34724 
 
>  <dipole> 
3.51 
 
>  <excitation_energy_1> 
5.899 
 
>  <excitation_energy_2> 
5.994 
 
>  <excitation_energy_3> 
6.172 
 
>  <excitation_energy_4> 
6.302 
 
>  <homo_energy> 
-6.882 
 
>  <homo_lumo_gap> 
7.41 
 
>  <logP> 
0.057 
 
>  <lumo_energy> 
0.528 
 
>  <melting_point> 
131.02 
 
>  <molecular_refractivity> 
49.69 
 
>  <oscillator_strength_1> 
0.0057 
 
>  <oscillator_strength_2> 
0.0148 
 
>  <oscillator_strength_3> 
0.0078 
 
>  <oscillator_strength_4> 
0.0085 
 
>  <open_babel_can_smiles> 
[NH][C]([C@@H]1C(C)(C)OC(C1(O)O)(C)C)O 
 
>  <mulliken_charges> 
31 
1   -0.474678 
2   -0.464771 
3   -0.495181 
4   -0.44737 
5   -0.288985 
6   0.490087 
7   0.360881 
8   0.340085 
9   0.434338 
10   -0.610872 
11   -0.585418 
12   -0.630558 
13   -0.622416 
14   -0.552191 
15   0.14273 
16   0.166424 
17   0.144541 
18   0.155701 
19   0.173157 
20   0.151537 
21   0.145035 
22   0.165407 
23   0.163298 
24   0.159518 
25   0.142259 
26   0.153031 
27   0.148762 
28   0.319297 
29   0.407542 
30   0.40306 
31   0.405749 
 
>  <lowdin_charges> 
31 
1   -0.457191 
2   -0.458117 
3   -0.457452 
4   -0.452075 
5   -0.196801 
6   0.121618 
7   0.136526 
8   0.115341 
9   0.177162 
10   -0.399375 
11   -0.371359 
12   -0.43305 
13   -0.433519 
14   -0.273172 
15   0.150987 
16   0.165316 
17   0.149699 
18   0.159482 
19   0.16366 
20   0.157937 
21   0.152859 
22   0.165542 
23   0.15969 
24   0.161583 
25   0.149688 
26   0.157884 
27   0.160692 
28   0.267349 
29   0.352737 
30   0.352527 
31   0.353832 
 
$$$$ 
 
