PCCDB-ID:  19701 
public computational chemistry database (PCCDB) project, http://pccdb.org 
 
 22 21  0  0  0  0  0  0  0  0999 V2000 
    0.8426   -2.5874    0.9993 C   0  0  0  0  0  0  0  0  0  0  0  0 
    5.7240    2.2509   -2.3265 C   0  0  0  0  0  0  0  0  0  0  0  0 
    2.7420   -1.7618   -0.4369 C   0  0  0  0  0  0  0  0  0  0  0  0 
    3.5826    1.3662   -1.3353 C   0  0  0  0  0  0  0  0  0  0  0  0 
    3.2639   -0.8796   -1.2015 N   0  0  0  0  0  0  0  0  0  0  0  0 
    2.7666    0.4062   -1.1168 N   0  0  0  0  0  0  0  0  0  0  0  0 
    1.9814   -0.4455    1.3690 N   0  0  0  0  0  0  0  0  0  0  0  0 
    5.6454    0.3998   -0.7175 N   0  0  0  0  0  0  0  0  0  0  0  0 
    1.8515   -1.5918    0.6292 N   0  0  0  0  0  0  0  0  0  0  0  0 
    4.9750    1.3276   -1.4712 N   0  0  0  0  0  0  0  0  0  0  0  0 
    3.0537   -3.0656   -0.6276 O   0  0  0  0  0  0  0  0  0  0  0  0 
    3.1003    2.6251   -1.4615 O   0  0  0  0  0  0  0  0  0  0  0  0 
    1.1542   -0.3601    2.2586 O   0  0  0  0  0  0  0  0  0  0  0  0 
    6.8477    0.4127   -0.9105 O   0  0  0  0  0  0  0  0  0  0  0  0 
    1.0266   -2.9404    2.0177 H   0  0  0  0  0  0  0  0  0  0  0  0 
    0.9023   -3.4155    0.2972 H   0  0  0  0  0  0  0  0  0  0  0  0 
   -0.1471   -2.1241    0.9681 H   0  0  0  0  0  0  0  0  0  0  0  0 
    5.0162    2.9077   -2.8267 H   0  0  0  0  0  0  0  0  0  0  0  0 
    6.3012    1.6769   -3.0563 H   0  0  0  0  0  0  0  0  0  0  0  0 
    6.4202    2.8362   -1.7196 H   0  0  0  0  0  0  0  0  0  0  0  0 
    3.6213   -3.0854   -1.4197 H   0  0  0  0  0  0  0  0  0  0  0  0 
    2.1306    2.5393   -1.4148 H   0  0  0  0  0  0  0  0  0  0  0  0 
  1 15  1  0  0  0  0 
  2 20  1  0  0  0  0 
  2 10  1  0  0  0  0 
  3  9  1  0  0  0  0 
  4  6  2  0  0  0  0 
  5  6  1  0  0  0  0 
  5  3  2  0  0  0  0 
  7 13  1  0  0  0  0 
  9  1  1  0  0  0  0 
  9  7  1  0  0  0  0 
 10  4  1  0  0  0  0 
 10  8  1  0  0  0  0 
 11  3  1  0  0  0  0 
 12 22  1  0  0  0  0 
 12  4  1  0  0  0  0 
 14  8  1  0  0  0  0 
 16  1  1  0  0  0  0 
 17  1  1  0  0  0  0 
 18  2  1  0  0  0  0 
 19  2  1  0  0  0  0 
 21 11  1  0  0  0  0 
M  RAD  4   7   2   8   2  13   2  14   2 
M  END 
>  <HBA> 
10 
 
>  <HBD> 
2 
 
>  <TPSA> 
123.54 
 
>  <cid> 
19701 
 
>  <dipole> 
3.82 
 
>  <excitation_energy_1> 
3.131 
 
>  <excitation_energy_2> 
3.145 
 
>  <excitation_energy_3> 
3.857 
 
>  <excitation_energy_4> 
3.925 
 
>  <homo_energy> 
-6.144 
 
>  <homo_lumo_gap> 
4.528 
 
>  <logP> 
0.329 
 
>  <lumo_energy> 
-1.616 
 
>  <melting_point> 
135.95 
 
>  <molecular_refractivity> 
43.39 
 
>  <oscillator_strength_1> 
0.0002 
 
>  <oscillator_strength_2> 
0.001 
 
>  <oscillator_strength_3> 
0.0119 
 
>  <oscillator_strength_4> 
0.0507 
 
>  <open_babel_can_smiles> 
[O][N]N(/C(=N\N=C(/N([N][O])C)\O)/O)C 
 
>  <mulliken_charges> 
22 
1   -0.319109 
2   -0.318934 
3   0.725511 
4   0.724827 
5   -0.351502 
6   -0.351192 
7   0.19168 
8   0.19122 
9   -0.305684 
10   -0.305416 
11   -0.597134 
12   -0.596929 
13   -0.343453 
14   -0.343406 
15   0.190268 
16   0.193412 
17   0.18947 
18   0.193264 
19   0.189314 
20   0.190255 
21   0.426791 
22   0.426745 
 
>  <lowdin_charges> 
22 
1   -0.362794 
2   -0.367593 
3   0.155624 
4   0.155251 
5   -0.163328 
6   -0.162752 
7   0.086314 
8   0.083397 
9   -0.033731 
10   -0.033067 
11   -0.35662 
12   -0.353931 
13   -0.224285 
14   -0.222978 
15   0.172732 
16   0.181058 
17   0.172495 
18   0.181841 
19   0.17428 
20   0.174988 
21   0.372669 
22   0.370428 
 
$$$$ 
 
