PCCDB-ID:  7826 
public computational chemistry database (PCCDB) project, http://pccdb.org 
 
 26 25  0  0  0  0  0  0  0  0999 V2000 
    0.8257   -0.0540   -0.0241 C   0  0  0  0  0  0  0  0  0  0  0  0 
    9.3190   -3.4691   -4.1006 C   0  0  0  0  0  0  0  0  0  0  0  0 
    2.3576   -0.0253   -0.0231 C   0  0  0  0  0  0  0  0  0  0  0  0 
    2.9803   -0.9297   -1.0943 C   0  0  0  0  0  0  0  0  0  0  0  0 
    4.5141   -0.9083   -1.0984 C   0  0  0  0  0  0  0  0  0  0  0  0 
    5.1290   -1.8208   -2.1663 C   0  0  0  0  0  0  0  0  0  0  0  0 
    6.6586   -1.7877   -2.1621 C   0  0  0  0  0  0  0  0  0  0  0  0 
    7.2784   -2.7050   -3.1982 C   0  0  0  0  0  0  0  0  0  0  0  0 
    6.6727   -3.4159   -3.9706 O   0  0  0  0  0  0  0  0  0  0  0  0 
    8.6305   -2.6338   -3.1569 O   0  0  0  0  0  0  0  0  0  0  0  0 
    0.4122    0.6088    0.7446 H   0  0  0  0  0  0  0  0  0  0  0  0 
    0.4484   -1.0656    0.1700 H   0  0  0  0  0  0  0  0  0  0  0  0 
    0.4238    0.2676   -0.9929 H   0  0  0  0  0  0  0  0  0  0  0  0 
   10.3814   -3.2925   -3.9283 H   0  0  0  0  0  0  0  0  0  0  0  0 
    9.0467   -3.1999   -5.1249 H   0  0  0  0  0  0  0  0  0  0  0  0 
    9.0734   -4.5218   -3.9357 H   0  0  0  0  0  0  0  0  0  0  0  0 
    2.7286   -0.3278    0.9666 H   0  0  0  0  0  0  0  0  0  0  0  0 
    2.7048    1.0069   -0.1745 H   0  0  0  0  0  0  0  0  0  0  0  0 
    2.6102   -0.6263   -2.0849 H   0  0  0  0  0  0  0  0  0  0  0  0 
    2.6320   -1.9625   -0.9447 H   0  0  0  0  0  0  0  0  0  0  0  0 
    4.8834   -1.2053   -0.1052 H   0  0  0  0  0  0  0  0  0  0  0  0 
    4.8619    0.1241   -1.2537 H   0  0  0  0  0  0  0  0  0  0  0  0 
    4.7661   -1.5302   -3.1603 H   0  0  0  0  0  0  0  0  0  0  0  0 
    4.7915   -2.8539   -2.0162 H   0  0  0  0  0  0  0  0  0  0  0  0 
    7.0590   -2.0720   -1.1794 H   0  0  0  0  0  0  0  0  0  0  0  0 
    7.0347   -0.7721   -2.3453 H   0  0  0  0  0  0  0  0  0  0  0  0 
  1  3  1  0  0  0  0 
  1 12  1  0  0  0  0 
  1 11  1  0  0  0  0 
  2 16  1  0  0  0  0 
  2 14  1  0  0  0  0 
  2 10  1  0  0  0  0 
  3 17  1  0  0  0  0 
  4 20  1  0  0  0  0 
  4  3  1  0  0  0  0 
  5  4  1  0  0  0  0 
  5 21  1  0  0  0  0 
  6  7  1  0  0  0  0 
  6 24  1  0  0  0  0 
  6  5  1  0  0  0  0 
  7 25  1  0  0  0  0 
  8 10  1  0  0  0  0 
  8  7  1  0  0  0  0 
  9  8  2  0  0  0  0 
 13  1  1  0  0  0  0 
 15  2  1  0  0  0  0 
 18  3  1  0  0  0  0 
 19  4  1  0  0  0  0 
 22  5  1  0  0  0  0 
 23  6  1  0  0  0  0 
 26  7  1  0  0  0  0 
M  END 
>  <HBA> 
2 
 
>  <HBD> 
0 
 
>  <TPSA> 
26.3 
 
>  <cid> 
7826 
 
>  <dipole> 
1.58 
 
>  <excitation_energy_1> 
5.85 
 
>  <excitation_energy_2> 
6.998 
 
>  <excitation_energy_3> 
7.501 
 
>  <excitation_energy_4> 
7.705 
 
>  <homo_energy> 
-7.295 
 
>  <homo_lumo_gap> 
7.753 
 
>  <logP> 
2.13 
 
>  <lumo_energy> 
0.457 
 
>  <melting_point> 
-15.45 
 
>  <molecular_refractivity> 
41.85 
 
>  <oscillator_strength_1> 
0.0006 
 
>  <oscillator_strength_2> 
0.0182 
 
>  <oscillator_strength_3> 
0.0061 
 
>  <oscillator_strength_4> 
0.0106 
 
>  <open_babel_can_smiles> 
CCCCCCC(=O)OC 
 
>  <mulliken_charges> 
26 
1   -0.441389 
2   -0.217083 
3   -0.247144 
4   -0.246503 
5   -0.256943 
6   -0.248704 
7   -0.362406 
8   0.620526 
9   -0.47855 
10   -0.454722 
11   0.141509 
12   0.141987 
13   0.14189 
14   0.162736 
15   0.168707 
16   0.168821 
17   0.129741 
18   0.129705 
19   0.129351 
20   0.129495 
21   0.126759 
22   0.12674 
23   0.147645 
24   0.148761 
25   0.169515 
26   0.169556 
 
>  <lowdin_charges> 
26 
1   -0.444846 
2   -0.275368 
3   -0.27046 
4   -0.272506 
5   -0.273423 
6   -0.268219 
7   -0.30167 
8   0.199728 
9   -0.264755 
10   -0.199421 
11   0.150273 
12   0.145959 
13   0.146435 
14   0.157716 
15   0.157109 
16   0.156708 
17   0.13803 
18   0.137399 
19   0.138408 
20   0.13787 
21   0.136714 
22   0.136159 
23   0.14941 
24   0.149399 
25   0.166871 
26   0.16648 
 
$$$$ 
 
