PCCDB-ID:  28657 
public computational chemistry database (PCCDB) project, http://pccdb.org 
 
 13 13  0  0  0  0  0  0  0  0999 V2000 
    1.6224    0.2866   -1.1195 C   0  0  0  0  0  0  0  0  0  0  0  0 
    4.7484    2.1923    1.6734 C   0  0  0  0  0  0  0  0  0  0  0  0 
    3.2980    3.4932    0.5763 C   0  0  0  0  0  0  0  0  0  0  0  0 
    3.2287    1.2663    0.3190 C   0  0  0  0  0  0  0  0  0  0  0  0 
    4.3222    3.4419    1.4288 N   0  0  0  0  0  0  0  0  0  0  0  0 
    4.2560    1.0702    1.1608 N   0  0  0  0  0  0  0  0  0  0  0  0 
    2.7037    2.4526   -0.0139 N   0  0  0  0  0  0  0  0  0  0  0  0 
    2.7214    0.1530   -0.2047 O   0  0  0  0  0  0  0  0  0  0  0  0 
    1.3788   -0.7338   -1.4162 H   0  0  0  0  0  0  0  0  0  0  0  0 
    1.9116    0.8816   -1.9897 H   0  0  0  0  0  0  0  0  0  0  0  0 
    0.7665    0.7602   -0.6317 H   0  0  0  0  0  0  0  0  0  0  0  0 
    5.5840    2.0867    2.3632 H   0  0  0  0  0  0  0  0  0  0  0  0 
    2.9032    4.4786    0.3340 H   0  0  0  0  0  0  0  0  0  0  0  0 
  1 11  1  0  0  0  0 
  1  8  1  0  0  0  0 
  2 12  1  0  0  0  0 
  3  5  2  0  0  0  0 
  4  6  2  0  0  0  0 
  5  2  2  0  0  0  0 
  6  2  1  0  0  0  0 
  7  4  1  0  0  0  0 
  7  3  1  0  0  0  0 
  8  4  1  0  0  0  0 
  9  1  1  0  0  0  0 
 10  1  1  0  0  0  0 
 13  3  1  0  0  0  0 
M  RAD  1   7   2 
M  END 
>  <HBA> 
4 
 
>  <HBD> 
0 
 
>  <TPSA> 
47.9 
 
>  <cid> 
28657 
 
>  <dipole> 
1.96 
 
>  <excitation_energy_1> 
4.654 
 
>  <excitation_energy_2> 
4.762 
 
>  <excitation_energy_3> 
5.169 
 
>  <excitation_energy_4> 
5.378 
 
>  <homo_energy> 
-7.442 
 
>  <homo_lumo_gap> 
6.074 
 
>  <logP> 
-0.12 
 
>  <lumo_energy> 
-1.369 
 
>  <melting_point> 
54.94 
 
>  <molecular_refractivity> 
26.32 
 
>  <oscillator_strength_1> 
0.0053 
 
>  <oscillator_strength_2> 
0.0009 
 
>  <oscillator_strength_3> 
0.0003 
 
>  <oscillator_strength_4> 
0.0059 
 
>  <open_babel_can_smiles> 
COC1=NC=[N]=C[N]1 
 
>  <mulliken_charges> 
13 
1   -0.212407 
2   0.180986 
3   0.189467 
4   0.665141 
5   -0.380764 
6   -0.40911 
7   -0.444544 
8   -0.447402 
9   0.173818 
10   0.173533 
11   0.17366 
12   0.170273 
13   0.167348 
 
>  <lowdin_charges> 
13 
1   -0.273708 
2   -0.008002 
3   -0.006406 
4   0.170026 
5   -0.185794 
6   -0.168075 
7   -0.200117 
8   -0.150058 
9   0.164311 
10   0.161621 
11   0.161986 
12   0.16786 
13   0.166356 
 
$$$$ 
 
