PCCDB-ID:  39871 
public computational chemistry database (PCCDB) project, http://pccdb.org 
 
 31 31  0  0  0  0  0  0  0  0999 V2000 
    3.1376   -0.7994   -0.8197 C   0  0  0  0  0  0  0  0  0  0  0  0 
    0.8668   -0.7544    0.3194 C   0  0  0  0  0  0  0  0  0  0  0  0 
    2.5219    5.1999    0.6475 C   0  0  0  0  0  0  0  0  0  0  0  0 
    3.1984    0.4106    2.0735 C   0  0  0  0  0  0  0  0  0  0  0  0 
    3.6620    2.6129    2.9544 C   0  0  0  0  0  0  0  0  0  0  0  0 
    4.3791    0.6035    4.3036 C   0  0  0  0  0  0  0  0  0  0  0  0 
    2.5779    2.3660    0.8003 C   0  0  0  0  0  0  0  0  0  0  0  0 
    2.0551    0.0895   -0.1790 C   0  0  0  0  0  0  0  0  0  0  0  0 
    3.7161    1.2227    3.0925 C   0  0  0  0  0  0  0  0  0  0  0  0 
    2.6255    0.9697    0.9271 C   0  0  0  0  0  0  0  0  0  0  0  0 
    3.0922    3.1880    1.8086 C   0  0  0  0  0  0  0  0  0  0  0  0 
    5.8936    0.3618    4.1731 C   0  0  0  0  0  0  0  0  0  0  0  0 
    6.4709   -0.4989    4.7886 O   0  0  0  0  0  0  0  0  0  0  0  0 
    6.5681    1.2077    3.3599 O   0  0  0  0  0  0  0  0  0  0  0  0 
    3.0817    4.5503    1.7796 O   0  0  0  0  0  0  0  0  0  0  0  0 
    2.7178   -1.3736   -1.6540 H   0  0  0  0  0  0  0  0  0  0  0  0 
    3.5472   -1.5146   -0.0970 H   0  0  0  0  0  0  0  0  0  0  0  0 
    3.9697   -0.1991   -1.2033 H   0  0  0  0  0  0  0  0  0  0  0  0 
    0.4381   -1.3376   -0.5040 H   0  0  0  0  0  0  0  0  0  0  0  0 
    0.0769   -0.1208    0.7372 H   0  0  0  0  0  0  0  0  0  0  0  0 
    1.1776   -1.4591    1.0994 H   0  0  0  0  0  0  0  0  0  0  0  0 
    2.6258    6.2696    0.8369 H   0  0  0  0  0  0  0  0  0  0  0  0 
    1.4588    4.9542    0.5267 H   0  0  0  0  0  0  0  0  0  0  0  0 
    3.0601    4.9404   -0.2733 H   0  0  0  0  0  0  0  0  0  0  0  0 
    3.2468   -0.6694    2.1857 H   0  0  0  0  0  0  0  0  0  0  0  0 
    4.0258    3.2740    3.7369 H   0  0  0  0  0  0  0  0  0  0  0  0 
    3.9358   -0.3631    4.5553 H   0  0  0  0  0  0  0  0  0  0  0  0 
    4.2471    1.2495    5.1819 H   0  0  0  0  0  0  0  0  0  0  0  0 
    2.1307    2.7972   -0.0886 H   0  0  0  0  0  0  0  0  0  0  0  0 
    1.6758    0.7608   -0.9614 H   0  0  0  0  0  0  0  0  0  0  0  0 
    5.9347    1.7944    2.9052 H   0  0  0  0  0  0  0  0  0  0  0  0 
  1  8  1  0  0  0  0 
  1 17  1  0  0  0  0 
  2 20  1  0  0  0  0 
  2 21  1  0  0  0  0 
  3 22  1  0  0  0  0 
  3 15  1  0  0  0  0 
  4 25  1  0  0  0  0 
  4  9  2  0  0  0  0 
  5  9  1  0  0  0  0 
  5 26  1  0  0  0  0 
  6 27  1  0  0  0  0 
  6 28  1  0  0  0  0 
  7 10  2  0  0  0  0 
  7 11  1  0  0  0  0 
  8  2  1  0  0  0  0 
  8 10  1  0  0  0  0 
  9  6  1  0  0  0  0 
 10  4  1  0  0  0  0 
 11  5  2  0  0  0  0 
 12  6  1  0  0  0  0 
 12 13  2  0  0  0  0 
 14 12  1  0  0  0  0 
 15 11  1  0  0  0  0 
 16  1  1  0  0  0  0 
 18  1  1  0  0  0  0 
 19  2  1  0  0  0  0 
 23  3  1  0  0  0  0 
 24  3  1  0  0  0  0 
 29  7  1  0  0  0  0 
 30  8  1  0  0  0  0 
 31 14  1  0  0  0  0 
M  END 
>  <HBA> 
3 
 
>  <HBD> 
1 
 
>  <TPSA> 
46.53 
 
>  <cid> 
39871 
 
>  <dipole> 
6.36 
 
>  <excitation_energy_1> 
4.867 
 
>  <excitation_energy_2> 
5.415 
 
>  <excitation_energy_3> 
5.542 
 
>  <excitation_energy_4> 
5.549 
 
>  <homo_energy> 
-6.275 
 
>  <homo_lumo_gap> 
5.763 
 
>  <logP> 
2.446 
 
>  <lumo_energy> 
-0.512 
 
>  <melting_point> 
93.27 
 
>  <molecular_refractivity> 
59.06 
 
>  <oscillator_strength_1> 
0.0451 
 
>  <oscillator_strength_2> 
0.0055 
 
>  <oscillator_strength_3> 
0.0124 
 
>  <oscillator_strength_4> 
0.035 
 
>  <open_babel_can_smiles> 
COc1cc(CC(=O)O)cc(c1)C(C)C 
 
>  <mulliken_charges> 
31 
1   -0.440258 
2   -0.439252 
3   -0.216842 
4   -0.231924 
5   -0.2714 
6   -0.45606 
7   -0.272803 
8   -0.162694 
9   0.121196 
10   0.189707 
11   0.402801 
12   0.592614 
13   -0.44317 
14   -0.56828 
15   -0.508549 
16   0.145419 
17   0.149825 
18   0.151091 
19   0.145507 
20   0.150196 
21   0.14778 
22   0.174833 
23   0.155508 
24   0.155268 
25   0.131121 
26   0.144342 
27   0.187426 
28   0.189916 
29   0.131201 
30   0.12892 
31   0.416561 
 
>  <lowdin_charges> 
31 
1   -0.444001 
2   -0.443798 
3   -0.274493 
4   -0.190928 
5   -0.221526 
6   -0.314445 
7   -0.225972 
8   -0.119198 
9   -0.010837 
10   0.020155 
11   0.108421 
12   0.192933 
13   -0.245829 
14   -0.357101 
15   -0.195831 
16   0.151797 
17   0.151818 
18   0.154521 
19   0.151882 
20   0.154203 
21   0.150623 
22   0.163791 
23   0.145549 
24   0.147337 
25   0.156409 
26   0.168705 
27   0.180035 
28   0.179917 
29   0.162532 
30   0.142875 
31   0.360456 
 
$$$$ 
 
