PCCDB-ID:  62787 
public computational chemistry database (PCCDB) project, http://pccdb.org 
 
 31 31  0  0  1  0  0  0  0  0999 V2000 
    0.6893   -1.7518   -1.6615 C   0  0  0  0  0  0  0  0  0  0  0  0 
    2.3218   -7.0502    2.1238 C   0  0  0  0  0  0  0  0  0  0  0  0 
    0.7807   -0.3467    3.7133 C   0  0  0  0  0  0  0  0  0  0  0  0 
    1.6436   -4.3999    2.8654 C   0  0  0  0  0  0  0  0  0  0  0  0 
    1.3402   -3.0638    3.1656 C   0  0  0  0  0  0  0  0  0  0  0  0 
    2.5506   -1.2528    0.0282 C   0  0  0  0  0  0  0  0  0  0  0  0 
    2.5394   -3.6821    0.7425 C   0  0  0  0  0  0  0  0  0  0  0  0 
    1.3241   -0.6982   -0.7524 C   0  0  1  0  0  0  0  0  0  0  0  0 
    2.2417   -2.3523    1.0191 C   0  0  0  0  0  0  0  0  0  0  0  0 
    2.2459   -4.7129    1.6491 C   0  0  0  0  0  0  0  0  0  0  0  0 
    1.6311   -2.0479    2.2586 C   0  0  0  0  0  0  0  0  0  0  0  0 
    1.6484    0.4867   -1.5612 N   0  0  0  0  0  0  0  0  0  0  0  0 
    2.5939   -5.9750    1.2437 O   0  0  0  0  0  0  0  0  0  0  0  0 
    1.3707   -0.7161    2.4804 O   0  0  0  0  0  0  0  0  0  0  0  0 
    0.3796   -2.6352   -1.0948 H   0  0  0  0  0  0  0  0  0  0  0  0 
    1.4021   -2.0821   -2.4304 H   0  0  0  0  0  0  0  0  0  0  0  0 
   -0.1831   -1.3329   -2.1719 H   0  0  0  0  0  0  0  0  0  0  0  0 
    2.6715   -7.9516    1.6165 H   0  0  0  0  0  0  0  0  0  0  0  0 
    1.2464   -7.1451    2.3286 H   0  0  0  0  0  0  0  0  0  0  0  0 
    2.8582   -6.9409    3.0766 H   0  0  0  0  0  0  0  0  0  0  0  0 
    0.6742    0.7396    3.6833 H   0  0  0  0  0  0  0  0  0  0  0  0 
    1.4156   -0.6247    4.5658 H   0  0  0  0  0  0  0  0  0  0  0  0 
   -0.2103   -0.8032    3.8416 H   0  0  0  0  0  0  0  0  0  0  0  0 
    1.4046   -5.1680    3.5919 H   0  0  0  0  0  0  0  0  0  0  0  0 
    0.8744   -2.8397    4.1184 H   0  0  0  0  0  0  0  0  0  0  0  0 
    3.0115   -0.4113    0.5607 H   0  0  0  0  0  0  0  0  0  0  0  0 
    3.2881   -1.6179   -0.7000 H   0  0  0  0  0  0  0  0  0  0  0  0 
    3.0157   -3.9490   -0.1967 H   0  0  0  0  0  0  0  0  0  0  0  0 
    0.5799   -0.3765   -0.0144 H   0  0  0  0  0  0  0  0  0  0  0  0 
    2.3650    0.2393   -2.2458 H   0  0  0  0  0  0  0  0  0  0  0  0 
    2.0693    1.2003   -0.9657 H   0  0  0  0  0  0  0  0  0  0  0  0 
  1 15  1  0  0  0  0 
  1  8  1  0  0  0  0 
  2 19  1  0  0  0  0 
  2 20  1  0  0  0  0 
  3 23  1  0  0  0  0 
  3 22  1  0  0  0  0 
  4  5  1  0  0  0  0 
  4 24  1  0  0  0  0 
  5 25  1  0  0  0  0 
  6 26  1  0  0  0  0 
  6  9  1  0  0  0  0 
  7  9  2  0  0  0  0 
  7 10  1  0  0  0  0 
  8 29  1  1  0  0  0 
  8  6  1  0  0  0  0 
  9 11  1  0  0  0  0 
 10  4  2  0  0  0  0 
 11 14  1  0  0  0  0 
 11  5  2  0  0  0  0 
 12 31  1  0  0  0  0 
 12  8  1  0  0  0  0 
 13 10  1  0  0  0  0 
 13  2  1  0  0  0  0 
 14  3  1  0  0  0  0 
 16  1  1  0  0  0  0 
 17  1  1  0  0  0  0 
 18  2  1  0  0  0  0 
 21  3  1  0  0  0  0 
 27  6  1  0  0  0  0 
 28  7  1  0  0  0  0 
 30 12  1  0  0  0  0 
M  END 
>  <HBA> 
3 
 
>  <HBD> 
1 
 
>  <TPSA> 
44.48 
 
>  <cid> 
62787 
 
>  <dipole> 
2.86 
 
>  <excitation_energy_1> 
4.602 
 
>  <excitation_energy_2> 
4.899 
 
>  <excitation_energy_3> 
5.12 
 
>  <excitation_energy_4> 
5.249 
 
>  <homo_energy> 
-5.29 
 
>  <homo_lumo_gap> 
5.372 
 
>  <logP> 
2.294 
 
>  <lumo_energy> 
0.082 
 
>  <melting_point> 
72.29 
 
>  <molecular_refractivity> 
56.71 
 
>  <oscillator_strength_1> 
0.082 
 
>  <oscillator_strength_2> 
0.0003 
 
>  <oscillator_strength_3> 
0.0022 
 
>  <oscillator_strength_4> 
0.0148 
 
>  <open_babel_can_smiles> 
COc1ccc(c(c1)C[C@@H](N)C)OC 
 
>  <mulliken_charges> 
31 
1   -0.439403 
2   -0.211202 
3   -0.211642 
4   -0.20929 
5   -0.201428 
6   -0.342458 
7   -0.252508 
8   0.026858 
9   0.130384 
10   0.384653 
11   0.322406 
12   -0.704848 
13   -0.514006 
14   -0.518435 
15   0.152773 
16   0.125729 
17   0.156105 
18   0.166848 
19   0.14779 
20   0.147503 
21   0.166895 
22   0.148932 
23   0.149833 
24   0.128347 
25   0.129609 
26   0.141171 
27   0.124839 
28   0.13229 
29   0.147377 
30   0.283972 
31   0.290906 
 
>  <lowdin_charges> 
31 
1   -0.451816 
2   -0.276157 
3   -0.275501 
4   -0.213115 
5   -0.203523 
6   -0.291358 
7   -0.183415 
8   -0.064671 
9   -0.017189 
10   0.087876 
11   0.077308 
12   -0.550666 
13   -0.205448 
14   -0.20814 
15   0.156559 
16   0.140734 
17   0.158186 
18   0.161555 
19   0.140691 
20   0.142003 
21   0.158992 
22   0.143891 
23   0.142872 
24   0.162207 
25   0.161252 
26   0.152634 
27   0.143016 
28   0.164375 
29   0.146948 
30   0.247864 
31   0.252037 
 
$$$$ 
 
