PCCDB-ID:  18823 
public computational chemistry database (PCCDB) project, http://pccdb.org 
 
 28 30  0  0  0  0  0  0  0  0999 V2000 
   -2.4901    0.6637   -0.0416 C   0  0  0  0  0  0  0  0  0  0  0  0 
   -1.2991    1.3747   -0.0803 C   0  0  0  0  0  0  0  0  0  0  0  0 
    4.8467   -0.8031    0.4553 C   0  0  0  0  0  0  0  0  0  0  0  0 
    3.8558   -2.5423   -0.8519 C   0  0  0  0  0  0  0  0  0  0  0  0 
    6.0354   -1.5297    0.4039 C   0  0  0  0  0  0  0  0  0  0  0  0 
    5.0917   -3.1840   -0.8417 C   0  0  0  0  0  0  0  0  0  0  0  0 
   -1.2818   -1.4262   -0.0256 C   0  0  0  0  0  0  0  0  0  0  0  0 
    1.2236   -1.3536   -0.0923 C   0  0  0  0  0  0  0  0  0  0  0  0 
    3.7055   -1.3181   -0.1797 C   0  0  0  0  0  0  0  0  0  0  0  0 
   -0.0653   -0.7210   -0.0719 C   0  0  0  0  0  0  0  0  0  0  0  0 
   -2.5029   -0.7498   -0.0124 C   0  0  0  0  0  0  0  0  0  0  0  0 
    2.3868   -0.6431   -0.1323 C   0  0  0  0  0  0  0  0  0  0  0  0 
   -0.0888    0.6819   -0.0947 C   0  0  0  0  0  0  0  0  0  0  0  0 
    2.3316    0.8339   -0.1249 C   0  0  0  0  0  0  0  0  0  0  0  0 
   -3.7173   -1.4415   -0.0341 N   0  0  0  0  0  0  0  0  0  0  0  0 
    6.1788   -2.7031   -0.2256 N   0  0  0  0  0  0  0  0  0  0  0  0 
    3.2795    1.5865   -0.1227 O   0  0  0  0  0  0  0  0  0  0  0  0 
    1.0696    1.4074   -0.1236 O   0  0  0  0  0  0  0  0  0  0  0  0 
   -3.4342    1.2027   -0.0394 H   0  0  0  0  0  0  0  0  0  0  0  0 
   -1.2906    2.4594   -0.0980 H   0  0  0  0  0  0  0  0  0  0  0  0 
    4.8099    0.1469    0.9717 H   0  0  0  0  0  0  0  0  0  0  0  0 
    3.0281   -2.9798   -1.4024 H   0  0  0  0  0  0  0  0  0  0  0  0 
    6.9248   -1.1428    0.8986 H   0  0  0  0  0  0  0  0  0  0  0  0 
    5.2167   -4.1311   -1.3647 H   0  0  0  0  0  0  0  0  0  0  0  0 
   -1.2604   -2.5136   -0.0094 H   0  0  0  0  0  0  0  0  0  0  0  0 
    1.2598   -2.4398   -0.0578 H   0  0  0  0  0  0  0  0  0  0  0  0 
   -4.5038   -0.9344    0.3525 H   0  0  0  0  0  0  0  0  0  0  0  0 
   -3.6773   -2.3865    0.3273 H   0  0  0  0  0  0  0  0  0  0  0  0 
  1 19  1  0  0  0  0 
  1 11  2  0  0  0  0 
  2  1  1  0  0  0  0 
  3 21  1  0  0  0  0 
  4  6  2  0  0  0  0 
  4  9  1  0  0  0  0 
  5  3  1  0  0  0  0 
  5 23  1  0  0  0  0 
  6 16  1  0  0  0  0 
  7 11  1  0  0  0  0 
  7 25  1  0  0  0  0 
  8 10  1  0  0  0  0 
  8 26  1  0  0  0  0 
  9 12  1  0  0  0  0 
  9  3  2  0  0  0  0 
 10  7  2  0  0  0  0 
 12 14  1  0  0  0  0 
 12  8  2  0  0  0  0 
 13  2  2  0  0  0  0 
 13 10  1  0  0  0  0 
 14 18  1  0  0  0  0 
 14 17  2  0  0  0  0 
 15 11  1  0  0  0  0 
 15 28  1  0  0  0  0 
 15 27  1  0  0  0  0 
 16  5  2  0  0  0  0 
 18 13  1  0  0  0  0 
 20  2  1  0  0  0  0 
 22  4  1  0  0  0  0 
 24  6  1  0  0  0  0 
M  END 
>  <HBA> 
4 
 
>  <HBD> 
1 
 
>  <TPSA> 
69.12 
 
>  <cid> 
18823 
 
>  <dipole> 
7.56 
 
>  <excitation_energy_1> 
3.141 
 
>  <excitation_energy_2> 
3.902 
 
>  <excitation_energy_3> 
4.045 
 
>  <excitation_energy_4> 
4.168 
 
>  <homo_energy> 
-5.791 
 
>  <homo_lumo_gap> 
3.644 
 
>  <logP> 
3.018 
 
>  <lumo_energy> 
-2.147 
 
>  <melting_point> 
186.26 
 
>  <molecular_refractivity> 
70.12 
 
>  <oscillator_strength_1> 
0.1095 
 
>  <oscillator_strength_2> 
0.042 
 
>  <oscillator_strength_3> 
0.4115 
 
>  <oscillator_strength_4> 
0.0076 
 
>  <open_babel_can_smiles> 
Nc1ccc2c(c1)cc(c(=O)o2)c1ccncc1 
 
>  <mulliken_charges> 
28 
1   -0.171395 
2   -0.175428 
3   -0.163941 
4   -0.181315 
5   0.030846 
6   0.033741 
7   -0.257831 
8   -0.194125 
9   0.117172 
10   0.144586 
11   0.319454 
12   -0.014682 
13   0.303053 
14   0.57242 
15   -0.790865 
16   -0.406141 
17   -0.462905 
18   -0.517196 
19   0.135371 
20   0.158885 
21   0.169097 
22   0.132985 
23   0.144135 
24   0.139576 
25   0.129591 
26   0.156057 
27   0.324544 
28   0.324313 
 
>  <lowdin_charges> 
28 
1   -0.171735 
2   -0.158416 
3   -0.164335 
4   -0.184157 
5   -0.090903 
6   -0.090821 
7   -0.19226 
8   -0.111483 
9   0.022162 
10   -0.028689 
11   0.055446 
12   -0.050676 
13   0.091954 
14   0.199925 
15   -0.486214 
16   -0.147601 
17   -0.244657 
18   -0.126379 
19   0.162677 
20   0.175409 
21   0.181346 
22   0.162597 
23   0.15928 
24   0.155779 
25   0.156981 
26   0.167885 
27   0.279518 
28   0.277366 
 
$$$$ 
 
