PCCDB-ID:  22737 
public computational chemistry database (PCCDB) project, http://pccdb.org 
 
 26 26  0  0  1  0  0  0  0  0999 V2000 
    0.7825    1.3040    0.8418 C   0  0  0  0  0  0  0  0  0  0  0  0 
    5.2217    0.6900    4.6958 C   0  0  0  0  0  0  0  0  0  0  0  0 
    5.7390    0.3681    0.1587 C   0  0  0  0  0  0  0  0  0  0  0  0 
    2.1818    1.4289    1.4532 C   0  0  0  0  0  0  0  0  0  0  0  0 
    3.2692    0.8216    0.5619 C   0  0  0  0  0  0  0  0  0  0  0  0 
    5.2797    2.4402    2.7919 C   0  0  0  0  0  0  0  0  0  0  0  0 
    5.5752    1.0106    3.2545 C   0  0  2  0  0  0  0  0  0  0  0  0 
    4.6921    0.9287    1.1239 C   0  0  2  0  0  0  0  0  0  0  0  0 
    5.0272    2.3028    1.3988 O   0  0  0  0  0  0  0  0  0  0  0  0 
    4.7437    0.2472    2.3769 O   0  0  0  0  0  0  0  0  0  0  0  0 
    0.0219    1.7443    1.4968 H   0  0  0  0  0  0  0  0  0  0  0  0 
    0.5114    0.2537    0.6771 H   0  0  0  0  0  0  0  0  0  0  0  0 
    0.7232    1.8159   -0.1268 H   0  0  0  0  0  0  0  0  0  0  0  0 
    5.8468    1.2719    5.3829 H   0  0  0  0  0  0  0  0  0  0  0  0 
    5.3846   -0.3722    4.9030 H   0  0  0  0  0  0  0  0  0  0  0  0 
    4.1702    0.9227    4.8942 H   0  0  0  0  0  0  0  0  0  0  0  0 
    5.7586    0.9579   -0.7632 H   0  0  0  0  0  0  0  0  0  0  0  0 
    5.5106   -0.6728   -0.0921 H   0  0  0  0  0  0  0  0  0  0  0  0 
    6.7340    0.4097    0.6123 H   0  0  0  0  0  0  0  0  0  0  0  0 
    2.2050    0.9345    2.4314 H   0  0  0  0  0  0  0  0  0  0  0  0 
    2.4154    2.4869    1.6252 H   0  0  0  0  0  0  0  0  0  0  0  0 
    3.2630    1.3131   -0.4200 H   0  0  0  0  0  0  0  0  0  0  0  0 
    3.0586   -0.2416    0.3845 H   0  0  0  0  0  0  0  0  0  0  0  0 
    6.1212    3.1265    2.9346 H   0  0  0  0  0  0  0  0  0  0  0  0 
    4.3977    2.8447    3.3115 H   0  0  0  0  0  0  0  0  0  0  0  0 
    6.6339    0.7702    3.0648 H   0  0  0  0  0  0  0  0  0  0  0  0 
  1  4  1  0  0  0  0 
  1 11  1  0  0  0  0 
  2 16  1  0  0  0  0 
  2 15  1  0  0  0  0 
  2 14  1  0  0  0  0 
  3 19  1  0  0  0  0 
  4 21  1  0  0  0  0 
  4 20  1  0  0  0  0 
  5  8  1  0  0  0  0 
  5  4  1  0  0  0  0 
  6 24  1  0  0  0  0 
  6  7  1  0  0  0  0 
  6 25  1  0  0  0  0 
  7 26  1  6  0  0  0 
  7  2  1  0  0  0  0 
  8  3  1  6  0  0  0 
  8  9  1  0  0  0  0 
  8 10  1  0  0  0  0 
  9  6  1  0  0  0  0 
 10  7  1  0  0  0  0 
 12  1  1  0  0  0  0 
 13  1  1  0  0  0  0 
 17  3  1  0  0  0  0 
 18  3  1  0  0  0  0 
 22  5  1  0  0  0  0 
 23  5  1  0  0  0  0 
M  END 
>  <HBA> 
2 
 
>  <HBD> 
0 
 
>  <TPSA> 
18.46 
 
>  <cid> 
22737 
 
>  <dipole> 
1.13 
 
>  <excitation_energy_1> 
6.358 
 
>  <excitation_energy_2> 
6.631 
 
>  <excitation_energy_3> 
6.747 
 
>  <excitation_energy_4> 
6.775 
 
>  <homo_energy> 
-6.678 
 
>  <homo_lumo_gap> 
9.089 
 
>  <logP> 
1.938 
 
>  <lumo_energy> 
2.411 
 
>  <melting_point> 
-12.19 
 
>  <molecular_refractivity> 
40.66 
 
>  <oscillator_strength_1> 
0.0065 
 
>  <oscillator_strength_2> 
0.0121 
 
>  <oscillator_strength_3> 
0.0192 
 
>  <oscillator_strength_4> 
0.0044 
 
>  <open_babel_can_smiles> 
CCC[C@@]1(C)OC[C@H](O1)C 
 
>  <mulliken_charges> 
26 
1   -0.444284 
2   -0.465433 
3   -0.451646 
4   -0.261999 
5   -0.261437 
6   -0.027202 
7   0.1298 
8   0.53705 
9   -0.523101 
10   -0.521942 
11   0.140941 
12   0.140556 
13   0.140666 
14   0.146632 
15   0.164063 
16   0.157705 
17   0.151898 
18   0.147576 
19   0.145868 
20   0.143212 
21   0.144663 
22   0.135561 
23   0.135799 
24   0.140812 
25   0.129392 
26   0.124852 
 
>  <lowdin_charges> 
26 
1   -0.443037 
2   -0.446493 
3   -0.454855 
4   -0.27464 
5   -0.283458 
6   -0.145941 
7   -0.004099 
8   0.221222 
9   -0.279183 
10   -0.266984 
11   0.149925 
12   0.144282 
13   0.145213 
14   0.157108 
15   0.16145 
16   0.155827 
17   0.158803 
18   0.154624 
19   0.15428 
20   0.144661 
21   0.144977 
22   0.148676 
23   0.147683 
24   0.148406 
25   0.133987 
26   0.127565 
 
$$$$ 
 
