PCCDB-ID:  31140 
public computational chemistry database (PCCDB) project, http://pccdb.org 
 
 23 22  0  0  0  0  0  0  0  0999 V2000 
    2.2033    0.0672   -1.8791 C   0  0  0  0  0  0  0  0  0  0  0  0 
    3.7945    4.2991    2.9874 C   0  0  0  0  0  0  0  0  0  0  0  0 
    5.7919    0.4369    0.4014 C   0  0  0  0  0  0  0  0  0  0  0  0 
    2.9112   -0.4020   -0.5944 C   0  0  0  0  0  0  0  0  0  0  0  0 
    3.4272    3.1293    2.0747 C   0  0  0  0  0  0  0  0  0  0  0  0 
    3.2732    0.7463    0.3047 C   0  0  0  0  0  0  0  0  0  0  0  0 
    4.4921    1.1255    0.7377 C   0  0  0  0  0  0  0  0  0  0  0  0 
    4.6488    2.3188    1.6339 C   0  0  0  0  0  0  0  0  0  0  0  0 
    5.7671    2.6417    2.0132 O   0  0  0  0  0  0  0  0  0  0  0  0 
    1.9012   -0.7898   -2.4911 H   0  0  0  0  0  0  0  0  0  0  0  0 
    2.8626    0.7010   -2.4819 H   0  0  0  0  0  0  0  0  0  0  0  0 
    1.3022    0.6475   -1.6475 H   0  0  0  0  0  0  0  0  0  0  0  0 
    2.8956    4.8535    3.2777 H   0  0  0  0  0  0  0  0  0  0  0  0 
    4.4810    4.9875    2.4865 H   0  0  0  0  0  0  0  0  0  0  0  0 
    4.2939    3.9472    3.8947 H   0  0  0  0  0  0  0  0  0  0  0  0 
    5.6546   -0.4158   -0.2665 H   0  0  0  0  0  0  0  0  0  0  0  0 
    6.2879    0.0877    1.3138 H   0  0  0  0  0  0  0  0  0  0  0  0 
    6.4864    1.1413   -0.0690 H   0  0  0  0  0  0  0  0  0  0  0  0 
    3.7897   -0.9997   -0.8539 H   0  0  0  0  0  0  0  0  0  0  0  0 
    2.2316   -1.0709   -0.0449 H   0  0  0  0  0  0  0  0  0  0  0  0 
    2.9021    3.4911    1.1801 H   0  0  0  0  0  0  0  0  0  0  0  0 
    2.7210    2.4564    2.5800 H   0  0  0  0  0  0  0  0  0  0  0  0 
    2.4138    1.3373    0.6194 H   0  0  0  0  0  0  0  0  0  0  0  0 
  1 12  1  0  0  0  0 
  1  4  1  0  0  0  0 
  2 13  1  0  0  0  0 
  2 15  1  0  0  0  0 
  3  7  1  0  0  0  0 
  3 17  1  0  0  0  0 
  4 20  1  0  0  0  0 
  4  6  1  0  0  0  0 
  5 22  1  0  0  0  0 
  5  2  1  0  0  0  0 
  6 23  1  0  0  0  0 
  6  7  2  0  0  0  0 
  7  8  1  0  0  0  0 
  8  9  2  0  0  0  0 
  8  5  1  0  0  0  0 
 10  1  1  0  0  0  0 
 11  1  1  0  0  0  0 
 14  2  1  0  0  0  0 
 16  3  1  0  0  0  0 
 18  3  1  0  0  0  0 
 19  4  1  0  0  0  0 
 21  5  1  0  0  0  0 
M  END 
>  <HBA> 
1 
 
>  <HBD> 
0 
 
>  <TPSA> 
17.07 
 
>  <cid> 
31140 
 
>  <dipole> 
3.2 
 
>  <excitation_energy_1> 
3.776 
 
>  <excitation_energy_2> 
5.427 
 
>  <excitation_energy_3> 
6.042 
 
>  <excitation_energy_4> 
6.289 
 
>  <homo_energy> 
-6.512 
 
>  <homo_lumo_gap> 
5.355 
 
>  <logP> 
2.322 
 
>  <lumo_energy> 
-1.156 
 
>  <melting_point> 
6.71 
 
>  <molecular_refractivity> 
40.3 
 
>  <oscillator_strength_1> 
0.0002 
 
>  <oscillator_strength_2> 
0.3568 
 
>  <oscillator_strength_3> 
0.0047 
 
>  <oscillator_strength_4> 
0.0028 
 
>  <open_babel_can_smiles> 
CC/C=C(/C(=O)CC)\C 
 
>  <mulliken_charges> 
23 
1   -0.443205 
2   -0.430651 
3   -0.508067 
4   -0.301906 
5   -0.362766 
6   -0.151033 
7   0.098142 
8   0.416746 
9   -0.464498 
10   0.150653 
11   0.155968 
12   0.146819 
13   0.135173 
14   0.159998 
15   0.159778 
16   0.143621 
17   0.170653 
18   0.171267 
19   0.151728 
20   0.152232 
21   0.158792 
22   0.158674 
23   0.13188 
 
>  <lowdin_charges> 
23 
1   -0.442922 
2   -0.440923 
3   -0.442885 
4   -0.275332 
5   -0.312005 
6   -0.143259 
7   -0.051036 
8   0.153698 
9   -0.24638 
10   0.154505 
11   0.154926 
12   0.149396 
13   0.148113 
14   0.159712 
15   0.158678 
16   0.151863 
17   0.168528 
18   0.169621 
19   0.152379 
20   0.156492 
21   0.159843 
22   0.160594 
23   0.156395 
 
$$$$ 
 
