PCCDB-ID:  17005 
public computational chemistry database (PCCDB) project, http://pccdb.org 
 
 25 25  0  0  1  0  0  0  0  0999 V2000 
    0.5760   -1.4518   -0.4812 C   0  0  0  0  0  0  0  0  0  0  0  0 
    2.5239   -3.4701    1.7884 C   0  0  0  0  0  0  0  0  0  0  0  0 
    2.2233   -4.4849    2.7028 C   0  0  0  0  0  0  0  0  0  0  0  0 
    2.5398   -1.0204    1.1063 C   0  0  0  0  0  0  0  0  0  0  0  0 
    1.6603   -1.8483    3.3314 C   0  0  0  0  0  0  0  0  0  0  0  0 
    1.2936   -0.4228    0.3935 C   0  0  1  0  0  0  0  0  0  0  0  0 
    2.2464   -2.1350    2.0869 C   0  0  0  0  0  0  0  0  0  0  0  0 
    1.6389   -4.1928    3.9320 C   0  0  0  0  0  0  0  0  0  0  0  0 
    1.3542   -2.8495    4.2493 C   0  0  0  0  0  0  0  0  0  0  0  0 
    1.6034    0.7586   -0.4245 N   0  0  0  0  0  0  0  0  0  0  0  0 
    1.3238   -5.1383    4.8687 O   0  0  0  0  0  0  0  0  0  0  0  0 
    0.7858   -2.6052    5.4684 O   0  0  0  0  0  0  0  0  0  0  0  0 
    0.2680   -2.3244    0.1023 H   0  0  0  0  0  0  0  0  0  0  0  0 
    1.2369   -1.8041   -1.2857 H   0  0  0  0  0  0  0  0  0  0  0  0 
   -0.3076   -1.0025   -0.9442 H   0  0  0  0  0  0  0  0  0  0  0  0 
    2.9827   -3.7282    0.8378 H   0  0  0  0  0  0  0  0  0  0  0  0 
    2.4497   -5.5217    2.4580 H   0  0  0  0  0  0  0  0  0  0  0  0 
    3.0509   -0.1983    1.6284 H   0  0  0  0  0  0  0  0  0  0  0  0 
    3.2372   -1.3796    0.3365 H   0  0  0  0  0  0  0  0  0  0  0  0 
    1.4405   -0.8142    3.5974 H   0  0  0  0  0  0  0  0  0  0  0  0 
    0.5936   -0.0872    1.1719 H   0  0  0  0  0  0  0  0  0  0  0  0 
    2.2496    0.4912   -1.1686 H   0  0  0  0  0  0  0  0  0  0  0  0 
    2.1013    1.4477    0.1396 H   0  0  0  0  0  0  0  0  0  0  0  0 
    1.5708   -6.0080    4.5183 H   0  0  0  0  0  0  0  0  0  0  0  0 
    0.6481   -1.6492    5.5550 H   0  0  0  0  0  0  0  0  0  0  0  0 
  1 13  1  0  0  0  0 
  1  6  1  0  0  0  0 
  2  7  2  0  0  0  0 
  2  3  1  0  0  0  0 
  3  8  2  0  0  0  0 
  4 18  1  0  0  0  0 
  4  7  1  0  0  0  0 
  5 20  1  0  0  0  0 
  5  9  2  0  0  0  0 
  6  4  1  0  0  0  0 
  6 21  1  1  0  0  0 
  7  5  1  0  0  0  0 
  8  9  1  0  0  0  0 
  8 11  1  0  0  0  0 
  9 12  1  0  0  0  0 
 10 23  1  0  0  0  0 
 10  6  1  0  0  0  0 
 12 25  1  0  0  0  0 
 14  1  1  0  0  0  0 
 15  1  1  0  0  0  0 
 16  2  1  0  0  0  0 
 17  3  1  0  0  0  0 
 19  4  1  0  0  0  0 
 22 10  1  0  0  0  0 
 24 11  1  0  0  0  0 
M  END 
>  <HBA> 
3 
 
>  <HBD> 
3 
 
>  <TPSA> 
66.48 
 
>  <cid> 
17005 
 
>  <dipole> 
1.69 
 
>  <excitation_energy_1> 
4.723 
 
>  <excitation_energy_2> 
4.763 
 
>  <excitation_energy_3> 
4.971 
 
>  <excitation_energy_4> 
5.18 
 
>  <homo_energy> 
-5.448 
 
>  <homo_lumo_gap> 
5.595 
 
>  <logP> 
1.688 
 
>  <lumo_energy> 
0.147 
 
>  <melting_point> 
142.02 
 
>  <molecular_refractivity> 
47.78 
 
>  <oscillator_strength_1> 
0.0733 
 
>  <oscillator_strength_2> 
0.0085 
 
>  <oscillator_strength_3> 
0.0014 
 
>  <oscillator_strength_4> 
0.0175 
 
>  <open_babel_can_smiles> 
C[C@@H](Cc1ccc(c(c1)O)O)N 
 
>  <mulliken_charges> 
25 
1   -0.440935 
2   -0.200759 
3   -0.196197 
4   -0.357713 
5   -0.260516 
6   0.031179 
7   0.18001 
8   0.316283 
9   0.32803 
10   -0.702355 
11   -0.633163 
12   -0.634187 
13   0.15708 
14   0.127281 
15   0.158996 
16   0.120454 
17   0.117371 
18   0.129571 
19   0.128236 
20   0.110529 
21   0.131188 
22   0.286982 
23   0.289518 
24   0.406373 
25   0.406747 
 
>  <lowdin_charges> 
25 
1   -0.451498 
2   -0.180805 
3   -0.204911 
4   -0.293008 
5   -0.217235 
6   -0.06459 
7   -0.012264 
8   0.07338 
9   0.081282 
10   -0.550449 
11   -0.370311 
12   -0.368115 
13   0.159207 
14   0.141741 
15   0.159633 
16   0.154951 
17   0.152295 
18   0.144438 
19   0.143958 
20   0.148975 
21   0.138553 
22   0.250116 
23   0.251327 
24   0.357811 
25   0.35552 
 
$$$$ 
 
