PCCDB-ID:  6738 
public computational chemistry database (PCCDB) project, http://pccdb.org 
 
 19 19  0  0  0  0  0  0  0  0999 V2000 
    0.9421   -0.0977    0.0940 C   0  0  0  0  0  0  0  0  0  0  0  0 
    4.5036    1.2545   -0.2775 C   0  0  0  0  0  0  0  0  0  0  0  0 
    3.1113    1.1910   -0.1968 C   0  0  0  0  0  0  0  0  0  0  0  0 
    5.2504    0.0904   -0.1516 C   0  0  0  0  0  0  0  0  0  0  0  0 
    2.4497   -0.0215    0.0084 C   0  0  0  0  0  0  0  0  0  0  0  0 
    4.6325   -1.1513    0.0559 C   0  0  0  0  0  0  0  0  0  0  0  0 
    3.2286   -1.1846    0.1329 C   0  0  0  0  0  0  0  0  0  0  0  0 
    5.5503   -2.3434    0.1796 C   0  0  0  0  0  0  0  0  0  0  0  0 
    2.6219   -2.4068    0.3358 O   0  0  0  0  0  0  0  0  0  0  0  0 
    6.7539   -2.2265    0.1036 O   0  0  0  0  0  0  0  0  0  0  0  0 
    4.9995   -3.5575    0.3806 O   0  0  0  0  0  0  0  0  0  0  0  0 
    0.4993    0.8955   -0.0166 H   0  0  0  0  0  0  0  0  0  0  0  0 
    0.5979   -0.4926    1.0611 H   0  0  0  0  0  0  0  0  0  0  0  0 
    0.5112   -0.7278   -0.6976 H   0  0  0  0  0  0  0  0  0  0  0  0 
    4.9978    2.2078   -0.4373 H   0  0  0  0  0  0  0  0  0  0  0  0 
    2.5200    2.0983   -0.2942 H   0  0  0  0  0  0  0  0  0  0  0  0 
    6.3332    0.1009   -0.2091 H   0  0  0  0  0  0  0  0  0  0  0  0 
    1.6591   -2.3080    0.3773 H   0  0  0  0  0  0  0  0  0  0  0  0 
    4.0258   -3.4898    0.4126 H   0  0  0  0  0  0  0  0  0  0  0  0 
  1 13  1  0  0  0  0 
  2  3  2  0  0  0  0 
  2  4  1  0  0  0  0 
  3  5  1  0  0  0  0 
  4  6  2  0  0  0  0 
  5  1  1  0  0  0  0 
  5  7  2  0  0  0  0 
  6  7  1  0  0  0  0 
  6  8  1  0  0  0  0 
  7  9  1  0  0  0  0 
  8 11  1  0  0  0  0 
  9 18  1  0  0  0  0 
 10  8  2  0  0  0  0 
 11 19  1  0  0  0  0 
 12  1  1  0  0  0  0 
 14  1  1  0  0  0  0 
 15  2  1  0  0  0  0 
 16  3  1  0  0  0  0 
 17  4  1  0  0  0  0 
M  END 
>  <HBA> 
3 
 
>  <HBD> 
2 
 
>  <TPSA> 
57.53 
 
>  <cid> 
6738 
 
>  <dipole> 
6.98 
 
>  <excitation_energy_1> 
4.674 
 
>  <excitation_energy_2> 
4.676 
 
>  <excitation_energy_3> 
5.398 
 
>  <excitation_energy_4> 
5.428 
 
>  <homo_energy> 
-6.648 
 
>  <homo_lumo_gap> 
5.478 
 
>  <logP> 
1.399 
 
>  <lumo_energy> 
-1.17 
 
>  <melting_point> 
140.46 
 
>  <molecular_refractivity> 
40.39 
 
>  <oscillator_strength_1> 
0.0099 
 
>  <oscillator_strength_2> 
0.0472 
 
>  <oscillator_strength_3> 
0.0016 
 
>  <oscillator_strength_4> 
0.1236 
 
>  <open_babel_can_smiles> 
OC(=O)c1cccc(c1O)C 
 
>  <mulliken_charges> 
19 
1   -0.586914 
2   -0.125355 
3   -0.19053 
4   -0.178873 
5   0.174395 
6   0.026102 
7   0.22159 
8   0.57292 
9   -0.69194 
10   -0.462548 
11   -0.599788 
12   0.181184 
13   0.16756 
14   0.168659 
15   0.139587 
16   0.133602 
17   0.175588 
18   0.433723 
19   0.441038 
 
>  <lowdin_charges> 
19 
1   -0.455492 
2   -0.169933 
3   -0.142908 
4   -0.117066 
5   -0.046081 
6   -0.083771 
7   0.097726 
8   0.191592 
9   -0.386615 
10   -0.256579 
11   -0.357952 
12   0.173448 
13   0.158846 
14   0.160483 
15   0.164308 
16   0.160996 
17   0.182546 
18   0.368442 
19   0.358011 
 
$$$$ 
 
