PCCDB-ID:  8692 
public computational chemistry database (PCCDB) project, http://pccdb.org 
 
 28 28  0  0  1  0  0  0  0  0999 V2000 
   -1.3824    0.8062   -2.7305 C   0  0  0  0  0  0  0  0  0  0  0  0 
   -0.8469    3.0185   -3.5467 C   0  0  0  0  0  0  0  0  0  0  0  0 
   -2.2027    0.5937   -3.8254 C   0  0  0  0  0  0  0  0  0  0  0  0 
   -1.6652    2.8125   -4.6459 C   0  0  0  0  0  0  0  0  0  0  0  0 
    3.7403    3.6780    1.0659 C   0  0  0  0  0  0  0  0  0  0  0  0 
    1.5402    3.7087   -0.1599 C   0  0  0  0  0  0  0  0  0  0  0  0 
   -0.6922    2.0197   -2.5704 C   0  0  0  0  0  0  0  0  0  0  0  0 
   -2.3592    1.5955   -4.8057 C   0  0  0  0  0  0  0  0  0  0  0  0 
    2.9614    3.1605   -0.1543 C   0  0  2  0  0  0  0  0  0  0  0  0 
    0.1612    2.1901   -1.3835 C   0  0  0  0  0  0  0  0  0  0  0  0 
   -3.1379    1.3701   -5.9258 N   0  0  0  0  0  0  0  0  0  0  0  0 
    4.9970    3.0392    1.1460 O   0  0  0  0  0  0  0  0  0  0  0  0 
    3.0188    1.7366   -0.1242 O   0  0  0  0  0  0  0  0  0  0  0  0 
    0.2828    1.3536   -0.4942 O   0  0  0  0  0  0  0  0  0  0  0  0 
    0.8053    3.3808   -1.3603 O   0  0  0  0  0  0  0  0  0  0  0  0 
   -1.2621    0.0362   -1.9756 H   0  0  0  0  0  0  0  0  0  0  0  0 
   -0.3213    3.9603   -3.4354 H   0  0  0  0  0  0  0  0  0  0  0  0 
   -2.7285   -0.3514   -3.9378 H   0  0  0  0  0  0  0  0  0  0  0  0 
   -1.7734    3.5917   -5.3966 H   0  0  0  0  0  0  0  0  0  0  0  0 
    3.1421    3.5029    1.9786 H   0  0  0  0  0  0  0  0  0  0  0  0 
    3.9257    4.7555    0.9846 H   0  0  0  0  0  0  0  0  0  0  0  0 
    1.5639    4.8017   -0.1450 H   0  0  0  0  0  0  0  0  0  0  0  0 
    0.9803    3.3484    0.7092 H   0  0  0  0  0  0  0  0  0  0  0  0 
    3.4776    3.4944   -1.0657 H   0  0  0  0  0  0  0  0  0  0  0  0 
   -3.8325    0.6383   -5.8616 H   0  0  0  0  0  0  0  0  0  0  0  0 
   -3.4574    2.1836   -6.4337 H   0  0  0  0  0  0  0  0  0  0  0  0 
    4.8025    2.0992    0.9772 H   0  0  0  0  0  0  0  0  0  0  0  0 
    2.1112    1.3905   -0.0161 H   0  0  0  0  0  0  0  0  0  0  0  0 
  1  7  1  0  0  0  0 
  1 16  1  0  0  0  0 
  2 17  1  0  0  0  0 
  2  7  2  0  0  0  0 
  3  1  2  0  0  0  0 
  4  2  1  0  0  0  0 
  5 12  1  0  0  0  0 
  5 20  1  0  0  0  0 
  6  9  1  0  0  0  0 
  6 22  1  0  0  0  0 
  6 23  1  0  0  0  0 
  7 10  1  0  0  0  0 
  8  4  2  0  0  0  0 
  8  3  1  0  0  0  0 
  9 24  1  6  0  0  0 
  9 13  1  0  0  0  0 
  9  5  1  0  0  0  0 
 10 15  1  0  0  0  0 
 10 14  2  0  0  0  0 
 11 25  1  0  0  0  0 
 11  8  1  0  0  0  0 
 13 28  1  0  0  0  0 
 15  6  1  0  0  0  0 
 18  3  1  0  0  0  0 
 19  4  1  0  0  0  0 
 21  5  1  0  0  0  0 
 26 11  1  0  0  0  0 
 27 12  1  0  0  0  0 
M  END 
>  <HBA> 
5 
 
>  <HBD> 
3 
 
>  <TPSA> 
92.78 
 
>  <cid> 
8692 
 
>  <dipole> 
7.41 
 
>  <excitation_energy_1> 
4.54 
 
>  <excitation_energy_2> 
4.7 
 
>  <excitation_energy_3> 
5.006 
 
>  <excitation_energy_4> 
5.044 
 
>  <homo_energy> 
-6.019 
 
>  <homo_lumo_gap> 
4.849 
 
>  <logP> 
0.36 
 
>  <lumo_energy> 
-1.17 
 
>  <melting_point> 
115.33 
 
>  <molecular_refractivity> 
54.06 
 
>  <oscillator_strength_1> 
0.5225 
 
>  <oscillator_strength_2> 
0.0048 
 
>  <oscillator_strength_3> 
0.0007 
 
>  <oscillator_strength_4> 
0.0039 
 
>  <open_babel_can_smiles> 
OC[C@H](COC(=O)c1ccc(cc1)N)O 
 
>  <mulliken_charges> 
28 
1   -0.157414 
2   -0.162996 
3   -0.182797 
4   -0.181479 
5   -0.018481 
6   -0.09763 
7   0.047408 
8   0.344713 
9   0.119102 
10   0.603883 
11   -0.792121 
12   -0.627478 
13   -0.676243 
14   -0.533224 
15   -0.476993 
16   0.163907 
17   0.156819 
18   0.128463 
19   0.126766 
20   0.11039 
21   0.131934 
22   0.159858 
23   0.168214 
24   0.142125 
25   0.332139 
26   0.331713 
27   0.408261 
28   0.431159 
 
>  <lowdin_charges> 
28 
1   -0.114786 
2   -0.121756 
3   -0.201221 
4   -0.203621 
5   -0.146144 
6   -0.148717 
7   -0.077883 
8   0.083501 
9   -0.026338 
10   0.211011 
11   -0.469918 
12   -0.464552 
13   -0.48592 
14   -0.303685 
15   -0.188156 
16   0.178506 
17   0.17295 
18   0.157942 
19   0.158027 
20   0.12226 
21   0.140345 
22   0.159877 
23   0.158781 
24   0.143652 
25   0.284208 
26   0.284123 
27   0.346086 
28   0.35143 
 
$$$$ 
 
