PCCDB-ID:  68309 
public computational chemistry database (PCCDB) project, http://pccdb.org 
 
 27 27  0  0  1  0  0  0  0  0999 V2000 
    2.2556    0.3465   -1.5811 C   0  0  0  0  0  0  0  0  0  0  0  0 
   -0.3007    0.3664    1.8728 C   0  0  0  0  0  0  0  0  0  0  0  0 
    0.2875    2.3255    3.1307 C   0  0  0  0  0  0  0  0  0  0  0  0 
   -1.6515    0.6399    2.0795 C   0  0  0  0  0  0  0  0  0  0  0  0 
   -1.0583    2.6120    3.3461 C   0  0  0  0  0  0  0  0  0  0  0  0 
    2.1658    0.9269    2.1706 C   0  0  0  0  0  0  0  0  0  0  0  0 
    0.6949    1.2046    2.3934 C   0  0  0  0  0  0  0  0  0  0  0  0 
   -2.0358    1.7641    2.8184 C   0  0  0  0  0  0  0  0  0  0  0  0 
    2.6382    1.1335    0.7006 C   0  0  1  0  0  0  0  0  0  0  0  0 
    4.1760    1.2598    0.6872 C   0  0  0  0  0  0  0  0  0  0  0  0 
    2.1764    0.0487   -0.1490 N   0  0  0  0  0  0  0  0  0  0  0  0 
   -3.3455    2.0813    3.0573 O   0  0  0  0  0  0  0  0  0  0  0  0 
    4.9127    0.3507    0.3926 O   0  0  0  0  0  0  0  0  0  0  0  0 
    4.6899    2.4544    1.0870 O   0  0  0  0  0  0  0  0  0  0  0  0 
    1.5561    1.1553   -1.8215 H   0  0  0  0  0  0  0  0  0  0  0  0 
    3.2606    0.6392   -1.9272 H   0  0  0  0  0  0  0  0  0  0  0  0 
    1.9459   -0.5391   -2.1444 H   0  0  0  0  0  0  0  0  0  0  0  0 
   -0.0103   -0.4960    1.2825 H   0  0  0  0  0  0  0  0  0  0  0  0 
    1.0388    2.9887    3.5555 H   0  0  0  0  0  0  0  0  0  0  0  0 
   -2.4097   -0.0245    1.6675 H   0  0  0  0  0  0  0  0  0  0  0  0 
   -1.3663    3.4786    3.9226 H   0  0  0  0  0  0  0  0  0  0  0  0 
    2.4197   -0.1044    2.4485 H   0  0  0  0  0  0  0  0  0  0  0  0 
    2.7570    1.5735    2.8315 H   0  0  0  0  0  0  0  0  0  0  0  0 
    2.2012    2.0696    0.3252 H   0  0  0  0  0  0  0  0  0  0  0  0 
    2.7762   -0.7537    0.0459 H   0  0  0  0  0  0  0  0  0  0  0  0 
   -3.9108    1.4116    2.6420 H   0  0  0  0  0  0  0  0  0  0  0  0 
    3.9693    3.0845    1.2554 H   0  0  0  0  0  0  0  0  0  0  0  0 
  1 11  1  0  0  0  0 
  2  4  2  0  0  0  0 
  2  7  1  0  0  0  0 
  3  5  1  0  0  0  0 
  3 19  1  0  0  0  0 
  4  8  1  0  0  0  0 
  5 21  1  0  0  0  0 
  6  7  1  0  0  0  0 
  6 22  1  0  0  0  0 
  6 23  1  0  0  0  0 
  7  3  2  0  0  0  0 
  8 12  1  0  0  0  0 
  8  5  2  0  0  0  0 
  9 24  1  6  0  0  0 
  9  6  1  0  0  0  0 
 10  9  1  0  0  0  0 
 10 14  1  0  0  0  0 
 11 25  1  0  0  0  0 
 11  9  1  0  0  0  0 
 13 10  2  0  0  0  0 
 14 27  1  0  0  0  0 
 15  1  1  0  0  0  0 
 16  1  1  0  0  0  0 
 17  1  1  0  0  0  0 
 18  2  1  0  0  0  0 
 20  4  1  0  0  0  0 
 26 12  1  0  0  0  0 
M  END 
>  <HBA> 
4 
 
>  <HBD> 
3 
 
>  <TPSA> 
69.56 
 
>  <cid> 
68309 
 
>  <dipole> 
3.02 
 
>  <excitation_energy_1> 
4.885 
 
>  <excitation_energy_2> 
5.029 
 
>  <excitation_energy_3> 
5.163 
 
>  <excitation_energy_4> 
5.202 
 
>  <homo_energy> 
-5.932 
 
>  <homo_lumo_gap> 
5.84 
 
>  <logP> 
0.998 
 
>  <lumo_energy> 
-0.093 
 
>  <melting_point> 
150.47 
 
>  <molecular_refractivity> 
52.43 
 
>  <oscillator_strength_1> 
0.0249 
 
>  <oscillator_strength_2> 
0.0275 
 
>  <oscillator_strength_3> 
0.0123 
 
>  <oscillator_strength_4> 
0.0068 
 
>  <open_babel_can_smiles> 
CN[C@H](C(=O)O)Cc1ccc(cc1)O 
 
>  <mulliken_charges> 
27 
1   -0.314622 
2   -0.169729 
3   -0.199666 
4   -0.196958 
5   -0.158041 
6   -0.363026 
7   0.168159 
8   0.351017 
9   -0.087262 
10   0.589511 
11   -0.522721 
12   -0.643338 
13   -0.447683 
14   -0.563356 
15   0.152998 
16   0.143534 
17   0.156357 
18   0.149658 
19   0.117339 
20   0.118837 
21   0.138827 
22   0.164649 
23   0.142958 
24   0.140547 
25   0.31266 
26   0.407358 
27   0.411994 
 
>  <lowdin_charges> 
27 
1   -0.363716 
2   -0.145807 
3   -0.161324 
4   -0.215146 
5   -0.188212 
6   -0.272777 
7   -0.028813 
8   0.103287 
9   -0.109159 
10   0.180514 
11   -0.343313 
12   -0.382213 
13   -0.244307 
14   -0.355252 
15   0.149468 
16   0.133698 
17   0.156588 
18   0.169478 
19   0.152638 
20   0.154384 
21   0.167477 
22   0.161185 
23   0.14985 
24   0.148887 
25   0.263392 
26   0.359011 
27   0.360183 
 
$$$$ 
 
