PCCDB-ID:  62367 
public computational chemistry database (PCCDB) project, http://pccdb.org 
 
 29 30  0  0  1  0  0  0  0  0999 V2000 
    2.2255    0.4678   -1.4999 C   0  0  0  0  0  0  0  0  0  0  0  0 
    0.8234   -1.0077   -0.0149 C   0  0  0  0  0  0  0  0  0  0  0  0 
    4.5091   -4.8742   -1.5366 C   0  0  0  0  0  0  0  0  0  0  0  0 
    4.2268   -3.5845    0.6841 C   0  0  0  0  0  0  0  0  0  0  0  0 
    3.5858   -2.2329    1.0715 C   0  0  0  0  0  0  0  0  0  0  0  0 
    4.4720   -1.5162   -1.2080 C   0  0  0  0  0  0  0  0  0  0  0  0 
    2.2273   -0.4164   -0.2440 C   0  0  0  0  0  0  0  0  0  0  0  0 
    3.3990   -2.5709   -1.3428 C   0  0  1  0  0  0  0  0  0  0  0  0 
    3.6351   -3.9311   -0.7068 C   0  0  1  0  0  0  0  0  0  0  0  0 
    3.2940   -1.5177   -0.2557 C   0  0  2  0  0  0  0  0  0  0  0  0 
    2.3153   -4.4918   -0.5567 O   0  0  0  0  0  0  0  0  0  0  0  0 
    1.4299    1.2186   -1.4330 H   0  0  0  0  0  0  0  0  0  0  0  0 
    2.0407   -0.1201   -2.4084 H   0  0  0  0  0  0  0  0  0  0  0  0 
    3.1735    1.0007   -1.6272 H   0  0  0  0  0  0  0  0  0  0  0  0 
    0.0715   -0.2119    0.0467 H   0  0  0  0  0  0  0  0  0  0  0  0 
    0.7672   -1.5904    0.9098 H   0  0  0  0  0  0  0  0  0  0  0  0 
    0.5470   -1.6771   -0.8379 H   0  0  0  0  0  0  0  0  0  0  0  0 
    5.4915   -4.4323   -1.7350 H   0  0  0  0  0  0  0  0  0  0  0  0 
    4.0254   -5.0911   -2.4949 H   0  0  0  0  0  0  0  0  0  0  0  0 
    4.6711   -5.8268   -1.0132 H   0  0  0  0  0  0  0  0  0  0  0  0 
    4.0134   -4.3789    1.4086 H   0  0  0  0  0  0  0  0  0  0  0  0 
    5.3179   -3.4978    0.6222 H   0  0  0  0  0  0  0  0  0  0  0  0 
    4.2321   -1.6407    1.7322 H   0  0  0  0  0  0  0  0  0  0  0  0 
    2.6461   -2.4074    1.6061 H   0  0  0  0  0  0  0  0  0  0  0  0 
    4.5055   -0.7626   -1.9888 H   0  0  0  0  0  0  0  0  0  0  0  0 
    5.4579   -1.7895   -0.8375 H   0  0  0  0  0  0  0  0  0  0  0  0 
    2.4567    0.2408    0.6101 H   0  0  0  0  0  0  0  0  0  0  0  0 
    2.7573   -2.5506   -2.2205 H   0  0  0  0  0  0  0  0  0  0  0  0 
    2.4224   -5.3796   -0.1786 H   0  0  0  0  0  0  0  0  0  0  0  0 
  1 12  1  0  0  0  0 
  1  7  1  0  0  0  0 
  2 15  1  0  0  0  0 
  2 16  1  0  0  0  0 
  3 20  1  0  0  0  0 
  3  9  1  0  0  0  0 
  4  5  1  0  0  0  0 
  4 21  1  0  0  0  0 
  5 24  1  0  0  0  0 
  5 23  1  0  0  0  0 
  6 26  1  0  0  0  0 
  6 10  1  0  0  0  0 
  7  2  1  0  0  0  0 
  7 27  1  0  0  0  0 
  8 28  1  6  0  0  0 
  8  6  1  0  0  0  0 
  8  9  1  0  0  0  0 
  8 10  1  0  0  0  0 
  9 11  1  1  0  0  0 
  9  4  1  0  0  0  0 
 10  7  1  6  0  0  0 
 10  5  1  0  0  0  0 
 11 29  1  0  0  0  0 
 13  1  1  0  0  0  0 
 14  1  1  0  0  0  0 
 17  2  1  0  0  0  0 
 18  3  1  0  0  0  0 
 19  3  1  0  0  0  0 
 22  4  1  0  0  0  0 
 25  6  1  0  0  0  0 
M  END 
>  <HBA> 
1 
 
>  <HBD> 
1 
 
>  <TPSA> 
20.23 
 
>  <cid> 
62367 
 
>  <dipole> 
1.31 
 
>  <excitation_energy_1> 
6.351 
 
>  <excitation_energy_2> 
6.405 
 
>  <excitation_energy_3> 
6.653 
 
>  <excitation_energy_4> 
6.864 
 
>  <homo_energy> 
-6.882 
 
>  <homo_lumo_gap> 
8.836 
 
>  <logP> 
2.193 
 
>  <lumo_energy> 
1.954 
 
>  <melting_point> 
64.26 
 
>  <molecular_refractivity> 
46.9 
 
>  <oscillator_strength_1> 
0.0142 
 
>  <oscillator_strength_2> 
0.008 
 
>  <oscillator_strength_3> 
0.0059 
 
>  <oscillator_strength_4> 
0.003 
 
>  <open_babel_can_smiles> 
CC([C@]12CC[C@@]([C@@H]2C1)(C)O)C 
 
>  <mulliken_charges> 
29 
1   -0.459698 
2   -0.441887 
3   -0.465037 
4   -0.323933 
5   -0.276338 
6   -0.35219 
7   -0.096595 
8   -0.131148 
9   0.328257 
10   0.116962 
11   -0.647902 
12   0.141078 
13   0.142143 
14   0.14429 
15   0.13196 
16   0.14519 
17   0.153356 
18   0.145587 
19   0.153981 
20   0.127475 
21   0.12649 
22   0.135549 
23   0.130071 
24   0.145709 
25   0.147912 
26   0.13898 
27   0.120401 
28   0.138816 
29   0.380524 
 
>  <lowdin_charges> 
29 
1   -0.446863 
2   -0.44577 
3   -0.455891 
4   -0.295864 
5   -0.27326 
6   -0.325103 
7   -0.114512 
8   -0.165262 
9   0.124506 
10   -0.00986 
11   -0.465059 
12   0.150526 
13   0.145979 
14   0.148636 
15   0.144511 
16   0.149486 
17   0.15392 
18   0.15398 
19   0.156211 
20   0.142121 
21   0.145907 
22   0.14199 
23   0.143679 
24   0.14954 
25   0.162844 
26   0.1522 
27   0.138487 
28   0.157319 
29   0.335601 
 
$$$$ 
 
