PCCDB-ID:  12012 
public computational chemistry database (PCCDB) project, http://pccdb.org 
 
 12 12  0  0  0  0  0  0  0  0999 V2000 
    1.0796    0.0549   -0.0236 C   0  0  0  0  0  0  0  0  0  0  0  0 
    3.3669   -1.1467   -0.1112 C   0  0  0  0  0  0  0  0  0  0  0  0 
    2.5630   -0.0771   -0.0289 C   0  0  0  0  0  0  0  0  0  0  0  0 
    4.7778   -0.6923   -0.0702 C   0  0  0  0  0  0  0  0  0  0  0  0 
    3.4515    1.1292    0.0701 C   0  0  0  0  0  0  0  0  0  0  0  0 
    5.7957   -1.3223   -0.1167 O   0  0  0  0  0  0  0  0  0  0  0  0 
    3.1389    2.2840    0.1610 O   0  0  0  0  0  0  0  0  0  0  0  0 
    4.7704    0.7040    0.0408 O   0  0  0  0  0  0  0  0  0  0  0  0 
    0.5896   -0.9189   -0.0964 H   0  0  0  0  0  0  0  0  0  0  0  0 
    0.7501    0.6835   -0.8593 H   0  0  0  0  0  0  0  0  0  0  0  0 
    0.7450    0.5558    0.8924 H   0  0  0  0  0  0  0  0  0  0  0  0 
    3.1055   -2.1939   -0.1953 H   0  0  0  0  0  0  0  0  0  0  0  0 
  1 11  1  0  0  0  0 
  2  4  1  0  0  0  0 
  2  3  2  0  0  0  0 
  3  1  1  0  0  0  0 
  3  5  1  0  0  0  0 
  4  8  1  0  0  0  0 
  5  7  2  0  0  0  0 
  6  4  2  0  0  0  0 
  8  5  1  0  0  0  0 
  9  1  1  0  0  0  0 
 10  1  1  0  0  0  0 
 12  2  1  0  0  0  0 
M  END 
>  <HBA> 
3 
 
>  <HBD> 
0 
 
>  <TPSA> 
43.37 
 
>  <cid> 
12012 
 
>  <dipole> 
4.6 
 
>  <excitation_energy_1> 
3.74 
 
>  <excitation_energy_2> 
4.413 
 
>  <excitation_energy_3> 
5.067 
 
>  <excitation_energy_4> 
5.915 
 
>  <homo_energy> 
-7.968 
 
>  <homo_lumo_gap> 
5.072 
 
>  <logP> 
0.016 
 
>  <lumo_energy> 
-2.895 
 
>  <melting_point> 
43.72 
 
>  <molecular_refractivity> 
25.05 
 
>  <oscillator_strength_1> 
0.0 
 
>  <oscillator_strength_2> 
0.0 
 
>  <oscillator_strength_3> 
0.0662 
 
>  <oscillator_strength_4> 
0.3142 
 
>  <open_babel_can_smiles> 
O=C1C=C(C(=O)O1)C 
 
>  <mulliken_charges> 
12 
1   -0.521246 
2   -0.231253 
3   0.113177 
4   0.613523 
5   0.590638 
6   -0.42213 
7   -0.421059 
8   -0.466236 
9   0.174414 
10   0.195148 
11   0.195192 
12   0.17983 
 
>  <lowdin_charges> 
12 
1   -0.435038 
2   -0.17799 
3   0.001812 
4   0.213157 
5   0.200462 
6   -0.181393 
7   -0.184992 
8   -0.162145 
9   0.170493 
10   0.184676 
11   0.184277 
12   0.18668 
 
$$$$ 
 
