PCCDB-ID:  31248 
public computational chemistry database (PCCDB) project, http://pccdb.org 
 
 26 25  0  0  0  0  0  0  0  0999 V2000 
    0.9180    2.9425   -0.9618 C   0  0  0  0  0  0  0  0  0  0  0  0 
   -5.4443    0.6442    3.1353 C   0  0  0  0  0  0  0  0  0  0  0  0 
    0.3400    1.8198   -0.0723 C   0  0  0  0  0  0  0  0  0  0  0  0 
   -4.9587    0.8000    1.6956 C   0  0  0  0  0  0  0  0  0  0  0  0 
    1.0301    4.3228   -0.3003 C   0  0  0  0  0  0  0  0  0  0  0  0 
   -5.0884   -0.7306    3.6952 C   0  0  0  0  0  0  0  0  0  0  0  0 
   -1.1715    1.8290    0.0035 C   0  0  0  0  0  0  0  0  0  0  0  0 
   -3.4448    0.8617    1.6459 C   0  0  0  0  0  0  0  0  0  0  0  0 
    2.0895    4.8901   -0.1780 O   0  0  0  0  0  0  0  0  0  0  0  0 
   -0.1166    4.8834    0.1263 O   0  0  0  0  0  0  0  0  0  0  0  0 
   -4.5658   -1.6031    3.0482 O   0  0  0  0  0  0  0  0  0  0  0  0 
   -5.4154   -0.9389    4.9944 O   0  0  0  0  0  0  0  0  0  0  0  0 
   -1.9041    2.7836   -0.1275 O   0  0  0  0  0  0  0  0  0  0  0  0 
   -2.6994    1.2026    2.5210 O   0  0  0  0  0  0  0  0  0  0  0  0 
   -1.6065    0.5613    0.2513 O   0  0  0  0  0  0  0  0  0  0  0  0 
   -3.0455    0.5068    0.3700 O   0  0  0  0  0  0  0  0  0  0  0  0 
    0.3220    3.0298   -1.8791 H   0  0  0  0  0  0  0  0  0  0  0  0 
    1.9331    2.6678   -1.2530 H   0  0  0  0  0  0  0  0  0  0  0  0 
   -6.5336    0.7731    3.1776 H   0  0  0  0  0  0  0  0  0  0  0  0 
   -4.9985    1.4205    3.7686 H   0  0  0  0  0  0  0  0  0  0  0  0 
    0.7144    1.8986    0.9571 H   0  0  0  0  0  0  0  0  0  0  0  0 
    0.6634    0.8412   -0.4396 H   0  0  0  0  0  0  0  0  0  0  0  0 
   -5.3331    1.7367    1.2645 H   0  0  0  0  0  0  0  0  0  0  0  0 
   -5.3148   -0.0208    1.0688 H   0  0  0  0  0  0  0  0  0  0  0  0 
   -0.8785    4.2852   -0.0389 H   0  0  0  0  0  0  0  0  0  0  0  0 
   -5.8001   -0.1349    5.3817 H   0  0  0  0  0  0  0  0  0  0  0  0 
  1  5  1  0  0  0  0 
  1  3  1  0  0  0  0 
  2 19  1  0  0  0  0 
  2  6  1  0  0  0  0 
  2 20  1  0  0  0  0 
  3  7  1  0  0  0  0 
  3 21  1  0  0  0  0 
  4  2  1  0  0  0  0 
  5  9  2  0  0  0  0 
  5 10  1  0  0  0  0 
  6 12  1  0  0  0  0 
  7 15  1  0  0  0  0 
  8  4  1  0  0  0  0 
  8 14  2  0  0  0  0 
 11  6  2  0  0  0  0 
 12 26  1  0  0  0  0 
 13  7  2  0  0  0  0 
 15 16  1  0  0  0  0 
 16  8  1  0  0  0  0 
 17  1  1  0  0  0  0 
 18  1  1  0  0  0  0 
 22  3  1  0  0  0  0 
 23  4  1  0  0  0  0 
 24  4  1  0  0  0  0 
 25 10  1  0  0  0  0 
M  END 
>  <HBA> 
8 
 
>  <HBD> 
2 
 
>  <TPSA> 
127.2 
 
>  <cid> 
31248 
 
>  <dipole> 
5.44 
 
>  <excitation_energy_1> 
5.342 
 
>  <excitation_energy_2> 
5.476 
 
>  <excitation_energy_3> 
5.706 
 
>  <excitation_energy_4> 
5.789 
 
>  <homo_energy> 
-7.132 
 
>  <homo_lumo_gap> 
5.927 
 
>  <logP> 
-0.283 
 
>  <lumo_energy> 
-1.205 
 
>  <melting_point> 
156.0 
 
>  <molecular_refractivity> 
46.68 
 
>  <oscillator_strength_1> 
0.0136 
 
>  <oscillator_strength_2> 
0.0019 
 
>  <oscillator_strength_3> 
0.0054 
 
>  <oscillator_strength_4> 
0.0003 
 
>  <open_babel_can_smiles> 
O=C(OOC(=O)CCC(=O)O)CCC(=O)O 
 
>  <mulliken_charges> 
26 
1   -0.384564 
2   -0.41367 
3   -0.392199 
4   -0.368666 
5   0.579993 
6   0.62537 
7   0.676406 
8   0.677061 
9   -0.442136 
10   -0.584165 
11   -0.435709 
12   -0.560593 
13   -0.474774 
14   -0.44546 
15   -0.245322 
16   -0.257937 
17   0.181171 
18   0.191568 
19   0.183121 
20   0.196857 
21   0.224542 
22   0.202213 
23   0.200014 
24   0.20944 
25   0.442752 
26   0.41469 
 
>  <lowdin_charges> 
26 
1   -0.312932 
2   -0.321158 
3   -0.297572 
4   -0.294352 
5   0.187618 
6   0.203068 
7   0.216508 
8   0.215068 
9   -0.248872 
10   -0.365418 
11   -0.236237 
12   -0.347511 
13   -0.246602 
14   -0.222865 
15   -0.047446 
16   -0.065226 
17   0.171407 
18   0.18142 
19   0.172225 
20   0.180031 
21   0.194827 
22   0.185244 
23   0.18649 
24   0.189704 
25   0.359875 
26   0.362706 
 
$$$$ 
 
