PCCDB-ID:  70286 
public computational chemistry database (PCCDB) project, http://pccdb.org 
 
 18 18  0  0  0  0  0  0  0  0999 V2000 
   -1.2180    1.2996   -0.3761 C   0  0  0  0  0  0  0  0  0  0  0  0 
    0.1398    0.8377   -0.4576 C   0  0  0  0  0  0  0  0  0  0  0  0 
    1.2002   -1.5169    0.0386 C   0  0  0  0  0  0  0  0  0  0  0  0 
    0.7990   -2.9416   -0.4153 C   0  0  0  0  0  0  0  0  0  0  0  0 
   -1.9631    0.2304    0.0010 C   0  0  0  0  0  0  0  0  0  0  0  0 
    0.1331   -0.4805   -0.1184 C   0  0  0  0  0  0  0  0  0  0  0  0 
    0.4350   -3.0366   -1.8949 C   0  0  0  0  0  0  0  0  0  0  0  0 
    1.1712   -3.4886   -2.7370 O   0  0  0  0  0  0  0  0  0  0  0  0 
   -0.7930   -2.5678   -2.2325 O   0  0  0  0  0  0  0  0  0  0  0  0 
   -1.1595   -0.8720    0.1653 O   0  0  0  0  0  0  0  0  0  0  0  0 
   -1.5818    2.2976   -0.5769 H   0  0  0  0  0  0  0  0  0  0  0  0 
    1.0088    1.4174   -0.7366 H   0  0  0  0  0  0  0  0  0  0  0  0 
    2.0817   -1.1863   -0.5212 H   0  0  0  0  0  0  0  0  0  0  0  0 
    1.5058   -1.5824    1.0925 H   0  0  0  0  0  0  0  0  0  0  0  0 
   -0.0388   -3.2944    0.1980 H   0  0  0  0  0  0  0  0  0  0  0  0 
    1.6439   -3.6136   -0.2508 H   0  0  0  0  0  0  0  0  0  0  0  0 
   -3.0145    0.0723    0.1849 H   0  0  0  0  0  0  0  0  0  0  0  0 
   -1.2317   -2.1866   -1.4501 H   0  0  0  0  0  0  0  0  0  0  0  0 
  1  5  2  0  0  0  0 
  2  1  1  0  0  0  0 
  2  6  2  0  0  0  0 
  3 14  1  0  0  0  0 
  4 16  1  0  0  0  0 
  4  3  1  0  0  0  0 
  4 15  1  0  0  0  0 
  5 10  1  0  0  0  0 
  5 17  1  0  0  0  0 
  6  3  1  0  0  0  0 
  6 10  1  0  0  0  0 
  7  4  1  0  0  0  0 
  8  7  2  0  0  0  0 
  9  7  1  0  0  0  0 
  9 18  1  0  0  0  0 
 11  1  1  0  0  0  0 
 12  2  1  0  0  0  0 
 13  3  1  0  0  0  0 
M  END 
>  <HBA> 
3 
 
>  <HBD> 
1 
 
>  <TPSA> 
50.44 
 
>  <cid> 
70286 
 
>  <dipole> 
4.76 
 
>  <excitation_energy_1> 
5.456 
 
>  <excitation_energy_2> 
5.595 
 
>  <excitation_energy_3> 
5.822 
 
>  <excitation_energy_4> 
5.923 
 
>  <homo_energy> 
-6.416 
 
>  <homo_lumo_gap> 
6.31 
 
>  <logP> 
1.297 
 
>  <lumo_energy> 
-0.106 
 
>  <melting_point> 
82.21 
 
>  <molecular_refractivity> 
35.06 
 
>  <oscillator_strength_1> 
0.0032 
 
>  <oscillator_strength_2> 
0.0252 
 
>  <oscillator_strength_3> 
0.1574 
 
>  <oscillator_strength_4> 
0.0186 
 
>  <open_babel_can_smiles> 
OC(=O)CCc1ccco1 
 
>  <mulliken_charges> 
18 
1   -0.170569 
2   -0.196283 
3   -0.349781 
4   -0.384492 
5   0.073037 
6   0.333021 
7   0.588365 
8   -0.444207 
9   -0.57585 
10   -0.469699 
11   0.151737 
12   0.148709 
13   0.180357 
14   0.174573 
15   0.167587 
16   0.182085 
17   0.163619 
18   0.42779 
 
>  <lowdin_charges> 
18 
1   -0.190984 
2   -0.208022 
3   -0.269386 
4   -0.317142 
5   -0.083628 
6   0.058252 
7   0.195669 
8   -0.246115 
9   -0.365178 
10   -0.129062 
11   0.17383 
12   0.174028 
13   0.172682 
14   0.164966 
15   0.163126 
16   0.177045 
17   0.173388 
18   0.356531 
 
$$$$ 
 
