PCCDB-ID:  31277 
public computational chemistry database (PCCDB) project, http://pccdb.org 
 
 15 14  0  0  0  0  0  0  0  0999 V2000 
    0.1021    0.7474    0.0618 C   0  0  0  0  0  0  0  0  0  0  0  0 
    2.4576    2.2626    0.6280 C   0  0  0  0  0  0  0  0  0  0  0  0 
    0.0257   -0.7420   -0.3060 C   0  0  0  0  0  0  0  0  0  0  0  0 
    3.3440    1.6728   -0.4692 C   0  0  0  0  0  0  0  0  0  0  0  0 
   -1.0225   -1.3415   -0.2667 O   0  0  0  0  0  0  0  0  0  0  0  0 
    1.1671   -1.3216   -0.6931 O   0  0  0  0  0  0  0  0  0  0  0  0 
    3.1969    0.5913   -0.9905 O   0  0  0  0  0  0  0  0  0  0  0  0 
    4.3410    2.4773   -0.8923 O   0  0  0  0  0  0  0  0  0  0  0  0 
    1.2936    1.1116    1.4270 S   0  0  0  0  0  0  0  0  0  0  0  0 
   -0.8946    1.0583    0.3754 H   0  0  0  0  0  0  0  0  0  0  0  0 
    0.3942    1.3292   -0.8185 H   0  0  0  0  0  0  0  0  0  0  0  0 
    1.9262    3.1300    0.2137 H   0  0  0  0  0  0  0  0  0  0  0  0 
    3.0910    2.6396    1.4403 H   0  0  0  0  0  0  0  0  0  0  0  0 
    1.9127   -0.6798   -0.6830 H   0  0  0  0  0  0  0  0  0  0  0  0 
    4.3579    3.3071   -0.3855 H   0  0  0  0  0  0  0  0  0  0  0  0 
  1 10  1  0  0  0  0 
  1  9  1  0  0  0  0 
  2  9  1  0  0  0  0 
  2 13  1  0  0  0  0 
  3  5  2  0  0  0  0 
  3  1  1  0  0  0  0 
  4  2  1  0  0  0  0 
  6 14  1  0  0  0  0 
  6  3  1  0  0  0  0 
  7  4  2  0  0  0  0 
  8  4  1  0  0  0  0 
  8 15  1  0  0  0  0 
 11  1  1  0  0  0  0 
 12  2  1  0  0  0  0 
M  END 
>  <HBA> 
5 
 
>  <HBD> 
2 
 
>  <TPSA> 
99.9 
 
>  <cid> 
31277 
 
>  <dipole> 
8.26 
 
>  <excitation_energy_1> 
4.843 
 
>  <excitation_energy_2> 
5.068 
 
>  <excitation_energy_3> 
5.186 
 
>  <excitation_energy_4> 
5.67 
 
>  <homo_energy> 
-6.808 
 
>  <homo_lumo_gap> 
5.848 
 
>  <logP> 
-0.111 
 
>  <lumo_energy> 
-0.961 
 
>  <melting_point> 
138.05 
 
>  <molecular_refractivity> 
32.48 
 
>  <oscillator_strength_1> 
0.0002 
 
>  <oscillator_strength_2> 
0.0078 
 
>  <oscillator_strength_3> 
0.0063 
 
>  <oscillator_strength_4> 
0.0035 
 
>  <open_babel_can_smiles> 
OC(=O)CSCC(=O)O 
 
>  <mulliken_charges> 
15 
1   -0.544377 
2   -0.567639 
3   0.601228 
4   0.624869 
5   -0.440114 
6   -0.581468 
7   -0.436765 
8   -0.537373 
9   0.161233 
10   0.217378 
11   0.195832 
12   0.2134 
13   0.208685 
14   0.463161 
15   0.421951 
 
>  <lowdin_charges> 
15 
1   -0.420534 
2   -0.437724 
3   0.185307 
4   0.203327 
5   -0.246759 
6   -0.350449 
7   -0.231998 
8   -0.328257 
9   0.150955 
10   0.189078 
11   0.181168 
12   0.184198 
13   0.191296 
14   0.36287 
15   0.367522 
 
$$$$ 
 
