PCCDB-ID:  17818 
public computational chemistry database (PCCDB) project, http://pccdb.org 
 
 18 18  0  0  0  0  0  0  0  0999 V2000 
    1.0023   -0.0896    0.0457 C   0  0  0  0  0  0  0  0  0  0  0  0 
    3.2433   -1.2979   -0.0887 C   0  0  0  0  0  0  0  0  0  0  0  0 
    4.6346   -1.3173   -0.1831 C   0  0  0  0  0  0  0  0  0  0  0  0 
    4.6292    1.0940   -0.2133 C   0  0  0  0  0  0  0  0  0  0  0  0 
    2.5067   -0.1124   -0.0543 C   0  0  0  0  0  0  0  0  0  0  0  0 
    5.3473   -0.1119   -0.2457 C   0  0  0  0  0  0  0  0  0  0  0  0 
    3.2378    1.0865   -0.1182 C   0  0  0  0  0  0  0  0  0  0  0  0 
    6.7486   -0.1019   -0.2786 N   0  0  0  0  0  0  0  0  0  0  0  0 
    2.5132    2.2516   -0.0865 O   0  0  0  0  0  0  0  0  0  0  0  0 
    0.6044   -1.1069    0.1175 H   0  0  0  0  0  0  0  0  0  0  0  0 
    0.5446    0.3935   -0.8268 H   0  0  0  0  0  0  0  0  0  0  0  0 
    0.6646    0.4714    0.9256 H   0  0  0  0  0  0  0  0  0  0  0  0 
    2.7071   -2.2434   -0.0417 H   0  0  0  0  0  0  0  0  0  0  0  0 
    5.1692   -2.2638   -0.2024 H   0  0  0  0  0  0  0  0  0  0  0  0 
    5.1636    2.0430   -0.2552 H   0  0  0  0  0  0  0  0  0  0  0  0 
    7.1592   -0.9479   -0.6551 H   0  0  0  0  0  0  0  0  0  0  0  0 
    7.1530    0.7181   -0.7150 H   0  0  0  0  0  0  0  0  0  0  0  0 
    3.1267    3.0019   -0.1130 H   0  0  0  0  0  0  0  0  0  0  0  0 
  1 10  1  0  0  0  0 
  1 12  1  0  0  0  0 
  2  5  1  0  0  0  0 
  2 13  1  0  0  0  0 
  3  2  2  0  0  0  0 
  4  7  1  0  0  0  0 
  5  1  1  0  0  0  0 
  6  4  2  0  0  0  0 
  6  3  1  0  0  0  0 
  7  9  1  0  0  0  0 
  7  5  2  0  0  0  0 
  8  6  1  0  0  0  0 
 11  1  1  0  0  0  0 
 14  3  1  0  0  0  0 
 15  4  1  0  0  0  0 
 16  8  1  0  0  0  0 
 17  8  1  0  0  0  0 
 18  9  1  0  0  0  0 
M  END 
>  <HBA> 
2 
 
>  <HBD> 
2 
 
>  <TPSA> 
46.25 
 
>  <cid> 
17818 
 
>  <dipole> 
2.5 
 
>  <excitation_energy_1> 
4.492 
 
>  <excitation_energy_2> 
4.658 
 
>  <excitation_energy_3> 
4.795 
 
>  <excitation_energy_4> 
5.218 
 
>  <homo_energy> 
-5.143 
 
>  <homo_lumo_gap> 
5.622 
 
>  <logP> 
1.864 
 
>  <lumo_energy> 
0.479 
 
>  <melting_point> 
98.28 
 
>  <molecular_refractivity> 
37.84 
 
>  <oscillator_strength_1> 
0.0033 
 
>  <oscillator_strength_2> 
0.047 
 
>  <oscillator_strength_3> 
0.004 
 
>  <oscillator_strength_4> 
0.0014 
 
>  <open_babel_can_smiles> 
Nc1ccc(c(c1)O)C 
 
>  <mulliken_charges> 
18 
1   -0.513105 
2   -0.19982 
3   -0.176437 
4   -0.246188 
5   0.137849 
6   0.306394 
7   0.295934 
8   -0.789556 
9   -0.646777 
10   0.142819 
11   0.159832 
12   0.16159 
13   0.118321 
14   0.109943 
15   0.100612 
16   0.318298 
17   0.315247 
18   0.405044 
 
>  <lowdin_charges> 
18 
1   -0.436059 
2   -0.148056 
3   -0.224712 
4   -0.258432 
5   -0.053401 
6   0.066925 
7   0.104306 
8   -0.494094 
9   -0.383256 
10   0.15122 
11   0.15946 
12   0.160449 
13   0.154105 
14   0.151187 
15   0.146008 
16   0.274807 
17   0.27319 
18   0.356353 
 
$$$$ 
 
