PCCDB-ID:  12247 
public computational chemistry database (PCCDB) project, http://pccdb.org 
 
 16 15  0  0  1  0  0  0  0  0999 V2000 
    1.4838   -1.0291   -0.3304 C   0  0  0  0  0  0  0  0  0  0  0  0 
    5.1543    0.7503    0.6994 C   0  0  0  0  0  0  0  0  0  0  0  0 
    2.1770    0.0259    0.1086 C   0  0  0  0  0  0  0  0  0  0  0  0 
    3.0341    0.9048   -0.7636 C   0  0  0  0  0  0  0  0  0  0  0  0 
    4.5403    0.5411   -0.6885 C   0  0  2  0  0  0  0  0  0  0  0  0 
    4.7599   -0.7856   -1.1566 O   0  0  0  0  0  0  0  0  0  0  0  0 
    0.9015   -1.6544    0.3415 H   0  0  0  0  0  0  0  0  0  0  0  0 
    1.4541   -1.2905   -1.3866 H   0  0  0  0  0  0  0  0  0  0  0  0 
    5.0532    1.7917    1.0292 H   0  0  0  0  0  0  0  0  0  0  0  0 
    6.2187    0.4970    0.6748 H   0  0  0  0  0  0  0  0  0  0  0  0 
    4.6742    0.1085    1.4479 H   0  0  0  0  0  0  0  0  0  0  0  0 
    2.1647    0.2543    1.1749 H   0  0  0  0  0  0  0  0  0  0  0  0 
    2.9078    1.9588   -0.4813 H   0  0  0  0  0  0  0  0  0  0  0  0 
    2.7230    0.8031   -1.8097 H   0  0  0  0  0  0  0  0  0  0  0  0 
    5.0680    1.1808   -1.4059 H   0  0  0  0  0  0  0  0  0  0  0  0 
    4.1448   -1.3582   -0.6663 H   0  0  0  0  0  0  0  0  0  0  0  0 
  1  3  2  0  0  0  0 
  1  7  1  0  0  0  0 
  2  9  1  0  0  0  0 
  2 11  1  0  0  0  0 
  3 12  1  0  0  0  0 
  4  5  1  0  0  0  0 
  4 13  1  0  0  0  0 
  4  3  1  0  0  0  0 
  5 15  1  6  0  0  0 
  5  2  1  0  0  0  0 
  6  5  1  0  0  0  0 
  6 16  1  0  0  0  0 
  8  1  1  0  0  0  0 
 10  2  1  0  0  0  0 
 14  4  1  0  0  0  0 
M  END 
>  <HBA> 
1 
 
>  <HBD> 
1 
 
>  <TPSA> 
20.23 
 
>  <cid> 
12247 
 
>  <dipole> 
1.71 
 
>  <excitation_energy_1> 
6.166 
 
>  <excitation_energy_2> 
6.539 
 
>  <excitation_energy_3> 
6.942 
 
>  <excitation_energy_4> 
6.971 
 
>  <homo_energy> 
-6.898 
 
>  <homo_lumo_gap> 
7.105 
 
>  <logP> 
0.943 
 
>  <lumo_energy> 
0.207 
 
>  <melting_point> 
-27.88 
 
>  <molecular_refractivity> 
26.84 
 
>  <oscillator_strength_1> 
0.0447 
 
>  <oscillator_strength_2> 
0.0083 
 
>  <oscillator_strength_3> 
0.0755 
 
>  <oscillator_strength_4> 
0.1558 
 
>  <open_babel_can_smiles> 
C[C@H](CC=C)O 
 
>  <mulliken_charges> 
16 
1   -0.343367 
2   -0.454508 
3   -0.076058 
4   -0.314909 
5   0.139234 
6   -0.624597 
7   0.144591 
8   0.148657 
9   0.136474 
10   0.159694 
11   0.138465 
12   0.13451 
13   0.138808 
14   0.152351 
15   0.135868 
16   0.384787 
 
>  <lowdin_charges> 
16 
1   -0.344019 
2   -0.462116 
3   -0.150323 
4   -0.29166 
5   0.003381 
6   -0.469976 
7   0.161729 
8   0.157982 
9   0.148053 
10   0.158214 
11   0.147802 
12   0.151116 
13   0.150981 
14   0.155032 
15   0.144581 
16   0.339223 
 
$$$$ 
 
