PCCDB-ID:  60490 
public computational chemistry database (PCCDB) project, http://pccdb.org 
 
 28 29  0  0  1  0  0  0  0  0999 V2000 
    1.0337    0.4527   -0.2009 C   0  0  0  0  0  0  0  0  0  0  0  0 
    2.0832   -3.9429    4.9459 C   0  0  0  0  0  0  0  0  0  0  0  0 
    3.2329   -3.2890    5.4262 C   0  0  0  0  0  0  0  0  0  0  0  0 
    1.5232   -3.5898    3.7263 C   0  0  0  0  0  0  0  0  0  0  0  0 
    3.8346   -2.2738    4.6905 C   0  0  0  0  0  0  0  0  0  0  0  0 
    1.7045   -2.0342    1.6865 C   0  0  0  0  0  0  0  0  0  0  0  0 
    2.4005   -0.2389   -0.0523 C   0  0  1  0  0  0  0  0  0  0  0  0 
    2.1108   -2.5651    2.9608 C   0  0  0  0  0  0  0  0  0  0  0  0 
    3.2692   -1.9199    3.4615 C   0  0  0  0  0  0  0  0  0  0  0  0 
    2.5076   -1.0358    1.2288 C   0  0  0  0  0  0  0  0  0  0  0  0 
    3.2309   -0.5345   -2.4033 C   0  0  0  0  0  0  0  0  0  0  0  0 
    3.1606   -1.0087   -3.5838 N   0  0  0  0  0  0  0  0  0  0  0  0 
    2.7407   -1.0856   -1.2170 N   0  0  0  0  0  0  0  0  0  0  0  0 
    3.8809    0.6347   -2.1699 O   0  0  0  0  0  0  0  0  0  0  0  0 
    1.8049   -2.1098   -1.4570 O   0  0  0  0  0  0  0  0  0  0  0  0 
    3.8264   -0.6843    2.3467 S   0  0  0  0  0  0  0  0  0  0  0  0 
    0.8587    1.1181    0.6494 H   0  0  0  0  0  0  0  0  0  0  0  0 
    0.2142   -0.2733   -0.2214 H   0  0  0  0  0  0  0  0  0  0  0  0 
    1.0051    1.0528   -1.1178 H   0  0  0  0  0  0  0  0  0  0  0  0 
    1.6311   -4.7338    5.5379 H   0  0  0  0  0  0  0  0  0  0  0  0 
    3.6571   -3.5798    6.3832 H   0  0  0  0  0  0  0  0  0  0  0  0 
    0.6361   -4.0983    3.3576 H   0  0  0  0  0  0  0  0  0  0  0  0 
    4.7223   -1.7700    5.0619 H   0  0  0  0  0  0  0  0  0  0  0  0 
    0.8510   -2.4090    1.1335 H   0  0  0  0  0  0  0  0  0  0  0  0 
    3.1742    0.5306   -0.0507 H   0  0  0  0  0  0  0  0  0  0  0  0 
    2.6933   -1.9141   -3.5849 H   0  0  0  0  0  0  0  0  0  0  0  0 
    4.2641    0.8756   -3.0322 H   0  0  0  0  0  0  0  0  0  0  0  0 
    1.0440   -1.6839   -1.9052 H   0  0  0  0  0  0  0  0  0  0  0  0 
  1  7  1  0  0  0  0 
  1 17  1  0  0  0  0 
  2  3  1  0  0  0  0 
  2 20  1  0  0  0  0 
  3 21  1  0  0  0  0 
  4  2  2  0  0  0  0 
  5 23  1  0  0  0  0 
  5  3  2  0  0  0  0 
  6  8  1  0  0  0  0 
  7 25  1  1  0  0  0 
  7 10  1  0  0  0  0 
  8  9  2  0  0  0  0 
  8  4  1  0  0  0  0 
  9  5  1  0  0  0  0 
 10  6  2  0  0  0  0 
 10 16  1  0  0  0  0 
 11 14  1  0  0  0  0 
 11 13  1  0  0  0  0 
 12 11  2  0  0  0  0 
 13  7  1  0  0  0  0 
 15 13  1  0  0  0  0 
 16  9  1  0  0  0  0 
 18  1  1  0  0  0  0 
 19  1  1  0  0  0  0 
 22  4  1  0  0  0  0 
 24  6  1  0  0  0  0 
 26 12  1  0  0  0  0 
 27 14  1  0  0  0  0 
 28 15  1  0  0  0  0 
M  END 
>  <HBA> 
5 
 
>  <HBD> 
2 
 
>  <TPSA> 
94.8 
 
>  <cid> 
60490 
 
>  <dipole> 
2.53 
 
>  <excitation_energy_1> 
4.562 
 
>  <excitation_energy_2> 
4.771 
 
>  <excitation_energy_3> 
4.905 
 
>  <excitation_energy_4> 
5.05 
 
>  <homo_energy> 
-5.861 
 
>  <homo_lumo_gap> 
5.138 
 
>  <logP> 
3.433 
 
>  <lumo_energy> 
-0.724 
 
>  <melting_point> 
192.91 
 
>  <molecular_refractivity> 
63.33 
 
>  <oscillator_strength_1> 
0.0722 
 
>  <oscillator_strength_2> 
0.0635 
 
>  <oscillator_strength_3> 
0.0001 
 
>  <oscillator_strength_4> 
0.0039 
 
>  <open_babel_can_smiles> 
ON([C@H](c1cc2c(s1)cccc2)C)C(=N)O 
 
>  <mulliken_charges> 
28 
1   -0.467679 
2   -0.142939 
3   -0.121287 
4   -0.176577 
5   -0.174767 
6   -0.137966 
7   -0.045971 
8   0.14488 
9   -0.138317 
10   -0.122378 
11   0.649917 
12   -0.659615 
13   -0.197431 
14   -0.606538 
15   -0.503258 
16   0.220585 
17   0.174339 
18   0.150867 
19   0.161017 
20   0.130484 
21   0.131404 
22   0.13089 
23   0.141076 
24   0.142479 
25   0.194529 
26   0.298387 
27   0.427481 
28   0.396388 
 
>  <lowdin_charges> 
28 
1   -0.457841 
2   -0.162563 
3   -0.158075 
4   -0.158066 
5   -0.160819 
6   -0.185369 
7   -0.059617 
8   -0.015781 
9   -0.135042 
10   -0.143874 
11   0.141653 
12   -0.469318 
13   -0.023246 
14   -0.373657 
15   -0.366181 
16   0.274615 
17   0.171052 
18   0.152269 
19   0.157691 
20   0.159863 
21   0.15969 
22   0.160193 
23   0.164897 
24   0.168487 
25   0.182425 
26   0.265437 
27   0.372701 
28   0.338474 
 
$$$$ 
 
