PCCDB-ID:  12148 
public computational chemistry database (PCCDB) project, http://pccdb.org 
 
 21 21  0  0  0  0  0  0  0  0999 V2000 
    0.6707    0.0473    0.1433 C   0  0  0  0  0  0  0  0  0  0  0  0 
    2.8388   -1.2645   -0.0401 C   0  0  0  0  0  0  0  0  0  0  0  0 
    2.9522    1.1263   -0.0990 C   0  0  0  0  0  0  0  0  0  0  0  0 
    4.2260   -1.3379   -0.1517 C   0  0  0  0  0  0  0  0  0  0  0  0 
    4.3372    1.0712   -0.2321 C   0  0  0  0  0  0  0  0  0  0  0  0 
    2.1729   -0.0344    0.0013 C   0  0  0  0  0  0  0  0  0  0  0  0 
    4.9931   -0.1702   -0.2460 C   0  0  0  0  0  0  0  0  0  0  0  0 
    7.3531    0.5658    0.1186 C   0  0  0  0  0  0  0  0  0  0  0  0 
    7.2684    1.5648    0.9079 N   0  0  0  0  0  0  0  0  0  0  0  0 
    6.3875   -0.2740   -0.4053 N   0  0  0  0  0  0  0  0  0  0  0  0 
    8.5699    0.1761   -0.3513 O   0  0  0  0  0  0  0  0  0  0  0  0 
    0.2188   -0.9491    0.1785 H   0  0  0  0  0  0  0  0  0  0  0  0 
    0.2159    0.5895   -0.6951 H   0  0  0  0  0  0  0  0  0  0  0  0 
    0.3816    0.5749    1.0609 H   0  0  0  0  0  0  0  0  0  0  0  0 
    2.2655   -2.1862    0.0283 H   0  0  0  0  0  0  0  0  0  0  0  0 
    2.4650    2.0990   -0.0905 H   0  0  0  0  0  0  0  0  0  0  0  0 
    4.7196   -2.3071   -0.1610 H   0  0  0  0  0  0  0  0  0  0  0  0 
    4.9066    1.9854   -0.3607 H   0  0  0  0  0  0  0  0  0  0  0  0 
    6.3183    1.7085    1.2435 H   0  0  0  0  0  0  0  0  0  0  0  0 
    6.7455   -1.1352   -0.7955 H   0  0  0  0  0  0  0  0  0  0  0  0 
    9.2053    0.7653    0.0917 H   0  0  0  0  0  0  0  0  0  0  0  0 
  1 12  1  0  0  0  0 
  1 14  1  0  0  0  0 
  2  6  1  0  0  0  0 
  2 15  1  0  0  0  0 
  3 16  1  0  0  0  0 
  3  6  2  0  0  0  0 
  4  2  2  0  0  0  0 
  5  3  1  0  0  0  0 
  6  1  1  0  0  0  0 
  7  5  2  0  0  0  0 
  7  4  1  0  0  0  0 
  8  9  2  0  0  0  0 
  9 19  1  0  0  0  0 
 10  7  1  0  0  0  0 
 10  8  1  0  0  0  0 
 11 21  1  0  0  0  0 
 11  8  1  0  0  0  0 
 13  1  1  0  0  0  0 
 17  4  1  0  0  0  0 
 18  5  1  0  0  0  0 
 20 10  1  0  0  0  0 
M  END 
>  <HBA> 
3 
 
>  <HBD> 
2 
 
>  <TPSA> 
55.12 
 
>  <cid> 
12148 
 
>  <dipole> 
2.23 
 
>  <excitation_energy_1> 
4.659 
 
>  <excitation_energy_2> 
4.986 
 
>  <excitation_energy_3> 
5.248 
 
>  <excitation_energy_4> 
5.629 
 
>  <homo_energy> 
-5.758 
 
>  <homo_lumo_gap> 
5.529 
 
>  <logP> 
2.259 
 
>  <lumo_energy> 
-0.229 
 
>  <melting_point> 
128.68 
 
>  <molecular_refractivity> 
44.01 
 
>  <oscillator_strength_1> 
0.0228 
 
>  <oscillator_strength_2> 
0.2448 
 
>  <oscillator_strength_3> 
0.0144 
 
>  <oscillator_strength_4> 
0.0003 
 
>  <open_babel_can_smiles> 
OC(=N)Nc1ccc(cc1)C 
 
>  <mulliken_charges> 
21 
1   -0.531361 
2   -0.189195 
3   -0.190627 
4   -0.177962 
5   -0.178984 
6   0.181187 
7   0.346462 
8   0.6385 
9   -0.653615 
10   -0.709896 
11   -0.606554 
12   0.154974 
13   0.162666 
14   0.163567 
15   0.126521 
16   0.128429 
17   0.126596 
18   0.153904 
19   0.291132 
20   0.34206 
21   0.422194 
 
>  <lowdin_charges> 
21 
1   -0.442641 
2   -0.158425 
3   -0.155064 
4   -0.184923 
5   -0.188587 
6   -0.009425 
7   0.053075 
8   0.164615 
9   -0.482221 
10   -0.260447 
11   -0.384566 
12   0.156354 
13   0.161439 
14   0.161158 
15   0.157334 
16   0.157583 
17   0.156795 
18   0.169444 
19   0.26167 
20   0.296731 
21   0.3701 
 
$$$$ 
 
