PCCDB-ID:  28166 
public computational chemistry database (PCCDB) project, http://pccdb.org 
 
 22 24  0  0  1  0  0  0  0  0999 V2000 
    1.3295   -0.0198    0.2679 C   0  0  0  0  0  0  0  0  0  0  0  0 
    5.4981    1.4660   -0.4435 C   0  0  0  0  0  0  0  0  0  0  0  0 
    5.5650    0.2079    0.4613 C   0  0  0  0  0  0  0  0  0  0  0  0 
    2.9563    1.4203   -0.8778 C   0  0  0  0  0  0  0  0  0  0  0  0 
    4.3645    1.1960   -1.4633 C   0  0  2  0  0  0  0  0  0  0  0  0 
    4.9577   -0.9121   -0.3847 C   0  0  2  0  0  0  0  0  0  0  0  0 
    4.4004   -0.3350   -1.6746 C   0  0  1  0  0  0  0  0  0  0  0  0 
    3.4571   -0.8557   -0.6275 C   0  0  2  0  0  0  0  0  0  0  0  0 
    2.7261    0.2501   -0.0160 N   0  0  0  0  0  0  0  0  0  0  0  0 
    0.8871    0.8416    0.7810 H   0  0  0  0  0  0  0  0  0  0  0  0 
    1.2437   -0.8835    0.9358 H   0  0  0  0  0  0  0  0  0  0  0  0 
    0.7233   -0.2202   -0.6386 H   0  0  0  0  0  0  0  0  0  0  0  0 
    6.4427    1.5717   -0.9918 H   0  0  0  0  0  0  0  0  0  0  0  0 
    5.3435    2.3924    0.1224 H   0  0  0  0  0  0  0  0  0  0  0  0 
    4.9859    0.3538    1.3797 H   0  0  0  0  0  0  0  0  0  0  0  0 
    6.5954   -0.0296    0.7474 H   0  0  0  0  0  0  0  0  0  0  0  0 
    2.2160    1.4652   -1.7012 H   0  0  0  0  0  0  0  0  0  0  0  0 
    2.8715    2.3493   -0.2997 H   0  0  0  0  0  0  0  0  0  0  0  0 
    4.4992    1.7646   -2.3885 H   0  0  0  0  0  0  0  0  0  0  0  0 
    5.4256   -1.8941   -0.3848 H   0  0  0  0  0  0  0  0  0  0  0  0 
    4.5397   -0.7845   -2.6533 H   0  0  0  0  0  0  0  0  0  0  0  0 
    2.9101   -1.7870   -0.7585 H   0  0  0  0  0  0  0  0  0  0  0  0 
  1 10  1  0  0  0  0 
  1 11  1  0  0  0  0 
  2 14  1  0  0  0  0 
  2  3  1  0  0  0  0 
  3 16  1  0  0  0  0 
  3 15  1  0  0  0  0 
  4 18  1  0  0  0  0 
  4  9  1  0  0  0  0 
  5 19  1  6  0  0  0 
  5  4  1  0  0  0  0 
  5  2  1  0  0  0  0 
  6 20  1  6  0  0  0 
  6  3  1  0  0  0  0 
  7 21  1  6  0  0  0 
  7  5  1  0  0  0  0 
  7  8  1  0  0  0  0 
  7  6  1  0  0  0  0 
  8 22  1  6  0  0  0 
  8  6  1  0  0  0  0 
  8  9  1  0  0  0  0 
  9  1  1  0  0  0  0 
 12  1  1  0  0  0  0 
 13  2  1  0  0  0  0 
 17  4  1  0  0  0  0 
M  END 
>  <HBA> 
1 
 
>  <HBD> 
0 
 
>  <TPSA> 
3.24 
 
>  <cid> 
28166 
 
>  <dipole> 
0.74 
 
>  <excitation_energy_1> 
4.754 
 
>  <excitation_energy_2> 
5.132 
 
>  <excitation_energy_3> 
5.263 
 
>  <excitation_energy_4> 
5.391 
 
>  <homo_energy> 
-5.206 
 
>  <homo_lumo_gap> 
7.505 
 
>  <logP> 
0.894 
 
>  <lumo_energy> 
2.299 
 
>  <melting_point> 
42.48 
 
>  <molecular_refractivity> 
41.04 
 
>  <oscillator_strength_1> 
0.0116 
 
>  <oscillator_strength_2> 
0.0109 
 
>  <oscillator_strength_3> 
0.0143 
 
>  <oscillator_strength_4> 
0.0297 
 
>  <open_babel_can_smiles> 
CN1C[C@@H]2[C@@H]3[C@H]1[C@@H]3CC2 
 
>  <mulliken_charges> 
22 
1   -0.302601 
2   -0.255124 
3   -0.264368 
4   -0.096513 
5   -0.146116 
6   -0.135772 
7   -0.162178 
8   0.030882 
9   -0.38982 
10   0.148488 
11   0.15116 
12   0.116381 
13   0.133658 
14   0.128328 
15   0.153581 
16   0.129498 
17   0.109956 
18   0.133063 
19   0.126475 
20   0.129154 
21   0.13175 
22   0.13012 
 
>  <lowdin_charges> 
22 
1   -0.355815 
2   -0.27547 
3   -0.2776 
4   -0.197851 
5   -0.132603 
6   -0.166657 
7   -0.181972 
8   -0.094258 
9   -0.182906 
10   0.150723 
11   0.151197 
12   0.119253 
13   0.143378 
14   0.141254 
15   0.151789 
16   0.144192 
17   0.120108 
18   0.13952 
19   0.147359 
20   0.151534 
21   0.153504 
22   0.151324 
 
$$$$ 
 
