PCCDB-ID:  68396 
public computational chemistry database (PCCDB) project, http://pccdb.org 
 
 29 29  0  0  0  0  0  0  0  0999 V2000 
    1.0427   -0.0960    0.0655 C   0  0  0  0  0  0  0  0  0  0  0  0 
    4.7500    1.6863    1.3514 C   0  0  0  0  0  0  0  0  0  0  0  0 
    5.3082    2.4934   -0.9585 C   0  0  0  0  0  0  0  0  0  0  0  0 
    4.9007   -2.2125   -1.2306 C   0  0  0  0  0  0  0  0  0  0  0  0 
    5.2827   -1.6863    1.1949 C   0  0  0  0  0  0  0  0  0  0  0  0 
    3.1401    1.2683   -0.5524 C   0  0  0  0  0  0  0  0  0  0  0  0 
    2.5405   -0.0577   -0.1197 C   0  0  0  0  0  0  0  0  0  0  0  0 
    4.6229    1.3732   -0.1604 C   0  0  0  0  0  0  0  0  0  0  0  0 
    4.6508   -1.1715   -0.1194 C   0  0  0  0  0  0  0  0  0  0  0  0 
    3.2066   -1.1265    0.0837 N   0  0  0  0  0  0  0  0  0  0  0  0 
    5.2316    0.1061   -0.5896 N   0  0  0  0  0  0  0  0  0  0  0  0 
    0.7303    0.5950    0.8600 H   0  0  0  0  0  0  0  0  0  0  0  0 
    0.7200   -1.1075    0.3211 H   0  0  0  0  0  0  0  0  0  0  0  0 
    0.5304    0.2257   -0.8514 H   0  0  0  0  0  0  0  0  0  0  0  0 
    4.3906    2.6995    1.5708 H   0  0  0  0  0  0  0  0  0  0  0  0 
    5.7977    1.6283    1.6702 H   0  0  0  0  0  0  0  0  0  0  0  0 
    4.1698    0.9886    1.9626 H   0  0  0  0  0  0  0  0  0  0  0  0 
    4.8374    3.4635   -0.7601 H   0  0  0  0  0  0  0  0  0  0  0  0 
    5.2537    2.2854   -2.0315 H   0  0  0  0  0  0  0  0  0  0  0  0 
    6.3674    2.5761   -0.6814 H   0  0  0  0  0  0  0  0  0  0  0  0 
    4.4904   -3.1868   -0.9474 H   0  0  0  0  0  0  0  0  0  0  0  0 
    5.9767   -2.3219   -1.4116 H   0  0  0  0  0  0  0  0  0  0  0  0 
    4.4295   -1.8815   -2.1602 H   0  0  0  0  0  0  0  0  0  0  0  0 
    4.8562   -2.6578    1.4629 H   0  0  0  0  0  0  0  0  0  0  0  0 
    5.1071   -0.9982    2.0256 H   0  0  0  0  0  0  0  0  0  0  0  0 
    6.3659   -1.8089    1.0706 H   0  0  0  0  0  0  0  0  0  0  0  0 
    2.5641    2.0968   -0.1207 H   0  0  0  0  0  0  0  0  0  0  0  0 
    3.0405    1.3537   -1.6438 H   0  0  0  0  0  0  0  0  0  0  0  0 
    6.2336    0.1153   -0.4098 H   0  0  0  0  0  0  0  0  0  0  0  0 
  1 13  1  0  0  0  0 
  1 12  1  0  0  0  0 
  2 15  1  0  0  0  0 
  2 16  1  0  0  0  0 
  2 17  1  0  0  0  0 
  3 18  1  0  0  0  0 
  3 20  1  0  0  0  0 
  3  8  1  0  0  0  0 
  4 21  1  0  0  0  0 
  4  9  1  0  0  0  0 
  5 24  1  0  0  0  0 
  5 25  1  0  0  0  0 
  6  8  1  0  0  0  0 
  6 27  1  0  0  0  0 
  6  7  1  0  0  0  0 
  7  1  1  0  0  0  0 
  7 10  2  0  0  0  0 
  8  2  1  0  0  0  0 
  9 10  1  0  0  0  0 
  9  5  1  0  0  0  0 
 11 29  1  0  0  0  0 
 11  8  1  0  0  0  0 
 11  9  1  0  0  0  0 
 14  1  1  0  0  0  0 
 19  3  1  0  0  0  0 
 22  4  1  0  0  0  0 
 23  4  1  0  0  0  0 
 26  5  1  0  0  0  0 
 28  6  1  0  0  0  0 
M  END 
>  <HBA> 
2 
 
>  <HBD> 
1 
 
>  <TPSA> 
24.39 
 
>  <cid> 
68396 
 
>  <dipole> 
1.68 
 
>  <excitation_energy_1> 
4.99 
 
>  <excitation_energy_2> 
5.158 
 
>  <excitation_energy_3> 
5.321 
 
>  <excitation_energy_4> 
5.778 
 
>  <homo_energy> 
-5.695 
 
>  <homo_lumo_gap> 
6.076 
 
>  <logP> 
1.72 
 
>  <lumo_energy> 
0.381 
 
>  <melting_point> 
61.11 
 
>  <molecular_refractivity> 
57.07 
 
>  <oscillator_strength_1> 
0.009 
 
>  <oscillator_strength_2> 
0.0239 
 
>  <oscillator_strength_3> 
0.0087 
 
>  <oscillator_strength_4> 
0.0007 
 
>  <open_babel_can_smiles> 
CC1=NC(NC(C1)(C)C)(C)C 
 
>  <mulliken_charges> 
29 
1   -0.507946 
2   -0.454506 
3   -0.452149 
4   -0.409947 
5   -0.443963 
6   -0.315861 
7   0.30721 
8   0.218261 
9   0.304358 
10   -0.422532 
11   -0.59314 
12   0.153807 
13   0.173086 
14   0.15468 
15   0.136346 
16   0.134886 
17   0.153845 
18   0.138238 
19   0.153928 
20   0.133755 
21   0.1455 
22   0.127793 
23   0.147861 
24   0.15503 
25   0.148593 
26   0.127482 
27   0.138146 
28   0.161439 
29   0.285801 
 
>  <lowdin_charges> 
29 
1   -0.450824 
2   -0.462451 
3   -0.440951 
4   -0.437221 
5   -0.454416 
6   -0.297657 
7   0.057528 
8   0.070565 
9   0.113908 
10   -0.180158 
11   -0.363949 
12   0.15894 
13   0.168011 
14   0.159197 
15   0.146912 
16   0.145232 
17   0.153908 
18   0.148207 
19   0.153652 
20   0.143977 
21   0.151888 
22   0.142575 
23   0.154727 
24   0.158345 
25   0.153217 
26   0.140726 
27   0.152307 
28   0.162414 
29   0.251392 
 
$$$$ 
 
