PCCDB-ID:  15259 
public computational chemistry database (PCCDB) project, http://pccdb.org 
 
 30 29  0  0  1  0  0  0  0  0999 V2000 
    4.4106   -0.8742    2.5484 C   0  0  0  0  0  0  0  0  0  0  0  0 
    4.6169    2.9058   -2.6632 C   0  0  0  0  0  0  0  0  0  0  0  0 
    4.0678   -0.4708    1.1114 C   0  0  0  0  0  0  0  0  0  0  0  0 
    4.6757    0.8797    0.7103 C   0  0  0  0  0  0  0  0  0  0  0  0 
    4.1247    4.6589    0.3429 C   0  0  0  0  0  0  0  0  0  0  0  0 
    3.6267    5.7970    1.1196 C   0  0  0  0  0  0  0  0  0  0  0  0 
    4.3400    1.2839   -0.7280 C   0  0  0  0  0  0  0  0  0  0  0  0 
    4.5061    3.7411   -0.3481 C   0  0  0  0  0  0  0  0  0  0  0  0 
    2.6142    6.6314    0.3090 C   0  0  0  0  0  0  0  0  0  0  0  0 
    4.9705    2.6236   -1.1896 C   0  0  2  0  0  0  0  0  0  0  0  0 
    1.4881    5.8706   -0.0877 O   0  0  0  0  0  0  0  0  0  0  0  0 
    6.4022    2.5784   -1.0423 O   0  0  0  0  0  0  0  0  0  0  0  0 
    3.9610   -1.8377    2.8150 H   0  0  0  0  0  0  0  0  0  0  0  0 
    4.0485   -0.1279    3.2661 H   0  0  0  0  0  0  0  0  0  0  0  0 
    5.4952   -0.9636    2.6865 H   0  0  0  0  0  0  0  0  0  0  0  0 
    3.5346    2.9947   -2.8051 H   0  0  0  0  0  0  0  0  0  0  0  0 
    4.9741    2.0852   -3.2989 H   0  0  0  0  0  0  0  0  0  0  0  0 
    5.0923    3.8343   -2.9913 H   0  0  0  0  0  0  0  0  0  0  0  0 
    2.9754   -0.4299    0.9933 H   0  0  0  0  0  0  0  0  0  0  0  0 
    4.4185   -1.2504    0.4194 H   0  0  0  0  0  0  0  0  0  0  0  0 
    5.7664    0.8463    0.8250 H   0  0  0  0  0  0  0  0  0  0  0  0 
    4.3205    1.6605    1.3954 H   0  0  0  0  0  0  0  0  0  0  0  0 
    4.4660    6.4366    1.4256 H   0  0  0  0  0  0  0  0  0  0  0  0 
    3.1387    5.4413    2.0363 H   0  0  0  0  0  0  0  0  0  0  0  0 
    3.2514    1.3449   -0.8596 H   0  0  0  0  0  0  0  0  0  0  0  0 
    4.6891    0.5039   -1.4232 H   0  0  0  0  0  0  0  0  0  0  0  0 
    3.1255    7.0785   -0.5580 H   0  0  0  0  0  0  0  0  0  0  0  0 
    2.2293    7.4457    0.9308 H   0  0  0  0  0  0  0  0  0  0  0  0 
    1.8286    5.1278   -0.6137 H   0  0  0  0  0  0  0  0  0  0  0  0 
    6.7118    1.8465   -1.6020 H   0  0  0  0  0  0  0  0  0  0  0  0 
  1 15  1  0  0  0  0 
  1 13  1  0  0  0  0 
  1 14  1  0  0  0  0 
  2 10  1  0  0  0  0 
  3  1  1  0  0  0  0 
  4 21  1  0  0  0  0 
  4  3  1  0  0  0  0 
  4 22  1  0  0  0  0 
  5  6  1  0  0  0  0 
  6 23  1  0  0  0  0 
  6 24  1  0  0  0  0 
  7  4  1  0  0  0  0 
  8  5  3  0  0  0  0 
  9 28  1  0  0  0  0 
  9  6  1  0  0  0  0 
 10 12  1  0  0  0  0 
 10  7  1  0  0  0  0 
 10  8  1  1  0  0  0 
 11  9  1  0  0  0  0 
 16  2  1  0  0  0  0 
 17  2  1  0  0  0  0 
 18  2  1  0  0  0  0 
 19  3  1  0  0  0  0 
 20  3  1  0  0  0  0 
 25  7  1  0  0  0  0 
 26  7  1  0  0  0  0 
 27  9  1  0  0  0  0 
 29 11  1  0  0  0  0 
 30 12  1  0  0  0  0 
M  END 
>  <HBA> 
2 
 
>  <HBD> 
2 
 
>  <TPSA> 
40.46 
 
>  <cid> 
15259 
 
>  <dipole> 
1.81 
 
>  <excitation_energy_1> 
5.984 
 
>  <excitation_energy_2> 
6.248 
 
>  <excitation_energy_3> 
6.357 
 
>  <excitation_energy_4> 
6.446 
 
>  <homo_energy> 
-6.787 
 
>  <homo_lumo_gap> 
7.739 
 
>  <logP> 
1.313 
 
>  <lumo_energy> 
0.952 
 
>  <melting_point> 
36.39 
 
>  <molecular_refractivity> 
50.71 
 
>  <oscillator_strength_1> 
0.0129 
 
>  <oscillator_strength_2> 
0.0108 
 
>  <oscillator_strength_3> 
0.0176 
 
>  <oscillator_strength_4> 
0.0027 
 
>  <open_babel_can_smiles> 
CCCC[C@@](C#CCCO)(O)C 
 
>  <mulliken_charges> 
30 
1   -0.440837 
2   -0.454054 
3   -0.249698 
4   -0.247241 
5   -0.034998 
6   -0.400173 
7   -0.271835 
8   0.116725 
9   -0.027552 
10   0.165546 
11   -0.612298 
12   -0.626818 
13   0.14101 
14   0.143738 
15   0.142409 
16   0.147799 
17   0.135365 
18   0.167812 
19   0.130107 
20   0.12625 
21   0.141395 
22   0.144642 
23   0.169435 
24   0.178055 
25   0.136165 
26   0.118713 
27   0.130592 
28   0.150298 
29   0.391252 
30   0.388195 
 
>  <lowdin_charges> 
30 
1   -0.442878 
2   -0.447154 
3   -0.270498 
4   -0.277676 
5   -0.080981 
6   -0.280881 
7   -0.280838 
8   -0.077322 
9   -0.130241 
10   0.136053 
11   -0.465573 
12   -0.451538 
13   0.148725 
14   0.148553 
15   0.145095 
16   0.153858 
17   0.147126 
18   0.16435 
19   0.136168 
20   0.1372 
21   0.144363 
22   0.150305 
23   0.171714 
24   0.171049 
25   0.146297 
26   0.136765 
27   0.132285 
28   0.150788 
29   0.343622 
30   0.341265 
 
$$$$ 
 
