PCCDB-ID:  38295 
public computational chemistry database (PCCDB) project, http://pccdb.org 
 
 29 30  0  0  1  0  0  0  0  0999 V2000 
    4.8477   -1.0535    0.4130 C   0  0  0  0  0  0  0  0  0  0  0  0 
    0.8680   -4.4852    4.2505 C   0  0  0  0  0  0  0  0  0  0  0  0 
    2.5096   -4.9139   -1.9963 C   0  0  0  0  0  0  0  0  0  0  0  0 
    2.5745   -5.8604   -1.0496 C   0  0  0  0  0  0  0  0  0  0  0  0 
    0.4146   -4.9221   -0.9094 C   0  0  0  0  0  0  0  0  0  0  0  0 
    1.3978   -3.9498   -1.6021 C   0  0  1  0  0  0  0  0  0  0  0  0 
    1.5094   -5.5429   -0.0109 C   0  0  2  0  0  0  0  0  0  0  0  0 
    1.9004   -3.1527   -0.3504 C   0  0  1  0  0  0  0  0  0  0  0  0 
    2.0322   -4.2508    0.7527 C   0  0  1  0  0  0  0  0  0  0  0  0 
    3.1506   -2.3393   -0.6055 C   0  0  0  0  0  0  0  0  0  0  0  0 
    1.1818   -3.9593    1.9735 C   0  0  0  0  0  0  0  0  0  0  0  0 
    3.6153   -2.0825   -1.6959 O   0  0  0  0  0  0  0  0  0  0  0  0 
    0.1936   -3.2540    2.0063 O   0  0  0  0  0  0  0  0  0  0  0  0 
    3.6829   -1.8835    0.5534 O   0  0  0  0  0  0  0  0  0  0  0  0 
    1.6384   -4.6416    3.0472 O   0  0  0  0  0  0  0  0  0  0  0  0 
    5.1351   -0.7783    1.4282 H   0  0  0  0  0  0  0  0  0  0  0  0 
    4.6151   -0.1622   -0.1759 H   0  0  0  0  0  0  0  0  0  0  0  0 
    5.6543   -1.6028   -0.0799 H   0  0  0  0  0  0  0  0  0  0  0  0 
    1.3759   -5.0888    5.0034 H   0  0  0  0  0  0  0  0  0  0  0  0 
   -0.1558   -4.8385    4.1007 H   0  0  0  0  0  0  0  0  0  0  0  0 
    0.8397   -3.4354    4.5537 H   0  0  0  0  0  0  0  0  0  0  0  0 
    3.1801   -4.7670   -2.8347 H   0  0  0  0  0  0  0  0  0  0  0  0 
    3.3125   -6.6502   -0.9516 H   0  0  0  0  0  0  0  0  0  0  0  0 
   -0.0168   -5.6493   -1.6033 H   0  0  0  0  0  0  0  0  0  0  0  0 
   -0.3801   -4.4191   -0.3487 H   0  0  0  0  0  0  0  0  0  0  0  0 
    1.0067   -3.3108   -2.3951 H   0  0  0  0  0  0  0  0  0  0  0  0 
    1.2232   -6.3566    0.6589 H   0  0  0  0  0  0  0  0  0  0  0  0 
    1.1230   -2.4489   -0.0281 H   0  0  0  0  0  0  0  0  0  0  0  0 
    3.0605   -4.4010    1.0852 H   0  0  0  0  0  0  0  0  0  0  0  0 
  1 14  1  0  0  0  0 
  1 16  1  0  0  0  0 
  2 21  1  0  0  0  0 
  2 19  1  0  0  0  0 
  3  6  1  0  0  0  0 
  3  4  2  0  0  0  0 
  4 23  1  0  0  0  0 
  4  7  1  0  0  0  0 
  5 25  1  0  0  0  0 
  5  7  1  0  0  0  0 
  6 26  1  6  0  0  0 
  6  5  1  0  0  0  0 
  6  8  1  0  0  0  0 
  7 27  1  1  0  0  0 
  7  9  1  0  0  0  0 
  8 28  1  1  0  0  0 
  8  9  1  0  0  0  0 
  9 29  1  1  0  0  0 
  9 11  1  0  0  0  0 
 10  8  1  0  0  0  0 
 10 14  1  0  0  0  0 
 11 13  2  0  0  0  0 
 11 15  1  0  0  0  0 
 12 10  2  0  0  0  0 
 15  2  1  0  0  0  0 
 17  1  1  0  0  0  0 
 18  1  1  0  0  0  0 
 20  2  1  0  0  0  0 
 22  3  1  0  0  0  0 
 24  5  1  0  0  0  0 
M  END 
>  <HBA> 
4 
 
>  <HBD> 
0 
 
>  <TPSA> 
52.6 
 
>  <cid> 
38295 
 
>  <dipole> 
2.55 
 
>  <excitation_energy_1> 
5.482 
 
>  <excitation_energy_2> 
5.727 
 
>  <excitation_energy_3> 
5.807 
 
>  <excitation_energy_4> 
6.072 
 
>  <homo_energy> 
-6.523 
 
>  <homo_lumo_gap> 
6.49 
 
>  <logP> 
0.771 
 
>  <lumo_energy> 
-0.033 
 
>  <melting_point> 
49.95 
 
>  <molecular_refractivity> 
52.86 
 
>  <oscillator_strength_1> 
0.0154 
 
>  <oscillator_strength_2> 
0.0008 
 
>  <oscillator_strength_3> 
0.0036 
 
>  <oscillator_strength_4> 
0.0504 
 
>  <open_babel_can_smiles> 
COC(=O)[C@H]1[C@@H]2C=C[C@H]([C@@H]1C(=O)OC)C2 
 
>  <mulliken_charges> 
29 
1   -0.217348 
2   -0.218839 
3   -0.098556 
4   -0.110429 
5   -0.278067 
6   -0.142442 
7   -0.154824 
8   -0.202545 
9   -0.183685 
10   0.628086 
11   0.627621 
12   -0.48817 
13   -0.485158 
14   -0.453826 
15   -0.455745 
16   0.163987 
17   0.170659 
18   0.169732 
19   0.164914 
20   0.169525 
21   0.172648 
22   0.146471 
23   0.13071 
24   0.146264 
25   0.157548 
26   0.137704 
27   0.13544 
28   0.199554 
29   0.168771 
 
>  <lowdin_charges> 
29 
1   -0.278861 
2   -0.277354 
3   -0.159795 
4   -0.180605 
5   -0.277314 
6   -0.125029 
7   -0.124355 
8   -0.155154 
9   -0.14873 
10   0.19621 
11   0.194864 
12   -0.263848 
13   -0.270257 
14   -0.193858 
15   -0.189268 
16   0.159616 
17   0.159786 
18   0.160125 
19   0.162064 
20   0.157831 
21   0.159436 
22   0.167339 
23   0.158891 
24   0.15379 
25   0.154374 
26   0.155777 
27   0.151127 
28   0.185492 
29   0.167704 
 
$$$$ 
 
