PCCDB-ID:  34651 
public computational chemistry database (PCCDB) project, http://pccdb.org 
 
 40 41  0  0  1  0  0  0  0  0999 V2000 
    1.9324   -2.1200   -3.5679 C   0  0  0  0  0  0  0  0  0  0  0  0 
    3.3242    1.5468   -3.7959 C   0  0  0  0  0  0  0  0  0  0  0  0 
    2.0400   -0.6053   -3.3632 C   0  0  0  0  0  0  0  0  0  0  0  0 
    7.4147   -7.1425   -4.0345 C   0  0  0  0  0  0  0  0  0  0  0  0 
    6.2988   -7.5045   -3.0847 C   0  0  0  0  0  0  0  0  0  0  0  0 
    7.7040   -4.0961   -3.1964 C   0  0  0  0  0  0  0  0  0  0  0  0 
    6.2220   -4.6872   -1.4026 C   0  0  0  0  0  0  0  0  0  0  0  0 
    7.4513   -2.7423   -2.9624 C   0  0  0  0  0  0  0  0  0  0  0  0 
    5.9695   -3.3381   -1.1668 C   0  0  0  0  0  0  0  0  0  0  0  0 
    4.7944   -0.5229   -1.9653 C   0  0  0  0  0  0  0  0  0  0  0  0 
    3.3292    0.0205   -3.9411 C   0  0  2  0  0  0  0  0  0  0  0  0 
    7.3858   -6.5464   -2.6477 C   0  0  0  0  0  0  0  0  0  0  0  0 
    7.0919   -5.0915   -2.4270 C   0  0  0  0  0  0  0  0  0  0  0  0 
    6.5762   -2.3433   -1.9489 C   0  0  0  0  0  0  0  0  0  0  0  0 
    6.2784   -0.8641   -1.6940 C   0  0  1  0  0  0  0  0  0  0  0  0 
    4.5851   -0.5522   -3.4157 N   0  0  0  0  0  0  0  0  0  0  0  0 
    7.0871   -0.0003   -2.4720 O   0  0  0  0  0  0  0  0  0  0  0  0 
    0.9824   -2.5033   -3.1796 H   0  0  0  0  0  0  0  0  0  0  0  0 
    2.7362   -2.6606   -3.0544 H   0  0  0  0  0  0  0  0  0  0  0  0 
    1.9829   -2.3814   -4.6326 H   0  0  0  0  0  0  0  0  0  0  0  0 
    2.4799    1.9778   -4.3452 H   0  0  0  0  0  0  0  0  0  0  0  0 
    4.2508    1.9731   -4.1934 H   0  0  0  0  0  0  0  0  0  0  0  0 
    3.2260    1.8599   -2.7501 H   0  0  0  0  0  0  0  0  0  0  0  0 
    1.9686   -0.3680   -2.2926 H   0  0  0  0  0  0  0  0  0  0  0  0 
    1.1804   -0.1135   -3.8385 H   0  0  0  0  0  0  0  0  0  0  0  0 
    7.1718   -6.4919   -4.8703 H   0  0  0  0  0  0  0  0  0  0  0  0 
    8.1693   -7.8915   -4.2585 H   0  0  0  0  0  0  0  0  0  0  0  0 
    6.2852   -8.5022   -2.6542 H   0  0  0  0  0  0  0  0  0  0  0  0 
    5.3142   -7.0897   -3.2834 H   0  0  0  0  0  0  0  0  0  0  0  0 
    8.3906   -4.3851   -3.9884 H   0  0  0  0  0  0  0  0  0  0  0  0 
    5.7398   -5.4428   -0.7865 H   0  0  0  0  0  0  0  0  0  0  0  0 
    7.9479   -1.9787   -3.5520 H   0  0  0  0  0  0  0  0  0  0  0  0 
    5.2968   -3.0563   -0.3585 H   0  0  0  0  0  0  0  0  0  0  0  0 
    4.6102    0.4954   -1.6095 H   0  0  0  0  0  0  0  0  0  0  0  0 
    4.1357   -1.1994   -1.3981 H   0  0  0  0  0  0  0  0  0  0  0  0 
    3.3505   -0.2058   -5.0170 H   0  0  0  0  0  0  0  0  0  0  0  0 
    8.1108   -6.9646   -1.9487 H   0  0  0  0  0  0  0  0  0  0  0  0 
    6.4948   -0.6434   -0.6402 H   0  0  0  0  0  0  0  0  0  0  0  0 
    4.6752   -1.5151   -3.7362 H   0  0  0  0  0  0  0  0  0  0  0  0 
    6.5613    0.1304   -3.2886 H   0  0  0  0  0  0  0  0  0  0  0  0 
  1  3  1  0  0  0  0 
  1 18  1  0  0  0  0 
  1 19  1  0  0  0  0 
  2 23  1  0  0  0  0 
  3 24  1  0  0  0  0 
  4  5  1  0  0  0  0 
  4 12  1  0  0  0  0 
  5 28  1  0  0  0  0 
  5 12  1  0  0  0  0 
  6  8  2  0  0  0  0 
  6 13  1  0  0  0  0 
  7  9  1  0  0  0  0 
  7 31  1  0  0  0  0 
  8 14  1  0  0  0  0 
  9 33  1  0  0  0  0 
 10 15  1  0  0  0  0 
 10 34  1  0  0  0  0 
 10 35  1  0  0  0  0 
 11 36  1  6  0  0  0 
 11  2  1  0  0  0  0 
 11 16  1  0  0  0  0 
 11  3  1  0  0  0  0 
 12 13  1  0  0  0  0 
 12 37  1  0  0  0  0 
 13  7  2  0  0  0  0 
 14 15  1  0  0  0  0 
 14  9  2  0  0  0  0 
 15 38  1  1  0  0  0 
 16 10  1  0  0  0  0 
 17 15  1  0  0  0  0 
 20  1  1  0  0  0  0 
 21  2  1  0  0  0  0 
 22  2  1  0  0  0  0 
 25  3  1  0  0  0  0 
 26  4  1  0  0  0  0 
 27  4  1  0  0  0  0 
 29  5  1  0  0  0  0 
 30  6  1  0  0  0  0 
 32  8  1  0  0  0  0 
 39 16  1  0  0  0  0 
 40 17  1  0  0  0  0 
M  END 
>  <HBA> 
2 
 
>  <HBD> 
2 
 
>  <TPSA> 
32.26 
 
>  <cid> 
34651 
 
>  <dipole> 
2.88 
 
>  <excitation_energy_1> 
5.163 
 
>  <excitation_energy_2> 
5.435 
 
>  <excitation_energy_3> 
5.573 
 
>  <excitation_energy_4> 
5.616 
 
>  <homo_energy> 
-6.196 
 
>  <homo_lumo_gap> 
6.234 
 
>  <logP> 
3.376 
 
>  <lumo_energy> 
0.038 
 
>  <melting_point> 
75.72 
 
>  <molecular_refractivity> 
71.87 
 
>  <oscillator_strength_1> 
0.0021 
 
>  <oscillator_strength_2> 
0.0287 
 
>  <oscillator_strength_3> 
0.0722 
 
>  <oscillator_strength_4> 
0.0475 
 
>  <open_babel_can_smiles> 
CC[C@H](NC[C@@H](c1ccc(cc1)C1CC1)O)C 
 
>  <mulliken_charges> 
40 
1   -0.459899 
2   -0.446785 
3   -0.252011 
4   -0.311382 
5   -0.304526 
6   -0.180409 
7   -0.178186 
8   -0.185832 
9   -0.184974 
10   -0.15782 
11   0.04677 
12   -0.188892 
13   0.15049 
14   0.120722 
15   0.07527 
16   -0.592419 
17   -0.643378 
18   0.148803 
19   0.148125 
20   0.143005 
21   0.14439 
22   0.15498 
23   0.145188 
24   0.134283 
25   0.133275 
26   0.153634 
27   0.149171 
28   0.148323 
29   0.153521 
30   0.126118 
31   0.124299 
32   0.140675 
33   0.119806 
34   0.154833 
35   0.129882 
36   0.126771 
37   0.156948 
38   0.142064 
39   0.312729 
40   0.402439 
 
>  <lowdin_charges> 
40 
1   -0.451233 
2   -0.449958 
3   -0.289551 
4   -0.314328 
5   -0.311369 
6   -0.162146 
7   -0.162549 
8   -0.168818 
9   -0.172932 
10   -0.224399 
11   -0.059018 
12   -0.153021 
13   -0.006966 
14   -0.031226 
15   -0.00424 
16   -0.362368 
17   -0.463404 
18   0.154197 
19   0.149091 
20   0.145616 
21   0.153809 
22   0.157002 
23   0.147068 
24   0.139904 
25   0.146381 
26   0.160371 
27   0.158854 
28   0.156604 
29   0.158978 
30   0.157427 
31   0.157495 
32   0.166945 
33   0.152109 
34   0.150548 
35   0.131611 
36   0.1374 
37   0.161599 
38   0.147323 
39   0.259598 
40   0.337598 
 
$$$$ 
 
