PCCDB-ID:  21134 
public computational chemistry database (PCCDB) project, http://pccdb.org 
 
 18 18  0  0  0  0  0  0  0  0999 V2000 
   -0.6805    1.2030   -0.0015 C   0  0  0  0  0  0  0  0  0  0  0  0 
   -0.6946   -1.2185    0.0872 C   0  0  0  0  0  0  0  0  0  0  0  0 
    1.4232    0.0034   -0.0845 C   0  0  0  0  0  0  0  0  0  0  0  0 
   -1.3949   -0.0015    0.0856 C   0  0  0  0  0  0  0  0  0  0  0  0 
    0.7199    1.2187   -0.0869 C   0  0  0  0  0  0  0  0  0  0  0  0 
    0.6915   -1.1745    0.0023 C   0  0  0  0  0  0  0  0  0  0  0  0 
   -2.7809    0.0099    0.2294 N   0  0  0  0  0  0  0  0  0  0  0  0 
    1.4035    2.4241   -0.2328 N   0  0  0  0  0  0  0  0  0  0  0  0 
    1.4286   -2.4521    0.0047 N   0  0  0  0  0  0  0  0  0  0  0  0 
    0.7746   -3.4935    0.0647 O   0  0  0  0  0  0  0  0  0  0  0  0 
    2.6578   -2.4076   -0.0537 O   0  0  0  0  0  0  0  0  0  0  0  0 
   -1.2247    2.1455   -0.0030 H   0  0  0  0  0  0  0  0  0  0  0  0 
   -1.2030   -2.1714    0.1609 H   0  0  0  0  0  0  0  0  0  0  0  0 
    2.5027   -0.0335   -0.1563 H   0  0  0  0  0  0  0  0  0  0  0  0 
   -3.2500    0.8273   -0.1396 H   0  0  0  0  0  0  0  0  0  0  0  0 
   -3.2482   -0.8461   -0.0412 H   0  0  0  0  0  0  0  0  0  0  0  0 
    0.9301    3.2401    0.1337 H   0  0  0  0  0  0  0  0  0  0  0  0 
    2.3782    2.4011    0.0388 H   0  0  0  0  0  0  0  0  0  0  0  0 
  1  4  2  0  0  0  0 
  2 13  1  0  0  0  0 
  3  6  1  0  0  0  0 
  4  2  1  0  0  0  0 
  4  7  1  0  0  0  0 
  5  3  2  0  0  0  0 
  5  1  1  0  0  0  0 
  6  9  1  0  0  0  0 
  6  2  2  0  0  0  0 
  8  5  1  0  0  0  0 
  8 18  1  0  0  0  0 
  8 17  1  0  0  0  0 
  9 10  2  0  0  0  0 
 11  9  2  0  0  0  0 
 12  1  1  0  0  0  0 
 14  3  1  0  0  0  0 
 15  7  1  0  0  0  0 
 16  7  1  0  0  0  0 
M  END 
>  <HBA> 
2 
 
>  <HBD> 
2 
 
>  <TPSA> 
97.86 
 
>  <cid> 
21134 
 
>  <dipole> 
6.04 
 
>  <excitation_energy_1> 
2.871 
 
>  <excitation_energy_2> 
3.603 
 
>  <excitation_energy_3> 
3.736 
 
>  <excitation_energy_4> 
4.289 
 
>  <homo_energy> 
-5.747 
 
>  <homo_lumo_gap> 
3.663 
 
>  <logP> 
2.445 
 
>  <lumo_energy> 
-2.084 
 
>  <melting_point> 
142.43 
 
>  <molecular_refractivity> 
44.07 
 
>  <oscillator_strength_1> 
0.0192 
 
>  <oscillator_strength_2> 
0.0629 
 
>  <oscillator_strength_3> 
0.0003 
 
>  <oscillator_strength_4> 
0.0003 
 
>  <open_babel_can_smiles> 
Nc1cc(cc(c1)N)N(=O)=O 
 
>  <mulliken_charges> 
18 
1   -0.207859 
2   -0.223646 
3   -0.223883 
4   0.318993 
5   0.3191 
6   0.273424 
7   -0.793241 
8   -0.793188 
9   0.375431 
10   -0.39804 
11   -0.398147 
12   0.116284 
13   0.163901 
14   0.163924 
15   0.324232 
16   0.32925 
17   0.324224 
18   0.32924 
 
>  <lowdin_charges> 
18 
1   -0.226493 
2   -0.2144 
3   -0.212068 
4   0.077359 
5   0.075239 
6   0.02187 
7   -0.483939 
8   -0.480401 
9   0.307728 
10   -0.250749 
11   -0.24854 
12   0.154269 
13   0.180856 
14   0.178872 
15   0.279462 
16   0.281752 
17   0.279296 
18   0.279885 
 
$$$$ 
 
