PCCDB-ID:  35596 
public computational chemistry database (PCCDB) project, http://pccdb.org 
 
 15 15  0  0  0  0  0  0  0  0999 V2000 
    3.1551    1.3526   -0.3319 C   0  0  0  0  0  0  0  0  0  0  0  0 
    3.5631   -2.2045    2.5414 C   0  0  0  0  0  0  0  0  0  0  0  0 
    4.5002   -0.2386    3.0546 C   0  0  0  0  0  0  0  0  0  0  0  0 
    3.3652   -0.4818    1.1508 C   0  0  0  0  0  0  0  0  0  0  0  0 
    4.2882   -1.5032    3.4297 N   0  0  0  0  0  0  0  0  0  0  0  0 
    3.0721   -1.7658    1.3918 N   0  0  0  0  0  0  0  0  0  0  0  0 
    4.0721    0.3403    1.9354 N   0  0  0  0  0  0  0  0  0  0  0  0 
    3.3067   -3.4809    2.8451 O   0  0  0  0  0  0  0  0  0  0  0  0 
    5.2133    0.5367    3.8781 O   0  0  0  0  0  0  0  0  0  0  0  0 
    2.8832   -0.0174    0.0017 O   0  0  0  0  0  0  0  0  0  0  0  0 
    2.6725    1.5066   -1.2975 H   0  0  0  0  0  0  0  0  0  0  0  0 
    4.2313    1.5278   -0.4066 H   0  0  0  0  0  0  0  0  0  0  0  0 
    2.7364    2.0259    0.4202 H   0  0  0  0  0  0  0  0  0  0  0  0 
    3.7282   -3.6506    3.7063 H   0  0  0  0  0  0  0  0  0  0  0  0 
    5.4531   -0.0192    4.6412 H   0  0  0  0  0  0  0  0  0  0  0  0 
  1 10  1  0  0  0  0 
  1 13  1  0  0  0  0 
  2  8  1  0  0  0  0 
  2  5  2  0  0  0  0 
  3  5  2  0  0  0  0 
  3  9  1  0  0  0  0 
  4  6  2  0  0  0  0 
  4  7  1  0  0  0  0 
  6  2  1  0  0  0  0 
  7  3  1  0  0  0  0 
  8 14  1  0  0  0  0 
  9 15  1  0  0  0  0 
 10  4  1  0  0  0  0 
 11  1  1  0  0  0  0 
 12  1  1  0  0  0  0 
M  RAD  1   7   2 
M  END 
>  <HBA> 
4 
 
>  <HBD> 
2 
 
>  <TPSA> 
87.84 
 
>  <cid> 
35596 
 
>  <dipole> 
2.41 
 
>  <excitation_energy_1> 
5.625 
 
>  <excitation_energy_2> 
5.799 
 
>  <excitation_energy_3> 
5.922 
 
>  <excitation_energy_4> 
6.035 
 
>  <homo_energy> 
-7.584 
 
>  <homo_lumo_gap> 
7.078 
 
>  <logP> 
-1.533 
 
>  <lumo_energy> 
-0.506 
 
>  <melting_point> 
189.36 
 
>  <molecular_refractivity> 
31.97 
 
>  <oscillator_strength_1> 
0.0003 
 
>  <oscillator_strength_2> 
0.0038 
 
>  <oscillator_strength_3> 
0.0019 
 
>  <oscillator_strength_4> 
0.0039 
 
>  <open_babel_can_smiles> 
COC1=NC(=[N]=C([N]1)O)O 
 
>  <mulliken_charges> 
15 
1   -0.212601 
2   0.651045 
3   0.653045 
4   0.683205 
5   -0.553443 
6   -0.473985 
7   -0.506802 
8   -0.574464 
9   -0.576734 
10   -0.452824 
11   0.171527 
12   0.174606 
13   0.174653 
14   0.420903 
15   0.42187 
 
>  <lowdin_charges> 
15 
1   -0.27151 
2   0.178966 
3   0.178984 
4   0.183179 
5   -0.278351 
6   -0.197629 
7   -0.227475 
8   -0.319443 
9   -0.320717 
10   -0.149971 
11   0.163467 
12   0.160042 
13   0.163132 
14   0.367668 
15   0.369657 
 
$$$$ 
 
