PCCDB-ID:  65785 
public computational chemistry database (PCCDB) project, http://pccdb.org 
 
 30 30  0  0  0  0  0  0  0  0999 V2000 
    0.9586    0.0749    0.2608 C   0  0  0  0  0  0  0  0  0  0  0  0 
    2.7513    0.3357   -1.4913 C   0  0  0  0  0  0  0  0  0  0  0  0 
    2.6961   -1.1966    2.9379 C   0  0  0  0  0  0  0  0  0  0  0  0 
    4.6341   -2.4567    1.9657 C   0  0  0  0  0  0  0  0  0  0  0  0 
    2.5785   -2.3516   -0.0172 C   0  0  0  0  0  0  0  0  0  0  0  0 
    4.0610    1.3128    1.5954 C   0  0  0  0  0  0  0  0  0  0  0  0 
    3.0543    1.3328    0.7246 C   0  0  0  0  0  0  0  0  0  0  0  0 
    4.7074    0.0258    2.0140 C   0  0  0  0  0  0  0  0  0  0  0  0 
    2.4945    0.1148    0.0234 C   0  0  0  0  0  0  0  0  0  0  0  0 
    3.7702   -1.1877    1.8195 C   0  0  0  0  0  0  0  0  0  0  0  0 
    3.2140   -1.1213    0.4408 N   0  0  0  0  0  0  0  0  0  0  0  0 
    0.5054    1.0235   -0.0501 H   0  0  0  0  0  0  0  0  0  0  0  0 
    0.7154   -0.0827    1.3149 H   0  0  0  0  0  0  0  0  0  0  0  0 
    0.4824   -0.7199   -0.3230 H   0  0  0  0  0  0  0  0  0  0  0  0 
    2.2963    1.2758   -1.8247 H   0  0  0  0  0  0  0  0  0  0  0  0 
    2.3208   -0.4657   -2.1015 H   0  0  0  0  0  0  0  0  0  0  0  0 
    3.8268    0.3783   -1.6836 H   0  0  0  0  0  0  0  0  0  0  0  0 
    3.1582   -1.4054    3.9105 H   0  0  0  0  0  0  0  0  0  0  0  0 
    1.9439   -1.9733    2.7605 H   0  0  0  0  0  0  0  0  0  0  0  0 
    2.1845   -0.2329    3.0131 H   0  0  0  0  0  0  0  0  0  0  0  0 
    5.2314   -2.3837    2.8816 H   0  0  0  0  0  0  0  0  0  0  0  0 
    5.3197   -2.5583    1.1174 H   0  0  0  0  0  0  0  0  0  0  0  0 
    4.0344   -3.3692    2.0431 H   0  0  0  0  0  0  0  0  0  0  0  0 
    2.2220   -2.2245   -1.0416 H   0  0  0  0  0  0  0  0  0  0  0  0 
    1.7167   -2.6827    0.5902 H   0  0  0  0  0  0  0  0  0  0  0  0 
    3.3032   -3.1693   -0.0383 H   0  0  0  0  0  0  0  0  0  0  0  0 
    4.4328    2.2425    2.0235 H   0  0  0  0  0  0  0  0  0  0  0  0 
    2.5917    2.2765    0.4388 H   0  0  0  0  0  0  0  0  0  0  0  0 
    5.0114    0.0764    3.0682 H   0  0  0  0  0  0  0  0  0  0  0  0 
    5.6290   -0.1355    1.4353 H   0  0  0  0  0  0  0  0  0  0  0  0 
  1 13  1  0  0  0  0 
  2  9  1  0  0  0  0 
  3 20  1  0  0  0  0 
  3 18  1  0  0  0  0 
  4 23  1  0  0  0  0 
  4 21  1  0  0  0  0 
  5 11  1  0  0  0  0 
  5 25  1  0  0  0  0 
  6  8  1  0  0  0  0 
  6 27  1  0  0  0  0 
  7  6  2  0  0  0  0 
  8 29  1  0  0  0  0 
  9  1  1  0  0  0  0 
  9 11  1  0  0  0  0 
  9  7  1  0  0  0  0 
 10  4  1  0  0  0  0 
 10  8  1  0  0  0  0 
 10  3  1  0  0  0  0 
 11 10  1  0  0  0  0 
 12  1  1  0  0  0  0 
 14  1  1  0  0  0  0 
 15  2  1  0  0  0  0 
 16  2  1  0  0  0  0 
 17  2  1  0  0  0  0 
 19  3  1  0  0  0  0 
 22  4  1  0  0  0  0 
 24  5  1  0  0  0  0 
 26  5  1  0  0  0  0 
 28  7  1  0  0  0  0 
 30  8  1  0  0  0  0 
M  END 
>  <HBA> 
1 
 
>  <HBD> 
0 
 
>  <TPSA> 
3.24 
 
>  <cid> 
65785 
 
>  <dipole> 
0.35 
 
>  <excitation_energy_1> 
4.847 
 
>  <excitation_energy_2> 
4.91 
 
>  <excitation_energy_3> 
5.153 
 
>  <excitation_energy_4> 
5.263 
 
>  <homo_energy> 
-5.263 
 
>  <homo_lumo_gap> 
6.095 
 
>  <logP> 
2.373 
 
>  <lumo_energy> 
0.833 
 
>  <melting_point> 
27.83 
 
>  <molecular_refractivity> 
54.48 
 
>  <oscillator_strength_1> 
0.006 
 
>  <oscillator_strength_2> 
0.0041 
 
>  <oscillator_strength_3> 
0.0084 
 
>  <oscillator_strength_4> 
0.0004 
 
>  <open_babel_can_smiles> 
CN1C(C)(C)CC=CC1(C)C 
 
>  <mulliken_charges> 
30 
1   -0.455644 
2   -0.436677 
3   -0.459088 
4   -0.471999 
5   -0.309152 
6   -0.131673 
7   -0.104796 
8   -0.292313 
9   0.202637 
10   0.231489 
11   -0.433998 
12   0.136999 
13   0.153394 
14   0.140267 
15   0.13319 
16   0.138187 
17   0.156027 
18   0.133868 
19   0.140965 
20   0.151882 
21   0.140626 
22   0.151774 
23   0.144599 
24   0.147304 
25   0.122454 
26   0.152104 
27   0.120937 
28   0.117107 
29   0.130967 
30   0.148563 
 
>  <lowdin_charges> 
30 
1   -0.457294 
2   -0.441982 
3   -0.463186 
4   -0.448076 
5   -0.359927 
6   -0.17622 
7   -0.171533 
8   -0.273603 
9   0.076145 
10   0.07653 
11   -0.191826 
12   0.149482 
13   0.153283 
14   0.149811 
15   0.146057 
16   0.146502 
17   0.155601 
18   0.146754 
19   0.148554 
20   0.152993 
21   0.151206 
22   0.154003 
23   0.149094 
24   0.149265 
25   0.121934 
26   0.151832 
27   0.152383 
28   0.152884 
29   0.144853 
30   0.15448 
 
$$$$ 
 
