PCCDB-ID:  16588 
public computational chemistry database (PCCDB) project, http://pccdb.org 
 
 32 31  0  0  0  0  0  0  0  0999 V2000 
    6.2719   -1.3605    0.1422 C   0  0  0  0  0  0  0  0  0  0  0  0 
    3.8044   -1.8586    0.3377 C   0  0  0  0  0  0  0  0  0  0  0  0 
    4.9466    7.3520   -2.8169 C   0  0  0  0  0  0  0  0  0  0  0  0 
    5.0343    2.0503   -2.6593 C   0  0  0  0  0  0  0  0  0  0  0  0 
    5.5002    0.6875   -2.1294 C   0  0  0  0  0  0  0  0  0  0  0  0 
    5.9856    2.6482   -3.7044 C   0  0  0  0  0  0  0  0  0  0  0  0 
    4.5550    0.1024   -1.0708 C   0  0  0  0  0  0  0  0  0  0  0  0 
    5.5181    3.9966   -4.2630 C   0  0  0  0  0  0  0  0  0  0  0  0 
    4.9136   -1.3126   -0.5743 C   0  0  0  0  0  0  0  0  0  0  0  0 
    5.6016    5.1294   -3.2562 C   0  0  0  0  0  0  0  0  0  0  0  0 
    6.2279    5.1124   -2.2179 O   0  0  0  0  0  0  0  0  0  0  0  0 
    4.8971    6.2046   -3.6800 O   0  0  0  0  0  0  0  0  0  0  0  0 
    6.4896   -2.3739    0.5006 H   0  0  0  0  0  0  0  0  0  0  0  0 
    6.2770   -0.6930    1.0142 H   0  0  0  0  0  0  0  0  0  0  0  0 
    7.0955   -1.0589   -0.5137 H   0  0  0  0  0  0  0  0  0  0  0  0 
    4.0306   -2.8773    0.6747 H   0  0  0  0  0  0  0  0  0  0  0  0 
    2.8369   -1.8813   -0.1780 H   0  0  0  0  0  0  0  0  0  0  0  0 
    3.6898   -1.2317    1.2319 H   0  0  0  0  0  0  0  0  0  0  0  0 
    4.5502    7.1070   -1.8279 H   0  0  0  0  0  0  0  0  0  0  0  0 
    4.3288    8.1093   -3.3006 H   0  0  0  0  0  0  0  0  0  0  0  0 
    5.9746    7.7081   -2.7071 H   0  0  0  0  0  0  0  0  0  0  0  0 
    4.9372    2.7514   -1.8205 H   0  0  0  0  0  0  0  0  0  0  0  0 
    4.0308    1.9448   -3.0991 H   0  0  0  0  0  0  0  0  0  0  0  0 
    6.5108    0.7957   -1.7136 H   0  0  0  0  0  0  0  0  0  0  0  0 
    5.5868   -0.0189   -2.9691 H   0  0  0  0  0  0  0  0  0  0  0  0 
    6.0955    1.9468   -4.5422 H   0  0  0  0  0  0  0  0  0  0  0  0 
    6.9809    2.7747   -3.2621 H   0  0  0  0  0  0  0  0  0  0  0  0 
    3.5372    0.0756   -1.4876 H   0  0  0  0  0  0  0  0  0  0  0  0 
    4.5102    0.7837   -0.2070 H   0  0  0  0  0  0  0  0  0  0  0  0 
    4.4900    3.9423   -4.6408 H   0  0  0  0  0  0  0  0  0  0  0  0 
    6.1354    4.2931   -5.1227 H   0  0  0  0  0  0  0  0  0  0  0  0 
    4.9745   -1.9682   -1.4574 H   0  0  0  0  0  0  0  0  0  0  0  0 
  1 13  1  0  0  0  0 
  1 14  1  0  0  0  0 
  2 16  1  0  0  0  0 
  2 18  1  0  0  0  0 
  3 21  1  0  0  0  0 
  3 19  1  0  0  0  0 
  4  5  1  0  0  0  0 
  4 22  1  0  0  0  0 
  5 24  1  0  0  0  0 
  5  7  1  0  0  0  0 
  6 27  1  0  0  0  0 
  6  4  1  0  0  0  0 
  7  9  1  0  0  0  0 
  7 29  1  0  0  0  0 
  8  6  1  0  0  0  0 
  8 10  1  0  0  0  0 
  9  1  1  0  0  0  0 
  9  2  1  0  0  0  0 
 10 11  2  0  0  0  0 
 12 10  1  0  0  0  0 
 12  3  1  0  0  0  0 
 15  1  1  0  0  0  0 
 17  2  1  0  0  0  0 
 20  3  1  0  0  0  0 
 23  4  1  0  0  0  0 
 25  5  1  0  0  0  0 
 26  6  1  0  0  0  0 
 28  7  1  0  0  0  0 
 30  8  1  0  0  0  0 
 31  8  1  0  0  0  0 
 32  9  1  0  0  0  0 
M  END 
>  <HBA> 
2 
 
>  <HBD> 
0 
 
>  <TPSA> 
26.3 
 
>  <cid> 
16588 
 
>  <dipole> 
1.57 
 
>  <excitation_energy_1> 
5.821 
 
>  <excitation_energy_2> 
6.938 
 
>  <excitation_energy_3> 
7.397 
 
>  <excitation_energy_4> 
7.52 
 
>  <homo_energy> 
-7.317 
 
>  <homo_lumo_gap> 
7.728 
 
>  <logP> 
2.766 
 
>  <lumo_energy> 
0.411 
 
>  <melting_point> 
-16.78 
 
>  <molecular_refractivity> 
51.47 
 
>  <oscillator_strength_1> 
0.0009 
 
>  <oscillator_strength_2> 
0.0162 
 
>  <oscillator_strength_3> 
0.0027 
 
>  <oscillator_strength_4> 
0.0164 
 
>  <open_babel_can_smiles> 
COC(=O)CCCCCC(C)C 
 
>  <mulliken_charges> 
32 
1   -0.444515 
2   -0.441795 
3   -0.217425 
4   -0.259978 
5   -0.260169 
6   -0.251468 
7   -0.246735 
8   -0.361104 
9   -0.064942 
10   0.621933 
11   -0.480342 
12   -0.451575 
13   0.138041 
14   0.1384 
15   0.144989 
16   0.137914 
17   0.13787 
18   0.138233 
19   0.169843 
20   0.163278 
21   0.16871 
22   0.150933 
23   0.121513 
24   0.137464 
25   0.12321 
26   0.128974 
27   0.15382 
28   0.122455 
29   0.125932 
30   0.166395 
31   0.172469 
32   0.117672 
 
>  <lowdin_charges> 
32 
1   -0.447418 
2   -0.443214 
3   -0.278775 
4   -0.277562 
5   -0.275139 
6   -0.272245 
7   -0.274781 
8   -0.301372 
9   -0.120472 
10   0.195421 
11   -0.266814 
12   -0.195622 
13   0.146693 
14   0.145693 
15   0.149548 
16   0.145913 
17   0.145946 
18   0.14539 
19   0.158441 
20   0.161128 
21   0.157453 
22   0.149727 
23   0.133422 
24   0.141309 
25   0.136006 
26   0.143514 
27   0.15301 
28   0.136633 
29   0.138255 
30   0.164185 
31   0.172246 
32   0.133483 
 
$$$$ 
 
