PCCDB-ID:  67502 
public computational chemistry database (PCCDB) project, http://pccdb.org 
 
 13 14  0  0  0  0  0  0  0  0999 V2000 
   -2.0769   -0.7423    0.0001 C   0  0  0  0  0  0  0  0  0  0  0  0 
   -2.0938    0.6912    0.0007 C   0  0  0  0  0  0  0  0  0  0  0  0 
   -0.9041   -1.4516   -0.0013 C   0  0  0  0  0  0  0  0  0  0  0  0 
   -0.9381    1.4280    0.0002 C   0  0  0  0  0  0  0  0  0  0  0  0 
    0.3212   -0.7231   -0.0014 C   0  0  0  0  0  0  0  0  0  0  0  0 
    0.3041    0.7287   -0.0008 C   0  0  0  0  0  0  0  0  0  0  0  0 
    1.5541   -1.2464   -0.0027 N   0  0  0  0  0  0  0  0  0  0  0  0 
    1.5242    1.2810   -0.0018 N   0  0  0  0  0  0  0  0  0  0  0  0 
    2.5924    0.0298   -0.0032 S   0  0  0  0  0  0  0  0  0  0  0  0 
   -3.0253   -1.2721    0.0004 H   0  0  0  0  0  0  0  0  0  0  0  0 
   -3.0545    1.1985    0.0014 H   0  0  0  0  0  0  0  0  0  0  0  0 
   -0.8826   -2.5362   -0.0017 H   0  0  0  0  0  0  0  0  0  0  0  0 
   -0.9423    2.5128    0.0009 H   0  0  0  0  0  0  0  0  0  0  0  0 
  1 10  1  0  0  0  0 
  1  2  1  0  0  0  0 
  2 11  1  0  0  0  0 
  3  1  2  0  0  0  0 
  4  2  2  0  0  0  0 
  4 13  1  0  0  0  0 
  5  3  1  0  0  0  0 
  5  6  1  0  0  0  0 
  6  4  1  0  0  0  0 
  7  5  2  0  0  0  0 
  8  6  2  0  0  0  0 
  9  7  1  0  0  0  0 
  9  8  1  0  0  0  0 
 12  3  1  0  0  0  0 
M  END 
>  <HBA> 
3 
 
>  <HBD> 
0 
 
>  <TPSA> 
54.02 
 
>  <cid> 
67502 
 
>  <dipole> 
2.01 
 
>  <excitation_energy_1> 
3.8 
 
>  <excitation_energy_2> 
4.498 
 
>  <excitation_energy_3> 
4.559 
 
>  <excitation_energy_4> 
5.142 
 
>  <homo_energy> 
-6.61 
 
>  <homo_lumo_gap> 
4.264 
 
>  <logP> 
1.691 
 
>  <lumo_energy> 
-2.346 
 
>  <melting_point> 
77.89 
 
>  <molecular_refractivity> 
37.41 
 
>  <oscillator_strength_1> 
0.0456 
 
>  <oscillator_strength_2> 
0.2096 
 
>  <oscillator_strength_3> 
0.0 
 
>  <oscillator_strength_4> 
0.0004 
 
>  <open_babel_can_smiles> 
c1ccc2c(c1)nsn2 
 
>  <mulliken_charges> 
13 
1   -0.142575 
2   -0.142775 
3   -0.128732 
4   -0.128648 
5   0.241105 
6   0.240989 
7   -0.55436 
8   -0.554356 
9   0.571449 
10   0.143556 
11   0.143545 
12   0.155393 
13   0.155408 
 
>  <lowdin_charges> 
13 
1   -0.148362 
2   -0.148216 
3   -0.150123 
4   -0.150105 
5   0.001947 
6   0.001927 
7   -0.33402 
8   -0.333958 
9   0.585342 
10   0.16552 
11   0.16538 
12   0.172337 
13   0.17233 
 
$$$$ 
 
