PCCDB-ID:  27515 
public computational chemistry database (PCCDB) project, http://pccdb.org 
 
 27 27  0  0  0  0  0  0  0  0999 V2000 
    1.7122   -0.6131    1.0767 C   0  0  0  0  0  0  0  0  0  0  0  0 
   11.8531   -0.6475    1.4739 C   0  0  0  0  0  0  0  0  0  0  0  0 
    3.1662   -0.2158    0.8935 C   0  0  0  0  0  0  0  0  0  0  0  0 
    7.4028   -0.1331    0.6216 C   0  0  0  0  0  0  0  0  0  0  0  0 
    7.4147   -2.4708    1.2367 C   0  0  0  0  0  0  0  0  0  0  0  0 
    6.0102   -0.1114    0.7007 C   0  0  0  0  0  0  0  0  0  0  0  0 
    6.0302   -2.4597    1.3090 C   0  0  0  0  0  0  0  0  0  0  0  0 
   10.3556   -0.5412    1.6718 C   0  0  0  0  0  0  0  0  0  0  0  0 
    8.1061   -1.3040    0.8914 C   0  0  0  0  0  0  0  0  0  0  0  0 
    5.3164   -1.2797    1.0433 C   0  0  0  0  0  0  0  0  0  0  0  0 
   10.2167   -2.0683   -0.1490 N   0  0  0  0  0  0  0  0  0  0  0  0 
    9.5401   -1.3211    0.8040 N   0  0  0  0  0  0  0  0  0  0  0  0 
    9.8394    0.1643    2.5115 O   0  0  0  0  0  0  0  0  0  0  0  0 
    9.5087   -2.7101   -0.8918 O   0  0  0  0  0  0  0  0  0  0  0  0 
    3.9634   -1.3748    1.1461 O   0  0  0  0  0  0  0  0  0  0  0  0 
    1.0622    0.2512    0.9036 H   0  0  0  0  0  0  0  0  0  0  0  0 
    1.5386   -0.9809    2.0927 H   0  0  0  0  0  0  0  0  0  0  0  0 
    1.4360   -1.4030    0.3714 H   0  0  0  0  0  0  0  0  0  0  0  0 
   12.1981   -1.6801    1.5755 H   0  0  0  0  0  0  0  0  0  0  0  0 
   12.3240   -0.0187    2.2309 H   0  0  0  0  0  0  0  0  0  0  0  0 
   12.1441   -0.3105    0.4747 H   0  0  0  0  0  0  0  0  0  0  0  0 
    3.4461    0.5860    1.5913 H   0  0  0  0  0  0  0  0  0  0  0  0 
    3.3497    0.1452   -0.1284 H   0  0  0  0  0  0  0  0  0  0  0  0 
    7.9414    0.7709    0.3575 H   0  0  0  0  0  0  0  0  0  0  0  0 
    7.9634   -3.3833    1.4454 H   0  0  0  0  0  0  0  0  0  0  0  0 
    5.4834    0.8128    0.4961 H   0  0  0  0  0  0  0  0  0  0  0  0 
    5.4745   -3.3542    1.5704 H   0  0  0  0  0  0  0  0  0  0  0  0 
  1 17  1  0  0  0  0 
  2 19  1  0  0  0  0 
  2  8  1  0  0  0  0 
  2 20  1  0  0  0  0 
  3  1  1  0  0  0  0 
  3 15  1  0  0  0  0 
  3 22  1  0  0  0  0 
  4  6  2  0  0  0  0 
  4  9  1  0  0  0  0 
  5  7  1  0  0  0  0 
  5 25  1  0  0  0  0 
  6 10  1  0  0  0  0 
  7 27  1  0  0  0  0 
  8 13  2  0  0  0  0 
  9  5  2  0  0  0  0 
 10 15  1  0  0  0  0 
 10  7  2  0  0  0  0 
 11 12  1  0  0  0  0 
 12  9  1  0  0  0  0 
 12  8  1  0  0  0  0 
 14 11  1  0  0  0  0 
 16  1  1  0  0  0  0 
 18  1  1  0  0  0  0 
 21  2  1  0  0  0  0 
 23  3  1  0  0  0  0 
 24  4  1  0  0  0  0 
 26  6  1  0  0  0  0 
M  RAD  2  11   2  14   2 
M  END 
>  <HBA> 
5 
 
>  <HBD> 
0 
 
>  <TPSA> 
58.97 
 
>  <cid> 
27515 
 
>  <dipole> 
1.97 
 
>  <excitation_energy_1> 
2.889 
 
>  <excitation_energy_2> 
3.359 
 
>  <excitation_energy_3> 
4.134 
 
>  <excitation_energy_4> 
4.412 
 
>  <homo_energy> 
-6.155 
 
>  <homo_lumo_gap> 
4.152 
 
>  <logP> 
2.12 
 
>  <lumo_energy> 
-2.003 
 
>  <melting_point> 
58.55 
 
>  <molecular_refractivity> 
56.89 
 
>  <oscillator_strength_1> 
0.0018 
 
>  <oscillator_strength_2> 
0.0214 
 
>  <oscillator_strength_3> 
0.0001 
 
>  <oscillator_strength_4> 
0.0005 
 
>  <open_babel_can_smiles> 
CCOc1ccc(cc1)N(C(=O)C)[N][O] 
 
>  <mulliken_charges> 
27 
1   -0.457665 
2   -0.521428 
3   -0.033937 
4   -0.120307 
5   -0.116316 
6   -0.212833 
7   -0.192636 
8   0.578489 
9   0.284822 
10   0.397622 
11   0.182181 
12   -0.425401 
13   -0.441889 
14   -0.320234 
15   -0.51556 
16   0.151157 
17   0.166134 
18   0.165755 
19   0.188426 
20   0.183954 
21   0.188729 
22   0.145738 
23   0.144557 
24   0.147078 
25   0.145991 
26   0.141417 
27   0.146155 
 
>  <lowdin_charges> 
27 
1   -0.447724 
2   -0.468849 
3   -0.12381 
4   -0.130717 
5   -0.135988 
6   -0.210506 
7   -0.178221 
8   0.18227 
9   0.014853 
10   0.113902 
11   0.075734 
12   -0.042132 
13   -0.237818 
14   -0.195148 
15   -0.197092 
16   0.159282 
17   0.160689 
18   0.161976 
19   0.179946 
20   0.17809 
21   0.180875 
22   0.141638 
23   0.139334 
24   0.170296 
25   0.169784 
26   0.167446 
27   0.171891 
 
$$$$ 
 
