PCCDB-ID:  17203 
public computational chemistry database (PCCDB) project, http://pccdb.org 
 
 24 24  0  0  1  0  0  0  0  0999 V2000 
    1.3169   -0.5433   -0.6062 C   0  0  0  0  0  0  0  0  0  0  0  0 
    4.3171    4.8213   -2.2903 C   0  0  0  0  0  0  0  0  0  0  0  0 
    1.5487    2.3195    1.0600 C   0  0  0  0  0  0  0  0  0  0  0  0 
    1.6624    3.7085    0.9976 C   0  0  0  0  0  0  0  0  0  0  0  0 
    3.4651    2.1118   -0.3759 C   0  0  0  0  0  0  0  0  0  0  0  0 
    2.3215   -0.0128    0.4173 C   0  0  1  0  0  0  0  0  0  0  0  0 
    2.4530    1.5024    0.3751 C   0  0  0  0  0  0  0  0  0  0  0  0 
    2.6791    4.3094    0.2529 C   0  0  0  0  0  0  0  0  0  0  0  0 
    3.5890    3.4977   -0.4529 C   0  0  0  0  0  0  0  0  0  0  0  0 
    1.8664   -0.4746    1.6917 O   0  0  0  0  0  0  0  0  0  0  0  0 
    2.8476    5.6680    0.1869 O   0  0  0  0  0  0  0  0  0  0  0  0 
    4.6486    4.0277   -1.1481 O   0  0  0  0  0  0  0  0  0  0  0  0 
    1.6256   -0.2788   -1.6226 H   0  0  0  0  0  0  0  0  0  0  0  0 
    0.3269   -0.1138   -0.4202 H   0  0  0  0  0  0  0  0  0  0  0  0 
    1.2440   -1.6332   -0.5289 H   0  0  0  0  0  0  0  0  0  0  0  0 
    5.2694    5.1057   -2.7439 H   0  0  0  0  0  0  0  0  0  0  0  0 
    3.7614    5.7209   -2.0093 H   0  0  0  0  0  0  0  0  0  0  0  0 
    3.7317    4.2379   -3.0138 H   0  0  0  0  0  0  0  0  0  0  0  0 
    0.7623    1.8645    1.6543 H   0  0  0  0  0  0  0  0  0  0  0  0 
    0.9613    4.3378    1.5446 H   0  0  0  0  0  0  0  0  0  0  0  0 
    4.1963    1.5132   -0.9138 H   0  0  0  0  0  0  0  0  0  0  0  0 
    3.3090   -0.4497    0.1924 H   0  0  0  0  0  0  0  0  0  0  0  0 
    2.4569   -0.0955    2.3623 H   0  0  0  0  0  0  0  0  0  0  0  0 
    2.1699    6.0892    0.7383 H   0  0  0  0  0  0  0  0  0  0  0  0 
  1 15  1  0  0  0  0 
  1 14  1  0  0  0  0 
  1  6  1  0  0  0  0 
  2 17  1  0  0  0  0 
  2 12  1  0  0  0  0 
  3 19  1  0  0  0  0 
  4  3  1  0  0  0  0 
  4 20  1  0  0  0  0 
  5  7  1  0  0  0  0 
  6 22  1  6  0  0  0 
  6 10  1  0  0  0  0 
  7  6  1  0  0  0  0 
  7  3  2  0  0  0  0 
  8  4  2  0  0  0  0 
  9  5  2  0  0  0  0 
  9  8  1  0  0  0  0 
 10 23  1  0  0  0  0 
 11  8  1  0  0  0  0 
 11 24  1  0  0  0  0 
 12  9  1  0  0  0  0 
 13  1  1  0  0  0  0 
 16  2  1  0  0  0  0 
 18  2  1  0  0  0  0 
 21  5  1  0  0  0  0 
M  END 
>  <HBA> 
3 
 
>  <HBD> 
2 
 
>  <TPSA> 
49.69 
 
>  <cid> 
17203 
 
>  <dipole> 
1.93 
 
>  <excitation_energy_1> 
4.884 
 
>  <excitation_energy_2> 
5.023 
 
>  <excitation_energy_3> 
5.452 
 
>  <excitation_energy_4> 
5.558 
 
>  <homo_energy> 
-5.793 
 
>  <homo_lumo_gap> 
5.807 
 
>  <logP> 
1.454 
 
>  <lumo_energy> 
0.014 
 
>  <melting_point> 
72.19 
 
>  <molecular_refractivity> 
45.89 
 
>  <oscillator_strength_1> 
0.0464 
 
>  <oscillator_strength_2> 
0.0011 
 
>  <oscillator_strength_3> 
0.0316 
 
>  <oscillator_strength_4> 
0.0242 
 
>  <open_babel_can_smiles> 
COc1cc(ccc1O)[C@@H](O)C 
 
>  <mulliken_charges> 
24 
1   -0.434642 
2   -0.213997 
3   -0.187838 
4   -0.199449 
5   -0.241934 
6   0.079513 
7   0.110332 
8   0.314034 
9   0.334342 
10   -0.625758 
11   -0.642309 
12   -0.521462 
13   0.144551 
14   0.15417 
15   0.155941 
16   0.158626 
17   0.168872 
18   0.138154 
19   0.141461 
20   0.119881 
21   0.13171 
22   0.118093 
23   0.388207 
24   0.409501 
 
>  <lowdin_charges> 
24 
1   -0.440437 
2   -0.277701 
3   -0.16698 
4   -0.209379 
5   -0.180547 
6   0.00724 
7   -0.042835 
8   0.077319 
9   0.068068 
10   -0.465096 
11   -0.379265 
12   -0.222751 
13   0.153293 
14   0.155651 
15   0.155454 
16   0.156447 
17   0.152804 
18   0.139674 
19   0.166215 
20   0.154696 
21   0.165602 
22   0.128301 
23   0.343646 
24   0.36058 
 
$$$$ 
 
