PCCDB-ID:  24602 
public computational chemistry database (PCCDB) project, http://pccdb.org 
 
  3  2  0  0  0  0  0  0  0  0999 V2000 
    0.9246   -0.0690    0.0035 O   0  0  0  0  0  0  0  0  0  0  0  0 
    1.8921   -0.0673   -0.0456 H   0  0  0  0  0  0  0  0  0  0  0  0 
    0.6485   -0.0374   -0.9245 H   0  0  0  0  0  0  0  0  0  0  0  0 
  2  1  1  0  0  0  0 
  3  1  1  0  0  0  0 
M  END 
>  <HBA> 
1 
 
>  <HBD> 
1 
 
>  <TPSA> 
9.23 
 
>  <cid> 
24602 
 
>  <dipole> 
2.1 
 
>  <excitation_energy_1> 
7.824 
 
>  <excitation_energy_2> 
10.014 
 
>  <excitation_energy_3> 
10.117 
 
>  <excitation_energy_4> 
11.458 
 
>  <homo_energy> 
-7.924 
 
>  <homo_lumo_gap> 
9.627 
 
>  <logP> 
-0.064 
 
>  <lumo_energy> 
1.703 
 
>  <melting_point> 
0.0 
 
>  <molecular_refractivity> 
3.05 
 
>  <oscillator_strength_1> 
0.0706 
 
>  <oscillator_strength_2> 
0.0 
 
>  <oscillator_strength_3> 
0.1224 
 
>  <oscillator_strength_4> 
0.0185 
 
>  <open_babel_can_smiles> 
O 
 
>  <mulliken_charges> 
3 
1   -0.774302 
2   0.38715 
3   0.387153 
 
>  <lowdin_charges> 
3 
1   -0.683691 
2   0.341687 
3   0.342004 
 
$$$$ 
 
