PCCDB-ID:  44983 
public computational chemistry database (PCCDB) project, http://pccdb.org 
 
 20 19  0  0  0  0  0  0  0  0999 V2000 
    3.3912    2.2281    0.2230 C   0  0  0  0  0  0  0  0  0  0  0  0 
    1.6297    1.3341   -2.9170 C   0  0  0  0  0  0  0  0  0  0  0  0 
    2.6173    0.9373   -0.0925 C   0  0  0  0  0  0  0  0  0  0  0  0 
    3.0291    0.8477   -2.5421 C   0  0  0  0  0  0  0  0  0  0  0  0 
    4.3516   -1.4499    0.0637 C   0  0  0  0  0  0  0  0  0  0  0  0 
    4.3694   -0.4855   -1.0504 C   0  0  0  0  0  0  0  0  0  0  0  0 
    4.3560   -2.2039    0.9456 N   0  0  0  0  0  0  0  0  0  0  0  0 
    3.0721    0.1511   -1.2510 N   0  0  0  0  0  0  0  0  0  0  0  0 
    2.9785    2.6928    1.1254 H   0  0  0  0  0  0  0  0  0  0  0  0 
    3.3184    2.9604   -0.5888 H   0  0  0  0  0  0  0  0  0  0  0  0 
    4.4539    2.0385    0.4120 H   0  0  0  0  0  0  0  0  0  0  0  0 
    1.6350    1.7116   -3.9453 H   0  0  0  0  0  0  0  0  0  0  0  0 
    1.2839    2.1488   -2.2724 H   0  0  0  0  0  0  0  0  0  0  0  0 
    0.9076    0.5136   -2.8529 H   0  0  0  0  0  0  0  0  0  0  0  0 
    1.5612    1.1754   -0.2537 H   0  0  0  0  0  0  0  0  0  0  0  0 
    2.6461    0.2714    0.7770 H   0  0  0  0  0  0  0  0  0  0  0  0 
    3.7400    1.6949   -2.5890 H   0  0  0  0  0  0  0  0  0  0  0  0 
    3.3614    0.1277   -3.3008 H   0  0  0  0  0  0  0  0  0  0  0  0 
    4.6288   -1.0391   -1.9611 H   0  0  0  0  0  0  0  0  0  0  0  0 
    5.2031    0.2200   -0.8689 H   0  0  0  0  0  0  0  0  0  0  0  0 
  1 11  1  0  0  0  0 
  1  9  1  0  0  0  0 
  2 14  1  0  0  0  0 
  2  4  1  0  0  0  0 
  2 13  1  0  0  0  0 
  3  1  1  0  0  0  0 
  3 16  1  0  0  0  0 
  4  8  1  0  0  0  0 
  5  7  3  0  0  0  0 
  6 20  1  0  0  0  0 
  6  5  1  0  0  0  0 
  8  6  1  0  0  0  0 
  8  3  1  0  0  0  0 
 10  1  1  0  0  0  0 
 12  2  1  0  0  0  0 
 15  3  1  0  0  0  0 
 17  4  1  0  0  0  0 
 18  4  1  0  0  0  0 
 19  6  1  0  0  0  0 
M  END 
>  <HBA> 
2 
 
>  <HBD> 
0 
 
>  <TPSA> 
27.03 
 
>  <cid> 
44983 
 
>  <dipole> 
4.22 
 
>  <excitation_energy_1> 
5.329 
 
>  <excitation_energy_2> 
5.701 
 
>  <excitation_energy_3> 
5.94 
 
>  <excitation_energy_4> 
6.036 
 
>  <homo_energy> 
-6.191 
 
>  <homo_lumo_gap> 
6.846 
 
>  <logP> 
0.852 
 
>  <lumo_energy> 
0.656 
 
>  <melting_point> 
9.97 
 
>  <molecular_refractivity> 
33.6 
 
>  <oscillator_strength_1> 
0.0052 
 
>  <oscillator_strength_2> 
0.0151 
 
>  <oscillator_strength_3> 
0.02 
 
>  <oscillator_strength_4> 
0.0079 
 
>  <open_babel_can_smiles> 
CCN(CC#N)CC 
 
>  <mulliken_charges> 
20 
1   -0.463271 
2   -0.459701 
3   -0.154004 
4   -0.109196 
5   0.361175 
6   -0.178237 
7   -0.479168 
8   -0.383468 
9   0.154525 
10   0.150802 
11   0.149735 
12   0.150159 
13   0.153606 
14   0.164368 
15   0.154615 
16   0.16879 
17   0.120396 
18   0.141384 
19   0.190933 
20   0.166557 
 
>  <lowdin_charges> 
20 
1   -0.465098 
2   -0.450324 
3   -0.208459 
4   -0.198515 
5   -0.016129 
6   -0.197375 
7   -0.121733 
8   -0.18192 
9   0.160293 
10   0.150683 
11   0.148373 
12   0.156591 
13   0.152465 
14   0.159884 
15   0.150234 
16   0.159841 
17   0.121072 
18   0.146832 
19   0.180436 
20   0.152848 
 
$$$$ 
 
