PCCDB-ID:  70952 
public computational chemistry database (PCCDB) project, http://pccdb.org 
 
 18 19  0  0  0  0  0  0  0  0999 V2000 
    0.9227    0.1514   -0.0608 C   0  0  0  0  0  0  0  0  0  0  0  0 
    7.0986    0.8703   -0.0587 C   0  0  0  0  0  0  0  0  0  0  0  0 
    7.2054   -0.5315   -0.0603 C   0  0  0  0  0  0  0  0  0  0  0  0 
    5.8543    1.4876   -0.0584 C   0  0  0  0  0  0  0  0  0  0  0  0 
    6.0667   -1.3318   -0.0616 C   0  0  0  0  0  0  0  0  0  0  0  0 
    3.3070    1.1157   -0.0596 C   0  0  0  0  0  0  0  0  0  0  0  0 
    2.4196    0.0855   -0.0614 C   0  0  0  0  0  0  0  0  0  0  0  0 
    4.6873    0.7027   -0.0599 C   0  0  0  0  0  0  0  0  0  0  0  0 
    4.8164   -0.7083   -0.0617 C   0  0  0  0  0  0  0  0  0  0  0  0 
    3.2368   -1.4822   -0.0637 S   0  0  0  0  0  0  0  0  0  0  0  0 
    0.5950    1.1955   -0.0727 H   0  0  0  0  0  0  0  0  0  0  0  0 
    0.4955   -0.3276    0.8290 H   0  0  0  0  0  0  0  0  0  0  0  0 
    0.4936   -0.3484   -0.9379 H   0  0  0  0  0  0  0  0  0  0  0  0 
    8.0005    1.4762   -0.0573 H   0  0  0  0  0  0  0  0  0  0  0  0 
    8.1870   -0.9973   -0.0607 H   0  0  0  0  0  0  0  0  0  0  0  0 
    5.7764    2.5719   -0.0570 H   0  0  0  0  0  0  0  0  0  0  0  0 
    6.1500   -2.4149   -0.0622 H   0  0  0  0  0  0  0  0  0  0  0  0 
    2.9969    2.1563   -0.0576 H   0  0  0  0  0  0  0  0  0  0  0  0 
  1 12  1  0  0  0  0 
  2  4  1  0  0  0  0 
  2 14  1  0  0  0  0 
  3  2  2  0  0  0  0 
  4 16  1  0  0  0  0 
  5  3  1  0  0  0  0 
  6 18  1  0  0  0  0 
  7  1  1  0  0  0  0 
  7  6  2  0  0  0  0 
  8  6  1  0  0  0  0 
  8  4  2  0  0  0  0 
  9  5  2  0  0  0  0 
  9  8  1  0  0  0  0 
 10  9  1  0  0  0  0 
 10  7  1  0  0  0  0 
 11  1  1  0  0  0  0 
 13  1  1  0  0  0  0 
 15  3  1  0  0  0  0 
 17  5  1  0  0  0  0 
M  END 
>  <HBA> 
1 
 
>  <HBD> 
0 
 
>  <TPSA> 
28.24 
 
>  <cid> 
70952 
 
>  <dipole> 
0.95 
 
>  <excitation_energy_1> 
4.603 
 
>  <excitation_energy_2> 
4.806 
 
>  <excitation_energy_3> 
4.971 
 
>  <excitation_energy_4> 
5.313 
 
>  <homo_energy> 
-5.766 
 
>  <homo_lumo_gap> 
5.225 
 
>  <logP> 
3.21 
 
>  <lumo_energy> 
-0.542 
 
>  <melting_point> 
51.72 
 
>  <molecular_refractivity> 
46.79 
 
>  <oscillator_strength_1> 
0.061 
 
>  <oscillator_strength_2> 
0.0679 
 
>  <oscillator_strength_3> 
0.0004 
 
>  <oscillator_strength_4> 
0.2345 
 
>  <open_babel_can_smiles> 
Cc1cc2c(s1)cccc2 
 
>  <mulliken_charges> 
18 
1   -0.510193 
2   -0.142384 
3   -0.123182 
4   -0.180259 
5   -0.172788 
6   -0.160139 
7   -0.103727 
8   0.155576 
9   -0.144951 
10   0.205945 
11   0.168456 
12   0.173263 
13   0.173009 
14   0.12864 
15   0.129485 
16   0.128707 
17   0.139016 
18   0.135528 
 
>  <lowdin_charges> 
18 
1   -0.436122 
2   -0.163491 
3   -0.160779 
4   -0.157952 
5   -0.159231 
6   -0.199561 
7   -0.129356 
8   -0.015499 
9   -0.135432 
10   0.259989 
11   0.165541 
12   0.167253 
13   0.167289 
14   0.158427 
15   0.158674 
16   0.156593 
17   0.161506 
18   0.162151 
 
$$$$ 
 
