PCCDB-ID:  24128 
public computational chemistry database (PCCDB) project, http://pccdb.org 
 
 17 17  0  0  0  0  0  0  0  0999 V2000 
    1.0305   -0.3593    0.2623 C   0  0  0  0  0  0  0  0  0  0  0  0 
    2.4758    0.1362    0.0651 C   0  0  0  0  0  0  0  0  0  0  0  0 
    2.8938    1.0586    1.1780 C   0  0  0  0  0  0  0  0  0  0  0  0 
    3.7601    1.3900    3.2331 C   0  0  0  0  0  0  0  0  0  0  0  0 
    3.0108    3.1226    2.0783 C   0  0  0  0  0  0  0  0  0  0  0  0 
    3.4515    0.5118    2.2665 N   0  0  0  0  0  0  0  0  0  0  0  0 
    2.6469    2.3672    1.0305 N   0  0  0  0  0  0  0  0  0  0  0  0 
    3.5724    2.7063    3.2095 N   0  0  0  0  0  0  0  0  0  0  0  0 
    4.3194    0.8984    4.3427 O   0  0  0  0  0  0  0  0  0  0  0  0 
    2.7913    4.4372    1.9831 O   0  0  0  0  0  0  0  0  0  0  0  0 
    0.7431   -1.0289   -0.5550 H   0  0  0  0  0  0  0  0  0  0  0  0 
    0.3292    0.4816    0.2787 H   0  0  0  0  0  0  0  0  0  0  0  0 
    0.9321   -0.9078    1.2049 H   0  0  0  0  0  0  0  0  0  0  0  0 
    2.5560    0.6762   -0.8834 H   0  0  0  0  0  0  0  0  0  0  0  0 
    3.1603   -0.7175    0.0446 H   0  0  0  0  0  0  0  0  0  0  0  0 
    4.3903   -0.0636    4.2059 H   0  0  0  0  0  0  0  0  0  0  0  0 
    2.3825    4.5804    1.1103 H   0  0  0  0  0  0  0  0  0  0  0  0 
  1 12  1  0  0  0  0 
  1 13  1  0  0  0  0 
  2  1  1  0  0  0  0 
  2  3  1  0  0  0  0 
  3  6  2  0  0  0  0 
  4  9  1  0  0  0  0 
  5  8  2  0  0  0  0 
  6  4  2  0  0  0  0 
  7  3  1  0  0  0  0 
  7  5  2  0  0  0  0 
  8  4  2  0  0  0  0 
 10  5  1  0  0  0  0 
 11  1  1  0  0  0  0 
 14  2  1  0  0  0  0 
 15  2  1  0  0  0  0 
 16  9  1  0  0  0  0 
 17 10  1  0  0  0  0 
M  END 
>  <HBA> 
3 
 
>  <HBD> 
2 
 
>  <TPSA> 
78.61 
 
>  <cid> 
24128 
 
>  <dipole> 
3.19 
 
>  <excitation_energy_1> 
5.198 
 
>  <excitation_energy_2> 
5.334 
 
>  <excitation_energy_3> 
5.601 
 
>  <excitation_energy_4> 
5.758 
 
>  <homo_energy> 
-7.508 
 
>  <homo_lumo_gap> 
6.52 
 
>  <logP> 
-0.979 
 
>  <lumo_energy> 
-0.988 
 
>  <melting_point> 
187.43 
 
>  <molecular_refractivity> 
35.25 
 
>  <oscillator_strength_1> 
0.0078 
 
>  <oscillator_strength_2> 
0.0001 
 
>  <oscillator_strength_3> 
0.0 
 
>  <oscillator_strength_4> 
0.0228 
 
>  <open_babel_can_smiles> 
CCC1=[N]=[C](=[N]=[C](=N1)O)O 
 
>  <mulliken_charges> 
17 
1   -0.451232 
2   -0.307238 
3   0.445344 
4   0.640882 
5   0.640833 
6   -0.50997 
7   -0.510025 
8   -0.450998 
9   -0.573309 
10   -0.573302 
11   0.155964 
12   0.161508 
13   0.161501 
14   0.162751 
15   0.162734 
16   0.422275 
17   0.422279 
 
>  <lowdin_charges> 
17 
1   -0.437344 
2   -0.27714 
3   0.130702 
4   0.174978 
5   0.176333 
6   -0.240675 
7   -0.240439 
8   -0.184777 
9   -0.316036 
10   -0.318811 
11   0.157659 
12   0.157054 
13   0.156496 
14   0.163062 
15   0.163606 
16   0.36699 
17   0.368344 
 
$$$$ 
 
