PCCDB-ID:  66642 
public computational chemistry database (PCCDB) project, http://pccdb.org 
 
 23 23  0  0  0  0  0  0  0  0999 V2000 
    1.1718    0.7517    0.2369 C   0  0  0  0  0  0  0  0  0  0  0  0 
    2.4616    1.4805   -0.1321 C   0  0  0  0  0  0  0  0  0  0  0  0 
    7.1476    1.6827   -2.3008 C   0  0  0  0  0  0  0  0  0  0  0  0 
    6.3265    2.6148   -1.6530 C   0  0  0  0  0  0  0  0  0  0  0  0 
    6.6630    0.3982   -2.4951 C   0  0  0  0  0  0  0  0  0  0  0  0 
    5.0700    2.2611   -1.1894 C   0  0  0  0  0  0  0  0  0  0  0  0 
    5.3827    0.0027   -2.0652 C   0  0  0  0  0  0  0  0  0  0  0  0 
    4.5653    0.9465   -1.3574 C   0  0  0  0  0  0  0  0  0  0  0  0 
    4.8846   -1.3703   -2.3150 C   0  0  0  0  0  0  0  0  0  0  0  0 
    3.3406    0.5988   -0.8775 N   0  0  0  0  0  0  0  0  0  0  0  0 
    3.9404   -1.8842   -1.7357 O   0  0  0  0  0  0  0  0  0  0  0  0 
    5.5226   -2.1094   -3.2636 O   0  0  0  0  0  0  0  0  0  0  0  0 
    0.5088    1.4141    0.8020 H   0  0  0  0  0  0  0  0  0  0  0  0 
    1.3808   -0.1275    0.8570 H   0  0  0  0  0  0  0  0  0  0  0  0 
    0.6395    0.4189   -0.6607 H   0  0  0  0  0  0  0  0  0  0  0  0 
    2.9594    1.8428    0.7816 H   0  0  0  0  0  0  0  0  0  0  0  0 
    2.2244    2.3694   -0.7349 H   0  0  0  0  0  0  0  0  0  0  0  0 
    8.1438    1.9538   -2.6346 H   0  0  0  0  0  0  0  0  0  0  0  0 
    6.6808    3.6304   -1.4951 H   0  0  0  0  0  0  0  0  0  0  0  0 
    7.3227   -0.3341   -2.9566 H   0  0  0  0  0  0  0  0  0  0  0  0 
    4.4638    2.9987   -0.6762 H   0  0  0  0  0  0  0  0  0  0  0  0 
    3.1170   -0.3901   -0.9364 H   0  0  0  0  0  0  0  0  0  0  0  0 
    6.1208   -1.5438   -3.7768 H   0  0  0  0  0  0  0  0  0  0  0  0 
  1 13  1  0  0  0  0 
  1 14  1  0  0  0  0 
  2  1  1  0  0  0  0 
  2 16  1  0  0  0  0 
  3  4  1  0  0  0  0 
  4 19  1  0  0  0  0 
  4  6  2  0  0  0  0 
  5  3  2  0  0  0  0 
  5  7  1  0  0  0  0 
  6 21  1  0  0  0  0 
  7  8  2  0  0  0  0 
  8  6  1  0  0  0  0 
  8 10  1  0  0  0  0 
  9  7  1  0  0  0  0 
  9 11  2  0  0  0  0 
 10  2  1  0  0  0  0 
 12  9  1  0  0  0  0 
 15  1  1  0  0  0  0 
 17  2  1  0  0  0  0 
 18  3  1  0  0  0  0 
 20  5  1  0  0  0  0 
 22 10  1  0  0  0  0 
 23 12  1  0  0  0  0 
M  END 
>  <HBA> 
3 
 
>  <HBD> 
2 
 
>  <TPSA> 
49.33 
 
>  <cid> 
66642 
 
>  <dipole> 
3.38 
 
>  <excitation_energy_1> 
3.668 
 
>  <excitation_energy_2> 
4.851 
 
>  <excitation_energy_3> 
4.872 
 
>  <excitation_energy_4> 
5.113 
 
>  <homo_energy> 
-5.48 
 
>  <homo_lumo_gap> 
4.321 
 
>  <logP> 
1.89 
 
>  <lumo_energy> 
-1.159 
 
>  <melting_point> 
129.54 
 
>  <molecular_refractivity> 
47.51 
 
>  <oscillator_strength_1> 
0.1087 
 
>  <oscillator_strength_2> 
0.0106 
 
>  <oscillator_strength_3> 
0.0076 
 
>  <oscillator_strength_4> 
0.0594 
 
>  <open_babel_can_smiles> 
CCNc1ccccc1C(=O)O 
 
>  <mulliken_charges> 
23 
1   -0.476935 
2   -0.093409 
3   -0.141225 
4   -0.129604 
5   -0.223342 
6   -0.187709 
7   0.016512 
8   0.34859 
9   0.56829 
10   -0.696691 
11   -0.493787 
12   -0.575953 
13   0.155749 
14   0.163074 
15   0.164278 
16   0.145376 
17   0.147521 
18   0.129076 
19   0.134698 
20   0.125514 
21   0.134851 
22   0.373909 
23   0.411218 
 
>  <lowdin_charges> 
23 
1   -0.450513 
2   -0.189964 
3   -0.195363 
4   -0.124694 
5   -0.153111 
6   -0.211343 
7   -0.110789 
8   0.087851 
9   0.202579 
10   -0.274848 
11   -0.278449 
12   -0.358138 
13   0.161154 
14   0.157896 
15   0.15879 
16   0.139119 
17   0.142564 
18   0.158896 
19   0.159875 
20   0.154688 
21   0.164759 
22   0.300807 
23   0.358234 
 
$$$$ 
 
