PCCDB-ID:  21244 
public computational chemistry database (PCCDB) project, http://pccdb.org 
 
 20 19  0  0  0  0  0  0  0  0999 V2000 
    3.6905    1.4396    0.9051 C   0  0  0  0  0  0  0  0  0  0  0  0 
    3.0148   -0.9346    1.4973 C   0  0  0  0  0  0  0  0  0  0  0  0 
    2.0940   -0.5889   -3.6540 C   0  0  0  0  0  0  0  0  0  0  0  0 
    3.2939   -0.2532   -0.8961 C   0  0  0  0  0  0  0  0  0  0  0  0 
    4.0269   -0.7076   -1.9236 C   0  0  0  0  0  0  0  0  0  0  0  0 
    3.7949   -0.0464    0.5081 C   0  0  0  0  0  0  0  0  0  0  0  0 
    3.5426   -0.9092   -3.3117 C   0  0  0  0  0  0  0  0  0  0  0  0 
    4.3109   -1.3273   -4.1667 O   0  0  0  0  0  0  0  0  0  0  0  0 
    4.0673    1.5933    1.9229 H   0  0  0  0  0  0  0  0  0  0  0  0 
    2.6481    1.7814    0.8793 H   0  0  0  0  0  0  0  0  0  0  0  0 
    4.2705    2.0741    0.2266 H   0  0  0  0  0  0  0  0  0  0  0  0 
    3.3942   -0.7996    2.5168 H   0  0  0  0  0  0  0  0  0  0  0  0 
    3.1051   -1.9945    1.2369 H   0  0  0  0  0  0  0  0  0  0  0  0 
    1.9481   -0.6770    1.5008 H   0  0  0  0  0  0  0  0  0  0  0  0 
    1.8739    0.4710   -3.4786 H   0  0  0  0  0  0  0  0  0  0  0  0 
    1.4018   -1.1736   -3.0369 H   0  0  0  0  0  0  0  0  0  0  0  0 
    1.9247   -0.8218   -4.7067 H   0  0  0  0  0  0  0  0  0  0  0  0 
    2.2435   -0.0020   -1.0561 H   0  0  0  0  0  0  0  0  0  0  0  0 
    5.0765   -0.9625   -1.7849 H   0  0  0  0  0  0  0  0  0  0  0  0 
    4.8530   -0.3389    0.5418 H   0  0  0  0  0  0  0  0  0  0  0  0 
  1  9  1  0  0  0  0 
  2 14  1  0  0  0  0 
  2 12  1  0  0  0  0 
  3 15  1  0  0  0  0 
  3  7  1  0  0  0  0 
  3 16  1  0  0  0  0 
  4  6  1  0  0  0  0 
  5 19  1  0  0  0  0 
  5  4  2  0  0  0  0 
  6 20  1  0  0  0  0 
  6  1  1  0  0  0  0 
  6  2  1  0  0  0  0 
  7  5  1  0  0  0  0 
  8  7  2  0  0  0  0 
 10  1  1  0  0  0  0 
 11  1  1  0  0  0  0 
 13  2  1  0  0  0  0 
 17  3  1  0  0  0  0 
 18  4  1  0  0  0  0 
M  END 
>  <HBA> 
1 
 
>  <HBD> 
0 
 
>  <TPSA> 
17.07 
 
>  <cid> 
21244 
 
>  <dipole> 
3.75 
 
>  <excitation_energy_1> 
3.699 
 
>  <excitation_energy_2> 
5.762 
 
>  <excitation_energy_3> 
6.205 
 
>  <excitation_energy_4> 
6.624 
 
>  <homo_energy> 
-6.525 
 
>  <homo_lumo_gap> 
5.23 
 
>  <logP> 
1.788 
 
>  <lumo_energy> 
-1.295 
 
>  <melting_point> 
3.95 
 
>  <molecular_refractivity> 
35.49 
 
>  <oscillator_strength_1> 
0.0004 
 
>  <oscillator_strength_2> 
0.4909 
 
>  <oscillator_strength_3> 
0.0302 
 
>  <oscillator_strength_4> 
0.0031 
 
>  <open_babel_can_smiles> 
CC(/C=C/C(=O)C)C 
 
>  <mulliken_charges> 
20 
1   -0.444547 
2   -0.444815 
3   -0.541262 
4   -0.068274 
5   -0.186599 
6   -0.123007 
7   0.446877 
8   -0.460816 
9   0.149827 
10   0.143267 
11   0.155387 
12   0.149891 
13   0.155321 
14   0.143228 
15   0.166693 
16   0.165335 
17   0.179773 
18   0.132806 
19   0.140789 
20   0.140127 
 
>  <lowdin_charges> 
20 
1   -0.441114 
2   -0.437587 
3   -0.477698 
4   -0.115279 
5   -0.204583 
6   -0.116486 
7   0.15968 
8   -0.245619 
9   0.15272 
10   0.147119 
11   0.156794 
12   0.152661 
13   0.153867 
14   0.146636 
15   0.166437 
16   0.168015 
17   0.172854 
18   0.152605 
19   0.163686 
20   0.145293 
 
$$$$ 
 
