PCCDB-ID:  52383 
public computational chemistry database (PCCDB) project, http://pccdb.org 
 
 25 25  0  0  0  0  0  0  0  0999 V2000 
    0.8484    1.3081   -0.4396 C   0  0  0  0  0  0  0  0  0  0  0  0 
    1.5149    0.0115    0.0470 C   0  0  0  0  0  0  0  0  0  0  0  0 
   -0.5793    1.4474    0.1106 C   0  0  0  0  0  0  0  0  0  0  0  0 
    0.6634   -1.2210   -0.2903 C   0  0  0  0  0  0  0  0  0  0  0  0 
   -1.4366    0.2188   -0.2255 C   0  0  0  0  0  0  0  0  0  0  0  0 
   -0.8049   -1.2024    1.7277 C   0  0  0  0  0  0  0  0  0  0  0  0 
   -0.8213   -1.2805    2.9337 C   0  0  0  0  0  0  0  0  0  0  0  0 
   -1.1941   -2.7410    4.8596 C   0  0  0  0  0  0  0  0  0  0  0  0 
    0.4554   -0.9600    4.9909 C   0  0  0  0  0  0  0  0  0  0  0  0 
   -0.7821   -1.1018    0.2636 C   0  0  0  0  0  0  0  0  0  0  0  0 
   -0.8394   -1.3766    4.4002 C   0  0  0  0  0  0  0  0  0  0  0  0 
   -1.4899   -3.8070    5.2055 N   0  0  0  0  0  0  0  0  0  0  0  0 
    1.4662   -0.6134    5.4398 N   0  0  0  0  0  0  0  0  0  0  0  0 
    0.8143    1.3077   -1.5395 H   0  0  0  0  0  0  0  0  0  0  0  0 
    1.4519    2.1760   -0.1467 H   0  0  0  0  0  0  0  0  0  0  0  0 
    1.6624    0.0625    1.1344 H   0  0  0  0  0  0  0  0  0  0  0  0 
    2.5107   -0.0966   -0.3997 H   0  0  0  0  0  0  0  0  0  0  0  0 
   -1.0575    2.3500   -0.2895 H   0  0  0  0  0  0  0  0  0  0  0  0 
   -0.5395    1.5709    1.2018 H   0  0  0  0  0  0  0  0  0  0  0  0 
    1.1337   -2.1345    0.0904 H   0  0  0  0  0  0  0  0  0  0  0  0 
    0.5879   -1.3288   -1.3811 H   0  0  0  0  0  0  0  0  0  0  0  0 
   -1.5571    0.1405   -1.3147 H   0  0  0  0  0  0  0  0  0  0  0  0 
   -2.4410    0.3160    0.2020 H   0  0  0  0  0  0  0  0  0  0  0  0 
   -1.3718   -1.9437   -0.1257 H   0  0  0  0  0  0  0  0  0  0  0  0 
   -1.6065   -0.6968    4.8050 H   0  0  0  0  0  0  0  0  0  0  0  0 
  1 15  1  0  0  0  0 
  1  2  1  0  0  0  0 
  1  3  1  0  0  0  0 
  2 16  1  0  0  0  0 
  3 19  1  0  0  0  0 
  4  2  1  0  0  0  0 
  4 20  1  0  0  0  0 
  4 10  1  0  0  0  0 
  5  3  1  0  0  0  0 
  5 23  1  0  0  0  0 
  5 10  1  0  0  0  0 
  6  7  3  0  0  0  0 
  7 11  1  0  0  0  0 
  8 12  3  0  0  0  0 
  9 13  3  0  0  0  0 
 10  6  1  0  0  0  0 
 11 25  1  0  0  0  0 
 11  8  1  0  0  0  0 
 11  9  1  0  0  0  0 
 14  1  1  0  0  0  0 
 17  2  1  0  0  0  0 
 18  3  1  0  0  0  0 
 21  4  1  0  0  0  0 
 22  5  1  0  0  0  0 
 24 10  1  0  0  0  0 
M  END 
>  <HBA> 
2 
 
>  <HBD> 
0 
 
>  <TPSA> 
47.58 
 
>  <cid> 
52383 
 
>  <dipole> 
4.98 
 
>  <excitation_energy_1> 
6.123 
 
>  <excitation_energy_2> 
6.282 
 
>  <excitation_energy_3> 
6.299 
 
>  <excitation_energy_4> 
6.461 
 
>  <homo_energy> 
-7.753 
 
>  <homo_lumo_gap> 
7.418 
 
>  <logP> 
2.233 
 
>  <lumo_energy> 
-0.335 
 
>  <melting_point> 
77.85 
 
>  <molecular_refractivity> 
50.54 
 
>  <oscillator_strength_1> 
0.0004 
 
>  <oscillator_strength_2> 
0.0011 
 
>  <oscillator_strength_3> 
0.0058 
 
>  <oscillator_strength_4> 
0.0028 
 
>  <open_babel_can_smiles> 
N#CC(C#CC1CCCCC1)C#N 
 
>  <mulliken_charges> 
25 
1   -0.258513 
2   -0.265116 
3   -0.262585 
4   -0.262232 
5   -0.261633 
6   0.135807 
7   0.023508 
8   0.390877 
9   0.390703 
10   -0.243836 
11   -0.35543 
12   -0.43591 
13   -0.436916 
14   0.129279 
15   0.138662 
16   0.1487 
17   0.140095 
18   0.138314 
19   0.140671 
20   0.150598 
21   0.139841 
22   0.140733 
23   0.144824 
24   0.16798 
25   0.261579 
 
>  <lowdin_charges> 
25 
1   -0.276466 
2   -0.27784 
3   -0.278827 
4   -0.268227 
5   -0.267514 
6   -0.009247 
7   -0.109474 
8   -0.002351 
9   -0.001931 
10   -0.119795 
11   -0.080638 
12   -0.081571 
13   -0.082486 
14   0.135772 
15   0.148649 
16   0.146526 
17   0.148809 
18   0.148696 
19   0.142705 
20   0.154305 
21   0.143616 
22   0.144105 
23   0.15027 
24   0.170535 
25   0.222381 
 
$$$$ 
 
