PCCDB-ID:  14580 
public computational chemistry database (PCCDB) project, http://pccdb.org 
 
 29 30  0  0  0  0  0  0  0  0999 V2000 
   -1.8437   -0.8948    1.1949 C   0  0  0  0  0  0  0  0  0  0  0  0 
   -1.9818   -1.3995   -0.0978 C   0  0  0  0  0  0  0  0  0  0  0  0 
   -1.1562    0.3063    1.3812 C   0  0  0  0  0  0  0  0  0  0  0  0 
   -1.4477   -0.7064   -1.1818 C   0  0  0  0  0  0  0  0  0  0  0  0 
   -1.8415    3.8268    0.1480 C   0  0  0  0  0  0  0  0  0  0  0  0 
    0.2965    4.5391   -0.6640 C   0  0  0  0  0  0  0  0  0  0  0  0 
   -2.4165    5.0047   -0.3175 C   0  0  0  0  0  0  0  0  0  0  0  0 
   -0.2673    5.7228   -1.1377 C   0  0  0  0  0  0  0  0  0  0  0  0 
    0.1695    2.3004    0.5484 C   0  0  0  0  0  0  0  0  0  0  0  0 
   -0.4721    3.5672   -0.0098 C   0  0  0  0  0  0  0  0  0  0  0  0 
   -0.6050    1.0183    0.3127 C   0  0  0  0  0  0  0  0  0  0  0  0 
   -1.6372    5.9765   -0.9693 C   0  0  0  0  0  0  0  0  0  0  0  0 
   -0.7588    0.5026   -0.9969 C   0  0  0  0  0  0  0  0  0  0  0  0 
   -2.2250    7.1333   -1.4941 N   0  0  0  0  0  0  0  0  0  0  0  0 
   -0.1686    1.1585   -2.0846 N   0  0  0  0  0  0  0  0  0  0  0  0 
   -2.2603   -1.4264    2.0455 H   0  0  0  0  0  0  0  0  0  0  0  0 
   -2.5113   -2.3334   -0.2687 H   0  0  0  0  0  0  0  0  0  0  0  0 
   -1.0339    0.7048    2.3866 H   0  0  0  0  0  0  0  0  0  0  0  0 
   -1.5585   -1.1024   -2.1897 H   0  0  0  0  0  0  0  0  0  0  0  0 
   -2.4685    3.0894    0.6429 H   0  0  0  0  0  0  0  0  0  0  0  0 
    1.3631    4.3717   -0.8018 H   0  0  0  0  0  0  0  0  0  0  0  0 
   -3.4828    5.1763   -0.1841 H   0  0  0  0  0  0  0  0  0  0  0  0 
    0.3561    6.4538   -1.6484 H   0  0  0  0  0  0  0  0  0  0  0  0 
    0.3180    2.4178    1.6306 H   0  0  0  0  0  0  0  0  0  0  0  0 
    1.1745    2.2026    0.1143 H   0  0  0  0  0  0  0  0  0  0  0  0 
   -3.0846    7.4136   -1.0374 H   0  0  0  0  0  0  0  0  0  0  0  0 
   -1.5939    7.9190   -1.5957 H   0  0  0  0  0  0  0  0  0  0  0  0 
   -0.5299    0.8621   -2.9839 H   0  0  0  0  0  0  0  0  0  0  0  0 
   -0.1713    2.1706   -2.0130 H   0  0  0  0  0  0  0  0  0  0  0  0 
  1  3  1  0  0  0  0 
  1 16  1  0  0  0  0 
  2  1  2  0  0  0  0 
  3 18  1  0  0  0  0 
  4 13  2  0  0  0  0 
  4  2  1  0  0  0  0 
  5 20  1  0  0  0  0 
  6 10  2  0  0  0  0 
  7 22  1  0  0  0  0 
  7  5  2  0  0  0  0 
  8 12  2  0  0  0  0 
  8  6  1  0  0  0  0 
  9 24  1  0  0  0  0 
 10  5  1  0  0  0  0 
 10  9  1  0  0  0  0 
 11  9  1  0  0  0  0 
 11  3  2  0  0  0  0 
 12  7  1  0  0  0  0 
 13 11  1  0  0  0  0 
 14 26  1  0  0  0  0 
 14 12  1  0  0  0  0 
 15 29  1  0  0  0  0 
 15 13  1  0  0  0  0 
 17  2  1  0  0  0  0 
 19  4  1  0  0  0  0 
 21  6  1  0  0  0  0 
 23  8  1  0  0  0  0 
 25  9  1  0  0  0  0 
 27 14  1  0  0  0  0 
 28 15  1  0  0  0  0 
M  END 
>  <HBA> 
2 
 
>  <HBD> 
2 
 
>  <TPSA> 
52.04 
 
>  <cid> 
14580 
 
>  <dipole> 
3.1 
 
>  <excitation_energy_1> 
4.449 
 
>  <excitation_energy_2> 
4.58 
 
>  <excitation_energy_3> 
4.658 
 
>  <excitation_energy_4> 
4.706 
 
>  <homo_energy> 
-5.216 
 
>  <homo_lumo_gap> 
5.236 
 
>  <logP> 
3.604 
 
>  <lumo_energy> 
0.019 
 
>  <melting_point> 
137.86 
 
>  <molecular_refractivity> 
64.7 
 
>  <oscillator_strength_1> 
0.031 
 
>  <oscillator_strength_2> 
0.0195 
 
>  <oscillator_strength_3> 
0.0398 
 
>  <oscillator_strength_4> 
0.0032 
 
>  <open_babel_can_smiles> 
Nc1ccc(cc1)Cc1ccccc1N 
 
>  <mulliken_charges> 
29 
1   -0.133502 
2   -0.138302 
3   -0.212288 
4   -0.171419 
5   -0.183446 
6   -0.206991 
7   -0.172767 
8   -0.17014 
9   -0.43899 
10   0.141003 
11   0.15686 
12   0.306398 
13   0.248049 
14   -0.787094 
15   -0.79968 
16   0.117011 
17   0.121098 
18   0.116607 
19   0.111047 
20   0.137206 
21   0.125206 
22   0.117932 
23   0.116696 
24   0.155565 
25   0.157859 
26   0.319215 
27   0.31891 
28   0.314465 
29   0.333492 
 
>  <lowdin_charges> 
29 
1   -0.190592 
2   -0.150771 
3   -0.163261 
4   -0.201783 
5   -0.153832 
6   -0.163846 
7   -0.195691 
8   -0.203198 
9   -0.270645 
10   -0.040861 
11   -0.03934 
12   0.058099 
13   0.05467 
14   -0.491443 
15   -0.4913 
16   0.154269 
17   0.153981 
18   0.150494 
19   0.14879 
20   0.164348 
21   0.153496 
22   0.151154 
23   0.153881 
24   0.156548 
25   0.156682 
26   0.27523 
27   0.275299 
28   0.271614 
29   0.278009 
 
$$$$ 
 
