PCCDB-ID:  21263 
public computational chemistry database (PCCDB) project, http://pccdb.org 
 
 15 14  0  0  0  0  0  0  0  0999 V2000 
    0.5236    0.1597    0.0559 C   0  0  0  0  0  0  0  0  0  0  0  0 
    1.9821   -0.1652    0.2007 C   0  0  0  0  0  0  0  0  0  0  0  0 
    2.9382    0.7043    0.5529 C   0  0  0  0  0  0  0  0  0  0  0  0 
    4.3999    0.3661    0.6818 C   0  0  0  0  0  0  0  0  0  0  0  0 
    5.2834    0.9441   -0.4368 C   0  0  0  0  0  0  0  0  0  0  0  0 
    6.4366    1.2566   -0.2821 O   0  0  0  0  0  0  0  0  0  0  0  0 
    4.6872    1.0412   -1.6501 O   0  0  0  0  0  0  0  0  0  0  0  0 
    0.1608   -0.0796   -0.9523 H   0  0  0  0  0  0  0  0  0  0  0  0 
    0.3243    1.2186    0.2492 H   0  0  0  0  0  0  0  0  0  0  0  0 
   -0.0797   -0.4345    0.7548 H   0  0  0  0  0  0  0  0  0  0  0  0 
    2.2629   -1.2050    0.0189 H   0  0  0  0  0  0  0  0  0  0  0  0 
    2.6648    1.7431    0.7456 H   0  0  0  0  0  0  0  0  0  0  0  0 
    4.5392   -0.7236    0.6624 H   0  0  0  0  0  0  0  0  0  0  0  0 
    4.8210    0.7254    1.6256 H   0  0  0  0  0  0  0  0  0  0  0  0 
    3.7508    0.7816   -1.5562 H   0  0  0  0  0  0  0  0  0  0  0  0 
  1  2  1  0  0  0  0 
  1  9  1  0  0  0  0 
  1 10  1  0  0  0  0 
  2  3  2  0  0  0  0 
  3  4  1  0  0  0  0 
  3 12  1  0  0  0  0 
  4 14  1  0  0  0  0 
  5  6  2  0  0  0  0 
  5  4  1  0  0  0  0 
  7 15  1  0  0  0  0 
  7  5  1  0  0  0  0 
  8  1  1  0  0  0  0 
 11  2  1  0  0  0  0 
 13  4  1  0  0  0  0 
M  END 
>  <HBA> 
2 
 
>  <HBD> 
1 
 
>  <TPSA> 
37.3 
 
>  <cid> 
21263 
 
>  <dipole> 
5.07 
 
>  <excitation_energy_1> 
5.515 
 
>  <excitation_energy_2> 
6.221 
 
>  <excitation_energy_3> 
6.335 
 
>  <excitation_energy_4> 
6.78 
 
>  <homo_energy> 
-6.936 
 
>  <homo_lumo_gap> 
6.727 
 
>  <logP> 
1.037 
 
>  <lumo_energy> 
-0.21 
 
>  <melting_point> 
61.05 
 
>  <molecular_refractivity> 
27.45 
 
>  <oscillator_strength_1> 
0.0123 
 
>  <oscillator_strength_2> 
0.0469 
 
>  <oscillator_strength_3> 
0.0688 
 
>  <oscillator_strength_4> 
0.0224 
 
>  <open_babel_can_smiles> 
C/C=C/CC(=O)O 
 
>  <mulliken_charges> 
15 
1   -0.489855 
2   -0.090597 
3   -0.141205 
4   -0.411336 
5   0.586003 
6   -0.441426 
7   -0.563465 
8   0.164076 
9   0.161777 
10   0.168212 
11   0.136615 
12   0.144563 
13   0.183052 
14   0.18808 
15   0.405505 
 
>  <lowdin_charges> 
15 
1   -0.439689 
2   -0.154555 
3   -0.186947 
4   -0.311421 
5   0.186361 
6   -0.240271 
7   -0.355852 
8   0.161858 
9   0.158403 
10   0.166165 
11   0.151547 
12   0.156521 
13   0.173526 
14   0.180356 
15   0.353996 
 
$$$$ 
 
