PCCDB-ID:  6582 
public computational chemistry database (PCCDB) project, http://pccdb.org 
 
 12 11  0  0  0  0  0  0  0  0999 V2000 
    1.0095    0.0468    0.1494 C   0  0  0  0  0  0  0  0  0  0  0  0 
    2.4998   -1.8618   -1.5397 C   0  0  0  0  0  0  0  0  0  0  0  0 
    2.5130   -0.0965    0.0206 C   0  0  0  0  0  0  0  0  0  0  0  0 
    3.1825   -0.9000   -0.6897 N   0  0  0  0  0  0  0  0  0  0  0  0 
    3.2301    0.7794    0.7951 O   0  0  0  0  0  0  0  0  0  0  0  0 
    0.4760   -0.6600   -0.4878 H   0  0  0  0  0  0  0  0  0  0  0  0 
    0.6951    1.0607   -0.1295 H   0  0  0  0  0  0  0  0  0  0  0  0 
    0.6954   -0.1259    1.1868 H   0  0  0  0  0  0  0  0  0  0  0  0 
    3.2498   -2.4583   -2.0676 H   0  0  0  0  0  0  0  0  0  0  0  0 
    1.8671   -1.3832   -2.3020 H   0  0  0  0  0  0  0  0  0  0  0  0 
    1.8680   -2.5602   -0.9707 H   0  0  0  0  0  0  0  0  0  0  0  0 
    2.6153    1.3393    1.2931 H   0  0  0  0  0  0  0  0  0  0  0  0 
  1  8  1  0  0  0  0 
  2 11  1  0  0  0  0 
  2  4  1  0  0  0  0 
  3  1  1  0  0  0  0 
  3  5  1  0  0  0  0 
  4  3  2  0  0  0  0 
  5 12  1  0  0  0  0 
  6  1  1  0  0  0  0 
  7  1  1  0  0  0  0 
  9  2  1  0  0  0  0 
 10  2  1  0  0  0  0 
M  END 
>  <HBA> 
2 
 
>  <HBD> 
1 
 
>  <TPSA> 
29.1 
 
>  <cid> 
6582 
 
>  <dipole> 
3.75 
 
>  <excitation_energy_1> 
5.596 
 
>  <excitation_energy_2> 
5.784 
 
>  <excitation_energy_3> 
5.874 
 
>  <excitation_energy_4> 
6.387 
 
>  <homo_energy> 
-6.512 
 
>  <homo_lumo_gap> 
7.138 
 
>  <logP> 
0.143 
 
>  <lumo_energy> 
0.626 
 
>  <melting_point> 
24.0 
 
>  <molecular_refractivity> 
19.54 
 
>  <oscillator_strength_1> 
0.0001 
 
>  <oscillator_strength_2> 
0.0048 
 
>  <oscillator_strength_3> 
0.0054 
 
>  <oscillator_strength_4> 
0.0155 
 
>  <open_babel_can_smiles> 
C/N=C(/O)\C 
 
>  <mulliken_charges> 
12 
1   -0.563279 
2   -0.326227 
3   0.494994 
4   -0.398439 
5   -0.579084 
6   0.180459 
7   0.172787 
8   0.173459 
9   0.162587 
10   0.140473 
11   0.140443 
12   0.401828 
 
>  <lowdin_charges> 
12 
1   -0.485385 
2   -0.363554 
3   0.127342 
4   -0.209521 
5   -0.37326 
6   0.175252 
7   0.167516 
8   0.167561 
9   0.157424 
10   0.141391 
11   0.141627 
12   0.353608 
 
$$$$ 
 
