PCCDB-ID:  30411 
public computational chemistry database (PCCDB) project, http://pccdb.org 
 
 22 22  0  0  0  0  0  0  0  0999 V2000 
    3.7239    0.3785   -1.7340 C   0  0  0  0  0  0  0  0  0  0  0  0 
    2.5585   -1.5654   -0.7309 C   0  0  0  0  0  0  0  0  0  0  0  0 
    5.1452    2.8395    2.7168 C   0  0  0  0  0  0  0  0  0  0  0  0 
    4.1653    1.3120    1.0061 C   0  0  0  0  0  0  0  0  0  0  0  0 
    5.2485    3.1826    4.0555 C   0  0  0  0  0  0  0  0  0  0  0  0 
    3.3916    0.2408    0.6792 C   0  0  0  0  0  0  0  0  0  0  0  0 
    3.8567    1.4970    4.6112 C   0  0  0  0  0  0  0  0  0  0  0  0 
    4.3240    1.7431    2.3808 C   0  0  0  0  0  0  0  0  0  0  0  0 
    4.6094    2.5206    5.0342 N   0  0  0  0  0  0  0  0  0  0  0  0 
    3.6728    1.0721    3.3643 N   0  0  0  0  0  0  0  0  0  0  0  0 
    3.1096   -0.2297   -0.5680 N   0  0  0  0  0  0  0  0  0  0  0  0 
    3.2211    0.0187   -2.6357 H   0  0  0  0  0  0  0  0  0  0  0  0 
    4.7965    0.1421   -1.8127 H   0  0  0  0  0  0  0  0  0  0  0  0 
    3.6132    1.4666   -1.6881 H   0  0  0  0  0  0  0  0  0  0  0  0 
    1.8459   -1.5797   -1.5633 H   0  0  0  0  0  0  0  0  0  0  0  0 
    2.0303   -1.8550    0.1809 H   0  0  0  0  0  0  0  0  0  0  0  0 
    3.3378   -2.3169   -0.9317 H   0  0  0  0  0  0  0  0  0  0  0  0 
    5.6785    3.3947    1.9506 H   0  0  0  0  0  0  0  0  0  0  0  0 
    4.6992    1.8789    0.2500 H   0  0  0  0  0  0  0  0  0  0  0  0 
    5.8691    4.0222    4.3674 H   0  0  0  0  0  0  0  0  0  0  0  0 
    2.9144   -0.3015    1.4911 H   0  0  0  0  0  0  0  0  0  0  0  0 
    3.3271    0.9430    5.3861 H   0  0  0  0  0  0  0  0  0  0  0  0 
  1 14  1  0  0  0  0 
  1 11  1  0  0  0  0 
  2 11  1  0  0  0  0 
  2 16  1  0  0  0  0 
  3  5  2  0  0  0  0 
  4  8  1  0  0  0  0 
  5 20  1  0  0  0  0 
  5  9  1  0  0  0  0 
  6  4  2  0  0  0  0 
  6 21  1  0  0  0  0 
  7  9  2  0  0  0  0 
  7 22  1  0  0  0  0 
  8  3  1  0  0  0  0 
  8 10  2  0  0  0  0 
 10  7  1  0  0  0  0 
 11  6  1  0  0  0  0 
 12  1  1  0  0  0  0 
 13  1  1  0  0  0  0 
 15  2  1  0  0  0  0 
 17  2  1  0  0  0  0 
 18  3  1  0  0  0  0 
 19  4  1  0  0  0  0 
M  END 
>  <HBA> 
3 
 
>  <HBD> 
0 
 
>  <TPSA> 
29.02 
 
>  <cid> 
30411 
 
>  <dipole> 
5.49 
 
>  <excitation_energy_1> 
3.982 
 
>  <excitation_energy_2> 
4.235 
 
>  <excitation_energy_3> 
4.406 
 
>  <excitation_energy_4> 
4.655 
 
>  <homo_energy> 
-5.265 
 
>  <homo_lumo_gap> 
4.408 
 
>  <logP> 
1.009 
 
>  <lumo_energy> 
-0.857 
 
>  <melting_point> 
59.16 
 
>  <molecular_refractivity> 
44.63 
 
>  <oscillator_strength_1> 
0.3858 
 
>  <oscillator_strength_2> 
0.0048 
 
>  <oscillator_strength_3> 
0.2943 
 
>  <oscillator_strength_4> 
0.0338 
 
>  <open_babel_can_smiles> 
CN(/C=C/c1ccncn1)C 
 
>  <mulliken_charges> 
22 
1   -0.311588 
2   -0.312378 
3   -0.187731 
4   -0.254852 
5   0.045559 
6   0.092378 
7   0.167004 
8   0.342285 
9   -0.407217 
10   -0.486651 
11   -0.368923 
12   0.160049 
13   0.159138 
14   0.17417 
15   0.160444 
16   0.173888 
17   0.158106 
18   0.127984 
19   0.11451 
20   0.139282 
21   0.174949 
22   0.139596 
 
>  <lowdin_charges> 
22 
1   -0.34889 
2   -0.346839 
3   -0.217616 
4   -0.279845 
5   -0.067786 
6   -0.063599 
7   -0.04274 
8   0.086211 
9   -0.187622 
10   -0.19187 
11   -0.081521 
12   0.160162 
13   0.14686 
14   0.161615 
15   0.154332 
16   0.166285 
17   0.14703 
18   0.162274 
19   0.154722 
20   0.156064 
21   0.178085 
22   0.154686 
 
$$$$ 
 
