PCCDB-ID:  61217 
public computational chemistry database (PCCDB) project, http://pccdb.org 
 
 13 12  0  0  1  0  0  0  0  0999 V2000 
    0.9767    0.1467    0.0242 C   0  0  0  0  0  0  0  0  0  0  0  0 
    3.0187   -0.2540   -1.4202 C   0  0  0  0  0  0  0  0  0  0  0  0 
    2.5076    0.1782   -0.0377 C   0  0  1  0  0  0  0  0  0  0  0  0 
    4.8203   -0.5904   -1.5342 S   0  0  0  0  0  0  0  0  0  0  0  0 
    3.1751    1.8277    0.4851 S   0  0  0  0  0  0  0  0  0  0  0  0 
    0.6073   -0.8629   -0.1958 H   0  0  0  0  0  0  0  0  0  0  0  0 
    0.5356    0.8316   -0.7103 H   0  0  0  0  0  0  0  0  0  0  0  0 
    0.6187    0.4367    1.0158 H   0  0  0  0  0  0  0  0  0  0  0  0 
    2.7270    0.4767   -2.1823 H   0  0  0  0  0  0  0  0  0  0  0  0 
    2.5487   -1.2072   -1.6896 H   0  0  0  0  0  0  0  0  0  0  0  0 
    2.9194   -0.5023    0.7152 H   0  0  0  0  0  0  0  0  0  0  0  0 
    5.2188    0.6391   -1.1400 H   0  0  0  0  0  0  0  0  0  0  0  0 
    2.4614    2.5598   -0.4004 H   0  0  0  0  0  0  0  0  0  0  0  0 
  1  8  1  0  0  0  0 
  2  3  1  0  0  0  0 
  3  1  1  0  0  0  0 
  3  5  1  0  0  0  0 
  3 11  1  1  0  0  0 
  4  2  1  0  0  0  0 
  4 12  1  0  0  0  0 
  6  1  1  0  0  0  0 
  7  1  1  0  0  0  0 
  9  2  1  0  0  0  0 
 10  2  1  0  0  0  0 
 13  5  1  0  0  0  0 
M  END 
>  <HBA> 
2 
 
>  <HBD> 
2 
 
>  <TPSA> 
77.6 
 
>  <cid> 
61217 
 
>  <dipole> 
2.43 
 
>  <excitation_energy_1> 
5.282 
 
>  <excitation_energy_2> 
5.411 
 
>  <excitation_energy_3> 
5.892 
 
>  <excitation_energy_4> 
5.965 
 
>  <homo_energy> 
-6.46 
 
>  <homo_lumo_gap> 
6.844 
 
>  <logP> 
1.234 
 
>  <lumo_energy> 
0.384 
 
>  <melting_point> 
15.95 
 
>  <molecular_refractivity> 
32.39 
 
>  <oscillator_strength_1> 
0.0013 
 
>  <oscillator_strength_2> 
0.0208 
 
>  <oscillator_strength_3> 
0.022 
 
>  <oscillator_strength_4> 
0.0532 
 
>  <open_babel_can_smiles> 
SC[C@@H](S)C 
 
>  <mulliken_charges> 
13 
1   -0.441732 
2   -0.396413 
3   -0.234324 
4   -0.086152 
5   -0.081726 
6   0.154876 
7   0.150119 
8   0.175117 
9   0.176147 
10   0.18064 
11   0.192751 
12   0.118577 
13   0.092122 
 
>  <lowdin_charges> 
13 
1   -0.446646 
2   -0.379763 
3   -0.219893 
4   -0.087447 
5   -0.086275 
6   0.154546 
7   0.153096 
8   0.166637 
9   0.160674 
10   0.170473 
11   0.173765 
12   0.127833 
13   0.113 
 
$$$$ 
 
