PCCDB-ID:  42751 
public computational chemistry database (PCCDB) project, http://pccdb.org 
 
 35 34  0  0  0  0  0  0  0  0999 V2000 
    1.4997   -1.8737    1.1646 C   0  0  0  0  0  0  0  0  0  0  0  0 
    4.8606    1.9740   -3.8674 C   0  0  0  0  0  0  0  0  0  0  0  0 
    5.9915   -2.3109   -1.7108 C   0  0  0  0  0  0  0  0  0  0  0  0 
    7.7267   -0.5110   -1.3980 C   0  0  0  0  0  0  0  0  0  0  0  0 
    6.1621    0.6915    0.8736 C   0  0  0  0  0  0  0  0  0  0  0  0 
    2.5007   -1.1105    2.0180 C   0  0  0  0  0  0  0  0  0  0  0  0 
    4.3285    2.2893   -2.4779 C   0  0  0  0  0  0  0  0  0  0  0  0 
    6.5786   -1.2837   -0.7276 C   0  0  0  0  0  0  0  0  0  0  0  0 
    4.5522   -1.1813    0.8022 C   0  0  0  0  0  0  0  0  0  0  0  0 
    4.6554    0.3262   -1.1677 C   0  0  0  0  0  0  0  0  0  0  0  0 
    5.5028   -0.3400   -0.0746 C   0  0  0  0  0  0  0  0  0  0  0  0 
    4.7581   -2.3185    1.1667 O   0  0  0  0  0  0  0  0  0  0  0  0 
    3.7431   -0.2273   -1.7454 O   0  0  0  0  0  0  0  0  0  0  0  0 
    3.4893   -0.4476    1.1914 O   0  0  0  0  0  0  0  0  0  0  0  0 
    5.0655    1.5819   -1.4491 O   0  0  0  0  0  0  0  0  0  0  0  0 
    0.7143   -2.2964    1.8019 H   0  0  0  0  0  0  0  0  0  0  0  0 
    1.9922   -2.6935    0.6346 H   0  0  0  0  0  0  0  0  0  0  0  0 
    1.0338   -1.2112    0.4288 H   0  0  0  0  0  0  0  0  0  0  0  0 
    4.3322    2.5809   -4.6118 H   0  0  0  0  0  0  0  0  0  0  0  0 
    4.7032    0.9198   -4.1111 H   0  0  0  0  0  0  0  0  0  0  0  0 
    5.9296    2.2007   -3.9377 H   0  0  0  0  0  0  0  0  0  0  0  0 
    6.7705   -3.0316   -1.9852 H   0  0  0  0  0  0  0  0  0  0  0  0 
    5.6359   -1.8375   -2.6318 H   0  0  0  0  0  0  0  0  0  0  0  0 
    5.1605   -2.8648   -1.2702 H   0  0  0  0  0  0  0  0  0  0  0  0 
    8.4316   -1.2207   -1.8453 H   0  0  0  0  0  0  0  0  0  0  0  0 
    8.2889    0.1061   -0.6911 H   0  0  0  0  0  0  0  0  0  0  0  0 
    7.3639    0.1423   -2.2003 H   0  0  0  0  0  0  0  0  0  0  0  0 
    6.7746    0.1695    1.6174 H   0  0  0  0  0  0  0  0  0  0  0  0 
    5.4008    1.2729    1.3995 H   0  0  0  0  0  0  0  0  0  0  0  0 
    6.7964    1.3856    0.3221 H   0  0  0  0  0  0  0  0  0  0  0  0 
    3.0154   -1.7709    2.7201 H   0  0  0  0  0  0  0  0  0  0  0  0 
    2.0231   -0.2963    2.5686 H   0  0  0  0  0  0  0  0  0  0  0  0 
    3.2712    2.0286   -2.3901 H   0  0  0  0  0  0  0  0  0  0  0  0 
    4.4661    3.3439   -2.2265 H   0  0  0  0  0  0  0  0  0  0  0  0 
    6.9914   -1.8443    0.1198 H   0  0  0  0  0  0  0  0  0  0  0  0 
  1 16  1  0  0  0  0 
  1  6  1  0  0  0  0 
  2  7  1  0  0  0  0 
  3 24  1  0  0  0  0 
  3  8  1  0  0  0  0 
  4  8  1  0  0  0  0 
  4 26  1  0  0  0  0 
  5 29  1  0  0  0  0 
  5 28  1  0  0  0  0 
  6 32  1  0  0  0  0 
  6 31  1  0  0  0  0 
  7 33  1  0  0  0  0 
  7 34  1  0  0  0  0 
  7 15  1  0  0  0  0 
  8 11  1  0  0  0  0 
  8 35  1  0  0  0  0 
  9 12  2  0  0  0  0 
  9 14  1  0  0  0  0 
 10 11  1  0  0  0  0 
 11  9  1  0  0  0  0 
 11  5  1  0  0  0  0 
 13 10  2  0  0  0  0 
 14  6  1  0  0  0  0 
 15 10  1  0  0  0  0 
 17  1  1  0  0  0  0 
 18  1  1  0  0  0  0 
 19  2  1  0  0  0  0 
 20  2  1  0  0  0  0 
 21  2  1  0  0  0  0 
 22  3  1  0  0  0  0 
 23  3  1  0  0  0  0 
 25  4  1  0  0  0  0 
 27  4  1  0  0  0  0 
 30  5  1  0  0  0  0 
M  END 
>  <HBA> 
4 
 
>  <HBD> 
0 
 
>  <TPSA> 
52.6 
 
>  <cid> 
42751 
 
>  <dipole> 
2.55 
 
>  <excitation_energy_1> 
5.65 
 
>  <excitation_energy_2> 
5.73 
 
>  <excitation_energy_3> 
6.519 
 
>  <excitation_energy_4> 
6.596 
 
>  <homo_energy> 
-7.26 
 
>  <homo_lumo_gap> 
7.41 
 
>  <logP> 
1.775 
 
>  <lumo_energy> 
0.15 
 
>  <melting_point> 
13.69 
 
>  <molecular_refractivity> 
57.3 
 
>  <oscillator_strength_1> 
0.0022 
 
>  <oscillator_strength_2> 
0.0023 
 
>  <oscillator_strength_3> 
0.001 
 
>  <oscillator_strength_4> 
0.0233 
 
>  <open_babel_can_smiles> 
CCOC(=O)C(C(=O)OCC)(C(C)C)C 
 
>  <mulliken_charges> 
35 
1   -0.458663 
2   -0.46501 
3   -0.453841 
4   -0.459949 
5   -0.469147 
6   -0.049219 
7   -0.0461 
8   -0.07744 
9   0.671866 
10   0.666201 
11   -0.1032 
12   -0.492157 
13   -0.495243 
14   -0.46896 
15   -0.471218 
16   0.146644 
17   0.178681 
18   0.166911 
19   0.151902 
20   0.178828 
21   0.158464 
22   0.136015 
23   0.147275 
24   0.171176 
25   0.146643 
26   0.14609 
27   0.14744 
28   0.15358 
29   0.166289 
30   0.175315 
31   0.170157 
32   0.151639 
33   0.173055 
34   0.153855 
35   0.152122 
 
>  <lowdin_charges> 
35 
1   -0.456383 
2   -0.454281 
3   -0.451847 
4   -0.452953 
5   -0.444392 
6   -0.130024 
7   -0.124155 
8   -0.11461 
9   0.205743 
10   0.202345 
11   -0.036826 
12   -0.259919 
13   -0.266985 
14   -0.185245 
15   -0.185907 
16   0.158114 
17   0.168083 
18   0.162692 
19   0.161171 
20   0.164841 
21   0.154434 
22   0.149205 
23   0.14939 
24   0.164671 
25   0.154631 
26   0.151649 
27   0.149461 
28   0.157315 
29   0.1633 
30   0.167363 
31   0.159777 
32   0.153357 
33   0.158678 
34   0.151311 
35   0.155996 
 
$$$$ 
 
