PCCDB-ID:  66908 
public computational chemistry database (PCCDB) project, http://pccdb.org 
 
 33 33  0  0  0  0  0  0  0  0999 V2000 
    1.0842   -0.0156    0.1650 C   0  0  0  0  0  0  0  0  0  0  0  0 
    3.0720   -1.3231   -0.1069 C   0  0  0  0  0  0  0  0  0  0  0  0 
    6.6734    5.6172   -3.7859 C   0  0  0  0  0  0  0  0  0  0  0  0 
    2.9929    0.9634   -0.9355 C   0  0  0  0  0  0  0  0  0  0  0  0 
    6.6783    3.2808   -3.1671 C   0  0  0  0  0  0  0  0  0  0  0  0 
    4.8608    4.6861   -2.4870 C   0  0  0  0  0  0  0  0  0  0  0  0 
    4.4802    1.3206   -0.8001 C   0  0  0  0  0  0  0  0  0  0  0  0 
    6.3242    2.2908   -2.0589 C   0  0  0  0  0  0  0  0  0  0  0  0 
    4.5082    3.6915   -1.3823 C   0  0  0  0  0  0  0  0  0  0  0  0 
    2.5388    0.0199    0.0870 N   0  0  0  0  0  0  0  0  0  0  0  0 
    6.2894    4.6356   -2.7852 N   0  0  0  0  0  0  0  0  0  0  0  0 
    4.8897    2.3337   -1.7740 N   0  0  0  0  0  0  0  0  0  0  0  0 
    0.7754   -0.6817    0.9784 H   0  0  0  0  0  0  0  0  0  0  0  0 
    0.6019   -0.3721   -0.7674 H   0  0  0  0  0  0  0  0  0  0  0  0 
    0.6991    0.9864    0.3834 H   0  0  0  0  0  0  0  0  0  0  0  0 
    2.7204   -1.9740    0.7009 H   0  0  0  0  0  0  0  0  0  0  0  0 
    4.1651   -1.3147   -0.0701 H   0  0  0  0  0  0  0  0  0  0  0  0 
    2.7641   -1.7769   -1.0707 H   0  0  0  0  0  0  0  0  0  0  0  0 
    7.7578    5.5821   -3.9403 H   0  0  0  0  0  0  0  0  0  0  0  0 
    6.4120    6.6225   -3.4366 H   0  0  0  0  0  0  0  0  0  0  0  0 
    6.1832    5.4583   -4.7673 H   0  0  0  0  0  0  0  0  0  0  0  0 
    2.8067    0.5932   -1.9628 H   0  0  0  0  0  0  0  0  0  0  0  0 
    2.3955    1.8747   -0.8196 H   0  0  0  0  0  0  0  0  0  0  0  0 
    6.1823    2.9622   -4.1062 H   0  0  0  0  0  0  0  0  0  0  0  0 
    7.7614    3.2624   -3.3400 H   0  0  0  0  0  0  0  0  0  0  0  0 
    4.6068    5.7014   -2.1585 H   0  0  0  0  0  0  0  0  0  0  0  0 
    4.2471    4.4602   -3.3825 H   0  0  0  0  0  0  0  0  0  0  0  0 
    5.0867    0.4277   -0.9860 H   0  0  0  0  0  0  0  0  0  0  0  0 
    4.6829    1.6314    0.2419 H   0  0  0  0  0  0  0  0  0  0  0  0 
    6.9307    2.5264   -1.1622 H   0  0  0  0  0  0  0  0  0  0  0  0 
    6.5879    1.2772   -2.3830 H   0  0  0  0  0  0  0  0  0  0  0  0 
    3.4287    3.7292   -1.2034 H   0  0  0  0  0  0  0  0  0  0  0  0 
    5.0136    3.9968   -0.4447 H   0  0  0  0  0  0  0  0  0  0  0  0 
  1 15  1  0  0  0  0 
  1 13  1  0  0  0  0 
  2 17  1  0  0  0  0 
  2 10  1  0  0  0  0 
  2 16  1  0  0  0  0 
  3 20  1  0  0  0  0 
  3 11  1  0  0  0  0 
  4 23  1  0  0  0  0 
  4  7  1  0  0  0  0 
  4 10  1  0  0  0  0 
  5 11  1  0  0  0  0 
  5  8  1  0  0  0  0 
  6 26  1  0  0  0  0 
  6  9  1  0  0  0  0 
  7 29  1  0  0  0  0 
  8 12  1  0  0  0  0 
  8 30  1  0  0  0  0 
  9 32  1  0  0  0  0 
  9 33  1  0  0  0  0 
 10  1  1  0  0  0  0 
 11  6  1  0  0  0  0 
 12  9  1  0  0  0  0 
 12  7  1  0  0  0  0 
 14  1  1  0  0  0  0 
 18  2  1  0  0  0  0 
 19  3  1  0  0  0  0 
 21  3  1  0  0  0  0 
 22  4  1  0  0  0  0 
 24  5  1  0  0  0  0 
 25  5  1  0  0  0  0 
 27  6  1  0  0  0  0 
 28  7  1  0  0  0  0 
 31  8  1  0  0  0  0 
M  END 
>  <HBA> 
3 
 
>  <HBD> 
0 
 
>  <TPSA> 
9.72 
 
>  <cid> 
66908 
 
>  <dipole> 
0.56 
 
>  <excitation_energy_1> 
5.315 
 
>  <excitation_energy_2> 
5.416 
 
>  <excitation_energy_3> 
5.464 
 
>  <excitation_energy_4> 
5.612 
 
>  <homo_energy> 
-5.652 
 
>  <homo_lumo_gap> 
7.97 
 
>  <logP> 
-0.329 
 
>  <lumo_energy> 
2.318 
 
>  <melting_point> 
1.93 
 
>  <molecular_refractivity> 
59.78 
 
>  <oscillator_strength_1> 
0.0182 
 
>  <oscillator_strength_2> 
0.0198 
 
>  <oscillator_strength_3> 
0.0002 
 
>  <oscillator_strength_4> 
0.0077 
 
>  <open_babel_can_smiles> 
CN(CCN1CCN(CC1)C)C 
 
>  <mulliken_charges> 
33 
1   -0.292463 
2   -0.301174 
3   -0.289069 
4   -0.11491 
5   -0.119715 
6   -0.118088 
7   -0.116838 
8   -0.120967 
9   -0.128239 
10   -0.370752 
11   -0.383583 
12   -0.406198 
13   0.146187 
14   0.116868 
15   0.147683 
16   0.147918 
17   0.152383 
18   0.11689 
19   0.146672 
20   0.146672 
21   0.117496 
22   0.118575 
23   0.134322 
24   0.115624 
25   0.133875 
26   0.134136 
27   0.115411 
28   0.13246 
29   0.126409 
30   0.118866 
31   0.135132 
32   0.138318 
33   0.120098 
 
>  <lowdin_charges> 
33 
1   -0.355978 
2   -0.357385 
3   -0.351936 
4   -0.204122 
5   -0.201863 
6   -0.203155 
7   -0.203223 
8   -0.20276 
9   -0.202222 
10   -0.184389 
11   -0.18858 
12   -0.191644 
13   0.149328 
14   0.120071 
15   0.148083 
16   0.151243 
17   0.147526 
18   0.119779 
19   0.14715 
20   0.14832 
21   0.119894 
22   0.120661 
23   0.14308 
24   0.119935 
25   0.143586 
26   0.144848 
27   0.120427 
28   0.143443 
29   0.125972 
30   0.122453 
31   0.144758 
32   0.14447 
33   0.12223 
 
$$$$ 
 
