PCCDB-ID:  7269 
public computational chemistry database (PCCDB) project, http://pccdb.org 
 
 24 24  0  0  0  0  0  0  0  0999 V2000 
    1.0189    0.1070    0.1264 C   0  0  0  0  0  0  0  0  0  0  0  0 
    2.5238   -2.4483   -0.0401 C   0  0  0  0  0  0  0  0  0  0  0  0 
    5.3317    2.6777   -0.3430 C   0  0  0  0  0  0  0  0  0  0  0  0 
    6.8365    0.1224   -0.5101 C   0  0  0  0  0  0  0  0  0  0  0  0 
    3.2323    1.2952   -0.1145 C   0  0  0  0  0  0  0  0  0  0  0  0 
    4.6232   -1.0658   -0.2681 C   0  0  0  0  0  0  0  0  0  0  0  0 
    2.5207    0.0940   -0.0375 C   0  0  0  0  0  0  0  0  0  0  0  0 
    3.2341   -1.1172   -0.1166 C   0  0  0  0  0  0  0  0  0  0  0  0 
    4.6215    1.3466   -0.2662 C   0  0  0  0  0  0  0  0  0  0  0  0 
    5.3348    0.1354   -0.3452 C   0  0  0  0  0  0  0  0  0  0  0  0 
    0.6356    1.1312    0.1680 H   0  0  0  0  0  0  0  0  0  0  0  0 
    0.7043   -0.4035    1.0465 H   0  0  0  0  0  0  0  0  0  0  0  0 
    0.5132   -0.4042   -0.7035 H   0  0  0  0  0  0  0  0  0  0  0  0 
    3.2327   -3.2789   -0.1128 H   0  0  0  0  0  0  0  0  0  0  0  0 
    1.7896   -2.5662   -0.8483 H   0  0  0  0  0  0  0  0  0  0  0  0 
    1.9722   -2.5630    0.9025 H   0  0  0  0  0  0  0  0  0  0  0  0 
    4.6228    3.5082   -0.2700 H   0  0  0  0  0  0  0  0  0  0  0  0 
    5.8827    2.7923   -1.2859 H   0  0  0  0  0  0  0  0  0  0  0  0 
    6.0663    2.7956    0.4647 H   0  0  0  0  0  0  0  0  0  0  0  0 
    7.2198   -0.9019   -0.5522 H   0  0  0  0  0  0  0  0  0  0  0  0 
    7.3428    0.6333    0.3197 H   0  0  0  0  0  0  0  0  0  0  0  0 
    7.1505    0.6331   -1.4302 H   0  0  0  0  0  0  0  0  0  0  0  0 
    2.6803    2.2319   -0.0531 H   0  0  0  0  0  0  0  0  0  0  0  0 
    5.1753   -2.0025   -0.3288 H   0  0  0  0  0  0  0  0  0  0  0  0 
  1 11  1  0  0  0  0 
  1 12  1  0  0  0  0 
  2 16  1  0  0  0  0 
  3 17  1  0  0  0  0 
  3  9  1  0  0  0  0 
  3 19  1  0  0  0  0 
  4 10  1  0  0  0  0 
  4 21  1  0  0  0  0 
  5 23  1  0  0  0  0 
  5  7  1  0  0  0  0 
  6  8  1  0  0  0  0 
  7  1  1  0  0  0  0 
  8  2  1  0  0  0  0 
  8  7  2  0  0  0  0 
  9  5  2  0  0  0  0 
 10  6  2  0  0  0  0 
 10  9  1  0  0  0  0 
 13  1  1  0  0  0  0 
 14  2  1  0  0  0  0 
 15  2  1  0  0  0  0 
 18  3  1  0  0  0  0 
 20  4  1  0  0  0  0 
 22  4  1  0  0  0  0 
 24  6  1  0  0  0  0 
M  END 
>  <HBA> 
0 
 
>  <HBD> 
0 
 
>  <TPSA> 
0.0 
 
>  <cid> 
7269 
 
>  <dipole> 
0.0 
 
>  <excitation_energy_1> 
5.099 
 
>  <excitation_energy_2> 
5.596 
 
>  <excitation_energy_3> 
5.692 
 
>  <excitation_energy_4> 
5.822 
 
>  <homo_energy> 
-5.87 
 
>  <homo_lumo_gap> 
6.161 
 
>  <logP> 
2.92 
 
>  <lumo_energy> 
0.291 
 
>  <melting_point> 
21.67 
 
>  <molecular_refractivity> 
46.31 
 
>  <oscillator_strength_1> 
0.0054 
 
>  <oscillator_strength_2> 
0.0 
 
>  <oscillator_strength_3> 
0.0327 
 
>  <oscillator_strength_4> 
0.006 
 
>  <open_babel_can_smiles> 
Cc1cc(C)c(cc1C)C 
 
>  <mulliken_charges> 
24 
1   -0.534113 
2   -0.534047 
3   -0.53401 
4   -0.534194 
5   -0.253779 
6   -0.253852 
7   0.140069 
8   0.140505 
9   0.140413 
10   0.140195 
11   0.152807 
12   0.156501 
13   0.156551 
14   0.152745 
15   0.156544 
16   0.15647 
17   0.15274 
18   0.156469 
19   0.156538 
20   0.152813 
21   0.156543 
22   0.156518 
23   0.109782 
24   0.109791 
 
>  <lowdin_charges> 
24 
1   -0.441964 
2   -0.441987 
3   -0.441982 
4   -0.441971 
5   -0.178211 
6   -0.178213 
7   -0.012164 
8   -0.013283 
9   -0.013286 
10   -0.012159 
11   0.154912 
12   0.156816 
13   0.157518 
14   0.156196 
15   0.157107 
16   0.156529 
17   0.156195 
18   0.156527 
19   0.157105 
20   0.154913 
21   0.157511 
22   0.156826 
23   0.148533 
24   0.148533 
 
$$$$ 
 
