PCCDB-ID:  12699 
public computational chemistry database (PCCDB) project, http://pccdb.org 
 
 12 11  0  0  0  0  0  0  0  0999 V2000 
    1.0021   -0.1698   -0.1473 C   0  0  0  0  0  0  0  0  0  0  0  0 
    3.0834   -0.1056    1.3428 C   0  0  0  0  0  0  0  0  0  0  0  0 
    4.3064    0.0776    1.6140 N   0  0  0  0  0  0  0  0  0  0  0  0 
    3.2268    0.4759   -0.9170 N   0  0  0  0  0  0  0  0  0  0  0  0 
    2.4259    0.0633    0.0981 N   0  0  0  0  0  0  0  0  0  0  0  0 
    2.2046   -0.5146    2.2857 O   0  0  0  0  0  0  0  0  0  0  0  0 
    2.6451    0.6153   -1.9793 O   0  0  0  0  0  0  0  0  0  0  0  0 
    0.5385   -0.4936    0.7797 H   0  0  0  0  0  0  0  0  0  0  0  0 
    0.8888   -0.9331   -0.9223 H   0  0  0  0  0  0  0  0  0  0  0  0 
    0.5408    0.7540   -0.5074 H   0  0  0  0  0  0  0  0  0  0  0  0 
    4.8304    0.3836    0.7954 H   0  0  0  0  0  0  0  0  0  0  0  0 
    2.7364   -0.6048    3.0974 H   0  0  0  0  0  0  0  0  0  0  0  0 
  1  5  1  0  0  0  0 
  1  8  1  0  0  0  0 
  2  3  2  0  0  0  0 
  2  6  1  0  0  0  0 
  4  5  1  0  0  0  0 
  5  2  1  0  0  0  0 
  6 12  1  0  0  0  0 
  7  4  1  0  0  0  0 
  9  1  1  0  0  0  0 
 10  1  1  0  0  0  0 
 11  3  1  0  0  0  0 
M  RAD  2   4   2   7   2 
M  END 
>  <HBA> 
5 
 
>  <HBD> 
1 
 
>  <TPSA> 
75.76 
 
>  <cid> 
12699 
 
>  <dipole> 
2.67 
 
>  <excitation_energy_1> 
3.076 
 
>  <excitation_energy_2> 
4.751 
 
>  <excitation_energy_3> 
5.138 
 
>  <excitation_energy_4> 
6.129 
 
>  <homo_energy> 
-6.83 
 
>  <homo_lumo_gap> 
4.933 
 
>  <logP> 
0.379 
 
>  <lumo_energy> 
-1.897 
 
>  <melting_point> 
83.75 
 
>  <molecular_refractivity> 
22.66 
 
>  <oscillator_strength_1> 
0.0015 
 
>  <oscillator_strength_2> 
0.0687 
 
>  <oscillator_strength_3> 
0.0012 
 
>  <oscillator_strength_4> 
0.0877 
 
>  <open_babel_can_smiles> 
[O][N]N(C(=N)O)C 
 
>  <mulliken_charges> 
12 
1   -0.324864 
2   0.691539 
3   -0.63349 
4   0.172944 
5   -0.304459 
6   -0.60255 
7   -0.34211 
8   0.207451 
9   0.190262 
10   0.190252 
11   0.323229 
12   0.431798 
 
>  <lowdin_charges> 
12 
1   -0.367046 
2   0.159118 
3   -0.43209 
4   0.070236 
5   -0.039941 
6   -0.361001 
7   -0.218136 
8   0.187178 
9   0.17408 
10   0.173908 
11   0.277111 
12   0.376584 
 
$$$$ 
 
