PCCDB-ID:  7172 
public computational chemistry database (PCCDB) project, http://pccdb.org 
 
 25 25  0  0  1  0  0  0  0  0999 V2000 
    4.4104    2.0267   -0.9711 C   0  0  0  0  0  0  0  0  0  0  0  0 
    2.9910   -3.3394   -1.2220 C   0  0  0  0  0  0  0  0  0  0  0  0 
    4.3593   -2.8050    0.6806 C   0  0  0  0  0  0  0  0  0  0  0  0 
    2.6439   -4.5550   -0.6342 C   0  0  0  0  0  0  0  0  0  0  0  0 
    4.0168   -4.0119    1.2831 C   0  0  0  0  0  0  0  0  0  0  0  0 
    3.0925   -0.0494   -0.9272 C   0  0  0  0  0  0  0  0  0  0  0  0 
    3.8527   -2.4446   -0.5758 C   0  0  0  0  0  0  0  0  0  0  0  0 
    3.1536   -4.8936    0.6236 C   0  0  0  0  0  0  0  0  0  0  0  0 
    4.1886   -1.1049   -1.1992 C   0  0  1  0  0  0  0  0  0  0  0  0 
    3.3052    1.2576   -1.5319 N   0  0  0  0  0  0  0  0  0  0  0  0 
    2.8510   -6.0700    1.2534 O   0  0  0  0  0  0  0  0  0  0  0  0 
    4.2920   -1.1753   -2.6261 O   0  0  0  0  0  0  0  0  0  0  0  0 
    4.4702    2.9928   -1.4839 H   0  0  0  0  0  0  0  0  0  0  0  0 
    5.4052    1.5501   -1.0394 H   0  0  0  0  0  0  0  0  0  0  0  0 
    4.2097    2.2264    0.0887 H   0  0  0  0  0  0  0  0  0  0  0  0 
    2.5993   -3.0818   -2.2018 H   0  0  0  0  0  0  0  0  0  0  0  0 
    5.0372   -2.1292    1.1984 H   0  0  0  0  0  0  0  0  0  0  0  0 
    1.9763   -5.2413   -1.1531 H   0  0  0  0  0  0  0  0  0  0  0  0 
    4.4122   -4.2910    2.2547 H   0  0  0  0  0  0  0  0  0  0  0  0 
    2.9845    0.0746    0.1576 H   0  0  0  0  0  0  0  0  0  0  0  0 
    2.1443   -0.4537   -1.3041 H   0  0  0  0  0  0  0  0  0  0  0  0 
    5.1406   -0.7473   -0.7750 H   0  0  0  0  0  0  0  0  0  0  0  0 
    3.4539    1.1239   -2.5301 H   0  0  0  0  0  0  0  0  0  0  0  0 
    2.2428   -6.5780    0.6944 H   0  0  0  0  0  0  0  0  0  0  0  0 
    4.9504   -1.8554   -2.8383 H   0  0  0  0  0  0  0  0  0  0  0  0 
  1 15  1  0  0  0  0 
  2  4  2  0  0  0  0 
  2  7  1  0  0  0  0 
  3 17  1  0  0  0  0 
  3  5  1  0  0  0  0 
  4  8  1  0  0  0  0 
  5 19  1  0  0  0  0 
  6 20  1  0  0  0  0 
  7  3  2  0  0  0  0 
  8 11  1  0  0  0  0 
  8  5  2  0  0  0  0 
  9  6  1  0  0  0  0 
  9 22  1  1  0  0  0 
  9  7  1  0  0  0  0 
 10  1  1  0  0  0  0 
 10  6  1  0  0  0  0 
 12  9  1  0  0  0  0 
 13  1  1  0  0  0  0 
 14  1  1  0  0  0  0 
 16  2  1  0  0  0  0 
 18  4  1  0  0  0  0 
 21  6  1  0  0  0  0 
 23 10  1  0  0  0  0 
 24 11  1  0  0  0  0 
 25 12  1  0  0  0  0 
M  END 
>  <HBA> 
3 
 
>  <HBD> 
3 
 
>  <TPSA> 
52.49 
 
>  <cid> 
7172 
 
>  <dipole> 
2.04 
 
>  <excitation_energy_1> 
4.63 
 
>  <excitation_energy_2> 
4.932 
 
>  <excitation_energy_3> 
5.023 
 
>  <excitation_energy_4> 
5.119 
 
>  <homo_energy> 
-5.508 
 
>  <homo_lumo_gap> 
5.393 
 
>  <logP> 
1.036 
 
>  <lumo_energy> 
-0.114 
 
>  <melting_point> 
92.6 
 
>  <molecular_refractivity> 
47.01 
 
>  <oscillator_strength_1> 
0.0179 
 
>  <oscillator_strength_2> 
0.0695 
 
>  <oscillator_strength_3> 
0.0278 
 
>  <oscillator_strength_4> 
0.0775 
 
>  <open_babel_can_smiles> 
CNC[C@@H](c1ccc(cc1)O)O 
 
>  <mulliken_charges> 
25 
1   -0.305623 
2   -0.187927 
3   -0.190301 
4   -0.194314 
5   -0.159917 
6   -0.132871 
7   0.116621 
8   0.351198 
9   0.054721 
10   -0.531705 
11   -0.642485 
12   -0.637009 
13   0.148962 
14   0.122985 
15   0.146249 
16   0.143058 
17   0.126409 
18   0.119349 
19   0.140428 
20   0.138433 
21   0.145453 
22   0.117783 
23   0.310965 
24   0.407449 
25   0.392086 
 
>  <lowdin_charges> 
25 
1   -0.358663 
2   -0.153273 
3   -0.156156 
4   -0.21396 
5   -0.184603 
6   -0.210996 
7   -0.049018 
8   0.10252 
9   -0.017605 
10   -0.353943 
11   -0.380649 
12   -0.469959 
13   0.150508 
14   0.119735 
15   0.144147 
16   0.164314 
17   0.157604 
18   0.154461 
19   0.167268 
20   0.144917 
21   0.150121 
22   0.129208 
23   0.258908 
24   0.359301 
25   0.34581 
 
$$$$ 
 
