PCCDB-ID:  66131 
public computational chemistry database (PCCDB) project, http://pccdb.org 
 
 14 14  0  0  0  0  0  0  0  0999 V2000 
   -0.7217    1.2491   -0.0011 C   0  0  0  0  0  0  0  0  0  0  0  0 
   -1.3896    0.0567   -0.0192 C   0  0  0  0  0  0  0  0  0  0  0  0 
    0.7131    1.1400    0.0068 C   0  0  0  0  0  0  0  0  0  0  0  0 
    0.7340   -1.1770   -0.0160 C   0  0  0  0  0  0  0  0  0  0  0  0 
    1.3747   -2.2858   -0.0220 N   0  0  0  0  0  0  0  0  0  0  0  0 
   -0.7038   -1.1095   -0.0267 N   0  0  0  0  0  0  0  0  0  0  0  0 
    1.3891    0.0356    0.0006 N   0  0  0  0  0  0  0  0  0  0  0  0 
   -2.7273   -0.1132   -0.0309 O   0  0  0  0  0  0  0  0  0  0  0  0 
    1.4532    2.2761    0.0225 O   0  0  0  0  0  0  0  0  0  0  0  0 
   -1.2466    2.1977    0.0045 H   0  0  0  0  0  0  0  0  0  0  0  0 
    0.7356   -3.0844   -0.0346 H   0  0  0  0  0  0  0  0  0  0  0  0 
   -1.2381   -1.9690   -0.0403 H   0  0  0  0  0  0  0  0  0  0  0  0 
   -3.1590    0.7561   -0.0248 H   0  0  0  0  0  0  0  0  0  0  0  0 
    0.8623    3.0448    0.0250 H   0  0  0  0  0  0  0  0  0  0  0  0 
  1 10  1  0  0  0  0 
  1  3  1  0  0  0  0 
  2  1  2  0  0  0  0 
  3  9  1  0  0  0  0 
  4  7  2  0  0  0  0 
  5  4  1  0  0  0  0 
  6  2  1  0  0  0  0 
  6  4  1  0  0  0  0 
  7  3  2  0  0  0  0 
  8 13  1  0  0  0  0 
  8  2  1  0  0  0  0 
  9 14  1  0  0  0  0 
 11  5  1  0  0  0  0 
 12  6  1  0  0  0  0 
M  RAD  1   5   2 
M  END 
>  <HBA> 
4 
 
>  <HBD> 
3 
 
>  <TPSA> 
92.0 
 
>  <cid> 
66131 
 
>  <dipole> 
8.13 
 
>  <excitation_energy_1> 
4.296 
 
>  <excitation_energy_2> 
4.357 
 
>  <excitation_energy_3> 
4.968 
 
>  <excitation_energy_4> 
5.11 
 
>  <homo_energy> 
-5.644 
 
>  <homo_lumo_gap> 
5.119 
 
>  <logP> 
-0.361 
 
>  <lumo_energy> 
-0.525 
 
>  <melting_point> 
191.67 
 
>  <molecular_refractivity> 
31.29 
 
>  <oscillator_strength_1> 
0.0349 
 
>  <oscillator_strength_2> 
0.0043 
 
>  <oscillator_strength_3> 
0.0029 
 
>  <oscillator_strength_4> 
0.0 
 
>  <open_babel_can_smiles> 
OC1=CC(=[N]=C(N1)[NH])O 
 
>  <mulliken_charges> 
14 
1   -0.333731 
2   0.621216 
3   0.537896 
4   0.609018 
5   -0.619572 
6   -0.683642 
7   -0.488709 
8   -0.614886 
9   -0.589199 
10   0.123387 
11   0.256308 
12   0.342182 
13   0.430197 
14   0.409535 
 
>  <lowdin_charges> 
14 
1   -0.35931 
2   0.181871 
3   0.164973 
4   0.131409 
5   -0.429792 
6   -0.241199 
7   -0.195091 
8   -0.347783 
9   -0.341403 
10   0.162834 
11   0.240904 
12   0.299261 
13   0.375038 
14   0.35829 
 
$$$$ 
 
