PCCDB-ID:  8029 
public computational chemistry database (PCCDB) project, http://pccdb.org 
 
  9  9  0  0  0  0  0  0  0  0999 V2000 
   -1.2018    0.0099    0.0010 C   0  0  0  0  0  0  0  0  0  0  0  0 
   -0.3552   -1.1498    0.0006 C   0  0  0  0  0  0  0  0  0  0  0  0 
   -0.3681    1.0853    0.0003 C   0  0  0  0  0  0  0  0  0  0  0  0 
    0.9231   -0.6834    0.0009 C   0  0  0  0  0  0  0  0  0  0  0  0 
    0.9347    0.6806    0.0002 O   0  0  0  0  0  0  0  0  0  0  0  0 
   -2.2826    0.0330    0.0010 H   0  0  0  0  0  0  0  0  0  0  0  0 
   -0.6626   -2.1863    0.0018 H   0  0  0  0  0  0  0  0  0  0  0  0 
   -0.5255    2.1531    0.0007 H   0  0  0  0  0  0  0  0  0  0  0  0 
    1.8921   -1.1588    0.0006 H   0  0  0  0  0  0  0  0  0  0  0  0 
  2  4  2  0  0  0  0 
  2  1  1  0  0  0  0 
  2  7  1  0  0  0  0 
  3  8  1  0  0  0  0 
  3  1  2  0  0  0  0 
  5  3  1  0  0  0  0 
  5  4  1  0  0  0  0 
  6  1  1  0  0  0  0 
  9  4  1  0  0  0  0 
M  END 
>  <HBA> 
1 
 
>  <HBD> 
0 
 
>  <TPSA> 
13.14 
 
>  <cid> 
8029 
 
>  <dipole> 
0.63 
 
>  <excitation_energy_1> 
5.871 
 
>  <excitation_energy_2> 
6.058 
 
>  <excitation_energy_3> 
6.314 
 
>  <excitation_energy_4> 
6.509 
 
>  <homo_energy> 
-6.106 
 
>  <homo_lumo_gap> 
6.642 
 
>  <logP> 
1.28 
 
>  <lumo_energy> 
0.536 
 
>  <melting_point> 
1.54 
 
>  <molecular_refractivity> 
18.71 
 
>  <oscillator_strength_1> 
0.0 
 
>  <oscillator_strength_2> 
0.1683 
 
>  <oscillator_strength_3> 
0.0314 
 
>  <oscillator_strength_4> 
0.0 
 
>  <open_babel_can_smiles> 
c1ccco1 
 
>  <mulliken_charges> 
9 
1   -0.176515 
2   -0.176974 
3   0.078966 
4   0.079142 
5   -0.394201 
6   0.140245 
7   0.140256 
8   0.154546 
9   0.154535 
 
>  <lowdin_charges> 
9 
1   -0.204564 
2   -0.205369 
3   -0.081982 
4   -0.083654 
5   -0.098084 
6   0.166931 
7   0.167709 
8   0.168596 
9   0.170417 
 
$$$$ 
 
