PCCDB-ID:  55569 
public computational chemistry database (PCCDB) project, http://pccdb.org 
 
 26 26  0  0  1  0  0  0  0  0999 V2000 
    2.3184   -0.9832    0.9386 C   0  0  0  0  0  0  0  0  0  0  0  0 
    0.8845    1.0171    0.6142 C   0  0  0  0  0  0  0  0  0  0  0  0 
    3.6329    4.3241   -1.3482 C   0  0  0  0  0  0  0  0  0  0  0  0 
    1.8392    1.3853   -3.1398 C   0  0  0  0  0  0  0  0  0  0  0  0 
    2.4321    2.7587   -2.9511 C   0  0  0  0  0  0  0  0  0  0  0  0 
    2.0101    0.3814   -2.2740 C   0  0  0  0  0  0  0  0  0  0  0  0 
    3.6013    1.8227   -0.9245 C   0  0  0  0  0  0  0  0  0  0  0  0 
    2.0306    0.1135    0.2287 C   0  0  0  0  0  0  0  0  0  0  0  0 
    2.8280    3.0274   -1.4896 C   0  0  1  0  0  0  0  0  0  0  0  0 
    2.8488    0.4657   -1.0141 C   0  0  1  0  0  0  0  0  0  0  0  0 
    1.7429   -1.2627    1.8180 H   0  0  0  0  0  0  0  0  0  0  0  0 
    3.1419   -1.6411    0.6702 H   0  0  0  0  0  0  0  0  0  0  0  0 
    0.3158    0.6009    1.4518 H   0  0  0  0  0  0  0  0  0  0  0  0 
    0.1979    1.1694   -0.2276 H   0  0  0  0  0  0  0  0  0  0  0  0 
    1.2401    2.0112    0.9156 H   0  0  0  0  0  0  0  0  0  0  0  0 
    3.0811    5.1822   -1.7511 H   0  0  0  0  0  0  0  0  0  0  0  0 
    4.5852    4.2559   -1.8899 H   0  0  0  0  0  0  0  0  0  0  0  0 
    3.8626    4.5377   -0.2973 H   0  0  0  0  0  0  0  0  0  0  0  0 
    1.2494    1.2176   -4.0406 H   0  0  0  0  0  0  0  0  0  0  0  0 
    1.7213    3.5244   -3.2923 H   0  0  0  0  0  0  0  0  0  0  0  0 
    3.3168    2.8703   -3.6006 H   0  0  0  0  0  0  0  0  0  0  0  0 
    1.5430   -0.5839   -2.4671 H   0  0  0  0  0  0  0  0  0  0  0  0 
    3.8932    2.0129    0.1163 H   0  0  0  0  0  0  0  0  0  0  0  0 
    4.5379    1.7280   -1.4929 H   0  0  0  0  0  0  0  0  0  0  0  0 
    1.8969    3.1422   -0.9187 H   0  0  0  0  0  0  0  0  0  0  0  0 
    3.6146   -0.3194   -1.0919 H   0  0  0  0  0  0  0  0  0  0  0  0 
  1 11  1  0  0  0  0 
  2 15  1  0  0  0  0 
  2 13  1  0  0  0  0 
  3 18  1  0  0  0  0 
  4  5  1  0  0  0  0 
  4  6  2  0  0  0  0 
  5  9  1  0  0  0  0 
  6 10  1  0  0  0  0 
  7 23  1  0  0  0  0 
  8  2  1  0  0  0  0 
  8  1  2  0  0  0  0 
  9  3  1  0  0  0  0 
  9  7  1  0  0  0  0 
  9 25  1  1  0  0  0 
 10 26  1  6  0  0  0 
 10  7  1  0  0  0  0 
 10  8  1  0  0  0  0 
 12  1  1  0  0  0  0 
 14  2  1  0  0  0  0 
 16  3  1  0  0  0  0 
 17  3  1  0  0  0  0 
 19  4  1  0  0  0  0 
 20  5  1  0  0  0  0 
 21  5  1  0  0  0  0 
 22  6  1  0  0  0  0 
 24  7  1  0  0  0  0 
M  END 
>  <HBA> 
0 
 
>  <HBD> 
0 
 
>  <TPSA> 
0.0 
 
>  <cid> 
55569 
 
>  <dipole> 
0.59 
 
>  <excitation_energy_1> 
5.825 
 
>  <excitation_energy_2> 
6.039 
 
>  <excitation_energy_3> 
6.116 
 
>  <excitation_energy_4> 
6.144 
 
>  <homo_energy> 
-6.425 
 
>  <homo_lumo_gap> 
6.879 
 
>  <logP> 
3.165 
 
>  <lumo_energy> 
0.454 
 
>  <melting_point> 
-14.03 
 
>  <molecular_refractivity> 
47.12 
 
>  <oscillator_strength_1> 
0.0401 
 
>  <oscillator_strength_2> 
0.0541 
 
>  <oscillator_strength_3> 
0.1142 
 
>  <oscillator_strength_4> 
0.0052 
 
>  <open_babel_can_smiles> 
C[C@H]1CC=C[C@@H](C1)C(=C)C 
 
>  <mulliken_charges> 
26 
1   -0.410563 
2   -0.516012 
3   -0.447395 
4   -0.119998 
5   -0.294425 
6   -0.102174 
7   -0.276903 
8   0.240587 
9   -0.084004 
10   -0.193271 
11   0.130058 
12   0.130821 
13   0.149393 
14   0.160665 
15   0.156605 
16   0.140198 
17   0.138814 
18   0.140886 
19   0.120778 
20   0.136844 
21   0.140837 
22   0.12391 
23   0.13612 
24   0.132205 
25   0.132042 
26   0.133981 
 
>  <lowdin_charges> 
26 
1   -0.368515 
2   -0.445807 
3   -0.44292 
4   -0.174598 
5   -0.278982 
6   -0.17372 
7   -0.275924 
8   0.010703 
9   -0.125874 
10   -0.125633 
11   0.152818 
12   0.152438 
13   0.156354 
14   0.160169 
15   0.155239 
16   0.148966 
17   0.145272 
18   0.147354 
19   0.151175 
20   0.148964 
21   0.14773 
22   0.152509 
23   0.145196 
24   0.143705 
25   0.140659 
26   0.152724 
 
$$$$ 
 
