PCCDB-ID:  37463 
public computational chemistry database (PCCDB) project, http://pccdb.org 
 
 20 20  0  0  0  0  0  0  0  0999 V2000 
    1.0455    0.5962   -0.0831 C   0  0  0  0  0  0  0  0  0  0  0  0 
    2.7265   -2.3025   -0.2380 C   0  0  0  0  0  0  0  0  0  0  0  0 
    3.5258   -3.2864    0.6334 C   0  0  0  0  0  0  0  0  0  0  0  0 
    4.6157    0.8021   -0.0167 C   0  0  0  0  0  0  0  0  0  0  0  0 
    2.5198    0.3300   -0.0720 C   0  0  0  0  0  0  0  0  0  0  0  0 
    3.1849   -0.8789   -0.1341 C   0  0  0  0  0  0  0  0  0  0  0  0 
    4.9298   -3.3691    0.1808 N   0  0  0  0  0  0  0  0  0  0  0  0 
    3.4280    1.3705   -0.0001 N   0  0  0  0  0  0  0  0  0  0  0  0 
    4.5297   -0.5530   -0.1073 N   0  0  0  0  0  0  0  0  0  0  0  0 
    0.4665   -0.3328   -0.0414 H   0  0  0  0  0  0  0  0  0  0  0  0 
    0.7434    1.1371   -0.9889 H   0  0  0  0  0  0  0  0  0  0  0  0 
    0.7542    1.2172    0.7722 H   0  0  0  0  0  0  0  0  0  0  0  0 
    1.6706   -2.3592    0.0501 H   0  0  0  0  0  0  0  0  0  0  0  0 
    2.7697   -2.6562   -1.2821 H   0  0  0  0  0  0  0  0  0  0  0  0 
    3.0171   -4.2647    0.6297 H   0  0  0  0  0  0  0  0  0  0  0  0 
    3.5338   -2.9291    1.6693 H   0  0  0  0  0  0  0  0  0  0  0  0 
    5.5635    1.3222    0.0354 H   0  0  0  0  0  0  0  0  0  0  0  0 
    4.9667   -3.8422   -0.7225 H   0  0  0  0  0  0  0  0  0  0  0  0 
    5.4672   -3.9482    0.8242 H   0  0  0  0  0  0  0  0  0  0  0  0 
    5.2510   -1.2698   -0.0651 H   0  0  0  0  0  0  0  0  0  0  0  0 
  1  5  1  0  0  0  0 
  1 10  1  0  0  0  0 
  1 12  1  0  0  0  0 
  2  6  1  0  0  0  0 
  2 13  1  0  0  0  0 
  2  3  1  0  0  0  0 
  3 16  1  0  0  0  0 
  4  8  2  0  0  0  0 
  4 17  1  0  0  0  0 
  5  8  1  0  0  0  0 
  6  9  1  0  0  0  0 
  6  5  2  0  0  0  0 
  7  3  1  0  0  0  0 
  7 19  1  0  0  0  0 
  9 20  1  0  0  0  0 
  9  4  1  0  0  0  0 
 11  1  1  0  0  0  0 
 14  2  1  0  0  0  0 
 15  3  1  0  0  0  0 
 18  7  1  0  0  0  0 
M  END 
>  <HBA> 
2 
 
>  <HBD> 
2 
 
>  <TPSA> 
54.7 
 
>  <cid> 
37463 
 
>  <dipole> 
5.49 
 
>  <excitation_energy_1> 
4.665 
 
>  <excitation_energy_2> 
5.21 
 
>  <excitation_energy_3> 
5.489 
 
>  <excitation_energy_4> 
5.535 
 
>  <homo_energy> 
-5.309 
 
>  <homo_lumo_gap> 
6.637 
 
>  <logP> 
0.92 
 
>  <lumo_energy> 
1.328 
 
>  <melting_point> 
128.35 
 
>  <molecular_refractivity> 
36.03 
 
>  <oscillator_strength_1> 
0.0199 
 
>  <oscillator_strength_2> 
0.0036 
 
>  <oscillator_strength_3> 
0.0192 
 
>  <oscillator_strength_4> 
0.0085 
 
>  <open_babel_can_smiles> 
Cc1nc[nH]c1CCN 
 
>  <mulliken_charges> 
20 
1   -0.519261 
2   -0.348325 
3   -0.145485 
4   0.201534 
5   0.187455 
6   0.284898 
7   -0.737114 
8   -0.476697 
9   -0.601286 
10   0.135717 
11   0.159319 
12   0.161 
13   0.155759 
14   0.144462 
15   0.128002 
16   0.157529 
17   0.140546 
18   0.305789 
19   0.311064 
20   0.355092 
 
>  <lowdin_charges> 
20 
1   -0.441293 
2   -0.275229 
3   -0.202984 
4   -0.09836 
5   -0.021032 
6   -0.034006 
7   -0.556907 
8   -0.207074 
9   -0.194657 
10   0.147689 
11   0.159553 
12   0.161575 
13   0.160108 
14   0.145232 
15   0.128483 
16   0.149498 
17   0.159918 
18   0.258029 
19   0.26427 
20   0.297188 
 
$$$$ 
 
