PCCDB-ID:  69890 
public computational chemistry database (PCCDB) project, http://pccdb.org 
 
 26 27  0  0  0  0  0  0  0  0999 V2000 
   -2.3375    0.0034    0.0403 C   0  0  0  0  0  0  0  0  0  0  0  0 
   -1.5366    0.1487    1.1731 C   0  0  0  0  0  0  0  0  0  0  0  0 
   -1.7520   -0.3510   -1.1781 C   0  0  0  0  0  0  0  0  0  0  0  0 
   -0.1583   -0.0608    1.0867 C   0  0  0  0  0  0  0  0  0  0  0  0 
   -0.3752   -0.5544   -1.2622 C   0  0  0  0  0  0  0  0  0  0  0  0 
    3.9136   -3.2593   -1.8843 C   0  0  0  0  0  0  0  0  0  0  0  0 
    3.7515   -1.8420   -1.3268 C   0  0  0  0  0  0  0  0  0  0  0  0 
    1.9411   -0.5913   -0.2327 C   0  0  0  0  0  0  0  0  0  0  0  0 
    1.9708   -3.0487   -0.3843 C   0  0  0  0  0  0  0  0  0  0  0  0 
    0.4376   -0.4092   -0.1296 C   0  0  0  0  0  0  0  0  0  0  0  0 
    2.8716   -4.0590   -1.0978 C   0  0  0  0  0  0  0  0  0  0  0  0 
    2.3211   -1.7699   -0.9969 N   0  0  0  0  0  0  0  0  0  0  0  0 
    2.7832   -5.2629   -1.0283 O   0  0  0  0  0  0  0  0  0  0  0  0 
   -3.4108    0.1608    0.1058 H   0  0  0  0  0  0  0  0  0  0  0  0 
   -1.9833    0.4187    2.1265 H   0  0  0  0  0  0  0  0  0  0  0  0 
   -2.3704   -0.4707   -2.0641 H   0  0  0  0  0  0  0  0  0  0  0  0 
    0.4605    0.0458    1.9753 H   0  0  0  0  0  0  0  0  0  0  0  0 
    0.0834   -0.8400   -2.2047 H   0  0  0  0  0  0  0  0  0  0  0  0 
    4.9122   -3.6895   -1.7708 H   0  0  0  0  0  0  0  0  0  0  0  0 
    3.6435   -3.3018   -2.9472 H   0  0  0  0  0  0  0  0  0  0  0  0 
    4.0130   -1.0536   -2.0403 H   0  0  0  0  0  0  0  0  0  0  0  0 
    4.3919   -1.7106   -0.4319 H   0  0  0  0  0  0  0  0  0  0  0  0 
    2.3798   -0.6069    0.7857 H   0  0  0  0  0  0  0  0  0  0  0  0 
    2.3787    0.2780   -0.7443 H   0  0  0  0  0  0  0  0  0  0  0  0 
    2.2065   -3.0924    0.7003 H   0  0  0  0  0  0  0  0  0  0  0  0 
    0.9109   -3.2937   -0.4993 H   0  0  0  0  0  0  0  0  0  0  0  0 
  1 14  1  0  0  0  0 
  1  2  2  0  0  0  0 
  2 15  1  0  0  0  0 
  3  1  1  0  0  0  0 
  4  2  1  0  0  0  0 
  4 17  1  0  0  0  0 
  5  3  2  0  0  0  0 
  5 10  1  0  0  0  0 
  6 19  1  0  0  0  0 
  6  7  1  0  0  0  0 
  6 11  1  0  0  0  0 
  7 12  1  0  0  0  0 
  7 22  1  0  0  0  0 
  8 10  1  0  0  0  0 
  8 23  1  0  0  0  0 
  9 25  1  0  0  0  0 
 10  4  2  0  0  0  0 
 11 13  2  0  0  0  0 
 11  9  1  0  0  0  0 
 12  9  1  0  0  0  0 
 12  8  1  0  0  0  0 
 16  3  1  0  0  0  0 
 18  5  1  0  0  0  0 
 20  6  1  0  0  0  0 
 21  7  1  0  0  0  0 
 24  8  1  0  0  0  0 
 26  9  1  0  0  0  0 
M  END 
>  <HBA> 
2 
 
>  <HBD> 
0 
 
>  <TPSA> 
20.31 
 
>  <cid> 
69890 
 
>  <dipole> 
2.74 
 
>  <excitation_energy_1> 
4.283 
 
>  <excitation_energy_2> 
4.558 
 
>  <excitation_energy_3> 
5.072 
 
>  <excitation_energy_4> 
5.204 
 
>  <homo_energy> 
-6.15 
 
>  <homo_lumo_gap> 
5.614 
 
>  <logP> 
1.399 
 
>  <lumo_energy> 
-0.536 
 
>  <melting_point> 
51.1 
 
>  <molecular_refractivity> 
55.53 
 
>  <oscillator_strength_1> 
0.0002 
 
>  <oscillator_strength_2> 
0.0018 
 
>  <oscillator_strength_3> 
0.0005 
 
>  <oscillator_strength_4> 
0.0019 
 
>  <open_babel_can_smiles> 
O=C1CCN(C1)Cc1ccccc1 
 
>  <mulliken_charges> 
26 
1   -0.128587 
2   -0.128123 
3   -0.130549 
4   -0.186456 
5   -0.165714 
6   -0.358524 
7   -0.131218 
8   -0.19165 
9   -0.189228 
10   0.145275 
11   0.430819 
12   -0.411535 
13   -0.441079 
14   0.129498 
15   0.129696 
16   0.130357 
17   0.123431 
18   0.13832 
19   0.17382 
20   0.184051 
21   0.150817 
22   0.122349 
23   0.119349 
24   0.154157 
25   0.144456 
26   0.186267 
 
>  <lowdin_charges> 
26 
1   -0.155955 
2   -0.155374 
3   -0.155366 
4   -0.168664 
5   -0.159996 
6   -0.314673 
7   -0.201298 
8   -0.195077 
9   -0.231806 
10   -0.013981 
11   0.15983 
12   -0.189069 
13   -0.219165 
14   0.155777 
15   0.15771 
16   0.158308 
17   0.15486 
18   0.163116 
19   0.17102 
20   0.17572 
21   0.151509 
22   0.121804 
23   0.122319 
24   0.155242 
25   0.141091 
26   0.172118 
 
$$$$ 
 
