PCCDB-ID:  7266 
public computational chemistry database (PCCDB) project, http://pccdb.org 
 
 17 17  0  0  0  0  0  0  0  0999 V2000 
   -1.3964   -0.0751   -0.0208 C   0  0  0  0  0  0  0  0  0  0  0  0 
   -0.7527    1.1658   -0.0456 C   0  0  0  0  0  0  0  0  0  0  0  0 
    0.7622   -1.1581    0.0157 C   0  0  0  0  0  0  0  0  0  0  0  0 
   -0.6384   -1.2516    0.0102 C   0  0  0  0  0  0  0  0  0  0  0  0 
    1.4127    0.0790   -0.0058 C   0  0  0  0  0  0  0  0  0  0  0  0 
    0.6325    1.2527   -0.0399 C   0  0  0  0  0  0  0  0  0  0  0  0 
   -1.2636   -2.5106    0.0987 N   0  0  0  0  0  0  0  0  0  0  0  0 
    2.8042    0.1890    0.0556 N   0  0  0  0  0  0  0  0  0  0  0  0 
    1.3336    2.4455   -0.0824 O   0  0  0  0  0  0  0  0  0  0  0  0 
   -2.4821   -0.1236   -0.0198 H   0  0  0  0  0  0  0  0  0  0  0  0 
   -1.3457    2.0788   -0.0789 H   0  0  0  0  0  0  0  0  0  0  0  0 
    1.3616   -2.0661    0.0552 H   0  0  0  0  0  0  0  0  0  0  0  0 
   -2.1982   -2.5253   -0.2935 H   0  0  0  0  0  0  0  0  0  0  0  0 
   -0.7122   -3.2671   -0.2902 H   0  0  0  0  0  0  0  0  0  0  0  0 
    3.3082   -0.5902   -0.3488 H   0  0  0  0  0  0  0  0  0  0  0  0 
    3.1529    1.0811   -0.2730 H   0  0  0  0  0  0  0  0  0  0  0  0 
    0.6986    3.1761   -0.1179 H   0  0  0  0  0  0  0  0  0  0  0  0 
  1 10  1  0  0  0  0 
  1  4  2  0  0  0  0 
  2  6  2  0  0  0  0 
  2  1  1  0  0  0  0 
  3 12  1  0  0  0  0 
  4  3  1  0  0  0  0 
  4  7  1  0  0  0  0 
  5  3  2  0  0  0  0 
  5  8  1  0  0  0  0 
  6  5  1  0  0  0  0 
  9  6  1  0  0  0  0 
 11  2  1  0  0  0  0 
 13  7  1  0  0  0  0 
 14  7  1  0  0  0  0 
 15  8  1  0  0  0  0 
 16  8  1  0  0  0  0 
 17  9  1  0  0  0  0 
M  END 
>  <HBA> 
3 
 
>  <HBD> 
3 
 
>  <TPSA> 
72.27 
 
>  <cid> 
7266 
 
>  <dipole> 
2.44 
 
>  <excitation_energy_1> 
4.136 
 
>  <excitation_energy_2> 
4.274 
 
>  <excitation_energy_3> 
4.359 
 
>  <excitation_energy_4> 
4.655 
 
>  <homo_energy> 
-4.637 
 
>  <homo_lumo_gap> 
5.181 
 
>  <logP> 
1.719 
 
>  <lumo_energy> 
0.544 
 
>  <melting_point> 
143.6 
 
>  <molecular_refractivity> 
37.27 
 
>  <oscillator_strength_1> 
0.0054 
 
>  <oscillator_strength_2> 
0.0309 
 
>  <oscillator_strength_3> 
0.0387 
 
>  <oscillator_strength_4> 
0.006 
 
>  <open_babel_can_smiles> 
Nc1ccc(c(c1)N)O 
 
>  <mulliken_charges> 
17 
1   -0.191376 
2   -0.199785 
3   -0.238208 
4   0.300901 
5   0.282298 
6   0.301512 
7   -0.788282 
8   -0.793545 
9   -0.677369 
10   0.108756 
11   0.110172 
12   0.104238 
13   0.312409 
14   0.311362 
15   0.313675 
16   0.336992 
17   0.406248 
 
>  <lowdin_charges> 
17 
1   -0.219442 
2   -0.196145 
3   -0.237058 
4   0.053118 
5   0.046252 
6   0.046929 
7   -0.49842 
8   -0.490799 
9   -0.409009 
10   0.148795 
11   0.150617 
12   0.149287 
13   0.269652 
14   0.270767 
15   0.273838 
16   0.283242 
17   0.358376 
 
$$$$ 
 
