PCCDB-ID:  70612 
public computational chemistry database (PCCDB) project, http://pccdb.org 
 
 20 19  0  0  0  0  0  0  0  0999 V2000 
    0.6966   -1.3317    1.4587 C   0  0  0  0  0  0  0  0  0  0  0  0 
    5.8632    1.6504    0.8375 C   0  0  0  0  0  0  0  0  0  0  0  0 
    1.9602   -1.2158    0.6002 C   0  0  0  0  0  0  0  0  0  0  0  0 
    3.0912   -0.4527    1.3003 C   0  0  0  0  0  0  0  0  0  0  0  0 
    4.3604   -0.3404    0.4310 C   0  0  0  0  0  0  0  0  0  0  0  0 
    6.2325   -0.3194    2.1834 C   0  0  0  0  0  0  0  0  0  0  0  0 
    5.4858    0.3933    1.1173 C   0  0  0  0  0  0  0  0  0  0  0  0 
    6.0163   -1.4663    2.5271 O   0  0  0  0  0  0  0  0  0  0  0  0 
   -0.0938   -1.8809    0.9344 H   0  0  0  0  0  0  0  0  0  0  0  0 
    0.2997   -0.3420    1.7166 H   0  0  0  0  0  0  0  0  0  0  0  0 
    0.9037   -1.8596    2.3974 H   0  0  0  0  0  0  0  0  0  0  0  0 
    5.3819    2.2417    0.0631 H   0  0  0  0  0  0  0  0  0  0  0  0 
    6.6753    2.1298    1.3806 H   0  0  0  0  0  0  0  0  0  0  0  0 
    1.7153   -0.7159   -0.3481 H   0  0  0  0  0  0  0  0  0  0  0  0 
    2.3151   -2.2211    0.3335 H   0  0  0  0  0  0  0  0  0  0  0  0 
    3.3475   -0.9570    2.2398 H   0  0  0  0  0  0  0  0  0  0  0  0 
    2.7452    0.5563    1.5657 H   0  0  0  0  0  0  0  0  0  0  0  0 
    4.1175    0.1655   -0.5116 H   0  0  0  0  0  0  0  0  0  0  0  0 
    4.7028   -1.3526    0.1812 H   0  0  0  0  0  0  0  0  0  0  0  0 
    7.0409    0.2765    2.6633 H   0  0  0  0  0  0  0  0  0  0  0  0 
  1 10  1  0  0  0  0 
  1 11  1  0  0  0  0 
  2  7  2  0  0  0  0 
  2 13  1  0  0  0  0 
  3  4  1  0  0  0  0 
  3  1  1  0  0  0  0 
  4 17  1  0  0  0  0 
  4 16  1  0  0  0  0 
  5  7  1  0  0  0  0 
  5  4  1  0  0  0  0 
  6  8  2  0  0  0  0 
  6 20  1  0  0  0  0 
  7  6  1  0  0  0  0 
  9  1  1  0  0  0  0 
 12  2  1  0  0  0  0 
 14  3  1  0  0  0  0 
 15  3  1  0  0  0  0 
 18  5  1  0  0  0  0 
 19  5  1  0  0  0  0 
M  END 
>  <HBA> 
1 
 
>  <HBD> 
0 
 
>  <TPSA> 
17.07 
 
>  <cid> 
70612 
 
>  <dipole> 
2.69 
 
>  <excitation_energy_1> 
3.682 
 
>  <excitation_energy_2> 
5.654 
 
>  <excitation_energy_3> 
6.215 
 
>  <excitation_energy_4> 
6.279 
 
>  <homo_energy> 
-6.923 
 
>  <homo_lumo_gap> 
5.328 
 
>  <logP> 
1.932 
 
>  <lumo_energy> 
-1.595 
 
>  <melting_point> 
-12.68 
 
>  <molecular_refractivity> 
35.49 
 
>  <oscillator_strength_1> 
0.0003 
 
>  <oscillator_strength_2> 
0.2296 
 
>  <oscillator_strength_3> 
0.0084 
 
>  <oscillator_strength_4> 
0.0085 
 
>  <open_babel_can_smiles> 
CCCCC(=C)C=O 
 
>  <mulliken_charges> 
20 
1   -0.442522 
2   -0.38908 
3   -0.246949 
4   -0.253731 
5   -0.331602 
6   0.201925 
7   0.170419 
8   -0.406008 
9   0.142706 
10   0.140683 
11   0.146447 
12   0.159385 
13   0.157448 
14   0.127974 
15   0.137067 
16   0.157302 
17   0.128769 
18   0.136325 
19   0.160598 
20   0.102842 
 
>  <lowdin_charges> 
20 
1   -0.444646 
2   -0.301213 
3   -0.270909 
4   -0.272888 
5   -0.271227 
6   0.040417 
7   -0.029947 
8   -0.226297 
9   0.151044 
10   0.145652 
11   0.148893 
12   0.168527 
13   0.165644 
14   0.13723 
15   0.14166 
16   0.152697 
17   0.13785 
18   0.147571 
19   0.160346 
20   0.119596 
 
$$$$ 
 
