PCCDB-ID:  53654 
public computational chemistry database (PCCDB) project, http://pccdb.org 
 
 16 16  0  0  1  0  0  0  0  0999 V2000 
    0.9858   -0.0464    0.0926 C   0  0  0  0  0  0  0  0  0  0  0  0 
    5.3375    1.3569   -1.0239 C   0  0  0  0  0  0  0  0  0  0  0  0 
    3.3451   -1.2542    0.0684 C   0  0  0  0  0  0  0  0  0  0  0  0 
    2.4820   -0.0065    0.0938 C   0  0  0  0  0  0  0  0  0  0  0  0 
    4.5770    0.7003    0.1198 C   0  0  1  0  0  0  0  0  0  0  0  0 
    3.1695    1.0674    0.1282 N   0  0  0  0  0  0  0  0  0  0  0  0 
    4.6601   -0.7372    0.0014 O   0  0  0  0  0  0  0  0  0  0  0  0 
    0.6114   -0.6117    0.9558 H   0  0  0  0  0  0  0  0  0  0  0  0 
    0.6110   -0.5523   -0.8065 H   0  0  0  0  0  0  0  0  0  0  0  0 
    0.5798    0.9668    0.1266 H   0  0  0  0  0  0  0  0  0  0  0  0 
    5.3253    2.4455   -0.9123 H   0  0  0  0  0  0  0  0  0  0  0  0 
    4.8760    1.0937   -1.9812 H   0  0  0  0  0  0  0  0  0  0  0  0 
    6.3760    1.0116   -1.0277 H   0  0  0  0  0  0  0  0  0  0  0  0 
    3.1327   -1.8962   -0.8005 H   0  0  0  0  0  0  0  0  0  0  0  0 
    3.1963   -1.8665    0.9746 H   0  0  0  0  0  0  0  0  0  0  0  0 
    5.0167    1.0011    1.0841 H   0  0  0  0  0  0  0  0  0  0  0  0 
  1  4  1  0  0  0  0 
  1 10  1  0  0  0  0 
  1  8  1  0  0  0  0 
  2 11  1  0  0  0  0 
  2  5  1  0  0  0  0 
  3  4  1  0  0  0  0 
  3 15  1  0  0  0  0 
  4  6  2  0  0  0  0 
  5  6  1  0  0  0  0 
  5 16  1  1  0  0  0 
  7  3  1  0  0  0  0 
  7  5  1  0  0  0  0 
  9  1  1  0  0  0  0 
 12  2  1  0  0  0  0 
 13  2  1  0  0  0  0 
 14  3  1  0  0  0  0 
M  END 
>  <HBA> 
2 
 
>  <HBD> 
0 
 
>  <TPSA> 
21.59 
 
>  <cid> 
53654 
 
>  <dipole> 
1.69 
 
>  <excitation_energy_1> 
5.694 
 
>  <excitation_energy_2> 
5.827 
 
>  <excitation_energy_3> 
6.257 
 
>  <excitation_energy_4> 
6.732 
 
>  <homo_energy> 
-6.68 
 
>  <homo_lumo_gap> 
6.7 
 
>  <logP> 
0.259 
 
>  <lumo_energy> 
0.019 
 
>  <melting_point> 
5.59 
 
>  <molecular_refractivity> 
32.13 
 
>  <oscillator_strength_1> 
0.069 
 
>  <oscillator_strength_2> 
0.0025 
 
>  <oscillator_strength_3> 
0.0109 
 
>  <oscillator_strength_4> 
0.0074 
 
>  <open_babel_can_smiles> 
CC1=N[C@@H](OC1)C 
 
>  <mulliken_charges> 
16 
1   -0.519015 
2   -0.436559 
3   -0.065039 
4   0.290523 
5   0.238173 
6   -0.412807 
7   -0.499557 
8   0.166388 
9   0.166602 
10   0.185328 
11   0.153949 
12   0.149256 
13   0.156692 
14   0.146788 
15   0.142128 
16   0.137152 
 
>  <lowdin_charges> 
16 
1   -0.4486 
2   -0.447177 
3   -0.152833 
4   0.046785 
5   0.054093 
6   -0.176323 
7   -0.2859 
8   0.167169 
9   0.167112 
10   0.175674 
11   0.158244 
12   0.155331 
13   0.158994 
14   0.147459 
15   0.142826 
16   0.137146 
 
$$$$ 
 
