PCCDB-ID:  15535 
public computational chemistry database (PCCDB) project, http://pccdb.org 
 
 26 26  0  0  1  0  0  0  0  0999 V2000 
    0.9876    0.0287    0.1117 C   0  0  0  0  0  0  0  0  0  0  0  0 
    6.9148   -3.7375    1.9915 C   0  0  0  0  0  0  0  0  0  0  0  0 
    4.5033    1.2881    0.6223 C   0  0  0  0  0  0  0  0  0  0  0  0 
    5.1123    0.0765    1.3390 C   0  0  0  0  0  0  0  0  0  0  0  0 
    2.9743    1.2665    0.7014 C   0  0  0  0  0  0  0  0  0  0  0  0 
    2.9395   -1.1427    0.9034 C   0  0  0  0  0  0  0  0  0  0  0  0 
    4.4684   -1.2248    0.8106 C   0  0  2  0  0  0  0  0  0  0  0  0 
    4.9920   -2.4459    1.5440 C   0  0  0  0  0  0  0  0  0  0  0  0 
    2.4417    0.0157    0.1627 N   0  0  0  0  0  0  0  0  0  0  0  0 
    4.3364   -3.1922    2.2403 O   0  0  0  0  0  0  0  0  0  0  0  0 
    6.3192   -2.6109    1.3288 O   0  0  0  0  0  0  0  0  0  0  0  0 
    0.6480    0.8711   -0.5013 H   0  0  0  0  0  0  0  0  0  0  0  0 
    0.5145    0.1194    1.1097 H   0  0  0  0  0  0  0  0  0  0  0  0 
    0.6255   -0.8963   -0.3502 H   0  0  0  0  0  0  0  0  0  0  0  0 
    7.9688   -3.7181    1.7124 H   0  0  0  0  0  0  0  0  0  0  0  0 
    6.4473   -4.6692    1.6616 H   0  0  0  0  0  0  0  0  0  0  0  0 
    6.8023   -3.6511    3.0756 H   0  0  0  0  0  0  0  0  0  0  0  0 
    4.8017    1.2773   -0.4339 H   0  0  0  0  0  0  0  0  0  0  0  0 
    4.8832    2.2191    1.0606 H   0  0  0  0  0  0  0  0  0  0  0  0 
    4.9225    0.1545    2.4194 H   0  0  0  0  0  0  0  0  0  0  0  0 
    6.1979    0.0428    1.2032 H   0  0  0  0  0  0  0  0  0  0  0  0 
    2.5567    2.0964    0.1186 H   0  0  0  0  0  0  0  0  0  0  0  0 
    2.6562    1.4202    1.7549 H   0  0  0  0  0  0  0  0  0  0  0  0 
    2.6417   -1.1137    1.9700 H   0  0  0  0  0  0  0  0  0  0  0  0 
    2.4931   -2.0483    0.4790 H   0  0  0  0  0  0  0  0  0  0  0  0 
    4.7488   -1.3314   -0.2461 H   0  0  0  0  0  0  0  0  0  0  0  0 
  1  9  1  0  0  0  0 
  1 13  1  0  0  0  0 
  2 17  1  0  0  0  0 
  3  5  1  0  0  0  0 
  3 19  1  0  0  0  0 
  3  4  1  0  0  0  0 
  4 20  1  0  0  0  0 
  5 23  1  0  0  0  0 
  6 24  1  0  0  0  0 
  7 26  1  6  0  0  0 
  7  6  1  0  0  0  0 
  7  4  1  0  0  0  0 
  7  8  1  0  0  0  0 
  8 10  2  0  0  0  0 
  9  5  1  0  0  0  0 
  9  6  1  0  0  0  0 
 11  8  1  0  0  0  0 
 11  2  1  0  0  0  0 
 12  1  1  0  0  0  0 
 14  1  1  0  0  0  0 
 15  2  1  0  0  0  0 
 16  2  1  0  0  0  0 
 18  3  1  0  0  0  0 
 21  4  1  0  0  0  0 
 22  5  1  0  0  0  0 
 25  6  1  0  0  0  0 
M  END 
>  <HBA> 
3 
 
>  <HBD> 
0 
 
>  <TPSA> 
29.54 
 
>  <cid> 
15535 
 
>  <dipole> 
1.48 
 
>  <excitation_energy_1> 
5.206 
 
>  <excitation_energy_2> 
5.36 
 
>  <excitation_energy_3> 
5.708 
 
>  <excitation_energy_4> 
5.794 
 
>  <homo_energy> 
-5.739 
 
>  <homo_lumo_gap> 
6.123 
 
>  <logP> 
0.439 
 
>  <lumo_energy> 
0.384 
 
>  <melting_point> 
9.76 
 
>  <molecular_refractivity> 
46.55 
 
>  <oscillator_strength_1> 
0.0123 
 
>  <oscillator_strength_2> 
0.007 
 
>  <oscillator_strength_3> 
0.0229 
 
>  <oscillator_strength_4> 
0.0037 
 
>  <open_babel_can_smiles> 
COC(=O)[C@@H]1CCCN(C1)C 
 
>  <mulliken_charges> 
26 
1   -0.291285 
2   -0.21755 
3   -0.263578 
4   -0.275689 
5   -0.116583 
6   -0.111175 
7   -0.19005 
8   0.6312 
9   -0.38835 
10   -0.486473 
11   -0.458414 
12   0.146669 
13   0.119495 
14   0.14927 
15   0.163219 
16   0.169791 
17   0.169146 
18   0.143225 
19   0.135387 
20   0.138274 
21   0.154967 
22   0.136333 
23   0.106485 
24   0.125356 
25   0.147512 
26   0.162816 
 
>  <lowdin_charges> 
26 
1   -0.355411 
2   -0.275513 
3   -0.278988 
4   -0.27046 
5   -0.199956 
6   -0.196527 
7   -0.155718 
8   0.200646 
9   -0.188341 
10   -0.265576 
11   -0.196151 
12   0.149773 
13   0.121269 
14   0.150735 
15   0.15817 
16   0.159051 
17   0.156528 
18   0.145511 
19   0.148474 
20   0.141191 
21   0.152916 
22   0.146357 
23   0.111989 
24   0.124153 
25   0.153008 
26   0.162869 
 
$$$$ 
 
