PCCDB-ID:  7473 
public computational chemistry database (PCCDB) project, http://pccdb.org 
 
 17 17  0  0  0  0  0  0  0  0999 V2000 
    1.0445   -0.0795    0.0847 C   0  0  0  0  0  0  0  0  0  0  0  0 
    3.2675   -1.2941   -0.0372 C   0  0  0  0  0  0  0  0  0  0  0  0 
    3.2572    1.1104   -0.2140 C   0  0  0  0  0  0  0  0  0  0  0  0 
    4.6536   -1.3093   -0.1731 C   0  0  0  0  0  0  0  0  0  0  0  0 
    4.6404    1.1184   -0.3511 C   0  0  0  0  0  0  0  0  0  0  0  0 
    2.5473   -0.0915   -0.0556 C   0  0  0  0  0  0  0  0  0  0  0  0 
    5.3229   -0.0980   -0.3285 C   0  0  0  0  0  0  0  0  0  0  0  0 
    6.7844   -0.0991   -0.4713 N   0  0  0  0  0  0  0  0  0  0  0  0 
    7.3629   -1.1858   -0.4449 O   0  0  0  0  0  0  0  0  0  0  0  0 
    7.3459    0.9880   -0.6097 O   0  0  0  0  0  0  0  0  0  0  0  0 
    0.6531   -1.0780    0.3001 H   0  0  0  0  0  0  0  0  0  0  0  0 
    0.5653    0.2766   -0.8358 H   0  0  0  0  0  0  0  0  0  0  0  0 
    0.7267    0.5904    0.8923 H   0  0  0  0  0  0  0  0  0  0  0  0 
    2.7358   -2.2337    0.0865 H   0  0  0  0  0  0  0  0  0  0  0  0 
    2.7166    2.0534   -0.2296 H   0  0  0  0  0  0  0  0  0  0  0  0 
    5.2171   -2.2342   -0.1602 H   0  0  0  0  0  0  0  0  0  0  0  0 
    5.1957    2.0403   -0.4737 H   0  0  0  0  0  0  0  0  0  0  0  0 
  1 11  1  0  0  0  0 
  1 13  1  0  0  0  0 
  2 14  1  0  0  0  0 
  3  6  2  0  0  0  0 
  4 16  1  0  0  0  0 
  4  2  2  0  0  0  0 
  5  7  2  0  0  0  0 
  5  3  1  0  0  0  0 
  6  2  1  0  0  0  0 
  6  1  1  0  0  0  0 
  7  4  1  0  0  0  0 
  8  9  2  0  0  0  0 
  8  7  1  0  0  0  0 
 10  8  2  0  0  0  0 
 12  1  1  0  0  0  0 
 15  3  1  0  0  0  0 
 17  5  1  0  0  0  0 
M  END 
>  <HBA> 
0 
 
>  <HBD> 
0 
 
>  <TPSA> 
45.82 
 
>  <cid> 
7473 
 
>  <dipole> 
5.2 
 
>  <excitation_energy_1> 
3.752 
 
>  <excitation_energy_2> 
4.278 
 
>  <excitation_energy_3> 
4.284 
 
>  <excitation_energy_4> 
4.462 
 
>  <homo_energy> 
-7.363 
 
>  <homo_lumo_gap> 
5.045 
 
>  <logP> 
2.426 
 
>  <lumo_energy> 
-2.318 
 
>  <melting_point> 
46.95 
 
>  <molecular_refractivity> 
40.23 
 
>  <oscillator_strength_1> 
0.0 
 
>  <oscillator_strength_2> 
0.0007 
 
>  <oscillator_strength_3> 
0.0135 
 
>  <oscillator_strength_4> 
0.2682 
 
>  <open_babel_can_smiles> 
Cc1ccc(cc1)N(=O)=O 
 
>  <mulliken_charges> 
17 
1   -0.534219 
2   -0.193187 
3   -0.187689 
4   -0.144883 
5   -0.146118 
6   0.193412 
7   0.270564 
8   0.377929 
9   -0.397699 
10   -0.397246 
11   0.164286 
12   0.175191 
13   0.172388 
14   0.14163 
15   0.141334 
16   0.182092 
17   0.182216 
 
>  <lowdin_charges> 
17 
1   -0.443206 
2   -0.161489 
3   -0.158614 
4   -0.135614 
5   -0.136344 
6   0.025229 
7   -0.001874 
8   0.309166 
9   -0.250005 
10   -0.249991 
11   0.16147 
12   0.169046 
13   0.168077 
14   0.164399 
15   0.164423 
16   0.187685 
17   0.187641 
 
$$$$ 
 
