PCCDB-ID:  10279 
public computational chemistry database (PCCDB) project, http://pccdb.org 
 
 19 19  0  0  0  0  0  0  0  0999 V2000 
    1.6940   -1.0434    0.9468 C   0  0  0  0  0  0  0  0  0  0  0  0 
    4.3055   -0.7254   -3.6839 C   0  0  0  0  0  0  0  0  0  0  0  0 
    3.7938   -1.8089   -2.9751 C   0  0  0  0  0  0  0  0  0  0  0  0 
    3.5115    0.7524   -1.9587 C   0  0  0  0  0  0  0  0  0  0  0  0 
    2.3080    0.0298    0.0707 C   0  0  0  0  0  0  0  0  0  0  0  0 
    4.1643    0.5688   -3.1733 C   0  0  0  0  0  0  0  0  0  0  0  0 
    2.9887   -0.3246   -1.2279 C   0  0  0  0  0  0  0  0  0  0  0  0 
    3.1373   -1.6264   -1.7543 C   0  0  0  0  0  0  0  0  0  0  0  0 
    2.2537    1.2016    0.4164 O   0  0  0  0  0  0  0  0  0  0  0  0 
    4.6423    1.6806   -3.8168 O   0  0  0  0  0  0  0  0  0  0  0  0 
    2.6388   -2.7015   -1.0636 O   0  0  0  0  0  0  0  0  0  0  0  0 
    2.4485   -1.7704    1.2647 H   0  0  0  0  0  0  0  0  0  0  0  0 
    0.9327   -1.6105    0.4016 H   0  0  0  0  0  0  0  0  0  0  0  0 
    1.2501   -0.5563    1.8172 H   0  0  0  0  0  0  0  0  0  0  0  0 
    4.8134   -0.8930   -4.6318 H   0  0  0  0  0  0  0  0  0  0  0  0 
    3.9079   -2.8144   -3.3768 H   0  0  0  0  0  0  0  0  0  0  0  0 
    3.3956    1.7495   -1.5495 H   0  0  0  0  0  0  0  0  0  0  0  0 
    5.0692    1.4092   -4.6437 H   0  0  0  0  0  0  0  0  0  0  0  0 
    2.8253   -3.5066   -1.5711 H   0  0  0  0  0  0  0  0  0  0  0  0 
  1 12  1  0  0  0  0 
  1 14  1  0  0  0  0 
  2  6  2  0  0  0  0 
  2  3  1  0  0  0  0 
  3  8  2  0  0  0  0 
  4 17  1  0  0  0  0 
  4  7  2  0  0  0  0 
  5  9  2  0  0  0  0 
  5  1  1  0  0  0  0 
  6  4  1  0  0  0  0 
  7  5  1  0  0  0  0 
  8  7  1  0  0  0  0 
  8 11  1  0  0  0  0 
 10  6  1  0  0  0  0 
 13  1  1  0  0  0  0 
 15  2  1  0  0  0  0 
 16  3  1  0  0  0  0 
 18 10  1  0  0  0  0 
 19 11  1  0  0  0  0 
M  END 
>  <HBA> 
3 
 
>  <HBD> 
2 
 
>  <TPSA> 
57.53 
 
>  <cid> 
10279 
 
>  <dipole> 
5.73 
 
>  <excitation_energy_1> 
3.752 
 
>  <excitation_energy_2> 
3.872 
 
>  <excitation_energy_3> 
4.869 
 
>  <excitation_energy_4> 
5.03 
 
>  <homo_energy> 
-5.793 
 
>  <homo_lumo_gap> 
4.463 
 
>  <logP> 
1.3 
 
>  <lumo_energy> 
-1.331 
 
>  <melting_point> 
120.16 
 
>  <molecular_refractivity> 
40.68 
 
>  <oscillator_strength_1> 
0.0001 
 
>  <oscillator_strength_2> 
0.0817 
 
>  <oscillator_strength_3> 
0.0 
 
>  <oscillator_strength_4> 
0.0001 
 
>  <open_babel_can_smiles> 
Oc1ccc(c(c1)C(=O)C)O 
 
>  <mulliken_charges> 
19 
1   -0.515681 
2   -0.18842 
3   -0.195802 
4   -0.218185 
5   0.408638 
6   0.360712 
7   0.050291 
8   0.283288 
9   -0.453737 
10   -0.645206 
11   -0.649715 
12   0.174376 
13   0.174048 
14   0.167277 
15   0.127649 
16   0.12381 
17   0.179175 
18   0.405927 
19   0.411555 
 
>  <lowdin_charges> 
19 
1   -0.472464 
2   -0.185259 
3   -0.203762 
4   -0.14574 
5   0.167961 
6   0.08451 
7   -0.070701 
8   0.092997 
9   -0.248307 
10   -0.379858 
11   -0.374967 
12   0.174469 
13   0.174417 
14   0.167646 
15   0.157573 
16   0.155243 
17   0.188873 
18   0.357284 
19   0.360086 
 
$$$$ 
 
