PCCDB-ID:  11725 
public computational chemistry database (PCCDB) project, http://pccdb.org 
 
 15 15  0  0  0  0  0  0  0  0999 V2000 
    1.0300   -0.0910    0.3267 C   0  0  0  0  0  0  0  0  0  0  0  0 
    3.7073   -0.0285   -1.9858 C   0  0  0  0  0  0  0  0  0  0  0  0 
    2.8556    1.0341   -1.2414 C   0  0  0  0  0  0  0  0  0  0  0  0 
    2.8948   -1.1302   -1.2547 C   0  0  0  0  0  0  0  0  0  0  0  0 
    2.4536   -0.0619   -0.2122 C   0  0  0  0  0  0  0  0  0  0  0  0 
    0.8208    0.7866    0.9515 H   0  0  0  0  0  0  0  0  0  0  0  0 
    0.8525   -0.9843    0.9390 H   0  0  0  0  0  0  0  0  0  0  0  0 
    0.3001   -0.0983   -0.4928 H   0  0  0  0  0  0  0  0  0  0  0  0 
    4.7531   -0.0119   -1.6599 H   0  0  0  0  0  0  0  0  0  0  0  0 
    3.6864   -0.0219   -3.0803 H   0  0  0  0  0  0  0  0  0  0  0  0 
    1.9919    1.3487   -1.8401 H   0  0  0  0  0  0  0  0  0  0  0  0 
    3.3611    1.9303   -0.8657 H   0  0  0  0  0  0  0  0  0  0  0  0 
    3.4334   -2.0112   -0.8891 H   0  0  0  0  0  0  0  0  0  0  0  0 
    2.0432   -1.4696   -1.8572 H   0  0  0  0  0  0  0  0  0  0  0  0 
    3.1658   -0.0547    0.6239 H   0  0  0  0  0  0  0  0  0  0  0  0 
  1  7  1  0  0  0  0 
  1  6  1  0  0  0  0 
  2  9  1  0  0  0  0 
  2  4  1  0  0  0  0 
  2  3  1  0  0  0  0 
  3 12  1  0  0  0  0 
  3  5  1  0  0  0  0 
  4 13  1  0  0  0  0 
  4  5  1  0  0  0  0 
  5  1  1  0  0  0  0 
  5 15  1  0  0  0  0 
  8  1  1  0  0  0  0 
 10  2  1  0  0  0  0 
 11  3  1  0  0  0  0 
 14  4  1  0  0  0  0 
M  END 
>  <HBA> 
0 
 
>  <HBD> 
0 
 
>  <TPSA> 
0.0 
 
>  <cid> 
11725 
 
>  <dipole> 
0.09 
 
>  <excitation_energy_1> 
7.482 
 
>  <excitation_energy_2> 
7.559 
 
>  <excitation_energy_3> 
7.78 
 
>  <excitation_energy_4> 
7.838 
 
>  <homo_energy> 
-7.891 
 
>  <homo_lumo_gap> 
10.447 
 
>  <logP> 
1.806 
 
>  <lumo_energy> 
2.555 
 
>  <melting_point> 
-3.32 
 
>  <molecular_refractivity> 
24.04 
 
>  <oscillator_strength_1> 
0.0003 
 
>  <oscillator_strength_2> 
0.0685 
 
>  <oscillator_strength_3> 
0.0612 
 
>  <oscillator_strength_4> 
0.0008 
 
>  <open_babel_can_smiles> 
CC1CCC1 
 
>  <mulliken_charges> 
15 
1   -0.449272 
2   -0.276431 
3   -0.27478 
4   -0.274788 
5   -0.063748 
6   0.141658 
7   0.141669 
8   0.136859 
9   0.136276 
10   0.13315 
11   0.131498 
12   0.132003 
13   0.131993 
14   0.131515 
15   0.122397 
 
>  <lowdin_charges> 
15 
1   -0.447544 
2   -0.280017 
3   -0.289574 
4   -0.289785 
5   -0.125818 
6   0.149472 
7   0.149367 
8   0.144935 
9   0.142921 
10   0.138833 
11   0.143041 
12   0.140692 
13   0.140804 
14   0.143148 
15   0.139524 
 
$$$$ 
 
