PCCDB-ID:  56157 
public computational chemistry database (PCCDB) project, http://pccdb.org 
 
 27 28  0  0  1  0  0  0  0  0999 V2000 
    0.8916    0.1761    0.0221 C   0  0  0  0  0  0  0  0  0  0  0  0 
    2.2644   -3.7923    0.7275 C   0  0  0  0  0  0  0  0  0  0  0  0 
    4.5830    0.9908    0.9416 C   0  0  0  0  0  0  0  0  0  0  0  0 
    5.0959   -0.4473    1.2776 C   0  0  0  0  0  0  0  0  0  0  0  0 
    3.0349   -0.0573    2.4326 C   0  0  0  0  0  0  0  0  0  0  0  0 
    2.4144    0.0152    0.1037 C   0  0  1  0  0  0  0  0  0  0  0  0 
    3.0642    0.8892    1.2127 C   0  0  2  0  0  0  0  0  0  0  0  0 
    3.8112   -1.1854    1.7215 C   0  0  1  0  0  0  0  0  0  0  0  0 
    2.9218   -1.4404    0.4645 C   0  0  1  0  0  0  0  0  0  0  0  0 
    1.8329   -2.4026    0.6313 N   0  0  0  0  0  0  0  0  0  0  0  0 
    0.6412    1.1947   -0.2975 H   0  0  0  0  0  0  0  0  0  0  0  0 
    0.4008    0.0108    0.9892 H   0  0  0  0  0  0  0  0  0  0  0  0 
    0.4563   -0.5298   -0.6900 H   0  0  0  0  0  0  0  0  0  0  0  0 
    1.3868   -4.4329    0.8671 H   0  0  0  0  0  0  0  0  0  0  0  0 
    2.9782   -4.0105    1.5424 H   0  0  0  0  0  0  0  0  0  0  0  0 
    2.7425   -4.0863   -0.2149 H   0  0  0  0  0  0  0  0  0  0  0  0 
    4.7969    1.2874   -0.0913 H   0  0  0  0  0  0  0  0  0  0  0  0 
    5.0469    1.7378    1.5963 H   0  0  0  0  0  0  0  0  0  0  0  0 
    5.8305   -0.4243    2.0907 H   0  0  0  0  0  0  0  0  0  0  0  0 
    5.5773   -0.9362    0.4226 H   0  0  0  0  0  0  0  0  0  0  0  0 
    2.0222   -0.3450    2.7399 H   0  0  0  0  0  0  0  0  0  0  0  0 
    3.5561    0.3453    3.3093 H   0  0  0  0  0  0  0  0  0  0  0  0 
    2.8235    0.3006   -0.8740 H   0  0  0  0  0  0  0  0  0  0  0  0 
    2.5734    1.8594    1.3416 H   0  0  0  0  0  0  0  0  0  0  0  0 
    4.0051   -2.0900    2.3062 H   0  0  0  0  0  0  0  0  0  0  0  0 
    3.5387   -1.8336   -0.3540 H   0  0  0  0  0  0  0  0  0  0  0  0 
    1.2741   -2.1623    1.4476 H   0  0  0  0  0  0  0  0  0  0  0  0 
  1  6  1  0  0  0  0 
  1 12  1  0  0  0  0 
  2 14  1  0  0  0  0 
  2 15  1  0  0  0  0 
  3  7  1  0  0  0  0 
  3  4  1  0  0  0  0 
  3 18  1  0  0  0  0 
  4  8  1  0  0  0  0 
  4 19  1  0  0  0  0 
  5 21  1  0  0  0  0 
  5 22  1  0  0  0  0 
  6 23  1  6  0  0  0 
  6  9  1  0  0  0  0 
  6  7  1  0  0  0  0 
  7 24  1  1  0  0  0 
  7  5  1  0  0  0  0 
  8 25  1  1  0  0  0 
  8  5  1  0  0  0  0 
  9 26  1  6  0  0  0 
  9 10  1  0  0  0  0 
  9  8  1  0  0  0  0 
 10  2  1  0  0  0  0 
 10 27  1  0  0  0  0 
 11  1  1  0  0  0  0 
 13  1  1  0  0  0  0 
 16  2  1  0  0  0  0 
 17  3  1  0  0  0  0 
 20  4  1  0  0  0  0 
M  END 
>  <HBA> 
1 
 
>  <HBD> 
1 
 
>  <TPSA> 
12.03 
 
>  <cid> 
56157 
 
>  <dipole> 
0.87 
 
>  <excitation_energy_1> 
5.1 
 
>  <excitation_energy_2> 
5.479 
 
>  <excitation_energy_3> 
5.655 
 
>  <excitation_energy_4> 
5.687 
 
>  <homo_energy> 
-5.649 
 
>  <homo_lumo_gap> 
7.693 
 
>  <logP> 
2.031 
 
>  <lumo_energy> 
2.044 
 
>  <melting_point> 
43.78 
 
>  <molecular_refractivity> 
43.95 
 
>  <oscillator_strength_1> 
0.0003 
 
>  <oscillator_strength_2> 
0.0044 
 
>  <oscillator_strength_3> 
0.0143 
 
>  <oscillator_strength_4> 
0.0047 
 
>  <open_babel_can_smiles> 
CN[C@@H]1[C@H]2CC[C@@H]([C@@H]1C)C2 
 
>  <mulliken_charges> 
27 
1   -0.446139 
2   -0.300722 
3   -0.272934 
4   -0.27282 
5   -0.281038 
6   -0.091095 
7   -0.097435 
8   -0.113928 
9   0.039224 
10   -0.548782 
11   0.135159 
12   0.127861 
13   0.163283 
14   0.146171 
15   0.122896 
16   0.149776 
17   0.131464 
18   0.1321 
19   0.133563 
20   0.13121 
21   0.122488 
22   0.131601 
23   0.121007 
24   0.111873 
25   0.114782 
26   0.118614 
27   0.291823 
 
>  <lowdin_charges> 
27 
1   -0.444909 
2   -0.360775 
3   -0.286079 
4   -0.28686 
5   -0.289174 
6   -0.134604 
7   -0.135378 
8   -0.15412 
9   -0.075355 
10   -0.353889 
11   0.145516 
12   0.139438 
13   0.161614 
14   0.150136 
15   0.1212 
16   0.147373 
17   0.140859 
18   0.144019 
19   0.144783 
20   0.14244 
21   0.135522 
22   0.144289 
23   0.138599 
24   0.138672 
25   0.13927 
26   0.137512 
27   0.249902 
 
$$$$ 
 
