PCCDB-ID:  61282 
public computational chemistry database (PCCDB) project, http://pccdb.org 
 
 22 22  0  0  0  0  0  0  0  0999 V2000 
    0.8832    2.8856   -1.2103 C   0  0  0  0  0  0  0  0  0  0  0  0 
    2.8088    3.0757    0.4311 C   0  0  0  0  0  0  0  0  0  0  0  0 
    6.3619    3.2917   -4.2368 C   0  0  0  0  0  0  0  0  0  0  0  0 
    5.9430    1.9945   -3.7937 C   0  0  0  0  0  0  0  0  0  0  0  0 
    6.0381    4.1550   -3.2371 C   0  0  0  0  0  0  0  0  0  0  0  0 
    4.7753    1.2324   -1.5743 C   0  0  0  0  0  0  0  0  0  0  0  0 
    2.4015    2.8061   -1.0182 C   0  0  0  0  0  0  0  0  0  0  0  0 
    5.3941    2.1598   -2.5547 C   0  0  0  0  0  0  0  0  0  0  0  0 
    5.4485    3.4858   -2.2026 O   0  0  0  0  0  0  0  0  0  0  0  0 
    2.9230    1.1269   -1.6111 S   0  0  0  0  0  0  0  0  0  0  0  0 
    0.5219    3.8768   -0.9112 H   0  0  0  0  0  0  0  0  0  0  0  0 
    0.3673    2.1403   -0.5935 H   0  0  0  0  0  0  0  0  0  0  0  0 
    0.6013    2.7200   -2.2550 H   0  0  0  0  0  0  0  0  0  0  0  0 
    2.4691    4.0744    0.7354 H   0  0  0  0  0  0  0  0  0  0  0  0 
    3.8951    3.0481    0.5618 H   0  0  0  0  0  0  0  0  0  0  0  0 
    2.3606    2.3398    1.1078 H   0  0  0  0  0  0  0  0  0  0  0  0 
    6.8441    3.5413   -5.1718 H   0  0  0  0  0  0  0  0  0  0  0  0 
    6.0317    1.0597   -4.3299 H   0  0  0  0  0  0  0  0  0  0  0  0 
    6.1577    5.2186   -3.0985 H   0  0  0  0  0  0  0  0  0  0  0  0 
    5.0995    1.4731   -0.5573 H   0  0  0  0  0  0  0  0  0  0  0  0 
    5.0988    0.2103   -1.7891 H   0  0  0  0  0  0  0  0  0  0  0  0 
    2.8845    3.5373   -1.6741 H   0  0  0  0  0  0  0  0  0  0  0  0 
  1  7  1  0  0  0  0 
  1 11  1  0  0  0  0 
  1 12  1  0  0  0  0 
  2 15  1  0  0  0  0 
  2 14  1  0  0  0  0 
  2 16  1  0  0  0  0 
  3  4  1  0  0  0  0 
  3  5  2  0  0  0  0 
  4  8  2  0  0  0  0 
  5 19  1  0  0  0  0 
  5  9  1  0  0  0  0 
  6 20  1  0  0  0  0 
  7  2  1  0  0  0  0 
  8  9  1  0  0  0  0 
  8  6  1  0  0  0  0 
 10  6  1  0  0  0  0 
 10  7  1  0  0  0  0 
 13  1  1  0  0  0  0 
 17  3  1  0  0  0  0 
 18  4  1  0  0  0  0 
 21  6  1  0  0  0  0 
 22  7  1  0  0  0  0 
M  END 
>  <HBA> 
2 
 
>  <HBD> 
0 
 
>  <TPSA> 
38.44 
 
>  <cid> 
61282 
 
>  <dipole> 
1.53 
 
>  <excitation_energy_1> 
4.763 
 
>  <excitation_energy_2> 
5.256 
 
>  <excitation_energy_3> 
5.466 
 
>  <excitation_energy_4> 
5.532 
 
>  <homo_energy> 
-5.766 
 
>  <homo_lumo_gap> 
5.861 
 
>  <logP> 
2.921 
 
>  <lumo_energy> 
0.095 
 
>  <melting_point> 
13.36 
 
>  <molecular_refractivity> 
45.69 
 
>  <oscillator_strength_1> 
0.0295 
 
>  <oscillator_strength_2> 
0.0153 
 
>  <oscillator_strength_3> 
0.106 
 
>  <oscillator_strength_4> 
0.1501 
 
>  <open_babel_can_smiles> 
CC(SCc1ccco1)C 
 
>  <mulliken_charges> 
22 
1   -0.45226 
2   -0.435996 
3   -0.178819 
4   -0.195371 
5   0.079546 
6   -0.527624 
7   -0.22701 
8   0.36757 
9   -0.435881 
10   0.084822 
11   0.149141 
12   0.15783 
13   0.164124 
14   0.144814 
15   0.152217 
16   0.15609 
17   0.141803 
18   0.14053 
19   0.153465 
20   0.190815 
21   0.19167 
22   0.178523 
 
>  <lowdin_charges> 
22 
1   -0.445294 
2   -0.446244 
3   -0.201856 
4   -0.211202 
5   -0.082875 
6   -0.376397 
7   -0.215175 
8   0.061355 
9   -0.107893 
10   0.076833 
11   0.153589 
12   0.156789 
13   0.159684 
14   0.150661 
15   0.15069 
16   0.156497 
17   0.169426 
18   0.169397 
19   0.168529 
20   0.170808 
21   0.18292 
22   0.159759 
 
$$$$ 
 
