PCCDB-ID:  69245 
public computational chemistry database (PCCDB) project, http://pccdb.org 
 
 10 10  0  0  0  0  0  0  0  0999 V2000 
   -1.2081    0.0210    0.0027 C   0  0  0  0  0  0  0  0  0  0  0  0 
   -0.4008   -1.1542    0.0006 C   0  0  0  0  0  0  0  0  0  0  0  0 
   -0.3416    1.0756    0.0021 C   0  0  0  0  0  0  0  0  0  0  0  0 
    2.1313   -1.4217   -0.0069 C   0  0  0  0  0  0  0  0  0  0  0  0 
    0.9009   -0.7232   -0.0017 C   0  0  0  0  0  0  0  0  0  0  0  0 
    3.1309   -2.0187   -0.0117 N   0  0  0  0  0  0  0  0  0  0  0  0 
    0.9451    0.6479   -0.0007 O   0  0  0  0  0  0  0  0  0  0  0  0 
   -2.2874    0.0733    0.0064 H   0  0  0  0  0  0  0  0  0  0  0  0 
   -0.7278   -2.1841   -0.0008 H   0  0  0  0  0  0  0  0  0  0  0  0 
   -0.4748    2.1468    0.0019 H   0  0  0  0  0  0  0  0  0  0  0  0 
  1  8  1  0  0  0  0 
  2  1  1  0  0  0  0 
  3  1  2  0  0  0  0 
  4  5  1  0  0  0  0 
  5  7  1  0  0  0  0 
  5  2  2  0  0  0  0 
  6  4  3  0  0  0  0 
  7  3  1  0  0  0  0 
  9  2  1  0  0  0  0 
 10  3  1  0  0  0  0 
M  END 
>  <HBA> 
2 
 
>  <HBD> 
0 
 
>  <TPSA> 
36.93 
 
>  <cid> 
69245 
 
>  <dipole> 
4.74 
 
>  <excitation_energy_1> 
5.336 
 
>  <excitation_energy_2> 
5.608 
 
>  <excitation_energy_3> 
6.221 
 
>  <excitation_energy_4> 
6.236 
 
>  <homo_energy> 
-6.874 
 
>  <homo_lumo_gap> 
5.578 
 
>  <logP> 
1.151 
 
>  <lumo_energy> 
-1.295 
 
>  <melting_point> 
40.28 
 
>  <molecular_refractivity> 
23.42 
 
>  <oscillator_strength_1> 
0.349 
 
>  <oscillator_strength_2> 
0.0001 
 
>  <oscillator_strength_3> 
0.0053 
 
>  <oscillator_strength_4> 
0.0103 
 
>  <open_babel_can_smiles> 
N#Cc1ccco1 
 
>  <mulliken_charges> 
10 
1   -0.183778 
2   -0.148512 
3   0.107574 
4   0.261071 
5   0.34676 
6   -0.478041 
7   -0.412958 
8   0.161594 
9   0.170928 
10   0.175361 
 
>  <lowdin_charges> 
10 
1   -0.195265 
2   -0.158807 
3   -0.049884 
4   -0.016918 
5   0.050737 
6   -0.09678 
7   -0.074981 
8   0.17777 
9   0.184176 
10   0.179953 
 
$$$$ 
 
