PCCDB-ID:  62103 
public computational chemistry database (PCCDB) project, http://pccdb.org 
 
 22 22  0  0  0  0  0  0  0  0999 V2000 
    2.3890   -1.3250   -0.7337 C   0  0  0  0  0  0  0  0  0  0  0  0 
    0.3649    2.6424   -4.2769 C   0  0  0  0  0  0  0  0  0  0  0  0 
    0.9177    1.6278   -3.3140 C   0  0  0  0  0  0  0  0  0  0  0  0 
    1.3806    3.7626   -4.5333 C   0  0  0  0  0  0  0  0  0  0  0  0 
    2.5859    3.2554   -2.3726 C   0  0  0  0  0  0  0  0  0  0  0  0 
    1.9276    1.8987   -2.4722 C   0  0  0  0  0  0  0  0  0  0  0  0 
    2.4887    0.8848   -1.5399 C   0  0  0  0  0  0  0  0  0  0  0  0 
    1.8775    5.5210   -3.0010 N   0  0  0  0  0  0  0  0  0  0  0  0 
    1.9592    4.2103   -3.2783 N   0  0  0  0  0  0  0  0  0  0  0  0 
    3.4135    1.1150   -0.7838 O   0  0  0  0  0  0  0  0  0  0  0  0 
    2.3999    5.8649   -1.9453 O   0  0  0  0  0  0  0  0  0  0  0  0 
    1.8739   -0.3167   -1.6178 O   0  0  0  0  0  0  0  0  0  0  0  0 
    1.7857   -2.2134   -0.9225 H   0  0  0  0  0  0  0  0  0  0  0  0 
    2.2925   -1.0083    0.3081 H   0  0  0  0  0  0  0  0  0  0  0  0 
    3.4426   -1.5223   -0.9484 H   0  0  0  0  0  0  0  0  0  0  0  0 
   -0.5668    3.0647   -3.8724 H   0  0  0  0  0  0  0  0  0  0  0  0 
    0.0958    2.1583   -5.2242 H   0  0  0  0  0  0  0  0  0  0  0  0 
    0.4743    0.6366   -3.3036 H   0  0  0  0  0  0  0  0  0  0  0  0 
    0.9252    4.6384   -5.0010 H   0  0  0  0  0  0  0  0  0  0  0  0 
    2.1790    3.3936   -5.1921 H   0  0  0  0  0  0  0  0  0  0  0  0 
    3.6643    3.1806   -2.5729 H   0  0  0  0  0  0  0  0  0  0  0  0 
    2.5014    3.6652   -1.3616 H   0  0  0  0  0  0  0  0  0  0  0  0 
  1 14  1  0  0  0  0 
  2 16  1  0  0  0  0 
  2  3  1  0  0  0  0 
  3 18  1  0  0  0  0 
  3  6  2  0  0  0  0 
  4  2  1  0  0  0  0 
  4  9  1  0  0  0  0 
  5 22  1  0  0  0  0 
  6  5  1  0  0  0  0 
  6  7  1  0  0  0  0 
  7 10  2  0  0  0  0 
  8 11  2  0  0  0  0 
  9  8  1  0  0  0  0 
  9  5  1  0  0  0  0 
 12  7  1  0  0  0  0 
 12  1  1  0  0  0  0 
 13  1  1  0  0  0  0 
 15  1  1  0  0  0  0 
 17  2  1  0  0  0  0 
 19  4  1  0  0  0  0 
 20  4  1  0  0  0  0 
 21  5  1  0  0  0  0 
M  END 
>  <HBA> 
5 
 
>  <HBD> 
0 
 
>  <TPSA> 
58.97 
 
>  <cid> 
62103 
 
>  <dipole> 
5.69 
 
>  <excitation_energy_1> 
3.376 
 
>  <excitation_energy_2> 
4.108 
 
>  <excitation_energy_3> 
4.741 
 
>  <excitation_energy_4> 
4.916 
 
>  <homo_energy> 
-6.082 
 
>  <homo_lumo_gap> 
4.697 
 
>  <logP> 
0.411 
 
>  <lumo_energy> 
-1.385 
 
>  <melting_point> 
42.69 
 
>  <molecular_refractivity> 
46.01 
 
>  <oscillator_strength_1> 
0.0012 
 
>  <oscillator_strength_2> 
0.0008 
 
>  <oscillator_strength_3> 
0.0109 
 
>  <oscillator_strength_4> 
0.0055 
 
>  <open_babel_can_smiles> 
COC(=O)C1=CCCN(C1)N=O 
 
>  <mulliken_charges> 
22 
1   -0.218385 
2   -0.313666 
3   -0.151897 
4   -0.143244 
5   -0.169174 
6   0.044627 
7   0.609086 
8   0.14858 
9   -0.245265 
10   -0.486185 
11   -0.373285 
12   -0.470671 
13   0.165725 
14   0.174773 
15   0.173187 
16   0.178371 
17   0.160251 
18   0.168876 
19   0.181797 
20   0.162884 
21   0.187895 
22   0.21572 
 
>  <lowdin_charges> 
22 
1   -0.273988 
2   -0.282976 
3   -0.13165 
4   -0.197942 
5   -0.205655 
6   -0.060102 
7   0.193157 
8   0.052888 
9   -0.045022 
10   -0.263829 
11   -0.266638 
12   -0.191467 
13   0.161597 
14   0.16035 
15   0.159469 
16   0.168811 
17   0.162458 
18   0.175428 
19   0.172693 
20   0.152904 
21   0.169804 
22   0.189707 
 
$$$$ 
 
