PCCDB-ID:  26331 
public computational chemistry database (PCCDB) project, http://pccdb.org 
 
 16 16  0  0  0  0  0  0  0  0999 V2000 
    1.1079    0.1079    0.0418 C   0  0  0  0  0  0  0  0  0  0  0  0 
    2.6238    0.0226   -0.2040 C   0  0  0  0  0  0  0  0  0  0  0  0 
    3.5877   -2.8284   -3.1277 C   0  0  0  0  0  0  0  0  0  0  0  0 
    3.0788   -3.1974   -1.8812 C   0  0  0  0  0  0  0  0  0  0  0  0 
    3.4935   -0.6499   -2.5064 C   0  0  0  0  0  0  0  0  0  0  0  0 
    2.9813   -1.0059   -1.2498 C   0  0  0  0  0  0  0  0  0  0  0  0 
    3.7988   -1.5476   -3.4483 N   0  0  0  0  0  0  0  0  0  0  0  0 
    2.7748   -2.2975   -0.9421 N   0  0  0  0  0  0  0  0  0  0  0  0 
    0.8845    0.8275    0.8368 H   0  0  0  0  0  0  0  0  0  0  0  0 
    0.7169   -0.8698    0.3399 H   0  0  0  0  0  0  0  0  0  0  0  0 
    0.5772    0.4253   -0.8631 H   0  0  0  0  0  0  0  0  0  0  0  0 
    3.1244   -0.2493    0.7334 H   0  0  0  0  0  0  0  0  0  0  0  0 
    3.0128    1.0025   -0.5057 H   0  0  0  0  0  0  0  0  0  0  0  0 
    3.8297   -3.5762   -3.8804 H   0  0  0  0  0  0  0  0  0  0  0  0 
    2.9151   -4.2446   -1.6322 H   0  0  0  0  0  0  0  0  0  0  0  0 
    3.6638    0.3965   -2.7558 H   0  0  0  0  0  0  0  0  0  0  0  0 
  1 10  1  0  0  0  0 
  1  9  1  0  0  0  0 
  2  1  1  0  0  0  0 
  2 12  1  0  0  0  0 
  3  4  1  0  0  0  0 
  4 15  1  0  0  0  0 
  4  8  2  0  0  0  0 
  5  6  2  0  0  0  0 
  6  8  1  0  0  0  0 
  6  2  1  0  0  0  0 
  7  3  2  0  0  0  0 
  7  5  1  0  0  0  0 
 11  1  1  0  0  0  0 
 13  2  1  0  0  0  0 
 14  3  1  0  0  0  0 
 16  5  1  0  0  0  0 
M  END 
>  <HBA> 
2 
 
>  <HBD> 
0 
 
>  <TPSA> 
25.78 
 
>  <cid> 
26331 
 
>  <dipole> 
0.61 
 
>  <excitation_energy_1> 
3.974 
 
>  <excitation_energy_2> 
4.724 
 
>  <excitation_energy_3> 
5.201 
 
>  <excitation_energy_4> 
5.592 
 
>  <homo_energy> 
-6.664 
 
>  <homo_lumo_gap> 
5.366 
 
>  <logP> 
1.039 
 
>  <lumo_energy> 
-1.298 
 
>  <melting_point> 
37.5 
 
>  <molecular_refractivity> 
31.8 
 
>  <oscillator_strength_1> 
0.0055 
 
>  <oscillator_strength_2> 
0.0001 
 
>  <oscillator_strength_3> 
0.1198 
 
>  <oscillator_strength_4> 
0.0001 
 
>  <open_babel_can_smiles> 
CCc1cnccn1 
 
>  <mulliken_charges> 
16 
1   -0.443291 
2   -0.318493 
3   0.028391 
4   0.033758 
5   -0.005365 
6   0.301919 
7   -0.375949 
8   -0.435319 
9   0.147934 
10   0.170352 
11   0.147043 
12   0.163188 
13   0.14317 
14   0.149042 
15   0.148355 
16   0.145265 
 
>  <lowdin_charges> 
16 
1   -0.440776 
2   -0.27476 
3   -0.114377 
4   -0.101436 
5   -0.116278 
6   0.039137 
7   -0.118852 
8   -0.132138 
9   0.15337 
10   0.16082 
11   0.150299 
12   0.162607 
13   0.148906 
14   0.16402 
15   0.160604 
16   0.158853 
 
$$$$ 
 
