PCCDB-ID:  26702 
public computational chemistry database (PCCDB) project, http://pccdb.org 
 
 28 28  0  0  1  0  0  0  0  0999 V2000 
    0.9561   -0.0874   -0.3304 C   0  0  0  0  0  0  0  0  0  0  0  0 
    3.6853    2.0749   -1.7334 C   0  0  0  0  0  0  0  0  0  0  0  0 
    4.1991   -1.2840    0.2523 C   0  0  0  0  0  0  0  0  0  0  0  0 
    2.1435    0.0298   -0.1429 C   0  0  0  0  0  0  0  0  0  0  0  0 
    4.1983    0.6928   -1.3221 C   0  0  0  0  0  0  0  0  0  0  0  0 
    3.4985    0.5645    5.2445 C   0  0  0  0  0  0  0  0  0  0  0  0 
    4.5369    1.3376    4.7202 C   0  0  0  0  0  0  0  0  0  0  0  0 
    2.6136   -0.0549    4.3619 C   0  0  0  0  0  0  0  0  0  0  0  0 
    4.6896    1.4789    3.3447 C   0  0  0  0  0  0  0  0  0  0  0  0 
    2.7507    0.0848    2.9806 C   0  0  0  0  0  0  0  0  0  0  0  0 
    3.8003    0.8554    2.4472 C   0  0  0  0  0  0  0  0  0  0  0  0 
    3.6118    0.1280    0.0053 C   0  0  2  0  0  0  0  0  0  0  0  0 
    3.9744    1.0803    1.0738 N   0  0  0  0  0  0  0  0  0  0  0  0 
   -0.0972   -0.1764   -0.4719 H   0  0  0  0  0  0  0  0  0  0  0  0 
    4.1557    2.3919   -2.6709 H   0  0  0  0  0  0  0  0  0  0  0  0 
    3.9006    2.8308   -0.9717 H   0  0  0  0  0  0  0  0  0  0  0  0 
    2.6016    2.0578   -1.8846 H   0  0  0  0  0  0  0  0  0  0  0  0 
    3.9003   -1.9717   -0.5454 H   0  0  0  0  0  0  0  0  0  0  0  0 
    3.8539   -1.6909    1.2057 H   0  0  0  0  0  0  0  0  0  0  0  0 
    5.2935   -1.2279    0.2774 H   0  0  0  0  0  0  0  0  0  0  0  0 
    5.2928    0.7098   -1.2126 H   0  0  0  0  0  0  0  0  0  0  0  0 
    3.9804   -0.0355   -2.1113 H   0  0  0  0  0  0  0  0  0  0  0  0 
    3.3830    0.4473    6.3181 H   0  0  0  0  0  0  0  0  0  0  0  0 
    5.2420    1.8297    5.3856 H   0  0  0  0  0  0  0  0  0  0  0  0 
    1.7941   -0.6560    4.7486 H   0  0  0  0  0  0  0  0  0  0  0  0 
    5.5053    2.0831    2.9508 H   0  0  0  0  0  0  0  0  0  0  0  0 
    2.0342   -0.3866    2.3192 H   0  0  0  0  0  0  0  0  0  0  0  0 
    4.8698    1.5121    0.8769 H   0  0  0  0  0  0  0  0  0  0  0  0 
  1  4  3  0  0  0  0 
  2  5  1  0  0  0  0 
  2 16  1  0  0  0  0 
  3 20  1  0  0  0  0 
  3 19  1  0  0  0  0 
  5 21  1  0  0  0  0 
  5 12  1  0  0  0  0 
  6 23  1  0  0  0  0 
  7  6  1  0  0  0  0 
  7 24  1  0  0  0  0 
  8 25  1  0  0  0  0 
  8  6  2  0  0  0  0 
  9  7  2  0  0  0  0 
 10  8  1  0  0  0  0 
 11 10  2  0  0  0  0 
 11  9  1  0  0  0  0 
 12  4  1  6  0  0  0 
 12  3  1  0  0  0  0 
 12 13  1  0  0  0  0 
 13 11  1  0  0  0  0 
 14  1  1  0  0  0  0 
 15  2  1  0  0  0  0 
 17  2  1  0  0  0  0 
 18  3  1  0  0  0  0 
 22  5  1  0  0  0  0 
 26  9  1  0  0  0  0 
 27 10  1  0  0  0  0 
 28 13  1  0  0  0  0 
M  END 
>  <HBA> 
1 
 
>  <HBD> 
1 
 
>  <TPSA> 
12.03 
 
>  <cid> 
26702 
 
>  <dipole> 
1.82 
 
>  <excitation_energy_1> 
4.607 
 
>  <excitation_energy_2> 
4.735 
 
>  <excitation_energy_3> 
5.156 
 
>  <excitation_energy_4> 
5.184 
 
>  <homo_energy> 
-5.249 
 
>  <homo_lumo_gap> 
5.546 
 
>  <logP> 
2.973 
 
>  <lumo_energy> 
0.297 
 
>  <melting_point> 
62.92 
 
>  <molecular_refractivity> 
57.98 
 
>  <oscillator_strength_1> 
0.0242 
 
>  <oscillator_strength_2> 
0.0077 
 
>  <oscillator_strength_3> 
0.1377 
 
>  <oscillator_strength_4> 
0.0177 
 
>  <open_babel_can_smiles> 
CC[C@@](Nc1ccccc1)(C#C)C 
 
>  <mulliken_charges> 
28 
1   -0.503113 
2   -0.445941 
3   -0.442455 
4   0.380962 
5   -0.279797 
6   -0.137067 
7   -0.133133 
8   -0.142488 
9   -0.197715 
10   -0.176906 
11   0.354818 
12   0.056706 
13   -0.668113 
14   0.192065 
15   0.142909 
16   0.15462 
17   0.164824 
18   0.152484 
19   0.170533 
20   0.142721 
21   0.131942 
22   0.152731 
23   0.119041 
24   0.123071 
25   0.123664 
26   0.110865 
27   0.140782 
28   0.311991 
 
>  <lowdin_charges> 
28 
1   -0.255761 
2   -0.448263 
3   -0.445112 
4   -0.034228 
5   -0.266982 
6   -0.186436 
7   -0.150097 
8   -0.147548 
9   -0.202577 
10   -0.208663 
11   0.061738 
12   0.083257 
13   -0.292053 
14   0.204814 
15   0.151695 
16   0.154222 
17   0.159602 
18   0.15864 
19   0.166106 
20   0.148972 
21   0.138713 
22   0.156627 
23   0.15216 
24   0.156387 
25   0.155642 
26   0.149135 
27   0.170523 
28   0.269491 
 
$$$$ 
 
