PCCDB-ID:  23251 
public computational chemistry database (PCCDB) project, http://pccdb.org 
 
 33 35  0  0  1  0  0  0  0  0999 V2000 
    4.5377    2.4215    2.6965 C   0  0  0  0  0  0  0  0  0  0  0  0 
    3.1671    2.1713    2.7628 C   0  0  0  0  0  0  0  0  0  0  0  0 
    5.2895    1.8712    1.6550 C   0  0  0  0  0  0  0  0  0  0  0  0 
    0.3630   -1.9637    4.0379 C   0  0  0  0  0  0  0  0  0  0  0  0 
   -0.4006   -1.8708    2.8651 C   0  0  0  0  0  0  0  0  0  0  0  0 
    2.5507    1.3771    1.7930 C   0  0  0  0  0  0  0  0  0  0  0  0 
    4.6717    1.0787    0.6882 C   0  0  0  0  0  0  0  0  0  0  0  0 
    1.7496   -2.1823    4.0012 C   0  0  0  0  0  0  0  0  0  0  0  0 
    0.1838   -1.9939    1.5941 C   0  0  0  0  0  0  0  0  0  0  0  0 
    2.6292   -0.0191   -0.3371 C   0  0  0  0  0  0  0  0  0  0  0  0 
    3.6219   -2.5113    1.9939 C   0  0  0  0  0  0  0  0  0  0  0  0 
    3.2933    0.8259    0.7433 C   0  0  0  0  0  0  0  0  0  0  0  0 
    2.3159   -2.2924    2.7394 C   0  0  0  0  0  0  0  0  0  0  0  0 
    1.5568   -2.2015    1.5734 C   0  0  0  0  0  0  0  0  0  0  0  0 
    2.7498   -2.4612    0.6564 C   0  0  1  0  0  0  0  0  0  0  0  0 
    3.1397   -1.4452   -0.3888 C   0  0  0  0  0  0  0  0  0  0  0  0 
    3.9328   -1.7015   -1.3671 N   0  0  0  0  0  0  0  0  0  0  0  0 
    4.4132   -3.0307   -1.3286 O   0  0  0  0  0  0  0  0  0  0  0  0 
    5.0183    3.0399    3.4501 H   0  0  0  0  0  0  0  0  0  0  0  0 
    2.5739    2.5923    3.5706 H   0  0  0  0  0  0  0  0  0  0  0  0 
    6.3582    2.0612    1.5949 H   0  0  0  0  0  0  0  0  0  0  0  0 
   -0.1359   -1.8647    4.9988 H   0  0  0  0  0  0  0  0  0  0  0  0 
   -1.4720   -1.7050    2.9461 H   0  0  0  0  0  0  0  0  0  0  0  0 
    1.4837    1.1788    1.8556 H   0  0  0  0  0  0  0  0  0  0  0  0 
    5.2572    0.6478   -0.1206 H   0  0  0  0  0  0  0  0  0  0  0  0 
    2.3272   -2.2549    4.9192 H   0  0  0  0  0  0  0  0  0  0  0  0 
   -0.4222   -1.9314    0.6934 H   0  0  0  0  0  0  0  0  0  0  0  0 
    2.8150    0.4297   -1.3191 H   0  0  0  0  0  0  0  0  0  0  0  0 
    1.5458   -0.0267   -0.1758 H   0  0  0  0  0  0  0  0  0  0  0  0 
    4.1292   -3.4678    2.1584 H   0  0  0  0  0  0  0  0  0  0  0  0 
    4.3524   -1.7012    2.0794 H   0  0  0  0  0  0  0  0  0  0  0  0 
    2.7198   -3.4441    0.1759 H   0  0  0  0  0  0  0  0  0  0  0  0 
    4.9250   -3.0790   -2.1507 H   0  0  0  0  0  0  0  0  0  0  0  0 
  1  2  1  0  0  0  0 
  1 19  1  0  0  0  0 
  2 20  1  0  0  0  0 
  3  1  2  0  0  0  0 
  4 22  1  0  0  0  0 
  5 23  1  0  0  0  0 
  5  4  2  0  0  0  0 
  6 24  1  0  0  0  0 
  6  2  2  0  0  0  0 
  7 12  2  0  0  0  0 
  7  3  1  0  0  0  0 
  8  4  1  0  0  0  0 
  8 26  1  0  0  0  0 
  9  5  1  0  0  0  0 
 10 29  1  0  0  0  0 
 10 12  1  0  0  0  0 
 11 31  1  0  0  0  0 
 11 30  1  0  0  0  0 
 11 13  1  0  0  0  0 
 12  6  1  0  0  0  0 
 13  8  2  0  0  0  0 
 14  9  2  0  0  0  0 
 14 13  1  0  0  0  0 
 15 32  1  6  0  0  0 
 15 14  1  0  0  0  0 
 15 11  1  0  0  0  0 
 16 10  1  0  0  0  0 
 16 15  1  0  0  0  0 
 17 18  1  0  0  0  0 
 17 16  2  0  0  0  0 
 21  3  1  0  0  0  0 
 25  7  1  0  0  0  0 
 27  9  1  0  0  0  0 
 28 10  1  0  0  0  0 
 33 18  1  0  0  0  0 
M  END 
>  <HBA> 
2 
 
>  <HBD> 
1 
 
>  <TPSA> 
32.59 
 
>  <cid> 
23251 
 
>  <dipole> 
0.4 
 
>  <excitation_energy_1> 
5.132 
 
>  <excitation_energy_2> 
5.219 
 
>  <excitation_energy_3> 
5.239 
 
>  <excitation_energy_4> 
5.52 
 
>  <homo_energy> 
-6.286 
 
>  <homo_lumo_gap> 
6.079 
 
>  <logP> 
3.399 
 
>  <lumo_energy> 
-0.207 
 
>  <melting_point> 
135.4 
 
>  <molecular_refractivity> 
72.78 
 
>  <oscillator_strength_1> 
0.0316 
 
>  <oscillator_strength_2> 
0.0084 
 
>  <oscillator_strength_3> 
0.0215 
 
>  <oscillator_strength_4> 
0.0306 
 
>  <open_babel_can_smiles> 
O/N=C(\[C@H]1Cc2c1cccc2)/Cc1ccccc1 
 
>  <mulliken_charges> 
33 
1   -0.130932 
2   -0.127926 
3   -0.129679 
4   -0.133515 
5   -0.140463 
6   -0.18515 
7   -0.179195 
8   -0.20752 
9   -0.21323 
10   -0.413646 
11   -0.348254 
12   0.16344 
13   0.139641 
14   0.14755 
15   -0.258387 
16   0.337241 
17   -0.238008 
18   -0.515572 
19   0.126967 
20   0.128369 
21   0.12825 
22   0.127602 
23   0.12769 
24   0.134425 
25   0.140566 
26   0.131846 
27   0.131571 
28   0.173672 
29   0.155435 
30   0.158766 
31   0.173708 
32   0.179083 
33   0.415656 
 
>  <lowdin_charges> 
33 
1   -0.161697 
2   -0.15651 
3   -0.15459 
4   -0.156261 
5   -0.157408 
6   -0.162028 
7   -0.166879 
8   -0.164498 
9   -0.172165 
10   -0.271643 
11   -0.26662 
12   -0.004341 
13   -0.009146 
14   -0.021664 
15   -0.133233 
16   0.023986 
17   -0.079408 
18   -0.388949 
19   0.157604 
20   0.158231 
21   0.154984 
22   0.156681 
23   0.154819 
24   0.158118 
25   0.163386 
26   0.159356 
27   0.158373 
28   0.170279 
29   0.158547 
30   0.158263 
31   0.166555 
32   0.173531 
33   0.354327 
 
$$$$ 
 
