PCCDB-ID:  61950 
public computational chemistry database (PCCDB) project, http://pccdb.org 
 
 28 27  0  0  0  0  0  0  0  0999 V2000 
    2.1523   -3.5133    1.8316 C   0  0  0  0  0  0  0  0  0  0  0  0 
    3.1661   -2.7962    0.9233 C   0  0  0  0  0  0  0  0  0  0  0  0 
    4.0032   -1.7863    1.6612 C   0  0  0  0  0  0  0  0  0  0  0  0 
    4.0527   -0.4768    1.3994 C   0  0  0  0  0  0  0  0  0  0  0  0 
    4.8780    0.5353    2.1483 C   0  0  0  0  0  0  0  0  0  0  0  0 
    5.8929    1.2854    1.2596 C   0  0  0  0  0  0  0  0  0  0  0  0 
    6.9928    0.3862    0.6826 C   0  0  0  0  0  0  0  0  0  0  0  0 
    7.9921    1.1421   -0.2026 C   0  0  0  0  0  0  0  0  0  0  0  0 
    9.0804    0.2397   -0.7856 C   0  0  0  0  0  0  0  0  0  0  0  0 
   10.0390    0.9516   -1.5620 O   0  0  0  0  0  0  0  0  0  0  0  0 
    1.5806   -4.2605    1.2695 H   0  0  0  0  0  0  0  0  0  0  0  0 
    1.4456   -2.7995    2.2692 H   0  0  0  0  0  0  0  0  0  0  0  0 
    2.6567   -4.0298    2.6571 H   0  0  0  0  0  0  0  0  0  0  0  0 
    2.6387   -2.3038    0.0960 H   0  0  0  0  0  0  0  0  0  0  0  0 
    3.8238   -3.5516    0.4672 H   0  0  0  0  0  0  0  0  0  0  0  0 
    4.5999   -2.1782    2.4890 H   0  0  0  0  0  0  0  0  0  0  0  0 
    3.4538   -0.0838    0.5733 H   0  0  0  0  0  0  0  0  0  0  0  0 
    5.4056    0.0425    2.9763 H   0  0  0  0  0  0  0  0  0  0  0  0 
    4.2091    1.2795    2.6064 H   0  0  0  0  0  0  0  0  0  0  0  0 
    6.3529    2.0898    1.8502 H   0  0  0  0  0  0  0  0  0  0  0  0 
    5.3571    1.7798    0.4360 H   0  0  0  0  0  0  0  0  0  0  0  0 
    6.5303   -0.4280    0.1083 H   0  0  0  0  0  0  0  0  0  0  0  0 
    7.5333   -0.0959    1.5110 H   0  0  0  0  0  0  0  0  0  0  0  0 
    8.4771    1.9456    0.3675 H   0  0  0  0  0  0  0  0  0  0  0  0 
    7.4520    1.6299   -1.0297 H   0  0  0  0  0  0  0  0  0  0  0  0 
    8.6213   -0.5747   -1.3714 H   0  0  0  0  0  0  0  0  0  0  0  0 
    9.6528   -0.2302    0.0219 H   0  0  0  0  0  0  0  0  0  0  0  0 
    9.5679    1.3478   -2.3117 H   0  0  0  0  0  0  0  0  0  0  0  0 
  1 12  1  0  0  0  0 
  1 13  1  0  0  0  0 
  2  3  1  0  0  0  0 
  2  1  1  0  0  0  0 
  3 16  1  0  0  0  0 
  4  3  2  0  0  0  0 
  4  5  1  0  0  0  0 
  5 19  1  0  0  0  0 
  5 18  1  0  0  0  0 
  6 20  1  0  0  0  0 
  6  5  1  0  0  0  0 
  7  6  1  0  0  0  0 
  7 23  1  0  0  0  0 
  8 24  1  0  0  0  0 
  8  7  1  0  0  0  0 
  9  8  1  0  0  0  0 
  9 27  1  0  0  0  0 
 10  9  1  0  0  0  0 
 11  1  1  0  0  0  0 
 14  2  1  0  0  0  0 
 15  2  1  0  0  0  0 
 17  4  1  0  0  0  0 
 21  6  1  0  0  0  0 
 22  7  1  0  0  0  0 
 25  8  1  0  0  0  0 
 26  9  1  0  0  0  0 
 28 10  1  0  0  0  0 
M  END 
>  <HBA> 
1 
 
>  <HBD> 
1 
 
>  <TPSA> 
20.23 
 
>  <cid> 
61950 
 
>  <dipole> 
1.83 
 
>  <excitation_energy_1> 
6.053 
 
>  <excitation_energy_2> 
6.261 
 
>  <excitation_energy_3> 
6.331 
 
>  <excitation_energy_4> 
6.416 
 
>  <homo_energy> 
-6.474 
 
>  <homo_lumo_gap> 
7.214 
 
>  <logP> 
2.505 
 
>  <lumo_energy> 
0.74 
 
>  <melting_point> 
-0.15 
 
>  <molecular_refractivity> 
46.06 
 
>  <oscillator_strength_1> 
0.0864 
 
>  <oscillator_strength_2> 
0.0007 
 
>  <oscillator_strength_3> 
0.0116 
 
>  <oscillator_strength_4> 
0.0034 
 
>  <open_babel_can_smiles> 
OCCCCC/C=C/CC 
 
>  <mulliken_charges> 
28 
1   -0.439343 
2   -0.296429 
3   -0.088824 
4   -0.09164 
5   -0.303243 
6   -0.257332 
7   -0.256022 
8   -0.276529 
9   -0.026264 
10   -0.616313 
11   0.142901 
12   0.149809 
13   0.143443 
14   0.137352 
15   0.14125 
16   0.113841 
17   0.112563 
18   0.135239 
19   0.139769 
20   0.13168 
21   0.128328 
22   0.14003 
23   0.129106 
24   0.143765 
25   0.117564 
26   0.11665 
27   0.144163 
28   0.384486 
 
>  <lowdin_charges> 
28 
1   -0.446266 
2   -0.270936 
3   -0.169943 
4   -0.171458 
5   -0.273856 
6   -0.274919 
7   -0.279597 
8   -0.295183 
9   -0.138815 
10   -0.469448 
11   0.150758 
12   0.151699 
13   0.148448 
14   0.145944 
15   0.148367 
16   0.144856 
17   0.144109 
18   0.145368 
19   0.150602 
20   0.142874 
21   0.139196 
22   0.145622 
23   0.140236 
24   0.147433 
25   0.133882 
26   0.124347 
27   0.146453 
28   0.340226 
 
$$$$ 
 
