PCCDB-ID:  17149 
public computational chemistry database (PCCDB) project, http://pccdb.org 
 
 21 21  0  0  1  0  0  0  0  0999 V2000 
    0.9936    0.1354   -0.0175 C   0  0  0  0  0  0  0  0  0  0  0  0 
    4.2033    1.4533    3.1120 C   0  0  0  0  0  0  0  0  0  0  0  0 
    3.0693   -1.1588    0.7519 C   0  0  0  0  0  0  0  0  0  0  0  0 
    3.1099   -0.7314    2.2423 C   0  0  0  0  0  0  0  0  0  0  0  0 
    3.1731    1.2363    0.7616 C   0  0  0  0  0  0  0  0  0  0  0  0 
    2.5280    0.0697   -0.0142 C   0  0  2  0  0  0  0  0  0  0  0  0 
    3.0981    0.8307    2.2543 C   0  0  2  0  0  0  0  0  0  0  0  0 
    0.5649   -0.7290   -0.5387 H   0  0  0  0  0  0  0  0  0  0  0  0 
    0.6384    1.0411   -0.5239 H   0  0  0  0  0  0  0  0  0  0  0  0 
    0.5821    0.1432    0.9992 H   0  0  0  0  0  0  0  0  0  0  0  0 
    4.1093    1.1575    4.1640 H   0  0  0  0  0  0  0  0  0  0  0  0 
    4.1727    2.5491    3.0712 H   0  0  0  0  0  0  0  0  0  0  0  0 
    5.1945    1.1347    2.7638 H   0  0  0  0  0  0  0  0  0  0  0  0 
    2.4695   -2.0610    0.5839 H   0  0  0  0  0  0  0  0  0  0  0  0 
    4.0850   -1.3822    0.4016 H   0  0  0  0  0  0  0  0  0  0  0  0 
    4.0018   -1.1265    2.7428 H   0  0  0  0  0  0  0  0  0  0  0  0 
    2.2479   -1.1273    2.7909 H   0  0  0  0  0  0  0  0  0  0  0  0 
    2.6942    2.2031    0.5632 H   0  0  0  0  0  0  0  0  0  0  0  0 
    4.2266    1.3322    0.4617 H   0  0  0  0  0  0  0  0  0  0  0  0 
    2.8706    0.0585   -1.0572 H   0  0  0  0  0  0  0  0  0  0  0  0 
    2.1338    1.1689    2.6559 H   0  0  0  0  0  0  0  0  0  0  0  0 
  1  6  1  0  0  0  0 
  1 10  1  0  0  0  0 
  2 11  1  0  0  0  0 
  3  4  1  0  0  0  0 
  4  7  1  0  0  0  0 
  4 16  1  0  0  0  0 
  4 17  1  0  0  0  0 
  5  7  1  0  0  0  0 
  6 20  1  6  0  0  0 
  6  3  1  0  0  0  0 
  6  5  1  0  0  0  0 
  7 21  1  1  0  0  0 
  7  2  1  0  0  0  0 
  8  1  1  0  0  0  0 
  9  1  1  0  0  0  0 
 12  2  1  0  0  0  0 
 13  2  1  0  0  0  0 
 14  3  1  0  0  0  0 
 15  3  1  0  0  0  0 
 18  5  1  0  0  0  0 
 19  5  1  0  0  0  0 
M  END 
>  <HBA> 
0 
 
>  <HBD> 
0 
 
>  <TPSA> 
0.0 
 
>  <cid> 
17149 
 
>  <dipole> 
0.05 
 
>  <excitation_energy_1> 
7.637 
 
>  <excitation_energy_2> 
7.707 
 
>  <excitation_energy_3> 
7.912 
 
>  <excitation_energy_4> 
7.923 
 
>  <homo_energy> 
-8.185 
 
>  <homo_lumo_gap> 
10.324 
 
>  <logP> 
2.442 
 
>  <lumo_energy> 
2.139 
 
>  <melting_point> 
-4.65 
 
>  <molecular_refractivity> 
33.65 
 
>  <oscillator_strength_1> 
0.0137 
 
>  <oscillator_strength_2> 
0.0083 
 
>  <oscillator_strength_3> 
0.0226 
 
>  <oscillator_strength_4> 
0.0332 
 
>  <open_babel_can_smiles> 
C[C@@H]1CC[C@H](C1)C 
 
>  <mulliken_charges> 
21 
1   -0.448796 
2   -0.452233 
3   -0.269817 
4   -0.279196 
5   -0.267705 
6   -0.0816 
7   -0.064968 
8   0.14013 
9   0.139967 
10   0.142724 
11   0.140072 
12   0.139333 
13   0.137463 
14   0.129455 
15   0.131229 
16   0.133353 
17   0.134297 
18   0.127556 
19   0.126153 
20   0.118114 
21   0.124469 
 
>  <lowdin_charges> 
21 
1   -0.447842 
2   -0.439028 
3   -0.283174 
4   -0.291316 
5   -0.282711 
6   -0.126155 
7   -0.128609 
8   0.148385 
9   0.147899 
10   0.145672 
11   0.145635 
12   0.144812 
13   0.143116 
14   0.14256 
15   0.140654 
16   0.144616 
17   0.144041 
18   0.141435 
19   0.137807 
20   0.135711 
21   0.136494 
 
$$$$ 
 
