PCCDB-ID:  47551 
public computational chemistry database (PCCDB) project, http://pccdb.org 
 
 27 26  0  0  0  0  0  0  0  0999 V2000 
    3.1588   -2.6006    0.7867 C   0  0  0  0  0  0  0  0  0  0  0  0 
    2.9459   -3.7792   -0.0573 C   0  0  0  0  0  0  0  0  0  0  0  0 
    4.7457   -0.0307    3.7151 C   0  0  0  0  0  0  0  0  0  0  0  0 
    6.6877    0.3245    0.1352 C   0  0  0  0  0  0  0  0  0  0  0  0 
    4.4850   -1.8724    0.4563 C   0  0  0  0  0  0  0  0  0  0  0  0 
    5.2237   -0.9993    2.6267 C   0  0  0  0  0  0  0  0  0  0  0  0 
    5.2360    0.4599    0.6319 C   0  0  0  0  0  0  0  0  0  0  0  0 
    2.8016   -4.7054   -0.7424 N   0  0  0  0  0  0  0  0  0  0  0  0 
    5.3273   -0.4172    5.0047 N   0  0  0  0  0  0  0  0  0  0  0  0 
    7.0942    1.5820   -0.5008 N   0  0  0  0  0  0  0  0  0  0  0  0 
    4.6556   -0.7023    1.3087 N   0  0  0  0  0  0  0  0  0  0  0  0 
    3.1478   -2.9162    1.8366 H   0  0  0  0  0  0  0  0  0  0  0  0 
    2.3247   -1.9024    0.6557 H   0  0  0  0  0  0  0  0  0  0  0  0 
    3.6424    0.0007    3.6929 H   0  0  0  0  0  0  0  0  0  0  0  0 
    5.0948    0.9833    3.4896 H   0  0  0  0  0  0  0  0  0  0  0  0 
    6.7762   -0.5628   -0.5180 H   0  0  0  0  0  0  0  0  0  0  0  0 
    7.3545    0.1546    0.9882 H   0  0  0  0  0  0  0  0  0  0  0  0 
    4.4423   -1.5463   -0.5877 H   0  0  0  0  0  0  0  0  0  0  0  0 
    5.3187   -2.5910    0.5275 H   0  0  0  0  0  0  0  0  0  0  0  0 
    4.9038   -2.0103    2.9106 H   0  0  0  0  0  0  0  0  0  0  0  0 
    6.3260   -1.0203    2.6302 H   0  0  0  0  0  0  0  0  0  0  0  0 
    4.5897    0.7021   -0.2239 H   0  0  0  0  0  0  0  0  0  0  0  0 
    5.1866    1.3245    1.3011 H   0  0  0  0  0  0  0  0  0  0  0  0 
    4.8848   -1.2716    5.3417 H   0  0  0  0  0  0  0  0  0  0  0  0 
    5.1266    0.2957    5.7031 H   0  0  0  0  0  0  0  0  0  0  0  0 
    6.5971    1.6983   -1.3833 H   0  0  0  0  0  0  0  0  0  0  0  0 
    8.0836    1.5486   -0.7390 H   0  0  0  0  0  0  0  0  0  0  0  0 
  1 12  1  0  0  0  0 
  2  1  1  0  0  0  0 
  3  9  1  0  0  0  0 
  4  7  1  0  0  0  0 
  4 17  1  0  0  0  0 
  5 19  1  0  0  0  0 
  5  1  1  0  0  0  0 
  5 11  1  0  0  0  0 
  6 21  1  0  0  0  0 
  6 20  1  0  0  0  0 
  6  3  1  0  0  0  0 
  7 23  1  0  0  0  0 
  7 11  1  0  0  0  0 
  8  2  3  0  0  0  0 
  9 24  1  0  0  0  0 
  9 25  1  0  0  0  0 
 10  4  1  0  0  0  0 
 11  6  1  0  0  0  0 
 13  1  1  0  0  0  0 
 14  3  1  0  0  0  0 
 15  3  1  0  0  0  0 
 16  4  1  0  0  0  0 
 18  5  1  0  0  0  0 
 22  7  1  0  0  0  0 
 26 10  1  0  0  0  0 
 27 10  1  0  0  0  0 
M  END 
>  <HBA> 
4 
 
>  <HBD> 
2 
 
>  <TPSA> 
79.07 
 
>  <cid> 
47551 
 
>  <dipole> 
3.19 
 
>  <excitation_energy_1> 
5.067 
 
>  <excitation_energy_2> 
5.313 
 
>  <excitation_energy_3> 
5.538 
 
>  <excitation_energy_4> 
5.586 
 
>  <homo_energy> 
-5.87 
 
>  <homo_lumo_gap> 
6.827 
 
>  <logP> 
0.52 
 
>  <lumo_energy> 
0.958 
 
>  <melting_point> 
117.81 
 
>  <molecular_refractivity> 
43.82 
 
>  <oscillator_strength_1> 
0.0036 
 
>  <oscillator_strength_2> 
0.0113 
 
>  <oscillator_strength_3> 
0.0058 
 
>  <oscillator_strength_4> 
0.0093 
 
>  <open_babel_can_smiles> 
NCCN(CCC#N)CCN 
 
>  <mulliken_charges> 
27 
1   -0.336167 
2   0.343157 
3   -0.142629 
4   -0.152505 
5   -0.131938 
6   -0.121771 
7   -0.140746 
8   -0.473685 
9   -0.719989 
10   -0.718009 
11   -0.392191 
12   0.189719 
13   0.199048 
14   0.122576 
15   0.14804 
16   0.119267 
17   0.149648 
18   0.158006 
19   0.146015 
20   0.126422 
21   0.143695 
22   0.132564 
23   0.161622 
24   0.293304 
25   0.301362 
26   0.294072 
27   0.301114 
 
>  <lowdin_charges> 
27 
1   -0.281683 
2   -0.019088 
3   -0.207937 
4   -0.225132 
5   -0.191405 
6   -0.201788 
7   -0.210555 
8   -0.131215 
9   -0.559693 
10   -0.554487 
11   -0.187972 
12   0.176777 
13   0.18478 
14   0.119882 
15   0.144628 
16   0.119672 
17   0.146622 
18   0.154185 
19   0.138263 
20   0.138382 
21   0.132272 
22   0.140539 
23   0.154598 
24   0.25233 
25   0.25948 
26   0.25189 
27   0.256655 
 
$$$$ 
 
