PCCDB-ID:  18219 
public computational chemistry database (PCCDB) project, http://pccdb.org 
 
 27 28  0  0  1  0  0  0  0  0999 V2000 
    0.2377   -0.2097    0.0592 C   0  0  0  0  0  0  0  0  0  0  0  0 
    2.4726   -0.9448   -0.8874 C   0  0  0  0  0  0  0  0  0  0  0  0 
    2.4504    0.8491    0.7053 C   0  0  0  0  0  0  0  0  0  0  0  0 
    3.8557   -0.8330   -1.0004 C   0  0  0  0  0  0  0  0  0  0  0  0 
    3.8383    0.9641    0.5934 C   0  0  0  0  0  0  0  0  0  0  0  0 
    8.0837   -2.7361    0.4664 C   0  0  0  0  0  0  0  0  0  0  0  0 
    7.1682   -2.6381    1.7174 C   0  0  0  0  0  0  0  0  0  0  0  0 
    6.0745    0.2277   -0.3788 C   0  0  0  0  0  0  0  0  0  0  0  0 
    1.7423   -0.1039   -0.0339 C   0  0  0  0  0  0  0  0  0  0  0  0 
    4.5626    0.1272   -0.2613 C   0  0  0  0  0  0  0  0  0  0  0  0 
    6.7857   -0.9722    0.1933 C   0  0  3  0  0  0  0  0  0  0  0  0 
    7.5847   -1.7189   -0.4782 N   0  0  0  0  0  0  0  0  0  0  0  0 
    6.6216   -1.2834    1.5461 N   0  0  0  0  0  0  0  0  0  0  0  0 
   -0.0948   -1.2531    0.0211 H   0  0  0  0  0  0  0  0  0  0  0  0 
   -0.2508    0.3149   -0.7728 H   0  0  0  0  0  0  0  0  0  0  0  0 
   -0.1385    0.2313    0.9882 H   0  0  0  0  0  0  0  0  0  0  0  0 
    1.9481   -1.6978   -1.4720 H   0  0  0  0  0  0  0  0  0  0  0  0 
    1.9121    1.5131    1.3783 H   0  0  0  0  0  0  0  0  0  0  0  0 
    4.4007   -1.4994   -1.6652 H   0  0  0  0  0  0  0  0  0  0  0  0 
    4.3619    1.7201    1.1751 H   0  0  0  0  0  0  0  0  0  0  0  0 
    8.0743   -3.7303    0.0079 H   0  0  0  0  0  0  0  0  0  0  0  0 
    9.1268   -2.5023    0.7213 H   0  0  0  0  0  0  0  0  0  0  0  0 
    7.7126   -2.7353    2.6616 H   0  0  0  0  0  0  0  0  0  0  0  0 
    6.3722   -3.3978    1.6963 H   0  0  0  0  0  0  0  0  0  0  0  0 
    6.4241    1.1269    0.1440 H   0  0  0  0  0  0  0  0  0  0  0  0 
    6.3818    0.3122   -1.4253 H   0  0  0  0  0  0  0  0  0  0  0  0 
    5.7070   -1.0939    1.9414 H   0  0  0  0  0  0  0  0  0  0  0  0 
  1 16  1  0  0  0  0 
  2  9  1  0  0  0  0 
  3 18  1  0  0  0  0 
  4  2  2  0  0  0  0 
  4 10  1  0  0  0  0 
  5  3  1  0  0  0  0 
  5 20  1  0  0  0  0 
  6 22  1  0  0  0  0 
  6  7  1  0  0  0  0 
  7 23  1  0  0  0  0 
  8 10  1  0  0  0  0 
  8 25  1  0  0  0  0 
  8 11  1  0  0  0  0 
  9  1  1  0  0  0  0 
  9  3  2  0  0  0  0 
 10  5  2  0  0  0  0 
 11 13  1  0  0  0  0 
 12 11  1  0  0  0  0 
 12  6  1  0  0  0  0 
 13  7  1  0  0  0  0 
 13 27  1  0  0  0  0 
 14  1  1  0  0  0  0 
 15  1  1  0  0  0  0 
 17  2  1  0  0  0  0 
 19  4  1  0  0  0  0 
 21  6  1  0  0  0  0 
 24  7  1  0  0  0  0 
 26  8  1  0  0  0  0 
M  RAD  2  11   2  12   2 
M  END 
>  <HBA> 
2 
 
>  <HBD> 
1 
 
>  <TPSA> 
24.39 
 
>  <cid> 
18219 
 
>  <dipole> 
2.9 
 
>  <excitation_energy_1> 
4.937 
 
>  <excitation_energy_2> 
4.984 
 
>  <excitation_energy_3> 
5.165 
 
>  <excitation_energy_4> 
5.282 
 
>  <homo_energy> 
-5.793 
 
>  <homo_lumo_gap> 
5.668 
 
>  <logP> 
1.304 
 
>  <lumo_energy> 
-0.125 
 
>  <melting_point> 
77.62 
 
>  <molecular_refractivity> 
62.41 
 
>  <oscillator_strength_1> 
0.0029 
 
>  <oscillator_strength_2> 
0.0029 
 
>  <oscillator_strength_3> 
0.0029 
 
>  <oscillator_strength_4> 
0.0047 
 
>  <open_babel_can_smiles> 
Cc1ccc(cc1)C[C]1[N]CCN1 
 
>  <mulliken_charges> 
27 
1   -0.52944 
2   -0.176796 
3   -0.178784 
4   -0.175231 
5   -0.198509 
6   -0.160219 
7   -0.148379 
8   -0.417634 
9   0.175495 
10   0.145952 
11   0.489912 
12   -0.470896 
13   -0.600842 
14   0.15838 
15   0.167232 
16   0.155733 
17   0.124425 
18   0.12292 
19   0.143101 
20   0.126573 
21   0.146147 
22   0.149577 
23   0.148584 
24   0.139287 
25   0.16355 
26   0.181398 
27   0.318465 
 
>  <lowdin_charges> 
27 
1   -0.442581 
2   -0.164113 
3   -0.16869 
4   -0.161286 
5   -0.174773 
6   -0.207702 
7   -0.212015 
8   -0.278187 
9   -0.000397 
10   -0.014396 
11   0.08463 
12   -0.245325 
13   -0.321545 
14   0.157837 
15   0.163637 
16   0.157625 
17   0.156698 
18   0.15616 
19   0.164995 
20   0.156577 
21   0.147946 
22   0.144898 
23   0.148842 
24   0.135752 
25   0.165002 
26   0.176164 
27   0.274245 
 
$$$$ 
 
