PCCDB-ID:  28028 
public computational chemistry database (PCCDB) project, http://pccdb.org 
 
 29 28  0  0  0  0  0  0  0  0999 V2000 
    2.9982   -0.1246   -1.4863 C   0  0  0  0  0  0  0  0  0  0  0  0 
    1.2021    0.4906    0.1432 C   0  0  0  0  0  0  0  0  0  0  0  0 
    5.4030    0.1572    1.6711 C   0  0  0  0  0  0  0  0  0  0  0  0 
    5.3291   -2.3435    1.6326 C   0  0  0  0  0  0  0  0  0  0  0  0 
    2.6317   -0.7647    2.3909 C   0  0  0  0  0  0  0  0  0  0  0  0 
    2.6222   -2.3744    0.4769 C   0  0  0  0  0  0  0  0  0  0  0  0 
    2.6951    0.1349    0.0022 C   0  0  0  0  0  0  0  0  0  0  0  0 
    4.7510   -1.0646    0.9956 C   0  0  0  0  0  0  0  0  0  0  0  0 
    3.1751   -1.0170    0.9660 C   0  0  0  0  0  0  0  0  0  0  0  0 
    2.7752    0.7731   -2.0749 H   0  0  0  0  0  0  0  0  0  0  0  0 
    2.3801   -0.9366   -1.8870 H   0  0  0  0  0  0  0  0  0  0  0  0 
    4.0458   -0.3816   -1.6723 H   0  0  0  0  0  0  0  0  0  0  0  0 
    0.9414    1.2869   -0.5641 H   0  0  0  0  0  0  0  0  0  0  0  0 
    0.9503    0.8506    1.1449 H   0  0  0  0  0  0  0  0  0  0  0  0 
    0.5517   -0.3638   -0.0809 H   0  0  0  0  0  0  0  0  0  0  0  0 
    6.4895    0.1290    1.5265 H   0  0  0  0  0  0  0  0  0  0  0  0 
    5.2198    0.1635    2.7521 H   0  0  0  0  0  0  0  0  0  0  0  0 
    5.0474    1.1108    1.2680 H   0  0  0  0  0  0  0  0  0  0  0  0 
    6.4247   -2.2976    1.6293 H   0  0  0  0  0  0  0  0  0  0  0  0 
    5.0401   -3.2484    1.0902 H   0  0  0  0  0  0  0  0  0  0  0  0 
    5.0156   -2.4626    2.6768 H   0  0  0  0  0  0  0  0  0  0  0  0 
    1.5518   -0.9378    2.4413 H   0  0  0  0  0  0  0  0  0  0  0  0 
    2.8189    0.2614    2.7275 H   0  0  0  0  0  0  0  0  0  0  0  0 
    3.0970   -1.4416    3.1161 H   0  0  0  0  0  0  0  0  0  0  0  0 
    1.5466   -2.3128    0.2775 H   0  0  0  0  0  0  0  0  0  0  0  0 
    2.7629   -3.1549    1.2315 H   0  0  0  0  0  0  0  0  0  0  0  0 
    3.1125   -2.7111   -0.4434 H   0  0  0  0  0  0  0  0  0  0  0  0 
    3.2502    1.0373    0.2906 H   0  0  0  0  0  0  0  0  0  0  0  0 
    5.0838   -1.0707   -0.0508 H   0  0  0  0  0  0  0  0  0  0  0  0 
  1  7  1  0  0  0  0 
  2 14  1  0  0  0  0 
  3 17  1  0  0  0  0 
  4 21  1  0  0  0  0 
  5 22  1  0  0  0  0 
  5 23  1  0  0  0  0 
  5 24  1  0  0  0  0 
  6  9  1  0  0  0  0 
  6 26  1  0  0  0  0 
  7  2  1  0  0  0  0 
  7 28  1  0  0  0  0 
  7  9  1  0  0  0  0 
  8  4  1  0  0  0  0 
  8  3  1  0  0  0  0 
  9  8  1  0  0  0  0 
  9  5  1  0  0  0  0 
 10  1  1  0  0  0  0 
 11  1  1  0  0  0  0 
 12  1  1  0  0  0  0 
 13  2  1  0  0  0  0 
 15  2  1  0  0  0  0 
 16  3  1  0  0  0  0 
 18  3  1  0  0  0  0 
 19  4  1  0  0  0  0 
 20  4  1  0  0  0  0 
 25  6  1  0  0  0  0 
 27  6  1  0  0  0  0 
 29  8  1  0  0  0  0 
M  END 
>  <HBA> 
0 
 
>  <HBD> 
0 
 
>  <TPSA> 
0.0 
 
>  <cid> 
28028 
 
>  <dipole> 
0.08 
 
>  <excitation_energy_1> 
7.309 
 
>  <excitation_energy_2> 
7.343 
 
>  <excitation_energy_3> 
7.648 
 
>  <excitation_energy_4> 
7.775 
 
>  <homo_energy> 
-7.832 
 
>  <homo_lumo_gap> 
9.861 
 
>  <logP> 
3.325 
 
>  <lumo_energy> 
2.03 
 
>  <melting_point> 
-9.87 
 
>  <molecular_refractivity> 
45.12 
 
>  <oscillator_strength_1> 
0.0115 
 
>  <oscillator_strength_2> 
0.0005 
 
>  <oscillator_strength_3> 
0.0045 
 
>  <oscillator_strength_4> 
0.002 
 
>  <open_babel_can_smiles> 
CC(C(C(C)C)(C)C)C 
 
>  <mulliken_charges> 
29 
1   -0.458043 
2   -0.455905 
3   -0.458098 
4   -0.456144 
5   -0.472884 
6   -0.472796 
7   -0.076228 
8   -0.076347 
9   0.133505 
10   0.138566 
11   0.143642 
12   0.144613 
13   0.137905 
14   0.145519 
15   0.140192 
16   0.138616 
17   0.143695 
18   0.144649 
19   0.137919 
20   0.145555 
21   0.140267 
22   0.143522 
23   0.141817 
24   0.139499 
25   0.139464 
26   0.143666 
27   0.141867 
28   0.120974 
29   0.120996 
 
>  <lowdin_charges> 
29 
1   -0.450009 
2   -0.449476 
3   -0.445837 
4   -0.445448 
5   -0.446777 
6   -0.447209 
7   -0.125404 
8   -0.124142 
9   0.010505 
10   0.148742 
11   0.148261 
12   0.145661 
13   0.148905 
14   0.149408 
15   0.144886 
16   0.146403 
17   0.145526 
18   0.146795 
19   0.146068 
20   0.150245 
21   0.143072 
22   0.147893 
23   0.146394 
24   0.148039 
25   0.145146 
26   0.15045 
27   0.147575 
28   0.138076 
29   0.13625 
 
$$$$ 
 
