PCCDB-ID:  41461 
public computational chemistry database (PCCDB) project, http://pccdb.org 
 
 38 37  0  0  1  0  0  0  0  0999 V2000 
    3.2186   -0.6556    1.7040 C   0  0  0  0  0  0  0  0  0  0  0  0 
    5.9922   -0.6563   -5.9076 C   0  0  0  0  0  0  0  0  0  0  0  0 
    8.8196   -2.2068   -5.7122 C   0  0  0  0  0  0  0  0  0  0  0  0 
    7.4299   -4.2841   -5.4532 C   0  0  0  0  0  0  0  0  0  0  0  0 
    7.1742   -2.8723   -7.4839 C   0  0  0  0  0  0  0  0  0  0  0  0 
    4.4909   -0.9543    0.9044 C   0  0  0  0  0  0  0  0  0  0  0  0 
    4.2390   -1.0988   -0.6020 C   0  0  0  0  0  0  0  0  0  0  0  0 
    5.5085   -1.3851   -1.4142 C   0  0  0  0  0  0  0  0  0  0  0  0 
    5.2490   -1.5469   -2.9181 C   0  0  0  0  0  0  0  0  0  0  0  0 
    6.5263   -1.8203   -3.7280 C   0  0  0  0  0  0  0  0  0  0  0  0 
    6.2882   -2.0158   -5.2457 C   0  0  2  0  0  0  0  0  0  0  0  0 
    7.4289   -2.8255   -5.9617 C   0  0  0  0  0  0  0  0  0  0  0  0 
    3.4308   -0.5600    2.7751 H   0  0  0  0  0  0  0  0  0  0  0  0 
    2.4775   -1.4551    1.5811 H   0  0  0  0  0  0  0  0  0  0  0  0 
    2.7514    0.2802    1.3728 H   0  0  0  0  0  0  0  0  0  0  0  0 
    5.2194   -0.1153   -5.3516 H   0  0  0  0  0  0  0  0  0  0  0  0 
    5.6315   -0.7651   -6.9345 H   0  0  0  0  0  0  0  0  0  0  0  0 
    6.8835   -0.0172   -5.9299 H   0  0  0  0  0  0  0  0  0  0  0  0 
    9.5901   -2.7708   -6.2521 H   0  0  0  0  0  0  0  0  0  0  0  0 
    9.0879   -2.2192   -4.6502 H   0  0  0  0  0  0  0  0  0  0  0  0 
    8.8719   -1.1684   -6.0597 H   0  0  0  0  0  0  0  0  0  0  0  0 
    8.1954   -4.8707   -5.9755 H   0  0  0  0  0  0  0  0  0  0  0  0 
    6.4608   -4.7650   -5.6362 H   0  0  0  0  0  0  0  0  0  0  0  0 
    7.6425   -4.3557   -4.3816 H   0  0  0  0  0  0  0  0  0  0  0  0 
    7.8874   -3.5502   -7.9684 H   0  0  0  0  0  0  0  0  0  0  0  0 
    7.2877   -1.8896   -7.9525 H   0  0  0  0  0  0  0  0  0  0  0  0 
    6.1641   -3.2391   -7.7081 H   0  0  0  0  0  0  0  0  0  0  0  0 
    4.9537   -1.8765    1.2840 H   0  0  0  0  0  0  0  0  0  0  0  0 
    5.2260   -0.1544    1.0732 H   0  0  0  0  0  0  0  0  0  0  0  0 
    3.7661   -0.1794   -0.9792 H   0  0  0  0  0  0  0  0  0  0  0  0 
    3.5095   -1.9050   -0.7711 H   0  0  0  0  0  0  0  0  0  0  0  0 
    5.9892   -2.2965   -1.0278 H   0  0  0  0  0  0  0  0  0  0  0  0 
    6.2318   -0.5714   -1.2558 H   0  0  0  0  0  0  0  0  0  0  0  0 
    4.7474   -0.6426   -3.2897 H   0  0  0  0  0  0  0  0  0  0  0  0 
    4.5401   -2.3732   -3.0759 H   0  0  0  0  0  0  0  0  0  0  0  0 
    7.0080   -2.7085   -3.3010 H   0  0  0  0  0  0  0  0  0  0  0  0 
    7.2326   -0.9916   -3.5754 H   0  0  0  0  0  0  0  0  0  0  0  0 
    5.3805   -2.6315   -5.3545 H   0  0  0  0  0  0  0  0  0  0  0  0 
  1 13  1  0  0  0  0 
  2 16  1  0  0  0  0 
  2 11  1  0  0  0  0 
  3 20  1  0  0  0  0 
  4 24  1  0  0  0  0 
  5 12  1  0  0  0  0 
  6 29  1  0  0  0  0 
  6 28  1  0  0  0  0 
  6  1  1  0  0  0  0 
  7  6  1  0  0  0  0 
  8 33  1  0  0  0  0 
  8 32  1  0  0  0  0 
  8  7  1  0  0  0  0 
  9  8  1  0  0  0  0 
 10 37  1  0  0  0  0 
 10 36  1  0  0  0  0 
 10  9  1  0  0  0  0 
 11 38  1  6  0  0  0 
 11 10  1  0  0  0  0 
 12  3  1  0  0  0  0 
 12  4  1  0  0  0  0 
 12 11  1  0  0  0  0 
 14  1  1  0  0  0  0 
 15  1  1  0  0  0  0 
 17  2  1  0  0  0  0 
 18  2  1  0  0  0  0 
 19  3  1  0  0  0  0 
 21  3  1  0  0  0  0 
 22  4  1  0  0  0  0 
 23  4  1  0  0  0  0 
 25  5  1  0  0  0  0 
 26  5  1  0  0  0  0 
 27  5  1  0  0  0  0 
 30  7  1  0  0  0  0 
 31  7  1  0  0  0  0 
 34  9  1  0  0  0  0 
 35  9  1  0  0  0  0 
M  END 
>  <HBA> 
0 
 
>  <HBD> 
0 
 
>  <TPSA> 
0.0 
 
>  <cid> 
41461 
 
>  <dipole> 
0.04 
 
>  <excitation_energy_1> 
7.33 
 
>  <excitation_energy_2> 
7.576 
 
>  <excitation_energy_3> 
7.642 
 
>  <excitation_energy_4> 
7.778 
 
>  <homo_energy> 
-7.747 
 
>  <homo_lumo_gap> 
9.87 
 
>  <logP> 
4.639 
 
>  <lumo_energy> 
2.123 
 
>  <melting_point> 
-11.86 
 
>  <molecular_refractivity> 
59.54 
 
>  <oscillator_strength_1> 
0.0136 
 
>  <oscillator_strength_2> 
0.0079 
 
>  <oscillator_strength_3> 
0.0026 
 
>  <oscillator_strength_4> 
0.0168 
 
>  <open_babel_can_smiles> 
CCCCCC[C@H](C(C)(C)C)C 
 
>  <mulliken_charges> 
38 
1   -0.441166 
2   -0.467383 
3   -0.451819 
4   -0.449819 
5   -0.450357 
6   -0.246344 
7   -0.245489 
8   -0.252932 
9   -0.261253 
10   -0.269952 
11   -0.056024 
12   0.101976 
13   0.140917 
14   0.140804 
15   0.140766 
16   0.143633 
17   0.145487 
18   0.140661 
19   0.136213 
20   0.143076 
21   0.139397 
22   0.136428 
23   0.136325 
24   0.141807 
25   0.135427 
26   0.143221 
27   0.135771 
28   0.129528 
29   0.129536 
30   0.125771 
31   0.125907 
32   0.125932 
33   0.126542 
34   0.13092 
35   0.126956 
36   0.129808 
37   0.128313 
38   0.111414 
 
>  <lowdin_charges> 
38 
1   -0.443475 
2   -0.451239 
3   -0.44494 
4   -0.444416 
5   -0.44462 
6   -0.273217 
7   -0.275556 
8   -0.275303 
9   -0.276204 
10   -0.281062 
11   -0.123771 
12   0.014061 
13   0.14713 
14   0.14654 
15   0.146029 
16   0.150402 
17   0.149091 
18   0.145373 
19   0.148332 
20   0.147107 
21   0.145096 
22   0.147604 
23   0.145263 
24   0.144605 
25   0.147425 
26   0.14797 
27   0.144619 
28   0.138788 
29   0.139092 
30   0.137138 
31   0.137591 
32   0.137099 
33   0.137895 
34   0.138287 
35   0.137609 
36   0.140963 
37   0.13916 
38   0.133535 
 
$$$$ 
 
