PCCDB-ID:  17890 
public computational chemistry database (PCCDB) project, http://pccdb.org 
 
 29 30  0  0  0  0  0  0  0  0999 V2000 
    1.5286   -1.6412    1.5266 C   0  0  0  0  0  0  0  0  0  0  0  0 
    2.4477   -0.7612    2.3809 C   0  0  0  0  0  0  0  0  0  0  0  0 
    8.2697   -2.2959   -2.5331 C   0  0  0  0  0  0  0  0  0  0  0  0 
    7.4445   -2.9997   -1.6277 C   0  0  0  0  0  0  0  0  0  0  0  0 
    6.2936    1.9107   -1.1089 C   0  0  0  0  0  0  0  0  0  0  0  0 
    3.4525    0.0577    1.5616 C   0  0  0  0  0  0  0  0  0  0  0  0 
    8.1752   -0.9267   -2.6096 C   0  0  0  0  0  0  0  0  0  0  0  0 
    7.1784    1.2034   -1.8864 C   0  0  0  0  0  0  0  0  0  0  0  0 
    6.5485   -2.3372   -0.8155 C   0  0  0  0  0  0  0  0  0  0  0  0 
    5.4546    1.2248   -0.2081 C   0  0  0  0  0  0  0  0  0  0  0  0 
    7.2618   -0.2100   -1.7906 C   0  0  0  0  0  0  0  0  0  0  0  0 
    6.4215   -0.9198   -0.8635 C   0  0  0  0  0  0  0  0  0  0  0  0 
    5.4941   -0.1559   -0.0583 C   0  0  0  0  0  0  0  0  0  0  0  0 
    4.5809   -0.7897    0.9536 C   0  0  0  0  0  0  0  0  0  0  0  0 
    4.7159   -1.9492    1.3234 O   0  0  0  0  0  0  0  0  0  0  0  0 
    0.8073   -2.1770    2.1540 H   0  0  0  0  0  0  0  0  0  0  0  0 
    2.1044   -2.3861    0.9691 H   0  0  0  0  0  0  0  0  0  0  0  0 
    0.9592   -1.0396    0.8064 H   0  0  0  0  0  0  0  0  0  0  0  0 
    2.9963   -1.3869    3.0926 H   0  0  0  0  0  0  0  0  0  0  0  0 
    1.8387   -0.0632    2.9697 H   0  0  0  0  0  0  0  0  0  0  0  0 
    8.9703   -2.8354   -3.1645 H   0  0  0  0  0  0  0  0  0  0  0  0 
    7.5179   -4.0823   -1.5662 H   0  0  0  0  0  0  0  0  0  0  0  0 
    6.2329    2.9927   -1.1827 H   0  0  0  0  0  0  0  0  0  0  0  0 
    3.9189    0.8196    2.2032 H   0  0  0  0  0  0  0  0  0  0  0  0 
    2.9355    0.6098    0.7660 H   0  0  0  0  0  0  0  0  0  0  0  0 
    8.7989   -0.3662   -3.3020 H   0  0  0  0  0  0  0  0  0  0  0  0 
    7.8302    1.7169   -2.5894 H   0  0  0  0  0  0  0  0  0  0  0  0 
    5.9347   -2.8892   -0.1194 H   0  0  0  0  0  0  0  0  0  0  0  0 
    4.7684    1.8113    0.3914 H   0  0  0  0  0  0  0  0  0  0  0  0 
  1 16  1  0  0  0  0 
  1  2  1  0  0  0  0 
  2 20  1  0  0  0  0 
  2 19  1  0  0  0  0 
  3  4  1  0  0  0  0 
  4 22  1  0  0  0  0 
  4  9  2  0  0  0  0 
  5 10  2  0  0  0  0 
  6 24  1  0  0  0  0 
  6  2  1  0  0  0  0 
  7  3  2  0  0  0  0 
  7 11  1  0  0  0  0 
  8 11  2  0  0  0  0 
  8  5  1  0  0  0  0 
  9 28  1  0  0  0  0 
 10 13  1  0  0  0  0 
 10 29  1  0  0  0  0 
 11 12  1  0  0  0  0 
 12  9  1  0  0  0  0 
 12 13  2  0  0  0  0 
 13 14  1  0  0  0  0 
 14 15  2  0  0  0  0 
 14  6  1  0  0  0  0 
 17  1  1  0  0  0  0 
 18  1  1  0  0  0  0 
 21  3  1  0  0  0  0 
 23  5  1  0  0  0  0 
 25  6  1  0  0  0  0 
 26  7  1  0  0  0  0 
 27  8  1  0  0  0  0 
M  END 
>  <HBA> 
1 
 
>  <HBD> 
0 
 
>  <TPSA> 
17.07 
 
>  <cid> 
17890 
 
>  <dipole> 
2.61 
 
>  <excitation_energy_1> 
3.466 
 
>  <excitation_energy_2> 
3.733 
 
>  <excitation_energy_3> 
4.161 
 
>  <excitation_energy_4> 
5.135 
 
>  <homo_energy> 
-6.025 
 
>  <homo_lumo_gap> 
4.223 
 
>  <logP> 
3.823 
 
>  <lumo_energy> 
-1.801 
 
>  <melting_point> 
82.22 
 
>  <molecular_refractivity> 
63.76 
 
>  <oscillator_strength_1> 
0.0011 
 
>  <oscillator_strength_2> 
0.1269 
 
>  <oscillator_strength_3> 
0.0264 
 
>  <oscillator_strength_4> 
0.0809 
 
>  <open_babel_can_smiles> 
CCCC(=O)c1cccc2c1cccc2 
 
>  <mulliken_charges> 
29 
1   -0.448446 
2   -0.240016 
3   -0.12785 
4   -0.136731 
5   -0.134996 
6   -0.366946 
7   -0.196437 
8   -0.178134 
9   -0.188712 
10   -0.203544 
11   0.132545 
12   0.066379 
13   0.044221 
14   0.413937 
15   -0.473007 
16   0.142592 
17   0.16509 
18   0.133443 
19   0.157355 
20   0.126604 
21   0.132207 
22   0.13401 
23   0.135948 
24   0.162703 
25   0.156017 
26   0.130704 
27   0.137148 
28   0.184105 
29   0.13981 
 
>  <lowdin_charges> 
29 
1   -0.451307 
2   -0.27335 
3   -0.156256 
4   -0.149296 
5   -0.164441 
6   -0.314521 
7   -0.158767 
8   -0.134858 
9   -0.159865 
10   -0.146483 
11   -0.000652 
12   0.009698 
13   -0.048819 
14   0.16275 
15   -0.244912 
16   0.151645 
17   0.158497 
18   0.142961 
19   0.157083 
20   0.143221 
21   0.160931 
22   0.158261 
23   0.159561 
24   0.165179 
25   0.158231 
26   0.159137 
27   0.162339 
28   0.187737 
29   0.166297 
 
$$$$ 
 
