PCCDB-ID:  34882 
public computational chemistry database (PCCDB) project, http://pccdb.org 
 
 33 33  0  0  1  0  0  0  0  0999 V2000 
    1.5091   -0.0155    0.8041 C   0  0  0  0  0  0  0  0  0  0  0  0 
    4.8144    2.8303   -3.1201 C   0  0  0  0  0  0  0  0  0  0  0  0 
    6.5540    2.5289    0.6264 C   0  0  0  0  0  0  0  0  0  0  0  0 
    1.9229    1.8995   -0.8111 C   0  0  0  0  0  0  0  0  0  0  0  0 
    2.7258    2.5566   -1.7425 C   0  0  0  0  0  0  0  0  0  0  0  0 
    6.8590    0.2906   -0.6336 C   0  0  0  0  0  0  0  0  0  0  0  0 
    5.8195    0.2893   -1.7786 C   0  0  0  0  0  0  0  0  0  0  0  0 
    3.6340    0.2481   -0.5472 C   0  0  0  0  0  0  0  0  0  0  0  0 
    2.3658    0.7250   -0.1969 C   0  0  0  0  0  0  0  0  0  0  0  0 
    3.9945    2.0787   -2.0925 C   0  0  0  0  0  0  0  0  0  0  0  0 
    7.4644    1.6615   -0.2739 C   0  0  2  0  0  0  0  0  0  0  0  0 
    4.4608    0.8993   -1.4702 C   0  0  0  0  0  0  0  0  0  0  0  0 
    8.8227    1.4751    0.4140 C   0  0  0  0  0  0  0  0  0  0  0  0 
    9.2532    0.4267    0.8247 O   0  0  0  0  0  0  0  0  0  0  0  0 
    9.5614    2.6117    0.5712 O   0  0  0  0  0  0  0  0  0  0  0  0 
    0.5608    0.5029    0.9776 H   0  0  0  0  0  0  0  0  0  0  0  0 
    2.0163   -0.1162    1.7717 H   0  0  0  0  0  0  0  0  0  0  0  0 
    1.2749   -1.0303    0.4585 H   0  0  0  0  0  0  0  0  0  0  0  0 
    4.2748    3.7154   -3.4716 H   0  0  0  0  0  0  0  0  0  0  0  0 
    5.0384    2.2142   -3.9999 H   0  0  0  0  0  0  0  0  0  0  0  0 
    5.7760    3.1731   -2.7176 H   0  0  0  0  0  0  0  0  0  0  0  0 
    5.5850    2.6972    0.1528 H   0  0  0  0  0  0  0  0  0  0  0  0 
    6.9976    3.5087    0.8416 H   0  0  0  0  0  0  0  0  0  0  0  0 
    6.3803    2.0272    1.5847 H   0  0  0  0  0  0  0  0  0  0  0  0 
    0.9422    2.3013   -0.5664 H   0  0  0  0  0  0  0  0  0  0  0  0 
    2.3565    3.4647   -2.2143 H   0  0  0  0  0  0  0  0  0  0  0  0 
    7.6797   -0.3722   -0.9257 H   0  0  0  0  0  0  0  0  0  0  0  0 
    6.4253   -0.1565    0.2694 H   0  0  0  0  0  0  0  0  0  0  0  0 
    5.6619   -0.7606   -2.0604 H   0  0  0  0  0  0  0  0  0  0  0  0 
    6.2639    0.7679   -2.6577 H   0  0  0  0  0  0  0  0  0  0  0  0 
    3.9938   -0.6710   -0.0856 H   0  0  0  0  0  0  0  0  0  0  0  0 
    7.6542    2.2149   -1.2082 H   0  0  0  0  0  0  0  0  0  0  0  0 
    9.0928    3.3685    0.1823 H   0  0  0  0  0  0  0  0  0  0  0  0 
  1 16  1  0  0  0  0 
  1 17  1  0  0  0  0 
  2 21  1  0  0  0  0 
  2 10  1  0  0  0  0 
  3 23  1  0  0  0  0 
  3 24  1  0  0  0  0 
  4 25  1  0  0  0  0 
  4  9  2  0  0  0  0 
  5  4  1  0  0  0  0 
  6 11  1  0  0  0  0 
  6 28  1  0  0  0  0 
  7 12  1  0  0  0  0 
  7  6  1  0  0  0  0 
  8  9  1  0  0  0  0 
  8 31  1  0  0  0  0 
  9  1  1  0  0  0  0 
 10  5  2  0  0  0  0 
 10 12  1  0  0  0  0 
 11 32  1  6  0  0  0 
 11 13  1  0  0  0  0 
 11  3  1  0  0  0  0 
 12  8  2  0  0  0  0 
 13 15  1  0  0  0  0 
 13 14  2  0  0  0  0 
 18  1  1  0  0  0  0 
 19  2  1  0  0  0  0 
 20  2  1  0  0  0  0 
 22  3  1  0  0  0  0 
 26  5  1  0  0  0  0 
 27  6  1  0  0  0  0 
 29  7  1  0  0  0  0 
 30  7  1  0  0  0  0 
 33 15  1  0  0  0  0 
M  END 
>  <HBA> 
2 
 
>  <HBD> 
1 
 
>  <TPSA> 
37.3 
 
>  <cid> 
34882 
 
>  <dipole> 
4.11 
 
>  <excitation_energy_1> 
5.044 
 
>  <excitation_energy_2> 
5.379 
 
>  <excitation_energy_3> 
5.634 
 
>  <excitation_energy_4> 
5.654 
 
>  <homo_energy> 
-6.286 
 
>  <homo_lumo_gap> 
6.199 
 
>  <logP> 
2.957 
 
>  <lumo_energy> 
-0.087 
 
>  <melting_point> 
91.33 
 
>  <molecular_refractivity> 
62.34 
 
>  <oscillator_strength_1> 
0.0102 
 
>  <oscillator_strength_2> 
0.0058 
 
>  <oscillator_strength_3> 
0.0022 
 
>  <oscillator_strength_4> 
0.0102 
 
>  <open_babel_can_smiles> 
OC(=O)[C@@H](CCc1cc(C)ccc1C)C 
 
>  <mulliken_charges> 
33 
1   -0.530793 
2   -0.540729 
3   -0.462093 
4   -0.183322 
5   -0.183709 
6   -0.250777 
7   -0.364849 
8   -0.237682 
9   0.184118 
10   0.120668 
11   -0.212514 
12   0.121222 
13   0.605464 
14   -0.441238 
15   -0.572901 
16   0.154426 
17   0.161627 
18   0.16298 
19   0.156518 
20   0.164413 
21   0.152494 
22   0.187308 
23   0.129378 
24   0.167617 
25   0.120167 
26   0.11976 
27   0.162306 
28   0.150586 
29   0.154413 
30   0.139543 
31   0.118429 
32   0.138935 
33   0.408235 
 
>  <lowdin_charges> 
33 
1   -0.441311 
2   -0.445554 
3   -0.446522 
4   -0.172129 
5   -0.167136 
6   -0.270488 
7   -0.278331 
8   -0.174274 
9   -0.000455 
10   -0.020842 
11   -0.167632 
12   -0.013286 
13   0.194801 
14   -0.238736 
15   -0.36176 
16   0.156361 
17   0.15994 
18   0.160142 
19   0.158177 
20   0.160097 
21   0.151753 
22   0.172217 
23   0.141422 
24   0.160836 
25   0.153442 
26   0.153314 
27   0.162525 
28   0.152148 
29   0.156945 
30   0.149603 
31   0.151655 
32   0.145793 
33   0.357286 
 
$$$$ 
 
