PCCDB-ID:  10433 
public computational chemistry database (PCCDB) project, http://pccdb.org 
 
 20 20  0  0  1  0  0  0  0  0999 V2000 
    0.7369    1.2711   -0.2211 C   0  0  0  0  0  0  0  0  0  0  0  0 
    1.4695    0.0004    0.2396 C   0  0  0  0  0  0  0  0  0  0  0  0 
   -0.7321    1.2760    0.2336 C   0  0  0  0  0  0  0  0  0  0  0  0 
   -0.7289   -1.2539    0.2372 C   0  0  0  0  0  0  0  0  0  0  0  0 
    0.7388   -1.2692   -0.2170 C   0  0  2  0  0  0  0  0  0  0  0  0 
   -1.4697    0.0106   -0.2233 C   0  0  1  0  0  0  0  0  0  0  0  0 
    1.4120   -2.4567    0.1966 O   0  0  0  0  0  0  0  0  0  0  0  0 
   -2.8359    0.0063    0.1863 O   0  0  0  0  0  0  0  0  0  0  0  0 
    0.7759    1.3326   -1.3183 H   0  0  0  0  0  0  0  0  0  0  0  0 
    1.2522    2.1626    0.1552 H   0  0  0  0  0  0  0  0  0  0  0  0 
    1.5324   -0.0077    1.3399 H   0  0  0  0  0  0  0  0  0  0  0  0 
    2.4987   -0.0192   -0.1371 H   0  0  0  0  0  0  0  0  0  0  0  0 
   -1.2588    2.1593   -0.1454 H   0  0  0  0  0  0  0  0  0  0  0  0 
   -0.7740    1.3268    1.3338 H   0  0  0  0  0  0  0  0  0  0  0  0 
   -0.7551   -1.2928    1.3405 H   0  0  0  0  0  0  0  0  0  0  0  0 
   -1.2456   -2.1476   -0.1288 H   0  0  0  0  0  0  0  0  0  0  0  0 
    0.7667   -1.3144   -1.3136 H   0  0  0  0  0  0  0  0  0  0  0  0 
   -1.5198    0.0094   -1.3201 H   0  0  0  0  0  0  0  0  0  0  0  0 
    1.4111   -2.4642    1.1676 H   0  0  0  0  0  0  0  0  0  0  0  0 
   -2.8446    0.0047    1.1573 H   0  0  0  0  0  0  0  0  0  0  0  0 
  1 10  1  0  0  0  0 
  1  3  1  0  0  0  0 
  1  2  1  0  0  0  0 
  2 11  1  0  0  0  0 
  3 14  1  0  0  0  0 
  4 15  1  0  0  0  0 
  5 17  1  6  0  0  0 
  5  7  1  0  0  0  0 
  5  4  1  0  0  0  0 
  5  2  1  0  0  0  0 
  6 18  1  6  0  0  0 
  6  8  1  0  0  0  0 
  6  3  1  0  0  0  0 
  6  4  1  0  0  0  0 
  7 19  1  0  0  0  0 
  8 20  1  0  0  0  0 
  9  1  1  0  0  0  0 
 12  2  1  0  0  0  0 
 13  3  1  0  0  0  0 
 16  4  1  0  0  0  0 
M  END 
>  <HBA> 
2 
 
>  <HBD> 
2 
 
>  <TPSA> 
40.46 
 
>  <cid> 
10433 
 
>  <dipole> 
2.38 
 
>  <excitation_energy_1> 
6.379 
 
>  <excitation_energy_2> 
6.531 
 
>  <excitation_energy_3> 
6.844 
 
>  <excitation_energy_4> 
6.934 
 
>  <homo_energy> 
-6.939 
 
>  <homo_lumo_gap> 
8.909 
 
>  <logP> 
0.282 
 
>  <lumo_energy> 
1.97 
 
>  <melting_point> 
33.25 
 
>  <molecular_refractivity> 
31.17 
 
>  <oscillator_strength_1> 
0.0104 
 
>  <oscillator_strength_2> 
0.0207 
 
>  <oscillator_strength_3> 
0.0033 
 
>  <oscillator_strength_4> 
0.0011 
 
>  <open_babel_can_smiles> 
O[C@@H]1CCC[C@@H](C1)O 
 
>  <mulliken_charges> 
20 
1   -0.276532 
2   -0.274615 
3   -0.274219 
4   -0.294705 
5   0.137712 
6   0.137401 
7   -0.624293 
8   -0.624142 
9   0.137703 
10   0.140667 
11   0.114791 
12   0.147714 
13   0.147639 
14   0.114612 
15   0.100401 
16   0.158334 
17   0.134904 
18   0.134974 
19   0.380872 
20   0.380781 
 
>  <lowdin_charges> 
20 
1   -0.277142 
2   -0.291575 
3   -0.292958 
4   -0.307548 
5   -0.003913 
6   -0.004189 
7   -0.455979 
8   -0.456534 
9   0.140545 
10   0.150523 
11   0.130446 
12   0.152057 
13   0.153708 
14   0.130385 
15   0.124968 
16   0.159144 
17   0.139518 
18   0.139547 
19   0.334526 
20   0.33447 
 
$$$$ 
 
