PCCDB-ID:  47953 
public computational chemistry database (PCCDB) project, http://pccdb.org 
 
 28 30  0  0  1  0  0  0  0  0999 V2000 
    1.1532    0.2581    0.2963 C   0  0  0  0  0  0  0  0  0  0  0  0 
    3.1963   -0.9868   -0.5466 C   0  0  0  0  0  0  0  0  0  0  0  0 
    3.5144    1.1724    0.4471 C   0  0  0  0  0  0  0  0  0  0  0  0 
    4.5686   -1.0818   -0.7819 C   0  0  0  0  0  0  0  0  0  0  0  0 
    4.8836    1.0803    0.2094 C   0  0  0  0  0  0  0  0  0  0  0  0 
    7.4910   -0.7362   -1.8927 C   0  0  0  0  0  0  0  0  0  0  0  0 
    8.9871    1.1452   -0.8878 C   0  0  0  0  0  0  0  0  0  0  0  0 
    7.8482   -0.2539    0.6195 C   0  0  0  0  0  0  0  0  0  0  0  0 
    2.6427    0.1413    0.0696 C   0  0  0  0  0  0  0  0  0  0  0  0 
    5.4387   -0.0491   -0.4121 C   0  0  0  0  0  0  0  0  0  0  0  0 
    7.6860    0.7305   -1.5947 C   0  0  2  0  0  0  0  0  0  0  0  0 
    6.9179   -0.1524   -0.6236 C   0  0  2  0  0  0  0  0  0  0  0  0 
    8.8179    0.8563    0.5529 N   0  0  0  0  0  0  0  0  0  0  0  0 
    0.6865   -0.7264    0.4088 H   0  0  0  0  0  0  0  0  0  0  0  0 
    0.6578    0.7576   -0.5474 H   0  0  0  0  0  0  0  0  0  0  0  0 
    0.9285    0.8432    1.1948 H   0  0  0  0  0  0  0  0  0  0  0  0 
    2.5455   -1.8068   -0.8435 H   0  0  0  0  0  0  0  0  0  0  0  0 
    3.1136    2.0610    0.9307 H   0  0  0  0  0  0  0  0  0  0  0  0 
    4.9731   -1.9738   -1.2534 H   0  0  0  0  0  0  0  0  0  0  0  0 
    5.5347    1.9003    0.5055 H   0  0  0  0  0  0  0  0  0  0  0  0 
    8.3546   -1.3957   -1.8114 H   0  0  0  0  0  0  0  0  0  0  0  0 
    6.8027   -1.0009   -2.6921 H   0  0  0  0  0  0  0  0  0  0  0  0 
    9.2226    2.2041   -1.0340 H   0  0  0  0  0  0  0  0  0  0  0  0 
    9.8386    0.5670   -1.2716 H   0  0  0  0  0  0  0  0  0  0  0  0 
    8.3920   -1.2081    0.6071 H   0  0  0  0  0  0  0  0  0  0  0  0 
    7.2849   -0.2100    1.5558 H   0  0  0  0  0  0  0  0  0  0  0  0 
    7.1605    1.4553   -2.2113 H   0  0  0  0  0  0  0  0  0  0  0  0 
    8.3740    1.6714    0.9749 H   0  0  0  0  0  0  0  0  0  0  0  0 
  1 14  1  0  0  0  0 
  1 16  1  0  0  0  0 
  2  9  1  0  0  0  0 
  3 18  1  0  0  0  0 
  4  2  2  0  0  0  0 
  4 10  1  0  0  0  0 
  5  3  1  0  0  0  0 
  5 20  1  0  0  0  0 
  6 21  1  0  0  0  0 
  6 11  1  0  0  0  0 
  6 12  1  0  0  0  0 
  7 13  1  0  0  0  0 
  8 26  1  0  0  0  0 
  9  1  1  0  0  0  0 
  9  3  2  0  0  0  0 
 10  5  2  0  0  0  0 
 11 27  1  6  0  0  0 
 11  7  1  0  0  0  0 
 11 12  1  0  0  0  0 
 12 10  1  1  0  0  0 
 12  8  1  0  0  0  0 
 13  8  1  0  0  0  0 
 13 28  1  0  0  0  0 
 15  1  1  0  0  0  0 
 17  2  1  0  0  0  0 
 19  4  1  0  0  0  0 
 22  6  1  0  0  0  0 
 23  7  1  0  0  0  0 
 24  7  1  0  0  0  0 
 25  8  1  0  0  0  0 
M  END 
>  <HBA> 
1 
 
>  <HBD> 
1 
 
>  <TPSA> 
12.03 
 
>  <cid> 
47953 
 
>  <dipole> 
1.61 
 
>  <excitation_energy_1> 
5.023 
 
>  <excitation_energy_2> 
5.278 
 
>  <excitation_energy_3> 
5.338 
 
>  <excitation_energy_4> 
5.466 
 
>  <homo_energy> 
-5.91 
 
>  <homo_lumo_gap> 
5.929 
 
>  <logP> 
2.185 
 
>  <lumo_energy> 
0.019 
 
>  <melting_point> 
88.61 
 
>  <molecular_refractivity> 
57.97 
 
>  <oscillator_strength_1> 
0.007 
 
>  <oscillator_strength_2> 
0.0956 
 
>  <oscillator_strength_3> 
0.0006 
 
>  <oscillator_strength_4> 
0.0305 
 
>  <open_babel_can_smiles> 
Cc1ccc(cc1)[C@@]12CNC[C@H]2C1 
 
>  <mulliken_charges> 
28 
1   -0.529542 
2   -0.182906 
3   -0.181281 
4   -0.179049 
5   -0.176456 
6   -0.331448 
7   -0.161654 
8   -0.177444 
9   0.178459 
10   0.133305 
11   -0.142108 
12   0.001418 
13   -0.524984 
14   0.156123 
15   0.164547 
16   0.156083 
17   0.120165 
18   0.119799 
19   0.126715 
20   0.114745 
21   0.144754 
22   0.150408 
23   0.139662 
24   0.147812 
25   0.147432 
26   0.149864 
27   0.144584 
28   0.290998 
 
>  <lowdin_charges> 
28 
1   -0.4433 
2   -0.16856 
3   -0.166995 
4   -0.163464 
5   -0.164484 
6   -0.310549 
7   -0.207838 
8   -0.207164 
9   -0.001525 
10   -0.007196 
11   -0.174953 
12   -0.028751 
13   -0.360975 
14   0.157284 
15   0.161964 
16   0.157898 
17   0.154427 
18   0.153736 
19   0.157701 
20   0.151645 
21   0.153586 
22   0.160912 
23   0.146958 
24   0.144396 
25   0.144225 
26   0.152695 
27   0.158471 
28   0.249855 
 
$$$$ 
 
