PCCDB-ID:  7625 
public computational chemistry database (PCCDB) project, http://pccdb.org 
 
 22 22  0  0  0  0  0  0  0  0999 V2000 
   -1.8979   -1.4484    1.5023 C   0  0  0  0  0  0  0  0  0  0  0  0 
   -1.7732   -0.9107    0.2211 C   0  0  0  0  0  0  0  0  0  0  0  0 
   -0.7496   -1.7697    2.2304 C   0  0  0  0  0  0  0  0  0  0  0  0 
   -0.5074   -0.6933   -0.3289 C   0  0  0  0  0  0  0  0  0  0  0  0 
    0.5123   -1.5516    1.6788 C   0  0  0  0  0  0  0  0  0  0  0  0 
    2.0353   -0.7783   -0.1961 C   0  0  0  0  0  0  0  0  0  0  0  0 
    2.7809   -2.0629   -0.6511 C   0  0  0  0  0  0  0  0  0  0  0  0 
    0.6547   -1.0097    0.3908 C   0  0  0  0  0  0  0  0  0  0  0  0 
    2.2413   -2.6996   -1.9244 C   0  0  0  0  0  0  0  0  0  0  0  0 
    2.8665   -2.8796   -3.0163 N   0  0  0  0  0  0  0  0  0  0  0  0 
    0.9507   -3.1299   -1.8712 O   0  0  0  0  0  0  0  0  0  0  0  0 
   -2.8817   -1.6157    1.9318 H   0  0  0  0  0  0  0  0  0  0  0  0 
   -2.6599   -0.6573   -0.3535 H   0  0  0  0  0  0  0  0  0  0  0  0 
   -0.8371   -2.1857    3.2305 H   0  0  0  0  0  0  0  0  0  0  0  0 
   -0.4185   -0.2757   -1.3288 H   0  0  0  0  0  0  0  0  0  0  0  0 
    1.4013   -1.7955    2.2572 H   0  0  0  0  0  0  0  0  0  0  0  0 
    1.9687   -0.0863   -1.0435 H   0  0  0  0  0  0  0  0  0  0  0  0 
    2.6630   -0.2890    0.5589 H   0  0  0  0  0  0  0  0  0  0  0  0 
    2.7476   -2.8031    0.1608 H   0  0  0  0  0  0  0  0  0  0  0  0 
    3.8354   -1.8184   -0.8140 H   0  0  0  0  0  0  0  0  0  0  0  0 
    3.8216   -2.5301   -2.9298 H   0  0  0  0  0  0  0  0  0  0  0  0 
    0.5474   -2.8666   -1.0281 H   0  0  0  0  0  0  0  0  0  0  0  0 
  1 12  1  0  0  0  0 
  1  3  2  0  0  0  0 
  2  1  1  0  0  0  0 
  3 14  1  0  0  0  0 
  4  2  2  0  0  0  0 
  4  8  1  0  0  0  0 
  5  3  1  0  0  0  0 
  5 16  1  0  0  0  0 
  6  8  1  0  0  0  0 
  6 18  1  0  0  0  0 
  7  6  1  0  0  0  0 
  7 19  1  0  0  0  0 
  8  5  2  0  0  0  0 
  9 11  1  0  0  0  0 
  9  7  1  0  0  0  0 
 10 21  1  0  0  0  0 
 10  9  2  0  0  0  0 
 11 22  1  0  0  0  0 
 13  2  1  0  0  0  0 
 15  4  1  0  0  0  0 
 17  6  1  0  0  0  0 
 20  7  1  0  0  0  0 
M  END 
>  <HBA> 
2 
 
>  <HBD> 
1 
 
>  <TPSA> 
43.09 
 
>  <cid> 
7625 
 
>  <dipole> 
4.69 
 
>  <excitation_energy_1> 
5.262 
 
>  <excitation_energy_2> 
5.642 
 
>  <excitation_energy_3> 
5.785 
 
>  <excitation_energy_4> 
5.933 
 
>  <homo_energy> 
-6.762 
 
>  <homo_lumo_gap> 
6.251 
 
>  <logP> 
1.805 
 
>  <lumo_energy> 
-0.512 
 
>  <melting_point> 
81.46 
 
>  <molecular_refractivity> 
43.93 
 
>  <oscillator_strength_1> 
0.0032 
 
>  <oscillator_strength_2> 
0.0514 
 
>  <oscillator_strength_3> 
0.0107 
 
>  <oscillator_strength_4> 
0.0047 
 
>  <open_babel_can_smiles> 
OC(=N)CCc1ccccc1 
 
>  <mulliken_charges> 
22 
1   -0.129735 
2   -0.122016 
3   -0.126085 
4   -0.18872 
5   -0.175576 
6   -0.340467 
7   -0.360757 
8   0.107163 
9   0.476406 
10   -0.58362 
11   -0.582466 
12   0.137769 
13   0.140966 
14   0.137381 
15   0.145568 
16   0.130311 
17   0.161945 
18   0.160311 
19   0.164329 
20   0.151137 
21   0.278225 
22   0.417931 
 
>  <lowdin_charges> 
22 
1   -0.154528 
2   -0.152305 
3   -0.149742 
4   -0.168081 
5   -0.170335 
6   -0.275092 
7   -0.308244 
8   -0.027004 
9   0.12423 
10   -0.40066 
11   -0.369887 
12   0.161494 
13   0.16399 
14   0.160425 
15   0.163594 
16   0.157658 
17   0.158816 
18   0.161685 
19   0.159835 
20   0.156918 
21   0.25205 
22   0.355185 
 
$$$$ 
 
