PCCDB-ID:  27541 
public computational chemistry database (PCCDB) project, http://pccdb.org 
 
 32 34  0  0  0  0  0  0  0  0999 V2000 
    3.0369   -1.1926    0.2412 C   0  0  0  0  0  0  0  0  0  0  0  0 
    2.4353    2.3541   -0.3645 C   0  0  0  0  0  0  0  0  0  0  0  0 
    3.0842    3.5590   -0.5854 C   0  0  0  0  0  0  0  0  0  0  0  0 
    7.7962    1.7754   -0.4137 C   0  0  0  0  0  0  0  0  0  0  0  0 
    7.8752    4.9730   -0.8930 C   0  0  0  0  0  0  0  0  0  0  0  0 
    8.9723    2.1693   -1.3188 C   0  0  0  0  0  0  0  0  0  0  0  0 
    9.1169    4.4032   -0.1670 C   0  0  0  0  0  0  0  0  0  0  0  0 
    4.5548    1.1508   -0.1910 C   0  0  0  0  0  0  0  0  0  0  0  0 
    3.1636    1.1567   -0.1689 C   0  0  0  0  0  0  0  0  0  0  0  0 
    6.6250    2.7192   -0.5049 C   0  0  0  0  0  0  0  0  0  0  0  0 
    5.2311    2.3675   -0.4143 C   0  0  0  0  0  0  0  0  0  0  0  0 
    4.4827    3.5559   -0.6086 C   0  0  0  0  0  0  0  0  0  0  0  0 
    6.6800    4.0772   -0.7448 C   0  0  0  0  0  0  0  0  0  0  0  0 
    9.7953    3.2565   -0.7702 N   0  0  0  0  0  0  0  0  0  0  0  0 
    5.3901    4.5792   -0.8090 N   0  0  0  0  0  0  0  0  0  0  0  0 
    2.3833    0.0449    0.0383 O   0  0  0  0  0  0  0  0  0  0  0  0 
    2.2466   -1.9330    0.3830 H   0  0  0  0  0  0  0  0  0  0  0  0 
    3.6779   -1.1726    1.1338 H   0  0  0  0  0  0  0  0  0  0  0  0 
    3.6476   -1.4773   -0.6273 H   0  0  0  0  0  0  0  0  0  0  0  0 
    1.3519    2.2999   -0.3357 H   0  0  0  0  0  0  0  0  0  0  0  0 
    2.5156    4.4734   -0.7346 H   0  0  0  0  0  0  0  0  0  0  0  0 
    8.1604    1.6634    0.6186 H   0  0  0  0  0  0  0  0  0  0  0  0 
    7.4623    0.7761   -0.7214 H   0  0  0  0  0  0  0  0  0  0  0  0 
    8.1141    5.1562   -1.9525 H   0  0  0  0  0  0  0  0  0  0  0  0 
    7.6417    5.9576   -0.4607 H   0  0  0  0  0  0  0  0  0  0  0  0 
    8.5585    2.4035   -2.3159 H   0  0  0  0  0  0  0  0  0  0  0  0 
    9.6351    1.3035   -1.4471 H   0  0  0  0  0  0  0  0  0  0  0  0 
    8.8131    4.1386    0.8536 H   0  0  0  0  0  0  0  0  0  0  0  0 
    9.8689    5.1945   -0.0688 H   0  0  0  0  0  0  0  0  0  0  0  0 
    5.1177    0.2373   -0.0359 H   0  0  0  0  0  0  0  0  0  0  0  0 
   10.4246    3.5827   -1.4994 H   0  0  0  0  0  0  0  0  0  0  0  0 
    5.1571    5.5490   -0.9551 H   0  0  0  0  0  0  0  0  0  0  0  0 
  1 17  1  0  0  0  0 
  1 18  1  0  0  0  0 
  2 20  1  0  0  0  0 
  2  9  2  0  0  0  0 
  3  2  1  0  0  0  0 
  4 22  1  0  0  0  0 
  5 13  1  0  0  0  0 
  5 25  1  0  0  0  0 
  5  7  1  0  0  0  0 
  6 14  1  0  0  0  0 
  6  4  1  0  0  0  0 
  7 29  1  0  0  0  0 
  7 28  1  0  0  0  0 
  8  9  1  0  0  0  0 
  8 30  1  0  0  0  0 
  9 16  1  0  0  0  0 
 10 11  1  0  0  0  0 
 10  4  1  0  0  0  0 
 11  8  2  0  0  0  0 
 12  3  2  0  0  0  0 
 12 11  1  0  0  0  0 
 13 10  2  0  0  0  0 
 14  7  1  0  0  0  0 
 15 13  1  0  0  0  0 
 15 12  1  0  0  0  0 
 16  1  1  0  0  0  0 
 19  1  1  0  0  0  0 
 21  3  1  0  0  0  0 
 23  4  1  0  0  0  0 
 24  5  1  0  0  0  0 
 26  6  1  0  0  0  0 
 27  6  1  0  0  0  0 
 31 14  1  0  0  0  0 
 32 15  1  0  0  0  0 
M  END 
>  <HBA> 
2 
 
>  <HBD> 
2 
 
>  <TPSA> 
37.05 
 
>  <cid> 
27541 
 
>  <dipole> 
2.36 
 
>  <excitation_energy_1> 
4.433 
 
>  <excitation_energy_2> 
4.526 
 
>  <excitation_energy_3> 
4.602 
 
>  <excitation_energy_4> 
4.639 
 
>  <homo_energy> 
-5.083 
 
>  <homo_lumo_gap> 
5.116 
 
>  <logP> 
2.193 
 
>  <lumo_energy> 
0.033 
 
>  <melting_point> 
159.14 
 
>  <molecular_refractivity> 
68.94 
 
>  <oscillator_strength_1> 
0.0424 
 
>  <oscillator_strength_2> 
0.0105 
 
>  <oscillator_strength_3> 
0.1537 
 
>  <oscillator_strength_4> 
0.0042 
 
>  <open_babel_can_smiles> 
COc1ccc2c(c1)c1CCNCCc1[nH]2 
 
>  <mulliken_charges> 
32 
1   -0.205864 
2   -0.193991 
3   -0.171493 
4   -0.354468 
5   -0.352014 
6   -0.121535 
7   -0.140257 
8   -0.290236 
9   0.37216 
10   0.040489 
11   0.057825 
12   0.327742 
13   0.302414 
14   -0.548143 
15   -0.767105 
16   -0.516933 
17   0.162608 
18   0.146091 
19   0.145027 
20   0.129772 
21   0.119702 
22   0.15562 
23   0.143262 
24   0.14852 
25   0.135633 
26   0.120237 
27   0.134515 
28   0.153863 
29   0.135835 
30   0.122426 
31   0.29153 
32   0.316771 
 
>  <lowdin_charges> 
32 
1   -0.279294 
2   -0.186842 
3   -0.17822 
4   -0.273342 
5   -0.294819 
6   -0.201436 
7   -0.204133 
8   -0.228567 
9   0.088794 
10   -0.084224 
11   -0.025012 
12   0.016114 
13   0.013631 
14   -0.370858 
15   -0.206044 
16   -0.208581 
17   0.159679 
18   0.141564 
19   0.141722 
20   0.161923 
21   0.155549 
22   0.151977 
23   0.153726 
24   0.148568 
25   0.14995 
26   0.12179 
27   0.143471 
28   0.146253 
29   0.148218 
30   0.159224 
31   0.254196 
32   0.285023 
 
$$$$ 
 
