PCCDB-ID:  16331 
public computational chemistry database (PCCDB) project, http://pccdb.org 
 
 28 27  0  0  0  0  0  0  0  0999 V2000 
    7.5789    1.5730   -3.6968 C   0  0  0  0  0  0  0  0  0  0  0  0 
    7.4431   -0.8390    5.7852 C   0  0  0  0  0  0  0  0  0  0  0  0 
    8.9099    1.2632   -2.9995 C   0  0  0  0  0  0  0  0  0  0  0  0 
    8.7899    0.3446   -1.7714 C   0  0  0  0  0  0  0  0  0  0  0  0 
    7.2877   -0.7694    3.2039 C   0  0  0  0  0  0  0  0  0  0  0  0 
    7.2914   -1.6290    1.9347 C   0  0  0  0  0  0  0  0  0  0  0  0 
    8.0199    0.9793   -0.6168 C   0  0  0  0  0  0  0  0  0  0  0  0 
    7.5921   -1.5741    4.4640 C   0  0  0  0  0  0  0  0  0  0  0  0 
    7.1108   -0.8220    0.6652 C   0  0  0  0  0  0  0  0  0  0  0  0 
    7.9386   -2.7387    4.4126 O   0  0  0  0  0  0  0  0  0  0  0  0 
    6.2433   -1.0049   -0.1616 O   0  0  0  0  0  0  0  0  0  0  0  0 
    8.0601    0.1413    0.5637 O   0  0  0  0  0  0  0  0  0  0  0  0 
    7.7422    2.1684   -4.6022 H   0  0  0  0  0  0  0  0  0  0  0  0 
    6.8971    2.1390   -3.0521 H   0  0  0  0  0  0  0  0  0  0  0  0 
    7.0641    0.6506   -3.9909 H   0  0  0  0  0  0  0  0  0  0  0  0 
    6.3907   -0.5763    5.9521 H   0  0  0  0  0  0  0  0  0  0  0  0 
    8.0086    0.1007    5.7771 H   0  0  0  0  0  0  0  0  0  0  0  0 
    7.7898   -1.4734    6.6033 H   0  0  0  0  0  0  0  0  0  0  0  0 
    9.3997    2.2028   -2.7051 H   0  0  0  0  0  0  0  0  0  0  0  0 
    9.5865    0.7840   -3.7185 H   0  0  0  0  0  0  0  0  0  0  0  0 
    9.7928    0.0819   -1.4111 H   0  0  0  0  0  0  0  0  0  0  0  0 
    8.2916   -0.5910   -2.0536 H   0  0  0  0  0  0  0  0  0  0  0  0 
    6.3232   -0.2584    3.3336 H   0  0  0  0  0  0  0  0  0  0  0  0 
    8.0353    0.0313    3.1245 H   0  0  0  0  0  0  0  0  0  0  0  0 
    6.4957   -2.3762    1.9670 H   0  0  0  0  0  0  0  0  0  0  0  0 
    8.2431   -2.1692    1.8769 H   0  0  0  0  0  0  0  0  0  0  0  0 
    6.9756    1.1622   -0.8787 H   0  0  0  0  0  0  0  0  0  0  0  0 
    8.4864    1.9177   -0.3015 H   0  0  0  0  0  0  0  0  0  0  0  0 
  1 14  1  0  0  0  0 
  1  3  1  0  0  0  0 
  2 16  1  0  0  0  0 
  2 18  1  0  0  0  0 
  3 19  1  0  0  0  0 
  3  4  1  0  0  0  0 
  4 21  1  0  0  0  0 
  4  7  1  0  0  0  0 
  5 23  1  0  0  0  0 
  5  8  1  0  0  0  0 
  6 25  1  0  0  0  0 
  6  5  1  0  0  0  0 
  7 28  1  0  0  0  0 
  7 12  1  0  0  0  0 
  8  2  1  0  0  0  0 
  9  6  1  0  0  0  0 
 10  8  2  0  0  0  0 
 11  9  2  0  0  0  0 
 12  9  1  0  0  0  0 
 13  1  1  0  0  0  0 
 15  1  1  0  0  0  0 
 17  2  1  0  0  0  0 
 20  3  1  0  0  0  0 
 22  4  1  0  0  0  0 
 24  5  1  0  0  0  0 
 26  6  1  0  0  0  0 
 27  7  1  0  0  0  0 
M  END 
>  <HBA> 
3 
 
>  <HBD> 
0 
 
>  <TPSA> 
43.37 
 
>  <cid> 
16331 
 
>  <dipole> 
3.43 
 
>  <excitation_energy_1> 
4.462 
 
>  <excitation_energy_2> 
5.704 
 
>  <excitation_energy_3> 
6.182 
 
>  <excitation_energy_4> 
6.236 
 
>  <homo_energy> 
-6.83 
 
>  <homo_lumo_gap> 
6.351 
 
>  <logP> 
1.699 
 
>  <lumo_energy> 
-0.479 
 
>  <melting_point> 
5.28 
 
>  <molecular_refractivity> 
46.86 
 
>  <oscillator_strength_1> 
0.0001 
 
>  <oscillator_strength_2> 
0.0039 
 
>  <oscillator_strength_3> 
0.0156 
 
>  <oscillator_strength_4> 
0.0443 
 
>  <open_babel_can_smiles> 
CCCCOC(=O)CCC(=O)C 
 
>  <mulliken_charges> 
28 
1   -0.444803 
2   -0.529277 
3   -0.260944 
4   -0.275314 
5   -0.371962 
6   -0.333741 
7   -0.044765 
8   0.457838 
9   0.604708 
10   -0.433638 
11   -0.47703 
12   -0.466126 
13   0.145178 
14   0.145978 
15   0.153297 
16   0.173208 
17   0.167439 
18   0.182747 
19   0.131331 
20   0.14116 
21   0.142121 
22   0.159729 
23   0.165339 
24   0.185389 
25   0.179769 
26   0.187121 
27   0.170194 
28   0.145055 
 
>  <lowdin_charges> 
28 
1   -0.449445 
2   -0.473127 
3   -0.274035 
4   -0.288386 
5   -0.309383 
6   -0.290772 
7   -0.132481 
8   0.164225 
9   0.196568 
10   -0.232239 
11   -0.266352 
12   -0.20151 
13   0.151834 
14   0.148521 
15   0.152858 
16   0.171461 
17   0.168609 
18   0.175403 
19   0.139257 
20   0.14906 
21   0.147982 
22   0.155275 
23   0.163058 
24   0.174672 
25   0.173975 
26   0.179241 
27   0.157043 
28   0.14869 
 
$$$$ 
 
