PCCDB-ID:  71871 
public computational chemistry database (PCCDB) project, http://pccdb.org 
 
 21 20  0  0  1  0  0  0  0  0999 V2000 
    1.1252   -0.8855   -0.4871 C   0  0  0  0  0  0  0  0  0  0  0  0 
    5.0581    2.0534    0.5514 C   0  0  0  0  0  0  0  0  0  0  0  0 
    2.6139   -0.9198   -0.3324 C   0  0  0  0  0  0  0  0  0  0  0  0 
    5.1808    0.8098    1.4254 C   0  0  2  0  0  0  0  0  0  0  0  0 
    4.6659   -0.4709    0.7309 C   0  0  1  0  0  0  0  0  0  0  0  0 
    4.9935   -1.7635    1.5209 C   0  0  0  0  0  0  0  0  0  0  0  0 
    3.2063   -0.3550    0.6430 N   0  0  0  0  0  0  0  0  0  0  0  0 
    4.4525    0.9684    2.6590 O   0  0  0  0  0  0  0  0  0  0  0  0 
    5.2189   -2.8054    0.9517 O   0  0  0  0  0  0  0  0  0  0  0  0 
    4.9798   -1.6615    2.8577 O   0  0  0  0  0  0  0  0  0  0  0  0 
    0.8487   -0.4491   -1.4555 H   0  0  0  0  0  0  0  0  0  0  0  0 
    0.6666   -0.3063    0.3178 H   0  0  0  0  0  0  0  0  0  0  0  0 
    0.7211   -1.9061   -0.4730 H   0  0  0  0  0  0  0  0  0  0  0  0 
    5.6893    1.9651   -0.3406 H   0  0  0  0  0  0  0  0  0  0  0  0 
    5.3731    2.9368    1.1146 H   0  0  0  0  0  0  0  0  0  0  0  0 
    4.0223    2.1991    0.2256 H   0  0  0  0  0  0  0  0  0  0  0  0 
    3.1772   -1.4683   -1.1018 H   0  0  0  0  0  0  0  0  0  0  0  0 
    6.2251    0.6678    1.7236 H   0  0  0  0  0  0  0  0  0  0  0  0 
    5.1362   -0.5962   -0.2528 H   0  0  0  0  0  0  0  0  0  0  0  0 
    3.5130    0.8939    2.3929 H   0  0  0  0  0  0  0  0  0  0  0  0 
    4.7573   -0.7290    3.1059 H   0  0  0  0  0  0  0  0  0  0  0  0 
  1 13  1  0  0  0  0 
  1  3  1  0  0  0  0 
  1 12  1  0  0  0  0 
  2 15  1  0  0  0  0 
  2  4  1  0  0  0  0 
  3  7  2  0  0  0  0 
  4 18  1  1  0  0  0 
  4  8  1  0  0  0  0 
  5 19  1  6  0  0  0 
  5  4  1  0  0  0  0 
  5  6  1  0  0  0  0 
  6 10  1  0  0  0  0 
  7  5  1  0  0  0  0 
  9  6  2  0  0  0  0 
 10 21  1  0  0  0  0 
 11  1  1  0  0  0  0 
 14  2  1  0  0  0  0 
 16  2  1  0  0  0  0 
 17  3  1  0  0  0  0 
 20  8  1  0  0  0  0 
M  END 
>  <HBA> 
4 
 
>  <HBD> 
2 
 
>  <TPSA> 
69.89 
 
>  <cid> 
71871 
 
>  <dipole> 
4.79 
 
>  <excitation_energy_1> 
5.053 
 
>  <excitation_energy_2> 
5.391 
 
>  <excitation_energy_3> 
6.001 
 
>  <excitation_energy_4> 
6.375 
 
>  <homo_energy> 
-6.955 
 
>  <homo_lumo_gap> 
6.142 
 
>  <logP> 
-0.089 
 
>  <lumo_energy> 
-0.814 
 
>  <melting_point> 
87.08 
 
>  <molecular_refractivity> 
37.57 
 
>  <oscillator_strength_1> 
0.0256 
 
>  <oscillator_strength_2> 
0.0133 
 
>  <oscillator_strength_3> 
0.0286 
 
>  <oscillator_strength_4> 
0.0133 
 
>  <open_babel_can_smiles> 
C/C=N/[C@H](C(=O)O)[C@H](O)C 
 
>  <mulliken_charges> 
21 
1   -0.499381 
2   -0.457622 
3   0.114919 
4   0.099506 
5   -0.110352 
6   0.611623 
7   -0.38404 
8   -0.641689 
9   -0.45956 
10   -0.584809 
11   0.169314 
12   0.175335 
13   0.179345 
14   0.150004 
15   0.168355 
16   0.156383 
17   0.146172 
18   0.159654 
19   0.156461 
20   0.415353 
21   0.435029 
 
>  <lowdin_charges> 
21 
1   -0.450076 
2   -0.455829 
3   -0.041476 
4   -0.009035 
5   -0.121511 
6   0.184912 
7   -0.191072 
8   -0.457533 
9   -0.25287 
10   -0.356022 
11   0.168599 
12   0.170559 
13   0.173503 
14   0.157555 
15   0.165697 
16   0.156107 
17   0.14334 
18   0.152174 
19   0.156728 
20   0.346491 
21   0.35976 
 
$$$$ 
 
