PCCDB-ID:  18116 
public computational chemistry database (PCCDB) project, http://pccdb.org 
 
 33 34  0  0  1  0  0  0  0  0999 V2000 
    1.0599   -0.4550   -1.4830 C   0  0  0  0  0  0  0  0  0  0  0  0 
    3.0854    4.3535   -2.3080 C   0  0  0  0  0  0  0  0  0  0  0  0 
    4.0156    3.5755   -1.6150 C   0  0  0  0  0  0  0  0  0  0  0  0 
    1.7224    4.1092   -2.1371 C   0  0  0  0  0  0  0  0  0  0  0  0 
    1.4215   -4.8947    3.3975 C   0  0  0  0  0  0  0  0  0  0  0  0 
    3.5822    2.5616   -0.7610 C   0  0  0  0  0  0  0  0  0  0  0  0 
    1.2944    3.0925   -1.2809 C   0  0  0  0  0  0  0  0  0  0  0  0 
    1.0433   -4.5053    2.0689 C   0  0  0  0  0  0  0  0  0  0  0  0 
    2.4095   -4.0397    3.7733 C   0  0  0  0  0  0  0  0  0  0  0  0 
    1.7575    1.1889    0.3367 C   0  0  0  0  0  0  0  0  0  0  0  0 
    1.9525   -2.5832    0.5203 C   0  0  0  0  0  0  0  0  0  0  0  0 
    1.9321   -0.2348   -0.2430 C   0  0  1  0  0  0  0  0  0  0  0  0 
    2.2154    2.3010   -0.5821 C   0  0  0  0  0  0  0  0  0  0  0  0 
    1.8310   -3.4460    1.7305 C   0  0  0  0  0  0  0  0  0  0  0  0 
    1.5771   -1.1933    0.8125 N   0  0  0  0  0  0  0  0  0  0  0  0 
    2.6768   -3.1510    2.7712 O   0  0  0  0  0  0  0  0  0  0  0  0 
    1.2803    0.2952   -2.2484 H   0  0  0  0  0  0  0  0  0  0  0  0 
   -0.0005   -0.3838   -1.2139 H   0  0  0  0  0  0  0  0  0  0  0  0 
    1.2316   -1.4407   -1.9284 H   0  0  0  0  0  0  0  0  0  0  0  0 
    3.4209    5.1460   -2.9716 H   0  0  0  0  0  0  0  0  0  0  0  0 
    5.0797    3.7616   -1.7362 H   0  0  0  0  0  0  0  0  0  0  0  0 
    0.9895    4.7122   -2.6670 H   0  0  0  0  0  0  0  0  0  0  0  0 
    1.0073   -5.7002    3.9878 H   0  0  0  0  0  0  0  0  0  0  0  0 
    4.3142    1.9658   -0.2194 H   0  0  0  0  0  0  0  0  0  0  0  0 
    0.2300    2.9116   -1.1491 H   0  0  0  0  0  0  0  0  0  0  0  0 
    0.2821   -4.9558    1.4469 H   0  0  0  0  0  0  0  0  0  0  0  0 
    3.0021   -3.9277    4.6685 H   0  0  0  0  0  0  0  0  0  0  0  0 
    2.3259    1.2432    1.2766 H   0  0  0  0  0  0  0  0  0  0  0  0 
    0.7018    1.3216    0.6018 H   0  0  0  0  0  0  0  0  0  0  0  0 
    1.2849   -2.9894   -0.2462 H   0  0  0  0  0  0  0  0  0  0  0  0 
    2.9829   -2.6584    0.1177 H   0  0  0  0  0  0  0  0  0  0  0  0 
    2.9925   -0.3498   -0.5472 H   0  0  0  0  0  0  0  0  0  0  0  0 
    2.0572   -0.9220    1.6699 H   0  0  0  0  0  0  0  0  0  0  0  0 
  1 18  1  0  0  0  0 
  1 12  1  0  0  0  0 
  2  4  2  0  0  0  0 
  2  3  1  0  0  0  0 
  3  6  2  0  0  0  0 
  4  7  1  0  0  0  0 
  5  9  2  0  0  0  0 
  5 23  1  0  0  0  0 
  6 13  1  0  0  0  0 
  6 24  1  0  0  0  0 
  7 25  1  0  0  0  0 
  7 13  2  0  0  0  0 
  8  5  1  0  0  0  0 
  9 27  1  0  0  0  0 
 10 29  1  0  0  0  0 
 10 28  1  0  0  0  0 
 11 15  1  0  0  0  0 
 11 14  1  0  0  0  0 
 12 32  1  6  0  0  0 
 12 10  1  0  0  0  0 
 12 15  1  0  0  0  0 
 13 10  1  0  0  0  0 
 14  8  2  0  0  0  0 
 14 16  1  0  0  0  0 
 15 33  1  0  0  0  0 
 16  9  1  0  0  0  0 
 17  1  1  0  0  0  0 
 19  1  1  0  0  0  0 
 20  2  1  0  0  0  0 
 21  3  1  0  0  0  0 
 22  4  1  0  0  0  0 
 26  8  1  0  0  0  0 
 30 11  1  0  0  0  0 
 31 11  1  0  0  0  0 
M  END 
>  <HBA> 
2 
 
>  <HBD> 
1 
 
>  <TPSA> 
25.17 
 
>  <cid> 
18116 
 
>  <dipole> 
0.6 
 
>  <excitation_energy_1> 
5.243 
 
>  <excitation_energy_2> 
5.303 
 
>  <excitation_energy_3> 
5.367 
 
>  <excitation_energy_4> 
5.426 
 
>  <homo_energy> 
-5.905 
 
>  <homo_lumo_gap> 
5.929 
 
>  <logP> 
3.391 
 
>  <lumo_energy> 
0.024 
 
>  <melting_point> 
61.96 
 
>  <molecular_refractivity> 
65.38 
 
>  <oscillator_strength_1> 
0.0039 
 
>  <oscillator_strength_2> 
0.001 
 
>  <oscillator_strength_3> 
0.0109 
 
>  <oscillator_strength_4> 
0.013 
 
>  <open_babel_can_smiles> 
C[C@@H](Cc1ccccc1)NCc1ccco1 
 
>  <mulliken_charges> 
33 
1   -0.453122 
2   -0.1313 
3   -0.128678 
4   -0.127964 
5   -0.182507 
6   -0.179255 
7   -0.184749 
8   -0.200474 
9   0.082535 
10   -0.368176 
11   -0.18862 
12   0.070929 
13   0.173388 
14   0.329074 
15   -0.567327 
16   -0.445224 
17   0.156756 
18   0.149844 
19   0.143157 
20   0.127639 
21   0.128104 
22   0.128351 
23   0.140077 
24   0.122391 
25   0.126113 
26   0.137732 
27   0.151777 
28   0.137201 
29   0.153601 
30   0.158434 
31   0.130489 
32   0.106541 
33   0.303263 
 
>  <lowdin_charges> 
33 
1   -0.452567 
2   -0.161219 
3   -0.153796 
4   -0.157689 
5   -0.205504 
6   -0.169151 
7   -0.166342 
8   -0.214425 
9   -0.083836 
10   -0.275966 
11   -0.19922 
12   -0.055517 
13   -0.000389 
14   0.063058 
15   -0.365035 
16   -0.110074 
17   0.160042 
18   0.151112 
19   0.148626 
20   0.157524 
21   0.155151 
22   0.158468 
23   0.169577 
24   0.155113 
25   0.153928 
26   0.169361 
27   0.169775 
28   0.14759 
29   0.15384 
30   0.158984 
31   0.129983 
32   0.113625 
33   0.254973 
 
$$$$ 
 
