PCCDB-ID:  69144 
public computational chemistry database (PCCDB) project, http://pccdb.org 
 
 23 23  0  0  0  0  0  0  0  0999 V2000 
    1.6559    1.4664   -0.6060 C   0  0  0  0  0  0  0  0  0  0  0  0 
    2.7503   -0.7144   -1.3152 C   0  0  0  0  0  0  0  0  0  0  0  0 
   -2.0983   -0.4895    3.2082 C   0  0  0  0  0  0  0  0  0  0  0  0 
   -0.8810   -0.8695    3.7817 C   0  0  0  0  0  0  0  0  0  0  0  0 
   -2.1475   -0.1175    1.8640 C   0  0  0  0  0  0  0  0  0  0  0  0 
    0.2780   -0.8767    3.0126 C   0  0  0  0  0  0  0  0  0  0  0  0 
   -0.9853   -0.1275    1.0922 C   0  0  0  0  0  0  0  0  0  0  0  0 
    1.5732   -0.0763   -0.5694 C   0  0  0  0  0  0  0  0  0  0  0  0 
    0.2424   -0.5063    1.6579 C   0  0  0  0  0  0  0  0  0  0  0  0 
    1.5366   -0.5399    0.8921 C   0  0  0  0  0  0  0  0  0  0  0  0 
    2.5636   -0.9043    1.4475 O   0  0  0  0  0  0  0  0  0  0  0  0 
    1.6589    1.8199   -1.6431 H   0  0  0  0  0  0  0  0  0  0  0  0 
    2.5814    1.8077   -0.1284 H   0  0  0  0  0  0  0  0  0  0  0  0 
    0.8147    1.9378   -0.0869 H   0  0  0  0  0  0  0  0  0  0  0  0 
    2.7833   -0.3560   -2.3501 H   0  0  0  0  0  0  0  0  0  0  0  0 
    2.6648   -1.8061   -1.3330 H   0  0  0  0  0  0  0  0  0  0  0  0 
    3.6964   -0.4662   -0.8265 H   0  0  0  0  0  0  0  0  0  0  0  0 
   -3.0049   -0.4832    3.8076 H   0  0  0  0  0  0  0  0  0  0  0  0 
   -0.8392   -1.1601    4.8280 H   0  0  0  0  0  0  0  0  0  0  0  0 
   -3.0913    0.1780    1.4141 H   0  0  0  0  0  0  0  0  0  0  0  0 
    1.2334   -1.1674    3.4368 H   0  0  0  0  0  0  0  0  0  0  0  0 
   -1.0452    0.1627    0.0485 H   0  0  0  0  0  0  0  0  0  0  0  0 
    0.6402   -0.3808   -1.0602 H   0  0  0  0  0  0  0  0  0  0  0  0 
  1  8  1  0  0  0  0 
  1 13  1  0  0  0  0 
  1 14  1  0  0  0  0 
  2 17  1  0  0  0  0 
  2  8  1  0  0  0  0 
  3  4  1  0  0  0  0 
  3 18  1  0  0  0  0 
  4 19  1  0  0  0  0 
  5  3  2  0  0  0  0 
  6 21  1  0  0  0  0 
  6  4  2  0  0  0  0 
  7  9  2  0  0  0  0 
  7  5  1  0  0  0  0 
  8 10  1  0  0  0  0 
  9  6  1  0  0  0  0 
 10 11  2  0  0  0  0 
 10  9  1  0  0  0  0 
 12  1  1  0  0  0  0 
 15  2  1  0  0  0  0 
 16  2  1  0  0  0  0 
 20  5  1  0  0  0  0 
 22  7  1  0  0  0  0 
 23  8  1  0  0  0  0 
M  END 
>  <HBA> 
1 
 
>  <HBD> 
0 
 
>  <TPSA> 
17.07 
 
>  <cid> 
69144 
 
>  <dipole> 
2.82 
 
>  <excitation_energy_1> 
3.66 
 
>  <excitation_energy_2> 
4.721 
 
>  <excitation_energy_3> 
5.129 
 
>  <excitation_energy_4> 
5.44 
 
>  <homo_energy> 
-6.618 
 
>  <homo_lumo_gap> 
5.151 
 
>  <logP> 
2.525 
 
>  <lumo_energy> 
-1.467 
 
>  <melting_point> 
36.88 
 
>  <molecular_refractivity> 
46.25 
 
>  <oscillator_strength_1> 
0.0004 
 
>  <oscillator_strength_2> 
0.0203 
 
>  <oscillator_strength_3> 
0.2547 
 
>  <oscillator_strength_4> 
0.0002 
 
>  <open_babel_can_smiles> 
CC(C(=O)c1ccccc1)C 
 
>  <mulliken_charges> 
23 
1   -0.452623 
2   -0.437095 
3   -0.118759 
4   -0.132757 
5   -0.135973 
6   -0.153777 
7   -0.181492 
8   -0.165977 
9   0.07536 
10   0.403888 
11   -0.47009 
12   0.152446 
13   0.162576 
14   0.15176 
15   0.13546 
16   0.14919 
17   0.167537 
18   0.137346 
19   0.138092 
20   0.135658 
21   0.164334 
22   0.139128 
23   0.135766 
 
>  <lowdin_charges> 
23 
1   -0.440722 
2   -0.436371 
3   -0.140656 
4   -0.152746 
5   -0.158465 
6   -0.127766 
7   -0.148999 
8   -0.153037 
9   -0.050569 
10   0.162351 
11   -0.24507 
12   0.153629 
13   0.15815 
14   0.153813 
15   0.146301 
16   0.152161 
17   0.161817 
18   0.16171 
19   0.160021 
20   0.160578 
21   0.177109 
22   0.160463 
23   0.146298 
 
$$$$ 
 
