PCCDB-ID:  13034 
public computational chemistry database (PCCDB) project, http://pccdb.org 
 
 22 22  0  0  0  0  0  0  0  0999 V2000 
    3.3249    0.5642   -1.0460 C   0  0  0  0  0  0  0  0  0  0  0  0 
    2.5360    0.1682    0.2150 C   0  0  0  0  0  0  0  0  0  0  0  0 
    2.4154   -2.3592    0.4199 C   0  0  0  0  0  0  0  0  0  0  0  0 
    4.0492   -1.1908    1.7352 C   0  0  0  0  0  0  0  0  0  0  0  0 
    2.8723   -3.5737    0.9320 C   0  0  0  0  0  0  0  0  0  0  0  0 
    4.5034   -2.4016    2.2545 C   0  0  0  0  0  0  0  0  0  0  0  0 
    4.3949   -4.9252    2.4478 C   0  0  0  0  0  0  0  0  0  0  0  0 
    2.9973   -1.1462    0.8093 C   0  0  0  0  0  0  0  0  0  0  0  0 
    3.9180   -3.6114    1.8603 C   0  0  0  0  0  0  0  0  0  0  0  0 
    5.7971   -4.9652    2.6907 O   0  0  0  0  0  0  0  0  0  0  0  0 
    2.9681    1.5195   -1.4482 H   0  0  0  0  0  0  0  0  0  0  0  0 
    3.2199   -0.1952   -1.8290 H   0  0  0  0  0  0  0  0  0  0  0  0 
    4.3934    0.6664   -0.8248 H   0  0  0  0  0  0  0  0  0  0  0  0 
    1.4691    0.1039   -0.0339 H   0  0  0  0  0  0  0  0  0  0  0  0 
    2.6335    0.9640    0.9644 H   0  0  0  0  0  0  0  0  0  0  0  0 
    1.5979   -2.3536   -0.2983 H   0  0  0  0  0  0  0  0  0  0  0  0 
    4.5158   -0.2617    2.0570 H   0  0  0  0  0  0  0  0  0  0  0  0 
    2.4072   -4.5028    0.6078 H   0  0  0  0  0  0  0  0  0  0  0  0 
    5.3207   -2.4198    2.9701 H   0  0  0  0  0  0  0  0  0  0  0  0 
    4.0754   -5.7578    1.8001 H   0  0  0  0  0  0  0  0  0  0  0  0 
    3.9377   -5.0947    3.4302 H   0  0  0  0  0  0  0  0  0  0  0  0 
    6.2380   -4.7588    1.8510 H   0  0  0  0  0  0  0  0  0  0  0  0 
  1 13  1  0  0  0  0 
  1  2  1  0  0  0  0 
  2  8  1  0  0  0  0 
  2 15  1  0  0  0  0 
  3  8  2  0  0  0  0 
  3  5  1  0  0  0  0 
  4 17  1  0  0  0  0 
  4  6  2  0  0  0  0 
  5  9  2  0  0  0  0 
  6 19  1  0  0  0  0 
  7 10  1  0  0  0  0 
  7 21  1  0  0  0  0 
  8  4  1  0  0  0  0 
  9  6  1  0  0  0  0 
  9  7  1  0  0  0  0 
 11  1  1  0  0  0  0 
 12  1  1  0  0  0  0 
 14  2  1  0  0  0  0 
 16  3  1  0  0  0  0 
 18  5  1  0  0  0  0 
 20  7  1  0  0  0  0 
 22 10  1  0  0  0  0 
M  END 
>  <HBA> 
1 
 
>  <HBD> 
1 
 
>  <TPSA> 
20.23 
 
>  <cid> 
13034 
 
>  <dipole> 
1.79 
 
>  <excitation_energy_1> 
5.168 
 
>  <excitation_energy_2> 
5.611 
 
>  <excitation_energy_3> 
5.956 
 
>  <excitation_energy_4> 
6.173 
 
>  <homo_energy> 
-6.338 
 
>  <homo_lumo_gap> 
6.286 
 
>  <logP> 
1.741 
 
>  <lumo_energy> 
-0.052 
 
>  <melting_point> 
29.94 
 
>  <molecular_refractivity> 
42.34 
 
>  <oscillator_strength_1> 
0.0012 
 
>  <oscillator_strength_2> 
0.148 
 
>  <oscillator_strength_3> 
0.0018 
 
>  <oscillator_strength_4> 
0.0172 
 
>  <open_babel_can_smiles> 
CCc1ccc(cc1)CO 
 
>  <mulliken_charges> 
22 
1   -0.433087 
2   -0.340251 
3   -0.182405 
4   -0.182522 
5   -0.180674 
6   -0.172917 
7   -0.091393 
8   0.177988 
9   0.100837 
10   -0.609602 
11   0.143818 
12   0.148626 
13   0.148934 
14   0.142659 
15   0.143714 
16   0.12185 
17   0.122641 
18   0.121841 
19   0.141259 
20   0.127636 
21   0.163113 
22   0.387934 
 
>  <lowdin_charges> 
22 
1   -0.439307 
2   -0.270073 
3   -0.16565 
4   -0.166077 
5   -0.166866 
6   -0.160892 
7   -0.132266 
8   -0.001213 
9   -0.037882 
10   -0.463305 
11   0.149445 
12   0.150849 
13   0.148761 
14   0.146977 
15   0.14984 
16   0.154053 
17   0.154376 
18   0.154046 
19   0.163964 
20   0.13283 
21   0.156645 
22   0.341745 
 
$$$$ 
 
