PCCDB-ID:  52561 
public computational chemistry database (PCCDB) project, http://pccdb.org 
 
 32 33  0  0  1  0  0  0  0  0999 V2000 
    1.1246   -0.7237   -0.7999 C   0  0  0  0  0  0  0  0  0  0  0  0 
    6.7961    1.4897   -0.4255 C   0  0  0  0  0  0  0  0  0  0  0  0 
    6.1647    2.5375   -1.2397 C   0  0  0  0  0  0  0  0  0  0  0  0 
    6.0629    0.5330    0.1814 C   0  0  0  0  0  0  0  0  0  0  0  0 
    4.8898    2.4238   -1.6617 C   0  0  0  0  0  0  0  0  0  0  0  0 
    3.8755   -1.8451   -0.5699 C   0  0  0  0  0  0  0  0  0  0  0  0 
    5.1707   -2.5772   -0.1521 C   0  0  0  0  0  0  0  0  0  0  0  0 
    2.2586    0.1722   -0.3016 C   0  0  1  0  0  0  0  0  0  0  0  0 
    3.5621   -0.5471    0.2020 C   0  0  2  0  0  0  0  0  0  0  0  0 
    4.5649    0.6154    0.0257 C   0  0  2  0  0  0  0  0  0  0  0  0 
    4.1745    1.1366   -1.3599 C   0  0  1  0  0  0  0  0  0  0  0  0 
    5.2651   -2.8475    1.3425 C   0  0  0  0  0  0  0  0  0  0  0  0 
    2.7004    1.1241   -1.3728 N   0  0  0  0  0  0  0  0  0  0  0  0 
    6.1077   -2.3889    2.0744 O   0  0  0  0  0  0  0  0  0  0  0  0 
    4.2957   -3.6569    1.8579 O   0  0  0  0  0  0  0  0  0  0  0  0 
    0.8113   -1.4398   -0.0291 H   0  0  0  0  0  0  0  0  0  0  0  0 
    1.4142   -1.2734   -1.7006 H   0  0  0  0  0  0  0  0  0  0  0  0 
    0.2544   -0.1110   -1.0590 H   0  0  0  0  0  0  0  0  0  0  0  0 
    7.8716    1.5383   -0.2713 H   0  0  0  0  0  0  0  0  0  0  0  0 
    6.7592    3.4087   -1.5052 H   0  0  0  0  0  0  0  0  0  0  0  0 
    6.5136   -0.1769    0.8699 H   0  0  0  0  0  0  0  0  0  0  0  0 
    4.4256    3.1728   -2.2999 H   0  0  0  0  0  0  0  0  0  0  0  0 
    3.0223   -2.5267   -0.4485 H   0  0  0  0  0  0  0  0  0  0  0  0 
    3.9380   -1.6508   -1.6465 H   0  0  0  0  0  0  0  0  0  0  0  0 
    6.0514   -1.9985   -0.4326 H   0  0  0  0  0  0  0  0  0  0  0  0 
    5.2257   -3.5356   -0.6880 H   0  0  0  0  0  0  0  0  0  0  0  0 
    1.8730    0.7422    0.5573 H   0  0  0  0  0  0  0  0  0  0  0  0 
    3.4393   -0.8031    1.2619 H   0  0  0  0  0  0  0  0  0  0  0  0 
    4.2356    1.3902    0.7466 H   0  0  0  0  0  0  0  0  0  0  0  0 
    4.5244    0.4038   -2.1126 H   0  0  0  0  0  0  0  0  0  0  0  0 
    2.3544    2.0552   -1.1518 H   0  0  0  0  0  0  0  0  0  0  0  0 
    3.7013   -3.9541    1.1491 H   0  0  0  0  0  0  0  0  0  0  0  0 
  1  8  1  0  0  0  0 
  1 16  1  0  0  0  0 
  2 19  1  0  0  0  0 
  2  4  2  0  0  0  0 
  3  2  1  0  0  0  0 
  4 21  1  0  0  0  0 
  5 11  1  0  0  0  0 
  5  3  2  0  0  0  0 
  6 23  1  0  0  0  0 
  6  7  1  0  0  0  0 
  6  9  1  0  0  0  0 
  7 12  1  0  0  0  0 
  8  9  1  0  0  0  0 
  8 27  1  1  0  0  0 
  9 28  1  1  0  0  0 
 10  4  1  0  0  0  0 
 10  9  1  0  0  0  0 
 10 29  1  1  0  0  0 
 11 30  1  6  0  0  0 
 11 10  1  0  0  0  0 
 12 15  1  0  0  0  0 
 12 14  2  0  0  0  0 
 13 11  1  0  0  0  0 
 13 31  1  0  0  0  0 
 13  8  1  0  0  0  0 
 17  1  1  0  0  0  0 
 18  1  1  0  0  0  0 
 20  3  1  0  0  0  0 
 22  5  1  0  0  0  0 
 24  6  1  0  0  0  0 
 25  7  1  0  0  0  0 
 26  7  1  0  0  0  0 
 32 15  1  0  0  0  0 
M  END 
>  <HBA> 
3 
 
>  <HBD> 
2 
 
>  <TPSA> 
49.33 
 
>  <cid> 
52561 
 
>  <dipole> 
3.03 
 
>  <excitation_energy_1> 
4.145 
 
>  <excitation_energy_2> 
4.781 
 
>  <excitation_energy_3> 
4.791 
 
>  <excitation_energy_4> 
5.111 
 
>  <homo_energy> 
-5.676 
 
>  <homo_lumo_gap> 
4.928 
 
>  <logP> 
1.899 
 
>  <lumo_energy> 
-0.748 
 
>  <melting_point> 
138.53 
 
>  <molecular_refractivity> 
63.11 
 
>  <oscillator_strength_1> 
0.0214 
 
>  <oscillator_strength_2> 
0.0192 
 
>  <oscillator_strength_3> 
0.0774 
 
>  <oscillator_strength_4> 
0.0018 
 
>  <open_babel_can_smiles> 
OC(=O)CC[C@@H]1[C@H](C)N[C@@H]2[C@@H]1C=CC=C2 
 
>  <mulliken_charges> 
32 
1   -0.434667 
2   -0.139262 
3   -0.114943 
4   -0.148872 
5   -0.155221 
6   -0.291509 
7   -0.39133 
8   0.035419 
9   -0.130833 
10   -0.138737 
11   0.012149 
12   0.600801 
13   -0.584138 
14   -0.440279 
15   -0.565547 
16   0.130048 
17   0.15038 
18   0.148069 
19   0.130493 
20   0.128814 
21   0.173053 
22   0.134489 
23   0.12846 
24   0.166478 
25   0.188894 
26   0.159459 
27   0.123458 
28   0.141262 
29   0.138982 
30   0.13953 
31   0.294156 
32   0.410944 
 
>  <lowdin_charges> 
32 
1   -0.451409 
2   -0.170524 
3   -0.164844 
4   -0.170648 
5   -0.174229 
6   -0.277405 
7   -0.32306 
8   -0.061372 
9   -0.143253 
10   -0.136734 
11   -0.068136 
12   0.197552 
13   -0.373769 
14   -0.241535 
15   -0.362151 
16   0.143903 
17   0.153049 
18   0.156069 
19   0.155704 
20   0.157819 
21   0.175084 
22   0.159867 
23   0.139774 
24   0.15671 
25   0.178348 
26   0.161676 
27   0.133091 
28   0.148534 
29   0.151374 
30   0.138031 
31   0.253747 
32   0.358737 
 
$$$$ 
 
