PCCDB-ID:  48125 
public computational chemistry database (PCCDB) project, http://pccdb.org 
 
 31 31  0  0  1  0  0  0  0  0999 V2000 
    0.7235    0.2275    0.0747 C   0  0  0  0  0  0  0  0  0  0  0  0 
    2.8477   -0.2583    1.3544 C   0  0  0  0  0  0  0  0  0  0  0  0 
    4.4661    1.7698   -2.6913 C   0  0  0  0  0  0  0  0  0  0  0  0 
    5.0677   -2.6693   -1.3173 C   0  0  0  0  0  0  0  0  0  0  0  0 
    4.6888   -2.5487   -3.7496 C   0  0  0  0  0  0  0  0  0  0  0  0 
    2.9176    1.2823   -0.6997 C   0  0  0  0  0  0  0  0  0  0  0  0 
    2.2396    0.0568   -0.0141 C   0  0  0  0  0  0  0  0  0  0  0  0 
    4.0633    0.7842   -1.5990 C   0  0  2  0  0  0  0  0  0  0  0  0 
    4.3242   -2.0701   -2.4189 N   0  0  0  0  0  0  0  0  0  0  0  0 
    5.2007    0.3750   -0.8239 O   0  0  0  0  0  0  0  0  0  0  0  0 
    2.4787   -0.5355   -3.4879 O   0  0  0  0  0  0  0  0  0  0  0  0 
    2.4962   -1.1090   -0.8652 O   0  0  0  0  0  0  0  0  0  0  0  0 
    3.2845   -0.7816   -2.2589 P   0  0  2  0  0  0  0  0  0  0  0  0 
    0.4728    1.1053    0.6824 H   0  0  0  0  0  0  0  0  0  0  0  0 
    0.2646   -0.6537    0.5344 H   0  0  0  0  0  0  0  0  0  0  0  0 
    0.2948    0.3586   -0.9236 H   0  0  0  0  0  0  0  0  0  0  0  0 
    2.6211    0.5444    2.0665 H   0  0  0  0  0  0  0  0  0  0  0  0 
    3.9333   -0.3610    1.2789 H   0  0  0  0  0  0  0  0  0  0  0  0 
    2.4281   -1.1913    1.7442 H   0  0  0  0  0  0  0  0  0  0  0  0 
    4.8003    2.7200   -2.2507 H   0  0  0  0  0  0  0  0  0  0  0  0 
    3.6285    1.9730   -3.3633 H   0  0  0  0  0  0  0  0  0  0  0  0 
    5.2921    1.3616   -3.2828 H   0  0  0  0  0  0  0  0  0  0  0  0 
    6.1316   -2.3991   -1.3569 H   0  0  0  0  0  0  0  0  0  0  0  0 
    4.9813   -3.7631   -1.3724 H   0  0  0  0  0  0  0  0  0  0  0  0 
    4.6593   -2.3383   -0.3637 H   0  0  0  0  0  0  0  0  0  0  0  0 
    5.7423   -2.3289   -3.9788 H   0  0  0  0  0  0  0  0  0  0  0  0 
    4.0518   -2.0763   -4.4979 H   0  0  0  0  0  0  0  0  0  0  0  0 
    4.5464   -3.6364   -3.8050 H   0  0  0  0  0  0  0  0  0  0  0  0 
    3.2825    1.9994    0.0472 H   0  0  0  0  0  0  0  0  0  0  0  0 
    2.1837    1.8060   -1.3231 H   0  0  0  0  0  0  0  0  0  0  0  0 
    5.5809    1.1765   -0.4261 H   0  0  0  0  0  0  0  0  0  0  0  0 
  1 15  1  0  0  0  0 
  1 14  1  0  0  0  0 
  2 19  1  0  0  0  0 
  2 17  1  0  0  0  0 
  3 20  1  0  0  0  0 
  3  8  1  0  0  0  0 
  4 25  1  0  0  0  0 
  5  9  1  0  0  0  0 
  6  7  1  0  0  0  0 
  6 29  1  0  0  0  0 
  7  1  1  0  0  0  0 
  7  2  1  0  0  0  0 
  8 10  1  1  0  0  0 
  8  6  1  0  0  0  0 
  9 13  1  0  0  0  0 
  9  4  1  0  0  0  0 
 10 31  1  0  0  0  0 
 12  7  1  0  0  0  0 
 13 11  2  6  0  0  0 
 13  8  1  0  0  0  0 
 13 12  1  0  0  0  0 
 16  1  1  0  0  0  0 
 18  2  1  0  0  0  0 
 21  3  1  0  0  0  0 
 22  3  1  0  0  0  0 
 23  4  1  0  0  0  0 
 24  4  1  0  0  0  0 
 26  5  1  0  0  0  0 
 27  5  1  0  0  0  0 
 28  5  1  0  0  0  0 
 30  6  1  0  0  0  0 
M  END 
>  <HBA> 
4 
 
>  <HBD> 
1 
 
>  <TPSA> 
59.58 
 
>  <cid> 
48125 
 
>  <dipole> 
4.28 
 
>  <excitation_energy_1> 
5.527 
 
>  <excitation_energy_2> 
6.0 
 
>  <excitation_energy_3> 
6.199 
 
>  <excitation_energy_4> 
6.317 
 
>  <homo_energy> 
-6.248 
 
>  <homo_lumo_gap> 
7.676 
 
>  <logP> 
1.649 
 
>  <lumo_energy> 
1.429 
 
>  <melting_point> 
42.12 
 
>  <molecular_refractivity> 
52.34 
 
>  <oscillator_strength_1> 
0.0118 
 
>  <oscillator_strength_2> 
0.0165 
 
>  <oscillator_strength_3> 
0.0126 
 
>  <oscillator_strength_4> 
0.0112 
 
>  <open_babel_can_smiles> 
CN([P@@]1(=O)OC(C[C@@]1(C)O)(C)C)C 
 
>  <mulliken_charges> 
31 
1   -0.454053 
2   -0.459687 
3   -0.472861 
4   -0.293321 
5   -0.314081 
6   -0.346636 
7   0.323051 
8   0.08264 
9   -0.487982 
10   -0.631462 
11   -0.572278 
12   -0.586022 
13   1.142903 
14   0.139535 
15   0.157099 
16   0.172889 
17   0.138179 
18   0.166369 
19   0.15643 
20   0.129916 
21   0.184582 
22   0.16352 
23   0.150199 
24   0.144513 
25   0.179721 
26   0.141804 
27   0.202079 
28   0.149575 
29   0.137763 
30   0.167042 
31   0.388571 
 
>  <lowdin_charges> 
31 
1   -0.44769 
2   -0.453343 
3   -0.454635 
4   -0.339862 
5   -0.34551 
6   -0.308304 
7   0.141157 
8   -0.037604 
9   -0.318553 
10   -0.453887 
11   -0.607273 
12   -0.401765 
13   1.013964 
14   0.151948 
15   0.159753 
16   0.165244 
17   0.151197 
18   0.159097 
19   0.158752 
20   0.143209 
21   0.176926 
22   0.163229 
23   0.142538 
24   0.142105 
25   0.17062 
26   0.13721 
27   0.185026 
28   0.144344 
29   0.151978 
30   0.167497 
31   0.342632 
 
$$$$ 
 
