PCCDB-ID:  25354 
public computational chemistry database (PCCDB) project, http://pccdb.org 
 
 25 25  0  0  0  0  0  0  0  0999 V2000 
    0.9677    0.3703   -4.2939 C   0  0  0  0  0  0  0  0  0  0  0  0 
    2.3006    0.3770   -3.5404 C   0  0  0  0  0  0  0  0  0  0  0  0 
    6.8158    2.3046   -7.7568 C   0  0  0  0  0  0  0  0  0  0  0  0 
    6.2049    1.0490   -7.7563 C   0  0  0  0  0  0  0  0  0  0  0  0 
    7.0894    2.9441   -6.5459 C   0  0  0  0  0  0  0  0  0  0  0  0 
    5.8611    0.4362   -6.5514 C   0  0  0  0  0  0  0  0  0  0  0  0 
    6.7574    2.3279   -5.3401 C   0  0  0  0  0  0  0  0  0  0  0  0 
    3.4829   -0.0420   -4.4251 C   0  0  0  0  0  0  0  0  0  0  0  0 
    6.1318    1.0699   -5.3300 C   0  0  0  0  0  0  0  0  0  0  0  0 
    5.7904    0.4203   -4.0228 C   0  0  0  0  0  0  0  0  0  0  0  0 
    4.7002   -0.0942   -3.6361 N   0  0  0  0  0  0  0  0  0  0  0  0 
    6.8229    0.4212   -3.1152 O   0  0  0  0  0  0  0  0  0  0  0  0 
    0.1422    0.6737   -3.6404 H   0  0  0  0  0  0  0  0  0  0  0  0 
    0.7336   -0.6294   -4.6811 H   0  0  0  0  0  0  0  0  0  0  0  0 
    0.9851    1.0595   -5.1475 H   0  0  0  0  0  0  0  0  0  0  0  0 
    2.2569   -0.2984   -2.6776 H   0  0  0  0  0  0  0  0  0  0  0  0 
    2.5010    1.3786   -3.1379 H   0  0  0  0  0  0  0  0  0  0  0  0 
    7.0785    2.7822   -8.6967 H   0  0  0  0  0  0  0  0  0  0  0  0 
    5.9983    0.5435   -8.6956 H   0  0  0  0  0  0  0  0  0  0  0  0 
    7.5605    3.9233   -6.5401 H   0  0  0  0  0  0  0  0  0  0  0  0 
    5.3979   -0.5459   -6.5531 H   0  0  0  0  0  0  0  0  0  0  0  0 
    6.9624    2.8306   -4.3983 H   0  0  0  0  0  0  0  0  0  0  0  0 
    3.5463    0.6317   -5.2947 H   0  0  0  0  0  0  0  0  0  0  0  0 
    3.2837   -1.0509   -4.8180 H   0  0  0  0  0  0  0  0  0  0  0  0 
    7.6421    0.6409   -3.5863 H   0  0  0  0  0  0  0  0  0  0  0  0 
  1 13  1  0  0  0  0 
  1  2  1  0  0  0  0 
  2 17  1  0  0  0  0 
  2 16  1  0  0  0  0 
  3  4  2  0  0  0  0 
  3  5  1  0  0  0  0 
  4  6  1  0  0  0  0 
  5 20  1  0  0  0  0 
  5  7  2  0  0  0  0 
  6  9  2  0  0  0  0 
  7  9  1  0  0  0  0 
  7 22  1  0  0  0  0 
  8 11  1  0  0  0  0 
  8  2  1  0  0  0  0 
  9 10  1  0  0  0  0 
 10 11  2  0  0  0  0 
 10 12  1  0  0  0  0 
 14  1  1  0  0  0  0 
 15  1  1  0  0  0  0 
 18  3  1  0  0  0  0 
 19  4  1  0  0  0  0 
 21  6  1  0  0  0  0 
 23  8  1  0  0  0  0 
 24  8  1  0  0  0  0 
 25 12  1  0  0  0  0 
M  END 
>  <HBA> 
2 
 
>  <HBD> 
1 
 
>  <TPSA> 
29.1 
 
>  <cid> 
25354 
 
>  <dipole> 
3.92 
 
>  <excitation_energy_1> 
4.587 
 
>  <excitation_energy_2> 
5.053 
 
>  <excitation_energy_3> 
5.085 
 
>  <excitation_energy_4> 
5.216 
 
>  <homo_energy> 
-6.512 
 
>  <homo_lumo_gap> 
5.641 
 
>  <logP> 
2.217 
 
>  <lumo_energy> 
-0.871 
 
>  <melting_point> 
64.06 
 
>  <molecular_refractivity> 
49.05 
 
>  <oscillator_strength_1> 
0.0021 
 
>  <oscillator_strength_2> 
0.122 
 
>  <oscillator_strength_3> 
0.0024 
 
>  <oscillator_strength_4> 
0.0149 
 
>  <open_babel_can_smiles> 
CCC/N=C(\c1ccccc1)/O 
 
>  <mulliken_charges> 
25 
1   -0.448638 
2   -0.241094 
3   -0.122715 
4   -0.134404 
5   -0.129417 
6   -0.155158 
7   -0.180879 
8   -0.143741 
9   0.044142 
10   0.412046 
11   -0.407618 
12   -0.582545 
13   0.145311 
14   0.139969 
15   0.139842 
16   0.148159 
17   0.13574 
18   0.139118 
19   0.140219 
20   0.139847 
21   0.151307 
22   0.14915 
23   0.124627 
24   0.135411 
25   0.401323 
 
>  <lowdin_charges> 
25 
1   -0.447305 
2   -0.274867 
3   -0.148346 
4   -0.152336 
5   -0.150636 
6   -0.147848 
7   -0.1639 
8   -0.201326 
9   -0.046142 
10   0.121745 
11   -0.194115 
12   -0.372146 
13   0.152384 
14   0.144906 
15   0.145433 
16   0.149824 
17   0.142354 
18   0.162619 
19   0.163086 
20   0.161883 
21   0.167493 
22   0.16561 
23   0.128675 
24   0.140131 
25   0.352822 
 
$$$$ 
 
