PCCDB-ID:  38133 
public computational chemistry database (PCCDB) project, http://pccdb.org 
 
 26 26  0  0  0  0  0  0  0  0999 V2000 
    2.6723   -0.8487    3.9422 C   0  0  0  0  0  0  0  0  0  0  0  0 
    7.8570    2.2230    0.1309 C   0  0  0  0  0  0  0  0  0  0  0  0 
    8.7256    0.0968   -0.5520 C   0  0  0  0  0  0  0  0  0  0  0  0 
    2.2480   -1.1764    1.3735 C   0  0  0  0  0  0  0  0  0  0  0  0 
    2.9540   -0.6658    0.2329 C   0  0  0  0  0  0  0  0  0  0  0  0 
    5.0802    0.8682    0.0716 C   0  0  0  0  0  0  0  0  0  0  0  0 
    6.4689    0.2319    0.2853 C   0  0  0  0  0  0  0  0  0  0  0  0 
    2.8906   -0.7004    2.4769 C   0  0  0  0  0  0  0  0  0  0  0  0 
    3.9809    0.0908    0.7134 C   0  0  0  0  0  0  0  0  0  0  0  0 
    7.5306    0.9243   -0.4452 N   0  0  0  0  0  0  0  0  0  0  0  0 
    3.9528    0.0763    2.0877 O   0  0  0  0  0  0  0  0  0  0  0  0 
    1.8051   -1.4894    4.1250 H   0  0  0  0  0  0  0  0  0  0  0  0 
    2.4891    0.1199    4.4246 H   0  0  0  0  0  0  0  0  0  0  0  0 
    3.5413   -1.3007    4.4372 H   0  0  0  0  0  0  0  0  0  0  0  0 
    8.6241    2.7104   -0.4806 H   0  0  0  0  0  0  0  0  0  0  0  0 
    8.2396    2.1529    1.1692 H   0  0  0  0  0  0  0  0  0  0  0  0 
    6.9778    2.8737    0.1381 H   0  0  0  0  0  0  0  0  0  0  0  0 
    9.4759    0.6130   -1.1613 H   0  0  0  0  0  0  0  0  0  0  0  0 
    8.4794   -0.8492   -1.0461 H   0  0  0  0  0  0  0  0  0  0  0  0 
    9.1874   -0.1380    0.4280 H   0  0  0  0  0  0  0  0  0  0  0  0 
    1.3730   -1.8122    1.3713 H   0  0  0  0  0  0  0  0  0  0  0  0 
    2.7252   -0.8385   -0.8100 H   0  0  0  0  0  0  0  0  0  0  0  0 
    4.8863    0.9308   -1.0044 H   0  0  0  0  0  0  0  0  0  0  0  0 
    5.0723    1.8947    0.4599 H   0  0  0  0  0  0  0  0  0  0  0  0 
    6.4273   -0.7989   -0.0846 H   0  0  0  0  0  0  0  0  0  0  0  0 
    6.6824    0.1722    1.3707 H   0  0  0  0  0  0  0  0  0  0  0  0 
  1 12  1  0  0  0  0 
  1 13  1  0  0  0  0 
  1 14  1  0  0  0  0 
  2 17  1  0  0  0  0 
  2 16  1  0  0  0  0 
  3 10  1  0  0  0  0 
  3 20  1  0  0  0  0 
  4  8  2  0  0  0  0 
  5  9  2  0  0  0  0 
  5  4  1  0  0  0  0 
  6  7  1  0  0  0  0 
  6 24  1  0  0  0  0 
  6  9  1  0  0  0  0 
  7 26  1  0  0  0  0 
  8  1  1  0  0  0  0 
  9 11  1  0  0  0  0 
 10  2  1  0  0  0  0 
 10  7  1  0  0  0  0 
 11  8  1  0  0  0  0 
 15  2  1  0  0  0  0 
 18  3  1  0  0  0  0 
 19  3  1  0  0  0  0 
 21  4  1  0  0  0  0 
 22  5  1  0  0  0  0 
 23  6  1  0  0  0  0 
 25  7  1  0  0  0  0 
M  END 
>  <HBA> 
2 
 
>  <HBD> 
0 
 
>  <TPSA> 
16.38 
 
>  <cid> 
38133 
 
>  <dipole> 
0.54 
 
>  <excitation_energy_1> 
5.129 
 
>  <excitation_energy_2> 
5.295 
 
>  <excitation_energy_3> 
5.523 
 
>  <excitation_energy_4> 
5.604 
 
>  <homo_energy> 
-5.47 
 
>  <homo_lumo_gap> 
6.142 
 
>  <logP> 
1.692 
 
>  <lumo_energy> 
0.672 
 
>  <melting_point> 
11.86 
 
>  <molecular_refractivity> 
45.96 
 
>  <oscillator_strength_1> 
0.0133 
 
>  <oscillator_strength_2> 
0.0164 
 
>  <oscillator_strength_3> 
0.0345 
 
>  <oscillator_strength_4> 
0.0245 
 
>  <open_babel_can_smiles> 
CN(CCc1ccc(o1)C)C 
 
>  <mulliken_charges> 
26 
1   -0.529615 
2   -0.30182 
3   -0.293898 
4   -0.215234 
5   -0.217067 
6   -0.356496 
7   -0.111446 
8   0.352736 
9   0.347925 
10   -0.369473 
11   -0.477422 
12   0.163584 
13   0.167674 
14   0.167225 
15   0.148347 
16   0.118061 
17   0.152741 
18   0.146873 
19   0.148918 
20   0.117421 
21   0.129364 
22   0.131311 
23   0.160953 
24   0.15499 
25   0.140363 
26   0.123984 
 
>  <lowdin_charges> 
26 
1   -0.44186 
2   -0.358695 
3   -0.356904 
4   -0.223317 
5   -0.22132 
6   -0.277564 
7   -0.196249 
8   0.066341 
9   0.067206 
10   -0.185162 
11   -0.121705 
12   0.167453 
13   0.164209 
14   0.164938 
15   0.151661 
16   0.119161 
17   0.150569 
18   0.150215 
19   0.14943 
20   0.119969 
21   0.163547 
22   0.16321 
23   0.162321 
24   0.154914 
25   0.146167 
26   0.121466 
 
$$$$ 
 
