PCCDB-ID:  39493 
public computational chemistry database (PCCDB) project, http://pccdb.org 
 
 13 13  0  0  1  0  0  0  0  0999 V2000 
    1.1845    0.2131    0.2847 C   0  0  0  0  0  0  0  0  0  0  0  0 
    2.6330    0.0152   -0.0100 C   0  0  1  0  0  0  0  0  0  0  0  0 
    3.4627   -1.1316   -0.1124 C   0  0  0  0  0  0  0  0  0  0  0  0 
    4.7089   -0.8659   -0.3990 N   0  0  0  0  0  0  0  0  0  0  0  0 
    3.0426   -2.5155    0.0718 N   0  0  0  0  0  0  0  0  0  0  0  0 
    3.4375    1.0510   -0.2542 N   0  0  0  0  0  0  0  0  0  0  0  0 
    1.8492   -2.6758    0.3328 O   0  0  0  0  0  0  0  0  0  0  0  0 
    3.8873   -3.3893   -0.0447 O   0  0  0  0  0  0  0  0  0  0  0  0 
    3.3089    2.2570   -0.3065 O   0  0  0  0  0  0  0  0  0  0  0  0 
    4.7953    0.4704   -0.5073 O   0  0  0  0  0  0  0  0  0  0  0  0 
    0.5649   -0.2865   -0.4658 H   0  0  0  0  0  0  0  0  0  0  0  0 
    0.9634    1.2827    0.2846 H   0  0  0  0  0  0  0  0  0  0  0  0 
    0.9262   -0.2139    1.2577 H   0  0  0  0  0  0  0  0  0  0  0  0 
  1 13  1  0  0  0  0 
  2  1  1  6  0  0  0 
  3  2  1  0  0  0  0 
  3  5  1  0  0  0  0 
  4  3  2  0  0  0  0 
  5  7  2  0  0  0  0 
  6  2  1  0  0  0  0 
  8  5  2  0  0  0  0 
  9  6  1  0  0  0  0 
 10  4  1  0  0  0  0 
 10  6  1  0  0  0  0 
 11  1  1  0  0  0  0 
 12  1  1  0  0  0  0 
M  RAD  2   2   2   9   2 
M  END 
>  <HBA> 
3 
 
>  <HBD> 
0 
 
>  <TPSA> 
97.31 
 
>  <cid> 
39493 
 
>  <dipole> 
2.62 
 
>  <excitation_energy_1> 
3.393 
 
>  <excitation_energy_2> 
3.78 
 
>  <excitation_energy_3> 
4.212 
 
>  <excitation_energy_4> 
4.341 
 
>  <homo_energy> 
-7.464 
 
>  <homo_lumo_gap> 
4.098 
 
>  <logP> 
0.843 
 
>  <lumo_energy> 
-3.366 
 
>  <melting_point> 
77.19 
 
>  <molecular_refractivity> 
31.45 
 
>  <oscillator_strength_1> 
0.0094 
 
>  <oscillator_strength_2> 
0.0 
 
>  <oscillator_strength_3> 
0.0003 
 
>  <oscillator_strength_4> 
0.0011 
 
>  <open_babel_can_smiles> 
C[C]1N([O])ON=C1N(=O)=O 
 
>  <mulliken_charges> 
13 
1   -0.506178 
2   0.37412 
3   0.416943 
4   -0.143756 
5   0.377108 
6   0.262984 
7   -0.383829 
8   -0.351045 
9   -0.432537 
10   -0.216271 
11   0.203055 
12   0.196107 
13   0.203301 
 
>  <lowdin_charges> 
13 
1   -0.430661 
2   -0.005454 
3   0.010492 
4   0.005695 
5   0.308148 
6   0.261986 
7   -0.228285 
8   -0.193959 
9   -0.227848 
10   -0.059091 
11   0.188879 
12   0.182335 
13   0.187764 
 
$$$$ 
 
