PCCDB-ID:  33510 
public computational chemistry database (PCCDB) project, http://pccdb.org 
 
 19 18  0  0  1  0  0  0  0  0999 V2000 
    1.0662   -1.6937   -0.9575 C   0  0  0  0  0  0  0  0  0  0  0  0 
    6.6544   -0.3793   -2.5292 C   0  0  0  0  0  0  0  0  0  0  0  0 
    4.5211   -0.3668   -1.1790 C   0  0  0  0  0  0  0  0  0  0  0  0 
    2.5709   -1.7299   -1.0363 C   0  0  0  0  0  0  0  0  0  0  0  0 
    5.1291   -0.5678   -2.5613 C   0  0  2  0  0  0  0  0  0  0  0  0 
    7.2061   -0.6912   -3.7903 O   0  0  0  0  0  0  0  0  0  0  0  0 
    3.2501   -2.7381   -0.9705 O   0  0  0  0  0  0  0  0  0  0  0  0 
    4.8475   -1.8548   -3.1123 O   0  0  0  0  0  0  0  0  0  0  0  0 
    3.0800   -0.4887   -1.1804 O   0  0  0  0  0  0  0  0  0  0  0  0 
    0.6820   -2.7090   -0.8580 H   0  0  0  0  0  0  0  0  0  0  0  0 
    0.6588   -1.2263   -1.8599 H   0  0  0  0  0  0  0  0  0  0  0  0 
    0.7482   -1.0868   -0.1036 H   0  0  0  0  0  0  0  0  0  0  0  0 
    7.0824   -1.0166   -1.7338 H   0  0  0  0  0  0  0  0  0  0  0  0 
    6.9175    0.6608   -2.3046 H   0  0  0  0  0  0  0  0  0  0  0  0 
    4.7141    0.6496   -0.8263 H   0  0  0  0  0  0  0  0  0  0  0  0 
    4.9363   -1.0816   -0.4611 H   0  0  0  0  0  0  0  0  0  0  0  0 
    4.7010    0.1638   -3.2583 H   0  0  0  0  0  0  0  0  0  0  0  0 
    6.7595   -1.5157   -4.0558 H   0  0  0  0  0  0  0  0  0  0  0  0 
    4.6165   -2.4600   -2.3832 H   0  0  0  0  0  0  0  0  0  0  0  0 
  1 10  1  0  0  0  0 
  1 12  1  0  0  0  0 
  2 14  1  0  0  0  0 
  2 13  1  0  0  0  0 
  3 15  1  0  0  0  0 
  3 16  1  0  0  0  0 
  4  7  2  0  0  0  0 
  4  1  1  0  0  0  0 
  5 17  1  6  0  0  0 
  5  2  1  0  0  0  0 
  5  3  1  0  0  0  0 
  6  2  1  0  0  0  0 
  8  5  1  0  0  0  0 
  8 19  1  0  0  0  0 
  9  3  1  0  0  0  0 
  9  4  1  0  0  0  0 
 11  1  1  0  0  0  0 
 18  6  1  0  0  0  0 
M  END 
>  <HBA> 
4 
 
>  <HBD> 
2 
 
>  <TPSA> 
66.76 
 
>  <cid> 
33510 
 
>  <dipole> 
3.61 
 
>  <excitation_energy_1> 
5.843 
 
>  <excitation_energy_2> 
6.056 
 
>  <excitation_energy_3> 
6.612 
 
>  <excitation_energy_4> 
6.837 
 
>  <homo_energy> 
-6.914 
 
>  <homo_lumo_gap> 
6.672 
 
>  <logP> 
-1.097 
 
>  <lumo_energy> 
-0.242 
 
>  <melting_point> 
23.78 
 
>  <molecular_refractivity> 
29.76 
 
>  <oscillator_strength_1> 
0.0007 
 
>  <oscillator_strength_2> 
0.0105 
 
>  <oscillator_strength_3> 
0.0003 
 
>  <oscillator_strength_4> 
0.0011 
 
>  <open_babel_can_smiles> 
CC(=O)OC[C@@H](CO)O 
 
>  <mulliken_charges> 
19 
1   -0.523719 
2   -0.019645 
3   -0.099508 
4   0.62021 
5   0.108525 
6   -0.62339 
7   -0.490271 
8   -0.661825 
9   -0.440469 
10   0.189001 
11   0.192736 
12   0.187695 
13   0.111647 
14   0.136373 
15   0.165454 
16   0.168128 
17   0.15068 
18   0.405743 
19   0.422635 
 
>  <lowdin_charges> 
19 
1   -0.46164 
2   -0.148417 
3   -0.150851 
4   0.215028 
5   -0.029325 
6   -0.464572 
7   -0.280577 
8   -0.478411 
9   -0.185741 
10   0.178816 
11   0.184714 
12   0.182186 
13   0.123478 
14   0.143868 
15   0.164161 
16   0.159024 
17   0.150304 
18   0.346484 
19   0.351471 
 
$$$$ 
 
