PCCDB-ID:  9938 
public computational chemistry database (PCCDB) project, http://pccdb.org 
 
 20 21  0  0  0  0  0  0  0  0999 V2000 
   -2.4528   -0.7254    0.0992 C   0  0  0  0  0  0  0  0  0  0  0  0 
   -2.4633    0.6692    0.1302 C   0  0  0  0  0  0  0  0  0  0  0  0 
    2.4221   -0.7711    0.0388 C   0  0  0  0  0  0  0  0  0  0  0  0 
    2.4570    0.7021    0.3686 C   0  0  0  0  0  0  0  0  0  0  0  0 
   -1.2406   -1.4061   -0.0144 C   0  0  0  0  0  0  0  0  0  0  0  0 
   -1.2602    1.3759    0.0376 C   0  0  0  0  0  0  0  0  0  0  0  0 
    1.2591   -1.4051   -0.1782 C   0  0  0  0  0  0  0  0  0  0  0  0 
    1.2697    1.4418   -0.2689 C   0  0  0  0  0  0  0  0  0  0  0  0 
   -0.0290   -0.7064   -0.0976 C   0  0  0  0  0  0  0  0  0  0  0  0 
   -0.0428    0.7070   -0.0802 C   0  0  0  0  0  0  0  0  0  0  0  0 
   -3.3840   -1.2818    0.1655 H   0  0  0  0  0  0  0  0  0  0  0  0 
   -3.4025    1.2078    0.2247 H   0  0  0  0  0  0  0  0  0  0  0  0 
    3.3591   -1.3236    0.0286 H   0  0  0  0  0  0  0  0  0  0  0  0 
    3.3984    1.1521    0.0314 H   0  0  0  0  0  0  0  0  0  0  0  0 
    2.4368    0.8263    1.4641 H   0  0  0  0  0  0  0  0  0  0  0  0 
   -1.2269   -2.4938   -0.0308 H   0  0  0  0  0  0  0  0  0  0  0  0 
   -1.2702    2.4640    0.0526 H   0  0  0  0  0  0  0  0  0  0  0  0 
    1.2396   -2.4761   -0.3714 H   0  0  0  0  0  0  0  0  0  0  0  0 
    1.4612    1.5325   -1.3499 H   0  0  0  0  0  0  0  0  0  0  0  0 
    1.1969    2.4637    0.1208 H   0  0  0  0  0  0  0  0  0  0  0  0 
  1  2  1  0  0  0  0 
  1 11  1  0  0  0  0 
  2 12  1  0  0  0  0 
  3  4  1  0  0  0  0 
  4 15  1  0  0  0  0 
  5  1  2  0  0  0  0 
  6 17  1  0  0  0  0 
  6  2  2  0  0  0  0 
  7  9  1  0  0  0  0 
  7  3  2  0  0  0  0 
  8 10  1  0  0  0  0 
  8 20  1  0  0  0  0 
  8  4  1  0  0  0  0 
  9 10  2  0  0  0  0 
  9  5  1  0  0  0  0 
 10  6  1  0  0  0  0 
 13  3  1  0  0  0  0 
 14  4  1  0  0  0  0 
 16  5  1  0  0  0  0 
 18  7  1  0  0  0  0 
 19  8  1  0  0  0  0 
M  END 
>  <HBA> 
0 
 
>  <HBD> 
0 
 
>  <TPSA> 
0.0 
 
>  <cid> 
9938 
 
>  <dipole> 
0.54 
 
>  <excitation_energy_1> 
4.602 
 
>  <excitation_energy_2> 
4.685 
 
>  <excitation_energy_3> 
5.324 
 
>  <excitation_energy_4> 
5.566 
 
>  <homo_energy> 
-5.682 
 
>  <homo_lumo_gap> 
5.059 
 
>  <logP> 
2.646 
 
>  <lumo_energy> 
-0.623 
 
>  <melting_point> 
53.59 
 
>  <molecular_refractivity> 
44.19 
 
>  <oscillator_strength_1> 
0.2065 
 
>  <oscillator_strength_2> 
0.0074 
 
>  <oscillator_strength_3> 
0.0251 
 
>  <oscillator_strength_4> 
0.2192 
 
>  <open_babel_can_smiles> 
C1=Cc2c(CC1)cccc2 
 
>  <mulliken_charges> 
20 
1   -0.132435 
2   -0.127462 
3   -0.133407 
4   -0.300671 
5   -0.195714 
6   -0.196947 
7   -0.148847 
8   -0.346059 
9   0.122467 
10   0.117453 
11   0.126114 
12   0.12581 
13   0.12827 
14   0.141961 
15   0.153613 
16   0.124567 
17   0.120197 
18   0.123593 
19   0.156258 
20   0.141238 
 
>  <lowdin_charges> 
20 
1   -0.161441 
2   -0.158924 
3   -0.163372 
4   -0.272018 
5   -0.158644 
6   -0.164223 
7   -0.167764 
8   -0.267729 
9   -0.01157 
10   -0.005313 
11   0.156667 
12   0.156591 
13   0.155442 
14   0.151848 
15   0.150554 
16   0.15261 
17   0.151303 
18   0.153374 
19   0.152603 
20   0.150007 
 
$$$$ 
 
