PCCDB-ID:  19049 
public computational chemistry database (PCCDB) project, http://pccdb.org 
 
 28 28  0  0  0  0  0  0  0  0999 V2000 
    0.7022    1.0262   -3.1856 C   0  0  0  0  0  0  0  0  0  0  0  0 
    1.6148    0.4113   -2.1123 C   0  0  0  0  0  0  0  0  0  0  0  0 
   -0.6294    1.4833   -2.5683 C   0  0  0  0  0  0  0  0  0  0  0  0 
   -1.4662    0.4442    1.4209 C   0  0  0  0  0  0  0  0  0  0  0  0 
   -1.6921   -0.9668    1.9659 C   0  0  0  0  0  0  0  0  0  0  0  0 
    0.8619   -0.6882   -1.3396 C   0  0  0  0  0  0  0  0  0  0  0  0 
   -1.2788    0.3385   -1.7649 C   0  0  0  0  0  0  0  0  0  0  0  0 
   -0.2620    0.5560    0.4745 C   0  0  0  0  0  0  0  0  0  0  0  0 
   -2.8256   -0.9759    2.9041 N   0  0  0  0  0  0  0  0  0  0  0  0 
   -0.4044   -0.2512   -0.7431 N   0  0  0  0  0  0  0  0  0  0  0  0 
    0.4988    0.2687   -3.9581 H   0  0  0  0  0  0  0  0  0  0  0  0 
    1.2029    1.8611   -3.6916 H   0  0  0  0  0  0  0  0  0  0  0  0 
    1.9467    1.1928   -1.4141 H   0  0  0  0  0  0  0  0  0  0  0  0 
    2.5206   -0.0092   -2.5690 H   0  0  0  0  0  0  0  0  0  0  0  0 
   -1.3223    1.8223   -3.3497 H   0  0  0  0  0  0  0  0  0  0  0  0 
   -0.4532    2.3462   -1.9115 H   0  0  0  0  0  0  0  0  0  0  0  0 
   -1.3168    1.1304    2.2643 H   0  0  0  0  0  0  0  0  0  0  0  0 
   -2.3784    0.7863    0.9101 H   0  0  0  0  0  0  0  0  0  0  0  0 
   -0.8001   -1.2804    2.5254 H   0  0  0  0  0  0  0  0  0  0  0  0 
   -1.7968   -1.6648    1.1199 H   0  0  0  0  0  0  0  0  0  0  0  0 
    1.4918   -1.1089   -0.5469 H   0  0  0  0  0  0  0  0  0  0  0  0 
    0.6325   -1.5117   -2.0333 H   0  0  0  0  0  0  0  0  0  0  0  0 
   -1.5648   -0.4654   -2.4595 H   0  0  0  0  0  0  0  0  0  0  0  0 
   -2.2030    0.6809   -1.2872 H   0  0  0  0  0  0  0  0  0  0  0  0 
    0.6272    0.1907    1.0043 H   0  0  0  0  0  0  0  0  0  0  0  0 
   -0.0744    1.6247    0.2645 H   0  0  0  0  0  0  0  0  0  0  0  0 
   -3.6833   -0.7668    2.3923 H   0  0  0  0  0  0  0  0  0  0  0  0 
   -2.9521   -1.9175    3.2737 H   0  0  0  0  0  0  0  0  0  0  0  0 
  1  3  1  0  0  0  0 
  1  2  1  0  0  0  0 
  2 13  1  0  0  0  0 
  2  6  1  0  0  0  0 
  3 16  1  0  0  0  0 
  3  7  1  0  0  0  0 
  4  5  1  0  0  0  0 
  4 17  1  0  0  0  0 
  5 19  1  0  0  0  0 
  5  9  1  0  0  0  0 
  6 10  1  0  0  0  0 
  6 21  1  0  0  0  0 
  7 24  1  0  0  0  0 
  7 10  1  0  0  0  0 
  8 25  1  0  0  0  0 
  8  4  1  0  0  0  0 
  9 28  1  0  0  0  0 
 10  8  1  0  0  0  0 
 11  1  1  0  0  0  0 
 12  1  1  0  0  0  0 
 14  2  1  0  0  0  0 
 15  3  1  0  0  0  0 
 18  4  1  0  0  0  0 
 20  5  1  0  0  0  0 
 22  6  1  0  0  0  0 
 23  7  1  0  0  0  0 
 26  8  1  0  0  0  0 
 27  9  1  0  0  0  0 
M  END 
>  <HBA> 
2 
 
>  <HBD> 
1 
 
>  <TPSA> 
29.26 
 
>  <cid> 
19049 
 
>  <dipole> 
1.39 
 
>  <excitation_energy_1> 
4.769 
 
>  <excitation_energy_2> 
4.977 
 
>  <excitation_energy_3> 
5.154 
 
>  <excitation_energy_4> 
5.269 
 
>  <homo_energy> 
-5.274 
 
>  <homo_lumo_gap> 
7.404 
 
>  <logP> 
1.459 
 
>  <lumo_energy> 
2.131 
 
>  <melting_point> 
51.57 
 
>  <molecular_refractivity> 
47.97 
 
>  <oscillator_strength_1> 
0.0176 
 
>  <oscillator_strength_2> 
0.0055 
 
>  <oscillator_strength_3> 
0.0054 
 
>  <oscillator_strength_4> 
0.0086 
 
>  <open_babel_can_smiles> 
NCCCN1CCCCC1 
 
>  <mulliken_charges> 
28 
1   -0.257481 
2   -0.263651 
3   -0.26565 
4   -0.253014 
5   -0.130409 
6   -0.141145 
7   -0.145415 
8   -0.131918 
9   -0.719332 
10   -0.369839 
11   0.126514 
12   0.131951 
13   0.133422 
14   0.128525 
15   0.129056 
16   0.134737 
17   0.143676 
18   0.124124 
19   0.128886 
20   0.133431 
21   0.134538 
22   0.130865 
23   0.132786 
24   0.13675 
25   0.131629 
26   0.117249 
27   0.287729 
28   0.291986 
 
>  <lowdin_charges> 
28 
1   -0.280228 
2   -0.296458 
3   -0.296499 
4   -0.285498 
5   -0.208933 
6   -0.207331 
7   -0.208705 
8   -0.199555 
9   -0.560761 
10   -0.190685 
11   0.137167 
12   0.144353 
13   0.140867 
14   0.144608 
15   0.145648 
16   0.140451 
17   0.151104 
18   0.135975 
19   0.137302 
20   0.127868 
21   0.144468 
22   0.137878 
23   0.140081 
24   0.144559 
25   0.143112 
26   0.119819 
27   0.248542 
28   0.25085 
 
$$$$ 
 
