PCCDB-ID:  71310 
public computational chemistry database (PCCDB) project, http://pccdb.org 
 
 32 34  0  0  0  0  0  0  0  0999 V2000 
    2.6771    1.4483   -0.5735 C   0  0  0  0  0  0  0  0  0  0  0  0 
    2.2001    0.3022    0.3271 C   0  0  0  0  0  0  0  0  0  0  0  0 
    3.2130   -5.7270   -0.0823 C   0  0  0  0  0  0  0  0  0  0  0  0 
    3.6954   -5.4024   -1.3535 C   0  0  0  0  0  0  0  0  0  0  0  0 
    2.7646   -4.7240    0.7839 C   0  0  0  0  0  0  0  0  0  0  0  0 
    3.7336   -4.0693   -1.7772 C   0  0  0  0  0  0  0  0  0  0  0  0 
    2.3761   -2.1449    1.0971 C   0  0  0  0  0  0  0  0  0  0  0  0 
    3.2104   -1.5743   -1.1365 C   0  0  0  0  0  0  0  0  0  0  0  0 
    4.9228    0.3003    1.7164 C   0  0  0  0  0  0  0  0  0  0  0  0 
    6.5499   -1.0640    1.4881 C   0  0  0  0  0  0  0  0  0  0  0  0 
    2.8046   -3.3958    0.3637 C   0  0  0  0  0  0  0  0  0  0  0  0 
    3.2847   -3.0699   -0.9139 C   0  0  0  0  0  0  0  0  0  0  0  0 
    4.4318   -0.7041    0.9093 C   0  0  0  0  0  0  0  0  0  0  0  0 
    3.0701   -0.9742    0.3057 C   0  0  0  0  0  0  0  0  0  0  0  0 
    6.2359    0.0722    2.0687 N   0  0  0  0  0  0  0  0  0  0  0  0 
    5.5026   -1.5761    0.7754 N   0  0  0  0  0  0  0  0  0  0  0  0 
    2.0035    2.3081   -0.4848 H   0  0  0  0  0  0  0  0  0  0  0  0 
    2.6909    1.1500   -1.6282 H   0  0  0  0  0  0  0  0  0  0  0  0 
    3.6850    1.7804   -0.3080 H   0  0  0  0  0  0  0  0  0  0  0  0 
    1.1845    0.0127    0.0256 H   0  0  0  0  0  0  0  0  0  0  0  0 
    2.1177    0.6565    1.3630 H   0  0  0  0  0  0  0  0  0  0  0  0 
    3.1927   -6.7652    0.2383 H   0  0  0  0  0  0  0  0  0  0  0  0 
    4.0476   -6.1892   -2.0153 H   0  0  0  0  0  0  0  0  0  0  0  0 
    2.3966   -4.9809    1.7744 H   0  0  0  0  0  0  0  0  0  0  0  0 
    4.1087   -3.8200   -2.7673 H   0  0  0  0  0  0  0  0  0  0  0  0 
    2.6506   -2.1410    2.1572 H   0  0  0  0  0  0  0  0  0  0  0  0 
    1.2827   -2.0327    1.0471 H   0  0  0  0  0  0  0  0  0  0  0  0 
    2.3164   -1.3266   -1.7279 H   0  0  0  0  0  0  0  0  0  0  0  0 
    4.0694   -1.1659   -1.6795 H   0  0  0  0  0  0  0  0  0  0  0  0 
    4.4050    1.1843    2.0631 H   0  0  0  0  0  0  0  0  0  0  0  0 
    7.5095   -1.5614    1.5429 H   0  0  0  0  0  0  0  0  0  0  0  0 
    5.4855   -2.4494    0.2668 H   0  0  0  0  0  0  0  0  0  0  0  0 
  1 17  1  0  0  0  0 
  1 19  1  0  0  0  0 
  1  2  1  0  0  0  0 
  2 21  1  0  0  0  0 
  3 22  1  0  0  0  0 
  3  5  2  0  0  0  0 
  4  3  1  0  0  0  0 
  5 24  1  0  0  0  0 
  6  4  2  0  0  0  0 
  6 12  1  0  0  0  0 
  7 26  1  0  0  0  0 
  8 12  1  0  0  0  0 
  8 14  1  0  0  0  0 
  9 30  1  0  0  0  0 
  9 15  1  0  0  0  0 
 10 31  1  0  0  0  0 
 10 15  2  0  0  0  0 
 11  5  1  0  0  0  0 
 11  7  1  0  0  0  0 
 12 11  2  0  0  0  0 
 13  9  2  0  0  0  0 
 14  2  1  0  0  0  0 
 14 13  1  0  0  0  0 
 14  7  1  0  0  0  0 
 16 13  1  0  0  0  0 
 16 10  1  0  0  0  0 
 18  1  1  0  0  0  0 
 20  2  1  0  0  0  0 
 23  4  1  0  0  0  0 
 25  6  1  0  0  0  0 
 27  7  1  0  0  0  0 
 28  8  1  0  0  0  0 
 29  8  1  0  0  0  0 
 32 16  1  0  0  0  0 
M  END 
>  <HBA> 
1 
 
>  <HBD> 
1 
 
>  <TPSA> 
28.68 
 
>  <cid> 
71310 
 
>  <dipole> 
3.8 
 
>  <excitation_energy_1> 
4.681 
 
>  <excitation_energy_2> 
4.891 
 
>  <excitation_energy_3> 
5.164 
 
>  <excitation_energy_4> 
5.235 
 
>  <homo_energy> 
-5.761 
 
>  <homo_lumo_gap> 
5.456 
 
>  <logP> 
2.856 
 
>  <lumo_energy> 
-0.305 
 
>  <melting_point> 
132.69 
 
>  <molecular_refractivity> 
65.2 
 
>  <oscillator_strength_1> 
0.0004 
 
>  <oscillator_strength_2> 
0.0238 
 
>  <oscillator_strength_3> 
0.0309 
 
>  <oscillator_strength_4> 
0.0011 
 
>  <open_babel_can_smiles> 
CCC1(Cc2c(C1)cccc2)c1cnc[nH]1 
 
>  <mulliken_charges> 
32 
1   -0.45415 
2   -0.28296 
3   -0.133143 
4   -0.133705 
5   -0.195683 
6   -0.202104 
7   -0.355982 
8   -0.367523 
9   -0.092083 
10   0.205696 
11   0.137548 
12   0.088134 
13   0.333097 
14   0.002844 
15   -0.431845 
16   -0.617518 
17   0.144282 
18   0.144493 
19   0.163627 
20   0.13007 
21   0.143056 
22   0.131494 
23   0.131049 
24   0.131168 
25   0.129973 
26   0.161043 
27   0.152924 
28   0.15829 
29   0.157695 
30   0.129197 
31   0.150246 
32   0.34077 
 
>  <lowdin_charges> 
32 
1   -0.449673 
2   -0.268263 
3   -0.156009 
4   -0.161011 
5   -0.162379 
6   -0.169688 
7   -0.272775 
8   -0.283441 
9   -0.18181 
10   -0.099117 
11   -0.017443 
12   -0.030955 
13   -0.011789 
14   0.015076 
15   -0.189605 
16   -0.183763 
17   0.152602 
18   0.145926 
19   0.157344 
20   0.141167 
21   0.146192 
22   0.157697 
23   0.159835 
24   0.158251 
25   0.157212 
26   0.158294 
27   0.152841 
28   0.158466 
29   0.157025 
30   0.159273 
31   0.164211 
32   0.296307 
 
$$$$ 
 
