PCCDB-ID:  7020 
public computational chemistry database (PCCDB) project, http://pccdb.org 
 
 23 25  0  0  0  0  0  0  0  0999 V2000 
   -3.6597   -0.6539    0.0004 C   0  0  0  0  0  0  0  0  0  0  0  0 
    3.6684   -0.6296   -0.0005 C   0  0  0  0  0  0  0  0  0  0  0  0 
   -3.5827    0.7490    0.0005 C   0  0  0  0  0  0  0  0  0  0  0  0 
    3.5821    0.7728   -0.0005 C   0  0  0  0  0  0  0  0  0  0  0  0 
   -2.4951   -1.4052    0.0008 C   0  0  0  0  0  0  0  0  0  0  0  0 
    2.5087   -1.3886   -0.0003 C   0  0  0  0  0  0  0  0  0  0  0  0 
   -2.3523    1.3927   -0.0001 C   0  0  0  0  0  0  0  0  0  0  0  0 
    2.3475    1.4083   -0.0006 C   0  0  0  0  0  0  0  0  0  0  0  0 
   -1.2366   -0.7789    0.0008 C   0  0  0  0  0  0  0  0  0  0  0  0 
    1.2462   -0.7706   -0.0002 C   0  0  0  0  0  0  0  0  0  0  0  0 
   -1.1833    0.6238    0.0000 C   0  0  0  0  0  0  0  0  0  0  0  0 
    1.1836    0.6317   -0.0005 C   0  0  0  0  0  0  0  0  0  0  0  0 
    0.0074   -1.5761    0.0003 C   0  0  0  0  0  0  0  0  0  0  0  0 
    0.0115   -2.8050    0.0001 O   0  0  0  0  0  0  0  0  0  0  0  0 
   -0.0021    1.3154   -0.0004 O   0  0  0  0  0  0  0  0  0  0  0  0 
   -4.6284   -1.1446   -0.0008 H   0  0  0  0  0  0  0  0  0  0  0  0 
    4.6403   -1.1139   -0.0008 H   0  0  0  0  0  0  0  0  0  0  0  0 
   -4.4933    1.3418    0.0020 H   0  0  0  0  0  0  0  0  0  0  0  0 
    4.4887    1.3716    0.0001 H   0  0  0  0  0  0  0  0  0  0  0  0 
   -2.5124   -2.4904    0.0012 H   0  0  0  0  0  0  0  0  0  0  0  0 
    2.5333   -2.4737    0.0000 H   0  0  0  0  0  0  0  0  0  0  0  0 
   -2.2715    2.4748   -0.0011 H   0  0  0  0  0  0  0  0  0  0  0  0 
    2.2595    2.4898   -0.0010 H   0  0  0  0  0  0  0  0  0  0  0  0 
  1  3  2  0  0  0  0 
  1  5  1  0  0  0  0 
  2  4  2  0  0  0  0 
  2  6  1  0  0  0  0 
  3 18  1  0  0  0  0 
  4 19  1  0  0  0  0 
  5  9  2  0  0  0  0 
  5 20  1  0  0  0  0 
  6 10  2  0  0  0  0 
  6 21  1  0  0  0  0 
  7 11  2  0  0  0  0 
  7  3  1  0  0  0  0 
  8 12  2  0  0  0  0 
  8  4  1  0  0  0  0 
 10 13  1  0  0  0  0 
 11  9  1  0  0  0  0 
 12 15  1  0  0  0  0 
 12 10  1  0  0  0  0 
 13  9  1  0  0  0  0 
 14 13  2  0  0  0  0 
 15 11  1  0  0  0  0 
 16  1  1  0  0  0  0 
 17  2  1  0  0  0  0 
 22  7  1  0  0  0  0 
 23  8  1  0  0  0  0 
M  END 
>  <HBA> 
2 
 
>  <HBD> 
0 
 
>  <TPSA> 
30.21 
 
>  <cid> 
7020 
 
>  <dipole> 
2.91 
 
>  <excitation_energy_1> 
3.617 
 
>  <excitation_energy_2> 
3.899 
 
>  <excitation_energy_3> 
4.639 
 
>  <excitation_energy_4> 
4.8 
 
>  <homo_energy> 
-6.278 
 
>  <homo_lumo_gap> 
4.498 
 
>  <logP> 
2.946 
 
>  <lumo_energy> 
-1.78 
 
>  <melting_point> 
127.66 
 
>  <molecular_refractivity> 
59.99 
 
>  <oscillator_strength_1> 
0.0 
 
>  <oscillator_strength_2> 
0.0684 
 
>  <oscillator_strength_3> 
0.0702 
 
>  <oscillator_strength_4> 
0.0023 
 
>  <open_babel_can_smiles> 
O=c1c2ccccc2oc2c1cccc2 
 
>  <mulliken_charges> 
23 
1   -0.134499 
2   -0.134496 
3   -0.127491 
4   -0.127487 
5   -0.172265 
6   -0.172288 
7   -0.182976 
8   -0.182971 
9   0.059409 
10   0.059412 
11   0.299223 
12   0.299225 
13   0.377098 
14   -0.50598 
15   -0.55594 
16   0.14002 
17   0.140025 
18   0.142793 
19   0.142793 
20   0.168096 
21   0.168087 
22   0.150109 
23   0.150104 
 
>  <lowdin_charges> 
23 
1   -0.164829 
2   -0.164783 
3   -0.13218 
4   -0.13221 
5   -0.117607 
6   -0.117609 
7   -0.175006 
8   -0.175031 
9   -0.07209 
10   -0.072099 
11   0.109897 
12   0.10995 
13   0.140606 
14   -0.271879 
15   -0.119569 
16   0.163521 
17   0.163483 
18   0.165382 
19   0.165412 
20   0.17791 
21   0.177912 
22   0.170404 
23   0.170417 
 
$$$$ 
 
