PCCDB-ID:  29539 
public computational chemistry database (PCCDB) project, http://pccdb.org 
 
 27 27  0  0  0  0  0  0  0  0999 V2000 
    1.2862   -0.6567   -0.0855 C   0  0  0  0  0  0  0  0  0  0  0  0 
   10.3678    3.2949   -2.7964 C   0  0  0  0  0  0  0  0  0  0  0  0 
    2.7567   -0.6542   -0.4658 C   0  0  0  0  0  0  0  0  0  0  0  0 
    6.1329    2.7152   -1.2183 C   0  0  0  0  0  0  0  0  0  0  0  0 
    6.7531    0.3909   -1.4622 C   0  0  0  0  0  0  0  0  0  0  0  0 
    4.8398    2.3249   -0.9013 C   0  0  0  0  0  0  0  0  0  0  0  0 
    5.4524    0.0024   -1.1320 C   0  0  0  0  0  0  0  0  0  0  0  0 
    8.8923    3.2621   -2.4429 C   0  0  0  0  0  0  0  0  0  0  0  0 
    7.1062    1.7421   -1.5107 C   0  0  0  0  0  0  0  0  0  0  0  0 
    4.4834    0.9695   -0.8497 C   0  0  0  0  0  0  0  0  0  0  0  0 
    8.4524    2.1079   -1.8070 N   0  0  0  0  0  0  0  0  0  0  0  0 
    8.1333    4.1910   -2.6758 O   0  0  0  0  0  0  0  0  0  0  0  0 
    9.3802    1.0515   -1.7636 O   0  0  0  0  0  0  0  0  0  0  0  0 
    3.1854    0.7047   -0.5175 O   0  0  0  0  0  0  0  0  0  0  0  0 
    0.9111   -1.6847   -0.0368 H   0  0  0  0  0  0  0  0  0  0  0  0 
    0.6966   -0.1058   -0.8248 H   0  0  0  0  0  0  0  0  0  0  0  0 
    1.1400   -0.1862    0.8918 H   0  0  0  0  0  0  0  0  0  0  0  0 
   10.9994    3.1128   -1.9210 H   0  0  0  0  0  0  0  0  0  0  0  0 
   10.5811    4.2838   -3.2046 H   0  0  0  0  0  0  0  0  0  0  0  0 
   10.6141    2.5271   -3.5364 H   0  0  0  0  0  0  0  0  0  0  0  0 
    2.9097   -1.1317   -1.4446 H   0  0  0  0  0  0  0  0  0  0  0  0 
    3.3538   -1.2067    0.2746 H   0  0  0  0  0  0  0  0  0  0  0  0 
    6.3887    3.7639   -1.2644 H   0  0  0  0  0  0  0  0  0  0  0  0 
    7.4944   -0.3650   -1.6906 H   0  0  0  0  0  0  0  0  0  0  0  0 
    4.0802    3.0686   -0.6815 H   0  0  0  0  0  0  0  0  0  0  0  0 
    5.2147   -1.0547   -1.1056 H   0  0  0  0  0  0  0  0  0  0  0  0 
    9.6027    0.9594   -0.8180 H   0  0  0  0  0  0  0  0  0  0  0  0 
  1 15  1  0  0  0  0 
  1 17  1  0  0  0  0 
  2  8  1  0  0  0  0 
  2 18  1  0  0  0  0 
  3  1  1  0  0  0  0 
  3 22  1  0  0  0  0 
  4  6  2  0  0  0  0 
  5  7  1  0  0  0  0 
  6 10  1  0  0  0  0 
  6 25  1  0  0  0  0 
  7 26  1  0  0  0  0 
  7 10  2  0  0  0  0 
  8 11  1  0  0  0  0 
  9  5  2  0  0  0  0 
  9  4  1  0  0  0  0 
 10 14  1  0  0  0  0 
 11 13  1  0  0  0  0 
 11  9  1  0  0  0  0 
 12  8  2  0  0  0  0 
 13 27  1  0  0  0  0 
 14  3  1  0  0  0  0 
 16  1  1  0  0  0  0 
 19  2  1  0  0  0  0 
 20  2  1  0  0  0  0 
 21  3  1  0  0  0  0 
 23  4  1  0  0  0  0 
 24  5  1  0  0  0  0 
M  END 
>  <HBA> 
4 
 
>  <HBD> 
1 
 
>  <TPSA> 
49.77 
 
>  <cid> 
29539 
 
>  <dipole> 
4.08 
 
>  <excitation_energy_1> 
4.601 
 
>  <excitation_energy_2> 
4.638 
 
>  <excitation_energy_3> 
4.925 
 
>  <excitation_energy_4> 
5.261 
 
>  <homo_energy> 
-5.45 
 
>  <homo_lumo_gap> 
5.35 
 
>  <logP> 
1.827 
 
>  <lumo_energy> 
-0.101 
 
>  <melting_point> 
93.4 
 
>  <molecular_refractivity> 
52.88 
 
>  <oscillator_strength_1> 
0.0803 
 
>  <oscillator_strength_2> 
0.0501 
 
>  <oscillator_strength_3> 
0.327 
 
>  <oscillator_strength_4> 
0.0081 
 
>  <open_babel_can_smiles> 
CCOc1ccc(cc1)N(C(=O)C)O 
 
>  <mulliken_charges> 
27 
1   -0.456643 
2   -0.511521 
3   -0.028274 
4   -0.157397 
5   -0.182627 
6   -0.192086 
7   -0.202298 
8   0.566137 
9   0.293535 
10   0.389008 
11   -0.30585 
12   -0.48613 
13   -0.501478 
14   -0.520104 
15   0.147779 
16   0.164804 
17   0.16345 
18   0.159094 
19   0.180009 
20   0.18467 
21   0.140694 
22   0.137943 
23   0.176831 
24   0.147501 
25   0.141344 
26   0.133334 
27   0.418276 
 
>  <lowdin_charges> 
27 
1   -0.447259 
2   -0.467135 
3   -0.124278 
4   -0.158306 
5   -0.177886 
6   -0.176857 
7   -0.208504 
8   0.16671 
9   0.024897 
10   0.096679 
11   0.011807 
12   -0.287284 
13   -0.358684 
14   -0.204371 
15   0.155939 
16   0.161904 
17   0.159565 
18   0.16598 
19   0.174101 
20   0.178328 
21   0.137707 
22   0.137967 
23   0.183668 
24   0.16936 
25   0.169682 
26   0.161426 
27   0.354847 
 
$$$$ 
 
