PCCDB-ID:  12254 
public computational chemistry database (PCCDB) project, http://pccdb.org 
 
 14 13  0  0  0  0  0  0  0  0999 V2000 
    0.8646   -0.0325   -0.2811 C   0  0  0  0  0  0  0  0  0  0  0  0 
    2.3006    0.3231    0.0941 C   0  0  0  0  0  0  0  0  0  0  0  0 
    3.7293    0.4385    2.1023 C   0  0  0  0  0  0  0  0  0  0  0  0 
    4.7337    1.0882    1.6497 N   0  0  0  0  0  0  0  0  0  0  0  0 
    2.5107    0.1615    1.5253 N   0  0  0  0  0  0  0  0  0  0  0  0 
    3.7739   -0.0722    3.3639 O   0  0  0  0  0  0  0  0  0  0  0  0 
    0.7077    0.1021   -1.3558 H   0  0  0  0  0  0  0  0  0  0  0  0 
    0.1524    0.6028    0.2557 H   0  0  0  0  0  0  0  0  0  0  0  0 
    0.6400   -1.0792   -0.0416 H   0  0  0  0  0  0  0  0  0  0  0  0 
    2.4964    1.3710   -0.1653 H   0  0  0  0  0  0  0  0  0  0  0  0 
    3.0085   -0.2892   -0.4885 H   0  0  0  0  0  0  0  0  0  0  0  0 
    4.5870    1.4120    0.6953 H   0  0  0  0  0  0  0  0  0  0  0  0 
    2.0057   -0.5944    1.9710 H   0  0  0  0  0  0  0  0  0  0  0  0 
    4.6467    0.1908    3.7046 H   0  0  0  0  0  0  0  0  0  0  0  0 
  1  9  1  0  0  0  0 
  1  2  1  0  0  0  0 
  1  8  1  0  0  0  0 
  2  5  1  0  0  0  0 
  3  6  1  0  0  0  0 
  4  3  2  0  0  0  0 
  5 13  1  0  0  0  0 
  5  3  1  0  0  0  0 
  6 14  1  0  0  0  0 
  7  1  1  0  0  0  0 
 10  2  1  0  0  0  0 
 11  2  1  0  0  0  0 
 12  4  1  0  0  0  0 
M  END 
>  <HBA> 
3 
 
>  <HBD> 
2 
 
>  <TPSA> 
55.12 
 
>  <cid> 
12254 
 
>  <dipole> 
2.66 
 
>  <excitation_energy_1> 
5.739 
 
>  <excitation_energy_2> 
6.239 
 
>  <excitation_energy_3> 
6.276 
 
>  <excitation_energy_4> 
6.754 
 
>  <homo_energy> 
-6.223 
 
>  <homo_lumo_gap> 
8.027 
 
>  <logP> 
0.766 
 
>  <lumo_energy> 
1.804 
 
>  <melting_point> 
88.58 
 
>  <molecular_refractivity> 
22.63 
 
>  <oscillator_strength_1> 
0.0098 
 
>  <oscillator_strength_2> 
0.0206 
 
>  <oscillator_strength_3> 
0.0048 
 
>  <oscillator_strength_4> 
0.0371 
 
>  <open_babel_can_smiles> 
CCNC(=N)O 
 
>  <mulliken_charges> 
14 
1   -0.470588 
2   -0.115303 
3   0.642551 
4   -0.666444 
5   -0.590796 
6   -0.610307 
7   0.159414 
8   0.166605 
9   0.150201 
10   0.155968 
11   0.146496 
12   0.282285 
13   0.330882 
14   0.419038 
 
>  <lowdin_charges> 
14 
1   -0.446158 
2   -0.19063 
3   0.160829 
4   -0.495038 
5   -0.306245 
6   -0.386984 
7   0.159589 
8   0.16088 
9   0.149698 
10   0.147431 
11   0.137854 
12   0.255767 
13   0.28658 
14   0.366428 
 
$$$$ 
 
