PCCDB-ID:  65353 
public computational chemistry database (PCCDB) project, http://pccdb.org 
 
 18 18  0  0  0  0  0  0  0  0999 V2000 
    0.9176    0.3872   -0.0161 C   0  0  0  0  0  0  0  0  0  0  0  0 
    2.9913   -3.3035    0.4566 C   0  0  0  0  0  0  0  0  0  0  0  0 
    3.2665    1.3765   -0.0972 C   0  0  0  0  0  0  0  0  0  0  0  0 
    2.4169    0.2883    0.0204 C   0  0  0  0  0  0  0  0  0  0  0  0 
    3.0884   -0.9475    0.1780 C   0  0  0  0  0  0  0  0  0  0  0  0 
    5.0975    0.0678    0.0851 C   0  0  0  0  0  0  0  0  0  0  0  0 
    4.6100    1.2961   -0.0683 N   0  0  0  0  0  0  0  0  0  0  0  0 
    4.4091   -1.0704    0.2119 N   0  0  0  0  0  0  0  0  0  0  0  0 
    6.4374   -0.0662    0.1197 O   0  0  0  0  0  0  0  0  0  0  0  0 
    2.3218   -2.0443    0.2988 O   0  0  0  0  0  0  0  0  0  0  0  0 
    0.6013    1.4309   -0.1116 H   0  0  0  0  0  0  0  0  0  0  0  0 
    0.4666   -0.0256    0.8938 H   0  0  0  0  0  0  0  0  0  0  0  0 
    0.4985   -0.1753   -0.8591 H   0  0  0  0  0  0  0  0  0  0  0  0 
    2.1923   -4.0426    0.5294 H   0  0  0  0  0  0  0  0  0  0  0  0 
    3.6037   -3.3072    1.3622 H   0  0  0  0  0  0  0  0  0  0  0  0 
    3.6333   -3.5128   -0.4032 H   0  0  0  0  0  0  0  0  0  0  0  0 
    2.8535    2.3768   -0.2215 H   0  0  0  0  0  0  0  0  0  0  0  0 
    6.7918    0.8346    0.0154 H   0  0  0  0  0  0  0  0  0  0  0  0 
  1  4  1  0  0  0  0 
  1 12  1  0  0  0  0 
  2 14  1  0  0  0  0 
  2 15  1  0  0  0  0 
  3  7  1  0  0  0  0 
  3  4  2  0  0  0  0 
  4  5  1  0  0  0  0 
  5  8  2  0  0  0  0 
  5 10  1  0  0  0  0 
  6  9  1  0  0  0  0 
  6  8  2  0  0  0  0 
  7  6  2  0  0  0  0 
 10  2  1  0  0  0  0 
 11  1  1  0  0  0  0 
 13  1  1  0  0  0  0 
 16  2  1  0  0  0  0 
 17  3  1  0  0  0  0 
 18  9  1  0  0  0  0 
M  END 
>  <HBA> 
3 
 
>  <HBD> 
1 
 
>  <TPSA> 
54.98 
 
>  <cid> 
65353 
 
>  <dipole> 
1.5 
 
>  <excitation_energy_1> 
5.099 
 
>  <excitation_energy_2> 
5.126 
 
>  <excitation_energy_3> 
5.698 
 
>  <excitation_energy_4> 
5.914 
 
>  <homo_energy> 
-6.343 
 
>  <homo_lumo_gap> 
5.818 
 
>  <logP> 
0.087 
 
>  <lumo_energy> 
-0.525 
 
>  <melting_point> 
111.48 
 
>  <molecular_refractivity> 
36.32 
 
>  <oscillator_strength_1> 
0.0036 
 
>  <oscillator_strength_2> 
0.1084 
 
>  <oscillator_strength_3> 
0.0005 
 
>  <oscillator_strength_4> 
0.002 
 
>  <open_babel_can_smiles> 
COC1=[N]=[C](=NC=C1C)O 
 
>  <mulliken_charges> 
18 
1   -0.519096 
2   -0.210392 
3   0.001343 
4   0.097355 
5   0.529933 
6   0.626934 
7   -0.486776 
8   -0.525686 
9   -0.588661 
10   -0.487536 
11   0.153178 
12   0.169726 
13   0.169296 
14   0.163394 
15   0.173123 
16   0.173304 
17   0.143827 
18   0.416735 
 
>  <lowdin_charges> 
18 
1   -0.433386 
2   -0.275448 
3   -0.070054 
4   -0.076497 
5   0.151812 
6   0.159048 
7   -0.225182 
8   -0.200757 
9   -0.343739 
10   -0.178696 
11   0.15666 
12   0.165424 
13   0.165428 
14   0.160314 
15   0.16093 
16   0.161559 
17   0.158924 
18   0.363658 
 
$$$$ 
 
