PCCDB-ID:  33711 
public computational chemistry database (PCCDB) project, http://pccdb.org 
 
 27 27  0  0  0  0  0  0  0  0999 V2000 
    0.8777    0.1565   -0.1858 C   0  0  0  0  0  0  0  0  0  0  0  0 
    5.9691   -2.9385    0.9014 C   0  0  0  0  0  0  0  0  0  0  0  0 
    4.2427   -3.7353   -0.7195 C   0  0  0  0  0  0  0  0  0  0  0  0 
    6.1947   -2.4195   -1.5579 C   0  0  0  0  0  0  0  0  0  0  0  0 
    4.5237    1.1404    0.3373 C   0  0  0  0  0  0  0  0  0  0  0  0 
    3.1358    1.2280    0.2221 C   0  0  0  0  0  0  0  0  0  0  0  0 
    5.1709   -0.0770    0.1438 C   0  0  0  0  0  0  0  0  0  0  0  0 
    3.0573   -1.1250   -0.2837 C   0  0  0  0  0  0  0  0  0  0  0  0 
    2.3852    0.0908   -0.0871 C   0  0  0  0  0  0  0  0  0  0  0  0 
    4.4486   -1.2404   -0.1728 C   0  0  0  0  0  0  0  0  0  0  0  0 
    5.1949   -2.5709   -0.3868 C   0  0  0  0  0  0  0  0  0  0  0  0 
    0.5387    1.1519   -0.4922 H   0  0  0  0  0  0  0  0  0  0  0  0 
    0.4043   -0.0650    0.7804 H   0  0  0  0  0  0  0  0  0  0  0  0 
    0.4905   -0.5699   -0.9087 H   0  0  0  0  0  0  0  0  0  0  0  0 
    6.5181   -3.8781    0.7630 H   0  0  0  0  0  0  0  0  0  0  0  0 
    5.2837   -3.0668    1.7470 H   0  0  0  0  0  0  0  0  0  0  0  0 
    6.6951   -2.1660    1.1752 H   0  0  0  0  0  0  0  0  0  0  0  0 
    4.8208   -4.6560   -0.8581 H   0  0  0  0  0  0  0  0  0  0  0  0 
    3.6839   -3.5549   -1.6449 H   0  0  0  0  0  0  0  0  0  0  0  0 
    3.5214   -3.9168    0.0854 H   0  0  0  0  0  0  0  0  0  0  0  0 
    6.7423   -3.3568   -1.7162 H   0  0  0  0  0  0  0  0  0  0  0  0 
    6.9308   -1.6316   -1.3667 H   0  0  0  0  0  0  0  0  0  0  0  0 
    5.6728   -2.1691   -2.4886 H   0  0  0  0  0  0  0  0  0  0  0  0 
    5.1046    2.0280    0.5757 H   0  0  0  0  0  0  0  0  0  0  0  0 
    2.6362    2.1827    0.3712 H   0  0  0  0  0  0  0  0  0  0  0  0 
    6.2526   -0.1179    0.2373 H   0  0  0  0  0  0  0  0  0  0  0  0 
    2.4614   -1.9978   -0.5313 H   0  0  0  0  0  0  0  0  0  0  0  0 
  1  9  1  0  0  0  0 
  1 13  1  0  0  0  0 
  2 17  1  0  0  0  0 
  2 16  1  0  0  0  0 
  3 11  1  0  0  0  0 
  3 20  1  0  0  0  0 
  4 22  1  0  0  0  0 
  4 11  1  0  0  0  0 
  5 24  1  0  0  0  0 
  6  5  1  0  0  0  0 
  6 25  1  0  0  0  0 
  7 26  1  0  0  0  0 
  7  5  2  0  0  0  0 
  8 10  2  0  0  0  0 
  8  9  1  0  0  0  0 
  9  6  2  0  0  0  0 
 10  7  1  0  0  0  0 
 11 10  1  0  0  0  0 
 11  2  1  0  0  0  0 
 12  1  1  0  0  0  0 
 14  1  1  0  0  0  0 
 15  2  1  0  0  0  0 
 18  3  1  0  0  0  0 
 19  3  1  0  0  0  0 
 21  4  1  0  0  0  0 
 23  4  1  0  0  0  0 
 27  8  1  0  0  0  0 
M  END 
>  <HBA> 
0 
 
>  <HBD> 
0 
 
>  <TPSA> 
0.0 
 
>  <cid> 
33711 
 
>  <dipole> 
0.27 
 
>  <excitation_energy_1> 
5.214 
 
>  <excitation_energy_2> 
5.783 
 
>  <excitation_energy_3> 
5.82 
 
>  <excitation_energy_4> 
6.059 
 
>  <homo_energy> 
-6.215 
 
>  <homo_lumo_gap> 
6.408 
 
>  <logP> 
3.292 
 
>  <lumo_energy> 
0.193 
 
>  <melting_point> 
16.94 
 
>  <molecular_refractivity> 
50.68 
 
>  <oscillator_strength_1> 
0.0016 
 
>  <oscillator_strength_2> 
0.0172 
 
>  <oscillator_strength_3> 
0.0052 
 
>  <oscillator_strength_4> 
0.0003 
 
>  <open_babel_can_smiles> 
Cc1cccc(c1)C(C)(C)C 
 
>  <mulliken_charges> 
27 
1   -0.528911 
2   -0.438016 
3   -0.455376 
4   -0.437751 
5   -0.127757 
6   -0.184136 
7   -0.192478 
8   -0.254682 
9   0.18359 
10   0.185451 
11   0.016445 
12   0.154674 
13   0.163519 
14   0.154841 
15   0.136724 
16   0.146595 
17   0.142609 
18   0.139796 
19   0.14478 
20   0.144909 
21   0.136731 
22   0.142495 
23   0.146678 
24   0.124089 
25   0.117328 
26   0.121022 
27   0.116832 
 
>  <lowdin_charges> 
27 
1   -0.443086 
2   -0.440461 
3   -0.444946 
4   -0.439856 
5   -0.155895 
6   -0.173801 
7   -0.169491 
8   -0.185097 
9   0.002111 
10   0.002268 
11   0.0168 
12   0.156396 
13   0.160416 
14   0.157747 
15   0.145844 
16   0.151732 
17   0.14933 
18   0.149882 
19   0.149212 
20   0.149891 
21   0.145993 
22   0.149097 
23   0.15138 
24   0.155691 
25   0.152414 
26   0.150523 
27   0.155905 
 
$$$$ 
 
