PCCDB-ID:  34716 
public computational chemistry database (PCCDB) project, http://pccdb.org 
 
 26 26  0  0  1  0  0  0  0  0999 V2000 
    1.5917   -0.8125   -1.1333 C   0  0  0  0  0  0  0  0  0  0  0  0 
    1.0914    3.7256   -2.1147 C   0  0  0  0  0  0  0  0  0  0  0  0 
    3.5630    3.9636   -2.5529 C   0  0  0  0  0  0  0  0  0  0  0  0 
    2.1416    0.2203   -0.1461 C   0  0  0  0  0  0  0  0  0  0  0  0 
    2.7587    3.4578   -0.1843 C   0  0  0  0  0  0  0  0  0  0  0  0 
    3.6855    2.2806    0.1519 C   0  0  2  0  0  0  0  0  0  0  0  0 
    3.1632    1.1632   -0.7934 C   0  0  2  0  0  0  0  0  0  0  0  0 
    2.4914    3.2812   -1.6889 C   0  0  0  0  0  0  0  0  0  0  0  0 
    3.7622    1.9384    1.5250 O   0  0  0  0  0  0  0  0  0  0  0  0 
    2.5754    1.8470   -1.9084 O   0  0  0  0  0  0  0  0  0  0  0  0 
    0.8467   -1.4596   -0.6571 H   0  0  0  0  0  0  0  0  0  0  0  0 
    2.3947   -1.4531   -1.5183 H   0  0  0  0  0  0  0  0  0  0  0  0 
    1.1231   -0.3131   -1.9864 H   0  0  0  0  0  0  0  0  0  0  0  0 
    0.9609    4.8042   -1.9683 H   0  0  0  0  0  0  0  0  0  0  0  0 
    0.3284    3.1994   -1.5314 H   0  0  0  0  0  0  0  0  0  0  0  0 
    0.9253    3.5010   -3.1738 H   0  0  0  0  0  0  0  0  0  0  0  0 
    3.4909    5.0555   -2.4833 H   0  0  0  0  0  0  0  0  0  0  0  0 
    3.4326    3.6740   -3.6008 H   0  0  0  0  0  0  0  0  0  0  0  0 
    4.5718    3.6676   -2.2455 H   0  0  0  0  0  0  0  0  0  0  0  0 
    2.6273   -0.2865    0.6981 H   0  0  0  0  0  0  0  0  0  0  0  0 
    1.3076    0.8098    0.2646 H   0  0  0  0  0  0  0  0  0  0  0  0 
    3.1990    4.4274    0.0657 H   0  0  0  0  0  0  0  0  0  0  0  0 
    1.8230    3.3585    0.3837 H   0  0  0  0  0  0  0  0  0  0  0  0 
    4.7154    2.5291   -0.1215 H   0  0  0  0  0  0  0  0  0  0  0  0 
    3.9989    0.5587   -1.1736 H   0  0  0  0  0  0  0  0  0  0  0  0 
    2.8599    1.7622    1.8352 H   0  0  0  0  0  0  0  0  0  0  0  0 
  1 11  1  0  0  0  0 
  1  4  1  0  0  0  0 
  2 14  1  0  0  0  0 
  2  8  1  0  0  0  0 
  2 15  1  0  0  0  0 
  3 17  1  0  0  0  0 
  3 19  1  0  0  0  0 
  3  8  1  0  0  0  0 
  4 21  1  0  0  0  0 
  4 20  1  0  0  0  0 
  5 22  1  0  0  0  0 
  5  6  1  0  0  0  0 
  5 23  1  0  0  0  0 
  6 24  1  6  0  0  0 
  6  9  1  0  0  0  0 
  7 25  1  6  0  0  0 
  7  4  1  0  0  0  0 
  7  6  1  0  0  0  0 
  8  5  1  0  0  0  0 
  9 26  1  0  0  0  0 
 10  8  1  0  0  0  0 
 10  7  1  0  0  0  0 
 12  1  1  0  0  0  0 
 13  1  1  0  0  0  0 
 16  2  1  0  0  0  0 
 18  3  1  0  0  0  0 
M  END 
>  <HBA> 
2 
 
>  <HBD> 
1 
 
>  <TPSA> 
29.46 
 
>  <cid> 
34716 
 
>  <dipole> 
1.3 
 
>  <excitation_energy_1> 
6.136 
 
>  <excitation_energy_2> 
6.332 
 
>  <excitation_energy_3> 
6.442 
 
>  <excitation_energy_4> 
6.559 
 
>  <homo_energy> 
-6.599 
 
>  <homo_lumo_gap> 
8.449 
 
>  <logP> 
1.325 
 
>  <lumo_energy> 
1.85 
 
>  <melting_point> 
15.38 
 
>  <molecular_refractivity> 
40.74 
 
>  <oscillator_strength_1> 
0.0218 
 
>  <oscillator_strength_2> 
0.0048 
 
>  <oscillator_strength_3> 
0.0075 
 
>  <oscillator_strength_4> 
0.0212 
 
>  <open_babel_can_smiles> 
CC[C@H]1OC(C[C@H]1O)(C)C 
 
>  <mulliken_charges> 
26 
1   -0.444788 
2   -0.451164 
3   -0.452023 
4   -0.283615 
5   -0.329881 
6   0.101854 
7   0.15467 
8   0.340144 
9   -0.62495 
10   -0.531378 
11   0.138943 
12   0.14206 
13   0.166546 
14   0.138974 
15   0.144292 
16   0.153522 
17   0.13775 
18   0.155295 
19   0.144602 
20   0.14012 
21   0.118465 
22   0.152394 
23   0.128155 
24   0.144416 
25   0.124729 
26   0.390869 
 
>  <lowdin_charges> 
26 
1   -0.446877 
2   -0.444658 
3   -0.448602 
4   -0.294795 
5   -0.306296 
6   -0.017316 
7   -0.017438 
8   0.133295 
9   -0.447533 
10   -0.28535 
11   0.149422 
12   0.148725 
13   0.159812 
14   0.148763 
15   0.152704 
16   0.155363 
17   0.147103 
18   0.156708 
19   0.149545 
20   0.147909 
21   0.133971 
22   0.157614 
23   0.142909 
24   0.147298 
25   0.138105 
26   0.339619 
 
$$$$ 
 
