PCCDB-ID:  42433 
public computational chemistry database (PCCDB) project, http://pccdb.org 
 
 27 28  0  0  0  0  0  0  0  0999 V2000 
    1.3526    0.6610   -1.2109 C   0  0  0  0  0  0  0  0  0  0  0  0 
    5.9604    1.1653    5.0947 C   0  0  0  0  0  0  0  0  0  0  0  0 
    3.9949    5.0147    3.1410 C   0  0  0  0  0  0  0  0  0  0  0  0 
    3.4254    4.3541    2.0584 C   0  0  0  0  0  0  0  0  0  0  0  0 
    4.5484    4.2765    4.1890 C   0  0  0  0  0  0  0  0  0  0  0  0 
    2.7528    2.2053    0.9580 C   0  0  0  0  0  0  0  0  0  0  0  0 
    3.8169    0.1754    1.8397 C   0  0  0  0  0  0  0  0  0  0  0  0 
    2.2733    0.0226   -0.1821 C   0  0  0  0  0  0  0  0  0  0  0  0 
    3.4071    2.9511    2.0177 C   0  0  0  0  0  0  0  0  0  0  0  0 
    2.8958    0.8653    0.8616 C   0  0  0  0  0  0  0  0  0  0  0  0 
    4.5403    2.8774    4.1797 C   0  0  0  0  0  0  0  0  0  0  0  0 
    3.9662    2.2100    3.0824 C   0  0  0  0  0  0  0  0  0  0  0  0 
    2.5128   -1.1802   -0.2149 O   0  0  0  0  0  0  0  0  0  0  0  0 
    5.0417    2.2458    5.2839 O   0  0  0  0  0  0  0  0  0  0  0  0 
    3.8711    0.8489    3.1109 O   0  0  0  0  0  0  0  0  0  0  0  0 
    0.5060    1.1644   -0.7300 H   0  0  0  0  0  0  0  0  0  0  0  0 
    0.9786   -0.1214   -1.8734 H   0  0  0  0  0  0  0  0  0  0  0  0 
    1.8864    1.4107   -1.8072 H   0  0  0  0  0  0  0  0  0  0  0  0 
    6.4334    1.0098    6.0672 H   0  0  0  0  0  0  0  0  0  0  0  0 
    6.7298    1.4302    4.3581 H   0  0  0  0  0  0  0  0  0  0  0  0 
    5.4513    0.2526    4.7779 H   0  0  0  0  0  0  0  0  0  0  0  0 
    4.0156    6.0997    3.1741 H   0  0  0  0  0  0  0  0  0  0  0  0 
    2.9836    4.9126    1.2371 H   0  0  0  0  0  0  0  0  0  0  0  0 
    5.0042    4.7667    5.0436 H   0  0  0  0  0  0  0  0  0  0  0  0 
    2.1313    2.7592    0.2589 H   0  0  0  0  0  0  0  0  0  0  0  0 
    4.8378    0.1038    1.4300 H   0  0  0  0  0  0  0  0  0  0  0  0 
    3.4713   -0.8363    2.0524 H   0  0  0  0  0  0  0  0  0  0  0  0 
  1 16  1  0  0  0  0 
  1  8  1  0  0  0  0 
  2 14  1  0  0  0  0 
  2 19  1  0  0  0  0 
  3 22  1  0  0  0  0 
  3  5  2  0  0  0  0 
  4  3  1  0  0  0  0 
  5 24  1  0  0  0  0 
  6  9  1  0  0  0  0 
  7 27  1  0  0  0  0 
  7 15  1  0  0  0  0 
  8 10  1  0  0  0  0 
  9  4  2  0  0  0  0 
  9 12  1  0  0  0  0 
 10  6  2  0  0  0  0 
 10  7  1  0  0  0  0 
 11  5  1  0  0  0  0 
 11 14  1  0  0  0  0 
 12 15  1  0  0  0  0 
 12 11  2  0  0  0  0 
 13  8  2  0  0  0  0 
 17  1  1  0  0  0  0 
 18  1  1  0  0  0  0 
 20  2  1  0  0  0  0 
 21  2  1  0  0  0  0 
 23  4  1  0  0  0  0 
 25  6  1  0  0  0  0 
 26  7  1  0  0  0  0 
M  END 
>  <HBA> 
3 
 
>  <HBD> 
0 
 
>  <TPSA> 
35.53 
 
>  <cid> 
42433 
 
>  <dipole> 
2.78 
 
>  <excitation_energy_1> 
3.249 
 
>  <excitation_energy_2> 
3.5 
 
>  <excitation_energy_3> 
3.865 
 
>  <excitation_energy_4> 
4.965 
 
>  <homo_energy> 
-5.902 
 
>  <homo_lumo_gap> 
3.91 
 
>  <logP> 
2.06 
 
>  <lumo_energy> 
-1.992 
 
>  <melting_point> 
85.12 
 
>  <molecular_refractivity> 
57.22 
 
>  <oscillator_strength_1> 
0.0488 
 
>  <oscillator_strength_2> 
0.0018 
 
>  <oscillator_strength_3> 
0.3407 
 
>  <oscillator_strength_4> 
0.0321 
 
>  <open_babel_can_smiles> 
COc1cccc2c1OCC(=C2)C(=O)C 
 
>  <mulliken_charges> 
27 
1   -0.541391 
2   -0.212621 
3   -0.139356 
4   -0.200762 
5   -0.172358 
6   -0.183456 
7   -0.092699 
8   0.42287 
9   0.123485 
10   0.01937 
11   0.317161 
12   0.278803 
13   -0.466404 
14   -0.520562 
15   -0.527531 
16   0.170978 
17   0.183071 
18   0.169523 
19   0.160459 
20   0.141112 
21   0.173836 
22   0.134352 
23   0.130627 
24   0.144228 
25   0.145193 
26   0.15377 
27   0.188305 
 
>  <lowdin_charges> 
27 
1   -0.477295 
2   -0.276733 
3   -0.164487 
4   -0.160426 
5   -0.160359 
6   -0.123426 
7   -0.1158 
8   0.152441 
9   -0.043953 
10   -0.072841 
11   0.071842 
12   0.080169 
13   -0.251224 
14   -0.213105 
15   -0.19676 
16   0.170369 
17   0.177328 
18   0.170469 
19   0.156628 
20   0.142421 
21   0.155806 
22   0.159809 
23   0.160186 
24   0.171336 
25   0.168021 
26   0.145082 
27   0.1745 
 
$$$$ 
 
