PCCDB-ID:  51089 
public computational chemistry database (PCCDB) project, http://pccdb.org 
 
 25 24  0  0  1  0  0  0  0  0999 V2000 
    1.6616    1.1296   -0.0086 C   0  0  0  0  0  0  0  0  0  0  0  0 
    1.0045   -0.2419    0.1972 C   0  0  0  0  0  0  0  0  0  0  0  0 
    2.4929    1.2149   -1.2973 C   0  0  0  0  0  0  0  0  0  0  0  0 
    0.1514   -0.3503    1.4757 C   0  0  0  0  0  0  0  0  0  0  0  0 
    3.9964    3.1910   -0.5631 C   0  0  0  0  0  0  0  0  0  0  0  0 
    3.0554    2.6131   -1.6326 C   0  0  1  0  0  0  0  0  0  0  0  0 
    0.8441   -0.2007    2.7588 N   0  0  0  0  0  0  0  0  0  0  0  0 
    3.7263    2.6947   -2.9349 N   0  0  0  0  0  0  0  0  0  0  0  0 
    5.5753    2.2650   -0.2959 S   0  0  0  0  0  0  0  0  0  0  0  0 
    2.2974    1.3575    0.8588 H   0  0  0  0  0  0  0  0  0  0  0  0 
    0.8800    1.9047   -0.0273 H   0  0  0  0  0  0  0  0  0  0  0  0 
    1.7822   -1.0210    0.2172 H   0  0  0  0  0  0  0  0  0  0  0  0 
    0.3666   -0.4698   -0.6695 H   0  0  0  0  0  0  0  0  0  0  0  0 
    1.8639    0.9027   -2.1437 H   0  0  0  0  0  0  0  0  0  0  0  0 
    3.3221    0.4941   -1.2568 H   0  0  0  0  0  0  0  0  0  0  0  0 
   -0.3502   -1.3263    1.4859 H   0  0  0  0  0  0  0  0  0  0  0  0 
   -0.6478    0.4026    1.4442 H   0  0  0  0  0  0  0  0  0  0  0  0 
    3.4910    3.3054    0.3988 H   0  0  0  0  0  0  0  0  0  0  0  0 
    4.3245    4.1805   -0.8917 H   0  0  0  0  0  0  0  0  0  0  0  0 
    2.2048    3.3118   -1.6733 H   0  0  0  0  0  0  0  0  0  0  0  0 
    1.6091   -0.8719    2.8213 H   0  0  0  0  0  0  0  0  0  0  0  0 
    1.2684    0.7226    2.8273 H   0  0  0  0  0  0  0  0  0  0  0  0 
    4.5480    2.0891   -2.9203 H   0  0  0  0  0  0  0  0  0  0  0  0 
    3.1121    2.3258   -3.6599 H   0  0  0  0  0  0  0  0  0  0  0  0 
    5.0571    1.2319    0.4028 H   0  0  0  0  0  0  0  0  0  0  0  0 
  1  2  1  0  0  0  0 
  1 10  1  0  0  0  0 
  2 12  1  0  0  0  0 
  2  4  1  0  0  0  0 
  3 15  1  0  0  0  0 
  3  1  1  0  0  0  0 
  4 16  1  0  0  0  0 
  4  7  1  0  0  0  0 
  5  9  1  0  0  0  0 
  5 18  1  0  0  0  0 
  6 20  1  6  0  0  0 
  6  3  1  0  0  0  0 
  6  5  1  0  0  0  0 
  7 21  1  0  0  0  0 
  7 22  1  0  0  0  0 
  8 23  1  0  0  0  0 
  8  6  1  0  0  0  0 
  9 25  1  0  0  0  0 
 11  1  1  0  0  0  0 
 13  2  1  0  0  0  0 
 14  3  1  0  0  0  0 
 17  4  1  0  0  0  0 
 19  5  1  0  0  0  0 
 24  8  1  0  0  0  0 
M  END 
>  <HBA> 
3 
 
>  <HBD> 
3 
 
>  <TPSA> 
90.84 
 
>  <cid> 
51089 
 
>  <dipole> 
1.7 
 
>  <excitation_energy_1> 
5.289 
 
>  <excitation_energy_2> 
5.479 
 
>  <excitation_energy_3> 
5.653 
 
>  <excitation_energy_4> 
5.776 
 
>  <homo_energy> 
-6.234 
 
>  <homo_lumo_gap> 
6.917 
 
>  <logP> 
1.773 
 
>  <lumo_energy> 
0.683 
 
>  <melting_point> 
102.19 
 
>  <molecular_refractivity> 
44.3 
 
>  <oscillator_strength_1> 
0.0102 
 
>  <oscillator_strength_2> 
0.0314 
 
>  <oscillator_strength_3> 
0.0075 
 
>  <oscillator_strength_4> 
0.0251 
 
>  <open_babel_can_smiles> 
NCCCC[C@@H](CS)N 
 
>  <mulliken_charges> 
25 
1   -0.262501 
2   -0.259067 
3   -0.266995 
4   -0.14523 
5   -0.421592 
6   0.035381 
7   -0.705295 
8   -0.715997 
9   -0.093739 
10   0.116799 
11   0.13178 
12   0.123442 
13   0.129244 
14   0.126685 
15   0.131112 
16   0.142939 
17   0.139875 
18   0.176105 
19   0.197537 
20   0.135421 
21   0.291118 
22   0.296417 
23   0.312022 
24   0.2938 
25   0.090739 
 
>  <lowdin_charges> 
25 
1   -0.28391 
2   -0.29464 
3   -0.297496 
4   -0.208147 
5   -0.376476 
6   -0.073213 
7   -0.554247 
8   -0.553791 
9   -0.09292 
10   0.131641 
11   0.140011 
12   0.136184 
13   0.143251 
14   0.141154 
15   0.142273 
16   0.144784 
17   0.142435 
18   0.161623 
19   0.179212 
20   0.143334 
21   0.251898 
22   0.251575 
23   0.260785 
24   0.254399 
25   0.110282 
 
$$$$ 
 
