PCCDB-ID:  48372 
public computational chemistry database (PCCDB) project, http://pccdb.org 
 
 33 33  0  0  0  0  0  0  0  0999 V2000 
    3.6192    1.7484   -1.0556 C   0  0  0  0  0  0  0  0  0  0  0  0 
    9.2782    1.8305   -7.5015 C   0  0  0  0  0  0  0  0  0  0  0  0 
    8.6303   -0.2365   -2.9359 C   0  0  0  0  0  0  0  0  0  0  0  0 
    5.0374    5.3937   -3.0959 C   0  0  0  0  0  0  0  0  0  0  0  0 
    4.8572    1.6701   -1.5450 C   0  0  0  0  0  0  0  0  0  0  0  0 
    6.0645    2.2310   -0.8510 C   0  0  0  0  0  0  0  0  0  0  0  0 
    8.2577    1.9406   -4.6955 C   0  0  0  0  0  0  0  0  0  0  0  0 
    7.4832    4.2052   -5.0333 C   0  0  0  0  0  0  0  0  0  0  0  0 
    8.5941    3.0720   -6.9452 C   0  0  0  0  0  0  0  0  0  0  0  0 
    8.1081    3.0582   -5.5320 C   0  0  0  0  0  0  0  0  0  0  0  0 
    7.7995    1.9692   -3.3779 C   0  0  0  0  0  0  0  0  0  0  0  0 
    7.0070    4.2387   -3.7280 C   0  0  0  0  0  0  0  0  0  0  0  0 
    7.1469    3.1212   -2.8771 C   0  0  0  0  0  0  0  0  0  0  0  0 
    8.4471    4.0602   -7.6500 O   0  0  0  0  0  0  0  0  0  0  0  0 
    7.9495    0.9286   -2.4970 O   0  0  0  0  0  0  0  0  0  0  0  0 
    6.4574    5.4033   -3.2519 O   0  0  0  0  0  0  0  0  0  0  0  0 
    6.7204    3.2867   -1.5936 O   0  0  0  0  0  0  0  0  0  0  0  0 
    2.7708    1.3016   -1.5672 H   0  0  0  0  0  0  0  0  0  0  0  0 
    3.4071    2.2534   -0.1151 H   0  0  0  0  0  0  0  0  0  0  0  0 
   10.1818    1.5869   -6.9294 H   0  0  0  0  0  0  0  0  0  0  0  0 
    9.5516    2.0210   -8.5406 H   0  0  0  0  0  0  0  0  0  0  0  0 
    8.6156    0.9578   -7.4563 H   0  0  0  0  0  0  0  0  0  0  0  0 
    8.1081   -0.7207   -3.7716 H   0  0  0  0  0  0  0  0  0  0  0  0 
    8.6440   -0.9131   -2.0795 H   0  0  0  0  0  0  0  0  0  0  0  0 
    9.6615   -0.0096   -3.2357 H   0  0  0  0  0  0  0  0  0  0  0  0 
    4.7147    4.6283   -2.3830 H   0  0  0  0  0  0  0  0  0  0  0  0 
    4.5397    5.2281   -4.0611 H   0  0  0  0  0  0  0  0  0  0  0  0 
    4.7688    6.3824   -2.7169 H   0  0  0  0  0  0  0  0  0  0  0  0 
    5.0386    1.1533   -2.4864 H   0  0  0  0  0  0  0  0  0  0  0  0 
    6.7855    1.4416   -0.6270 H   0  0  0  0  0  0  0  0  0  0  0  0 
    5.7743    2.7225    0.0812 H   0  0  0  0  0  0  0  0  0  0  0  0 
    8.7512    1.0522   -5.0676 H   0  0  0  0  0  0  0  0  0  0  0  0 
    7.3696    5.0758   -5.6689 H   0  0  0  0  0  0  0  0  0  0  0  0 
  1 19  1  0  0  0  0 
  2 22  1  0  0  0  0 
  2  9  1  0  0  0  0 
  2 20  1  0  0  0  0 
  3 15  1  0  0  0  0 
  3 24  1  0  0  0  0 
  4 28  1  0  0  0  0 
  4 26  1  0  0  0  0 
  5  1  2  0  0  0  0 
  5  6  1  0  0  0  0 
  6 30  1  0  0  0  0 
  6 31  1  0  0  0  0 
  7 11  2  0  0  0  0 
  8 12  1  0  0  0  0 
  9 10  1  0  0  0  0 
 10  8  2  0  0  0  0 
 10  7  1  0  0  0  0 
 11 13  1  0  0  0  0 
 11 15  1  0  0  0  0 
 12 16  1  0  0  0  0 
 12 13  2  0  0  0  0 
 13 17  1  0  0  0  0 
 14  9  2  0  0  0  0 
 16  4  1  0  0  0  0 
 17  6  1  0  0  0  0 
 18  1  1  0  0  0  0 
 21  2  1  0  0  0  0 
 23  3  1  0  0  0  0 
 25  3  1  0  0  0  0 
 27  4  1  0  0  0  0 
 29  5  1  0  0  0  0 
 32  7  1  0  0  0  0 
 33  8  1  0  0  0  0 
M  END 
>  <HBA> 
4 
 
>  <HBD> 
0 
 
>  <TPSA> 
44.76 
 
>  <cid> 
48372 
 
>  <dipole> 
5.7 
 
>  <excitation_energy_1> 
3.796 
 
>  <excitation_energy_2> 
4.177 
 
>  <excitation_energy_3> 
4.376 
 
>  <excitation_energy_4> 
4.852 
 
>  <homo_energy> 
-5.875 
 
>  <homo_lumo_gap> 
4.621 
 
>  <logP> 
2.471 
 
>  <lumo_energy> 
-1.254 
 
>  <melting_point> 
34.61 
 
>  <molecular_refractivity> 
65.25 
 
>  <oscillator_strength_1> 
0.0004 
 
>  <oscillator_strength_2> 
0.1454 
 
>  <oscillator_strength_3> 
0.1796 
 
>  <oscillator_strength_4> 
0.0017 
 
>  <open_babel_can_smiles> 
C=CCOc1c(OC)cc(cc1OC)C(=O)C 
 
>  <mulliken_charges> 
33 
1   -0.334067 
2   -0.54315 
3   -0.214807 
4   -0.210867 
5   -0.073137 
6   -0.071506 
7   -0.281119 
8   -0.226311 
9   0.404564 
10   0.077562 
11   0.362476 
12   0.32343 
13   0.294502 
14   -0.456056 
15   -0.527816 
16   -0.518173 
17   -0.530925 
18   0.149992 
19   0.146216 
20   0.167052 
21   0.180815 
22   0.164728 
23   0.153625 
24   0.173039 
25   0.158322 
26   0.15642 
27   0.139589 
28   0.159582 
29   0.146503 
30   0.173754 
31   0.155699 
32   0.134409 
33   0.16565 
 
>  <lowdin_charges> 
33 
1   -0.32191 
2   -0.47701 
3   -0.277219 
4   -0.273786 
5   -0.162704 
6   -0.127352 
7   -0.211789 
8   -0.158967 
9   0.16194 
10   -0.055568 
11   0.066238 
12   0.076749 
13   0.068076 
14   -0.248032 
15   -0.203281 
16   -0.221045 
17   -0.197248 
18   0.164134 
19   0.158578 
20   0.167625 
21   0.1736 
22   0.166354 
23   0.146781 
24   0.165213 
25   0.147641 
26   0.148955 
27   0.138829 
28   0.156541 
29   0.159863 
30   0.160883 
31   0.15653 
32   0.166673 
33   0.184708 
 
$$$$ 
 
