PCCDB-ID:  12029 
public computational chemistry database (PCCDB) project, http://pccdb.org 
 
 22 22  0  0  0  0  0  0  0  0999 V2000 
    0.8400    0.1074   -0.1810 C   0  0  0  0  0  0  0  0  0  0  0  0 
    5.0941    2.6672   -0.6356 C   0  0  0  0  0  0  0  0  0  0  0  0 
    3.0699    1.2186   -0.3954 C   0  0  0  0  0  0  0  0  0  0  0  0 
    4.4956   -1.1293   -0.2728 C   0  0  0  0  0  0  0  0  0  0  0  0 
    2.3433    0.0282   -0.2623 C   0  0  0  0  0  0  0  0  0  0  0  0 
    4.4650    1.3048   -0.4893 C   0  0  0  0  0  0  0  0  0  0  0  0 
    3.1086   -1.1541   -0.2019 C   0  0  0  0  0  0  0  0  0  0  0  0 
    5.1611    0.0808   -0.4223 C   0  0  0  0  0  0  0  0  0  0  0  0 
    2.4927   -2.4878   -0.0612 N   0  0  0  0  0  0  0  0  0  0  0  0 
    6.6324    0.0024   -0.5074 N   0  0  0  0  0  0  0  0  0  0  0  0 
    3.2385   -3.4385    0.1655 O   0  0  0  0  0  0  0  0  0  0  0  0 
    1.2710   -2.5781   -0.1831 O   0  0  0  0  0  0  0  0  0  0  0  0 
    7.1603   -1.0807   -0.2636 O   0  0  0  0  0  0  0  0  0  0  0  0 
    7.2500    1.0199   -0.8225 O   0  0  0  0  0  0  0  0  0  0  0  0 
    0.5257    1.1547   -0.1651 H   0  0  0  0  0  0  0  0  0  0  0  0 
    0.4566   -0.3931    0.7124 H   0  0  0  0  0  0  0  0  0  0  0  0 
    0.3699   -0.3914   -1.0331 H   0  0  0  0  0  0  0  0  0  0  0  0 
    4.3232    3.4396   -0.5645 H   0  0  0  0  0  0  0  0  0  0  0  0 
    5.6071    2.7657   -1.5965 H   0  0  0  0  0  0  0  0  0  0  0  0 
    5.8511    2.8477    0.1322 H   0  0  0  0  0  0  0  0  0  0  0  0 
    2.5075    2.1473   -0.4285 H   0  0  0  0  0  0  0  0  0  0  0  0 
    5.0570   -2.0507   -0.2086 H   0  0  0  0  0  0  0  0  0  0  0  0 
  1 15  1  0  0  0  0 
  1 16  1  0  0  0  0 
  2 18  1  0  0  0  0 
  2  6  1  0  0  0  0 
  2 20  1  0  0  0  0 
  3  5  2  0  0  0  0 
  4 22  1  0  0  0  0 
  4  7  2  0  0  0  0 
  5  7  1  0  0  0  0 
  5  1  1  0  0  0  0 
  6  8  2  0  0  0  0 
  6  3  1  0  0  0  0 
  7  9  1  0  0  0  0 
  8  4  1  0  0  0  0 
  9 11  2  0  0  0  0 
 10  8  1  0  0  0  0 
 10 13  2  0  0  0  0 
 12  9  2  0  0  0  0 
 14 10  2  0  0  0  0 
 17  1  1  0  0  0  0 
 19  2  1  0  0  0  0 
 21  3  1  0  0  0  0 
M  END 
>  <HBA> 
0 
 
>  <HBD> 
0 
 
>  <TPSA> 
91.64 
 
>  <cid> 
12029 
 
>  <dipole> 
5.31 
 
>  <excitation_energy_1> 
3.712 
 
>  <excitation_energy_2> 
3.714 
 
>  <excitation_energy_3> 
4.19 
 
>  <excitation_energy_4> 
4.249 
 
>  <homo_energy> 
-7.957 
 
>  <homo_lumo_gap> 
5.121 
 
>  <logP> 
3.166 
 
>  <lumo_energy> 
-2.835 
 
>  <melting_point> 
91.59 
 
>  <molecular_refractivity> 
54.02 
 
>  <oscillator_strength_1> 
0.0013 
 
>  <oscillator_strength_2> 
0.0038 
 
>  <oscillator_strength_3> 
0.001 
 
>  <oscillator_strength_4> 
0.0004 
 
>  <open_babel_can_smiles> 
Cc1cc(C)c(cc1N(=O)=O)N(=O)=O 
 
>  <mulliken_charges> 
22 
1   -0.507311 
2   -0.507145 
3   -0.279241 
4   -0.184742 
5   0.198967 
6   0.198633 
7   0.210423 
8   0.210303 
9   0.377594 
10   0.377705 
11   -0.382764 
12   -0.39647 
13   -0.382864 
14   -0.396472 
15   0.156061 
16   0.189997 
17   0.196276 
18   0.156042 
19   0.19605 
20   0.190196 
21   0.147439 
22   0.231322 
 
>  <lowdin_charges> 
22 
1   -0.438224 
2   -0.439132 
3   -0.168592 
4   -0.118125 
5   0.045343 
6   0.044199 
7   -0.008347 
8   -0.007165 
9   0.306046 
10   0.308661 
11   -0.237429 
12   -0.235374 
13   -0.237107 
14   -0.238204 
15   0.156214 
16   0.180063 
17   0.183562 
18   0.15809 
19   0.18251 
20   0.180328 
21   0.168523 
22   0.214161 
 
$$$$ 
 
