PCCDB-ID:  58584 
public computational chemistry database (PCCDB) project, http://pccdb.org 
 
 37 38  0  0  1  0  0  0  0  0999 V2000 
    8.1329   -0.5650   -0.3198 C   0  0  0  0  0  0  0  0  0  0  0  0 
    6.8728    0.2916   -2.9606 C   0  0  0  0  0  0  0  0  0  0  0  0 
    6.6567   -0.6429   -0.7078 C   0  0  0  0  0  0  0  0  0  0  0  0 
   -0.4797    0.9402   -4.1901 C   0  0  0  0  0  0  0  0  0  0  0  0 
    0.8011    0.7139   -5.0596 C   0  0  0  0  0  0  0  0  0  0  0  0 
    0.7812    2.9780   -4.2656 C   0  0  0  0  0  0  0  0  0  0  0  0 
    0.9774    1.6661   -2.2780 C   0  0  0  0  0  0  0  0  0  0  0  0 
    4.7829    0.5165   -1.7726 C   0  0  0  0  0  0  0  0  0  0  0  0 
   -0.0830    2.1397   -3.2978 C   0  0  2  0  0  0  0  0  0  0  0  0 
    1.7600    1.8266   -4.5738 C   0  0  1  0  0  0  0  0  0  0  0  0 
    2.2650    1.4469   -3.1535 C   0  0  1  0  0  0  0  0  0  0  0  0 
    4.3800    1.9470   -2.1717 C   0  0  0  0  0  0  0  0  0  0  0  0 
    3.3218    2.3502   -2.7407 N   0  0  0  0  0  0  0  0  0  0  0  0 
    6.2430    0.4159   -1.6419 N   0  0  0  0  0  0  0  0  0  0  0  0 
    5.3067    2.8619   -1.7927 O   0  0  0  0  0  0  0  0  0  0  0  0 
    8.3491   -1.3026    0.4606 H   0  0  0  0  0  0  0  0  0  0  0  0 
    8.3767    0.4295    0.0690 H   0  0  0  0  0  0  0  0  0  0  0  0 
    8.7990   -0.7771   -1.1622 H   0  0  0  0  0  0  0  0  0  0  0  0 
    7.9593    0.3624   -2.8713 H   0  0  0  0  0  0  0  0  0  0  0  0 
    6.5364    1.1113   -3.6018 H   0  0  0  0  0  0  0  0  0  0  0  0 
    6.6220   -0.6640   -3.4551 H   0  0  0  0  0  0  0  0  0  0  0  0 
    6.0481   -0.5288    0.1963 H   0  0  0  0  0  0  0  0  0  0  0  0 
    6.4308   -1.6442   -1.1207 H   0  0  0  0  0  0  0  0  0  0  0  0 
   -0.7531    0.0583   -3.5993 H   0  0  0  0  0  0  0  0  0  0  0  0 
   -1.3433    1.1903   -4.8173 H   0  0  0  0  0  0  0  0  0  0  0  0 
    0.5817    0.8334   -6.1265 H   0  0  0  0  0  0  0  0  0  0  0  0 
    1.2280   -0.2879   -4.9294 H   0  0  0  0  0  0  0  0  0  0  0  0 
    1.2732    3.8299   -3.7870 H   0  0  0  0  0  0  0  0  0  0  0  0 
    0.2295    3.3245   -5.1480 H   0  0  0  0  0  0  0  0  0  0  0  0 
    0.6750    0.7563   -1.7457 H   0  0  0  0  0  0  0  0  0  0  0  0 
    1.1808    2.4425   -1.5337 H   0  0  0  0  0  0  0  0  0  0  0  0 
    4.3763   -0.2186   -2.4820 H   0  0  0  0  0  0  0  0  0  0  0  0 
    4.3332    0.3008   -0.7957 H   0  0  0  0  0  0  0  0  0  0  0  0 
   -0.9351    2.6513   -2.8396 H   0  0  0  0  0  0  0  0  0  0  0  0 
    2.5781    2.0510   -5.2636 H   0  0  0  0  0  0  0  0  0  0  0  0 
    2.5650    0.3877   -3.1383 H   0  0  0  0  0  0  0  0  0  0  0  0 
    6.0539    2.3269   -1.4375 H   0  0  0  0  0  0  0  0  0  0  0  0 
  1 17  1  0  0  0  0 
  1 16  1  0  0  0  0 
  2 19  1  0  0  0  0 
  2 14  1  0  0  0  0 
  3  1  1  0  0  0  0 
  3 22  1  0  0  0  0 
  4 24  1  0  0  0  0 
  4  9  1  0  0  0  0 
  5 27  1  0  0  0  0 
  5 10  1  0  0  0  0 
  5  4  1  0  0  0  0 
  6 28  1  0  0  0  0 
  6  9  1  0  0  0  0 
  7 30  1  0  0  0  0 
  7 31  1  0  0  0  0 
  8 14  1  0  0  0  0 
  8 33  1  0  0  0  0 
  9 34  1  1  0  0  0 
  9  7  1  0  0  0  0 
 10 35  1  6  0  0  0 
 10  6  1  0  0  0  0 
 10 11  1  0  0  0  0 
 11 36  1  1  0  0  0 
 11 13  1  0  0  0  0 
 11  7  1  0  0  0  0 
 12 15  1  0  0  0  0 
 12  8  1  0  0  0  0 
 13 12  2  0  0  0  0 
 14  3  1  0  0  0  0 
 15 37  1  0  0  0  0 
 18  1  1  0  0  0  0 
 20  2  1  0  0  0  0 
 21  2  1  0  0  0  0 
 23  3  1  0  0  0  0 
 25  4  1  0  0  0  0 
 26  5  1  0  0  0  0 
 29  6  1  0  0  0  0 
 32  8  1  0  0  0  0 
M  END 
>  <HBA> 
3 
 
>  <HBD> 
1 
 
>  <TPSA> 
32.34 
 
>  <cid> 
58584 
 
>  <dipole> 
4.55 
 
>  <excitation_energy_1> 
5.411 
 
>  <excitation_energy_2> 
5.7 
 
>  <excitation_energy_3> 
5.761 
 
>  <excitation_energy_4> 
5.945 
 
>  <homo_energy> 
-6.125 
 
>  <homo_lumo_gap> 
7.018 
 
>  <logP> 
1.634 
 
>  <lumo_energy> 
0.893 
 
>  <melting_point> 
65.82 
 
>  <molecular_refractivity> 
61.47 
 
>  <oscillator_strength_1> 
0.0029 
 
>  <oscillator_strength_2> 
0.0065 
 
>  <oscillator_strength_3> 
0.0123 
 
>  <oscillator_strength_4> 
0.0025 
 
>  <open_babel_can_smiles> 
CCN(C/C(=N\[C@H]1C[C@H]2C[C@@H]1CC2)/O)C 
 
>  <mulliken_charges> 
37 
1   -0.456634 
2   -0.31889 
3   -0.108028 
4   -0.26834 
5   -0.275521 
6   -0.2737 
7   -0.274867 
8   -0.21409 
9   -0.102403 
10   -0.088457 
11   0.014699 
12   0.479006 
13   -0.434473 
14   -0.433405 
15   -0.600982 
16   0.153117 
17   0.15857 
18   0.153849 
19   0.164766 
20   0.177391 
21   0.135203 
22   0.146693 
23   0.123699 
24   0.126276 
25   0.131691 
26   0.133945 
27   0.124191 
28   0.158569 
29   0.123643 
30   0.121401 
31   0.150958 
32   0.156697 
33   0.172413 
34   0.11284 
35   0.116454 
36   0.098332 
37   0.415389 
 
>  <lowdin_charges> 
37 
1   -0.451783 
2   -0.363365 
3   -0.195646 
4   -0.287727 
5   -0.285748 
6   -0.287396 
7   -0.291291 
8   -0.241027 
9   -0.134269 
10   -0.137196 
11   -0.067501 
12   0.107103 
13   -0.207449 
14   -0.189969 
15   -0.377328 
16   0.1595 
17   0.1559 
18   0.152851 
19   0.155628 
20   0.165597 
21   0.132301 
22   0.148349 
23   0.124522 
24   0.139618 
25   0.142951 
26   0.142892 
27   0.136822 
28   0.15743 
29   0.1402 
30   0.138562 
31   0.154993 
32   0.149073 
33   0.165807 
34   0.140345 
35   0.143728 
36   0.114614 
37   0.34891 
 
$$$$ 
 
