PCCDB-ID:  11509 
public computational chemistry database (PCCDB) project, http://pccdb.org 
 
 19 18  0  0  0  0  0  0  0  0999 V2000 
    0.4509   -0.2375    0.5240 C   0  0  0  0  0  0  0  0  0  0  0  0 
    6.7933    0.9725    0.5297 C   0  0  0  0  0  0  0  0  0  0  0  0 
    1.7805    0.1642   -0.1214 C   0  0  0  0  0  0  0  0  0  0  0  0 
    5.4986    0.4998    1.1878 C   0  0  0  0  0  0  0  0  0  0  0  0 
    2.9468    0.1451    0.8685 C   0  0  0  0  0  0  0  0  0  0  0  0 
    4.2872    0.5469    0.2600 C   0  0  0  0  0  0  0  0  0  0  0  0 
    4.3873    0.8870   -0.9046 O   0  0  0  0  0  0  0  0  0  0  0  0 
   -0.3644   -0.2173   -0.2078 H   0  0  0  0  0  0  0  0  0  0  0  0 
    0.1801    0.4429    1.3412 H   0  0  0  0  0  0  0  0  0  0  0  0 
    0.4976   -1.2514    0.9408 H   0  0  0  0  0  0  0  0  0  0  0  0 
    7.6315    0.9022    1.2309 H   0  0  0  0  0  0  0  0  0  0  0  0 
    6.7067    2.0114    0.1974 H   0  0  0  0  0  0  0  0  0  0  0  0 
    7.0265    0.3685   -0.3520 H   0  0  0  0  0  0  0  0  0  0  0  0 
    1.7009    1.1663   -0.5585 H   0  0  0  0  0  0  0  0  0  0  0  0 
    2.0112   -0.5062   -0.9577 H   0  0  0  0  0  0  0  0  0  0  0  0 
    5.2674    1.0979    2.0817 H   0  0  0  0  0  0  0  0  0  0  0  0 
    5.5981   -0.5326    1.5556 H   0  0  0  0  0  0  0  0  0  0  0  0 
    3.0601   -0.8526    1.3202 H   0  0  0  0  0  0  0  0  0  0  0  0 
    2.7466    0.8175    1.7175 H   0  0  0  0  0  0  0  0  0  0  0  0 
  1 10  1  0  0  0  0 
  1  9  1  0  0  0  0 
  2  4  1  0  0  0  0 
  2 11  1  0  0  0  0 
  3  1  1  0  0  0  0 
  3  5  1  0  0  0  0 
  4 17  1  0  0  0  0 
  4 16  1  0  0  0  0 
  5 18  1  0  0  0  0 
  5 19  1  0  0  0  0 
  6  5  1  0  0  0  0 
  6  4  1  0  0  0  0 
  7  6  2  0  0  0  0 
  8  1  1  0  0  0  0 
 12  2  1  0  0  0  0 
 13  2  1  0  0  0  0 
 14  3  1  0  0  0  0 
 15  3  1  0  0  0  0 
M  END 
>  <HBA> 
1 
 
>  <HBD> 
0 
 
>  <TPSA> 
17.07 
 
>  <cid> 
11509 
 
>  <dipole> 
2.5 
 
>  <excitation_energy_1> 
4.444 
 
>  <excitation_energy_2> 
6.114 
 
>  <excitation_energy_3> 
6.732 
 
>  <excitation_energy_4> 
6.807 
 
>  <homo_energy> 
-6.577 
 
>  <homo_lumo_gap> 
6.354 
 
>  <logP> 
1.766 
 
>  <lumo_energy> 
-0.223 
 
>  <melting_point> 
-5.17 
 
>  <molecular_refractivity> 
31.16 
 
>  <oscillator_strength_1> 
0.0 
 
>  <oscillator_strength_2> 
0.0151 
 
>  <oscillator_strength_3> 
0.0056 
 
>  <oscillator_strength_4> 
0.005 
 
>  <open_babel_can_smiles> 
CCCC(=O)CC 
 
>  <mulliken_charges> 
19 
1   -0.446455 
2   -0.432438 
3   -0.239743 
4   -0.348884 
5   -0.350067 
6   0.454475 
7   -0.445239 
8   0.147411 
9   0.140008 
10   0.139858 
11   0.139083 
12   0.159215 
13   0.162027 
14   0.151116 
15   0.149139 
16   0.155689 
17   0.157911 
18   0.152573 
19   0.15432 
 
>  <lowdin_charges> 
19 
1   -0.445476 
2   -0.439846 
3   -0.268349 
4   -0.307445 
5   -0.310045 
6   0.160003 
7   -0.236073 
8   0.152765 
9   0.146162 
10   0.144552 
11   0.150314 
12   0.156821 
13   0.159912 
14   0.150994 
15   0.151269 
16   0.159205 
17   0.159311 
18   0.156931 
19   0.158995 
 
$$$$ 
 
