PCCDB-ID:  26318 
public computational chemistry database (PCCDB) project, http://pccdb.org 
 
 39 40  0  0  1  0  0  0  0  0999 V2000 
    1.1631    0.5409    0.7862 C   0  0  0  0  0  0  0  0  0  0  0  0 
    6.0180   -2.3932   -0.9173 C   0  0  0  0  0  0  0  0  0  0  0  0 
    2.0047   -5.0415    0.8568 C   0  0  0  0  0  0  0  0  0  0  0  0 
    1.0948   -4.5038   -1.4099 C   0  0  0  0  0  0  0  0  0  0  0  0 
    4.4971    0.6192   -1.2976 C   0  0  0  0  0  0  0  0  0  0  0  0 
    3.0893    0.7822   -0.7700 C   0  0  0  0  0  0  0  0  0  0  0  0 
    4.7802   -0.6419   -2.1634 C   0  0  0  0  0  0  0  0  0  0  0  0 
    3.3640   -0.7085    1.2187 C   0  0  0  0  0  0  0  0  0  0  0  0 
    2.9055   -2.1900    1.1181 C   0  0  0  0  0  0  0  0  0  0  0  0 
    3.6323   -4.3314   -1.0703 C   0  0  0  0  0  0  0  0  0  0  0  0 
    2.5770    0.2433    0.3479 C   0  0  0  0  0  0  0  0  0  0  0  0 
    4.8514   -1.9757   -1.4262 C   0  0  0  0  0  0  0  0  0  0  0  0 
    3.5959   -2.8151   -1.3818 C   0  0  2  0  0  0  0  0  0  0  0  0 
    2.4777   -2.6617   -0.2751 C   0  0  1  0  0  0  0  0  0  0  0  0 
    2.2250   -4.2145   -0.4116 C   0  0  0  0  0  0  0  0  0  0  0  0 
    0.6550    1.2172    0.0910 H   0  0  0  0  0  0  0  0  0  0  0  0 
    1.1536    1.0075    1.7816 H   0  0  0  0  0  0  0  0  0  0  0  0 
    0.5605   -0.3740    0.8682 H   0  0  0  0  0  0  0  0  0  0  0  0 
    6.9203   -1.7907   -0.9991 H   0  0  0  0  0  0  0  0  0  0  0  0 
    6.1259   -3.3446   -0.4051 H   0  0  0  0  0  0  0  0  0  0  0  0 
    1.9897   -6.1111    0.6097 H   0  0  0  0  0  0  0  0  0  0  0  0 
    1.0448   -4.8030    1.3330 H   0  0  0  0  0  0  0  0  0  0  0  0 
    2.7952   -4.8873    1.5980 H   0  0  0  0  0  0  0  0  0  0  0  0 
    1.0602   -5.5712   -1.6638 H   0  0  0  0  0  0  0  0  0  0  0  0 
    1.2158   -3.9451   -2.3450 H   0  0  0  0  0  0  0  0  0  0  0  0 
    0.1205   -4.2304   -0.9849 H   0  0  0  0  0  0  0  0  0  0  0  0 
    5.2249    0.6370   -0.4773 H   0  0  0  0  0  0  0  0  0  0  0  0 
    4.7261    1.4926   -1.9220 H   0  0  0  0  0  0  0  0  0  0  0  0 
    2.4380    1.4218   -1.3679 H   0  0  0  0  0  0  0  0  0  0  0  0 
    5.7426   -0.4755   -2.6633 H   0  0  0  0  0  0  0  0  0  0  0  0 
    4.0233   -0.6994   -2.9569 H   0  0  0  0  0  0  0  0  0  0  0  0 
    4.4227   -0.6582    0.9576 H   0  0  0  0  0  0  0  0  0  0  0  0 
    3.2835   -0.4019    2.2720 H   0  0  0  0  0  0  0  0  0  0  0  0 
    2.0552   -2.3541    1.7940 H   0  0  0  0  0  0  0  0  0  0  0  0 
    3.7212   -2.8130    1.5059 H   0  0  0  0  0  0  0  0  0  0  0  0 
    4.3925   -4.5875   -0.3249 H   0  0  0  0  0  0  0  0  0  0  0  0 
    3.7418   -5.0125   -1.9223 H   0  0  0  0  0  0  0  0  0  0  0  0 
    3.0942   -2.6794   -2.3480 H   0  0  0  0  0  0  0  0  0  0  0  0 
    1.6296   -2.0516   -0.6059 H   0  0  0  0  0  0  0  0  0  0  0  0 
  1 18  1  0  0  0  0 
  1 17  1  0  0  0  0 
  2 20  1  0  0  0  0 
  3 22  1  0  0  0  0 
  3 23  1  0  0  0  0 
  4 26  1  0  0  0  0 
  4 15  1  0  0  0  0 
  5  6  1  0  0  0  0 
  5 27  1  0  0  0  0 
  6 11  2  0  0  0  0 
  7 12  1  0  0  0  0 
  7  5  1  0  0  0  0 
  8 33  1  0  0  0  0 
  9  8  1  0  0  0  0 
  9 35  1  0  0  0  0 
  9 34  1  0  0  0  0 
 10 15  1  0  0  0  0 
 10 36  1  0  0  0  0 
 11  1  1  0  0  0  0 
 11  8  1  0  0  0  0 
 12 13  1  0  0  0  0 
 12  2  2  0  0  0  0 
 13 38  1  6  0  0  0 
 13 10  1  0  0  0  0 
 13 14  1  0  0  0  0 
 14 39  1  6  0  0  0 
 14  9  1  0  0  0  0 
 15 14  1  0  0  0  0 
 15  3  1  0  0  0  0 
 16  1  1  0  0  0  0 
 19  2  1  0  0  0  0 
 21  3  1  0  0  0  0 
 24  4  1  0  0  0  0 
 25  4  1  0  0  0  0 
 28  5  1  0  0  0  0 
 29  6  1  0  0  0  0 
 30  7  1  0  0  0  0 
 31  7  1  0  0  0  0 
 32  8  1  0  0  0  0 
 37 10  1  0  0  0  0 
M  END 
>  <HBA> 
0 
 
>  <HBD> 
0 
 
>  <TPSA> 
0.0 
 
>  <cid> 
26318 
 
>  <dipole> 
0.38 
 
>  <excitation_energy_1> 
5.371 
 
>  <excitation_energy_2> 
5.674 
 
>  <excitation_energy_3> 
5.771 
 
>  <excitation_energy_4> 
5.896 
 
>  <homo_energy> 
-6.055 
 
>  <homo_lumo_gap> 
6.512 
 
>  <logP> 
4.725 
 
>  <lumo_energy> 
0.457 
 
>  <melting_point> 
27.33 
 
>  <molecular_refractivity> 
68.78 
 
>  <oscillator_strength_1> 
0.015 
 
>  <oscillator_strength_2> 
0.0077 
 
>  <oscillator_strength_3> 
0.0361 
 
>  <oscillator_strength_4> 
0.0087 
 
>  <open_babel_can_smiles> 
C/C/1=C/CCC(=C)[C@@H]2[C@H](CC1)C(C2)(C)C 
 
>  <mulliken_charges> 
39 
1   -0.514719 
2   -0.417274 
3   -0.463572 
4   -0.463099 
5   -0.298041 
6   -0.181289 
7   -0.330931 
8   -0.337613 
9   -0.276109 
10   -0.289278 
11   0.198968 
12   0.235107 
13   -0.171218 
14   -0.097554 
15   0.115573 
16   0.150099 
17   0.149443 
18   0.151305 
19   0.129805 
20   0.134486 
21   0.139574 
22   0.137938 
23   0.14079 
24   0.139107 
25   0.142612 
26   0.139042 
27   0.149239 
28   0.133613 
29   0.111213 
30   0.140449 
31   0.134581 
32   0.151659 
33   0.129579 
34   0.134138 
35   0.133971 
36   0.13278 
37   0.132777 
38   0.127481 
39   0.125368 
 
>  <lowdin_charges> 
39 
1   -0.4427 
2   -0.367091 
3   -0.445821 
4   -0.439301 
5   -0.276058 
6   -0.201322 
7   -0.272946 
8   -0.280815 
9   -0.276202 
10   -0.287011 
11   -0.006684 
12   0.00504 
13   -0.131667 
14   -0.135416 
15   0.011431 
16   0.155334 
17   0.152768 
18   0.151786 
19   0.152264 
20   0.153621 
21   0.147772 
22   0.146373 
23   0.148331 
24   0.145026 
25   0.147377 
26   0.146141 
27   0.150457 
28   0.148565 
29   0.145541 
30   0.150025 
31   0.144582 
32   0.154189 
33   0.143516 
34   0.143648 
35   0.1455 
36   0.145183 
37   0.142063 
38   0.145853 
39   0.14065 
 
$$$$ 
 
