PCCDB-ID:  27906 
public computational chemistry database (PCCDB) project, http://pccdb.org 
 
 26 25  0  0  0  0  0  0  0  0999 V2000 
    3.9147    3.5200    2.8629 C   0  0  0  0  0  0  0  0  0  0  0  0 
    1.8854    2.5982    1.6211 C   0  0  0  0  0  0  0  0  0  0  0  0 
    4.3934   -0.2788   -2.8138 C   0  0  0  0  0  0  0  0  0  0  0  0 
    5.6747   -2.1653   -1.7156 C   0  0  0  0  0  0  0  0  0  0  0  0 
    4.2175    1.7198    1.1865 C   0  0  0  0  0  0  0  0  0  0  0  0 
    4.9685   -0.1674   -0.3419 C   0  0  0  0  0  0  0  0  0  0  0  0 
    3.3768    2.5498    1.8440 C   0  0  0  0  0  0  0  0  0  0  0  0 
    4.6051   -1.0811   -1.5211 C   0  0  0  0  0  0  0  0  0  0  0  0 
    3.8328    0.7253    0.1626 C   0  0  0  0  0  0  0  0  0  0  0  0 
    2.6843    0.5940   -0.2512 O   0  0  0  0  0  0  0  0  0  0  0  0 
    3.6388    4.5494    2.5953 H   0  0  0  0  0  0  0  0  0  0  0  0 
    5.0031    3.4672    2.9584 H   0  0  0  0  0  0  0  0  0  0  0  0 
    3.4689    3.3286    3.8487 H   0  0  0  0  0  0  0  0  0  0  0  0 
    1.3895    3.1593    2.4203 H   0  0  0  0  0  0  0  0  0  0  0  0 
    1.4547    1.5976    1.5474 H   0  0  0  0  0  0  0  0  0  0  0  0 
    1.6562    3.0898    0.6672 H   0  0  0  0  0  0  0  0  0  0  0  0 
    4.1155   -0.9414   -3.6422 H   0  0  0  0  0  0  0  0  0  0  0  0 
    5.3135    0.2463   -3.1049 H   0  0  0  0  0  0  0  0  0  0  0  0 
    3.5973    0.4609   -2.6920 H   0  0  0  0  0  0  0  0  0  0  0  0 
    5.4067   -2.8366   -2.5400 H   0  0  0  0  0  0  0  0  0  0  0  0 
    5.7992   -2.7766   -0.8132 H   0  0  0  0  0  0  0  0  0  0  0  0 
    6.6507   -1.7222   -1.9549 H   0  0  0  0  0  0  0  0  0  0  0  0 
    5.2788    1.7668    1.4264 H   0  0  0  0  0  0  0  0  0  0  0  0 
    5.8311    0.4683   -0.5950 H   0  0  0  0  0  0  0  0  0  0  0  0 
    5.3013   -0.7699    0.5188 H   0  0  0  0  0  0  0  0  0  0  0  0 
    3.6543   -1.5693   -1.2717 H   0  0  0  0  0  0  0  0  0  0  0  0 
  1 12  1  0  0  0  0 
  1 13  1  0  0  0  0 
  2  7  1  0  0  0  0 
  2 14  1  0  0  0  0 
  3 19  1  0  0  0  0 
  3  8  1  0  0  0  0 
  4  8  1  0  0  0  0 
  4 21  1  0  0  0  0 
  5 23  1  0  0  0  0 
  5  7  2  0  0  0  0 
  6  9  1  0  0  0  0 
  6 25  1  0  0  0  0 
  7  1  1  0  0  0  0 
  8 26  1  0  0  0  0 
  8  6  1  0  0  0  0 
  9  5  1  0  0  0  0 
 10  9  2  0  0  0  0 
 11  1  1  0  0  0  0 
 15  2  1  0  0  0  0 
 16  2  1  0  0  0  0 
 17  3  1  0  0  0  0 
 18  3  1  0  0  0  0 
 20  4  1  0  0  0  0 
 22  4  1  0  0  0  0 
 24  6  1  0  0  0  0 
M  END 
>  <HBA> 
1 
 
>  <HBD> 
0 
 
>  <TPSA> 
17.07 
 
>  <cid> 
27906 
 
>  <dipole> 
2.58 
 
>  <excitation_energy_1> 
3.669 
 
>  <excitation_energy_2> 
5.467 
 
>  <excitation_energy_3> 
5.925 
 
>  <excitation_energy_4> 
6.3 
 
>  <homo_energy> 
-6.357 
 
>  <homo_lumo_gap> 
5.197 
 
>  <logP> 
2.568 
 
>  <lumo_energy> 
-1.159 
 
>  <melting_point> 
6.05 
 
>  <molecular_refractivity> 
45.1 
 
>  <oscillator_strength_1> 
0.0001 
 
>  <oscillator_strength_2> 
0.4326 
 
>  <oscillator_strength_3> 
0.0241 
 
>  <oscillator_strength_4> 
0.0017 
 
>  <open_babel_can_smiles> 
CC(CC(=O)C=C(C)C)C 
 
>  <mulliken_charges> 
26 
1   -0.517777 
2   -0.501973 
3   -0.450393 
4   -0.445554 
5   -0.231334 
6   -0.362036 
7   0.200713 
8   -0.05628 
9   0.442733 
10   -0.490664 
11   0.166408 
12   0.158782 
13   0.165774 
14   0.139053 
15   0.193349 
16   0.17857 
17   0.137888 
18   0.12804 
19   0.166068 
20   0.142006 
21   0.136363 
22   0.135061 
23   0.116416 
24   0.147732 
25   0.15613 
26   0.144924 
 
>  <lowdin_charges> 
26 
1   -0.43787 
2   -0.44812 
3   -0.449351 
4   -0.444799 
5   -0.244399 
6   -0.309862 
7   0.065216 
8   -0.117759 
9   0.156404 
10   -0.262288 
11   0.163066 
12   0.155592 
13   0.163446 
14   0.149974 
15   0.181043 
16   0.175793 
17   0.148254 
18   0.139756 
19   0.160616 
20   0.149655 
21   0.145466 
22   0.142894 
23   0.151238 
24   0.15486 
25   0.161932 
26   0.149245 
 
$$$$ 
 
