PCCDB-ID:  62532 
public computational chemistry database (PCCDB) project, http://pccdb.org 
 
 38 37  0  0  0  0  0  0  0  0999 V2000 
    3.3509    3.1824   -0.7805 C   0  0  0  0  0  0  0  0  0  0  0  0 
    4.1957    2.0376   -1.3532 C   0  0  0  0  0  0  0  0  0  0  0  0 
    4.7747    1.0818   -0.2967 C   0  0  0  0  0  0  0  0  0  0  0  0 
    5.6964    1.7449    0.7376 C   0  0  0  0  0  0  0  0  0  0  0  0 
    6.3811    0.7296    1.6644 C   0  0  0  0  0  0  0  0  0  0  0  0 
    7.3137    1.3536    2.7178 C   0  0  0  0  0  0  0  0  0  0  0  0 
    6.5904    2.1295    3.8280 C   0  0  0  0  0  0  0  0  0  0  0  0 
    7.5222    2.7090    4.9072 C   0  0  0  0  0  0  0  0  0  0  0  0 
    8.5304    3.7805    4.4518 C   0  0  0  0  0  0  0  0  0  0  0  0 
    7.9291    5.0727    3.9137 C   0  0  0  0  0  0  0  0  0  0  0  0 
    5.1626    5.9585    2.7271 O   0  0  0  0  0  0  0  0  0  0  0  0 
    7.2029    7.2818    2.0973 O   0  0  0  0  0  0  0  0  0  0  0  0 
    6.2130    5.5019    0.3950 O   0  0  0  0  0  0  0  0  0  0  0  0 
    7.4884    4.8594    2.5429 O   0  0  0  0  0  0  0  0  0  0  0  0 
    6.4969    5.8588    1.7993 P   0  0  0  0  0  0  0  0  0  0  0  0 
    2.8597    3.7466   -1.5817 H   0  0  0  0  0  0  0  0  0  0  0  0 
    3.9721    3.8892   -0.2199 H   0  0  0  0  0  0  0  0  0  0  0  0 
    2.5664    2.8008   -0.1130 H   0  0  0  0  0  0  0  0  0  0  0  0 
    5.0178    2.4640   -1.9445 H   0  0  0  0  0  0  0  0  0  0  0  0 
    3.5850    1.4524   -2.0544 H   0  0  0  0  0  0  0  0  0  0  0  0 
    5.3319    0.2844   -0.8094 H   0  0  0  0  0  0  0  0  0  0  0  0 
    3.9467    0.5806    0.2281 H   0  0  0  0  0  0  0  0  0  0  0  0 
    5.1152    2.4570    1.3368 H   0  0  0  0  0  0  0  0  0  0  0  0 
    6.4607    2.3426    0.2218 H   0  0  0  0  0  0  0  0  0  0  0  0 
    6.9656    0.0306    1.0495 H   0  0  0  0  0  0  0  0  0  0  0  0 
    5.6151    0.1212    2.1692 H   0  0  0  0  0  0  0  0  0  0  0  0 
    8.0255    2.0160    2.2077 H   0  0  0  0  0  0  0  0  0  0  0  0 
    7.9102    0.5548    3.1828 H   0  0  0  0  0  0  0  0  0  0  0  0 
    5.8736    1.4566    4.3212 H   0  0  0  0  0  0  0  0  0  0  0  0 
    5.9938    2.9389    3.3924 H   0  0  0  0  0  0  0  0  0  0  0  0 
    8.0884    1.8872    5.3680 H   0  0  0  0  0  0  0  0  0  0  0  0 
    6.9062    3.1366    5.7117 H   0  0  0  0  0  0  0  0  0  0  0  0 
    9.2193    3.3815    3.6983 H   0  0  0  0  0  0  0  0  0  0  0  0 
    9.1481    4.0580    5.3170 H   0  0  0  0  0  0  0  0  0  0  0  0 
    8.6756    5.8726    3.8939 H   0  0  0  0  0  0  0  0  0  0  0  0 
    7.0773    5.4017    4.5200 H   0  0  0  0  0  0  0  0  0  0  0  0 
    4.4516    5.4398    2.3145 H   0  0  0  0  0  0  0  0  0  0  0  0 
    6.7411    8.0080    1.6470 H   0  0  0  0  0  0  0  0  0  0  0  0 
  1 17  1  0  0  0  0 
  1 18  1  0  0  0  0 
  2  1  1  0  0  0  0 
  2  3  1  0  0  0  0 
  3 22  1  0  0  0  0 
  3  4  1  0  0  0  0 
  4 23  1  0  0  0  0 
  4  5  1  0  0  0  0 
  5 26  1  0  0  0  0 
  5  6  1  0  0  0  0 
  6 28  1  0  0  0  0 
  6  7  1  0  0  0  0 
  7 29  1  0  0  0  0 
  7  8  1  0  0  0  0 
  8 31  1  0  0  0  0 
  8 32  1  0  0  0  0 
  9  8  1  0  0  0  0 
  9 34  1  0  0  0  0 
 10  9  1  0  0  0  0 
 10 36  1  0  0  0  0 
 13 15  2  0  0  0  0 
 14 10  1  0  0  0  0 
 15 12  1  0  0  0  0 
 15 14  1  0  0  0  0 
 15 11  1  0  0  0  0 
 16  1  1  0  0  0  0 
 19  2  1  0  0  0  0 
 20  2  1  0  0  0  0 
 21  3  1  0  0  0  0 
 24  4  1  0  0  0  0 
 25  5  1  0  0  0  0 
 27  6  1  0  0  0  0 
 30  7  1  0  0  0  0 
 33  9  1  0  0  0  0 
 35 10  1  0  0  0  0 
 37 11  1  0  0  0  0 
 38 12  1  0  0  0  0 
M  END 
>  <HBA> 
4 
 
>  <HBD> 
2 
 
>  <TPSA> 
76.57 
 
>  <cid> 
62532 
 
>  <dipole> 
3.02 
 
>  <excitation_energy_1> 
6.748 
 
>  <excitation_energy_2> 
6.907 
 
>  <excitation_energy_3> 
6.93 
 
>  <excitation_energy_4> 
7.033 
 
>  <homo_energy> 
-7.927 
 
>  <homo_lumo_gap> 
8.525 
 
>  <logP> 
3.236 
 
>  <lumo_energy> 
0.599 
 
>  <melting_point> 
50.51 
 
>  <molecular_refractivity> 
62.26 
 
>  <oscillator_strength_1> 
0.0193 
 
>  <oscillator_strength_2> 
0.0031 
 
>  <oscillator_strength_3> 
0.0175 
 
>  <oscillator_strength_4> 
0.0024 
 
>  <open_babel_can_smiles> 
CCCCCCCCCCOP(=O)(O)O 
 
>  <mulliken_charges> 
38 
1   -0.456668 
2   -0.244393 
3   -0.252205 
4   -0.250537 
5   -0.257398 
6   -0.25739 
7   -0.249983 
8   -0.26424 
9   -0.280356 
10   -0.04833 
11   -0.670756 
12   -0.652083 
13   -0.541484 
14   -0.514024 
15   1.184146 
16   0.13871 
17   0.164002 
18   0.127219 
19   0.138749 
20   0.124034 
21   0.123803 
22   0.119588 
23   0.12071 
24   0.15258 
25   0.125601 
26   0.120413 
27   0.145573 
28   0.119699 
29   0.124303 
30   0.137004 
31   0.133494 
32   0.127361 
33   0.162388 
34   0.140118 
35   0.166352 
36   0.162076 
37   0.440217 
38   0.44171 
 
>  <lowdin_charges> 
38 
1   -0.456073 
2   -0.274219 
3   -0.277862 
4   -0.279899 
5   -0.276925 
6   -0.281271 
7   -0.282271 
8   -0.277781 
9   -0.286268 
10   -0.117827 
11   -0.581959 
12   -0.566448 
13   -0.579401 
14   -0.384911 
15   1.108677 
16   0.149649 
17   0.155298 
18   0.13951 
19   0.14445 
20   0.139486 
21   0.139015 
22   0.134273 
23   0.13536 
24   0.15109 
25   0.14088 
26   0.13529 
27   0.146817 
28   0.137641 
29   0.139801 
30   0.142175 
31   0.14437 
32   0.140828 
33   0.158379 
34   0.153831 
35   0.157474 
36   0.154704 
37   0.386251 
38   0.387867 
 
$$$$ 
 
