PCCDB-ID:  8102 
public computational chemistry database (PCCDB) project, http://pccdb.org 
 
 22 21  0  0  0  0  0  0  0  0999 V2000 
    0.9879    0.1353    0.0387 C   0  0  0  0  0  0  0  0  0  0  0  0 
    2.5190    0.0784    0.0487 C   0  0  0  0  0  0  0  0  0  0  0  0 
    3.0709   -1.2586    0.5602 C   0  0  0  0  0  0  0  0  0  0  0  0 
    4.6035   -1.3261    0.5712 C   0  0  0  0  0  0  0  0  0  0  0  0 
    5.1509   -2.6648    1.0809 C   0  0  0  0  0  0  0  0  0  0  0  0 
    6.6797   -2.7285    1.0977 C   0  0  0  0  0  0  0  0  0  0  0  0 
    7.1378   -4.0526    1.5371 N   0  0  0  0  0  0  0  0  0  0  0  0 
    0.6246    1.1022   -0.3279 H   0  0  0  0  0  0  0  0  0  0  0  0 
    0.5795   -0.0139    1.0460 H   0  0  0  0  0  0  0  0  0  0  0  0 
    0.5666   -0.6453   -0.6067 H   0  0  0  0  0  0  0  0  0  0  0  0 
    2.9121    0.8943    0.6720 H   0  0  0  0  0  0  0  0  0  0  0  0 
    2.8992    0.2617   -0.9663 H   0  0  0  0  0  0  0  0  0  0  0  0 
    2.6758   -2.0754   -0.0619 H   0  0  0  0  0  0  0  0  0  0  0  0 
    2.6913   -1.4416    1.5766 H   0  0  0  0  0  0  0  0  0  0  0  0 
    4.9974   -0.5077    1.1924 H   0  0  0  0  0  0  0  0  0  0  0  0 
    4.9809   -1.1433   -0.4460 H   0  0  0  0  0  0  0  0  0  0  0  0 
    4.7768   -3.4899    0.4611 H   0  0  0  0  0  0  0  0  0  0  0  0 
    4.7726   -2.8475    2.0988 H   0  0  0  0  0  0  0  0  0  0  0  0 
    7.0686   -1.8931    1.7105 H   0  0  0  0  0  0  0  0  0  0  0  0 
    7.0583   -2.5682    0.0795 H   0  0  0  0  0  0  0  0  0  0  0  0 
    6.8729   -4.1950    2.5116 H   0  0  0  0  0  0  0  0  0  0  0  0 
    8.1560   -4.0893    1.5175 H   0  0  0  0  0  0  0  0  0  0  0  0 
  1  2  1  0  0  0  0 
  1  9  1  0  0  0  0 
  2  3  1  0  0  0  0 
  2 11  1  0  0  0  0 
  3  4  1  0  0  0  0 
  3 14  1  0  0  0  0 
  4  5  1  0  0  0  0 
  4 15  1  0  0  0  0 
  5  6  1  0  0  0  0 
  5 18  1  0  0  0  0 
  6  7  1  0  0  0  0 
  6 19  1  0  0  0  0 
  7 21  1  0  0  0  0 
  8  1  1  0  0  0  0 
 10  1  1  0  0  0  0 
 12  2  1  0  0  0  0 
 13  3  1  0  0  0  0 
 16  4  1  0  0  0  0 
 17  5  1  0  0  0  0 
 20  6  1  0  0  0  0 
 22  7  1  0  0  0  0 
M  END 
>  <HBA> 
1 
 
>  <HBD> 
1 
 
>  <TPSA> 
26.02 
 
>  <cid> 
8102 
 
>  <dipole> 
1.36 
 
>  <excitation_energy_1> 
5.567 
 
>  <excitation_energy_2> 
6.38 
 
>  <excitation_energy_3> 
6.645 
 
>  <excitation_energy_4> 
6.746 
 
>  <homo_energy> 
-6.21 
 
>  <homo_lumo_gap> 
8.528 
 
>  <logP> 
2.226 
 
>  <lumo_energy> 
2.318 
 
>  <melting_point> 
27.69 
 
>  <molecular_refractivity> 
33.66 
 
>  <oscillator_strength_1> 
0.0132 
 
>  <oscillator_strength_2> 
0.0126 
 
>  <oscillator_strength_3> 
0.0119 
 
>  <oscillator_strength_4> 
0.0246 
 
>  <open_babel_can_smiles> 
CCCCCCN 
 
>  <mulliken_charges> 
22 
1   -0.441336 
2   -0.2467 
3   -0.244613 
4   -0.255775 
5   -0.247068 
6   -0.13308 
7   -0.715929 
8   0.140936 
9   0.140706 
10   0.141575 
11   0.128927 
12   0.129888 
13   0.128548 
14   0.125669 
15   0.125392 
16   0.127919 
17   0.146248 
18   0.120352 
19   0.108367 
20   0.136539 
21   0.289871 
22   0.293564 
 
>  <lowdin_charges> 
22 
1   -0.44501 
2   -0.272301 
3   -0.273896 
4   -0.274715 
5   -0.278364 
6   -0.204682 
7   -0.55495 
8   0.148735 
9   0.145326 
10   0.147411 
11   0.139034 
12   0.13786 
13   0.139307 
14   0.13609 
15   0.137413 
16   0.137199 
17   0.149028 
18   0.133513 
19   0.115078 
20   0.138982 
21   0.248149 
22   0.250792 
 
$$$$ 
 
