PCCDB-ID:  28210 
public computational chemistry database (PCCDB) project, http://pccdb.org 
 
 30 31  0  0  0  0  0  0  0  0999 V2000 
   -1.9016    0.3330    1.0859 C   0  0  0  0  0  0  0  0  0  0  0  0 
   -1.1193    1.4786    1.2430 C   0  0  0  0  0  0  0  0  0  0  0  0 
   -1.3315   -0.8164    0.5355 C   0  0  0  0  0  0  0  0  0  0  0  0 
    0.2195    1.4740    0.8544 C   0  0  0  0  0  0  0  0  0  0  0  0 
    0.0069   -0.8191    0.1452 C   0  0  0  0  0  0  0  0  0  0  0  0 
    4.1583    1.4481   -1.0995 C   0  0  0  0  0  0  0  0  0  0  0  0 
    4.3785   -0.8124   -0.3303 C   0  0  0  0  0  0  0  0  0  0  0  0 
    2.8214    1.4533   -0.7089 C   0  0  0  0  0  0  0  0  0  0  0  0 
    3.0423   -0.8116    0.0636 C   0  0  0  0  0  0  0  0  0  0  0  0 
    6.4264    0.3320   -1.3049 C   0  0  0  0  0  0  0  0  0  0  0  0 
    7.3357    0.8340   -0.1698 C   0  0  0  0  0  0  0  0  0  0  0  0 
    4.9646    0.3164   -0.9180 C   0  0  0  0  0  0  0  0  0  0  0  0 
    0.8079    0.3256    0.2976 C   0  0  0  0  0  0  0  0  0  0  0  0 
    2.2339    0.3227   -0.1171 C   0  0  0  0  0  0  0  0  0  0  0  0 
    8.7297    0.8911   -0.6222 N   0  0  0  0  0  0  0  0  0  0  0  0 
   -2.9452    0.3361    1.3889 H   0  0  0  0  0  0  0  0  0  0  0  0 
   -1.5497    2.3768    1.6783 H   0  0  0  0  0  0  0  0  0  0  0  0 
   -1.9328   -1.7117    0.4004 H   0  0  0  0  0  0  0  0  0  0  0  0 
    0.8255    2.3629    1.0070 H   0  0  0  0  0  0  0  0  0  0  0  0 
    0.4315   -1.7107   -0.3079 H   0  0  0  0  0  0  0  0  0  0  0  0 
    4.5811    2.3349   -1.5672 H   0  0  0  0  0  0  0  0  0  0  0  0 
    4.9795   -1.7062   -0.1747 H   0  0  0  0  0  0  0  0  0  0  0  0 
    2.2152    2.3361   -0.8930 H   0  0  0  0  0  0  0  0  0  0  0  0 
    2.6252   -1.6957    0.5379 H   0  0  0  0  0  0  0  0  0  0  0  0 
    6.7448   -0.6798   -1.5928 H   0  0  0  0  0  0  0  0  0  0  0  0 
    6.5889    0.9745   -2.1778 H   0  0  0  0  0  0  0  0  0  0  0  0 
    7.1715    0.2043    0.7236 H   0  0  0  0  0  0  0  0  0  0  0  0 
    7.0303    1.8507    0.1062 H   0  0  0  0  0  0  0  0  0  0  0  0 
    9.0808   -0.0552   -0.7678 H   0  0  0  0  0  0  0  0  0  0  0  0 
    9.3125    1.2957    0.1090 H   0  0  0  0  0  0  0  0  0  0  0  0 
  1  2  1  0  0  0  0 
  1 16  1  0  0  0  0 
  2 17  1  0  0  0  0 
  3  1  2  0  0  0  0 
  4 19  1  0  0  0  0 
  4  2  2  0  0  0  0 
  5 13  2  0  0  0  0 
  5  3  1  0  0  0  0 
  6 12  2  0  0  0  0 
  6  8  1  0  0  0  0 
  7 22  1  0  0  0  0 
  7  9  2  0  0  0  0 
  8 14  2  0  0  0  0 
  9 24  1  0  0  0  0 
 10 12  1  0  0  0  0 
 10 11  1  0  0  0  0 
 11 28  1  0  0  0  0 
 11 27  1  0  0  0  0 
 12  7  1  0  0  0  0 
 13  4  1  0  0  0  0 
 14  9  1  0  0  0  0 
 14 13  1  0  0  0  0 
 15 11  1  0  0  0  0 
 15 30  1  0  0  0  0 
 18  3  1  0  0  0  0 
 20  5  1  0  0  0  0 
 21  6  1  0  0  0  0 
 23  8  1  0  0  0  0 
 25 10  1  0  0  0  0 
 26 10  1  0  0  0  0 
 29 15  1  0  0  0  0 
M  END 
>  <HBA> 
1 
 
>  <HBD> 
1 
 
>  <TPSA> 
26.02 
 
>  <cid> 
28210 
 
>  <dipole> 
1.38 
 
>  <excitation_energy_1> 
4.755 
 
>  <excitation_energy_2> 
4.832 
 
>  <excitation_energy_3> 
4.927 
 
>  <excitation_energy_4> 
5.238 
 
>  <homo_energy> 
-5.897 
 
>  <homo_lumo_gap> 
5.257 
 
>  <logP> 
3.555 
 
>  <lumo_energy> 
-0.639 
 
>  <melting_point> 
99.01 
 
>  <molecular_refractivity> 
64.36 
 
>  <oscillator_strength_1> 
0.5665 
 
>  <oscillator_strength_2> 
0.0008 
 
>  <oscillator_strength_3> 
0.0002 
 
>  <oscillator_strength_4> 
0.003 
 
>  <open_babel_can_smiles> 
NCCc1ccc(cc1)c1ccccc1 
 
>  <mulliken_charges> 
30 
1   -0.127308 
2   -0.133601 
3   -0.133697 
4   -0.174445 
5   -0.174268 
6   -0.188005 
7   -0.187283 
8   -0.174453 
9   -0.174243 
10   -0.341129 
11   -0.130433 
12   0.173378 
13   0.089968 
14   0.087725 
15   -0.714572 
16   0.128466 
17   0.129266 
18   0.129249 
19   0.131202 
20   0.131199 
21   0.126535 
22   0.120722 
23   0.131319 
24   0.130283 
25   0.134136 
26   0.157951 
27   0.118584 
28   0.144349 
29   0.29203 
30   0.297076 
 
>  <lowdin_charges> 
30 
1   -0.157082 
2   -0.155485 
3   -0.155764 
4   -0.163097 
5   -0.162889 
6   -0.165147 
7   -0.167206 
8   -0.161175 
9   -0.161288 
10   -0.276547 
11   -0.201434 
12   -0.000615 
13   2.7e-05 
14   -0.005319 
15   -0.559618 
16   0.156005 
17   0.158025 
18   0.157961 
19   0.159315 
20   0.159332 
21   0.156786 
22   0.154054 
23   0.159479 
24   0.159108 
25   0.143858 
26   0.158095 
27   0.120099 
28   0.143645 
29   0.250113 
30   0.256763 
 
$$$$ 
 
