PCCDB-ID:  20284 
public computational chemistry database (PCCDB) project, http://pccdb.org 
 
 33 33  0  0  0  0  0  0  0  0999 V2000 
    8.4162   -1.9911    7.7143 C   0  0  0  0  0  0  0  0  0  0  0  0 
    8.9780   -0.8382    6.8757 C   0  0  0  0  0  0  0  0  0  0  0  0 
    8.0186   -0.3650    5.7765 C   0  0  0  0  0  0  0  0  0  0  0  0 
   10.5988    3.8937    3.0776 C   0  0  0  0  0  0  0  0  0  0  0  0 
    8.5725    0.7963    4.9376 C   0  0  0  0  0  0  0  0  0  0  0  0 
   10.5436    2.4633    2.5234 C   0  0  0  0  0  0  0  0  0  0  0  0 
    9.5134    4.1083    4.1412 C   0  0  0  0  0  0  0  0  0  0  0  0 
    7.5892    1.2491    3.8473 C   0  0  0  0  0  0  0  0  0  0  0  0 
    9.1540    2.1367    1.9487 C   0  0  0  0  0  0  0  0  0  0  0  0 
    8.1117    3.7981    3.5865 C   0  0  0  0  0  0  0  0  0  0  0  0 
    7.9614    2.4166    2.8990 C   0  0  0  0  0  0  0  0  0  0  0  0 
    9.1240   -2.3051    8.4900 H   0  0  0  0  0  0  0  0  0  0  0  0 
    8.1972   -2.8659    7.0895 H   0  0  0  0  0  0  0  0  0  0  0  0 
    7.4831   -1.7003    8.2127 H   0  0  0  0  0  0  0  0  0  0  0  0 
    9.9285   -1.1479    6.4182 H   0  0  0  0  0  0  0  0  0  0  0  0 
    9.2199    0.0087    7.5338 H   0  0  0  0  0  0  0  0  0  0  0  0 
    7.0653   -0.0607    6.2342 H   0  0  0  0  0  0  0  0  0  0  0  0 
    7.7798   -1.2114    5.1149 H   0  0  0  0  0  0  0  0  0  0  0  0 
   10.4487    4.6090    2.2546 H   0  0  0  0  0  0  0  0  0  0  0  0 
   11.5912    4.1025    3.4976 H   0  0  0  0  0  0  0  0  0  0  0  0 
    9.5232    0.4832    4.4865 H   0  0  0  0  0  0  0  0  0  0  0  0 
    8.8085    1.6331    5.6079 H   0  0  0  0  0  0  0  0  0  0  0  0 
   10.8028    1.7597    3.3246 H   0  0  0  0  0  0  0  0  0  0  0  0 
   11.3006    2.3298    1.7393 H   0  0  0  0  0  0  0  0  0  0  0  0 
    9.5375    5.1438    4.5059 H   0  0  0  0  0  0  0  0  0  0  0  0 
    9.7330    3.4719    5.0077 H   0  0  0  0  0  0  0  0  0  0  0  0 
    6.6409    1.5178    4.3374 H   0  0  0  0  0  0  0  0  0  0  0  0 
    7.3573    0.3776    3.2163 H   0  0  0  0  0  0  0  0  0  0  0  0 
    9.1197    1.0921    1.6103 H   0  0  0  0  0  0  0  0  0  0  0  0 
    9.0164    2.7517    1.0469 H   0  0  0  0  0  0  0  0  0  0  0  0 
    7.8724    4.5716    2.8417 H   0  0  0  0  0  0  0  0  0  0  0  0 
    7.3593    3.8997    4.3805 H   0  0  0  0  0  0  0  0  0  0  0  0 
    7.0780    2.5026    2.2491 H   0  0  0  0  0  0  0  0  0  0  0  0 
  1 14  1  0  0  0  0 
  1 12  1  0  0  0  0 
  2 16  1  0  0  0  0 
  2  1  1  0  0  0  0 
  3 17  1  0  0  0  0 
  3  2  1  0  0  0  0 
  4 20  1  0  0  0  0 
  4  7  1  0  0  0  0 
  5 22  1  0  0  0  0 
  5  3  1  0  0  0  0 
  6  4  1  0  0  0  0 
  6 23  1  0  0  0  0 
  7 25  1  0  0  0  0 
  7 26  1  0  0  0  0 
  8 27  1  0  0  0  0 
  8  5  1  0  0  0  0 
  9  6  1  0  0  0  0 
  9 11  1  0  0  0  0 
 10  7  1  0  0  0  0 
 10 32  1  0  0  0  0 
 11 10  1  0  0  0  0 
 11  8  1  0  0  0  0 
 13  1  1  0  0  0  0 
 15  2  1  0  0  0  0 
 18  3  1  0  0  0  0 
 19  4  1  0  0  0  0 
 21  5  1  0  0  0  0 
 24  6  1  0  0  0  0 
 28  8  1  0  0  0  0 
 29  9  1  0  0  0  0 
 30  9  1  0  0  0  0 
 31 10  1  0  0  0  0 
 33 11  1  0  0  0  0 
M  END 
>  <HBA> 
0 
 
>  <HBD> 
0 
 
>  <TPSA> 
0.0 
 
>  <cid> 
20284 
 
>  <dipole> 
0.05 
 
>  <excitation_energy_1> 
7.145 
 
>  <excitation_energy_2> 
7.163 
 
>  <excitation_energy_3> 
7.274 
 
>  <excitation_energy_4> 
7.494 
 
>  <homo_energy> 
-7.728 
 
>  <homo_lumo_gap> 
9.81 
 
>  <logP> 
4.147 
 
>  <lumo_energy> 
2.082 
 
>  <melting_point> 
-7.31 
 
>  <molecular_refractivity> 
52.88 
 
>  <oscillator_strength_1> 
0.0025 
 
>  <oscillator_strength_2> 
0.0031 
 
>  <oscillator_strength_3> 
0.0129 
 
>  <oscillator_strength_4> 
0.001 
 
>  <open_babel_can_smiles> 
CCCCCC1CCCCC1 
 
>  <mulliken_charges> 
33 
1   -0.441348 
2   -0.247106 
3   -0.246453 
4   -0.254175 
5   -0.263428 
6   -0.2607 
7   -0.260761 
8   -0.263054 
9   -0.266121 
10   -0.266044 
11   -0.072552 
12   0.140989 
13   0.140939 
14   0.14093 
15   0.129347 
16   0.129284 
17   0.125902 
18   0.125943 
19   0.124056 
20   0.127089 
21   0.134462 
22   0.134543 
23   0.134641 
24   0.12701 
25   0.126975 
26   0.134687 
27   0.123149 
28   0.123173 
29   0.125339 
30   0.125455 
31   0.125439 
32   0.125416 
33   0.116977 
 
>  <lowdin_charges> 
33 
1   -0.445969 
2   -0.27302 
3   -0.2753 
4   -0.277939 
5   -0.282878 
6   -0.282962 
7   -0.280769 
8   -0.277105 
9   -0.279986 
10   -0.28259 
11   -0.130714 
12   0.149714 
13   0.146459 
14   0.146107 
15   0.138237 
16   0.13898 
17   0.136632 
18   0.13748 
19   0.135781 
20   0.141343 
21   0.139588 
22   0.140455 
23   0.139696 
24   0.142488 
25   0.14074 
26   0.139303 
27   0.137245 
28   0.137959 
29   0.13968 
30   0.139167 
31   0.139836 
32   0.141541 
33   0.140801 
 
$$$$ 
 
