PCCDB-ID:  7907 
public computational chemistry database (PCCDB) project, http://pccdb.org 
 
 23 22  0  0  0  0  0  0  0  0999 V2000 
    1.8317   -0.8595   -0.5046 C   0  0  0  0  0  0  0  0  0  0  0  0 
    3.5432    0.2925   -1.9588 C   0  0  0  0  0  0  0  0  0  0  0  0 
    5.2759    1.9335    1.8894 C   0  0  0  0  0  0  0  0  0  0  0  0 
    6.1066   -0.2028    0.8327 C   0  0  0  0  0  0  0  0  0  0  0  0 
    3.6559    0.4978    0.5910 C   0  0  0  0  0  0  0  0  0  0  0  0 
    3.2943   -0.4002   -0.6102 C   0  0  0  0  0  0  0  0  0  0  0  0 
    5.1206    0.9687    0.7036 C   0  0  0  0  0  0  0  0  0  0  0  0 
    1.5664   -1.5332   -1.3283 H   0  0  0  0  0  0  0  0  0  0  0  0 
    1.1469   -0.0022   -0.5433 H   0  0  0  0  0  0  0  0  0  0  0  0 
    1.6462   -1.3905    0.4369 H   0  0  0  0  0  0  0  0  0  0  0  0 
    3.2493   -0.3568   -2.7923 H   0  0  0  0  0  0  0  0  0  0  0  0 
    4.5975    0.5539   -2.1004 H   0  0  0  0  0  0  0  0  0  0  0  0 
    2.9572    1.2182   -2.0380 H   0  0  0  0  0  0  0  0  0  0  0  0 
    6.3029    2.3111    1.9626 H   0  0  0  0  0  0  0  0  0  0  0  0 
    5.0381    1.4328    2.8371 H   0  0  0  0  0  0  0  0  0  0  0  0 
    4.6066    2.7972    1.7936 H   0  0  0  0  0  0  0  0  0  0  0  0 
    7.1355    0.1610    0.9403 H   0  0  0  0  0  0  0  0  0  0  0  0 
    6.0801   -0.8625   -0.0413 H   0  0  0  0  0  0  0  0  0  0  0  0 
    5.8765   -0.8118    1.7174 H   0  0  0  0  0  0  0  0  0  0  0  0 
    3.3955   -0.0370    1.5177 H   0  0  0  0  0  0  0  0  0  0  0  0 
    3.0052    1.3856    0.5641 H   0  0  0  0  0  0  0  0  0  0  0  0 
    3.9241   -1.3007   -0.5717 H   0  0  0  0  0  0  0  0  0  0  0  0 
    5.3767    1.5268   -0.2085 H   0  0  0  0  0  0  0  0  0  0  0  0 
  1 10  1  0  0  0  0 
  2  6  1  0  0  0  0 
  3 14  1  0  0  0  0 
  3 15  1  0  0  0  0 
  4 17  1  0  0  0  0 
  4 19  1  0  0  0  0 
  5  7  1  0  0  0  0 
  5 20  1  0  0  0  0 
  6 22  1  0  0  0  0 
  6  1  1  0  0  0  0 
  6  5  1  0  0  0  0 
  7  4  1  0  0  0  0 
  7  3  1  0  0  0  0 
  8  1  1  0  0  0  0 
  9  1  1  0  0  0  0 
 11  2  1  0  0  0  0 
 12  2  1  0  0  0  0 
 13  2  1  0  0  0  0 
 16  3  1  0  0  0  0 
 18  4  1  0  0  0  0 
 21  5  1  0  0  0  0 
 23  7  1  0  0  0  0 
M  END 
>  <HBA> 
0 
 
>  <HBD> 
0 
 
>  <TPSA> 
0.0 
 
>  <cid> 
7907 
 
>  <dipole> 
0.09 
 
>  <excitation_energy_1> 
7.704 
 
>  <excitation_energy_2> 
7.864 
 
>  <excitation_energy_3> 
8.035 
 
>  <excitation_energy_4> 
8.105 
 
>  <homo_energy> 
-8.147 
 
>  <homo_lumo_gap> 
10.338 
 
>  <logP> 
2.688 
 
>  <lumo_energy> 
2.191 
 
>  <melting_point> 
-27.23 
 
>  <molecular_refractivity> 
35.76 
 
>  <oscillator_strength_1> 
0.0526 
 
>  <oscillator_strength_2> 
0.0313 
 
>  <oscillator_strength_3> 
0.0261 
 
>  <oscillator_strength_4> 
0.0003 
 
>  <open_babel_can_smiles> 
CC(CC(C)C)C 
 
>  <mulliken_charges> 
23 
1   -0.441724 
2   -0.445752 
3   -0.441631 
4   -0.445679 
5   -0.239841 
6   -0.071296 
7   -0.071547 
8   0.137954 
9   0.13755 
10   0.138706 
11   0.138697 
12   0.144584 
13   0.137236 
14   0.137961 
15   0.137491 
16   0.138673 
17   0.13872 
18   0.144591 
19   0.137225 
20   0.119922 
21   0.119946 
22   0.124103 
23   0.124112 
 
>  <lowdin_charges> 
23 
1   -0.444948 
2   -0.446657 
3   -0.442854 
4   -0.446908 
5   -0.276981 
6   -0.122817 
7   -0.123276 
8   0.147464 
9   0.145045 
10   0.146798 
11   0.148469 
12   0.146731 
13   0.144852 
14   0.145862 
15   0.144476 
16   0.14706 
17   0.146741 
18   0.148426 
19   0.145264 
20   0.137216 
21   0.137388 
22   0.13628 
23   0.136369 
 
$$$$ 
 
