PCCDB-ID:  41692 
public computational chemistry database (PCCDB) project, http://pccdb.org 
 
 29 29  0  0  1  0  0  0  0  0999 V2000 
    2.7118   -1.0330    0.0498 C   0  0  0  0  0  0  0  0  0  0  0  0 
    5.1388   -1.7598    0.1516 C   0  0  0  0  0  0  0  0  0  0  0  0 
    5.9460    5.6093    0.4071 C   0  0  0  0  0  0  0  0  0  0  0  0 
    4.5915    5.2753   -0.1680 C   0  0  0  0  0  0  0  0  0  0  0  0 
    6.8219    4.3585    0.5744 C   0  0  0  0  0  0  0  0  0  0  0  0 
    4.3002    4.1097   -0.7552 C   0  0  0  0  0  0  0  0  0  0  0  0 
    6.7356    3.4612   -0.6673 C   0  0  0  0  0  0  0  0  0  0  0  0 
    4.5459    0.5894   -0.5097 C   0  0  0  0  0  0  0  0  0  0  0  0 
    4.9019    1.7961   -0.0603 C   0  0  0  0  0  0  0  0  0  0  0  0 
    4.1565   -0.5894    0.3483 C   0  0  0  0  0  0  0  0  0  0  0  0 
    5.2894    2.9723   -0.9330 C   0  0  1  0  0  0  0  0  0  0  0  0 
    2.4237   -1.8827    0.6807 H   0  0  0  0  0  0  0  0  0  0  0  0 
    2.6057   -1.3451   -0.9973 H   0  0  0  0  0  0  0  0  0  0  0  0 
    2.0029   -0.2173    0.2291 H   0  0  0  0  0  0  0  0  0  0  0  0 
    4.8625   -2.6144    0.7811 H   0  0  0  0  0  0  0  0  0  0  0  0 
    6.1624   -1.4639    0.4058 H   0  0  0  0  0  0  0  0  0  0  0  0 
    5.1383   -2.1010   -0.8917 H   0  0  0  0  0  0  0  0  0  0  0  0 
    5.8253    6.1219    1.3715 H   0  0  0  0  0  0  0  0  0  0  0  0 
    6.4503    6.3367   -0.2496 H   0  0  0  0  0  0  0  0  0  0  0  0 
    3.8213    6.0429   -0.0957 H   0  0  0  0  0  0  0  0  0  0  0  0 
    6.4850    3.7977    1.4566 H   0  0  0  0  0  0  0  0  0  0  0  0 
    7.8628    4.6458    0.7668 H   0  0  0  0  0  0  0  0  0  0  0  0 
    3.2927    3.9302   -1.1286 H   0  0  0  0  0  0  0  0  0  0  0  0 
    7.4038    2.5974   -0.5702 H   0  0  0  0  0  0  0  0  0  0  0  0 
    7.0756    4.0322   -1.5427 H   0  0  0  0  0  0  0  0  0  0  0  0 
    4.5262    0.4113   -1.5889 H   0  0  0  0  0  0  0  0  0  0  0  0 
    4.9109    1.9787    1.0160 H   0  0  0  0  0  0  0  0  0  0  0  0 
    4.2060   -0.2760    1.4008 H   0  0  0  0  0  0  0  0  0  0  0  0 
    5.2318    2.6324   -1.9776 H   0  0  0  0  0  0  0  0  0  0  0  0 
  1 14  1  0  0  0  0 
  1 10  1  0  0  0  0 
  1 12  1  0  0  0  0 
  2 10  1  0  0  0  0 
  2 16  1  0  0  0  0 
  2 15  1  0  0  0  0 
  3  5  1  0  0  0  0 
  3 18  1  0  0  0  0 
  4 20  1  0  0  0  0 
  4  3  1  0  0  0  0 
  5 22  1  0  0  0  0 
  5 21  1  0  0  0  0 
  6  4  2  0  0  0  0 
  7 24  1  0  0  0  0 
  7  5  1  0  0  0  0 
  8  9  2  0  0  0  0 
  8 10  1  0  0  0  0 
  9 27  1  0  0  0  0 
 10 28  1  0  0  0  0 
 11 29  1  6  0  0  0 
 11  6  1  0  0  0  0 
 11  7  1  0  0  0  0 
 11  9  1  0  0  0  0 
 13  1  1  0  0  0  0 
 17  2  1  0  0  0  0 
 19  3  1  0  0  0  0 
 23  6  1  0  0  0  0 
 25  7  1  0  0  0  0 
 26  8  1  0  0  0  0 
M  END 
>  <HBA> 
0 
 
>  <HBD> 
0 
 
>  <TPSA> 
0.0 
 
>  <cid> 
41692 
 
>  <dipole> 
0.23 
 
>  <excitation_energy_1> 
5.792 
 
>  <excitation_energy_2> 
5.941 
 
>  <excitation_energy_3> 
6.118 
 
>  <excitation_energy_4> 
6.146 
 
>  <homo_energy> 
-6.248 
 
>  <homo_lumo_gap> 
6.629 
 
>  <logP> 
3.555 
 
>  <lumo_energy> 
0.381 
 
>  <melting_point> 
12.28 
 
>  <molecular_refractivity> 
51.93 
 
>  <oscillator_strength_1> 
0.0974 
 
>  <oscillator_strength_2> 
0.2436 
 
>  <oscillator_strength_3> 
0.0245 
 
>  <oscillator_strength_4> 
0.031 
 
>  <open_babel_can_smiles> 
CC(/C=C/[C@@H]1CCCC=C1)C 
 
>  <mulliken_charges> 
29 
1   -0.439883 
2   -0.439281 
3   -0.294994 
4   -0.11151 
5   -0.271038 
6   -0.103497 
7   -0.268011 
8   -0.092674 
9   -0.094162 
10   -0.113634 
11   -0.169273 
12   0.139813 
13   0.138519 
14   0.147905 
15   0.139785 
16   0.146901 
17   0.138653 
18   0.139314 
19   0.143581 
20   0.119318 
21   0.139197 
22   0.13105 
23   0.121536 
24   0.135178 
25   0.133717 
26   0.11017 
27   0.118357 
28   0.125915 
29   0.129048 
 
>  <lowdin_charges> 
29 
1   -0.443196 
2   -0.441278 
3   -0.277737 
4   -0.176742 
5   -0.276239 
6   -0.17303 
7   -0.275952 
8   -0.165836 
9   -0.167076 
10   -0.114996 
11   -0.121799 
12   0.148275 
13   0.144399 
14   0.152388 
15   0.148116 
16   0.150286 
17   0.144575 
18   0.148877 
19   0.149185 
20   0.151195 
21   0.142253 
22   0.143169 
23   0.15078 
24   0.146626 
25   0.143675 
26   0.140715 
27   0.144552 
28   0.138772 
29   0.146042 
 
$$$$ 
 
