PCCDB-ID:  30220 
public computational chemistry database (PCCDB) project, http://pccdb.org 
 
 25 24  0  0  1  0  0  0  0  0999 V2000 
   -0.2404   -5.2629    2.3932 C   0  0  0  0  0  0  0  0  0  0  0  0 
    4.2440   -7.9920    3.2157 C   0  0  0  0  0  0  0  0  0  0  0  0 
    4.6366   -3.6975    2.2315 C   0  0  0  0  0  0  0  0  0  0  0  0 
    0.2339   -4.8974    0.9833 C   0  0  0  0  0  0  0  0  0  0  0  0 
    4.0930   -6.4809    3.1385 C   0  0  0  0  0  0  0  0  0  0  0  0 
    1.6859   -5.2757    0.7155 C   0  0  0  0  0  0  0  0  0  0  0  0 
    3.9020   -4.7721    1.4391 C   0  0  1  0  0  0  0  0  0  0  0  0 
    4.2746   -6.0964    1.7742 O   0  0  0  0  0  0  0  0  0  0  0  0 
    2.5217   -4.5366    1.6058 O   0  0  0  0  0  0  0  0  0  0  0  0 
   -1.2871   -4.9768    2.5447 H   0  0  0  0  0  0  0  0  0  0  0  0 
    0.3651   -4.7539    3.1491 H   0  0  0  0  0  0  0  0  0  0  0  0 
   -0.1601   -6.3433    2.5679 H   0  0  0  0  0  0  0  0  0  0  0  0 
    4.1320   -8.3351    4.2504 H   0  0  0  0  0  0  0  0  0  0  0  0 
    5.2308   -8.2990    2.8535 H   0  0  0  0  0  0  0  0  0  0  0  0 
    3.4861   -8.4880    2.6005 H   0  0  0  0  0  0  0  0  0  0  0  0 
    5.7154   -3.8781    2.1996 H   0  0  0  0  0  0  0  0  0  0  0  0 
    4.3063   -3.6844    3.2744 H   0  0  0  0  0  0  0  0  0  0  0  0 
    4.4280   -2.7141    1.8002 H   0  0  0  0  0  0  0  0  0  0  0  0 
    0.1172   -3.8188    0.8170 H   0  0  0  0  0  0  0  0  0  0  0  0 
   -0.3895   -5.4029    0.2334 H   0  0  0  0  0  0  0  0  0  0  0  0 
    4.8443   -5.9921    3.7766 H   0  0  0  0  0  0  0  0  0  0  0  0 
    3.1010   -6.1691    3.4895 H   0  0  0  0  0  0  0  0  0  0  0  0 
    1.9599   -5.0386   -0.3258 H   0  0  0  0  0  0  0  0  0  0  0  0 
    1.8412   -6.3540    0.8602 H   0  0  0  0  0  0  0  0  0  0  0  0 
    4.1619   -4.7053    0.3720 H   0  0  0  0  0  0  0  0  0  0  0  0 
  1 10  1  0  0  0  0 
  1 12  1  0  0  0  0 
  1 11  1  0  0  0  0 
  2 13  1  0  0  0  0 
  3 17  1  0  0  0  0 
  4  1  1  0  0  0  0 
  5  2  1  0  0  0  0 
  5 22  1  0  0  0  0 
  5 21  1  0  0  0  0 
  6 24  1  0  0  0  0 
  6  4  1  0  0  0  0 
  6  9  1  0  0  0  0 
  7 25  1  6  0  0  0 
  7  9  1  0  0  0  0 
  7  8  1  0  0  0  0 
  7  3  1  0  0  0  0 
  8  5  1  0  0  0  0 
 14  2  1  0  0  0  0 
 15  2  1  0  0  0  0 
 16  3  1  0  0  0  0 
 18  3  1  0  0  0  0 
 19  4  1  0  0  0  0 
 20  4  1  0  0  0  0 
 23  6  1  0  0  0  0 
M  END 
>  <HBA> 
2 
 
>  <HBD> 
0 
 
>  <TPSA> 
18.46 
 
>  <cid> 
30220 
 
>  <dipole> 
0.26 
 
>  <excitation_energy_1> 
6.745 
 
>  <excitation_energy_2> 
6.893 
 
>  <excitation_energy_3> 
7.038 
 
>  <excitation_energy_4> 
7.108 
 
>  <homo_energy> 
-7.012 
 
>  <homo_lumo_gap> 
9.342 
 
>  <logP> 
1.796 
 
>  <lumo_energy> 
2.329 
 
>  <melting_point> 
-45.13 
 
>  <molecular_refractivity> 
37.93 
 
>  <oscillator_strength_1> 
0.0048 
 
>  <oscillator_strength_2> 
0.0108 
 
>  <oscillator_strength_3> 
0.0084 
 
>  <oscillator_strength_4> 
0.0027 
 
>  <open_babel_can_smiles> 
CCCO[C@H](OCC)C 
 
>  <mulliken_charges> 
25 
1   -0.442424 
2   -0.452776 
3   -0.476149 
4   -0.267313 
5   -0.025355 
6   -0.015241 
7   0.366595 
8   -0.483789 
9   -0.483039 
10   0.140997 
11   0.163381 
12   0.137454 
13   0.14105 
14   0.156486 
15   0.154009 
16   0.153883 
17   0.159388 
18   0.156792 
19   0.143992 
20   0.132692 
21   0.125141 
22   0.142391 
23   0.119168 
24   0.13632 
25   0.116347 
 
>  <lowdin_charges> 
25 
1   -0.444812 
2   -0.447332 
3   -0.458281 
4   -0.277845 
5   -0.132248 
6   -0.128028 
7   0.103687 
8   -0.278196 
9   -0.272559 
10   0.147998 
11   0.157619 
12   0.143047 
13   0.151529 
14   0.155447 
15   0.155233 
16   0.157132 
17   0.158295 
18   0.162033 
19   0.145637 
20   0.146836 
21   0.130623 
22   0.137146 
23   0.127389 
24   0.132443 
25   0.127207 
 
$$$$ 
 
