PCCDB-ID:  40827 
public computational chemistry database (PCCDB) project, http://pccdb.org 
 
 24 24  0  0  0  0  0  0  0  0999 V2000 
    1.3769    0.4479   -1.1908 C   0  0  0  0  0  0  0  0  0  0  0  0 
    5.6406    2.3725   -3.5868 C   0  0  0  0  0  0  0  0  0  0  0  0 
    7.6926    0.8655   -0.1997 C   0  0  0  0  0  0  0  0  0  0  0  0 
    7.0594    1.3726   -1.3320 C   0  0  0  0  0  0  0  0  0  0  0  0 
    5.6147   -0.1981    0.4864 C   0  0  0  0  0  0  0  0  0  0  0  0 
    2.7260    0.9786   -0.7819 C   0  0  0  0  0  0  0  0  0  0  0  0 
    6.9681    0.0831    0.6928 C   0  0  0  0  0  0  0  0  0  0  0  0 
    5.7063    1.0959   -1.5710 C   0  0  0  0  0  0  0  0  0  0  0  0 
    4.9938    0.3102   -0.6366 C   0  0  0  0  0  0  0  0  0  0  0  0 
    7.6323   -0.4594    1.8776 N   0  0  0  0  0  0  0  0  0  0  0  0 
    2.9822    2.0939   -0.4117 O   0  0  0  0  0  0  0  0  0  0  0  0 
    8.8234   -0.1891    2.0423 O   0  0  0  0  0  0  0  0  0  0  0  0 
    6.9625   -1.1565    2.6418 O   0  0  0  0  0  0  0  0  0  0  0  0 
    5.0053    1.5109   -2.6466 O   0  0  0  0  0  0  0  0  0  0  0  0 
    3.6705   -0.0238   -0.8878 O   0  0  0  0  0  0  0  0  0  0  0  0 
    0.6194    1.2130   -1.0187 H   0  0  0  0  0  0  0  0  0  0  0  0 
    1.1356   -0.4572   -0.6249 H   0  0  0  0  0  0  0  0  0  0  0  0 
    1.3955    0.1760   -2.2516 H   0  0  0  0  0  0  0  0  0  0  0  0 
    4.8826    2.5969   -4.3380 H   0  0  0  0  0  0  0  0  0  0  0  0 
    6.4948    1.8782   -4.0654 H   0  0  0  0  0  0  0  0  0  0  0  0 
    5.9710    3.3025   -3.1096 H   0  0  0  0  0  0  0  0  0  0  0  0 
    8.7387    1.0664   -0.0057 H   0  0  0  0  0  0  0  0  0  0  0  0 
    7.6261    1.9780   -2.0289 H   0  0  0  0  0  0  0  0  0  0  0  0 
    5.0646   -0.8048    1.1942 H   0  0  0  0  0  0  0  0  0  0  0  0 
  1 16  1  0  0  0  0 
  1  6  1  0  0  0  0 
  1 17  1  0  0  0  0 
  2 21  1  0  0  0  0 
  2 14  1  0  0  0  0 
  3 22  1  0  0  0  0 
  3  7  2  0  0  0  0 
  4  3  1  0  0  0  0 
  5  7  1  0  0  0  0 
  5 24  1  0  0  0  0 
  6 11  2  0  0  0  0 
  7 10  1  0  0  0  0 
  8  4  2  0  0  0  0 
  8  9  1  0  0  0  0 
  9  5  2  0  0  0  0 
 10 12  2  0  0  0  0 
 10 13  2  0  0  0  0 
 14  8  1  0  0  0  0 
 15  6  1  0  0  0  0 
 15  9  1  0  0  0  0 
 18  1  1  0  0  0  0 
 19  2  1  0  0  0  0 
 20  2  1  0  0  0  0 
 23  4  1  0  0  0  0 
M  END 
>  <HBA> 
3 
 
>  <HBD> 
0 
 
>  <TPSA> 
81.35 
 
>  <cid> 
40827 
 
>  <dipole> 
6.27 
 
>  <excitation_energy_1> 
3.772 
 
>  <excitation_energy_2> 
4.013 
 
>  <excitation_energy_3> 
4.316 
 
>  <excitation_energy_4> 
4.369 
 
>  <homo_energy> 
-6.77 
 
>  <homo_lumo_gap> 
4.528 
 
>  <logP> 
2.052 
 
>  <lumo_energy> 
-2.242 
 
>  <melting_point> 
75.05 
 
>  <molecular_refractivity> 
53.26 
 
>  <oscillator_strength_1> 
0.0 
 
>  <oscillator_strength_2> 
0.2257 
 
>  <oscillator_strength_3> 
0.0019 
 
>  <oscillator_strength_4> 
0.068 
 
>  <open_babel_can_smiles> 
COc1ccc(cc1OC(=O)C)N(=O)=O 
 
>  <mulliken_charges> 
24 
1   -0.528507 
2   -0.224243 
3   -0.150559 
4   -0.214558 
5   -0.200131 
6   0.606099 
7   0.272471 
8   0.399282 
9   0.325558 
10   0.372408 
11   -0.440012 
12   -0.402544 
13   -0.398835 
14   -0.50092 
15   -0.525844 
16   0.187654 
17   0.188274 
18   0.190559 
19   0.182779 
20   0.162062 
21   0.169939 
22   0.18465 
23   0.153843 
24   0.190574 
 
>  <lowdin_charges> 
24 
1   -0.461735 
2   -0.276682 
3   -0.127104 
4   -0.202326 
5   -0.143507 
6   0.213869 
7   -0.012583 
8   0.110086 
9   0.082817 
10   0.309921 
11   -0.232385 
12   -0.252356 
13   -0.253824 
14   -0.172485 
15   -0.166294 
16   0.179583 
17   0.181774 
18   0.181935 
19   0.17148 
20   0.152359 
21   0.156292 
22   0.188325 
23   0.1746 
24   0.198239 
 
$$$$ 
 
