PCCDB-ID:  67222 
public computational chemistry database (PCCDB) project, http://pccdb.org 
 
 20 22  0  0  0  0  0  0  0  0999 V2000 
    2.4968   -1.0174    0.0027 C   0  0  0  0  0  0  0  0  0  0  0  0 
   -2.3573   -1.1659   -0.0018 C   0  0  0  0  0  0  0  0  0  0  0  0 
    1.3770   -1.8426    0.0027 C   0  0  0  0  0  0  0  0  0  0  0  0 
   -1.2048   -1.9318    0.0005 C   0  0  0  0  0  0  0  0  0  0  0  0 
    2.4056    0.4017    0.0015 C   0  0  0  0  0  0  0  0  0  0  0  0 
   -2.3555    0.2661   -0.0032 C   0  0  0  0  0  0  0  0  0  0  0  0 
    0.0696   -1.2831    0.0014 C   0  0  0  0  0  0  0  0  0  0  0  0 
    1.1427    0.9640    0.0012 C   0  0  0  0  0  0  0  0  0  0  0  0 
   -1.1389    0.9101   -0.0017 C   0  0  0  0  0  0  0  0  0  0  0  0 
    0.0282    0.1123    0.0008 C   0  0  0  0  0  0  0  0  0  0  0  0 
    0.5039    2.3119   -0.0020 C   0  0  0  0  0  0  0  0  0  0  0  0 
   -0.7969    2.2834   -0.0029 N   0  0  0  0  0  0  0  0  0  0  0  0 
    1.1698    3.4823   -0.0018 O   0  0  0  0  0  0  0  0  0  0  0  0 
    3.4836   -1.4719    0.0036 H   0  0  0  0  0  0  0  0  0  0  0  0 
   -3.3194   -1.6716   -0.0027 H   0  0  0  0  0  0  0  0  0  0  0  0 
    1.5089   -2.9220    0.0038 H   0  0  0  0  0  0  0  0  0  0  0  0 
   -1.2693   -3.0166    0.0015 H   0  0  0  0  0  0  0  0  0  0  0  0 
    3.3194    0.9930    0.0016 H   0  0  0  0  0  0  0  0  0  0  0  0 
   -3.2929    0.8139   -0.0052 H   0  0  0  0  0  0  0  0  0  0  0  0 
    2.1229    3.3042   -0.0084 H   0  0  0  0  0  0  0  0  0  0  0  0 
  1  3  2  0  0  0  0 
  1 14  1  0  0  0  0 
  2  4  1  0  0  0  0 
  3 16  1  0  0  0  0 
  4  7  2  0  0  0  0 
  4 17  1  0  0  0  0 
  5 18  1  0  0  0  0 
  5  1  1  0  0  0  0 
  6  2  2  0  0  0  0 
  6  9  1  0  0  0  0 
  7  3  1  0  0  0  0 
  8  5  2  0  0  0  0 
  9 10  2  0  0  0  0 
 10  8  1  0  0  0  0 
 10  7  1  0  0  0  0 
 11 13  1  0  0  0  0 
 11  8  1  0  0  0  0 
 12 11  2  0  0  0  0 
 12  9  1  0  0  0  0 
 15  2  1  0  0  0  0 
 19  6  1  0  0  0  0 
 20 13  1  0  0  0  0 
M  END 
>  <HBA> 
1 
 
>  <HBD> 
1 
 
>  <TPSA> 
32.86 
 
>  <cid> 
67222 
 
>  <dipole> 
4.06 
 
>  <excitation_energy_1> 
3.106 
 
>  <excitation_energy_2> 
3.953 
 
>  <excitation_energy_3> 
4.113 
 
>  <excitation_energy_4> 
4.3 
 
>  <homo_energy> 
-5.891 
 
>  <homo_lumo_gap> 
3.785 
 
>  <logP> 
2.119 
 
>  <lumo_energy> 
-2.106 
 
>  <melting_point> 
174.94 
 
>  <molecular_refractivity> 
53.26 
 
>  <oscillator_strength_1> 
0.0305 
 
>  <oscillator_strength_2> 
0.0618 
 
>  <oscillator_strength_3> 
0.0003 
 
>  <oscillator_strength_4> 
0.0689 
 
>  <open_babel_can_smiles> 
OC1=Nc2c3c1cccc3ccc2 
 
>  <mulliken_charges> 
20 
1   -0.12384 
2   -0.130743 
3   -0.205551 
4   -0.210169 
5   -0.230072 
6   -0.202246 
7   0.204191 
8   0.091821 
9   0.277054 
10   -0.036848 
11   0.456544 
12   -0.539935 
13   -0.590816 
14   0.137182 
15   0.134154 
16   0.14129 
17   0.132821 
18   0.129213 
19   0.147612 
20   0.418338 
 
>  <lowdin_charges> 
20 
1   -0.158989 
2   -0.148097 
3   -0.130614 
4   -0.161306 
5   -0.143978 
6   -0.151176 
7   0.000771 
8   -0.055401 
9   0.044985 
10   -0.033038 
11   0.130449 
12   -0.199523 
13   -0.327669 
14   0.162349 
15   0.161335 
16   0.161471 
17   0.157936 
18   0.156498 
19   0.169747 
20   0.364253 
 
$$$$ 
 
