PCCDB-ID:  14052 
public computational chemistry database (PCCDB) project, http://pccdb.org 
 
 38 37  0  0  1  0  0  0  0  0999 V2000 
    3.7090    1.7243   -0.7907 C   0  0  0  0  0  0  0  0  0  0  0  0 
    8.0416    2.7813   -1.4605 C   0  0  0  0  0  0  0  0  0  0  0  0 
    3.5797    0.4567    0.0676 C   0  0  0  0  0  0  0  0  0  0  0  0 
    8.2579    3.9498   -0.4959 C   0  0  0  0  0  0  0  0  0  0  0  0 
    5.2839    2.0275    2.3099 C   0  0  0  0  0  0  0  0  0  0  0  0 
    6.5803    1.6673    1.5438 C   0  0  0  0  0  0  0  0  0  0  0  0 
    2.1135    1.6232    1.8520 C   0  0  0  0  0  0  0  0  0  0  0  0 
    7.6471    5.1496    1.6276 C   0  0  0  0  0  0  0  0  0  0  0  0 
    3.2531    0.6268    1.5737 C   0  0  2  0  0  0  0  0  0  0  0  0 
    7.3772    3.9040    0.7675 C   0  0  2  0  0  0  0  0  0  0  0  0 
    4.3466    0.9206    2.5223 N   0  0  0  0  0  0  0  0  0  0  0  0 
    7.6247    2.6918    1.5649 N   0  0  0  0  0  0  0  0  0  0  0  0 
    1.7717    1.6090    3.2229 O   0  0  0  0  0  0  0  0  0  0  0  0 
    6.9296    5.1527    2.8587 O   0  0  0  0  0  0  0  0  0  0  0  0 
    2.7802    2.3048   -0.7977 H   0  0  0  0  0  0  0  0  0  0  0  0 
    4.5111    2.3862   -0.4502 H   0  0  0  0  0  0  0  0  0  0  0  0 
    3.9296    1.4533   -1.8297 H   0  0  0  0  0  0  0  0  0  0  0  0 
    8.6885    2.8759   -2.3402 H   0  0  0  0  0  0  0  0  0  0  0  0 
    7.0043    2.7392   -1.8167 H   0  0  0  0  0  0  0  0  0  0  0  0 
    8.2754    1.8295   -0.9734 H   0  0  0  0  0  0  0  0  0  0  0  0 
    2.7768   -0.1576   -0.3640 H   0  0  0  0  0  0  0  0  0  0  0  0 
    4.4925   -0.1477   -0.0202 H   0  0  0  0  0  0  0  0  0  0  0  0 
    8.0709    4.8980   -1.0208 H   0  0  0  0  0  0  0  0  0  0  0  0 
    9.3084    3.9631   -0.1762 H   0  0  0  0  0  0  0  0  0  0  0  0 
    4.7496    2.8418    1.8084 H   0  0  0  0  0  0  0  0  0  0  0  0 
    5.5825    2.4210    3.2928 H   0  0  0  0  0  0  0  0  0  0  0  0 
    6.3556    1.4130    0.5031 H   0  0  0  0  0  0  0  0  0  0  0  0 
    6.9984    0.7567    1.9985 H   0  0  0  0  0  0  0  0  0  0  0  0 
    1.2231    1.3430    1.2763 H   0  0  0  0  0  0  0  0  0  0  0  0 
    2.4032    2.6377    1.5271 H   0  0  0  0  0  0  0  0  0  0  0  0 
    7.4438    6.0588    1.0426 H   0  0  0  0  0  0  0  0  0  0  0  0 
    8.7050    5.1702    1.9137 H   0  0  0  0  0  0  0  0  0  0  0  0 
    2.8767   -0.3461    1.9158 H   0  0  0  0  0  0  0  0  0  0  0  0 
    6.3197    3.9473    0.4455 H   0  0  0  0  0  0  0  0  0  0  0  0 
    4.8550    0.0715    2.7527 H   0  0  0  0  0  0  0  0  0  0  0  0 
    7.7667    2.9738    2.5332 H   0  0  0  0  0  0  0  0  0  0  0  0 
    2.6333    1.4799    3.6679 H   0  0  0  0  0  0  0  0  0  0  0  0 
    5.9838    5.2168    2.6522 H   0  0  0  0  0  0  0  0  0  0  0  0 
  1 16  1  0  0  0  0 
  1  3  1  0  0  0  0 
  2 20  1  0  0  0  0 
  2  4  1  0  0  0  0 
  3  9  1  0  0  0  0 
  4 24  1  0  0  0  0 
  4 10  1  0  0  0  0 
  5 11  1  0  0  0  0 
  5 26  1  0  0  0  0 
  6 12  1  0  0  0  0 
  6 28  1  0  0  0  0 
  6  5  1  0  0  0  0 
  7 13  1  0  0  0  0 
  8 32  1  0  0  0  0 
  8 14  1  0  0  0  0 
  9  7  1  0  0  0  0 
  9 33  1  1  0  0  0 
  9 11  1  0  0  0  0 
 10 34  1  6  0  0  0 
 10 12  1  0  0  0  0 
 10  8  1  0  0  0  0 
 11 35  1  0  0  0  0 
 12 36  1  0  0  0  0 
 13 37  1  0  0  0  0 
 15  1  1  0  0  0  0 
 17  1  1  0  0  0  0 
 18  2  1  0  0  0  0 
 19  2  1  0  0  0  0 
 21  3  1  0  0  0  0 
 22  3  1  0  0  0  0 
 23  4  1  0  0  0  0 
 25  5  1  0  0  0  0 
 27  6  1  0  0  0  0 
 29  7  1  0  0  0  0 
 30  7  1  0  0  0  0 
 31  8  1  0  0  0  0 
 38 14  1  0  0  0  0 
M  END 
>  <HBA> 
4 
 
>  <HBD> 
4 
 
>  <TPSA> 
64.52 
 
>  <cid> 
14052 
 
>  <dipole> 
2.61 
 
>  <excitation_energy_1> 
4.948 
 
>  <excitation_energy_2> 
5.087 
 
>  <excitation_energy_3> 
5.437 
 
>  <excitation_energy_4> 
5.646 
 
>  <homo_energy> 
-5.693 
 
>  <homo_lumo_gap> 
7.127 
 
>  <logP> 
0.489 
 
>  <lumo_energy> 
1.434 
 
>  <melting_point> 
62.38 
 
>  <molecular_refractivity> 
58.11 
 
>  <oscillator_strength_1> 
0.0038 
 
>  <oscillator_strength_2> 
0.009 
 
>  <oscillator_strength_3> 
0.0061 
 
>  <oscillator_strength_4> 
0.0121 
 
>  <open_babel_can_smiles> 
CC[C@@H](NCCN[C@@H](CO)CC)CO 
 
>  <mulliken_charges> 
38 
1   -0.466115 
2   -0.455139 
3   -0.260602 
4   -0.228936 
5   -0.136672 
6   -0.162003 
7   -0.003686 
8   -0.069994 
9   0.000887 
10   0.027909 
11   -0.597946 
12   -0.56146 
13   -0.63696 
14   -0.615479 
15   0.152776 
16   0.153307 
17   0.148665 
18   0.142767 
19   0.13621 
20   0.163244 
21   0.137739 
22   0.133578 
23   0.120303 
24   0.137038 
25   0.135641 
26   0.142933 
27   0.153899 
28   0.130182 
29   0.133984 
30   0.109769 
31   0.131547 
32   0.154626 
33   0.136856 
34   0.105686 
35   0.302227 
36   0.312203 
37   0.398038 
38   0.392976 
 
>  <lowdin_charges> 
38 
1   -0.454727 
2   -0.447056 
3   -0.292189 
4   -0.274961 
5   -0.230076 
6   -0.223874 
7   -0.143915 
8   -0.148311 
9   -0.0848 
10   -0.079915 
11   -0.366066 
12   -0.359681 
13   -0.478814 
14   -0.463035 
15   0.151645 
16   0.146963 
17   0.15246 
18   0.151064 
19   0.141748 
20   0.156592 
21   0.149169 
22   0.143116 
23   0.136616 
24   0.144059 
25   0.141682 
26   0.14154 
27   0.145911 
28   0.139002 
29   0.143457 
30   0.118757 
31   0.136012 
32   0.14838 
33   0.147229 
34   0.116528 
35   0.258897 
36   0.258201 
37   0.336424 
38   0.341967 
 
$$$$ 
 
