PCCDB-ID:  17902 
public computational chemistry database (PCCDB) project, http://pccdb.org 
 
 20 19  0  0  0  0  0  0  0  0999 V2000 
    1.6231   -0.7011    2.6093 C   0  0  0  0  0  0  0  0  0  0  0  0 
    6.7656    2.0447    0.4731 C   0  0  0  0  0  0  0  0  0  0  0  0 
    2.5447   -1.4356    1.9834 C   0  0  0  0  0  0  0  0  0  0  0  0 
    6.3478    0.8785    0.9667 C   0  0  0  0  0  0  0  0  0  0  0  0 
    3.0497   -1.1988    0.5858 C   0  0  0  0  0  0  0  0  0  0  0  0 
    4.9073    0.4905    1.1591 C   0  0  0  0  0  0  0  0  0  0  0  0 
    4.5571   -0.8586    0.5027 C   0  0  0  0  0  0  0  0  0  0  0  0 
    5.3592   -1.9184    1.0305 O   0  0  0  0  0  0  0  0  0  0  0  0 
    1.2946   -0.9319    3.6193 H   0  0  0  0  0  0  0  0  0  0  0  0 
    1.1524    0.1551    2.1299 H   0  0  0  0  0  0  0  0  0  0  0  0 
    7.8222    2.2699    0.3545 H   0  0  0  0  0  0  0  0  0  0  0  0 
    6.0674    2.8233    0.1707 H   0  0  0  0  0  0  0  0  0  0  0  0 
    2.9715   -2.2947    2.5044 H   0  0  0  0  0  0  0  0  0  0  0  0 
    7.0789    0.1218    1.2493 H   0  0  0  0  0  0  0  0  0  0  0  0 
    2.4745   -0.3939    0.1105 H   0  0  0  0  0  0  0  0  0  0  0  0 
    2.8939   -2.1079   -0.0111 H   0  0  0  0  0  0  0  0  0  0  0  0 
    4.2493    1.2736    0.7607 H   0  0  0  0  0  0  0  0  0  0  0  0 
    4.6761    0.4134    2.2341 H   0  0  0  0  0  0  0  0  0  0  0  0 
    4.8337   -0.8142   -0.5568 H   0  0  0  0  0  0  0  0  0  0  0  0 
    5.2389   -1.9201    1.9939 H   0  0  0  0  0  0  0  0  0  0  0  0 
  1  9  1  0  0  0  0 
  2  4  2  0  0  0  0 
  3 13  1  0  0  0  0 
  3  1  2  0  0  0  0 
  4  6  1  0  0  0  0 
  4 14  1  0  0  0  0 
  5  3  1  0  0  0  0 
  6 18  1  0  0  0  0 
  7  5  1  0  0  0  0 
  7  8  1  0  0  0  0 
  7  6  1  0  0  0  0 
  8 20  1  0  0  0  0 
 10  1  1  0  0  0  0 
 11  2  1  0  0  0  0 
 12  2  1  0  0  0  0 
 15  5  1  0  0  0  0 
 16  5  1  0  0  0  0 
 17  6  1  0  0  0  0 
 19  7  1  0  0  0  0 
M  END 
>  <HBA> 
1 
 
>  <HBD> 
1 
 
>  <TPSA> 
20.23 
 
>  <cid> 
17902 
 
>  <dipole> 
1.46 
 
>  <excitation_energy_1> 
5.891 
 
>  <excitation_energy_2> 
6.27 
 
>  <excitation_energy_3> 
6.39 
 
>  <excitation_energy_4> 
6.5 
 
>  <homo_energy> 
-6.604 
 
>  <homo_lumo_gap> 
6.8 
 
>  <logP> 
1.5 
 
>  <lumo_energy> 
0.196 
 
>  <melting_point> 
-49.81 
 
>  <molecular_refractivity> 
35.98 
 
>  <oscillator_strength_1> 
0.075 
 
>  <oscillator_strength_2> 
0.0115 
 
>  <oscillator_strength_3> 
0.0565 
 
>  <oscillator_strength_4> 
0.0157 
 
>  <open_babel_can_smiles> 
C=CCC(CC=C)O 
 
>  <mulliken_charges> 
20 
1   -0.336053 
2   -0.34513 
3   -0.066419 
4   -0.034502 
5   -0.30641 
6   -0.332024 
7   0.127434 
8   -0.623453 
9   0.141743 
10   0.138788 
11   0.138602 
12   0.131629 
13   0.124649 
14   0.137361 
15   0.136759 
16   0.155667 
17   0.137821 
18   0.142477 
19   0.143764 
20   0.387294 
 
>  <lowdin_charges> 
20 
1   -0.336414 
2   -0.344049 
3   -0.156179 
4   -0.146533 
5   -0.291094 
6   -0.290966 
7   0.003131 
8   -0.460624 
9   0.158444 
10   0.155984 
11   0.156581 
12   0.152596 
13   0.148138 
14   0.157136 
15   0.151279 
16   0.159987 
17   0.152423 
18   0.148086 
19   0.145804 
20   0.33627 
 
$$$$ 
 
