PCCDB-ID:  55018 
public computational chemistry database (PCCDB) project, http://pccdb.org 
 
 27 28  0  0  0  0  0  0  0  0999 V2000 
    0.6406    0.3804   -0.3751 C   0  0  0  0  0  0  0  0  0  0  0  0 
    4.3103   -2.9385    0.4878 C   0  0  0  0  0  0  0  0  0  0  0  0 
    3.0724    1.1000   -0.4557 C   0  0  0  0  0  0  0  0  0  0  0  0 
    4.4295    0.8081   -0.3350 C   0  0  0  0  0  0  0  0  0  0  0  0 
    8.0389   -2.6698    1.0494 C   0  0  0  0  0  0  0  0  0  0  0  0 
    8.5242   -2.3150   -0.3533 C   0  0  0  0  0  0  0  0  0  0  0  0 
    2.5825   -1.1917    0.0280 C   0  0  0  0  0  0  0  0  0  0  0  0 
    2.1206    0.0965   -0.2720 C   0  0  0  0  0  0  0  0  0  0  0  0 
    3.9373   -1.5129    0.1534 C   0  0  0  0  0  0  0  0  0  0  0  0 
    4.8904   -0.4807   -0.0344 C   0  0  0  0  0  0  0  0  0  0  0  0 
    6.3937   -0.6480    0.0517 C   0  0  0  0  0  0  0  0  0  0  0  0 
    7.0592   -1.2588    1.6974 S   0  0  0  0  0  0  0  0  0  0  0  0 
    7.0788   -1.7158   -1.3050 S   0  0  0  0  0  0  0  0  0  0  0  0 
    0.4524    1.3744   -0.7930 H   0  0  0  0  0  0  0  0  0  0  0  0 
    0.1570    0.3386    0.6097 H   0  0  0  0  0  0  0  0  0  0  0  0 
    0.1346   -0.3547   -1.0121 H   0  0  0  0  0  0  0  0  0  0  0  0 
    3.4116   -3.5570    0.5768 H   0  0  0  0  0  0  0  0  0  0  0  0 
    4.8575   -2.9928    1.4352 H   0  0  0  0  0  0  0  0  0  0  0  0 
    4.9525   -3.3775   -0.2826 H   0  0  0  0  0  0  0  0  0  0  0  0 
    2.7575    2.1134   -0.6929 H   0  0  0  0  0  0  0  0  0  0  0  0 
    5.1550    1.6051   -0.4821 H   0  0  0  0  0  0  0  0  0  0  0  0 
    8.8790   -2.8217    1.7356 H   0  0  0  0  0  0  0  0  0  0  0  0 
    7.4294   -3.5777    1.0298 H   0  0  0  0  0  0  0  0  0  0  0  0 
    8.9157   -3.1948   -0.8757 H   0  0  0  0  0  0  0  0  0  0  0  0 
    9.3051   -1.5493   -0.3181 H   0  0  0  0  0  0  0  0  0  0  0  0 
    1.8529   -1.9867    0.1727 H   0  0  0  0  0  0  0  0  0  0  0  0 
    6.8414    0.3398   -0.0663 H   0  0  0  0  0  0  0  0  0  0  0  0 
  1  8  1  0  0  0  0 
  1 15  1  0  0  0  0 
  2 17  1  0  0  0  0 
  2 18  1  0  0  0  0 
  3  4  2  0  0  0  0 
  3  8  1  0  0  0  0 
  4 10  1  0  0  0  0 
  5 12  1  0  0  0  0 
  5 22  1  0  0  0  0 
  6 25  1  0  0  0  0 
  6  5  1  0  0  0  0 
  7  9  1  0  0  0  0 
  7 26  1  0  0  0  0 
  8  7  2  0  0  0  0 
  9  2  1  0  0  0  0 
 10 11  1  0  0  0  0 
 10  9  2  0  0  0  0 
 11 12  1  0  0  0  0 
 13  6  1  0  0  0  0 
 13 11  1  0  0  0  0 
 14  1  1  0  0  0  0 
 16  1  1  0  0  0  0 
 19  2  1  0  0  0  0 
 20  3  1  0  0  0  0 
 21  4  1  0  0  0  0 
 23  5  1  0  0  0  0 
 24  6  1  0  0  0  0 
 27 11  1  0  0  0  0 
M  END 
>  <HBA> 
2 
 
>  <HBD> 
0 
 
>  <TPSA> 
50.6 
 
>  <cid> 
55018 
 
>  <dipole> 
0.82 
 
>  <excitation_energy_1> 
4.589 
 
>  <excitation_energy_2> 
4.756 
 
>  <excitation_energy_3> 
4.838 
 
>  <excitation_energy_4> 
4.998 
 
>  <homo_energy> 
-6.008 
 
>  <homo_lumo_gap> 
5.698 
 
>  <logP> 
3.782 
 
>  <lumo_energy> 
-0.31 
 
>  <melting_point> 
56.02 
 
>  <molecular_refractivity> 
64.02 
 
>  <oscillator_strength_1> 
0.0019 
 
>  <oscillator_strength_2> 
0.0094 
 
>  <oscillator_strength_3> 
0.0028 
 
>  <oscillator_strength_4> 
0.0011 
 
>  <open_babel_can_smiles> 
Cc1ccc(c(c1)C)C1SCCS1 
 
>  <mulliken_charges> 
27 
1   -0.531572 
2   -0.550884 
3   -0.183557 
4   -0.179133 
5   -0.417539 
6   -0.415436 
7   -0.245443 
8   0.193808 
9   0.165118 
10   0.125556 
11   -0.508122 
12   0.114274 
13   0.125553 
14   0.155264 
15   0.165405 
16   0.161149 
17   0.146332 
18   0.182675 
19   0.182436 
20   0.121614 
21   0.128251 
22   0.183236 
23   0.18838 
24   0.182828 
25   0.187725 
26   0.116073 
27   0.206008 
 
>  <lowdin_charges> 
27 
1   -0.442572 
2   -0.454146 
3   -0.173453 
4   -0.15907 
5   -0.376946 
6   -0.377838 
7   -0.176641 
8   0.006937 
9   0.016508 
10   -0.03368 
11   -0.310433 
12   0.08891 
13   0.109851 
14   0.156494 
15   0.161888 
16   0.161648 
17   0.153206 
18   0.169884 
19   0.16918 
20   0.154138 
21   0.156661 
22   0.172955 
23   0.162812 
24   0.174211 
25   0.16462 
26   0.152883 
27   0.171992 
 
$$$$ 
 
