PCCDB-ID:  14272 
public computational chemistry database (PCCDB) project, http://pccdb.org 
 
 15 15  0  0  0  0  0  0  0  0999 V2000 
    1.3149    0.1199    0.9934 C   0  0  0  0  0  0  0  0  0  0  0  0 
    2.3653   -0.0214    0.1752 C   0  0  0  0  0  0  0  0  0  0  0  0 
    4.5895   -2.4346   -1.6680 C   0  0  0  0  0  0  0  0  0  0  0  0 
    4.0191   -1.2442   -1.2258 C   0  0  0  0  0  0  0  0  0  0  0  0 
    4.0981   -3.6354   -1.1579 C   0  0  0  0  0  0  0  0  0  0  0  0 
    2.5715   -2.5504    0.1548 C   0  0  0  0  0  0  0  0  0  0  0  0 
    2.9746   -1.2764   -0.2901 C   0  0  0  0  0  0  0  0  0  0  0  0 
    3.1056   -3.7005   -0.2583 N   0  0  0  0  0  0  0  0  0  0  0  0 
    0.9545    1.1061    1.2691 H   0  0  0  0  0  0  0  0  0  0  0  0 
    0.7754   -0.7234    1.4150 H   0  0  0  0  0  0  0  0  0  0  0  0 
    2.8417    0.8807   -0.2095 H   0  0  0  0  0  0  0  0  0  0  0  0 
    5.3985   -2.4337   -2.3927 H   0  0  0  0  0  0  0  0  0  0  0  0 
    4.3761   -0.2881   -1.6024 H   0  0  0  0  0  0  0  0  0  0  0  0 
    4.5160   -4.5877   -1.4794 H   0  0  0  0  0  0  0  0  0  0  0  0 
    1.7748   -2.6429    0.8906 H   0  0  0  0  0  0  0  0  0  0  0  0 
  1  9  1  0  0  0  0 
  1 10  1  0  0  0  0 
  2  1  2  0  0  0  0 
  3  4  2  0  0  0  0 
  3  5  1  0  0  0  0 
  4  7  1  0  0  0  0 
  5  8  2  0  0  0  0 
  6 15  1  0  0  0  0 
  7  6  2  0  0  0  0 
  7  2  1  0  0  0  0 
  8  6  1  0  0  0  0 
 11  2  1  0  0  0  0 
 12  3  1  0  0  0  0 
 13  4  1  0  0  0  0 
 14  5  1  0  0  0  0 
M  END 
>  <HBA> 
1 
 
>  <HBD> 
0 
 
>  <TPSA> 
12.89 
 
>  <cid> 
14272 
 
>  <dipole> 
2.15 
 
>  <excitation_energy_1> 
4.52 
 
>  <excitation_energy_2> 
4.865 
 
>  <excitation_energy_3> 
4.882 
 
>  <excitation_energy_4> 
4.939 
 
>  <homo_energy> 
-6.378 
 
>  <homo_lumo_gap> 
5.241 
 
>  <logP> 
1.725 
 
>  <lumo_energy> 
-1.137 
 
>  <melting_point> 
11.96 
 
>  <molecular_refractivity> 
34.33 
 
>  <oscillator_strength_1> 
0.0001 
 
>  <oscillator_strength_2> 
0.0067 
 
>  <oscillator_strength_3> 
0.0065 
 
>  <oscillator_strength_4> 
0.3992 
 
>  <open_babel_can_smiles> 
C=Cc1cccnc1 
 
>  <mulliken_charges> 
15 
1   -0.344579 
2   -0.122649 
3   -0.136662 
4   -0.163839 
5   0.036407 
6   -0.010131 
7   0.156904 
8   -0.409596 
9   0.14931 
10   0.149963 
11   0.130984 
12   0.138693 
13   0.141859 
14   0.142996 
15   0.140338 
 
>  <lowdin_charges> 
15 
1   -0.324157 
2   -0.14838 
3   -0.172377 
4   -0.135265 
5   -0.092633 
6   -0.08607 
7   -0.021425 
8   -0.143955 
9   0.165507 
10   0.161532 
11   0.156429 
12   0.165039 
13   0.161449 
14   0.157863 
15   0.15644 
 
$$$$ 
 
