PCCDB-ID:  8946 
public computational chemistry database (PCCDB) project, http://pccdb.org 
 
 28 27  0  0  1  0  0  0  0  0999 V2000 
    0.9846    0.9176   -0.8886 C   0  0  0  0  0  0  0  0  0  0  0  0 
    3.4643    0.5344   -0.9040 C   0  0  0  0  0  0  0  0  0  0  0  0 
    2.2495   -1.9419    3.0031 C   0  0  0  0  0  0  0  0  0  0  0  0 
    1.5237   -2.8969    0.8062 C   0  0  0  0  0  0  0  0  0  0  0  0 
    3.8782   -2.1633    1.1025 C   0  0  0  0  0  0  0  0  0  0  0  0 
    2.1048   -0.0626   -0.4998 C   0  0  0  0  0  0  0  0  0  0  0  0 
    1.9926   -0.3984    1.0219 C   0  0  1  0  0  0  0  0  0  0  0  0 
    2.4233   -1.8366    1.4733 C   0  0  0  0  0  0  0  0  0  0  0  0 
    4.7539   -1.1816    1.6775 O   0  0  0  0  0  0  0  0  0  0  0  0 
    2.6110    0.6150    1.8117 O   0  0  0  0  0  0  0  0  0  0  0  0 
    1.0590    1.2114   -1.9425 H   0  0  0  0  0  0  0  0  0  0  0  0 
    1.0490    1.8259   -0.2776 H   0  0  0  0  0  0  0  0  0  0  0  0 
   -0.0072    0.4766   -0.7324 H   0  0  0  0  0  0  0  0  0  0  0  0 
    3.4974    0.6945   -1.9880 H   0  0  0  0  0  0  0  0  0  0  0  0 
    4.3113   -0.1025   -0.6332 H   0  0  0  0  0  0  0  0  0  0  0  0 
    3.6120    1.5031   -0.4160 H   0  0  0  0  0  0  0  0  0  0  0  0 
    2.4922   -2.9553    3.3462 H   0  0  0  0  0  0  0  0  0  0  0  0 
    1.2120   -1.7296    3.2860 H   0  0  0  0  0  0  0  0  0  0  0  0 
    2.8907   -1.2334    3.5292 H   0  0  0  0  0  0  0  0  0  0  0  0 
    1.7582   -3.8976    1.1890 H   0  0  0  0  0  0  0  0  0  0  0  0 
    1.6369   -2.9260   -0.2828 H   0  0  0  0  0  0  0  0  0  0  0  0 
    0.4684   -2.7001    1.0280 H   0  0  0  0  0  0  0  0  0  0  0  0 
    3.9931   -2.1835    0.0092 H   0  0  0  0  0  0  0  0  0  0  0  0 
    4.1356   -3.1637    1.4838 H   0  0  0  0  0  0  0  0  0  0  0  0 
    1.9523   -0.9862   -1.0744 H   0  0  0  0  0  0  0  0  0  0  0  0 
    0.9270   -0.3329    1.2809 H   0  0  0  0  0  0  0  0  0  0  0  0 
    5.6592   -1.3651    1.3857 H   0  0  0  0  0  0  0  0  0  0  0  0 
    3.5627    0.4072    1.8158 H   0  0  0  0  0  0  0  0  0  0  0  0 
  1 13  1  0  0  0  0 
  1  6  1  0  0  0  0 
  1 12  1  0  0  0  0 
  2 15  1  0  0  0  0 
  2  6  1  0  0  0  0 
  2 16  1  0  0  0  0 
  3 18  1  0  0  0  0 
  3 17  1  0  0  0  0 
  3 19  1  0  0  0  0 
  4 22  1  0  0  0  0 
  4 20  1  0  0  0  0 
  4  8  1  0  0  0  0 
  5  8  1  0  0  0  0 
  5 24  1  0  0  0  0 
  5  9  1  0  0  0  0 
  6  7  1  0  0  0  0 
  7 26  1  1  0  0  0 
  7  8  1  0  0  0  0 
  7 10  1  0  0  0  0 
  8  3  1  0  0  0  0 
 10 28  1  0  0  0  0 
 11  1  1  0  0  0  0 
 14  2  1  0  0  0  0 
 21  4  1  0  0  0  0 
 23  5  1  0  0  0  0 
 25  6  1  0  0  0  0 
 27  9  1  0  0  0  0 
M  END 
>  <HBA> 
2 
 
>  <HBD> 
2 
 
>  <TPSA> 
40.46 
 
>  <cid> 
8946 
 
>  <dipole> 
3.25 
 
>  <excitation_energy_1> 
5.939 
 
>  <excitation_energy_2> 
6.46 
 
>  <excitation_energy_3> 
6.506 
 
>  <excitation_energy_4> 
6.778 
 
>  <homo_energy> 
-6.618 
 
>  <homo_lumo_gap> 
8.038 
 
>  <logP> 
1.022 
 
>  <lumo_energy> 
1.42 
 
>  <melting_point> 
28.03 
 
>  <molecular_refractivity> 
42.63 
 
>  <oscillator_strength_1> 
0.0021 
 
>  <oscillator_strength_2> 
0.0105 
 
>  <oscillator_strength_3> 
0.0003 
 
>  <oscillator_strength_4> 
0.0082 
 
>  <open_babel_can_smiles> 
OCC([C@H](C(C)C)O)(C)C 
 
>  <mulliken_charges> 
28 
1   -0.454889 
2   -0.460458 
3   -0.434195 
4   -0.461499 
5   -0.035812 
6   -0.078886 
7   0.151678 
8   0.027027 
9   -0.636328 
10   -0.657538 
11   0.134443 
12   0.160793 
13   0.135157 
14   0.134642 
15   0.13146 
16   0.157293 
17   0.126217 
18   0.139698 
19   0.169516 
20   0.142158 
21   0.145751 
22   0.149855 
23   0.129059 
24   0.126398 
25   0.115527 
26   0.119329 
27   0.403012 
28   0.420591 
 
>  <lowdin_charges> 
28 
1   -0.442764 
2   -0.452687 
3   -0.441759 
4   -0.440053 
5   -0.136162 
6   -0.140943 
7   -0.001575 
8   -0.015515 
9   -0.469505 
10   -0.469637 
11   0.14347 
12   0.155821 
13   0.143421 
14   0.144453 
15   0.143294 
16   0.154188 
17   0.14077 
18   0.148669 
19   0.164492 
20   0.149072 
21   0.145844 
22   0.152726 
23   0.128931 
24   0.131501 
25   0.134305 
26   0.136076 
27   0.350835 
28   0.342734 
 
$$$$ 
 
