PCCDB-ID:  11373 
public computational chemistry database (PCCDB) project, http://pccdb.org 
 
 19 20  0  0  0  0  0  0  0  0999 V2000 
    2.4371   -0.6540    0.0318 C   0  0  0  0  0  0  0  0  0  0  0  0 
    1.2875   -1.4083    0.0127 C   0  0  0  0  0  0  0  0  0  0  0  0 
   -2.3935    0.6618   -0.0688 C   0  0  0  0  0  0  0  0  0  0  0  0 
   -1.2103    1.3561   -0.0480 C   0  0  0  0  0  0  0  0  0  0  0  0 
    2.3304    0.7593    0.0238 C   0  0  0  0  0  0  0  0  0  0  0  0 
   -1.2072   -1.4516   -0.0313 C   0  0  0  0  0  0  0  0  0  0  0  0 
    0.0262   -0.7572   -0.0155 C   0  0  0  0  0  0  0  0  0  0  0  0 
   -2.4110   -0.7652   -0.0601 C   0  0  0  0  0  0  0  0  0  0  0  0 
    0.0367    0.6752   -0.0207 C   0  0  0  0  0  0  0  0  0  0  0  0 
   -3.6361   -1.4295   -0.1381 N   0  0  0  0  0  0  0  0  0  0  0  0 
    1.1840    1.4110   -0.0009 N   0  0  0  0  0  0  0  0  0  0  0  0 
    3.4172   -1.1219    0.0527 H   0  0  0  0  0  0  0  0  0  0  0  0 
    1.3288   -2.4954    0.0172 H   0  0  0  0  0  0  0  0  0  0  0  0 
   -3.3402    1.1971   -0.1007 H   0  0  0  0  0  0  0  0  0  0  0  0 
   -1.1925    2.4415   -0.0533 H   0  0  0  0  0  0  0  0  0  0  0  0 
    3.2337    1.3686    0.0380 H   0  0  0  0  0  0  0  0  0  0  0  0 
   -1.2009   -2.5401   -0.0272 H   0  0  0  0  0  0  0  0  0  0  0  0 
   -4.4262   -0.9193    0.2367 H   0  0  0  0  0  0  0  0  0  0  0  0 
   -3.6261   -2.3893    0.1837 H   0  0  0  0  0  0  0  0  0  0  0  0 
  1 12  1  0  0  0  0 
  2 13  1  0  0  0  0 
  2  1  2  0  0  0  0 
  3  8  2  0  0  0  0 
  3  4  1  0  0  0  0 
  4  9  2  0  0  0  0 
  5  1  1  0  0  0  0 
  5 16  1  0  0  0  0 
  6 17  1  0  0  0  0 
  6  7  2  0  0  0  0 
  7  2  1  0  0  0  0 
  8  6  1  0  0  0  0 
  9  7  1  0  0  0  0 
  9 11  1  0  0  0  0 
 10  8  1  0  0  0  0 
 10 19  1  0  0  0  0 
 10 18  1  0  0  0  0 
 11  5  2  0  0  0  0 
 14  3  1  0  0  0  0 
 15  4  1  0  0  0  0 
M  END 
>  <HBA> 
2 
 
>  <HBD> 
1 
 
>  <TPSA> 
38.91 
 
>  <cid> 
11373 
 
>  <dipole> 
3.3 
 
>  <excitation_energy_1> 
3.769 
 
>  <excitation_energy_2> 
4.333 
 
>  <excitation_energy_3> 
4.441 
 
>  <excitation_energy_4> 
4.741 
 
>  <homo_energy> 
-5.461 
 
>  <homo_lumo_gap> 
4.329 
 
>  <logP> 
2.398 
 
>  <lumo_energy> 
-1.132 
 
>  <melting_point> 
113.31 
 
>  <molecular_refractivity> 
46.15 
 
>  <oscillator_strength_1> 
0.0689 
 
>  <oscillator_strength_2> 
0.0015 
 
>  <oscillator_strength_3> 
0.0019 
 
>  <oscillator_strength_4> 
0.0051 
 
>  <open_babel_can_smiles> 
Nc1ccc2c(c1)cccn2 
 
>  <mulliken_charges> 
19 
1   -0.152606 
2   -0.155934 
3   -0.172692 
4   -0.145843 
5   0.035609 
6   -0.266112 
7   0.16608 
8   0.321002 
9   0.228914 
10   -0.790336 
11   -0.498615 
12   0.132486 
13   0.133945 
14   0.125166 
15   0.143742 
16   0.134247 
17   0.115811 
18   0.322512 
19   0.322623 
 
>  <lowdin_charges> 
19 
1   -0.179721 
2   -0.135662 
3   -0.182192 
4   -0.138611 
5   -0.099291 
6   -0.214393 
7   -0.00496 
8   0.06132 
9   0.025428 
10   -0.483558 
11   -0.149595 
12   0.161802 
13   0.15684 
14   0.156925 
15   0.16793 
16   0.153785 
17   0.149894 
18   0.27814 
19   0.275917 
 
$$$$ 
 
