PCCDB-ID:  35282 
public computational chemistry database (PCCDB) project, http://pccdb.org 
 
 18 18  0  0  0  0  0  0  0  0999 V2000 
    1.0457   -0.0416   -0.0502 C   0  0  0  0  0  0  0  0  0  0  0  0 
    2.5683   -0.1883    0.1171 C   0  0  0  0  0  0  0  0  0  0  0  0 
    3.0350    0.2339    1.4855 C   0  0  0  0  0  0  0  0  0  0  0  0 
    3.9277   -0.2944    3.5631 C   0  0  0  0  0  0  0  0  0  0  0  0 
    3.2825    1.9372    2.9500 C   0  0  0  0  0  0  0  0  0  0  0  0 
    4.4141   -1.0374    4.4793 N   0  0  0  0  0  0  0  0  0  0  0  0 
    3.5110   -0.6753    2.2921 N   0  0  0  0  0  0  0  0  0  0  0  0 
    2.8907    1.5842    1.7574 N   0  0  0  0  0  0  0  0  0  0  0  0 
    3.7873    1.0884    3.8598 N   0  0  0  0  0  0  0  0  0  0  0  0 
    3.2050    3.2108    3.3498 O   0  0  0  0  0  0  0  0  0  0  0  0 
    0.7460   -0.3176   -1.0667 H   0  0  0  0  0  0  0  0  0  0  0  0 
    0.7317    0.9906    0.1333 H   0  0  0  0  0  0  0  0  0  0  0  0 
    0.5109   -0.6928    0.6499 H   0  0  0  0  0  0  0  0  0  0  0  0 
    3.0741    0.4418   -0.6258 H   0  0  0  0  0  0  0  0  0  0  0  0 
    2.8767   -1.2244   -0.0436 H   0  0  0  0  0  0  0  0  0  0  0  0 
    4.4570   -1.9952    4.1275 H   0  0  0  0  0  0  0  0  0  0  0  0 
    4.0789    1.4084    4.7759 H   0  0  0  0  0  0  0  0  0  0  0  0 
    2.8259    3.7027    2.5980 H   0  0  0  0  0  0  0  0  0  0  0  0 
  1  2  1  0  0  0  0 
  1 12  1  0  0  0  0 
  1 13  1  0  0  0  0 
  2  3  1  0  0  0  0 
  3  8  1  0  0  0  0 
  3  7  2  0  0  0  0 
  4  9  1  0  0  0  0 
  4  6  1  0  0  0  0 
  5 10  1  0  0  0  0 
  5  9  1  0  0  0  0 
  7  4  2  0  0  0  0 
  8  5  2  0  0  0  0 
  9 17  1  0  0  0  0 
 11  1  1  0  0  0  0 
 14  2  1  0  0  0  0 
 15  2  1  0  0  0  0 
 16  6  1  0  0  0  0 
 18 10  1  0  0  0  0 
M  RAD  1   6   2 
M  END 
>  <HBA> 
4 
 
>  <HBD> 
2 
 
>  <TPSA> 
84.66 
 
>  <cid> 
35282 
 
>  <dipole> 
3.32 
 
>  <excitation_energy_1> 
4.44 
 
>  <excitation_energy_2> 
4.854 
 
>  <excitation_energy_3> 
5.383 
 
>  <excitation_energy_4> 
5.45 
 
>  <homo_energy> 
-6.251 
 
>  <homo_lumo_gap> 
5.255 
 
>  <logP> 
-0.109 
 
>  <lumo_energy> 
-0.996 
 
>  <melting_point> 
170.37 
 
>  <molecular_refractivity> 
36.83 
 
>  <oscillator_strength_1> 
0.0407 
 
>  <oscillator_strength_2> 
0.0015 
 
>  <oscillator_strength_3> 
0.0041 
 
>  <oscillator_strength_4> 
0.0006 
 
>  <open_babel_can_smiles> 
CCC1=[N]=C(NC(=N1)O)[NH] 
 
>  <mulliken_charges> 
18 
1   -0.451333 
2   -0.309579 
3   0.434878 
4   0.600927 
5   0.737808 
6   -0.656409 
7   -0.491195 
8   -0.535034 
9   -0.624432 
10   -0.59323 
11   0.151318 
12   0.162679 
13   0.156013 
14   0.157437 
15   0.165934 
16   0.298548 
17   0.362245 
18   0.433426 
 
>  <lowdin_charges> 
18 
1   -0.438579 
2   -0.275873 
3   0.125333 
4   0.118241 
5   0.194133 
6   -0.435459 
7   -0.222041 
8   -0.273153 
9   -0.207083 
10   -0.334185 
11   0.153862 
12   0.156001 
13   0.154996 
14   0.162349 
15   0.162556 
16   0.265537 
17   0.313822 
18   0.379542 
 
$$$$ 
 
