PCCDB-ID:  16678 
public computational chemistry database (PCCDB) project, http://pccdb.org 
 
 28 28  0  0  0  0  0  0  0  0999 V2000 
    0.8806    0.1992    0.1135 C   0  0  0  0  0  0  0  0  0  0  0  0 
    4.8309   -3.3544    1.3498 C   0  0  0  0  0  0  0  0  0  0  0  0 
    4.6027   -3.5716   -1.1672 C   0  0  0  0  0  0  0  0  0  0  0  0 
    6.6430   -2.5579   -0.1615 C   0  0  0  0  0  0  0  0  0  0  0  0 
    4.5497    1.1458   -0.2948 C   0  0  0  0  0  0  0  0  0  0  0  0 
    3.1680    1.2473   -0.1810 C   0  0  0  0  0  0  0  0  0  0  0  0 
    5.1557   -0.1094   -0.2392 C   0  0  0  0  0  0  0  0  0  0  0  0 
    2.3851    0.1030   -0.0105 C   0  0  0  0  0  0  0  0  0  0  0  0 
    4.4238   -1.2930   -0.0698 C   0  0  0  0  0  0  0  0  0  0  0  0 
    3.0223   -1.1506    0.0432 C   0  0  0  0  0  0  0  0  0  0  0  0 
    5.1122   -2.6735   -0.0127 C   0  0  0  0  0  0  0  0  0  0  0  0 
    2.2659   -2.2895    0.2111 O   0  0  0  0  0  0  0  0  0  0  0  0 
    0.5549    1.2412    0.0504 H   0  0  0  0  0  0  0  0  0  0  0  0 
    0.5128   -0.1903    1.0745 H   0  0  0  0  0  0  0  0  0  0  0  0 
    0.3581   -0.3458   -0.6868 H   0  0  0  0  0  0  0  0  0  0  0  0 
    5.3302   -4.3306    1.3898 H   0  0  0  0  0  0  0  0  0  0  0  0 
    3.7628   -3.5094    1.5120 H   0  0  0  0  0  0  0  0  0  0  0  0 
    5.2198   -2.7442    2.1738 H   0  0  0  0  0  0  0  0  0  0  0  0 
    5.1025   -4.5478   -1.1301 H   0  0  0  0  0  0  0  0  0  0  0  0 
    4.8275   -3.1160   -2.1389 H   0  0  0  0  0  0  0  0  0  0  0  0 
    3.5255   -3.7366   -1.1064 H   0  0  0  0  0  0  0  0  0  0  0  0 
    7.0863   -3.5589   -0.1161 H   0  0  0  0  0  0  0  0  0  0  0  0 
    7.0920   -1.9627    0.6419 H   0  0  0  0  0  0  0  0  0  0  0  0 
    6.9320   -2.1139   -1.1210 H   0  0  0  0  0  0  0  0  0  0  0  0 
    5.1571    2.0367   -0.4267 H   0  0  0  0  0  0  0  0  0  0  0  0 
    2.6820    2.2193   -0.2235 H   0  0  0  0  0  0  0  0  0  0  0  0 
    6.2340   -0.1617   -0.3296 H   0  0  0  0  0  0  0  0  0  0  0  0 
    1.3323   -2.0403    0.2760 H   0  0  0  0  0  0  0  0  0  0  0  0 
  1 14  1  0  0  0  0 
  2 16  1  0  0  0  0 
  2 17  1  0  0  0  0 
  2 18  1  0  0  0  0 
  3 19  1  0  0  0  0 
  3 21  1  0  0  0  0 
  3 11  1  0  0  0  0 
  4 22  1  0  0  0  0 
  4 11  1  0  0  0  0 
  4 23  1  0  0  0  0 
  5  7  2  0  0  0  0 
  5  6  1  0  0  0  0 
  6  8  2  0  0  0  0 
  7  9  1  0  0  0  0 
  8 10  1  0  0  0  0 
  8  1  1  0  0  0  0 
  9 11  1  0  0  0  0 
  9 10  2  0  0  0  0 
 10 12  1  0  0  0  0 
 11  2  1  0  0  0  0 
 12 28  1  0  0  0  0 
 13  1  1  0  0  0  0 
 15  1  1  0  0  0  0 
 20  3  1  0  0  0  0 
 24  4  1  0  0  0  0 
 25  5  1  0  0  0  0 
 26  6  1  0  0  0  0 
 27  7  1  0  0  0  0 
M  END 
>  <HBA> 
1 
 
>  <HBD> 
1 
 
>  <TPSA> 
20.23 
 
>  <cid> 
16678 
 
>  <dipole> 
1.71 
 
>  <excitation_energy_1> 
5.033 
 
>  <excitation_energy_2> 
5.065 
 
>  <excitation_energy_3> 
5.638 
 
>  <excitation_energy_4> 
5.689 
 
>  <homo_energy> 
-5.75 
 
>  <homo_lumo_gap> 
5.984 
 
>  <logP> 
2.998 
 
>  <lumo_energy> 
0.234 
 
>  <melting_point> 
57.92 
 
>  <molecular_refractivity> 
52.7 
 
>  <oscillator_strength_1> 
0.042 
 
>  <oscillator_strength_2> 
0.0017 
 
>  <oscillator_strength_3> 
0.0022 
 
>  <oscillator_strength_4> 
0.0084 
 
>  <open_babel_can_smiles> 
Cc1cccc(c1O)C(C)(C)C 
 
>  <mulliken_charges> 
28 
1   -0.586613 
2   -0.449757 
3   -0.450028 
4   -0.456838 
5   -0.12658 
6   -0.1989 
7   -0.213034 
8   0.171594 
9   0.148136 
10   0.202871 
11   0.035743 
12   -0.650068 
13   0.171822 
14   0.161385 
15   0.161712 
16   0.130753 
17   0.168931 
18   0.136852 
19   0.130765 
20   0.136954 
21   0.169056 
22   0.13984 
23   0.142573 
24   0.142647 
25   0.1212 
26   0.118031 
27   0.125726 
28   0.415229 
 
>  <lowdin_charges> 
28 
1   -0.455555 
2   -0.445245 
3   -0.443768 
4   -0.444588 
5   -0.179852 
6   -0.163441 
7   -0.163338 
8   -0.050278 
9   -0.027216 
10   0.087405 
11   0.023175 
12   -0.381528 
13   0.167265 
14   0.154982 
15   0.156243 
16   0.142989 
17   0.159039 
18   0.147119 
19   0.142965 
20   0.145981 
21   0.158864 
22   0.149326 
23   0.148445 
24   0.147358 
25   0.155832 
26   0.152873 
27   0.158717 
28   0.356231 
 
$$$$ 
 
