PCCDB-ID:  29716 
public computational chemistry database (PCCDB) project, http://pccdb.org 
 
 21 21  0  0  1  0  0  0  0  0999 V2000 
    3.0743    0.9912   -1.2194 C   0  0  0  0  0  0  0  0  0  0  0  0 
    4.1073   -4.1890    1.1059 C   0  0  0  0  0  0  0  0  0  0  0  0 
    2.4276    0.1147   -0.1416 C   0  0  0  0  0  0  0  0  0  0  0  0 
    2.4770   -2.1860    1.0652 C   0  0  0  0  0  0  0  0  0  0  0  0 
    3.6238   -2.9161    1.7913 C   0  0  2  0  0  0  0  0  0  0  0  0 
    3.2058   -1.1747    0.1677 C   0  0  2  0  0  0  0  0  0  0  0  0 
    4.5153   -0.9443    0.9295 C   0  0  0  0  0  0  0  0  0  0  0  0 
    5.3062   -0.0425    0.8077 O   0  0  0  0  0  0  0  0  0  0  0  0 
    4.7059   -1.9477    1.8317 O   0  0  0  0  0  0  0  0  0  0  0  0 
    2.4783    1.8939   -1.3931 H   0  0  0  0  0  0  0  0  0  0  0  0 
    3.1470    0.4516   -2.1723 H   0  0  0  0  0  0  0  0  0  0  0  0 
    4.0818    1.2912   -0.9214 H   0  0  0  0  0  0  0  0  0  0  0  0 
    3.3341   -4.9640    1.1588 H   0  0  0  0  0  0  0  0  0  0  0  0 
    5.0099   -4.5666    1.5958 H   0  0  0  0  0  0  0  0  0  0  0  0 
    4.3416   -4.0082    0.0507 H   0  0  0  0  0  0  0  0  0  0  0  0 
    1.4147   -0.1701   -0.4571 H   0  0  0  0  0  0  0  0  0  0  0  0 
    2.3111    0.6894    0.7870 H   0  0  0  0  0  0  0  0  0  0  0  0 
    1.8505   -1.6526    1.7904 H   0  0  0  0  0  0  0  0  0  0  0  0 
    1.8335   -2.8745    0.5095 H   0  0  0  0  0  0  0  0  0  0  0  0 
    3.3777   -3.1288    2.8360 H   0  0  0  0  0  0  0  0  0  0  0  0 
    3.4837   -1.6531   -0.7838 H   0  0  0  0  0  0  0  0  0  0  0  0 
  1 12  1  0  0  0  0 
  1  3  1  0  0  0  0 
  2 13  1  0  0  0  0 
  2 14  1  0  0  0  0 
  2  5  1  0  0  0  0 
  3  6  1  0  0  0  0 
  3 17  1  0  0  0  0 
  4 18  1  0  0  0  0 
  4  5  1  0  0  0  0 
  5  9  1  0  0  0  0 
  5 20  1  1  0  0  0 
  6 21  1  6  0  0  0 
  6  7  1  0  0  0  0 
  6  4  1  0  0  0  0 
  7  9  1  0  0  0  0 
  8  7  2  0  0  0  0 
 10  1  1  0  0  0  0 
 11  1  1  0  0  0  0 
 15  2  1  0  0  0  0 
 16  3  1  0  0  0  0 
 19  4  1  0  0  0  0 
M  END 
>  <HBA> 
2 
 
>  <HBD> 
0 
 
>  <TPSA> 
26.3 
 
>  <cid> 
29716 
 
>  <dipole> 
4.3 
 
>  <excitation_energy_1> 
5.533 
 
>  <excitation_energy_2> 
6.643 
 
>  <excitation_energy_3> 
6.984 
 
>  <excitation_energy_4> 
7.071 
 
>  <homo_energy> 
-7.051 
 
>  <homo_lumo_gap> 
7.407 
 
>  <logP> 
1.348 
 
>  <lumo_energy> 
0.356 
 
>  <melting_point> 
7.79 
 
>  <molecular_refractivity> 
34.93 
 
>  <oscillator_strength_1> 
0.0004 
 
>  <oscillator_strength_2> 
0.0023 
 
>  <oscillator_strength_3> 
0.0074 
 
>  <oscillator_strength_4> 
0.0045 
 
>  <open_babel_can_smiles> 
CC[C@@H]1C[C@H](OC1=O)C 
 
>  <mulliken_charges> 
21 
1   -0.457389 
2   -0.454661 
3   -0.252629 
4   -0.313845 
5   0.126838 
6   -0.201195 
7   0.62395 
8   -0.461278 
9   -0.456697 
10   0.141894 
11   0.135776 
12   0.189394 
13   0.15032 
14   0.170907 
15   0.152984 
16   0.136901 
17   0.144192 
18   0.156121 
19   0.153333 
20   0.150381 
21   0.164704 
 
>  <lowdin_charges> 
21 
1   -0.4507 
2   -0.453695 
3   -0.263274 
4   -0.294907 
5   0.009114 
6   -0.165264 
7   0.191522 
8   -0.241395 
9   -0.190253 
10   0.150837 
11   0.143867 
12   0.169111 
13   0.157826 
14   0.166184 
15   0.153072 
16   0.143178 
17   0.147774 
18   0.15633 
19   0.158443 
20   0.149202 
21   0.163026 
 
$$$$ 
 
