PCCDB-ID:  70639 
public computational chemistry database (PCCDB) project, http://pccdb.org 
 
 18 19  0  0  0  0  0  0  0  0999 V2000 
    0.9544    0.1364    0.0327 C   0  0  0  0  0  0  0  0  0  0  0  0 
    3.8884   -3.1880    0.0044 C   0  0  0  0  0  0  0  0  0  0  0  0 
    4.4943   -1.1487    0.0007 C   0  0  0  0  0  0  0  0  0  0  0  0 
    3.1100   -1.1154    0.0115 C   0  0  0  0  0  0  0  0  0  0  0  0 
    5.1704    0.1029    0.0008 C   0  0  0  0  0  0  0  0  0  0  0  0 
    3.1521    1.2899    0.0123 C   0  0  0  0  0  0  0  0  0  0  0  0 
    4.9643   -2.4498   -0.0026 N   0  0  0  0  0  0  0  0  0  0  0  0 
    2.7178   -2.4282    0.0134 N   0  0  0  0  0  0  0  0  0  0  0  0 
    4.5299    1.2385    0.0061 N   0  0  0  0  0  0  0  0  0  0  0  0 
    2.4100    0.0433    0.0198 N   0  0  0  0  0  0  0  0  0  0  0  0 
    6.5133    0.1336   -0.0049 O   0  0  0  0  0  0  0  0  0  0  0  0 
    2.4953    2.3176    0.0132 O   0  0  0  0  0  0  0  0  0  0  0  0 
    0.5183   -0.8652    0.0661 H   0  0  0  0  0  0  0  0  0  0  0  0 
    0.6044    0.6577   -0.8619 H   0  0  0  0  0  0  0  0  0  0  0  0 
    0.6276    0.7057    0.9060 H   0  0  0  0  0  0  0  0  0  0  0  0 
    3.8531   -4.2686    0.0045 H   0  0  0  0  0  0  0  0  0  0  0  0 
    1.7745   -2.7876    0.0144 H   0  0  0  0  0  0  0  0  0  0  0  0 
    6.8301   -0.7882   -0.0077 H   0  0  0  0  0  0  0  0  0  0  0  0 
  1 13  1  0  0  0  0 
  1 15  1  0  0  0  0 
  2 16  1  0  0  0  0 
  2  8  1  0  0  0  0 
  3  5  1  0  0  0  0 
  3  4  2  0  0  0  0 
  4  8  1  0  0  0  0 
  4 10  1  0  0  0  0 
  5  9  2  0  0  0  0 
  6 12  2  0  0  0  0 
  6 10  1  0  0  0  0 
  7  3  1  0  0  0  0 
  7  2  2  0  0  0  0 
  8 17  1  0  0  0  0 
  9  6  1  0  0  0  0 
 10  1  1  0  0  0  0 
 11  5  1  0  0  0  0 
 14  1  1  0  0  0  0 
 18 11  1  0  0  0  0 
M  END 
>  <HBA> 
4 
 
>  <HBD> 
2 
 
>  <TPSA> 
83.54 
 
>  <cid> 
70639 
 
>  <dipole> 
8.59 
 
>  <excitation_energy_1> 
4.61 
 
>  <excitation_energy_2> 
4.701 
 
>  <excitation_energy_3> 
5.091 
 
>  <excitation_energy_4> 
5.188 
 
>  <homo_energy> 
-5.995 
 
>  <homo_lumo_gap> 
5.167 
 
>  <logP> 
-1.05 
 
>  <lumo_energy> 
-0.827 
 
>  <melting_point> 
231.76 
 
>  <molecular_refractivity> 
42.24 
 
>  <oscillator_strength_1> 
0.1524 
 
>  <oscillator_strength_2> 
0.0001 
 
>  <oscillator_strength_3> 
0.0001 
 
>  <oscillator_strength_4> 
0.0008 
 
>  <open_babel_can_smiles> 
Oc1nc(=O)n(c2c1nc[nH]2)C 
 
>  <mulliken_charges> 
18 
1   -0.314792 
2   0.225013 
3   0.12065 
4   0.650488 
5   0.527738 
6   0.695947 
7   -0.510326 
8   -0.673515 
9   -0.540047 
10   -0.57107 
11   -0.584699 
12   -0.51007 
13   0.131401 
14   0.198907 
15   0.201013 
16   0.175276 
17   0.345692 
18   0.432394 
 
>  <lowdin_charges> 
18 
1   -0.340644 
2   -0.069318 
3   -0.100275 
4   0.085652 
5   0.162557 
6   0.181239 
7   -0.17625 
8   -0.199016 
9   -0.204862 
10   -0.072855 
11   -0.322852 
12   -0.291821 
13   0.14465 
14   0.177492 
15   0.179295 
16   0.175238 
17   0.301198 
18   0.370572 
 
$$$$ 
 
