PCCDB-ID:  29374 
public computational chemistry database (PCCDB) project, http://pccdb.org 
 
 32 33  0  0  0  0  0  0  0  0999 V2000 
    0.4656    0.5009   -0.1384 C   0  0  0  0  0  0  0  0  0  0  0  0 
    2.7699    0.4712   -1.1979 C   0  0  0  0  0  0  0  0  0  0  0  0 
    4.7695    2.1339    3.5850 C   0  0  0  0  0  0  0  0  0  0  0  0 
    3.9906    2.7141    2.5759 C   0  0  0  0  0  0  0  0  0  0  0  0 
    4.7777    0.7481    3.7657 C   0  0  0  0  0  0  0  0  0  0  0  0 
    2.2617    2.1869    0.6321 C   0  0  0  0  0  0  0  0  0  0  0  0 
    3.3578   -4.1297    3.3512 C   0  0  0  0  0  0  0  0  0  0  0  0 
    3.2238    1.8912    1.7585 C   0  0  0  0  0  0  0  0  0  0  0  0 
    4.0086   -0.0724    2.9434 C   0  0  0  0  0  0  0  0  0  0  0  0 
    3.2248    0.5092    1.9500 C   0  0  0  0  0  0  0  0  0  0  0  0 
    4.4099   -2.3381    2.2519 C   0  0  0  0  0  0  0  0  0  0  0  0 
    1.9525    0.7679    0.0603 C   0  0  0  0  0  0  0  0  0  0  0  0 
    4.1933   -3.5810    2.2876 N   0  0  0  0  0  0  0  0  0  0  0  0 
    3.7765   -3.8318    4.6686 O   0  0  0  0  0  0  0  0  0  0  0  0 
    5.1504   -1.7529    1.2890 O   0  0  0  0  0  0  0  0  0  0  0  0 
    3.9620   -1.4473    3.1888 O   0  0  0  0  0  0  0  0  0  0  0  0 
    2.4199   -0.1747    1.0987 O   0  0  0  0  0  0  0  0  0  0  0  0 
    0.0575    1.1720   -0.9026 H   0  0  0  0  0  0  0  0  0  0  0  0 
   -0.0834    0.6629    0.7947 H   0  0  0  0  0  0  0  0  0  0  0  0 
    0.2980   -0.5314   -0.4624 H   0  0  0  0  0  0  0  0  0  0  0  0 
    2.4560    1.1210   -2.0229 H   0  0  0  0  0  0  0  0  0  0  0  0 
    2.6332   -0.5707   -1.5040 H   0  0  0  0  0  0  0  0  0  0  0  0 
    3.8360    0.6380   -1.0106 H   0  0  0  0  0  0  0  0  0  0  0  0 
    5.3766    2.7604    4.2312 H   0  0  0  0  0  0  0  0  0  0  0  0 
    3.9863    3.7921    2.4379 H   0  0  0  0  0  0  0  0  0  0  0  0 
    5.3825    0.2863    4.5399 H   0  0  0  0  0  0  0  0  0  0  0  0 
    2.6864    2.8407   -0.1380 H   0  0  0  0  0  0  0  0  0  0  0  0 
    1.3491    2.6721    1.0034 H   0  0  0  0  0  0  0  0  0  0  0  0 
    3.4004   -5.2178    3.2715 H   0  0  0  0  0  0  0  0  0  0  0  0 
    2.3144   -3.8130    3.1838 H   0  0  0  0  0  0  0  0  0  0  0  0 
    3.6736   -2.8736    4.7831 H   0  0  0  0  0  0  0  0  0  0  0  0 
    5.4006   -2.4796    0.6917 H   0  0  0  0  0  0  0  0  0  0  0  0 
  1 12  1  0  0  0  0 
  1 19  1  0  0  0  0 
  2 23  1  0  0  0  0 
  2 12  1  0  0  0  0 
  3  5  1  0  0  0  0 
  3 24  1  0  0  0  0 
  4  3  2  0  0  0  0 
  5 26  1  0  0  0  0 
  6 28  1  0  0  0  0 
  6  8  1  0  0  0  0 
  7 14  1  0  0  0  0 
  8 10  2  0  0  0  0 
  8  4  1  0  0  0  0 
  9 16  1  0  0  0  0 
  9  5  2  0  0  0  0 
 10  9  1  0  0  0  0 
 11 13  2  0  0  0  0 
 11 16  1  0  0  0  0 
 12  6  1  0  0  0  0 
 12 17  1  0  0  0  0 
 13  7  1  0  0  0  0 
 14 31  1  0  0  0  0 
 15 11  1  0  0  0  0 
 17 10  1  0  0  0  0 
 18  1  1  0  0  0  0 
 20  1  1  0  0  0  0 
 21  2  1  0  0  0  0 
 22  2  1  0  0  0  0 
 25  4  1  0  0  0  0 
 27  6  1  0  0  0  0 
 29  7  1  0  0  0  0 
 30  7  1  0  0  0  0 
 32 15  1  0  0  0  0 
M  END 
>  <HBA> 
5 
 
>  <HBD> 
2 
 
>  <TPSA> 
67.79 
 
>  <cid> 
29374 
 
>  <dipole> 
5.24 
 
>  <excitation_energy_1> 
4.799 
 
>  <excitation_energy_2> 
5.309 
 
>  <excitation_energy_3> 
5.529 
 
>  <excitation_energy_4> 
5.656 
 
>  <homo_energy> 
-5.927 
 
>  <homo_lumo_gap> 
5.66 
 
>  <logP> 
1.829 
 
>  <lumo_energy> 
-0.267 
 
>  <melting_point> 
128.5 
 
>  <molecular_refractivity> 
61.29 
 
>  <oscillator_strength_1> 
0.0769 
 
>  <oscillator_strength_2> 
0.0089 
 
>  <oscillator_strength_3> 
0.0203 
 
>  <oscillator_strength_4> 
0.0026 
 
>  <open_babel_can_smiles> 
OC/N=C(\Oc1cccc2c1OC(C2)(C)C)/O 
 
>  <mulliken_charges> 
32 
1   -0.459427 
2   -0.447191 
3   -0.151442 
4   -0.195727 
5   -0.171162 
6   -0.378783 
7   0.06249 
8   0.101503 
9   0.287581 
10   0.364581 
11   0.734068 
12   0.302178 
13   -0.495066 
14   -0.619784 
15   -0.590616 
16   -0.566333 
17   -0.555903 
18   0.14878 
19   0.158405 
20   0.161554 
21   0.144559 
22   0.159094 
23   0.162165 
24   0.133378 
25   0.130251 
26   0.144424 
27   0.16147 
28   0.163349 
29   0.152754 
30   0.128337 
31   0.404257 
32   0.426255 
 
>  <lowdin_charges> 
32 
1   -0.446111 
2   -0.447421 
3   -0.17155 
4   -0.157731 
5   -0.164112 
6   -0.284298 
7   -0.070332 
8   -0.040822 
9   0.06722 
10   0.079815 
11   0.199373 
12   0.145392 
13   -0.268927 
14   -0.466761 
15   -0.351265 
16   -0.16897 
17   -0.205362 
18   0.157548 
19   0.159285 
20   0.16027 
21   0.154333 
22   0.158766 
23   0.159965 
24   0.162767 
25   0.158087 
26   0.171496 
27   0.16285 
28   0.159972 
29   0.148106 
30   0.12385 
31   0.338891 
32   0.375677 
 
$$$$ 
 
