PCCDB-ID:  23104 
public computational chemistry database (PCCDB) project, http://pccdb.org 
 
 18 17  0  0  0  0  0  0  0  0999 V2000 
    0.5938    0.0358    0.3253 C   0  0  0  0  0  0  0  0  0  0  0  0 
    1.9267   -1.6969   -1.9623 C   0  0  0  0  0  0  0  0  0  0  0  0 
    6.0585   -1.5845   -2.0821 C   0  0  0  0  0  0  0  0  0  0  0  0 
    2.0532   -0.1224    0.0344 C   0  0  0  0  0  0  0  0  0  0  0  0 
    2.6363   -0.8530   -0.9334 C   0  0  0  0  0  0  0  0  0  0  0  0 
    4.1311   -0.8070   -0.9703 C   0  0  0  0  0  0  0  0  0  0  0  0 
    4.8467   -0.1772   -0.2144 O   0  0  0  0  0  0  0  0  0  0  0  0 
    4.6283   -1.5725   -1.9748 O   0  0  0  0  0  0  0  0  0  0  0  0 
    0.3061    1.0942    0.2634 H   0  0  0  0  0  0  0  0  0  0  0  0 
    0.3740   -0.2818    1.3536 H   0  0  0  0  0  0  0  0  0  0  0  0 
   -0.0518   -0.5310   -0.3499 H   0  0  0  0  0  0  0  0  0  0  0  0 
    0.8419   -1.6612   -1.8393 H   0  0  0  0  0  0  0  0  0  0  0  0 
    2.2430   -2.7442   -1.8981 H   0  0  0  0  0  0  0  0  0  0  0  0 
    2.1657   -1.3623   -2.9782 H   0  0  0  0  0  0  0  0  0  0  0  0 
    6.2834   -2.2318   -2.9306 H   0  0  0  0  0  0  0  0  0  0  0  0 
    6.5102   -1.9785   -1.1675 H   0  0  0  0  0  0  0  0  0  0  0  0 
    6.4406   -0.5749   -2.2562 H   0  0  0  0  0  0  0  0  0  0  0  0 
    2.7289    0.4269    0.6879 H   0  0  0  0  0  0  0  0  0  0  0  0 
  1 10  1  0  0  0  0 
  2 13  1  0  0  0  0 
  2 12  1  0  0  0  0 
  2  5  1  0  0  0  0 
  3  8  1  0  0  0  0 
  3 16  1  0  0  0  0 
  4  1  1  0  0  0  0 
  4 18  1  0  0  0  0 
  5  4  2  0  0  0  0 
  6  5  1  0  0  0  0 
  6  7  2  0  0  0  0 
  8  6  1  0  0  0  0 
  9  1  1  0  0  0  0 
 11  1  1  0  0  0  0 
 14  2  1  0  0  0  0 
 15  3  1  0  0  0  0 
 17  3  1  0  0  0  0 
M  END 
>  <HBA> 
2 
 
>  <HBD> 
0 
 
>  <TPSA> 
26.3 
 
>  <cid> 
23104 
 
>  <dipole> 
1.67 
 
>  <excitation_energy_1> 
4.961 
 
>  <excitation_energy_2> 
5.729 
 
>  <excitation_energy_3> 
6.329 
 
>  <excitation_energy_4> 
6.617 
 
>  <homo_energy> 
-6.806 
 
>  <homo_lumo_gap> 
6.044 
 
>  <logP> 
1.126 
 
>  <lumo_energy> 
-0.762 
 
>  <melting_point> 
-0.91 
 
>  <molecular_refractivity> 
31.77 
 
>  <oscillator_strength_1> 
0.0001 
 
>  <oscillator_strength_2> 
0.3412 
 
>  <oscillator_strength_3> 
0.0 
 
>  <oscillator_strength_4> 
0.0797 
 
>  <open_babel_can_smiles> 
COC(=O)/C(=C/C)/C 
 
>  <mulliken_charges> 
18 
1   -0.499105 
2   -0.510037 
3   -0.21517 
4   -0.118179 
5   0.077081 
6   0.589231 
7   -0.498456 
8   -0.466412 
9   0.167376 
10   0.167234 
11   0.160037 
12   0.148182 
13   0.166688 
14   0.166538 
15   0.160652 
16   0.169193 
17   0.169486 
18   0.16566 
 
>  <lowdin_charges> 
18 
1   -0.442059 
2   -0.438467 
3   -0.277442 
4   -0.121309 
5   -0.058759 
6   0.193819 
7   -0.279565 
8   -0.195191 
9   0.16458 
10   0.164875 
11   0.158349 
12   0.152662 
13   0.163135 
14   0.163505 
15   0.158848 
16   0.159291 
17   0.15837 
18   0.175359 
 
$$$$ 
 
