PCCDB-ID:  44656 
public computational chemistry database (PCCDB) project, http://pccdb.org 
 
 28 28  0  0  1  0  0  0  0  0999 V2000 
    1.3268   -0.0918   -0.2099 C   0  0  0  0  0  0  0  0  0  0  0  0 
    4.8148    0.1733    1.6158 C   0  0  0  0  0  0  0  0  0  0  0  0 
    3.8638   -4.4871   -0.3046 C   0  0  0  0  0  0  0  0  0  0  0  0 
    4.4062   -3.5495   -1.1836 C   0  0  0  0  0  0  0  0  0  0  0  0 
    2.9925   -4.0606    0.6998 C   0  0  0  0  0  0  0  0  0  0  0  0 
    4.0788   -2.1981   -1.0562 C   0  0  0  0  0  0  0  0  0  0  0  0 
    2.6667   -2.7096    0.8205 C   0  0  0  0  0  0  0  0  0  0  0  0 
    2.8382   -0.2792    0.0530 C   0  0  1  0  0  0  0  0  0  0  0  0 
    3.3094    0.3388    1.3996 C   0  0  2  0  0  0  0  0  0  0  0  0 
    3.2067   -1.7536   -0.0540 C   0  0  0  0  0  0  0  0  0  0  0  0 
    3.2105    2.3460    2.7032 N   0  0  0  0  0  0  0  0  0  0  0  0 
    2.9791    1.7749    1.4082 N   0  0  0  0  0  0  0  0  0  0  0  0 
    1.0619    0.9593   -0.3718 H   0  0  0  0  0  0  0  0  0  0  0  0 
    0.7223   -0.4731    0.6226 H   0  0  0  0  0  0  0  0  0  0  0  0 
    1.0280   -0.6388   -1.1101 H   0  0  0  0  0  0  0  0  0  0  0  0 
    5.0878   -0.8825    1.6978 H   0  0  0  0  0  0  0  0  0  0  0  0 
    5.1108    0.6899    2.5316 H   0  0  0  0  0  0  0  0  0  0  0  0 
    5.3681    0.6146    0.7782 H   0  0  0  0  0  0  0  0  0  0  0  0 
    4.1173   -5.5396   -0.3996 H   0  0  0  0  0  0  0  0  0  0  0  0 
    5.0847   -3.8677   -1.9710 H   0  0  0  0  0  0  0  0  0  0  0  0 
    2.5639   -4.7817    1.3913 H   0  0  0  0  0  0  0  0  0  0  0  0 
    4.5088   -1.4742   -1.7448 H   0  0  0  0  0  0  0  0  0  0  0  0 
    1.9842   -2.3974    1.6071 H   0  0  0  0  0  0  0  0  0  0  0  0 
    3.3810    0.2578   -0.7362 H   0  0  0  0  0  0  0  0  0  0  0  0 
    2.7799   -0.1868    2.2190 H   0  0  0  0  0  0  0  0  0  0  0  0 
    2.3849    2.2585    3.3021 H   0  0  0  0  0  0  0  0  0  0  0  0 
    3.3862    3.3386    2.5688 H   0  0  0  0  0  0  0  0  0  0  0  0 
    1.9999    1.8899    1.1502 H   0  0  0  0  0  0  0  0  0  0  0  0 
  1  8  1  0  0  0  0 
  1 14  1  0  0  0  0 
  2 16  1  0  0  0  0 
  2 17  1  0  0  0  0 
  3  5  2  0  0  0  0 
  4  6  2  0  0  0  0 
  4  3  1  0  0  0  0 
  5  7  1  0  0  0  0 
  5 21  1  0  0  0  0 
  6 10  1  0  0  0  0 
  7 23  1  0  0  0  0 
  8 24  1  6  0  0  0 
  8  9  1  0  0  0  0 
  9 12  1  0  0  0  0 
  9  2  1  0  0  0  0 
  9 25  1  1  0  0  0 
 10  8  1  0  0  0  0 
 10  7  2  0  0  0  0 
 11 26  1  0  0  0  0 
 12 11  1  0  0  0  0 
 13  1  1  0  0  0  0 
 15  1  1  0  0  0  0 
 18  2  1  0  0  0  0 
 19  3  1  0  0  0  0 
 20  4  1  0  0  0  0 
 22  6  1  0  0  0  0 
 27 11  1  0  0  0  0 
 28 12  1  0  0  0  0 
M  END 
>  <HBA> 
2 
 
>  <HBD> 
2 
 
>  <TPSA> 
38.05 
 
>  <cid> 
44656 
 
>  <dipole> 
2.02 
 
>  <excitation_energy_1> 
5.302 
 
>  <excitation_energy_2> 
5.455 
 
>  <excitation_energy_3> 
5.59 
 
>  <excitation_energy_4> 
5.669 
 
>  <homo_energy> 
-6.158 
 
>  <homo_lumo_gap> 
6.253 
 
>  <logP> 
2.733 
 
>  <lumo_energy> 
0.095 
 
>  <melting_point> 
86.59 
 
>  <molecular_refractivity> 
51.34 
 
>  <oscillator_strength_1> 
0.0008 
 
>  <oscillator_strength_2> 
0.0087 
 
>  <oscillator_strength_3> 
0.0085 
 
>  <oscillator_strength_4> 
0.002 
 
>  <open_babel_can_smiles> 
NN[C@@H]([C@@H](c1ccccc1)C)C 
 
>  <mulliken_charges> 
28 
1   -0.469919 
2   -0.443149 
3   -0.131416 
4   -0.126216 
5   -0.130046 
6   -0.192007 
7   -0.182504 
8   -0.171188 
9   0.077728 
10   0.17639 
11   -0.587106 
12   -0.47657 
13   0.142624 
14   0.143071 
15   0.158064 
16   0.146 
17   0.170624 
18   0.137346 
19   0.126683 
20   0.127411 
21   0.1268 
22   0.125204 
23   0.123138 
24   0.137988 
25   0.096385 
26   0.286067 
27   0.31402 
28   0.294578 
 
>  <lowdin_charges> 
28 
1   -0.450099 
2   -0.452748 
3   -0.160715 
4   -0.155646 
5   -0.156945 
6   -0.170182 
7   -0.168869 
8   -0.128365 
9   -0.060836 
10   0.003462 
11   -0.480779 
12   -0.312597 
13   0.145115 
14   0.147754 
15   0.159305 
16   0.152081 
17   0.165018 
18   0.148125 
19   0.154906 
20   0.157334 
21   0.157376 
22   0.156175 
23   0.153783 
24   0.14959 
25   0.113911 
26   0.238992 
27   0.257408 
28   0.237444 
 
$$$$ 
 
