PCCDB-ID:  15302 
public computational chemistry database (PCCDB) project, http://pccdb.org 
 
 19 18  0  0  0  0  0  0  0  0999 V2000 
    5.6742   -0.7884    0.2662 C   0  0  0  0  0  0  0  0  0  0  0  0 
   -0.7859    0.2678   -1.2211 C   0  0  0  0  0  0  0  0  0  0  0  0 
    4.7426   -1.2593   -0.8496 C   0  0  0  0  0  0  0  0  0  0  0  0 
    2.2876   -1.7234   -1.4985 C   0  0  0  0  0  0  0  0  0  0  0  0 
    0.6080   -0.0916   -1.6677 C   0  0  0  0  0  0  0  0  0  0  0  0 
    3.2698   -1.0402   -0.5394 C   0  0  0  0  0  0  0  0  0  0  0  0 
    1.3529    0.6088   -2.3148 O   0  0  0  0  0  0  0  0  0  0  0  0 
    2.8785   -0.3768    0.3969 O   0  0  0  0  0  0  0  0  0  0  0  0 
    0.9414   -1.3418   -1.2433 O   0  0  0  0  0  0  0  0  0  0  0  0 
    6.7213   -0.9114   -0.0285 H   0  0  0  0  0  0  0  0  0  0  0  0 
    5.5063   -1.3585    1.1855 H   0  0  0  0  0  0  0  0  0  0  0  0 
    5.4977    0.2655    0.4969 H   0  0  0  0  0  0  0  0  0  0  0  0 
   -1.0981    1.1913   -1.7096 H   0  0  0  0  0  0  0  0  0  0  0  0 
   -0.7877    0.4094   -0.1348 H   0  0  0  0  0  0  0  0  0  0  0  0 
   -1.4864   -0.5408   -1.4497 H   0  0  0  0  0  0  0  0  0  0  0  0 
    4.9034   -2.3214   -1.0861 H   0  0  0  0  0  0  0  0  0  0  0  0 
    4.9520   -0.7193   -1.7856 H   0  0  0  0  0  0  0  0  0  0  0  0 
    2.3257   -2.8069   -1.3431 H   0  0  0  0  0  0  0  0  0  0  0  0 
    2.5663   -1.5061   -2.5352 H   0  0  0  0  0  0  0  0  0  0  0  0 
  1 12  1  0  0  0  0 
  1 11  1  0  0  0  0 
  2 14  1  0  0  0  0 
  3  6  1  0  0  0  0 
  3  1  1  0  0  0  0 
  4 18  1  0  0  0  0 
  4  9  1  0  0  0  0 
  4  6  1  0  0  0  0 
  5  9  1  0  0  0  0 
  5  2  1  0  0  0  0 
  6  8  2  0  0  0  0 
  7  5  2  0  0  0  0 
 10  1  1  0  0  0  0 
 13  2  1  0  0  0  0 
 15  2  1  0  0  0  0 
 16  3  1  0  0  0  0 
 17  3  1  0  0  0  0 
 19  4  1  0  0  0  0 
M  END 
>  <HBA> 
3 
 
>  <HBD> 
0 
 
>  <TPSA> 
43.37 
 
>  <cid> 
15302 
 
>  <dipole> 
2.52 
 
>  <excitation_energy_1> 
4.508 
 
>  <excitation_energy_2> 
5.846 
 
>  <excitation_energy_3> 
6.08 
 
>  <excitation_energy_4> 
6.209 
 
>  <homo_energy> 
-6.882 
 
>  <homo_lumo_gap> 
6.387 
 
>  <logP> 
0.529 
 
>  <lumo_energy> 
-0.495 
 
>  <melting_point> 
7.27 
 
>  <molecular_refractivity> 
32.44 
 
>  <oscillator_strength_1> 
0.0001 
 
>  <oscillator_strength_2> 
0.0008 
 
>  <oscillator_strength_3> 
0.0028 
 
>  <oscillator_strength_4> 
0.0083 
 
>  <open_babel_can_smiles> 
CCC(=O)COC(=O)C 
 
>  <mulliken_charges> 
19 
1   -0.435909 
2   -0.527598 
3   -0.360471 
4   -0.128008 
5   0.615531 
6   0.453897 
7   -0.469083 
8   -0.432904 
9   -0.439295 
10   0.144414 
11   0.157492 
12   0.172659 
13   0.182636 
14   0.19631 
15   0.178833 
16   0.154028 
17   0.178717 
18   0.176649 
19   0.182101 
 
>  <lowdin_charges> 
19 
1   -0.436557 
2   -0.462846 
3   -0.306658 
4   -0.168273 
5   0.212733 
6   0.154686 
7   -0.262863 
8   -0.219877 
9   -0.185664 
10   0.151515 
11   0.157098 
12   0.163529 
13   0.176583 
14   0.184416 
15   0.176869 
16   0.156108 
17   0.171572 
18   0.16939 
19   0.16824 
 
$$$$ 
 
