PCCDB-ID:  59175 
public computational chemistry database (PCCDB) project, http://pccdb.org 
 
 30 30  0  0  0  0  0  0  0  0999 V2000 
    0.6833    0.1135   -0.1693 C   0  0  0  0  0  0  0  0  0  0  0  0 
   -0.0150   -0.2719    1.1412 C   0  0  0  0  0  0  0  0  0  0  0  0 
    2.2102   -0.0244   -0.0958 C   0  0  0  0  0  0  0  0  0  0  0  0 
    8.4702    0.2407   -1.0029 C   0  0  0  0  0  0  0  0  0  0  0  0 
    7.0829    0.3082   -1.0899 C   0  0  0  0  0  0  0  0  0  0  0  0 
    9.0952   -0.9837   -1.2488 C   0  0  0  0  0  0  0  0  0  0  0  0 
   -1.5387   -0.1528    1.0671 C   0  0  0  0  0  0  0  0  0  0  0  0 
    2.8820    0.3653   -1.4086 C   0  0  0  0  0  0  0  0  0  0  0  0 
    7.1058   -2.0314   -1.6444 C   0  0  0  0  0  0  0  0  0  0  0  0 
    6.3771   -0.8545   -1.4189 C   0  0  0  0  0  0  0  0  0  0  0  0 
    4.8932   -0.9044   -1.5413 C   0  0  0  0  0  0  0  0  0  0  0  0 
    8.4370   -2.1076   -1.5649 N   0  0  0  0  0  0  0  0  0  0  0  0 
   -2.1785   -0.4513    2.3023 O   0  0  0  0  0  0  0  0  0  0  0  0 
    4.2663   -1.9073   -1.8218 O   0  0  0  0  0  0  0  0  0  0  0  0 
    4.3246    0.3005   -1.3075 O   0  0  0  0  0  0  0  0  0  0  0  0 
    0.4199    1.1495   -0.4291 H   0  0  0  0  0  0  0  0  0  0  0  0 
    0.3004   -0.5145   -0.9868 H   0  0  0  0  0  0  0  0  0  0  0  0 
    0.3432    0.3619    1.9628 H   0  0  0  0  0  0  0  0  0  0  0  0 
    0.2519   -1.3070    1.4052 H   0  0  0  0  0  0  0  0  0  0  0  0 
    2.4788   -1.0600    0.1433 H   0  0  0  0  0  0  0  0  0  0  0  0 
    2.6059    0.6087    0.7090 H   0  0  0  0  0  0  0  0  0  0  0  0 
    9.0599    1.1166   -0.7497 H   0  0  0  0  0  0  0  0  0  0  0  0 
    6.5504    1.2354   -0.9085 H   0  0  0  0  0  0  0  0  0  0  0  0 
   10.1792   -1.0685   -1.1895 H   0  0  0  0  0  0  0  0  0  0  0  0 
   -1.9278   -0.7876    0.2531 H   0  0  0  0  0  0  0  0  0  0  0  0 
   -1.8248    0.8789    0.8341 H   0  0  0  0  0  0  0  0  0  0  0  0 
    2.6753    1.4074   -1.6677 H   0  0  0  0  0  0  0  0  0  0  0  0 
    2.5573   -0.2837   -2.2261 H   0  0  0  0  0  0  0  0  0  0  0  0 
    6.5731   -2.9438   -1.9001 H   0  0  0  0  0  0  0  0  0  0  0  0 
   -1.9854   -1.3780    2.5135 H   0  0  0  0  0  0  0  0  0  0  0  0 
  1  3  1  0  0  0  0 
  1  2  1  0  0  0  0 
  2 19  1  0  0  0  0 
  2 18  1  0  0  0  0 
  3 20  1  0  0  0  0 
  3 21  1  0  0  0  0 
  4 22  1  0  0  0  0 
  5  4  1  0  0  0  0 
  5 23  1  0  0  0  0 
  6 24  1  0  0  0  0 
  6  4  2  0  0  0  0 
  7  2  1  0  0  0  0 
  7 13  1  0  0  0  0 
  8 15  1  0  0  0  0 
  8  3  1  0  0  0  0 
  9 12  2  0  0  0  0 
  9 10  1  0  0  0  0 
 10  5  2  0  0  0  0 
 11 10  1  0  0  0  0 
 11 15  1  0  0  0  0 
 12  6  1  0  0  0  0 
 13 30  1  0  0  0  0 
 14 11  2  0  0  0  0 
 16  1  1  0  0  0  0 
 17  1  1  0  0  0  0 
 25  7  1  0  0  0  0 
 26  7  1  0  0  0  0 
 27  8  1  0  0  0  0 
 28  8  1  0  0  0  0 
 29  9  1  0  0  0  0 
M  END 
>  <HBA> 
4 
 
>  <HBD> 
1 
 
>  <TPSA> 
59.42 
 
>  <cid> 
59175 
 
>  <dipole> 
2.37 
 
>  <excitation_energy_1> 
4.275 
 
>  <excitation_energy_2> 
4.886 
 
>  <excitation_energy_3> 
4.912 
 
>  <excitation_energy_4> 
5.164 
 
>  <homo_energy> 
-7.075 
 
>  <homo_lumo_gap> 
5.521 
 
>  <logP> 
1.401 
 
>  <lumo_energy> 
-1.554 
 
>  <melting_point> 
60.73 
 
>  <molecular_refractivity> 
55.91 
 
>  <oscillator_strength_1> 
0.0005 
 
>  <oscillator_strength_2> 
0.0002 
 
>  <oscillator_strength_3> 
0.003 
 
>  <oscillator_strength_4> 
0.1065 
 
>  <open_babel_can_smiles> 
OCCCCCOC(=O)c1cccnc1 
 
>  <mulliken_charges> 
30 
1   -0.273419 
2   -0.277041 
3   -0.278265 
4   -0.147613 
5   -0.123911 
6   0.050473 
7   -0.026601 
8   -0.044073 
9   0.025169 
10   0.026495 
11   0.598562 
12   -0.413045 
13   -0.614156 
14   -0.488603 
15   -0.485648 
16   0.134776 
17   0.140631 
18   0.147831 
19   0.126128 
20   0.16323 
21   0.144871 
22   0.145268 
23   0.16856 
24   0.150461 
25   0.11925 
26   0.145212 
27   0.151471 
28   0.170772 
29   0.176582 
30   0.386637 
 
>  <lowdin_charges> 
30 
1   -0.27417 
2   -0.292063 
3   -0.285695 
4   -0.176195 
5   -0.113266 
6   -0.071033 
7   -0.134808 
8   -0.128578 
9   -0.065644 
10   -0.062473 
11   0.199003 
12   -0.143957 
13   -0.465162 
14   -0.268909 
15   -0.19332 
16   0.139962 
17   0.144519 
18   0.149601 
19   0.136214 
20   0.155981 
21   0.148733 
22   0.168669 
23   0.177299 
24   0.158614 
25   0.125473 
26   0.144555 
27   0.15089 
28   0.160316 
29   0.176388 
30   0.339057 
 
$$$$ 
 
