PCCDB-ID:  18531 
public computational chemistry database (PCCDB) project, http://pccdb.org 
 
 19 18  0  0  0  0  0  0  0  0999 V2000 
    1.1760   -0.5697    0.0305 C   0  0  0  0  0  0  0  0  0  0  0  0 
    2.9674   -2.1192    2.5516 C   0  0  0  0  0  0  0  0  0  0  0  0 
    5.5455    0.4529    2.1136 C   0  0  0  0  0  0  0  0  0  0  0  0 
    2.4342   -0.1130    0.0413 C   0  0  0  0  0  0  0  0  0  0  0  0 
    2.8570   -0.5950    2.4329 C   0  0  0  0  0  0  0  0  0  0  0  0 
    4.5982    0.4172    0.9233 C   0  0  0  0  0  0  0  0  0  0  0  0 
    3.3091   -0.0753    1.1393 N   0  0  0  0  0  0  0  0  0  0  0  0 
    4.9572    0.8165   -0.1752 O   0  0  0  0  0  0  0  0  0  0  0  0 
    0.6086   -0.5214   -0.8920 H   0  0  0  0  0  0  0  0  0  0  0  0 
    0.6709   -0.9956    0.8907 H   0  0  0  0  0  0  0  0  0  0  0  0 
    2.5661   -2.4536    3.5151 H   0  0  0  0  0  0  0  0  0  0  0  0 
    4.0115   -2.4444    2.4862 H   0  0  0  0  0  0  0  0  0  0  0  0 
    2.4091   -2.6172    1.7539 H   0  0  0  0  0  0  0  0  0  0  0  0 
    5.6538   -0.5249    2.5949 H   0  0  0  0  0  0  0  0  0  0  0  0 
    5.2082    1.1662    2.8749 H   0  0  0  0  0  0  0  0  0  0  0  0 
    6.5171    0.7767    1.7393 H   0  0  0  0  0  0  0  0  0  0  0  0 
    2.8963    0.2898   -0.8517 H   0  0  0  0  0  0  0  0  0  0  0  0 
    3.4304   -0.1116    3.2253 H   0  0  0  0  0  0  0  0  0  0  0  0 
    1.8188   -0.2747    2.5692 H   0  0  0  0  0  0  0  0  0  0  0  0 
  1  4  2  0  0  0  0 
  1 10  1  0  0  0  0 
  2 11  1  0  0  0  0 
  3 14  1  0  0  0  0 
  3 15  1  0  0  0  0 
  4  7  1  0  0  0  0 
  5  2  1  0  0  0  0 
  5 19  1  0  0  0  0 
  5 18  1  0  0  0  0 
  6  7  1  0  0  0  0 
  6  3  1  0  0  0  0 
  7  5  1  0  0  0  0 
  8  6  2  0  0  0  0 
  9  1  1  0  0  0  0 
 12  2  1  0  0  0  0 
 13  2  1  0  0  0  0 
 16  3  1  0  0  0  0 
 17  4  1  0  0  0  0 
M  END 
>  <HBA> 
2 
 
>  <HBD> 
0 
 
>  <TPSA> 
20.31 
 
>  <cid> 
18531 
 
>  <dipole> 
3.58 
 
>  <excitation_energy_1> 
5.187 
 
>  <excitation_energy_2> 
5.367 
 
>  <excitation_energy_3> 
5.424 
 
>  <excitation_energy_4> 
5.885 
 
>  <homo_energy> 
-5.924 
 
>  <homo_lumo_gap> 
5.921 
 
>  <logP> 
0.998 
 
>  <lumo_energy> 
-0.003 
 
>  <melting_point> 
-23.13 
 
>  <molecular_refractivity> 
33.58 
 
>  <oscillator_strength_1> 
0.0007 
 
>  <oscillator_strength_2> 
0.0486 
 
>  <oscillator_strength_3> 
0.3631 
 
>  <oscillator_strength_4> 
0.0056 
 
>  <open_babel_can_smiles> 
CCN(C(=O)C)C=C 
 
>  <mulliken_charges> 
19 
1   -0.399459 
2   -0.446157 
3   -0.557116 
4   0.098344 
5   -0.158619 
6   0.580392 
7   -0.434557 
8   -0.489239 
9   0.146736 
10   0.135173 
11   0.150295 
12   0.154099 
13   0.172154 
14   0.170387 
15   0.176019 
16   0.191575 
17   0.187571 
18   0.159264 
19   0.163139 
 
>  <lowdin_charges> 
19 
1   -0.402412 
2   -0.453574 
3   -0.474135 
4   -0.087429 
5   -0.19742 
6   0.168792 
7   -0.078275 
8   -0.291844 
9   0.168549 
10   0.156278 
11   0.156067 
12   0.151679 
13   0.164524 
14   0.166382 
15   0.171363 
16   0.180977 
17   0.185346 
18   0.159278 
19   0.155854 
 
$$$$ 
 
