PCCDB-ID:  23468 
public computational chemistry database (PCCDB) project, http://pccdb.org 
 
 30 30  0  0  1  0  0  0  0  0999 V2000 
    0.7844   -0.8536   -0.6408 C   0  0  0  0  0  0  0  0  0  0  0  0 
    2.1357   -1.1590    2.2119 C   0  0  0  0  0  0  0  0  0  0  0  0 
    2.2424   -1.2017   -0.3143 C   0  0  0  0  0  0  0  0  0  0  0  0 
    5.6022    2.0122    1.7426 C   0  0  0  0  0  0  0  0  0  0  0  0 
    4.9346    1.1162    2.7968 C   0  0  0  0  0  0  0  0  0  0  0  0 
    5.0074    1.7699    0.3475 C   0  0  0  0  0  0  0  0  0  0  0  0 
    4.9984   -0.3633    2.3844 C   0  0  0  0  0  0  0  0  0  0  0  0 
    5.0437    0.2798   -0.0368 C   0  0  0  0  0  0  0  0  0  0  0  0 
    2.7982   -0.5393    0.9693 C   0  0  2  0  0  0  0  0  0  0  0  0 
    4.3552   -0.6393    1.0043 C   0  0  0  0  0  0  0  0  0  0  0  0 
    0.4702   -1.3301   -1.5766 H   0  0  0  0  0  0  0  0  0  0  0  0 
    0.6561    0.2295   -0.7614 H   0  0  0  0  0  0  0  0  0  0  0  0 
    0.0917   -1.1837    0.1412 H   0  0  0  0  0  0  0  0  0  0  0  0 
    1.0449   -1.1641    2.1168 H   0  0  0  0  0  0  0  0  0  0  0  0 
    2.3739   -0.6090    3.1275 H   0  0  0  0  0  0  0  0  0  0  0  0 
    2.4588   -2.1992    2.3524 H   0  0  0  0  0  0  0  0  0  0  0  0 
    2.8597   -0.9180   -1.1749 H   0  0  0  0  0  0  0  0  0  0  0  0 
    2.3461   -2.2928   -0.2171 H   0  0  0  0  0  0  0  0  0  0  0  0 
    6.6801    1.7915    1.7174 H   0  0  0  0  0  0  0  0  0  0  0  0 
    5.5068    3.0700    2.0202 H   0  0  0  0  0  0  0  0  0  0  0  0 
    3.8876    1.4256    2.9278 H   0  0  0  0  0  0  0  0  0  0  0  0 
    5.4199    1.2530    3.7720 H   0  0  0  0  0  0  0  0  0  0  0  0 
    5.5522    2.3567   -0.4035 H   0  0  0  0  0  0  0  0  0  0  0  0 
    3.9712    2.1356    0.3271 H   0  0  0  0  0  0  0  0  0  0  0  0 
    4.5527   -0.9972    3.1583 H   0  0  0  0  0  0  0  0  0  0  0  0 
    6.0564   -0.6592    2.3262 H   0  0  0  0  0  0  0  0  0  0  0  0 
    6.0948   -0.0321   -0.1254 H   0  0  0  0  0  0  0  0  0  0  0  0 
    4.6057    0.1449   -1.0326 H   0  0  0  0  0  0  0  0  0  0  0  0 
    2.5157    0.5235    0.9405 H   0  0  0  0  0  0  0  0  0  0  0  0 
    4.5997   -1.6807    0.7415 H   0  0  0  0  0  0  0  0  0  0  0  0 
  1  3  1  0  0  0  0 
  1 13  1  0  0  0  0 
  2 16  1  0  0  0  0 
  2 15  1  0  0  0  0 
  3 18  1  0  0  0  0 
  3  9  1  0  0  0  0 
  4 20  1  0  0  0  0 
  4  5  1  0  0  0  0 
  5 21  1  0  0  0  0 
  5 22  1  0  0  0  0 
  6  4  1  0  0  0  0 
  7  5  1  0  0  0  0 
  7 25  1  0  0  0  0 
  8  6  1  0  0  0  0 
  8 10  1  0  0  0  0 
  9 29  1  6  0  0  0 
  9 10  1  0  0  0  0 
  9  2  1  0  0  0  0 
 10  7  1  0  0  0  0 
 11  1  1  0  0  0  0 
 12  1  1  0  0  0  0 
 14  2  1  0  0  0  0 
 17  3  1  0  0  0  0 
 19  4  1  0  0  0  0 
 23  6  1  0  0  0  0 
 24  6  1  0  0  0  0 
 26  7  1  0  0  0  0 
 27  8  1  0  0  0  0 
 28  8  1  0  0  0  0 
 30 10  1  0  0  0  0 
M  END 
>  <HBA> 
0 
 
>  <HBD> 
0 
 
>  <TPSA> 
0.0 
 
>  <cid> 
23468 
 
>  <dipole> 
0.05 
 
>  <excitation_energy_1> 
7.121 
 
>  <excitation_energy_2> 
7.255 
 
>  <excitation_energy_3> 
7.41 
 
>  <excitation_energy_4> 
7.42 
 
>  <homo_energy> 
-7.663 
 
>  <homo_lumo_gap> 
9.788 
 
>  <logP> 
3.613 
 
>  <lumo_energy> 
2.125 
 
>  <melting_point> 
-6.64 
 
>  <molecular_refractivity> 
48.07 
 
>  <oscillator_strength_1> 
0.0018 
 
>  <oscillator_strength_2> 
0.0017 
 
>  <oscillator_strength_3> 
0.006 
 
>  <oscillator_strength_4> 
0.0023 
 
>  <open_babel_can_smiles> 
CC[C@H](C1CCCCC1)C 
 
>  <mulliken_charges> 
30 
1   -0.448854 
2   -0.463808 
3   -0.258231 
4   -0.253181 
5   -0.260418 
6   -0.260233 
7   -0.27339 
8   -0.273526 
9   -0.062586 
10   -0.074487 
11   0.141252 
12   0.140653 
13   0.145059 
14   0.142139 
15   0.147001 
16   0.138328 
17   0.134587 
18   0.126966 
19   0.125296 
20   0.127086 
21   0.131058 
22   0.128123 
23   0.1284 
24   0.131256 
25   0.132827 
26   0.123324 
27   0.125453 
28   0.131031 
29   0.118227 
30   0.110647 
 
>  <lowdin_charges> 
30 
1   -0.446142 
2   -0.445774 
3   -0.274183 
4   -0.274117 
5   -0.278688 
6   -0.280774 
7   -0.282379 
8   -0.279648 
9   -0.127099 
10   -0.129057 
11   0.14972 
12   0.143792 
13   0.147101 
14   0.146782 
15   0.149685 
16   0.143502 
17   0.142566 
18   0.135429 
19   0.1342 
20   0.139894 
21   0.136252 
22   0.142036 
23   0.144064 
24   0.136149 
25   0.145452 
26   0.136813 
27   0.137583 
28   0.140856 
29   0.131575 
30   0.134411 
 
$$$$ 
 
