PCCDB-ID:  49983 
public computational chemistry database (PCCDB) project, http://pccdb.org 
 
 24 25  0  0  0  0  0  0  0  0999 V2000 
    1.1068   -0.8958   -0.4019 C   0  0  0  0  0  0  0  0  0  0  0  0 
    4.8311   -1.2191    0.3252 C   0  0  0  0  0  0  0  0  0  0  0  0 
    5.2848    0.0929    0.2234 C   0  0  0  0  0  0  0  0  0  0  0  0 
    3.4793   -1.4953    0.1214 C   0  0  0  0  0  0  0  0  0  0  0  0 
    4.3745    1.1033   -0.0796 C   0  0  0  0  0  0  0  0  0  0  0  0 
   -0.4509    2.3299   -1.5734 C   0  0  0  0  0  0  0  0  0  0  0  0 
   -0.3232    3.1923   -0.3208 C   0  0  0  0  0  0  0  0  0  0  0  0 
    2.5472   -0.4952   -0.1836 C   0  0  0  0  0  0  0  0  0  0  0  0 
    3.0113    0.8395   -0.2843 C   0  0  0  0  0  0  0  0  0  0  0  0 
    2.1436    2.0458   -0.5886 C   0  0  0  0  0  0  0  0  0  0  0  0 
    1.2341    2.0096   -2.2294 S   0  0  0  0  0  0  0  0  0  0  0  0 
    0.9272    2.4109    0.7656 S   0  0  0  0  0  0  0  0  0  0  0  0 
    0.9826   -1.9716   -0.2435 H   0  0  0  0  0  0  0  0  0  0  0  0 
    0.7812   -0.6599   -1.4210 H   0  0  0  0  0  0  0  0  0  0  0  0 
    0.4336   -0.3690    0.2820 H   0  0  0  0  0  0  0  0  0  0  0  0 
    5.5203   -2.0260    0.5595 H   0  0  0  0  0  0  0  0  0  0  0  0 
    6.3333    0.3326    0.3770 H   0  0  0  0  0  0  0  0  0  0  0  0 
    3.1282   -2.5216    0.1999 H   0  0  0  0  0  0  0  0  0  0  0  0 
    4.7277    2.1290   -0.1587 H   0  0  0  0  0  0  0  0  0  0  0  0 
   -1.0094    2.8487   -2.3597 H   0  0  0  0  0  0  0  0  0  0  0  0 
   -0.9541    1.3859   -1.3455 H   0  0  0  0  0  0  0  0  0  0  0  0 
   -1.2635    3.2285    0.2400 H   0  0  0  0  0  0  0  0  0  0  0  0 
   -0.0251    4.2138   -0.5757 H   0  0  0  0  0  0  0  0  0  0  0  0 
    2.8020    2.9121   -0.6664 H   0  0  0  0  0  0  0  0  0  0  0  0 
  1 13  1  0  0  0  0 
  1  8  1  0  0  0  0 
  1 15  1  0  0  0  0 
  2 16  1  0  0  0  0 
  3  2  1  0  0  0  0 
  3 17  1  0  0  0  0 
  4 18  1  0  0  0  0 
  4  2  2  0  0  0  0 
  5  3  2  0  0  0  0 
  6 21  1  0  0  0  0 
  6  7  1  0  0  0  0 
  7 22  1  0  0  0  0 
  7 12  1  0  0  0  0 
  8  4  1  0  0  0  0 
  9  8  2  0  0  0  0 
  9  5  1  0  0  0  0 
 10  9  1  0  0  0  0 
 10 12  1  0  0  0  0 
 11  6  1  0  0  0  0 
 11 10  1  0  0  0  0 
 14  1  1  0  0  0  0 
 19  5  1  0  0  0  0 
 20  6  1  0  0  0  0 
 23  7  1  0  0  0  0 
 24 10  1  0  0  0  0 
M  END 
>  <HBA> 
2 
 
>  <HBD> 
0 
 
>  <TPSA> 
50.6 
 
>  <cid> 
49983 
 
>  <dipole> 
1.14 
 
>  <excitation_energy_1> 
4.591 
 
>  <excitation_energy_2> 
4.712 
 
>  <excitation_energy_3> 
4.833 
 
>  <excitation_energy_4> 
4.979 
 
>  <homo_energy> 
-6.076 
 
>  <homo_lumo_gap> 
5.685 
 
>  <logP> 
3.474 
 
>  <lumo_energy> 
-0.392 
 
>  <melting_point> 
51.18 
 
>  <molecular_refractivity> 
59.06 
 
>  <oscillator_strength_1> 
0.0021 
 
>  <oscillator_strength_2> 
0.0059 
 
>  <oscillator_strength_3> 
0.0017 
 
>  <oscillator_strength_4> 
0.0307 
 
>  <open_babel_can_smiles> 
Cc1ccccc1C1SCCS1 
 
>  <mulliken_charges> 
24 
1   -0.549812 
2   -0.120343 
3   -0.12719 
4   -0.188269 
5   -0.181239 
6   -0.417843 
7   -0.41579 
8   0.15847 
9   0.127451 
10   -0.507188 
11   0.116004 
12   0.127377 
13   0.146701 
14   0.183231 
15   0.183211 
16   0.130068 
17   0.129854 
18   0.124464 
19   0.129751 
20   0.18396 
21   0.188892 
22   0.183537 
23   0.188281 
24   0.206422 
 
>  <lowdin_charges> 
24 
1   -0.452189 
2   -0.152813 
3   -0.160237 
4   -0.164328 
5   -0.158299 
6   -0.377822 
7   -0.375376 
8   0.015445 
9   -0.029578 
10   -0.31239 
11   0.091351 
12   0.111822 
13   0.151696 
14   0.169578 
15   0.169408 
16   0.159381 
17   0.157148 
18   0.154368 
19   0.155132 
20   0.173946 
21   0.163041 
22   0.173942 
23   0.163472 
24   0.173302 
 
$$$$ 
 
