PCCDB-ID:  12168 
public computational chemistry database (PCCDB) project, http://pccdb.org 
 
 19 19  0  0  0  0  0  0  0  0999 V2000 
    3.4373    1.8194   -2.4778 C   0  0  0  0  0  0  0  0  0  0  0  0 
   -2.2191   -1.0558   -2.6361 C   0  0  0  0  0  0  0  0  0  0  0  0 
   -1.1263   -1.8834   -2.2518 C   0  0  0  0  0  0  0  0  0  0  0  0 
   -1.7700    0.2316   -2.5404 C   0  0  0  0  0  0  0  0  0  0  0  0 
    2.2046   -0.1193   -1.2901 C   0  0  0  0  0  0  0  0  0  0  0  0 
    2.6709    0.5159   -2.6058 C   0  0  0  0  0  0  0  0  0  0  0  0 
    1.2816   -1.3139   -1.5032 C   0  0  0  0  0  0  0  0  0  0  0  0 
   -0.0856   -1.0429   -1.9499 C   0  0  0  0  0  0  0  0  0  0  0  0 
    2.4433    0.0004   -3.6810 O   0  0  0  0  0  0  0  0  0  0  0  0 
    1.6553   -2.4597   -1.3021 O   0  0  0  0  0  0  0  0  0  0  0  0 
   -0.4809    0.2629   -2.1243 O   0  0  0  0  0  0  0  0  0  0  0  0 
    4.2246    1.7445   -1.7186 H   0  0  0  0  0  0  0  0  0  0  0  0 
    2.7547    2.6171   -2.1568 H   0  0  0  0  0  0  0  0  0  0  0  0 
    3.8721    2.0877   -3.4427 H   0  0  0  0  0  0  0  0  0  0  0  0 
   -3.2063   -1.3694   -2.9452 H   0  0  0  0  0  0  0  0  0  0  0  0 
   -1.0903   -2.9619   -2.2013 H   0  0  0  0  0  0  0  0  0  0  0  0 
   -2.2277    1.1920   -2.7256 H   0  0  0  0  0  0  0  0  0  0  0  0 
    1.7221    0.6495   -0.6729 H   0  0  0  0  0  0  0  0  0  0  0  0 
    3.0859   -0.4767   -0.7442 H   0  0  0  0  0  0  0  0  0  0  0  0 
  1 13  1  0  0  0  0 
  1 12  1  0  0  0  0 
  2  4  2  0  0  0  0 
  2  3  1  0  0  0  0 
  3 16  1  0  0  0  0 
  3  8  2  0  0  0  0 
  4 11  1  0  0  0  0 
  5 19  1  0  0  0  0 
  5 18  1  0  0  0  0 
  6  1  1  0  0  0  0 
  6  5  1  0  0  0  0 
  7 10  2  0  0  0  0 
  7  5  1  0  0  0  0 
  8  7  1  0  0  0  0 
  9  6  2  0  0  0  0 
 11  8  1  0  0  0  0 
 14  1  1  0  0  0  0 
 15  2  1  0  0  0  0 
 17  4  1  0  0  0  0 
M  END 
>  <HBA> 
3 
 
>  <HBD> 
0 
 
>  <TPSA> 
47.28 
 
>  <cid> 
12168 
 
>  <dipole> 
3.98 
 
>  <excitation_energy_1> 
3.793 
 
>  <excitation_energy_2> 
4.43 
 
>  <excitation_energy_3> 
4.59 
 
>  <excitation_energy_4> 
4.786 
 
>  <homo_energy> 
-6.553 
 
>  <homo_lumo_gap> 
5.061 
 
>  <logP> 
1.441 
 
>  <lumo_energy> 
-1.491 
 
>  <melting_point> 
57.5 
 
>  <molecular_refractivity> 
38.72 
 
>  <oscillator_strength_1> 
0.0006 
 
>  <oscillator_strength_2> 
0.0011 
 
>  <oscillator_strength_3> 
0.0035 
 
>  <oscillator_strength_4> 
0.3352 
 
>  <open_babel_can_smiles> 
CC(=O)CC(=O)c1ccco1 
 
>  <mulliken_charges> 
19 
1   -0.52906 
2   -0.184327 
3   -0.162271 
4   0.103087 
5   -0.457282 
6   0.462645 
7   0.413725 
8   0.293886 
9   -0.4231 
10   -0.460544 
11   -0.449662 
12   0.169028 
13   0.176148 
14   0.184455 
15   0.153819 
16   0.172056 
17   0.166293 
18   0.177423 
19   0.193683 
 
>  <lowdin_charges> 
19 
1   -0.475958 
2   -0.19711 
3   -0.151948 
4   -0.056359 
5   -0.342158 
6   0.174155 
7   0.157675 
8   0.029652 
9   -0.224562 
10   -0.237825 
11   -0.093769 
12   0.169469 
13   0.175504 
14   0.175639 
15   0.174718 
16   0.184801 
17   0.175924 
18   0.176471 
19   0.185681 
 
$$$$ 
 
