PCCDB-ID:  45714 
public computational chemistry database (PCCDB) project, http://pccdb.org 
 
 21 20  0  0  0  0  0  0  0  0999 V2000 
    0.7543    0.4307   -0.2545 C   0  0  0  0  0  0  0  0  0  0  0  0 
    2.3266   -1.3379   -1.0331 C   0  0  0  0  0  0  0  0  0  0  0  0 
    3.2082    0.9381   -0.3736 C   0  0  0  0  0  0  0  0  0  0  0  0 
    3.5224   -1.5017    1.6217 C   0  0  0  0  0  0  0  0  0  0  0  0 
    1.6095   -0.2639    2.4074 C   0  0  0  0  0  0  0  0  0  0  0  0 
    2.1655   -0.1552   -0.0556 C   0  0  0  0  0  0  0  0  0  0  0  0 
    2.3692   -0.6498    1.3359 N   0  0  0  0  0  0  0  0  0  0  0  0 
    1.7967   -0.6099    3.5664 O   0  0  0  0  0  0  0  0  0  0  0  0 
    0.6223    0.6621   -1.3164 H   0  0  0  0  0  0  0  0  0  0  0  0 
    0.5992    1.3615    0.2993 H   0  0  0  0  0  0  0  0  0  0  0  0 
   -0.0246   -0.2829    0.0343 H   0  0  0  0  0  0  0  0  0  0  0  0 
    2.1467   -0.9971   -2.0582 H   0  0  0  0  0  0  0  0  0  0  0  0 
    1.6075   -2.1323   -0.8050 H   0  0  0  0  0  0  0  0  0  0  0  0 
    3.3332   -1.7648   -1.0009 H   0  0  0  0  0  0  0  0  0  0  0  0 
    3.0745    1.3098   -1.3960 H   0  0  0  0  0  0  0  0  0  0  0  0 
    4.2320    0.5589   -0.2913 H   0  0  0  0  0  0  0  0  0  0  0  0 
    3.1013    1.7825    0.3157 H   0  0  0  0  0  0  0  0  0  0  0  0 
    3.6386   -1.5375    2.7048 H   0  0  0  0  0  0  0  0  0  0  0  0 
    4.4346   -1.0953    1.1727 H   0  0  0  0  0  0  0  0  0  0  0  0 
    3.3730   -2.5216    1.2500 H   0  0  0  0  0  0  0  0  0  0  0  0 
    0.7799    0.4053    2.1392 H   0  0  0  0  0  0  0  0  0  0  0  0 
  1  6  1  0  0  0  0 
  1 11  1  0  0  0  0 
  1 10  1  0  0  0  0 
  2 14  1  0  0  0  0 
  2 13  1  0  0  0  0 
  2  6  1  0  0  0  0 
  3 16  1  0  0  0  0 
  3  6  1  0  0  0  0 
  3 17  1  0  0  0  0 
  4 18  1  0  0  0  0 
  5  8  2  0  0  0  0 
  6  7  1  0  0  0  0 
  7  4  1  0  0  0  0 
  7  5  1  0  0  0  0 
  9  1  1  0  0  0  0 
 12  2  1  0  0  0  0 
 15  3  1  0  0  0  0 
 19  4  1  0  0  0  0 
 20  4  1  0  0  0  0 
 21  5  1  0  0  0  0 
M  END 
>  <HBA> 
2 
 
>  <HBD> 
0 
 
>  <TPSA> 
20.31 
 
>  <cid> 
45714 
 
>  <dipole> 
4.19 
 
>  <excitation_energy_1> 
5.548 
 
>  <excitation_energy_2> 
5.83 
 
>  <excitation_energy_3> 
6.136 
 
>  <excitation_energy_4> 
6.366 
 
>  <homo_energy> 
-6.406 
 
>  <homo_lumo_gap> 
7.353 
 
>  <logP> 
1.509 
 
>  <lumo_energy> 
0.947 
 
>  <melting_point> 
8.49 
 
>  <molecular_refractivity> 
34.48 
 
>  <oscillator_strength_1> 
0.0004 
 
>  <oscillator_strength_2> 
0.0012 
 
>  <oscillator_strength_3> 
0.0031 
 
>  <oscillator_strength_4> 
0.0085 
 
>  <open_babel_can_smiles> 
O=CN(C(C)(C)C)C 
 
>  <mulliken_charges> 
21 
1   -0.471255 
2   -0.448878 
3   -0.433867 
4   -0.333436 
5   0.352809 
6   0.201192 
7   -0.381711 
8   -0.483857 
9   0.152438 
10   0.158579 
11   0.160391 
12   0.147941 
13   0.156413 
14   0.152605 
15   0.14561 
16   0.148815 
17   0.152878 
18   0.204561 
19   0.151317 
20   0.158458 
21   0.108995 
 
>  <lowdin_charges> 
21 
1   -0.450255 
2   -0.446866 
3   -0.447505 
4   -0.359937 
5   0.030677 
6   0.082977 
7   -0.10673 
8   -0.311049 
9   0.156902 
10   0.154696 
11   0.158768 
12   0.153952 
13   0.157535 
14   0.154177 
15   0.152293 
16   0.151395 
17   0.155737 
18   0.183153 
19   0.148723 
20   0.150332 
21   0.131026 
 
$$$$ 
 
