PCCDB-ID:  15113 
public computational chemistry database (PCCDB) project, http://pccdb.org 
 
 14 15  0  0  0  0  0  0  0  0999 V2000 
   -0.2720   -0.6749    0.0028 C   0  0  0  0  0  0  0  0  0  0  0  0 
   -0.1941    0.7211    0.0032 C   0  0  0  0  0  0  0  0  0  0  0  0 
    0.9602   -1.3640    0.0041 C   0  0  0  0  0  0  0  0  0  0  0  0 
    2.0141    0.6604    0.0073 C   0  0  0  0  0  0  0  0  0  0  0  0 
    0.9305    1.4468    0.0057 N   0  0  0  0  0  0  0  0  0  0  0  0 
    2.0916   -0.6851    0.0066 N   0  0  0  0  0  0  0  0  0  0  0  0 
   -1.5862   -1.0686   -0.0010 N   0  0  0  0  0  0  0  0  0  0  0  0 
   -1.4990    1.0944   -0.0006 N   0  0  0  0  0  0  0  0  0  0  0  0 
   -2.3245   -0.0069   -0.0024 N   0  0  0  0  0  0  0  0  0  0  0  0 
    1.0394   -2.6993    0.0038 O   0  0  0  0  0  0  0  0  0  0  0  0 
    3.2046    1.2756    0.0102 O   0  0  0  0  0  0  0  0  0  0  0  0 
   -1.9053    2.0195    0.0021 H   0  0  0  0  0  0  0  0  0  0  0  0 
    0.1349   -3.0610    0.0006 H   0  0  0  0  0  0  0  0  0  0  0  0 
    3.0196    2.2315    0.0097 H   0  0  0  0  0  0  0  0  0  0  0  0 
  1  2  2  0  0  0  0 
  1  3  1  0  0  0  0 
  2  5  1  0  0  0  0 
  3  6  2  0  0  0  0 
  4 11  1  0  0  0  0 
  5  4  2  0  0  0  0 
  6  4  2  0  0  0  0 
  7  1  1  0  0  0  0 
  8 12  1  0  0  0  0 
  8  2  1  0  0  0  0 
  9  7  2  0  0  0  0 
  9  8  1  0  0  0  0 
 10  3  1  0  0  0  0 
 13 10  1  0  0  0  0 
 14 11  1  0  0  0  0 
M  END 
>  <HBA> 
4 
 
>  <HBD> 
3 
 
>  <TPSA> 
107.29 
 
>  <cid> 
15113 
 
>  <dipole> 
3.0 
 
>  <excitation_energy_1> 
4.818 
 
>  <excitation_energy_2> 
5.003 
 
>  <excitation_energy_3> 
5.188 
 
>  <excitation_energy_4> 
5.46 
 
>  <homo_energy> 
-7.01 
 
>  <homo_lumo_gap> 
5.415 
 
>  <logP> 
-1.665 
 
>  <lumo_energy> 
-1.595 
 
>  <melting_point> 
291.37 
 
>  <molecular_refractivity> 
35.13 
 
>  <oscillator_strength_1> 
0.0001 
 
>  <oscillator_strength_2> 
0.1667 
 
>  <oscillator_strength_3> 
0.0079 
 
>  <oscillator_strength_4> 
0.0141 
 
>  <open_babel_can_smiles> 
O[C]1=[N]=C(O)c2c(N=1)[nH]nn2 
 
>  <mulliken_charges> 
14 
1   0.17531 
2   0.606562 
3   0.539424 
4   0.640458 
5   -0.580461 
6   -0.497892 
7   -0.384925 
8   -0.545122 
9   -0.019642 
10   -0.578902 
11   -0.575435 
12   0.358514 
13   0.439488 
14   0.422624 
 
>  <lowdin_charges> 
14 
1   -0.107891 
2   0.074399 
3   0.170448 
4   0.177794 
5   -0.237471 
6   -0.182398 
7   -0.121991 
8   -0.140109 
9   -0.057012 
10   -0.310605 
11   -0.319804 
12   0.310193 
13   0.377616 
14   0.366831 
 
$$$$ 
 
