PCCDB-ID:  69510 
public computational chemistry database (PCCDB) project, http://pccdb.org 
 
 30 31  0  0  0  0  0  0  0  0999 V2000 
    4.7674   -0.1332    1.1717 C   0  0  0  0  0  0  0  0  0  0  0  0 
    7.4885   -1.4527   -0.8609 C   0  0  0  0  0  0  0  0  0  0  0  0 
    2.2988   -5.2261   -0.1123 C   0  0  0  0  0  0  0  0  0  0  0  0 
    2.6218   -6.6808   -0.4609 C   0  0  0  0  0  0  0  0  0  0  0  0 
    3.4851   -2.9905   -0.0686 C   0  0  0  0  0  0  0  0  0  0  0  0 
    4.9289   -6.5260    0.2594 C   0  0  0  0  0  0  0  0  0  0  0  0 
    3.5584   -4.3883   -0.0023 C   0  0  0  0  0  0  0  0  0  0  0  0 
    4.7957   -5.0193    0.1926 C   0  0  0  0  0  0  0  0  0  0  0  0 
    4.6305   -2.2063    0.0459 C   0  0  0  0  0  0  0  0  0  0  0  0 
    5.9461   -4.2248    0.2855 C   0  0  0  0  0  0  0  0  0  0  0  0 
    5.8745   -2.8291    0.2071 C   0  0  0  0  0  0  0  0  0  0  0  0 
    3.6304   -7.1619    0.4819 N   0  0  0  0  0  0  0  0  0  0  0  0 
    7.1614   -4.8236    0.4537 O   0  0  0  0  0  0  0  0  0  0  0  0 
    4.5302   -0.8330   -0.0540 O   0  0  0  0  0  0  0  0  0  0  0  0 
    7.0726   -2.1381    0.3321 O   0  0  0  0  0  0  0  0  0  0  0  0 
    5.7799   -0.3164    1.5478 H   0  0  0  0  0  0  0  0  0  0  0  0 
    4.0367   -0.4296    1.9354 H   0  0  0  0  0  0  0  0  0  0  0  0 
    4.6445    0.9287    0.9454 H   0  0  0  0  0  0  0  0  0  0  0  0 
    7.6181   -2.1597   -1.6899 H   0  0  0  0  0  0  0  0  0  0  0  0 
    8.4467   -0.9839   -0.6243 H   0  0  0  0  0  0  0  0  0  0  0  0 
    6.7572   -0.6901   -1.1423 H   0  0  0  0  0  0  0  0  0  0  0  0 
    1.7651   -5.2096    0.8476 H   0  0  0  0  0  0  0  0  0  0  0  0 
    1.6244   -4.7942   -0.8625 H   0  0  0  0  0  0  0  0  0  0  0  0 
    2.9525   -6.7436   -1.5169 H   0  0  0  0  0  0  0  0  0  0  0  0 
    1.7236   -7.3002   -0.3622 H   0  0  0  0  0  0  0  0  0  0  0  0 
    2.5318   -2.4903   -0.2142 H   0  0  0  0  0  0  0  0  0  0  0  0 
    5.6027   -6.7979    1.0803 H   0  0  0  0  0  0  0  0  0  0  0  0 
    5.4228   -6.8739   -0.6709 H   0  0  0  0  0  0  0  0  0  0  0  0 
    3.7366   -8.1700    0.3976 H   0  0  0  0  0  0  0  0  0  0  0  0 
    7.8019   -4.0942    0.5524 H   0  0  0  0  0  0  0  0  0  0  0  0 
  1 16  1  0  0  0  0 
  1 17  1  0  0  0  0 
  2 20  1  0  0  0  0 
  2 15  1  0  0  0  0 
  3  7  1  0  0  0  0 
  3 22  1  0  0  0  0 
  4 25  1  0  0  0  0 
  4  3  1  0  0  0  0 
  4 12  1  0  0  0  0 
  5  7  2  0  0  0  0 
  5  9  1  0  0  0  0 
  6 12  1  0  0  0  0 
  6 27  1  0  0  0  0 
  7  8  1  0  0  0  0 
  8  6  1  0  0  0  0 
  8 10  2  0  0  0  0 
  9 11  2  0  0  0  0 
 10 13  1  0  0  0  0 
 11 10  1  0  0  0  0 
 11 15  1  0  0  0  0 
 13 30  1  0  0  0  0 
 14  9  1  0  0  0  0 
 14  1  1  0  0  0  0 
 18  1  1  0  0  0  0 
 19  2  1  0  0  0  0 
 21  2  1  0  0  0  0 
 23  3  1  0  0  0  0 
 24  4  1  0  0  0  0 
 26  5  1  0  0  0  0 
 28  6  1  0  0  0  0 
 29 12  1  0  0  0  0 
M  END 
>  <HBA> 
4 
 
>  <HBD> 
2 
 
>  <TPSA> 
50.72 
 
>  <cid> 
69510 
 
>  <dipole> 
1.27 
 
>  <excitation_energy_1> 
4.863 
 
>  <excitation_energy_2> 
5.122 
 
>  <excitation_energy_3> 
5.168 
 
>  <excitation_energy_4> 
5.358 
 
>  <homo_energy> 
-5.597 
 
>  <homo_lumo_gap> 
5.886 
 
>  <logP> 
1.384 
 
>  <lumo_energy> 
0.288 
 
>  <melting_point> 
114.28 
 
>  <molecular_refractivity> 
60.79 
 
>  <oscillator_strength_1> 
0.0281 
 
>  <oscillator_strength_2> 
0.0051 
 
>  <oscillator_strength_3> 
0.0028 
 
>  <oscillator_strength_4> 
0.0063 
 
>  <open_babel_can_smiles> 
COc1cc2CCNCc2c(c1OC)O 
 
>  <mulliken_charges> 
30 
1   -0.215205 
2   -0.221377 
3   -0.322574 
4   -0.14814 
5   -0.262052 
6   -0.185413 
7   0.118968 
8   0.063333 
9   0.329085 
10   0.250795 
11   0.262264 
12   -0.556046 
13   -0.660244 
14   -0.534025 
15   -0.558659 
16   0.162225 
17   0.147188 
18   0.157611 
19   0.150186 
20   0.159156 
21   0.178111 
22   0.161694 
23   0.139416 
24   0.115858 
25   0.134928 
26   0.123641 
27   0.163313 
28   0.129735 
29   0.297997 
30   0.418232 
 
>  <lowdin_charges> 
30 
1   -0.274355 
2   -0.279957 
3   -0.277417 
4   -0.201456 
5   -0.205391 
6   -0.198846 
7   -0.002231 
8   -0.051356 
9   0.075678 
10   0.080791 
11   0.012448 
12   -0.361715 
13   -0.383156 
14   -0.233902 
15   -0.242792 
16   0.148654 
17   0.144348 
18   0.153443 
19   0.145724 
20   0.155568 
21   0.159472 
22   0.158841 
23   0.151398 
24   0.115498 
25   0.145737 
26   0.162405 
27   0.160372 
28   0.128408 
29   0.253801 
30   0.359989 
 
$$$$ 
 
