PCCDB-ID:  8908 
public computational chemistry database (PCCDB) project, http://pccdb.org 
 
 26 25  0  0  0  0  0  0  0  0999 V2000 
    1.0629    1.1611    0.6172 C   0  0  0  0  0  0  0  0  0  0  0  0 
    5.7267   -6.9773   -0.4980 C   0  0  0  0  0  0  0  0  0  0  0  0 
    2.4914    0.6837    0.3362 C   0  0  0  0  0  0  0  0  0  0  0  0 
    2.5855   -0.8272    0.0885 C   0  0  0  0  0  0  0  0  0  0  0  0 
    4.0140   -1.3129   -0.1895 C   0  0  0  0  0  0  0  0  0  0  0  0 
    4.0993   -2.8245   -0.4418 C   0  0  0  0  0  0  0  0  0  0  0  0 
    5.5284   -3.2798   -0.7181 C   0  0  0  0  0  0  0  0  0  0  0  0 
    5.6773   -5.5496   -0.0037 C   0  0  0  0  0  0  0  0  0  0  0  0 
    5.7186   -5.2091    1.1587 O   0  0  0  0  0  0  0  0  0  0  0  0 
    5.5860   -4.6884   -1.0448 O   0  0  0  0  0  0  0  0  0  0  0  0 
    1.0290    2.2430    0.7885 H   0  0  0  0  0  0  0  0  0  0  0  0 
    0.6485    0.6697    1.5061 H   0  0  0  0  0  0  0  0  0  0  0  0 
    0.3970    0.9361   -0.2250 H   0  0  0  0  0  0  0  0  0  0  0  0 
    5.8053   -7.6541    0.3533 H   0  0  0  0  0  0  0  0  0  0  0  0 
    6.5833   -7.1156   -1.1658 H   0  0  0  0  0  0  0  0  0  0  0  0 
    4.8246   -7.2068   -1.0747 H   0  0  0  0  0  0  0  0  0  0  0  0 
    3.1406    0.9533    1.1813 H   0  0  0  0  0  0  0  0  0  0  0  0 
    2.8914    1.2195   -0.5366 H   0  0  0  0  0  0  0  0  0  0  0  0 
    1.9389   -1.0968   -0.7597 H   0  0  0  0  0  0  0  0  0  0  0  0 
    2.1832   -1.3642    0.9601 H   0  0  0  0  0  0  0  0  0  0  0  0 
    4.6594   -1.0472    0.6603 H   0  0  0  0  0  0  0  0  0  0  0  0 
    4.4167   -0.7725   -1.0593 H   0  0  0  0  0  0  0  0  0  0  0  0 
    3.4681   -3.0973   -1.2980 H   0  0  0  0  0  0  0  0  0  0  0  0 
    3.7183   -3.3704    0.4296 H   0  0  0  0  0  0  0  0  0  0  0  0 
    6.1747   -3.0895    0.1431 H   0  0  0  0  0  0  0  0  0  0  0  0 
    5.9406   -2.7779   -1.5982 H   0  0  0  0  0  0  0  0  0  0  0  0 
  1 11  1  0  0  0  0 
  1 12  1  0  0  0  0 
  2  8  1  0  0  0  0 
  2 14  1  0  0  0  0 
  3  1  1  0  0  0  0 
  3 17  1  0  0  0  0 
  4  3  1  0  0  0  0 
  4 20  1  0  0  0  0 
  5  4  1  0  0  0  0 
  5 21  1  0  0  0  0 
  6  5  1  0  0  0  0 
  6 24  1  0  0  0  0 
  7  6  1  0  0  0  0 
  7 25  1  0  0  0  0 
  8  9  2  0  0  0  0 
 10  7  1  0  0  0  0 
 10  8  1  0  0  0  0 
 13  1  1  0  0  0  0 
 15  2  1  0  0  0  0 
 16  2  1  0  0  0  0 
 18  3  1  0  0  0  0 
 19  4  1  0  0  0  0 
 22  5  1  0  0  0  0 
 23  6  1  0  0  0  0 
 26  7  1  0  0  0  0 
M  END 
>  <HBA> 
2 
 
>  <HBD> 
0 
 
>  <TPSA> 
26.3 
 
>  <cid> 
8908 
 
>  <dipole> 
1.73 
 
>  <excitation_energy_1> 
5.815 
 
>  <excitation_energy_2> 
7.022 
 
>  <excitation_energy_3> 
7.447 
 
>  <excitation_energy_4> 
7.516 
 
>  <homo_energy> 
-7.268 
 
>  <homo_lumo_gap> 
7.72 
 
>  <logP> 
2.13 
 
>  <lumo_energy> 
0.452 
 
>  <melting_point> 
-15.45 
 
>  <molecular_refractivity> 
41.85 
 
>  <oscillator_strength_1> 
0.0011 
 
>  <oscillator_strength_2> 
0.0345 
 
>  <oscillator_strength_3> 
0.0796 
 
>  <oscillator_strength_4> 
0.0265 
 
>  <open_babel_can_smiles> 
CCCCCCOC(=O)C 
 
>  <mulliken_charges> 
26 
1   -0.441813 
2   -0.522525 
3   -0.248205 
4   -0.245483 
5   -0.264392 
6   -0.278391 
7   -0.043423 
8   0.600283 
9   -0.470249 
10   -0.456416 
11   0.142603 
12   0.142855 
13   0.141413 
14   0.181295 
15   0.18088 
16   0.180432 
17   0.132202 
18   0.1301 
19   0.128214 
20   0.132372 
21   0.136981 
22   0.128568 
23   0.14028 
24   0.159187 
25   0.166331 
26   0.1469 
 
>  <lowdin_charges> 
26 
1   -0.443763 
2   -0.465703 
3   -0.273682 
4   -0.274534 
5   -0.275465 
6   -0.288099 
7   -0.132769 
8   0.197693 
9   -0.26819 
10   -0.199599 
11   0.148006 
12   0.147602 
13   0.146944 
14   0.175431 
15   0.177662 
16   0.177341 
17   0.140458 
18   0.139408 
19   0.138876 
20   0.14104 
21   0.142847 
22   0.138741 
23   0.145995 
24   0.155755 
25   0.157346 
26   0.150658 
 
$$$$ 
 
