PCCDB-ID:  7119 
public computational chemistry database (PCCDB) project, http://pccdb.org 
 
 22 23  0  0  0  0  0  0  0  0999 V2000 
    1.5118   -0.5138   -0.7931 C   0  0  0  0  0  0  0  0  0  0  0  0 
    4.6413   -4.2537    4.3357 C   0  0  0  0  0  0  0  0  0  0  0  0 
    3.8316   -4.9299    3.3925 C   0  0  0  0  0  0  0  0  0  0  0  0 
    4.8084   -2.8888    4.2462 C   0  0  0  0  0  0  0  0  0  0  0  0 
    3.2067   -4.2332    2.3810 C   0  0  0  0  0  0  0  0  0  0  0  0 
    4.3285   -0.7334    3.0932 C   0  0  0  0  0  0  0  0  0  0  0  0 
    3.7085   -0.0381    2.0878 C   0  0  0  0  0  0  0  0  0  0  0  0 
    2.7231   -2.0861    1.2250 C   0  0  0  0  0  0  0  0  0  0  0  0 
    4.1785   -2.1436    3.2167 C   0  0  0  0  0  0  0  0  0  0  0  0 
    3.3590   -2.8260    2.2611 C   0  0  0  0  0  0  0  0  0  0  0  0 
    2.8944   -0.7191    1.1400 C   0  0  0  0  0  0  0  0  0  0  0  0 
    2.3345    0.0883    0.1928 O   0  0  0  0  0  0  0  0  0  0  0  0 
    1.1774    0.2973   -1.4425 H   0  0  0  0  0  0  0  0  0  0  0  0 
    0.6384   -1.0043   -0.3429 H   0  0  0  0  0  0  0  0  0  0  0  0 
    2.0695   -1.2503   -1.3869 H   0  0  0  0  0  0  0  0  0  0  0  0 
    5.1295   -4.8138    5.1285 H   0  0  0  0  0  0  0  0  0  0  0  0 
    3.7037   -6.0066    3.4682 H   0  0  0  0  0  0  0  0  0  0  0  0 
    5.4291   -2.3613    4.9671 H   0  0  0  0  0  0  0  0  0  0  0  0 
    2.5850   -4.7560    1.6575 H   0  0  0  0  0  0  0  0  0  0  0  0 
    4.9491   -0.2070    3.8145 H   0  0  0  0  0  0  0  0  0  0  0  0 
    3.8179    1.0372    1.9866 H   0  0  0  0  0  0  0  0  0  0  0  0 
    2.1081   -2.6236    0.5114 H   0  0  0  0  0  0  0  0  0  0  0  0 
  1 14  1  0  0  0  0 
  1 12  1  0  0  0  0 
  2 16  1  0  0  0  0 
  3 17  1  0  0  0  0 
  3  2  2  0  0  0  0 
  4  2  1  0  0  0  0 
  4 18  1  0  0  0  0 
  5  3  1  0  0  0  0 
  6  9  1  0  0  0  0 
  6 20  1  0  0  0  0 
  7  6  2  0  0  0  0 
  8 10  1  0  0  0  0 
  9  4  2  0  0  0  0 
 10  5  2  0  0  0  0 
 10  9  1  0  0  0  0 
 11  8  2  0  0  0  0 
 11  7  1  0  0  0  0 
 12 11  1  0  0  0  0 
 13  1  1  0  0  0  0 
 15  1  1  0  0  0  0 
 19  5  1  0  0  0  0 
 21  7  1  0  0  0  0 
 22  8  1  0  0  0  0 
M  END 
>  <HBA> 
1 
 
>  <HBD> 
0 
 
>  <TPSA> 
9.23 
 
>  <cid> 
7119 
 
>  <dipole> 
1.19 
 
>  <excitation_energy_1> 
4.156 
 
>  <excitation_energy_2> 
4.522 
 
>  <excitation_energy_3> 
5.205 
 
>  <excitation_energy_4> 
5.375 
 
>  <homo_energy> 
-5.543 
 
>  <homo_lumo_gap> 
4.729 
 
>  <logP> 
2.848 
 
>  <lumo_energy> 
-0.814 
 
>  <melting_point> 
53.76 
 
>  <molecular_refractivity> 
50.44 
 
>  <oscillator_strength_1> 
0.0363 
 
>  <oscillator_strength_2> 
0.0103 
 
>  <oscillator_strength_3> 
0.0024 
 
>  <oscillator_strength_4> 
0.1325 
 
>  <open_babel_can_smiles> 
COc1ccc2c(c1)cccc2 
 
>  <mulliken_charges> 
22 
1   -0.213326 
2   -0.138792 
3   -0.134535 
4   -0.192833 
5   -0.195581 
6   -0.195836 
7   -0.16843 
8   -0.277386 
9   0.135274 
10   0.136687 
11   0.374937 
12   -0.508811 
13   0.169483 
14   0.152794 
15   0.152818 
16   0.126468 
17   0.126974 
18   0.127127 
19   0.123498 
20   0.131788 
21   0.1396 
22   0.128085 
 
>  <lowdin_charges> 
22 
1   -0.280893 
2   -0.168473 
3   -0.154515 
4   -0.156015 
5   -0.16583 
6   -0.148798 
7   -0.173858 
8   -0.226729 
9   -0.012504 
10   0.010256 
11   0.099436 
12   -0.195423 
13   0.163899 
14   0.146393 
15   0.147205 
16   0.158284 
17   0.155291 
18   0.157581 
19   0.155905 
20   0.160509 
21   0.166105 
22   0.162177 
 
$$$$ 
 
