PCCDB-ID:  52792 
public computational chemistry database (PCCDB) project, http://pccdb.org 
 
 25 25  0  0  0  0  0  0  0  0999 V2000 
    2.0637   -0.6898    1.2456 C   0  0  0  0  0  0  0  0  0  0  0  0 
    2.9491   -0.2479    0.0762 C   0  0  0  0  0  0  0  0  0  0  0  0 
    9.0315    3.1573   -2.3846 C   0  0  0  0  0  0  0  0  0  0  0  0 
    8.3070    4.2380   -1.8763 C   0  0  0  0  0  0  0  0  0  0  0  0 
    8.4928    1.8736   -2.2765 C   0  0  0  0  0  0  0  0  0  0  0  0 
    7.0680    4.0401   -1.2725 C   0  0  0  0  0  0  0  0  0  0  0  0 
    7.2549    1.6597   -1.6721 C   0  0  0  0  0  0  0  0  0  0  0  0 
    3.7430    1.0218    0.3878 C   0  0  0  0  0  0  0  0  0  0  0  0 
    6.5301    2.7465   -1.1582 C   0  0  0  0  0  0  0  0  0  0  0  0 
    4.5808    1.3960   -0.7504 N   0  0  0  0  0  0  0  0  0  0  0  0 
    5.3083    2.5742   -0.4891 N   0  0  0  0  0  0  0  0  0  0  0  0 
    1.5113   -1.6029    0.9991 H   0  0  0  0  0  0  0  0  0  0  0  0 
    1.3303    0.0830    1.5060 H   0  0  0  0  0  0  0  0  0  0  0  0 
    2.6629   -0.8940    2.1409 H   0  0  0  0  0  0  0  0  0  0  0  0 
    2.3222   -0.0784   -0.8119 H   0  0  0  0  0  0  0  0  0  0  0  0 
    3.6534   -1.0454   -0.1901 H   0  0  0  0  0  0  0  0  0  0  0  0 
    9.9966    3.3139   -2.8578 H   0  0  0  0  0  0  0  0  0  0  0  0 
    8.7044    5.2470   -1.9545 H   0  0  0  0  0  0  0  0  0  0  0  0 
    9.0419    1.0206   -2.6682 H   0  0  0  0  0  0  0  0  0  0  0  0 
    6.5108    4.8899   -0.8817 H   0  0  0  0  0  0  0  0  0  0  0  0 
    6.8342    0.6644   -1.5900 H   0  0  0  0  0  0  0  0  0  0  0  0 
    4.4102    0.8577    1.2410 H   0  0  0  0  0  0  0  0  0  0  0  0 
    3.0453    1.8313    0.6807 H   0  0  0  0  0  0  0  0  0  0  0  0 
    4.0006    1.5140   -1.5863 H   0  0  0  0  0  0  0  0  0  0  0  0 
    4.7438    3.4233   -0.4573 H   0  0  0  0  0  0  0  0  0  0  0  0 
  1 13  1  0  0  0  0 
  1 14  1  0  0  0  0 
  2  8  1  0  0  0  0 
  2  1  1  0  0  0  0 
  3  5  2  0  0  0  0 
  3  4  1  0  0  0  0 
  4  6  2  0  0  0  0 
  5  7  1  0  0  0  0 
  6  9  1  0  0  0  0 
  6 20  1  0  0  0  0 
  7 21  1  0  0  0  0 
  7  9  2  0  0  0  0 
  8 23  1  0  0  0  0 
  8 22  1  0  0  0  0 
  9 11  1  0  0  0  0 
 10 11  1  0  0  0  0 
 10  8  1  0  0  0  0 
 11 25  1  0  0  0  0 
 12  1  1  0  0  0  0 
 15  2  1  0  0  0  0 
 16  2  1  0  0  0  0 
 17  3  1  0  0  0  0 
 18  4  1  0  0  0  0 
 19  5  1  0  0  0  0 
 24 10  1  0  0  0  0 
M  END 
>  <HBA> 
2 
 
>  <HBD> 
2 
 
>  <TPSA> 
24.06 
 
>  <cid> 
52792 
 
>  <dipole> 
2.56 
 
>  <excitation_energy_1> 
4.511 
 
>  <excitation_energy_2> 
4.74 
 
>  <excitation_energy_3> 
5.183 
 
>  <excitation_energy_4> 
5.259 
 
>  <homo_energy> 
-5.211 
 
>  <homo_lumo_gap> 
5.581 
 
>  <logP> 
2.477 
 
>  <lumo_energy> 
0.37 
 
>  <melting_point> 
63.72 
 
>  <molecular_refractivity> 
48.16 
 
>  <oscillator_strength_1> 
0.006 
 
>  <oscillator_strength_2> 
0.0389 
 
>  <oscillator_strength_3> 
0.066 
 
>  <oscillator_strength_4> 
0.0072 
 
>  <open_babel_can_smiles> 
CCCNNc1ccccc1 
 
>  <mulliken_charges> 
25 
1   -0.445194 
2   -0.26789 
3   -0.136369 
4   -0.134705 
5   -0.138666 
6   -0.193683 
7   -0.161057 
8   -0.091574 
9   0.338655 
10   -0.432964 
11   -0.531142 
12   0.148665 
13   0.14393 
14   0.148559 
15   0.127619 
16   0.153236 
17   0.117888 
18   0.121893 
19   0.122284 
20   0.110882 
21   0.142272 
22   0.158647 
23   0.105522 
24   0.295357 
25   0.297835 
 
>  <lowdin_charges> 
25 
1   -0.44429 
2   -0.279015 
3   -0.187 
4   -0.14849 
5   -0.149188 
6   -0.205272 
7   -0.196147 
8   -0.205637 
9   0.055479 
10   -0.281658 
11   -0.245995 
12   0.153717 
13   0.148417 
14   0.150494 
15   0.137785 
16   0.151794 
17   0.152735 
18   0.153545 
19   0.155101 
20   0.149943 
21   0.166856 
22   0.153128 
23   0.115571 
24   0.244493 
25   0.253634 
 
$$$$ 
 
