PCCDB-ID:  7525 
public computational chemistry database (PCCDB) project, http://pccdb.org 
 
 21 21  0  0  0  0  0  0  0  0999 V2000 
    3.1992   -0.2273    1.2366 C   0  0  0  0  0  0  0  0  0  0  0  0 
    2.3958   -0.0150   -0.0475 C   0  0  0  0  0  0  0  0  0  0  0  0 
    2.2960   -0.3722   -2.4408 C   0  0  0  0  0  0  0  0  0  0  0  0 
    2.6052   -2.2563   -0.9983 C   0  0  0  0  0  0  0  0  0  0  0  0 
    2.8625   -1.1958   -3.5949 C   0  0  0  0  0  0  0  0  0  0  0  0 
    3.1600   -3.0364   -2.1887 C   0  0  0  0  0  0  0  0  0  0  0  0 
    2.8674   -0.8259   -1.1713 N   0  0  0  0  0  0  0  0  0  0  0  0 
    2.6047   -2.5817   -3.4149 O   0  0  0  0  0  0  0  0  0  0  0  0 
    2.8790    0.4894    2.0010 H   0  0  0  0  0  0  0  0  0  0  0  0 
    4.2675   -0.0787    1.0473 H   0  0  0  0  0  0  0  0  0  0  0  0 
    3.0625   -1.2303    1.6544 H   0  0  0  0  0  0  0  0  0  0  0  0 
    2.4892    1.0355   -0.3498 H   0  0  0  0  0  0  0  0  0  0  0  0 
    1.3185   -0.1886    0.1515 H   0  0  0  0  0  0  0  0  0  0  0  0 
    1.1905   -0.4558   -2.4483 H   0  0  0  0  0  0  0  0  0  0  0  0 
    2.5504    0.6852   -2.5865 H   0  0  0  0  0  0  0  0  0  0  0  0 
    3.0918   -2.6107   -0.0834 H   0  0  0  0  0  0  0  0  0  0  0  0 
    1.5195   -2.4617   -0.9039 H   0  0  0  0  0  0  0  0  0  0  0  0 
    3.9482   -1.0195   -3.6718 H   0  0  0  0  0  0  0  0  0  0  0  0 
    2.3913   -0.9125   -4.5410 H   0  0  0  0  0  0  0  0  0  0  0  0 
    2.9042   -4.0973   -2.1072 H   0  0  0  0  0  0  0  0  0  0  0  0 
    4.2579   -2.9368   -2.2102 H   0  0  0  0  0  0  0  0  0  0  0  0 
  1 11  1  0  0  0  0 
  1  9  1  0  0  0  0 
  2 13  1  0  0  0  0 
  2  1  1  0  0  0  0 
  3  7  1  0  0  0  0 
  4 17  1  0  0  0  0 
  4 16  1  0  0  0  0 
  5  8  1  0  0  0  0 
  5  3  1  0  0  0  0 
  6 20  1  0  0  0  0 
  6  4  1  0  0  0  0 
  7  4  1  0  0  0  0 
  7  2  1  0  0  0  0 
  8  6  1  0  0  0  0 
 10  1  1  0  0  0  0 
 12  2  1  0  0  0  0 
 14  3  1  0  0  0  0 
 15  3  1  0  0  0  0 
 18  5  1  0  0  0  0 
 19  5  1  0  0  0  0 
 21  6  1  0  0  0  0 
M  END 
>  <HBA> 
2 
 
>  <HBD> 
0 
 
>  <TPSA> 
12.47 
 
>  <cid> 
7525 
 
>  <dipole> 
1.37 
 
>  <excitation_energy_1> 
5.594 
 
>  <excitation_energy_2> 
5.848 
 
>  <excitation_energy_3> 
5.949 
 
>  <excitation_energy_4> 
6.069 
 
>  <homo_energy> 
-5.84 
 
>  <homo_lumo_gap> 
8.264 
 
>  <logP> 
0.276 
 
>  <lumo_energy> 
2.425 
 
>  <melting_point> 
-10.3 
 
>  <molecular_refractivity> 
36.74 
 
>  <oscillator_strength_1> 
0.0125 
 
>  <oscillator_strength_2> 
0.0405 
 
>  <oscillator_strength_3> 
0.0756 
 
>  <oscillator_strength_4> 
0.0727 
 
>  <open_babel_can_smiles> 
CCN1CCOCC1 
 
>  <mulliken_charges> 
21 
1   -0.452967 
2   -0.099633 
3   -0.130569 
4   -0.135756 
5   -0.03335 
6   -0.032891 
7   -0.395656 
8   -0.467364 
9   0.144293 
10   0.156502 
11   0.147809 
12   0.135192 
13   0.110999 
14   0.117802 
15   0.136611 
16   0.141419 
17   0.116687 
18   0.127423 
19   0.142887 
20   0.143017 
21   0.127545 
 
>  <lowdin_charges> 
21 
1   -0.449279 
2   -0.192275 
3   -0.211305 
4   -0.215613 
5   -0.134621 
6   -0.132636 
7   -0.194768 
8   -0.274641 
9   0.154619 
10   0.153714 
11   0.147728 
12   0.142009 
13   0.11503 
14   0.118723 
15   0.146301 
16   0.150839 
17   0.11887 
18   0.129059 
19   0.150688 
20   0.14891 
21   0.128649 
 
$$$$ 
 
