PCCDB-ID:  25746 
public computational chemistry database (PCCDB) project, http://pccdb.org 
 
 30 30  0  0  0  0  0  0  0  0999 V2000 
    3.0421   -0.6934   -1.1206 C   0  0  0  0  0  0  0  0  0  0  0  0 
    2.4075    0.0819    0.0408 C   0  0  0  0  0  0  0  0  0  0  0  0 
    2.1331    4.8286    1.0673 C   0  0  0  0  0  0  0  0  0  0  0  0 
    2.6916    4.3976    2.4312 C   0  0  0  0  0  0  0  0  0  0  0  0 
    3.1345    4.9839   -0.0866 C   0  0  0  0  0  0  0  0  0  0  0  0 
    3.3600    3.0088    2.5167 C   0  0  0  0  0  0  0  0  0  0  0  0 
    3.8854    3.7166   -0.5483 C   0  0  0  0  0  0  0  0  0  0  0  0 
    2.6048    1.8464    1.8275 C   0  0  0  0  0  0  0  0  0  0  0  0 
    3.0263    2.4370   -0.6972 C   0  0  0  0  0  0  0  0  0  0  0  0 
    3.1240    1.3940    0.4412 C   0  0  0  0  0  0  0  0  0  0  0  0 
    2.5226   -1.6454   -1.2802 H   0  0  0  0  0  0  0  0  0  0  0  0 
    4.0952   -0.9216   -0.9134 H   0  0  0  0  0  0  0  0  0  0  0  0 
    3.0026   -0.1406   -2.0654 H   0  0  0  0  0  0  0  0  0  0  0  0 
    2.3783   -0.5784    0.9184 H   0  0  0  0  0  0  0  0  0  0  0  0 
    1.3576    0.3071   -0.1994 H   0  0  0  0  0  0  0  0  0  0  0  0 
    1.6274    5.7946    1.2034 H   0  0  0  0  0  0  0  0  0  0  0  0 
    1.3418    4.1298    0.7654 H   0  0  0  0  0  0  0  0  0  0  0  0 
    1.8564    4.4188    3.1460 H   0  0  0  0  0  0  0  0  0  0  0  0 
    3.4077    5.1528    2.7862 H   0  0  0  0  0  0  0  0  0  0  0  0 
    3.8736    5.7555    0.1736 H   0  0  0  0  0  0  0  0  0  0  0  0 
    2.5782    5.3820   -0.9474 H   0  0  0  0  0  0  0  0  0  0  0  0 
    3.4690    2.7733    3.5834 H   0  0  0  0  0  0  0  0  0  0  0  0 
    4.3840    3.0571    2.1293 H   0  0  0  0  0  0  0  0  0  0  0  0 
    4.7304    3.5120    0.1190 H   0  0  0  0  0  0  0  0  0  0  0  0 
    4.3405    3.9516   -1.5194 H   0  0  0  0  0  0  0  0  0  0  0  0 
    1.5323    2.0814    1.7589 H   0  0  0  0  0  0  0  0  0  0  0  0 
    2.6648    0.9672    2.4824 H   0  0  0  0  0  0  0  0  0  0  0  0 
    3.3331    1.9343   -1.6213 H   0  0  0  0  0  0  0  0  0  0  0  0 
    1.9709    2.7059   -0.8515 H   0  0  0  0  0  0  0  0  0  0  0  0 
    4.1942    1.1568    0.5667 H   0  0  0  0  0  0  0  0  0  0  0  0 
  1 12  1  0  0  0  0 
  1  2  1  0  0  0  0 
  2 10  1  0  0  0  0 
  2 14  1  0  0  0  0 
  3 16  1  0  0  0  0 
  3  4  1  0  0  0  0 
  4  6  1  0  0  0  0 
  4 19  1  0  0  0  0 
  4 18  1  0  0  0  0 
  5 20  1  0  0  0  0 
  5  3  1  0  0  0  0 
  6 22  1  0  0  0  0 
  7  5  1  0  0  0  0 
  7 24  1  0  0  0  0 
  8 27  1  0  0  0  0 
  8  6  1  0  0  0  0 
  9  7  1  0  0  0  0 
  9 10  1  0  0  0  0 
 10 30  1  0  0  0  0 
 10  8  1  0  0  0  0 
 11  1  1  0  0  0  0 
 13  1  1  0  0  0  0 
 15  2  1  0  0  0  0 
 17  3  1  0  0  0  0 
 21  5  1  0  0  0  0 
 23  6  1  0  0  0  0 
 25  7  1  0  0  0  0 
 26  8  1  0  0  0  0 
 28  9  1  0  0  0  0 
 29  9  1  0  0  0  0 
M  END 
>  <HBA> 
0 
 
>  <HBD> 
0 
 
>  <TPSA> 
0.0 
 
>  <cid> 
25746 
 
>  <dipole> 
0.04 
 
>  <excitation_energy_1> 
7.183 
 
>  <excitation_energy_2> 
7.43 
 
>  <excitation_energy_3> 
7.445 
 
>  <excitation_energy_4> 
7.51 
 
>  <homo_energy> 
-7.655 
 
>  <homo_lumo_gap> 
9.837 
 
>  <logP> 
3.757 
 
>  <lumo_energy> 
2.182 
 
>  <melting_point> 
-6.64 
 
>  <molecular_refractivity> 
48.07 
 
>  <oscillator_strength_1> 
0.0012 
 
>  <oscillator_strength_2> 
0.0028 
 
>  <oscillator_strength_3> 
0.0184 
 
>  <oscillator_strength_4> 
0.0129 
 
>  <open_babel_can_smiles> 
CCC1CCCCCCC1 
 
>  <mulliken_charges> 
30 
1   -0.449656 
2   -0.252583 
3   -0.257045 
4   -0.256673 
5   -0.256725 
6   -0.264604 
7   -0.265256 
8   -0.261542 
9   -0.264483 
10   -0.075586 
11   0.141346 
12   0.140867 
13   0.146445 
14   0.127321 
15   0.127497 
16   0.127046 
17   0.132092 
18   0.127575 
19   0.125101 
20   0.125271 
21   0.127664 
22   0.128839 
23   0.134839 
24   0.135309 
25   0.128712 
26   0.12848 
27   0.126538 
28   0.132494 
29   0.127909 
30   0.112809 
 
>  <lowdin_charges> 
30 
1   -0.44607 
2   -0.273573 
3   -0.28392 
4   -0.279372 
5   -0.279439 
6   -0.281932 
7   -0.284521 
8   -0.279829 
9   -0.282349 
10   -0.123713 
11   0.149781 
12   0.144521 
13   0.146507 
14   0.140303 
15   0.13649 
16   0.143392 
17   0.139136 
18   0.140226 
19   0.13999 
20   0.139841 
21   0.140656 
22   0.141497 
23   0.139079 
24   0.140687 
25   0.142558 
26   0.13682 
27   0.142548 
28   0.145356 
29   0.13701 
30   0.128317 
 
$$$$ 
 
