PCCDB-ID:  8075 
public computational chemistry database (PCCDB) project, http://pccdb.org 
 
 16 15  0  0  0  0  0  0  0  0999 V2000 
    2.2795    1.1100   -1.7690 C   0  0  0  0  0  0  0  0  0  0  0  0 
    3.2991    1.8587   -2.6244 C   0  0  0  0  0  0  0  0  0  0  0  0 
    6.8697    1.9135   -1.6519 C   0  0  0  0  0  0  0  0  0  0  0  0 
    5.7609    0.8576   -1.6045 C   0  0  0  0  0  0  0  0  0  0  0  0 
    6.3788    3.2197   -1.9032 O   0  0  0  0  0  0  0  0  0  0  0  0 
    4.7454    0.8353   -3.1450 S   0  0  0  0  0  0  0  0  0  0  0  0 
    1.4419    1.7713   -1.5131 H   0  0  0  0  0  0  0  0  0  0  0  0 
    2.7225    0.7568   -0.8314 H   0  0  0  0  0  0  0  0  0  0  0  0 
    1.8824    0.2404   -2.3019 H   0  0  0  0  0  0  0  0  0  0  0  0 
    3.6847    2.7432   -2.1089 H   0  0  0  0  0  0  0  0  0  0  0  0 
    2.8435    2.1937   -3.5623 H   0  0  0  0  0  0  0  0  0  0  0  0 
    7.6230    1.6225   -2.4004 H   0  0  0  0  0  0  0  0  0  0  0  0 
    7.3701    1.9567   -0.6774 H   0  0  0  0  0  0  0  0  0  0  0  0 
    5.0917    1.0389   -0.7578 H   0  0  0  0  0  0  0  0  0  0  0  0 
    6.1922   -0.1417   -1.4818 H   0  0  0  0  0  0  0  0  0  0  0  0 
    6.0174    3.1974   -2.8059 H   0  0  0  0  0  0  0  0  0  0  0  0 
  1  7  1  0  0  0  0 
  1  8  1  0  0  0  0 
  2 10  1  0  0  0  0 
  2  1  1  0  0  0  0 
  3  4  1  0  0  0  0 
  3 13  1  0  0  0  0 
  4 15  1  0  0  0  0 
  4 14  1  0  0  0  0 
  5  3  1  0  0  0  0 
  6  2  1  0  0  0  0 
  6  4  1  0  0  0  0 
  9  1  1  0  0  0  0 
 11  2  1  0  0  0  0 
 12  3  1  0  0  0  0 
 16  5  1  0  0  0  0 
M  END 
>  <HBA> 
2 
 
>  <HBD> 
1 
 
>  <TPSA> 
45.53 
 
>  <cid> 
8075 
 
>  <dipole> 
1.01 
 
>  <excitation_energy_1> 
5.312 
 
>  <excitation_energy_2> 
5.643 
 
>  <excitation_energy_3> 
6.048 
 
>  <excitation_energy_4> 
6.326 
 
>  <homo_energy> 
-6.166 
 
>  <homo_lumo_gap> 
7.14 
 
>  <logP> 
0.732 
 
>  <lumo_energy> 
0.974 
 
>  <melting_point> 
2.35 
 
>  <molecular_refractivity> 
30.09 
 
>  <oscillator_strength_1> 
0.0016 
 
>  <oscillator_strength_2> 
0.0512 
 
>  <oscillator_strength_3> 
0.0123 
 
>  <oscillator_strength_4> 
0.0065 
 
>  <open_babel_can_smiles> 
OCCSCC 
 
>  <mulliken_charges> 
16 
1   -0.432633 
2   -0.415818 
3   -0.022691 
4   -0.429728 
5   -0.613201 
6   0.049262 
7   0.150465 
8   0.153515 
9   0.163353 
10   0.184188 
11   0.175009 
12   0.133893 
13   0.149893 
14   0.17911 
15   0.172377 
16   0.403006 
 
>  <lowdin_charges> 
16 
1   -0.448785 
2   -0.375193 
3   -0.139942 
4   -0.394773 
5   -0.466759 
6   0.07059 
7   0.154591 
8   0.151923 
9   0.159411 
10   0.163278 
11   0.16664 
12   0.133623 
13   0.14939 
14   0.164936 
15   0.167302 
16   0.343767 
 
$$$$ 
 
