PCCDB-ID:  11843 
public computational chemistry database (PCCDB) project, http://pccdb.org 
 
 17 17  0  0  0  0  0  0  0  0999 V2000 
    0.9792    0.0470    0.1831 C   0  0  0  0  0  0  0  0  0  0  0  0 
    5.2917    0.1232   -0.2102 C   0  0  0  0  0  0  0  0  0  0  0  0 
    4.5936    1.3209   -0.0838 C   0  0  0  0  0  0  0  0  0  0  0  0 
    4.6113   -1.0925   -0.2119 C   0  0  0  0  0  0  0  0  0  0  0  0 
    2.4798    0.0922    0.0459 C   0  0  0  0  0  0  0  0  0  0  0  0 
    3.1983    1.2966    0.0420 C   0  0  0  0  0  0  0  0  0  0  0  0 
    3.2183   -1.0939   -0.0840 C   0  0  0  0  0  0  0  0  0  0  0  0 
    2.4757    2.4562    0.1680 O   0  0  0  0  0  0  0  0  0  0  0  0 
    2.4939   -2.2582   -0.0785 O   0  0  0  0  0  0  0  0  0  0  0  0 
    0.5657    1.0516    0.2817 H   0  0  0  0  0  0  0  0  0  0  0  0 
    0.6833   -0.5413    1.0599 H   0  0  0  0  0  0  0  0  0  0  0  0 
    0.5194   -0.4369   -0.6870 H   0  0  0  0  0  0  0  0  0  0  0  0 
    6.3736    0.1368   -0.3080 H   0  0  0  0  0  0  0  0  0  0  0  0 
    5.1225    2.2719   -0.0815 H   0  0  0  0  0  0  0  0  0  0  0  0 
    5.1514   -2.0318   -0.3115 H   0  0  0  0  0  0  0  0  0  0  0  0 
    3.0905    3.2051    0.1470 H   0  0  0  0  0  0  0  0  0  0  0  0 
    3.1060   -3.0046   -0.1691 H   0  0  0  0  0  0  0  0  0  0  0  0 
  1 10  1  0  0  0  0 
  1 11  1  0  0  0  0 
  2  3  1  0  0  0  0 
  3 14  1  0  0  0  0 
  3  6  2  0  0  0  0 
  4  2  2  0  0  0  0 
  4  7  1  0  0  0  0 
  5  1  1  0  0  0  0 
  6  5  1  0  0  0  0 
  6  8  1  0  0  0  0 
  7  9  1  0  0  0  0 
  7  5  2  0  0  0  0 
 12  1  1  0  0  0  0 
 13  2  1  0  0  0  0 
 15  4  1  0  0  0  0 
 16  8  1  0  0  0  0 
 17  9  1  0  0  0  0 
M  END 
>  <HBA> 
2 
 
>  <HBD> 
2 
 
>  <TPSA> 
40.46 
 
>  <cid> 
11843 
 
>  <dipole> 
1.97 
 
>  <excitation_energy_1> 
5.007 
 
>  <excitation_energy_2> 
5.034 
 
>  <excitation_energy_3> 
5.216 
 
>  <excitation_energy_4> 
5.376 
 
>  <homo_energy> 
-5.755 
 
>  <homo_lumo_gap> 
6.057 
 
>  <logP> 
1.406 
 
>  <lumo_energy> 
0.302 
 
>  <melting_point> 
89.1 
 
>  <molecular_refractivity> 
35.45 
 
>  <oscillator_strength_1> 
0.0 
 
>  <oscillator_strength_2> 
0.0088 
 
>  <oscillator_strength_3> 
0.0015 
 
>  <oscillator_strength_4> 
0.0076 
 
>  <open_babel_can_smiles> 
Oc1cccc(c1C)O 
 
>  <mulliken_charges> 
17 
1   -0.514871 
2   -0.142609 
3   -0.196026 
4   -0.195569 
5   0.098331 
6   0.288369 
7   0.288148 
8   -0.648223 
9   -0.642277 
10   0.17342 
11   0.162481 
12   0.162423 
13   0.128764 
14   0.111178 
15   0.111558 
16   0.40758 
17   0.407322 
 
>  <lowdin_charges> 
17 
1   -0.43958 
2   -0.139085 
3   -0.235938 
4   -0.236318 
5   -0.05868 
6   0.101806 
7   0.103298 
8   -0.383054 
9   -0.380256 
10   0.167324 
11   0.162577 
12   0.162705 
13   0.156461 
14   0.150972 
15   0.151393 
16   0.358153 
17   0.358222 
 
$$$$ 
 
