PCCDB-ID:  30889 
public computational chemistry database (PCCDB) project, http://pccdb.org 
 
 28 27  0  0  0  0  0  0  0  0999 V2000 
    2.8289   -2.9047   -0.8709 C   0  0  0  0  0  0  0  0  0  0  0  0 
    4.9038   -3.7359   -1.9968 C   0  0  0  0  0  0  0  0  0  0  0  0 
    3.7664   -1.6309   -2.7950 C   0  0  0  0  0  0  0  0  0  0  0  0 
    7.2229   -2.3441   -0.1222 C   0  0  0  0  0  0  0  0  0  0  0  0 
    6.6964   -0.6053   -1.8693 C   0  0  0  0  0  0  0  0  0  0  0  0 
    6.3288   -0.1051    0.5477 C   0  0  0  0  0  0  0  0  0  0  0  0 
    4.1418   -2.4658   -1.5518 C   0  0  0  0  0  0  0  0  0  0  0  0 
    6.2493   -1.2095   -0.5288 C   0  0  0  0  0  0  0  0  0  0  0  0 
    4.8231   -1.6151   -0.5442 N   0  0  0  0  0  0  0  0  0  0  0  0 
    2.2029   -3.4783   -1.5625 H   0  0  0  0  0  0  0  0  0  0  0  0 
    2.2625   -2.0302   -0.5330 H   0  0  0  0  0  0  0  0  0  0  0  0 
    3.0303   -3.5413    0.0011 H   0  0  0  0  0  0  0  0  0  0  0  0 
    4.2788   -4.3366   -2.6694 H   0  0  0  0  0  0  0  0  0  0  0  0 
    5.1676   -4.3626   -1.1373 H   0  0  0  0  0  0  0  0  0  0  0  0 
    5.8238   -3.4947   -2.5387 H   0  0  0  0  0  0  0  0  0  0  0  0 
    3.0995   -2.2051   -3.4495 H   0  0  0  0  0  0  0  0  0  0  0  0 
    4.6399   -1.3479   -3.3873 H   0  0  0  0  0  0  0  0  0  0  0  0 
    3.2507   -0.7153   -2.4884 H   0  0  0  0  0  0  0  0  0  0  0  0 
    8.2369   -1.9519    0.0252 H   0  0  0  0  0  0  0  0  0  0  0  0 
    7.2793   -3.1329   -0.8763 H   0  0  0  0  0  0  0  0  0  0  0  0 
    6.9058   -2.8024    0.8233 H   0  0  0  0  0  0  0  0  0  0  0  0 
    7.7040   -0.1871   -1.7636 H   0  0  0  0  0  0  0  0  0  0  0  0 
    6.0241    0.2006   -2.1797 H   0  0  0  0  0  0  0  0  0  0  0  0 
    6.7371   -1.3512   -2.6691 H   0  0  0  0  0  0  0  0  0  0  0  0 
    7.3537    0.2692    0.6551 H   0  0  0  0  0  0  0  0  0  0  0  0 
    6.0117   -0.4892    1.5260 H   0  0  0  0  0  0  0  0  0  0  0  0 
    5.6713    0.7297    0.2861 H   0  0  0  0  0  0  0  0  0  0  0  0 
    4.6170   -1.9937    0.3776 H   0  0  0  0  0  0  0  0  0  0  0  0 
  1 11  1  0  0  0  0 
  1 12  1  0  0  0  0 
  2  7  1  0  0  0  0 
  2 14  1  0  0  0  0 
  3 18  1  0  0  0  0 
  3  7  1  0  0  0  0 
  4 19  1  0  0  0  0 
  4 21  1  0  0  0  0 
  5 22  1  0  0  0  0 
  5  8  1  0  0  0  0 
  6 25  1  0  0  0  0 
  6 26  1  0  0  0  0 
  7  1  1  0  0  0  0 
  7  9  1  0  0  0  0 
  8  4  1  0  0  0  0 
  8  6  1  0  0  0  0 
  9  8  1  0  0  0  0 
  9 28  1  0  0  0  0 
 10  1  1  0  0  0  0 
 13  2  1  0  0  0  0 
 15  2  1  0  0  0  0 
 16  3  1  0  0  0  0 
 17  3  1  0  0  0  0 
 20  4  1  0  0  0  0 
 23  5  1  0  0  0  0 
 24  5  1  0  0  0  0 
 27  6  1  0  0  0  0 
M  END 
>  <HBA> 
1 
 
>  <HBD> 
1 
 
>  <TPSA> 
12.03 
 
>  <cid> 
30889 
 
>  <dipole> 
0.69 
 
>  <excitation_energy_1> 
5.071 
 
>  <excitation_energy_2> 
5.686 
 
>  <excitation_energy_3> 
5.722 
 
>  <excitation_energy_4> 
5.912 
 
>  <homo_energy> 
-5.546 
 
>  <homo_lumo_gap> 
7.374 
 
>  <logP> 
2.564 
 
>  <lumo_energy> 
1.829 
 
>  <melting_point> 
21.33 
 
>  <molecular_refractivity> 
43.45 
 
>  <oscillator_strength_1> 
0.03 
 
>  <oscillator_strength_2> 
0.0004 
 
>  <oscillator_strength_3> 
0.0016 
 
>  <oscillator_strength_4> 
0.0019 
 
>  <open_babel_can_smiles> 
CC(NC(C)(C)C)(C)C 
 
>  <mulliken_charges> 
28 
1   -0.462172 
2   -0.446667 
3   -0.432881 
4   -0.443096 
5   -0.451787 
6   -0.431577 
7   0.233987 
8   0.219761 
9   -0.585493 
10   0.14247 
11   0.154276 
12   0.132294 
13   0.135072 
14   0.136487 
15   0.143338 
16   0.129538 
17   0.141031 
18   0.147396 
19   0.134314 
20   0.144939 
21   0.127322 
22   0.138326 
23   0.153186 
24   0.143932 
25   0.132762 
26   0.128464 
27   0.151207 
28   0.283572 
 
>  <lowdin_charges> 
28 
1   -0.448361 
2   -0.459792 
3   -0.45145 
4   -0.459483 
5   -0.447046 
6   -0.442265 
7   0.075329 
8   0.074875 
9   -0.366975 
10   0.15214 
11   0.155178 
12   0.142832 
13   0.149303 
14   0.147121 
15   0.146747 
16   0.145536 
17   0.150383 
18   0.153532 
19   0.145829 
20   0.151592 
21   0.142083 
22   0.149568 
23   0.155971 
24   0.147314 
25   0.14359 
26   0.141953 
27   0.154738 
28   0.249758 
 
$$$$ 
 
