PCCDB-ID:  51073 
public computational chemistry database (PCCDB) project, http://pccdb.org 
 
 37 38  0  0  0  0  0  0  0  0999 V2000 
    0.9312    0.4843    0.3801 C   0  0  0  0  0  0  0  0  0  0  0  0 
    1.1085   -4.5807   -0.9090 C   0  0  0  0  0  0  0  0  0  0  0  0 
    2.5311   -4.6595   -2.8354 C   0  0  0  0  0  0  0  0  0  0  0  0 
    7.0980    0.7997    0.2591 C   0  0  0  0  0  0  0  0  0  0  0  0 
    6.9428   -0.5463   -0.4586 C   0  0  0  0  0  0  0  0  0  0  0  0 
    5.9225    1.7203   -0.1054 C   0  0  0  0  0  0  0  0  0  0  0  0 
    2.7644   -2.1890    0.0327 C   0  0  0  0  0  0  0  0  0  0  0  0 
    5.6650   -1.2614   -0.0104 C   0  0  0  0  0  0  0  0  0  0  0  0 
    2.5951   -2.7203   -1.4064 C   0  0  0  0  0  0  0  0  0  0  0  0 
    3.3259    1.5035    0.2095 C   0  0  0  0  0  0  0  0  0  0  0  0 
    2.4243    0.3983    0.2372 C   0  0  0  0  0  0  0  0  0  0  0  0 
    4.6028    1.0162    0.0379 C   0  0  0  0  0  0  0  0  0  0  0  0 
    3.1849   -0.7500    0.0862 C   0  0  0  0  0  0  0  0  0  0  0  0 
    2.3881   -4.1675   -1.4715 N   0  0  0  0  0  0  0  0  0  0  0  0 
    4.5137   -0.3624   -0.0548 N   0  0  0  0  0  0  0  0  0  0  0  0 
    0.6483    1.1932    1.1682 H   0  0  0  0  0  0  0  0  0  0  0  0 
    0.4878   -0.4842    0.6368 H   0  0  0  0  0  0  0  0  0  0  0  0 
    0.4455    0.8254   -0.5446 H   0  0  0  0  0  0  0  0  0  0  0  0 
    1.0206   -5.6711   -0.9672 H   0  0  0  0  0  0  0  0  0  0  0  0 
    0.2391   -4.1396   -1.4377 H   0  0  0  0  0  0  0  0  0  0  0  0 
    1.0424   -4.2995    0.1458 H   0  0  0  0  0  0  0  0  0  0  0  0 
    2.4436   -5.7518   -2.8443 H   0  0  0  0  0  0  0  0  0  0  0  0 
    3.5206   -4.3948   -3.2242 H   0  0  0  0  0  0  0  0  0  0  0  0 
    1.7706   -4.2529   -3.5320 H   0  0  0  0  0  0  0  0  0  0  0  0 
    8.0485    1.2735   -0.0126 H   0  0  0  0  0  0  0  0  0  0  0  0 
    7.1207    0.6329    1.3451 H   0  0  0  0  0  0  0  0  0  0  0  0 
    7.7972   -1.2034   -0.2583 H   0  0  0  0  0  0  0  0  0  0  0  0 
    6.9102   -0.3806   -1.5441 H   0  0  0  0  0  0  0  0  0  0  0  0 
    6.0586    2.0631   -1.1437 H   0  0  0  0  0  0  0  0  0  0  0  0 
    5.9281    2.6239    0.5156 H   0  0  0  0  0  0  0  0  0  0  0  0 
    3.4832   -2.8368    0.5515 H   0  0  0  0  0  0  0  0  0  0  0  0 
    1.8190   -2.2867    0.5765 H   0  0  0  0  0  0  0  0  0  0  0  0 
    5.7958   -1.6374    1.0156 H   0  0  0  0  0  0  0  0  0  0  0  0 
    5.4697   -2.1288   -0.6490 H   0  0  0  0  0  0  0  0  0  0  0  0 
    3.5079   -2.4952   -1.9714 H   0  0  0  0  0  0  0  0  0  0  0  0 
    1.7776   -2.1602   -1.9039 H   0  0  0  0  0  0  0  0  0  0  0  0 
    3.0589    2.5506    0.2886 H   0  0  0  0  0  0  0  0  0  0  0  0 
  1 17  1  0  0  0  0 
  1 16  1  0  0  0  0 
  2 21  1  0  0  0  0 
  3 14  1  0  0  0  0 
  4 26  1  0  0  0  0 
  5 27  1  0  0  0  0 
  5  8  1  0  0  0  0 
  5  4  1  0  0  0  0 
  6 12  1  0  0  0  0 
  6  4  1  0  0  0  0 
  6 30  1  0  0  0  0 
  7 13  1  0  0  0  0 
  7 31  1  0  0  0  0 
  7 32  1  0  0  0  0 
  8 33  1  0  0  0  0 
  9  7  1  0  0  0  0 
 10 11  1  0  0  0  0 
 10 37  1  0  0  0  0 
 11  1  1  0  0  0  0 
 12 10  2  0  0  0  0 
 13 11  2  0  0  0  0 
 14  9  1  0  0  0  0 
 14  2  1  0  0  0  0 
 15  8  1  0  0  0  0 
 15 12  1  0  0  0  0 
 15 13  1  0  0  0  0 
 18  1  1  0  0  0  0 
 19  2  1  0  0  0  0 
 20  2  1  0  0  0  0 
 22  3  1  0  0  0  0 
 23  3  1  0  0  0  0 
 24  3  1  0  0  0  0 
 25  4  1  0  0  0  0 
 28  5  1  0  0  0  0 
 29  6  1  0  0  0  0 
 34  8  1  0  0  0  0 
 35  9  1  0  0  0  0 
 36  9  1  0  0  0  0 
M  END 
>  <HBA> 
2 
 
>  <HBD> 
0 
 
>  <TPSA> 
8.17 
 
>  <cid> 
51073 
 
>  <dipole> 
1.55 
 
>  <excitation_energy_1> 
4.409 
 
>  <excitation_energy_2> 
4.723 
 
>  <excitation_energy_3> 
4.842 
 
>  <excitation_energy_4> 
4.926 
 
>  <homo_energy> 
-4.865 
 
>  <homo_lumo_gap> 
6.133 
 
>  <logP> 
2.237 
 
>  <lumo_energy> 
1.268 
 
>  <melting_point> 
41.89 
 
>  <molecular_refractivity> 
65.41 
 
>  <oscillator_strength_1> 
0.0082 
 
>  <oscillator_strength_2> 
0.0341 
 
>  <oscillator_strength_3> 
0.0159 
 
>  <oscillator_strength_4> 
0.0012 
 
>  <open_babel_can_smiles> 
CN(CCc1c(C)cc2n1CCCC2)C 
 
>  <mulliken_charges> 
37 
1   -0.534503 
2   -0.301257 
3   -0.292412 
4   -0.270899 
5   -0.283694 
6   -0.32948 
7   -0.362977 
8   -0.130346 
9   -0.105852 
10   -0.279177 
11   0.079199 
12   0.328825 
13   0.263427 
14   -0.369055 
15   -0.511588 
16   0.150185 
17   0.14387 
18   0.152279 
19   0.146929 
20   0.11661 
21   0.154287 
22   0.14596 
23   0.145128 
24   0.117473 
25   0.13685 
26   0.140271 
27   0.142102 
28   0.145618 
29   0.146901 
30   0.149818 
31   0.14821 
32   0.152052 
33   0.151411 
34   0.158993 
35   0.13523 
36   0.115225 
37   0.104388 
 
>  <lowdin_charges> 
37 
1   -0.440632 
2   -0.356015 
3   -0.354376 
4   -0.274408 
5   -0.279315 
6   -0.273423 
7   -0.285215 
8   -0.19198 
9   -0.202177 
10   -0.240188 
11   -0.056353 
12   -0.004363 
13   -0.02198 
14   -0.186451 
15   -0.031132 
16   0.154654 
17   0.150005 
18   0.153182 
19   0.147767 
20   0.120327 
21   0.149373 
22   0.146171 
23   0.147347 
24   0.121051 
25   0.147067 
26   0.141625 
27   0.152336 
28   0.144553 
29   0.146636 
30   0.156736 
31   0.153273 
32   0.155147 
33   0.142705 
34   0.155133 
35   0.141813 
36   0.121091 
37   0.150014 
 
$$$$ 
 
