PCCDB-ID:  70942 
public computational chemistry database (PCCDB) project, http://pccdb.org 
 
 23 23  0  0  0  0  0  0  0  0999 V2000 
    1.0782    0.0088    0.0551 C   0  0  0  0  0  0  0  0  0  0  0  0 
    3.0276    0.0247   -1.5150 C   0  0  0  0  0  0  0  0  0  0  0  0 
    4.6935   -1.2235    0.8725 C   0  0  0  0  0  0  0  0  0  0  0  0 
    3.1681   -1.2578    0.6818 C   0  0  0  0  0  0  0  0  0  0  0  0 
    5.1245    0.0879    1.5508 C   0  0  0  0  0  0  0  0  0  0  0  0 
    3.1686    1.2538    0.7040 C   0  0  0  0  0  0  0  0  0  0  0  0 
    2.6130    0.0023   -0.0311 C   0  0  0  0  0  0  0  0  0  0  0  0 
    4.6206    1.2964    0.8901 N   0  0  0  0  0  0  0  0  0  0  0  0 
    0.6508   -0.8737   -0.4374 H   0  0  0  0  0  0  0  0  0  0  0  0 
    0.6561    0.8977   -0.4311 H   0  0  0  0  0  0  0  0  0  0  0  0 
    0.7392    0.0054    1.0986 H   0  0  0  0  0  0  0  0  0  0  0  0 
    2.6507   -0.8612   -2.0408 H   0  0  0  0  0  0  0  0  0  0  0  0 
    4.1149    0.0441   -1.6473 H   0  0  0  0  0  0  0  0  0  0  0  0 
    2.6183    0.9093   -2.0193 H   0  0  0  0  0  0  0  0  0  0  0  0 
    5.2005   -1.3155   -0.0979 H   0  0  0  0  0  0  0  0  0  0  0  0 
    5.0169   -2.0840    1.4738 H   0  0  0  0  0  0  0  0  0  0  0  0 
    2.6945   -1.3300    1.6726 H   0  0  0  0  0  0  0  0  0  0  0  0 
    2.8696   -2.1600    0.1300 H   0  0  0  0  0  0  0  0  0  0  0  0 
    6.2172    0.1565    1.6121 H   0  0  0  0  0  0  0  0  0  0  0  0 
    4.7486    0.1006    2.5848 H   0  0  0  0  0  0  0  0  0  0  0  0 
    2.7137    1.3016    1.7047 H   0  0  0  0  0  0  0  0  0  0  0  0 
    2.8615    2.1659    0.1754 H   0  0  0  0  0  0  0  0  0  0  0  0 
    5.0774    1.3994   -0.0151 H   0  0  0  0  0  0  0  0  0  0  0  0 
  1 11  1  0  0  0  0 
  2  7  1  0  0  0  0 
  3 16  1  0  0  0  0 
  3  5  1  0  0  0  0 
  4  3  1  0  0  0  0 
  4 17  1  0  0  0  0 
  5 19  1  0  0  0  0 
  5 20  1  0  0  0  0 
  6  8  1  0  0  0  0 
  6 21  1  0  0  0  0 
  7  1  1  0  0  0  0 
  7  4  1  0  0  0  0 
  7  6  1  0  0  0  0 
  8  5  1  0  0  0  0 
  9  1  1  0  0  0  0 
 10  1  1  0  0  0  0 
 12  2  1  0  0  0  0 
 13  2  1  0  0  0  0 
 14  2  1  0  0  0  0 
 15  3  1  0  0  0  0 
 18  4  1  0  0  0  0 
 22  6  1  0  0  0  0 
 23  8  1  0  0  0  0 
M  END 
>  <HBA> 
1 
 
>  <HBD> 
1 
 
>  <TPSA> 
12.03 
 
>  <cid> 
70942 
 
>  <dipole> 
1.15 
 
>  <excitation_energy_1> 
5.136 
 
>  <excitation_energy_2> 
5.543 
 
>  <excitation_energy_3> 
5.733 
 
>  <excitation_energy_4> 
5.871 
 
>  <homo_energy> 
-5.652 
 
>  <homo_lumo_gap> 
7.622 
 
>  <logP> 
1.725 
 
>  <lumo_energy> 
1.97 
 
>  <melting_point> 
41.22 
 
>  <molecular_refractivity> 
40.11 
 
>  <oscillator_strength_1> 
0.002 
 
>  <oscillator_strength_2> 
0.0134 
 
>  <oscillator_strength_3> 
0.0202 
 
>  <oscillator_strength_4> 
0.0199 
 
>  <open_babel_can_smiles> 
CC1(C)CCCNC1 
 
>  <mulliken_charges> 
23 
1   -0.448385 
2   -0.454505 
3   -0.269178 
4   -0.259084 
5   -0.144518 
6   -0.145926 
7   0.096785 
8   -0.53261 
9   0.138566 
10   0.137487 
11   0.13816 
12   0.14127 
13   0.13292 
14   0.138669 
15   0.127898 
16   0.128657 
17   0.124313 
18   0.126337 
19   0.135344 
20   0.136051 
21   0.131783 
22   0.130205 
23   0.28976 
 
>  <lowdin_charges> 
23 
1   -0.442098 
2   -0.447753 
3   -0.297228 
4   -0.278571 
5   -0.205122 
6   -0.210854 
7   -0.006904 
8   -0.35899 
9   0.148341 
10   0.147125 
11   0.14524 
12   0.149579 
13   0.139719 
14   0.147691 
15   0.136543 
16   0.145334 
17   0.137768 
18   0.141292 
19   0.142089 
20   0.1374 
21   0.138611 
22   0.142405 
23   0.248382 
 
$$$$ 
 
