PCCDB-ID:  26565 
public computational chemistry database (PCCDB) project, http://pccdb.org 
 
 30 29  0  0  0  0  0  0  0  0999 V2000 
    1.1148   -0.5791    0.4536 C   0  0  0  0  0  0  0  0  0  0  0  0 
    4.6064    1.1135   -2.6017 C   0  0  0  0  0  0  0  0  0  0  0  0 
    5.4012   -2.5109    1.1091 C   0  0  0  0  0  0  0  0  0  0  0  0 
    2.6130   -0.2615    0.3781 C   0  0  0  0  0  0  0  0  0  0  0  0 
    5.1870    0.6091   -1.2746 C   0  0  0  0  0  0  0  0  0  0  0  0 
    5.6286   -1.1446    0.4496 C   0  0  0  0  0  0  0  0  0  0  0  0 
    3.3262   -1.0791   -0.7093 C   0  0  0  0  0  0  0  0  0  0  0  0 
    5.3263   -1.8222   -1.9710 C   0  0  0  0  0  0  0  0  0  0  0  0 
    4.8547   -0.8550   -0.8680 C   0  0  0  0  0  0  0  0  0  0  0  0 
    6.7167   -1.6223   -2.2209 O   0  0  0  0  0  0  0  0  0  0  0  0 
    0.6199    0.0115    1.2331 H   0  0  0  0  0  0  0  0  0  0  0  0 
    0.9443   -1.6389    0.6802 H   0  0  0  0  0  0  0  0  0  0  0  0 
    0.6137   -0.3612   -0.4977 H   0  0  0  0  0  0  0  0  0  0  0  0 
    4.8839    2.1624   -2.7580 H   0  0  0  0  0  0  0  0  0  0  0  0 
    3.5118    1.0602   -2.6302 H   0  0  0  0  0  0  0  0  0  0  0  0 
    4.9953    0.5461   -3.4542 H   0  0  0  0  0  0  0  0  0  0  0  0 
    6.0108   -2.5952    2.0163 H   0  0  0  0  0  0  0  0  0  0  0  0 
    5.6883   -3.3389    0.4512 H   0  0  0  0  0  0  0  0  0  0  0  0 
    4.3570   -2.6647    1.4040 H   0  0  0  0  0  0  0  0  0  0  0  0 
    3.0707   -0.4544    1.3567 H   0  0  0  0  0  0  0  0  0  0  0  0 
    2.7420    0.8114    0.1862 H   0  0  0  0  0  0  0  0  0  0  0  0 
    4.8585    1.2745   -0.4658 H   0  0  0  0  0  0  0  0  0  0  0  0 
    6.2779    0.7011   -1.3186 H   0  0  0  0  0  0  0  0  0  0  0  0 
    6.6970   -1.0340    0.2325 H   0  0  0  0  0  0  0  0  0  0  0  0 
    5.3834   -0.3579    1.1752 H   0  0  0  0  0  0  0  0  0  0  0  0 
    2.8383   -0.8706   -1.6717 H   0  0  0  0  0  0  0  0  0  0  0  0 
    3.1421   -2.1459   -0.5171 H   0  0  0  0  0  0  0  0  0  0  0  0 
    4.7390   -1.6487   -2.8862 H   0  0  0  0  0  0  0  0  0  0  0  0 
    5.1331   -2.8600   -1.6583 H   0  0  0  0  0  0  0  0  0  0  0  0 
    6.9899   -2.2564   -2.9001 H   0  0  0  0  0  0  0  0  0  0  0  0 
  1 12  1  0  0  0  0 
  1 11  1  0  0  0  0 
  2  5  1  0  0  0  0 
  3 19  1  0  0  0  0 
  3 17  1  0  0  0  0 
  4  1  1  0  0  0  0 
  4 20  1  0  0  0  0 
  5  9  1  0  0  0  0 
  5 22  1  0  0  0  0 
  6  3  1  0  0  0  0 
  6 25  1  0  0  0  0 
  7 27  1  0  0  0  0 
  7  4  1  0  0  0  0 
  8 29  1  0  0  0  0 
  8  9  1  0  0  0  0 
  9  7  1  0  0  0  0 
  9  6  1  0  0  0  0 
 10  8  1  0  0  0  0 
 13  1  1  0  0  0  0 
 14  2  1  0  0  0  0 
 15  2  1  0  0  0  0 
 16  2  1  0  0  0  0 
 18  3  1  0  0  0  0 
 21  4  1  0  0  0  0 
 23  5  1  0  0  0  0 
 24  6  1  0  0  0  0 
 26  7  1  0  0  0  0 
 28  8  1  0  0  0  0 
 30 10  1  0  0  0  0 
M  END 
>  <HBA> 
1 
 
>  <HBD> 
1 
 
>  <TPSA> 
20.23 
 
>  <cid> 
26565 
 
>  <dipole> 
1.32 
 
>  <excitation_energy_1> 
6.226 
 
>  <excitation_energy_2> 
7.134 
 
>  <excitation_energy_3> 
7.18 
 
>  <excitation_energy_4> 
7.228 
 
>  <homo_energy> 
-7.116 
 
>  <homo_lumo_gap> 
8.879 
 
>  <logP> 
2.585 
 
>  <lumo_energy> 
1.763 
 
>  <melting_point> 
8.75 
 
>  <molecular_refractivity> 
46.28 
 
>  <oscillator_strength_1> 
0.0006 
 
>  <oscillator_strength_2> 
0.0048 
 
>  <oscillator_strength_3> 
0.0067 
 
>  <oscillator_strength_4> 
0.0063 
 
>  <open_babel_can_smiles> 
CCCC(CO)(CC)CC 
 
>  <mulliken_charges> 
30 
1   -0.442523 
2   -0.459953 
3   -0.45965 
4   -0.259402 
5   -0.258236 
6   -0.262324 
7   -0.269745 
8   -0.039437 
9   0.07905 
10   -0.626617 
11   0.141424 
12   0.140363 
13   0.140605 
14   0.14085 
15   0.139869 
16   0.149058 
17   0.141866 
18   0.144259 
19   0.14265 
20   0.138279 
21   0.137617 
22   0.126645 
23   0.153313 
24   0.1542 
25   0.127415 
26   0.126859 
27   0.126098 
28   0.117684 
29   0.117382 
30   0.392403 
 
>  <lowdin_charges> 
30 
1   -0.443222 
2   -0.447099 
3   -0.449708 
4   -0.273421 
5   -0.2766 
6   -0.278195 
7   -0.278003 
8   -0.13839 
9   -0.003645 
10   -0.47531 
11   0.150132 
12   0.143988 
13   0.145593 
14   0.149408 
15   0.141521 
16   0.149866 
17   0.151209 
18   0.147032 
19   0.143879 
20   0.142105 
21   0.140328 
22   0.139898 
23   0.151802 
24   0.152419 
25   0.140539 
26   0.139284 
27   0.137257 
28   0.126215 
29   0.12466 
30   0.346458 
 
$$$$ 
 
