PCCDB-ID:  7522 
public computational chemistry database (PCCDB) project, http://pccdb.org 
 
 12 12  0  0  0  0  0  0  0  0999 V2000 
   -1.4118   -0.0725   -0.0017 C   0  0  0  0  0  0  0  0  0  0  0  0 
   -0.6366   -1.2296    0.0363 C   0  0  0  0  0  0  0  0  0  0  0  0 
   -0.7695    1.1632   -0.0417 C   0  0  0  0  0  0  0  0  0  0  0  0 
    0.7560   -1.1018    0.0327 C   0  0  0  0  0  0  0  0  0  0  0  0 
    1.3289    2.4415   -0.0830 C   0  0  0  0  0  0  0  0  0  0  0  0 
    0.6319    1.1769   -0.0419 C   0  0  0  0  0  0  0  0  0  0  0  0 
    1.8569    3.4762   -0.1155 N   0  0  0  0  0  0  0  0  0  0  0  0 
    1.3936    0.0700   -0.0055 N   0  0  0  0  0  0  0  0  0  0  0  0 
   -2.4964   -0.1274    0.0000 H   0  0  0  0  0  0  0  0  0  0  0  0 
   -1.0947   -2.2133    0.0676 H   0  0  0  0  0  0  0  0  0  0  0  0 
   -1.3250    2.0945   -0.0712 H   0  0  0  0  0  0  0  0  0  0  0  0 
    1.3910   -1.9849    0.0624 H   0  0  0  0  0  0  0  0  0  0  0  0 
  1  9  1  0  0  0  0 
  1  2  2  0  0  0  0 
  2 10  1  0  0  0  0 
  3  1  1  0  0  0  0 
  4  2  1  0  0  0  0 
  4 12  1  0  0  0  0 
  5  6  1  0  0  0  0 
  6  3  2  0  0  0  0 
  6  8  1  0  0  0  0 
  7  5  3  0  0  0  0 
  8  4  2  0  0  0  0 
 11  3  1  0  0  0  0 
M  END 
>  <HBA> 
2 
 
>  <HBD> 
0 
 
>  <TPSA> 
36.68 
 
>  <cid> 
7522 
 
>  <dipole> 
5.68 
 
>  <excitation_energy_1> 
4.592 
 
>  <excitation_energy_2> 
5.142 
 
>  <excitation_energy_3> 
5.195 
 
>  <excitation_energy_4> 
5.695 
 
>  <homo_energy> 
-7.644 
 
>  <homo_lumo_gap> 
5.81 
 
>  <logP> 
0.953 
 
>  <lumo_energy> 
-1.834 
 
>  <melting_point> 
56.56 
 
>  <molecular_refractivity> 
28.95 
 
>  <oscillator_strength_1> 
0.0015 
 
>  <oscillator_strength_2> 
0.0022 
 
>  <oscillator_strength_3> 
0.102 
 
>  <oscillator_strength_4> 
0.1755 
 
>  <open_babel_can_smiles> 
N#Cc1ccccn1 
 
>  <mulliken_charges> 
12 
1   -0.097771 
2   -0.136692 
3   -0.130182 
4   0.050806 
5   0.301474 
6   0.277063 
7   -0.471952 
8   -0.437971 
9   0.160877 
10   0.155361 
11   0.169733 
12   0.159253 
 
>  <lowdin_charges> 
12 
1   -0.118134 
2   -0.157638 
3   -0.147903 
4   -0.07889 
5   -0.006946 
6   0.038743 
7   -0.099268 
8   -0.121702 
9   0.170724 
10   0.172443 
11   0.181264 
12   0.167309 
 
$$$$ 
 
