PCCDB-ID:  69331 
public computational chemistry database (PCCDB) project, http://pccdb.org 
 
 18 18  0  0  0  0  0  0  0  0999 V2000 
   -0.7152    1.1237    0.1500 C   0  0  0  0  0  0  0  0  0  0  0  0 
    1.3736   -0.0203   -0.1383 C   0  0  0  0  0  0  0  0  0  0  0  0 
   -1.3889   -0.0926    0.1449 C   0  0  0  0  0  0  0  0  0  0  0  0 
    0.7103   -1.2451   -0.1531 C   0  0  0  0  0  0  0  0  0  0  0  0 
    1.3934    2.5185   -0.0091 C   0  0  0  0  0  0  0  0  0  0  0  0 
    0.6780    1.1847    0.0056 C   0  0  0  0  0  0  0  0  0  0  0  0 
   -0.6854   -1.3006   -0.0098 C   0  0  0  0  0  0  0  0  0  0  0  0 
   -1.3531   -2.5286    0.0443 N   0  0  0  0  0  0  0  0  0  0  0  0 
    0.9002    3.4363    0.9648 O   0  0  0  0  0  0  0  0  0  0  0  0 
   -1.2728    2.0479    0.2759 H   0  0  0  0  0  0  0  0  0  0  0  0 
    2.4569   -0.0051   -0.2432 H   0  0  0  0  0  0  0  0  0  0  0  0 
   -2.4700   -0.1157    0.2667 H   0  0  0  0  0  0  0  0  0  0  0  0 
    1.2758   -2.1686   -0.2591 H   0  0  0  0  0  0  0  0  0  0  0  0 
    1.2475    3.0322   -0.9673 H   0  0  0  0  0  0  0  0  0  0  0  0 
    2.4780    2.3575    0.1051 H   0  0  0  0  0  0  0  0  0  0  0  0 
   -2.3315   -2.4907   -0.2145 H   0  0  0  0  0  0  0  0  0  0  0  0 
   -0.8792   -3.2904   -0.4253 H   0  0  0  0  0  0  0  0  0  0  0  0 
    0.9183    2.9763    1.8194 H   0  0  0  0  0  0  0  0  0  0  0  0 
  1 10  1  0  0  0  0 
  2  6  1  0  0  0  0 
  3  1  1  0  0  0  0 
  3 12  1  0  0  0  0 
  4  2  2  0  0  0  0 
  4  7  1  0  0  0  0 
  5  6  1  0  0  0  0 
  5 15  1  0  0  0  0 
  5  9  1  0  0  0  0 
  6  1  2  0  0  0  0 
  7  8  1  0  0  0  0 
  7  3  2  0  0  0  0 
  9 18  1  0  0  0  0 
 11  2  1  0  0  0  0 
 13  4  1  0  0  0  0 
 14  5  1  0  0  0  0 
 16  8  1  0  0  0  0 
 17  8  1  0  0  0  0 
M  END 
>  <HBA> 
2 
 
>  <HBD> 
2 
 
>  <TPSA> 
46.25 
 
>  <cid> 
69331 
 
>  <dipole> 
2.86 
 
>  <excitation_energy_1> 
4.616 
 
>  <excitation_energy_2> 
4.757 
 
>  <excitation_energy_3> 
5.227 
 
>  <excitation_energy_4> 
5.376 
 
>  <homo_energy> 
-5.426 
 
>  <homo_lumo_gap> 
5.524 
 
>  <logP> 
1.342 
 
>  <lumo_energy> 
0.098 
 
>  <melting_point> 
75.93 
 
>  <molecular_refractivity> 
36.97 
 
>  <oscillator_strength_1> 
0.0291 
 
>  <oscillator_strength_2> 
0.0114 
 
>  <oscillator_strength_3> 
0.2155 
 
>  <oscillator_strength_4> 
0.0063 
 
>  <open_babel_can_smiles> 
OCc1ccc(cc1)N 
 
>  <mulliken_charges> 
18 
1   -0.180314 
2   -0.191011 
3   -0.17232 
4   -0.172338 
5   -0.092528 
6   0.100169 
7   0.309875 
8   -0.787291 
9   -0.612064 
10   0.139721 
11   0.120968 
12   0.11739 
13   0.116303 
14   0.155741 
15   0.123256 
16   0.319637 
17   0.319353 
18   0.385453 
 
>  <lowdin_charges> 
18 
1   -0.150605 
2   -0.153429 
3   -0.195564 
4   -0.201719 
5   -0.12924 
6   -0.061902 
7   0.059362 
8   -0.488329 
9   -0.466257 
10   0.163871 
11   0.1516 
12   0.150447 
13   0.152561 
14   0.151962 
15   0.127154 
16   0.273795 
17   0.276098 
18   0.340195 
 
$$$$ 
 
