PCCDB-ID:  72153 
public computational chemistry database (PCCDB) project, http://pccdb.org 
 
 28 28  0  0  0  0  0  0  0  0999 V2000 
    0.3734    0.3440   -0.0849 C   0  0  0  0  0  0  0  0  0  0  0  0 
    5.6251    2.7137    0.9953 C   0  0  0  0  0  0  0  0  0  0  0  0 
    6.7464   -1.2252   -0.3174 C   0  0  0  0  0  0  0  0  0  0  0  0 
    1.1681   -2.6339   -1.9398 C   0  0  0  0  0  0  0  0  0  0  0  0 
    2.6918    1.3533   -0.0799 C   0  0  0  0  0  0  0  0  0  0  0  0 
    3.9293   -1.1266   -0.2104 C   0  0  0  0  0  0  0  0  0  0  0  0 
    1.8792    0.2105   -0.1142 C   0  0  0  0  0  0  0  0  0  0  0  0 
    4.0814    1.2840   -0.1174 C   0  0  0  0  0  0  0  0  0  0  0  0 
    4.7174    0.0230   -0.1910 C   0  0  0  0  0  0  0  0  0  0  0  0 
    2.5375   -1.0220   -0.1875 C   0  0  0  0  0  0  0  0  0  0  0  0 
    2.6746   -3.7023    0.0202 O   0  0  0  0  0  0  0  0  0  0  0  0 
    4.7915    2.4571   -0.1389 O   0  0  0  0  0  0  0  0  0  0  0  0 
    6.0807    0.0288   -0.2394 O   0  0  0  0  0  0  0  0  0  0  0  0 
    1.6349   -2.6138   -0.1604 S   0  0  2  0  0  0  0  0  0  0  0  0 
    0.0771    1.2789    0.4009 H   0  0  0  0  0  0  0  0  0  0  0  0 
   -0.1010   -0.4808    0.4582 H   0  0  0  0  0  0  0  0  0  0  0  0 
   -0.0559    0.3592   -1.0961 H   0  0  0  0  0  0  0  0  0  0  0  0 
    6.0527    3.7057    0.8331 H   0  0  0  0  0  0  0  0  0  0  0  0 
    6.4275    1.9756    1.0797 H   0  0  0  0  0  0  0  0  0  0  0  0 
    5.0318    2.7214    1.9194 H   0  0  0  0  0  0  0  0  0  0  0  0 
    6.4602   -1.7736   -1.2237 H   0  0  0  0  0  0  0  0  0  0  0  0 
    6.5367   -1.8478    0.5614 H   0  0  0  0  0  0  0  0  0  0  0  0 
    7.8121   -0.9935   -0.3545 H   0  0  0  0  0  0  0  0  0  0  0  0 
    0.5108   -1.7897   -2.1646 H   0  0  0  0  0  0  0  0  0  0  0  0 
    0.6450   -3.5764   -2.1219 H   0  0  0  0  0  0  0  0  0  0  0  0 
    2.0794   -2.5875   -2.5412 H   0  0  0  0  0  0  0  0  0  0  0  0 
    2.2438    2.3416   -0.0210 H   0  0  0  0  0  0  0  0  0  0  0  0 
    4.3558   -2.1243   -0.2336 H   0  0  0  0  0  0  0  0  0  0  0  0 
  1 15  1  0  0  0  0 
  1 16  1  0  0  0  0 
  2 19  1  0  0  0  0 
  2 20  1  0  0  0  0 
  3 13  1  0  0  0  0 
  3 22  1  0  0  0  0 
  4 14  1  0  0  0  0 
  5 27  1  0  0  0  0 
  6  9  2  0  0  0  0 
  6 10  1  0  0  0  0 
  7  1  1  0  0  0  0 
  7  5  1  0  0  0  0 
  8  5  2  0  0  0  0 
  9  8  1  0  0  0  0 
 10 14  1  0  0  0  0 
 10  7  2  0  0  0  0 
 12  8  1  0  0  0  0 
 12  2  1  0  0  0  0 
 13  9  1  0  0  0  0 
 14 11  2  6  0  0  0 
 17  1  1  0  0  0  0 
 18  2  1  0  0  0  0 
 21  3  1  0  0  0  0 
 23  3  1  0  0  0  0 
 24  4  1  0  0  0  0 
 25  4  1  0  0  0  0 
 26  4  1  0  0  0  0 
 28  6  1  0  0  0  0 
M  END 
>  <HBA> 
3 
 
>  <HBD> 
0 
 
>  <TPSA> 
54.74 
 
>  <cid> 
72153 
 
>  <dipole> 
1.87 
 
>  <excitation_energy_1> 
4.653 
 
>  <excitation_energy_2> 
4.856 
 
>  <excitation_energy_3> 
5.187 
 
>  <excitation_energy_4> 
5.387 
 
>  <homo_energy> 
-5.782 
 
>  <homo_lumo_gap> 
5.393 
 
>  <logP> 
2.615 
 
>  <lumo_energy> 
-0.389 
 
>  <melting_point> 
43.52 
 
>  <molecular_refractivity> 
56.8 
 
>  <oscillator_strength_1> 
0.124 
 
>  <oscillator_strength_2> 
0.0128 
 
>  <oscillator_strength_3> 
0.0659 
 
>  <oscillator_strength_4> 
0.0089 
 
>  <open_babel_can_smiles> 
COc1cc([S@](=O)C)c(cc1OC)C 
 
>  <mulliken_charges> 
28 
1   -0.550771 
2   -0.21365 
3   -0.220979 
4   -0.627794 
5   -0.225825 
6   -0.234846 
7   0.163064 
8   0.325001 
9   0.363513 
10   -0.239693 
11   -0.637732 
12   -0.520389 
13   -0.510065 
14   0.766959 
15   0.165922 
16   0.174755 
17   0.16491 
18   0.16018 
19   0.167231 
20   0.140329 
21   0.159873 
22   0.163495 
23   0.170373 
24   0.180238 
25   0.193136 
26   0.200587 
27   0.134344 
28   0.187836 
 
>  <lowdin_charges> 
28 
1   -0.447988 
2   -0.275739 
3   -0.276378 
4   -0.593113 
5   -0.17843 
6   -0.205258 
7   -0.013944 
8   0.077668 
9   0.079247 
10   -0.188152 
11   -0.674796 
12   -0.220531 
13   -0.195101 
14   0.824008 
15   0.163806 
16   0.165184 
17   0.158126 
18   0.156497 
19   0.152694 
20   0.139569 
21   0.150763 
22   0.152025 
23   0.161481 
24   0.176093 
25   0.179384 
26   0.179759 
27   0.166081 
28   0.187045 
 
$$$$ 
 
