PCCDB-ID:  62568 
public computational chemistry database (PCCDB) project, http://pccdb.org 
 
 24 23  0  0  0  0  0  0  0  0999 V2000 
    2.4955   -2.8575   -1.5216 C   0  0  0  0  0  0  0  0  0  0  0  0 
    4.7713    1.1127   -4.8276 C   0  0  0  0  0  0  0  0  0  0  0  0 
    2.1923   -1.5475   -0.7885 C   0  0  0  0  0  0  0  0  0  0  0  0 
    4.5807   -0.2255   -4.0918 C   0  0  0  0  0  0  0  0  0  0  0  0 
    2.7133   -0.2917   -1.5221 C   0  0  0  0  0  0  0  0  0  0  0  0 
    4.2140   -0.2172   -1.5691 C   0  0  0  0  0  0  0  0  0  0  0  0 
    5.0210   -0.1728   -2.6467 C   0  0  0  0  0  0  0  0  0  0  0  0 
    6.5159   -0.1487   -2.4635 C   0  0  0  0  0  0  0  0  0  0  0  0 
    7.2865   -0.6214   -3.2671 O   0  0  0  0  0  0  0  0  0  0  0  0 
    6.9980    0.4331   -1.3291 O   0  0  0  0  0  0  0  0  0  0  0  0 
    2.1043   -3.7179   -0.9674 H   0  0  0  0  0  0  0  0  0  0  0  0 
    3.5736   -3.0040   -1.6512 H   0  0  0  0  0  0  0  0  0  0  0  0 
    2.0370   -2.8671   -2.5181 H   0  0  0  0  0  0  0  0  0  0  0  0 
    4.4614    1.0221   -5.8744 H   0  0  0  0  0  0  0  0  0  0  0  0 
    5.8227    1.4187   -4.8165 H   0  0  0  0  0  0  0  0  0  0  0  0 
    4.1773    1.9098   -4.3657 H   0  0  0  0  0  0  0  0  0  0  0  0 
    2.6247   -1.5795    0.2214 H   0  0  0  0  0  0  0  0  0  0  0  0 
    1.1081   -1.4423   -0.6542 H   0  0  0  0  0  0  0  0  0  0  0  0 
    5.1848   -0.9912   -4.5907 H   0  0  0  0  0  0  0  0  0  0  0  0 
    3.5354   -0.5396   -4.1606 H   0  0  0  0  0  0  0  0  0  0  0  0 
    2.3459    0.5972   -0.9871 H   0  0  0  0  0  0  0  0  0  0  0  0 
    2.2820   -0.2466   -2.5276 H   0  0  0  0  0  0  0  0  0  0  0  0 
    4.6792   -0.2450   -0.5804 H   0  0  0  0  0  0  0  0  0  0  0  0 
    6.2760    0.9041   -0.8819 H   0  0  0  0  0  0  0  0  0  0  0  0 
  1 11  1  0  0  0  0 
  1  3  1  0  0  0  0 
  2 15  1  0  0  0  0 
  2 16  1  0  0  0  0 
  2  4  1  0  0  0  0 
  3 18  1  0  0  0  0 
  3 17  1  0  0  0  0 
  4  7  1  0  0  0  0 
  5 21  1  0  0  0  0 
  5  3  1  0  0  0  0 
  6  5  1  0  0  0  0 
  6 23  1  0  0  0  0 
  7  8  1  0  0  0  0 
  7  6  2  0  0  0  0 
  8 10  1  0  0  0  0 
  9  8  2  0  0  0  0 
 10 24  1  0  0  0  0 
 12  1  1  0  0  0  0 
 13  1  1  0  0  0  0 
 14  2  1  0  0  0  0 
 19  4  1  0  0  0  0 
 20  4  1  0  0  0  0 
 22  5  1  0  0  0  0 
M  END 
>  <HBA> 
2 
 
>  <HBD> 
1 
 
>  <TPSA> 
37.3 
 
>  <cid> 
62568 
 
>  <dipole> 
4.74 
 
>  <excitation_energy_1> 
4.805 
 
>  <excitation_energy_2> 
5.762 
 
>  <excitation_energy_3> 
6.248 
 
>  <excitation_energy_4> 
6.563 
 
>  <homo_energy> 
-7.148 
 
>  <homo_lumo_gap> 
6.128 
 
>  <logP> 
2.208 
 
>  <lumo_energy> 
-1.02 
 
>  <melting_point> 
62.48 
 
>  <molecular_refractivity> 
41.87 
 
>  <oscillator_strength_1> 
0.004 
 
>  <oscillator_strength_2> 
0.3215 
 
>  <oscillator_strength_3> 
0.0225 
 
>  <oscillator_strength_4> 
0.006 
 
>  <open_babel_can_smiles> 
CCC/C=C(/C(=O)O)\CC 
 
>  <mulliken_charges> 
24 
1   -0.442091 
2   -0.450111 
3   -0.255327 
4   -0.326665 
5   -0.301511 
6   -0.177588 
7   0.083433 
8   0.552611 
9   -0.451709 
10   -0.570261 
11   0.148673 
12   0.156994 
13   0.143846 
14   0.150705 
15   0.166682 
16   0.142124 
17   0.136907 
18   0.14078 
19   0.18085 
20   0.140648 
21   0.150037 
22   0.150468 
23   0.126301 
24   0.404202 
 
>  <lowdin_charges> 
24 
1   -0.445789 
2   -0.44139 
3   -0.266447 
4   -0.271995 
5   -0.276013 
6   -0.158824 
7   -0.05667 
8   0.193741 
9   -0.244721 
10   -0.361622 
11   0.154108 
12   0.152519 
13   0.147323 
14   0.153108 
15   0.157384 
16   0.147335 
17   0.140839 
18   0.144466 
19   0.172606 
20   0.146923 
21   0.157222 
22   0.151333 
23   0.148775 
24   0.355787 
 
$$$$ 
 
