PCCDB-ID:  27623 
public computational chemistry database (PCCDB) project, http://pccdb.org 
 
 22 22  0  0  0  0  0  0  0  0999 V2000 
    2.1362    1.4014   -0.6179 C   0  0  0  0  0  0  0  0  0  0  0  0 
    5.5645   -0.1188    0.0570 C   0  0  0  0  0  0  0  0  0  0  0  0 
    2.4409   -0.0482   -0.2165 C   0  0  0  0  0  0  0  0  0  0  0  0 
    4.6097    0.4216    1.1285 C   0  0  0  0  0  0  0  0  0  0  0  0 
    3.1193   -1.6521    1.7313 C   0  0  0  0  0  0  0  0  0  0  0  0 
    2.3815    0.0498    2.3621 C   0  0  0  0  0  0  0  0  0  0  0  0 
    3.2048   -0.2122    1.1119 C   0  0  0  0  0  0  0  0  0  0  0  0 
    2.2982   -1.1247    2.8735 N   0  0  0  0  0  0  0  0  0  0  0  0 
    1.8387    1.1760    2.8736 O   0  0  0  0  0  0  0  0  0  0  0  0 
    1.5735    1.4318   -1.5570 H   0  0  0  0  0  0  0  0  0  0  0  0 
    3.0481    1.9915   -0.7636 H   0  0  0  0  0  0  0  0  0  0  0  0 
    1.5208    1.9056    0.1381 H   0  0  0  0  0  0  0  0  0  0  0  0 
    6.5664    0.3049    0.1861 H   0  0  0  0  0  0  0  0  0  0  0  0 
    5.2303    0.1314   -0.9558 H   0  0  0  0  0  0  0  0  0  0  0  0 
    5.6547   -1.2096    0.1194 H   0  0  0  0  0  0  0  0  0  0  0  0 
    3.0118   -0.5366   -1.0165 H   0  0  0  0  0  0  0  0  0  0  0  0 
    1.4960   -0.6005   -0.1364 H   0  0  0  0  0  0  0  0  0  0  0  0 
    4.5270    1.5129    1.0211 H   0  0  0  0  0  0  0  0  0  0  0  0 
    5.0469    0.2508    2.1208 H   0  0  0  0  0  0  0  0  0  0  0  0 
    4.0731   -2.0777    2.0631 H   0  0  0  0  0  0  0  0  0  0  0  0 
    2.5808   -2.3907    1.1269 H   0  0  0  0  0  0  0  0  0  0  0  0 
    2.1089    1.9275    2.3243 H   0  0  0  0  0  0  0  0  0  0  0  0 
  1  3  1  0  0  0  0 
  1 12  1  0  0  0  0 
  2 15  1  0  0  0  0 
  2 13  1  0  0  0  0 
  2  4  1  0  0  0  0 
  3 17  1  0  0  0  0 
  3  7  1  0  0  0  0 
  4 19  1  0  0  0  0 
  5 20  1  0  0  0  0 
  5  8  1  0  0  0  0 
  6  8  2  0  0  0  0 
  6  9  1  0  0  0  0 
  7  4  1  0  0  0  0 
  7  5  1  0  0  0  0 
  7  6  1  0  0  0  0 
 10  1  1  0  0  0  0 
 11  1  1  0  0  0  0 
 14  2  1  0  0  0  0 
 16  3  1  0  0  0  0 
 18  4  1  0  0  0  0 
 21  5  1  0  0  0  0 
 22  9  1  0  0  0  0 
M  END 
>  <HBA> 
2 
 
>  <HBD> 
1 
 
>  <TPSA> 
29.1 
 
>  <cid> 
27623 
 
>  <dipole> 
4.38 
 
>  <excitation_energy_1> 
5.91 
 
>  <excitation_energy_2> 
5.927 
 
>  <excitation_energy_3> 
5.964 
 
>  <excitation_energy_4> 
6.418 
 
>  <homo_energy> 
-6.672 
 
>  <homo_lumo_gap> 
7.532 
 
>  <logP> 
1.251 
 
>  <lumo_energy> 
0.86 
 
>  <melting_point> 
62.61 
 
>  <molecular_refractivity> 
40.31 
 
>  <oscillator_strength_1> 
0.0015 
 
>  <oscillator_strength_2> 
0.0019 
 
>  <oscillator_strength_3> 
0.0003 
 
>  <oscillator_strength_4> 
0.0033 
 
>  <open_babel_can_smiles> 
CCC1(CC)CN=C1O 
 
>  <mulliken_charges> 
22 
1   -0.464783 
2   -0.452524 
3   -0.277279 
4   -0.280184 
5   -0.158765 
6   0.485931 
7   -0.004077 
8   -0.435324 
9   -0.589251 
10   0.158664 
11   0.15147 
12   0.134608 
13   0.151386 
14   0.149661 
15   0.153223 
16   0.146875 
17   0.150541 
18   0.12711 
19   0.15072 
20   0.142873 
21   0.143013 
22   0.416112 
 
>  <lowdin_charges> 
22 
1   -0.453283 
2   -0.44318 
3   -0.275211 
4   -0.273316 
5   -0.198171 
6   0.096322 
7   -0.028258 
8   -0.222075 
9   -0.351698 
10   0.159417 
11   0.149702 
12   0.142999 
13   0.154889 
14   0.148635 
15   0.149991 
16   0.149802 
17   0.152292 
18   0.135437 
19   0.151299 
20   0.144538 
21   0.146219 
22   0.36365 
 
$$$$ 
 
