PCCDB-ID:  7508 
public computational chemistry database (PCCDB) project, http://pccdb.org 
 
 18 18  0  0  1  0  0  0  0  0999 V2000 
   -1.1829   -0.2160    0.3990 C   0  0  0  0  0  0  0  0  0  0  0  0 
   -0.4380   -1.2805    0.0832 C   0  0  0  0  0  0  0  0  0  0  0  0 
   -0.6931    1.2078    0.3199 C   0  0  0  0  0  0  0  0  0  0  0  0 
    0.9965   -1.1864   -0.3774 C   0  0  0  0  0  0  0  0  0  0  0  0 
    0.6393    1.3334   -0.4395 C   0  0  0  0  0  0  0  0  0  0  0  0 
    2.0817    0.2809    1.3666 C   0  0  0  0  0  0  0  0  0  0  0  0 
    1.6090    0.1979   -0.0772 C   0  0  1  0  0  0  0  0  0  0  0  0 
    1.9493    1.2428    2.0908 O   0  0  0  0  0  0  0  0  0  0  0  0 
   -2.2056   -0.3655    0.7433 H   0  0  0  0  0  0  0  0  0  0  0  0 
   -0.8670   -2.2792    0.1507 H   0  0  0  0  0  0  0  0  0  0  0  0 
   -0.5812    1.6116    1.3354 H   0  0  0  0  0  0  0  0  0  0  0  0 
   -1.4549    1.8322   -0.1668 H   0  0  0  0  0  0  0  0  0  0  0  0 
    1.0600   -1.3901   -1.4565 H   0  0  0  0  0  0  0  0  0  0  0  0 
    1.5959   -1.9745    0.1020 H   0  0  0  0  0  0  0  0  0  0  0  0 
    1.1021    2.3017   -0.2251 H   0  0  0  0  0  0  0  0  0  0  0  0 
    0.4515    1.2918   -1.5198 H   0  0  0  0  0  0  0  0  0  0  0  0 
    2.6116   -0.6301    1.7329 H   0  0  0  0  0  0  0  0  0  0  0  0 
    2.5326    0.2950   -0.6730 H   0  0  0  0  0  0  0  0  0  0  0  0 
  1  9  1  0  0  0  0 
  2 10  1  0  0  0  0 
  2  1  2  0  0  0  0 
  3  1  1  0  0  0  0 
  3 11  1  0  0  0  0 
  4  7  1  0  0  0  0 
  4  2  1  0  0  0  0 
  4 14  1  0  0  0  0 
  5 15  1  0  0  0  0 
  5  7  1  0  0  0  0 
  5  3  1  0  0  0  0 
  6 17  1  0  0  0  0 
  6  8  2  0  0  0  0 
  7 18  1  6  0  0  0 
  7  6  1  0  0  0  0 
 12  3  1  0  0  0  0 
 13  4  1  0  0  0  0 
 16  5  1  0  0  0  0 
M  END 
>  <HBA> 
1 
 
>  <HBD> 
0 
 
>  <TPSA> 
17.07 
 
>  <cid> 
7508 
 
>  <dipole> 
2.37 
 
>  <excitation_energy_1> 
4.241 
 
>  <excitation_energy_2> 
4.972 
 
>  <excitation_energy_3> 
5.976 
 
>  <excitation_energy_4> 
6.299 
 
>  <homo_energy> 
-6.599 
 
>  <homo_lumo_gap> 
6.008 
 
>  <logP> 
1.542 
 
>  <lumo_energy> 
-0.59 
 
>  <melting_point> 
36.87 
 
>  <molecular_refractivity> 
33.38 
 
>  <oscillator_strength_1> 
0.0001 
 
>  <oscillator_strength_2> 
0.0095 
 
>  <oscillator_strength_3> 
0.0053 
 
>  <oscillator_strength_4> 
0.0065 
 
>  <open_babel_can_smiles> 
O=C[C@@H]1CCC=CC1 
 
>  <mulliken_charges> 
18 
1   -0.098392 
2   -0.111981 
3   -0.310656 
4   -0.313777 
5   -0.263626 
6   0.26459 
7   -0.181615 
8   -0.390574 
9   0.123922 
10   0.123561 
11   0.173807 
12   0.142417 
13   0.154231 
14   0.142969 
15   0.153276 
16   0.137311 
17   0.101485 
18   0.15305 
 
>  <lowdin_charges> 
18 
1   -0.166061 
2   -0.184077 
3   -0.280869 
4   -0.275483 
5   -0.270882 
6   0.057628 
7   -0.163863 
8   -0.219254 
9   0.152083 
10   0.152428 
11   0.162241 
12   0.15339 
13   0.152921 
14   0.150133 
15   0.156832 
16   0.144419 
17   0.115062 
18   0.163353 
 
$$$$ 
 
