PCCDB-ID:  69403 
public computational chemistry database (PCCDB) project, http://pccdb.org 
 
 13 12  0  0  0  0  0  0  0  0999 V2000 
    0.6327   -0.1024    0.5223 C   0  0  0  0  0  0  0  0  0  0  0  0 
    2.1279   -0.2866    0.2527 C   0  0  0  0  0  0  0  0  0  0  0  0 
    3.0122    0.8130    0.8623 C   0  0  0  0  0  0  0  0  0  0  0  0 
    2.5600    0.5643    3.3734 C   0  0  0  0  0  0  0  0  0  0  0  0 
    2.9593    0.8536    2.2915 N   0  0  0  0  0  0  0  0  0  0  0  0 
    2.0985    0.2398    4.8681 S   0  0  0  0  0  0  0  0  0  0  0  0 
    0.0532   -0.8953    0.0381 H   0  0  0  0  0  0  0  0  0  0  0  0 
    0.2748    0.8579    0.1317 H   0  0  0  0  0  0  0  0  0  0  0  0 
    0.4099   -0.1340    1.5938 H   0  0  0  0  0  0  0  0  0  0  0  0 
    2.3205   -0.2859   -0.8283 H   0  0  0  0  0  0  0  0  0  0  0  0 
    2.4660   -1.2588    0.6317 H   0  0  0  0  0  0  0  0  0  0  0  0 
    2.7113    1.7985    0.4833 H   0  0  0  0  0  0  0  0  0  0  0  0 
    4.0584    0.6636    0.5693 H   0  0  0  0  0  0  0  0  0  0  0  0 
  1  9  1  0  0  0  0 
  2  1  1  0  0  0  0 
  2 11  1  0  0  0  0 
  2  3  1  0  0  0  0 
  3  5  1  0  0  0  0 
  4  6  2  0  0  0  0 
  5  4  2  0  0  0  0 
  7  1  1  0  0  0  0 
  8  1  1  0  0  0  0 
 10  2  1  0  0  0  0 
 12  3  1  0  0  0  0 
 13  3  1  0  0  0  0 
M  END 
>  <HBA> 
2 
 
>  <HBD> 
0 
 
>  <TPSA> 
44.45 
 
>  <cid> 
69403 
 
>  <dipole> 
4.06 
 
>  <excitation_energy_1> 
4.874 
 
>  <excitation_energy_2> 
5.287 
 
>  <excitation_energy_3> 
5.513 
 
>  <excitation_energy_4> 
5.81 
 
>  <homo_energy> 
-6.555 
 
>  <homo_lumo_gap> 
6.452 
 
>  <logP> 
1.499 
 
>  <lumo_energy> 
-0.103 
 
>  <melting_point> 
24.18 
 
>  <molecular_refractivity> 
30.5 
 
>  <oscillator_strength_1> 
0.0 
 
>  <oscillator_strength_2> 
0.0072 
 
>  <oscillator_strength_3> 
0.0003 
 
>  <oscillator_strength_4> 
0.0244 
 
>  <open_babel_can_smiles> 
CCCN=C=S 
 
>  <mulliken_charges> 
13 
1   -0.451768 
2   -0.265118 
3   -0.15396 
4   0.20605 
5   -0.324704 
6   -0.146687 
7   0.156173 
8   0.147695 
9   0.172172 
10   0.148534 
11   0.158896 
12   0.175362 
13   0.177357 
 
>  <lowdin_charges> 
13 
1   -0.447442 
2   -0.273378 
3   -0.169478 
4   -0.049125 
5   -0.096832 
6   -0.067321 
7   0.159418 
8   0.150222 
9   0.16034 
10   0.151569 
11   0.154158 
12   0.162995 
13   0.164874 
 
$$$$ 
 
