PCCDB-ID:  7745 
public computational chemistry database (PCCDB) project, http://pccdb.org 
 
 21 20  0  0  1  0  0  0  0  0999 V2000 
    0.9532    0.1432    0.1747 C   0  0  0  0  0  0  0  0  0  0  0  0 
    5.3776    1.3284   -0.1199 C   0  0  0  0  0  0  0  0  0  0  0  0 
    2.4813    0.0504    0.1063 C   0  0  0  0  0  0  0  0  0  0  0  0 
    3.1779    0.9406    1.1448 C   0  0  0  0  0  0  0  0  0  0  0  0 
    5.2727    1.5835    2.3922 C   0  0  0  0  0  0  0  0  0  0  0  0 
    4.7146    0.8321    1.1720 C   0  0  2  0  0  0  0  0  0  0  0  0 
    6.6853    1.4721    2.5373 O   0  0  0  0  0  0  0  0  0  0  0  0 
    0.4797   -0.5001   -0.5757 H   0  0  0  0  0  0  0  0  0  0  0  0 
    0.6103    1.1700   -0.0029 H   0  0  0  0  0  0  0  0  0  0  0  0 
    0.5802   -0.1633    1.1599 H   0  0  0  0  0  0  0  0  0  0  0  0 
    5.1037    0.7132   -0.9834 H   0  0  0  0  0  0  0  0  0  0  0  0 
    6.4669    1.3121   -0.0194 H   0  0  0  0  0  0  0  0  0  0  0  0 
    5.0776    2.3627   -0.3352 H   0  0  0  0  0  0  0  0  0  0  0  0 
    2.8138    0.3223   -0.9035 H   0  0  0  0  0  0  0  0  0  0  0  0 
    2.7916   -0.9934    0.2595 H   0  0  0  0  0  0  0  0  0  0  0  0 
    2.7848    0.6873    2.1412 H   0  0  0  0  0  0  0  0  0  0  0  0 
    2.8966    1.9900    0.9666 H   0  0  0  0  0  0  0  0  0  0  0  0 
    4.7580    1.2430    3.3061 H   0  0  0  0  0  0  0  0  0  0  0  0 
    5.0780    2.6577    2.2897 H   0  0  0  0  0  0  0  0  0  0  0  0 
    4.9720   -0.2337    1.3044 H   0  0  0  0  0  0  0  0  0  0  0  0 
    6.8887    0.5322    2.6658 H   0  0  0  0  0  0  0  0  0  0  0  0 
  1 10  1  0  0  0  0 
  2 12  1  0  0  0  0 
  2  6  1  0  0  0  0 
  3  1  1  0  0  0  0 
  3 15  1  0  0  0  0 
  3  4  1  0  0  0  0 
  4  6  1  0  0  0  0 
  4 16  1  0  0  0  0 
  5  7  1  0  0  0  0 
  5 18  1  0  0  0  0 
  6 20  1  1  0  0  0 
  6  5  1  0  0  0  0 
  7 21  1  0  0  0  0 
  8  1  1  0  0  0  0 
  9  1  1  0  0  0  0 
 11  2  1  0  0  0  0 
 13  2  1  0  0  0  0 
 14  3  1  0  0  0  0 
 17  4  1  0  0  0  0 
 19  5  1  0  0  0  0 
M  END 
>  <HBA> 
1 
 
>  <HBD> 
1 
 
>  <TPSA> 
20.23 
 
>  <cid> 
7745 
 
>  <dipole> 
1.68 
 
>  <excitation_energy_1> 
6.373 
 
>  <excitation_energy_2> 
7.17 
 
>  <excitation_energy_3> 
7.327 
 
>  <excitation_energy_4> 
7.428 
 
>  <homo_energy> 
-7.086 
 
>  <homo_lumo_gap> 
9.081 
 
>  <logP> 
1.415 
 
>  <lumo_energy> 
1.995 
 
>  <melting_point> 
-7.94 
 
>  <molecular_refractivity> 
32.12 
 
>  <oscillator_strength_1> 
0.0051 
 
>  <oscillator_strength_2> 
0.0148 
 
>  <oscillator_strength_3> 
0.0072 
 
>  <oscillator_strength_4> 
0.0044 
 
>  <open_babel_can_smiles> 
CCC[C@H](CO)C 
 
>  <mulliken_charges> 
21 
1   -0.442238 
2   -0.446634 
3   -0.251735 
4   -0.251125 
5   -0.026721 
6   -0.101004 
7   -0.614707 
8   0.142664 
9   0.142725 
10   0.141312 
11   0.141965 
12   0.15849 
13   0.13748 
14   0.138424 
15   0.129267 
16   0.124352 
17   0.127878 
18   0.116723 
19   0.141548 
20   0.106162 
21   0.385172 
 
>  <lowdin_charges> 
21 
1   -0.444291 
2   -0.447201 
3   -0.270767 
4   -0.274006 
5   -0.136336 
6   -0.139874 
7   -0.464721 
8   0.150967 
9   0.146136 
10   0.145663 
11   0.148584 
12   0.155957 
13   0.144813 
14   0.141606 
15   0.137085 
16   0.137245 
17   0.13731 
18   0.125806 
19   0.142801 
20   0.125705 
21   0.337516 
 
$$$$ 
 
