PCCDB-ID:  57584 
public computational chemistry database (PCCDB) project, http://pccdb.org 
 
 33 33  0  0  1  0  0  0  0  0999 V2000 
    2.0348   -2.3650   -3.3727 C   0  0  0  0  0  0  0  0  0  0  0  0 
    2.8346   -0.1208    2.0453 C   0  0  0  0  0  0  0  0  0  0  0  0 
    3.5911    2.3023    2.0850 C   0  0  0  0  0  0  0  0  0  0  0  0 
    2.6022   -1.2503   -2.9125 C   0  0  0  0  0  0  0  0  0  0  0  0 
    4.7918    0.6756    0.6455 C   0  0  0  0  0  0  0  0  0  0  0  0 
    3.1554   -1.0920   -1.5209 C   0  0  0  0  0  0  0  0  0  0  0  0 
    5.1888   -0.6400    0.0194 C   0  0  0  0  0  0  0  0  0  0  0  0 
    3.7958    0.9166    1.5204 C   0  0  0  0  0  0  0  0  0  0  0  0 
    5.0920    0.2977   -2.3630 C   0  0  0  0  0  0  0  0  0  0  0  0 
    5.4312   -2.1088   -2.0067 C   0  0  0  0  0  0  0  0  0  0  0  0 
    6.6305   -0.9248   -3.6041 C   0  0  0  0  0  0  0  0  0  0  0  0 
    4.7053   -0.8782   -1.4670 C   0  0  2  0  0  0  0  0  0  0  0  0 
    5.9390    0.2803   -3.3125 N   0  0  0  0  0  0  0  0  0  0  0  0 
    6.2901   -2.1340   -2.9440 N   0  0  0  0  0  0  0  0  0  0  0  0 
    4.4362    1.4599   -2.1455 O   0  0  0  0  0  0  0  0  0  0  0  0 
    5.1667   -3.2868   -1.3947 O   0  0  0  0  0  0  0  0  0  0  0  0 
    7.5161   -0.9212   -4.4287 O   0  0  0  0  0  0  0  0  0  0  0  0 
    1.6535   -2.4315   -4.3873 H   0  0  0  0  0  0  0  0  0  0  0  0 
    1.9328   -3.2568   -2.7574 H   0  0  0  0  0  0  0  0  0  0  0  0 
    1.8004    0.1400    1.7836 H   0  0  0  0  0  0  0  0  0  0  0  0 
    2.8761   -0.1537    3.1419 H   0  0  0  0  0  0  0  0  0  0  0  0 
    3.0307   -1.1280    1.6713 H   0  0  0  0  0  0  0  0  0  0  0  0 
    3.7202    2.2975    3.1757 H   0  0  0  0  0  0  0  0  0  0  0  0 
    2.5699    2.6593    1.8955 H   0  0  0  0  0  0  0  0  0  0  0  0 
    4.2928    3.0274    1.6628 H   0  0  0  0  0  0  0  0  0  0  0  0 
    2.6904   -0.3812   -3.5629 H   0  0  0  0  0  0  0  0  0  0  0  0 
    5.4370    1.5149    0.3861 H   0  0  0  0  0  0  0  0  0  0  0  0 
    2.8880   -1.9703   -0.9183 H   0  0  0  0  0  0  0  0  0  0  0  0 
    2.6764   -0.2422   -1.0177 H   0  0  0  0  0  0  0  0  0  0  0  0 
    4.8301   -1.4796    0.6251 H   0  0  0  0  0  0  0  0  0  0  0  0 
    6.2832   -0.7061    0.0188 H   0  0  0  0  0  0  0  0  0  0  0  0 
    3.9676    1.4174   -1.2919 H   0  0  0  0  0  0  0  0  0  0  0  0 
    4.4783   -3.1704   -0.7225 H   0  0  0  0  0  0  0  0  0  0  0  0 
  1  4  2  0  0  0  0 
  1 19  1  0  0  0  0 
  2 21  1  0  0  0  0 
  3 23  1  0  0  0  0 
  4  6  1  0  0  0  0 
  5  8  2  0  0  0  0 
  6 29  1  0  0  0  0 
  6 28  1  0  0  0  0 
  7 30  1  0  0  0  0 
  7  5  1  0  0  0  0 
  8  2  1  0  0  0  0 
  8  3  1  0  0  0  0 
  9 15  1  0  0  0  0 
  9 12  1  0  0  0  0 
 10 12  1  0  0  0  0 
 10 16  1  0  0  0  0 
 11 13  2  0  0  0  0 
 11 14  1  0  0  0  0 
 12  6  1  6  0  0  0 
 12  7  1  0  0  0  0 
 13  9  2  0  0  0  0 
 14 10  2  0  0  0  0 
 15 32  1  0  0  0  0 
 16 33  1  0  0  0  0 
 17 11  2  0  0  0  0 
 18  1  1  0  0  0  0 
 20  2  1  0  0  0  0 
 22  2  1  0  0  0  0 
 24  3  1  0  0  0  0 
 25  3  1  0  0  0  0 
 26  4  1  0  0  0  0 
 27  5  1  0  0  0  0 
 31  7  1  0  0  0  0 
M  END 
>  <HBA> 
5 
 
>  <HBD> 
2 
 
>  <TPSA> 
75.27 
 
>  <cid> 
57584 
 
>  <dipole> 
11.22 
 
>  <excitation_energy_1> 
3.97 
 
>  <excitation_energy_2> 
4.145 
 
>  <excitation_energy_3> 
5.129 
 
>  <excitation_energy_4> 
5.167 
 
>  <homo_energy> 
-6.77 
 
>  <homo_lumo_gap> 
5.32 
 
>  <logP> 
1.929 
 
>  <lumo_energy> 
-1.45 
 
>  <melting_point> 
132.19 
 
>  <molecular_refractivity> 
70.9 
 
>  <oscillator_strength_1> 
0.0003 
 
>  <oscillator_strength_2> 
0.0001 
 
>  <oscillator_strength_3> 
0.1109 
 
>  <oscillator_strength_4> 
0.0013 
 
>  <open_babel_can_smiles> 
C=CC[C@@]1(CC=C(C)C)C(=N[C](=[N]=C1O)=O)O 
 
>  <mulliken_charges> 
33 
1   -0.330039 
2   -0.513984 
3   -0.511112 
4   -0.048816 
5   -0.246982 
6   -0.337798 
7   -0.302364 
8   0.193318 
9   0.538066 
10   0.563167 
11   0.618543 
12   -0.149511 
13   -0.46805 
14   -0.470521 
15   -0.58865 
16   -0.578597 
17   -0.433401 
18   0.16089 
19   0.141586 
20   0.16768 
21   0.171497 
22   0.14967 
23   0.167722 
24   0.162127 
25   0.167642 
26   0.165319 
27   0.160993 
28   0.131837 
29   0.159422 
30   0.14233 
31   0.18697 
32   0.41742 
33   0.413627 
 
>  <lowdin_charges> 
33 
1   -0.315682 
2   -0.443581 
3   -0.439597 
4   -0.161315 
5   -0.228754 
6   -0.274381 
7   -0.268906 
8   0.009599 
9   0.143492 
10   0.1493 
11   0.169749 
12   -0.058672 
13   -0.182619 
14   -0.181496 
15   -0.337271 
16   -0.330911 
17   -0.209989 
18   0.169286 
19   0.156857 
20   0.16374 
21   0.165255 
22   0.151825 
23   0.162378 
24   0.159897 
25   0.163966 
26   0.169448 
27   0.165484 
28   0.14393 
29   0.158759 
30   0.150297 
31   0.172011 
32   0.353308 
33   0.354596 
 
$$$$ 
 
