PCCDB-ID:  70705 
public computational chemistry database (PCCDB) project, http://pccdb.org 
 
 21 20  0  0  0  0  0  0  0  0999 V2000 
    1.7087    0.9002   -3.2159 C   0  0  0  0  0  0  0  0  0  0  0  0 
    2.5408    0.1526   -2.4892 C   0  0  0  0  0  0  0  0  0  0  0  0 
    3.0081    0.4652   -1.0928 C   0  0  0  0  0  0  0  0  0  0  0  0 
    4.5405    0.5918   -0.9662 C   0  0  0  0  0  0  0  0  0  0  0  0 
    5.1154    1.7886   -1.7344 C   0  0  0  0  0  0  0  0  0  0  0  0 
    6.6396    1.9069   -1.6340 C   0  0  0  0  0  0  0  0  0  0  0  0 
    7.1322    2.3258   -0.2517 C   0  0  0  0  0  0  0  0  0  0  0  0 
    6.4266    2.6880    0.6558 O   0  0  0  0  0  0  0  0  0  0  0  0 
    8.4851    2.2938   -0.0843 O   0  0  0  0  0  0  0  0  0  0  0  0 
    1.4055    0.6119   -4.2192 H   0  0  0  0  0  0  0  0  0  0  0  0 
    1.2922    1.8293   -2.8315 H   0  0  0  0  0  0  0  0  0  0  0  0 
    2.9311   -0.7723   -2.9204 H   0  0  0  0  0  0  0  0  0  0  0  0 
    2.6746   -0.3363   -0.4171 H   0  0  0  0  0  0  0  0  0  0  0  0 
    2.5323    1.3898   -0.7403 H   0  0  0  0  0  0  0  0  0  0  0  0 
    5.0097   -0.3361   -1.3281 H   0  0  0  0  0  0  0  0  0  0  0  0 
    4.8012    0.6868    0.0934 H   0  0  0  0  0  0  0  0  0  0  0  0 
    4.6681    2.7139   -1.3522 H   0  0  0  0  0  0  0  0  0  0  0  0 
    4.8383    1.7147   -2.7927 H   0  0  0  0  0  0  0  0  0  0  0  0 
    7.0125    2.6544   -2.3501 H   0  0  0  0  0  0  0  0  0  0  0  0 
    7.1210    0.9565   -1.9093 H   0  0  0  0  0  0  0  0  0  0  0  0 
    8.9127    1.9873   -0.9012 H   0  0  0  0  0  0  0  0  0  0  0  0 
  1 11  1  0  0  0  0 
  1  2  2  0  0  0  0 
  2  3  1  0  0  0  0 
  3  4  1  0  0  0  0 
  3 14  1  0  0  0  0 
  3 13  1  0  0  0  0 
  4 16  1  0  0  0  0 
  5  6  1  0  0  0  0 
  5 17  1  0  0  0  0 
  5  4  1  0  0  0  0 
  6  7  1  0  0  0  0 
  7  9  1  0  0  0  0 
  7  8  2  0  0  0  0 
 10  1  1  0  0  0  0 
 12  2  1  0  0  0  0 
 15  4  1  0  0  0  0 
 18  5  1  0  0  0  0 
 19  6  1  0  0  0  0 
 20  6  1  0  0  0  0 
 21  9  1  0  0  0  0 
M  END 
>  <HBA> 
2 
 
>  <HBD> 
1 
 
>  <TPSA> 
37.3 
 
>  <cid> 
70705 
 
>  <dipole> 
3.89 
 
>  <excitation_energy_1> 
5.721 
 
>  <excitation_energy_2> 
6.149 
 
>  <excitation_energy_3> 
6.381 
 
>  <excitation_energy_4> 
6.407 
 
>  <homo_energy> 
-6.882 
 
>  <homo_lumo_gap> 
7.157 
 
>  <logP> 
1.817 
 
>  <lumo_energy> 
0.275 
 
>  <melting_point> 
29.33 
 
>  <molecular_refractivity> 
37.06 
 
>  <oscillator_strength_1> 
0.0005 
 
>  <oscillator_strength_2> 
0.0123 
 
>  <oscillator_strength_3> 
0.0081 
 
>  <oscillator_strength_4> 
0.0209 
 
>  <open_babel_can_smiles> 
C=CCCCCC(=O)O 
 
>  <mulliken_charges> 
21 
1   -0.342212 
2   -0.040307 
3   -0.304992 
4   -0.269117 
5   -0.243977 
6   -0.407122 
7   0.609331 
8   -0.438359 
9   -0.567055 
10   0.137284 
11   0.136502 
12   0.120762 
13   0.145353 
14   0.143387 
15   0.121428 
16   0.164009 
17   0.157804 
18   0.142652 
19   0.171349 
20   0.15514 
21   0.408139 
 
>  <lowdin_charges> 
21 
1   -0.344514 
2   -0.145811 
3   -0.273058 
4   -0.276793 
5   -0.271131 
6   -0.326153 
7   0.200336 
8   -0.239798 
9   -0.362849 
10   0.156418 
11   0.154459 
12   0.146793 
13   0.15409 
14   0.149334 
15   0.134382 
16   0.156166 
17   0.156875 
18   0.149156 
19   0.168481 
20   0.156259 
21   0.357356 
 
$$$$ 
 
