PCCDB-ID:  62308 
public computational chemistry database (PCCDB) project, http://pccdb.org 
 
 27 26  0  0  0  0  0  0  0  0999 V2000 
    2.4558    1.0449    0.5944 C   0  0  0  0  0  0  0  0  0  0  0  0 
    8.8106    0.8033    1.3395 C   0  0  0  0  0  0  0  0  0  0  0  0 
    9.0231    0.6417   -1.1732 C   0  0  0  0  0  0  0  0  0  0  0  0 
    9.9370    3.2415    0.0811 C   0  0  0  0  0  0  0  0  0  0  0  0 
    6.8160    1.2806   -0.1726 C   0  0  0  0  0  0  0  0  0  0  0  0 
    6.0164    2.0525    0.8745 C   0  0  0  0  0  0  0  0  0  0  0  0 
    3.9116    0.9372    0.9877 C   0  0  0  0  0  0  0  0  0  0  0  0 
    8.3465    1.3844   -0.0087 C   0  0  0  0  0  0  0  0  0  0  0  0 
    4.4038    0.0144    1.6017 O   0  0  0  0  0  0  0  0  0  0  0  0 
    8.6041    2.8015   -0.0891 O   0  0  0  0  0  0  0  0  0  0  0  0 
    4.6016    2.0195    0.5617 O   0  0  0  0  0  0  0  0  0  0  0  0 
    2.0159    1.9527    1.0201 H   0  0  0  0  0  0  0  0  0  0  0  0 
    1.9166    0.1670    0.9518 H   0  0  0  0  0  0  0  0  0  0  0  0 
    2.3655    1.1197   -0.4943 H   0  0  0  0  0  0  0  0  0  0  0  0 
    8.4216   -0.2122    1.4698 H   0  0  0  0  0  0  0  0  0  0  0  0 
    8.4575    1.4132    2.1773 H   0  0  0  0  0  0  0  0  0  0  0  0 
    9.9027    0.7474    1.3990 H   0  0  0  0  0  0  0  0  0  0  0  0 
    8.7150   -0.4096   -1.1868 H   0  0  0  0  0  0  0  0  0  0  0  0 
   10.1148    0.6610   -1.0886 H   0  0  0  0  0  0  0  0  0  0  0  0 
    8.7420    1.0969   -2.1287 H   0  0  0  0  0  0  0  0  0  0  0  0 
    9.9160    4.3277   -0.0443 H   0  0  0  0  0  0  0  0  0  0  0  0 
   10.6224    2.8211   -0.6687 H   0  0  0  0  0  0  0  0  0  0  0  0 
   10.3323    3.0159    1.0816 H   0  0  0  0  0  0  0  0  0  0  0  0 
    6.5503    1.6695   -1.1628 H   0  0  0  0  0  0  0  0  0  0  0  0 
    6.5246    0.2253   -0.1382 H   0  0  0  0  0  0  0  0  0  0  0  0 
    6.2824    3.1094    0.8635 H   0  0  0  0  0  0  0  0  0  0  0  0 
    6.1586    1.6434    1.8769 H   0  0  0  0  0  0  0  0  0  0  0  0 
  1 13  1  0  0  0  0 
  1  7  1  0  0  0  0 
  1 12  1  0  0  0  0 
  2 17  1  0  0  0  0 
  2 15  1  0  0  0  0 
  2 16  1  0  0  0  0 
  3 19  1  0  0  0  0 
  3  8  1  0  0  0  0 
  4 23  1  0  0  0  0 
  5 25  1  0  0  0  0 
  5  8  1  0  0  0  0 
  5  6  1  0  0  0  0 
  6 27  1  0  0  0  0 
  7  9  2  0  0  0  0 
  8  2  1  0  0  0  0 
 10  8  1  0  0  0  0 
 10  4  1  0  0  0  0 
 11  6  1  0  0  0  0 
 11  7  1  0  0  0  0 
 14  1  1  0  0  0  0 
 18  3  1  0  0  0  0 
 20  3  1  0  0  0  0 
 21  4  1  0  0  0  0 
 22  4  1  0  0  0  0 
 24  5  1  0  0  0  0 
 26  6  1  0  0  0  0 
M  END 
>  <HBA> 
3 
 
>  <HBD> 
0 
 
>  <TPSA> 
35.53 
 
>  <cid> 
62308 
 
>  <dipole> 
1.5 
 
>  <excitation_energy_1> 
5.812 
 
>  <excitation_energy_2> 
6.374 
 
>  <excitation_energy_3> 
6.675 
 
>  <excitation_energy_4> 
6.834 
 
>  <homo_energy> 
-6.849 
 
>  <homo_lumo_gap> 
7.355 
 
>  <logP> 
1.365 
 
>  <lumo_energy> 
0.506 
 
>  <melting_point> 
-13.38 
 
>  <molecular_refractivity> 
42.98 
 
>  <oscillator_strength_1> 
0.0012 
 
>  <oscillator_strength_2> 
0.0002 
 
>  <oscillator_strength_3> 
0.0058 
 
>  <oscillator_strength_4> 
0.0113 
 
>  <open_babel_can_smiles> 
COC(CCOC(=O)C)(C)C 
 
>  <mulliken_charges> 
27 
1   -0.522283 
2   -0.476308 
3   -0.463422 
4   -0.19927 
5   -0.289074 
6   -0.051133 
7   0.600062 
8   0.324791 
9   -0.474228 
10   -0.495608 
11   -0.456738 
12   0.180792 
13   0.180094 
14   0.180129 
15   0.157842 
16   0.156346 
17   0.144253 
18   0.147433 
19   0.142986 
20   0.153477 
21   0.156996 
22   0.132301 
23   0.133726 
24   0.148007 
25   0.155209 
26   0.170791 
27   0.162826 
 
>  <lowdin_charges> 
27 
1   -0.464696 
2   -0.458387 
3   -0.451858 
4   -0.281805 
5   -0.289328 
6   -0.130142 
7   0.199639 
8   0.130342 
9   -0.273124 
10   -0.280476 
11   -0.197799 
12   0.17756 
13   0.174884 
14   0.175083 
15   0.160956 
16   0.156882 
17   0.148947 
18   0.155065 
19   0.147825 
20   0.156142 
21   0.152974 
22   0.134094 
23   0.133039 
24   0.153263 
25   0.155874 
26   0.160643 
27   0.154402 
 
$$$$ 
 
