PCCDB-ID:  7361 
public computational chemistry database (PCCDB) project, http://pccdb.org 
 
 13 13  0  0  0  0  0  0  0  0999 V2000 
   -1.2739    0.0838    0.1247 C   0  0  0  0  0  0  0  0  0  0  0  0 
   -0.5580   -1.1557    0.2199 C   0  0  0  0  0  0  0  0  0  0  0  0 
   -0.3450    1.0337   -0.1664 C   0  0  0  0  0  0  0  0  0  0  0  0 
    2.0041   -1.6804   -0.0949 C   0  0  0  0  0  0  0  0  0  0  0  0 
    0.7544   -0.8701   -0.0134 C   0  0  0  0  0  0  0  0  0  0  0  0 
    2.5183   -1.8032   -1.4211 O   0  0  0  0  0  0  0  0  0  0  0  0 
    0.8976    0.4757   -0.2508 O   0  0  0  0  0  0  0  0  0  0  0  0 
   -2.3355    0.2404    0.2566 H   0  0  0  0  0  0  0  0  0  0  0  0 
   -0.9686   -2.1338    0.4297 H   0  0  0  0  0  0  0  0  0  0  0  0 
   -0.3927    2.0992   -0.3327 H   0  0  0  0  0  0  0  0  0  0  0  0 
    1.7895   -2.6974    0.2432 H   0  0  0  0  0  0  0  0  0  0  0  0 
    2.7667   -1.2578    0.5786 H   0  0  0  0  0  0  0  0  0  0  0  0 
    2.6840   -0.9029   -1.7427 H   0  0  0  0  0  0  0  0  0  0  0  0 
  1  2  1  0  0  0  0 
  1  8  1  0  0  0  0 
  2  9  1  0  0  0  0 
  3  1  2  0  0  0  0 
  4  5  1  0  0  0  0 
  4 11  1  0  0  0  0 
  4 12  1  0  0  0  0 
  5  2  2  0  0  0  0 
  6  4  1  0  0  0  0 
  7  3  1  0  0  0  0 
  7  5  1  0  0  0  0 
 10  3  1  0  0  0  0 
 13  6  1  0  0  0  0 
M  END 
>  <HBA> 
2 
 
>  <HBD> 
1 
 
>  <TPSA> 
33.37 
 
>  <cid> 
7361 
 
>  <dipole> 
1.67 
 
>  <excitation_energy_1> 
5.6 
 
>  <excitation_energy_2> 
5.862 
 
>  <excitation_energy_3> 
6.198 
 
>  <excitation_energy_4> 
6.325 
 
>  <homo_energy> 
-6.131 
 
>  <homo_lumo_gap> 
6.346 
 
>  <logP> 
0.772 
 
>  <lumo_energy> 
0.215 
 
>  <melting_point> 
25.0 
 
>  <molecular_refractivity> 
24.84 
 
>  <oscillator_strength_1> 
0.1181 
 
>  <oscillator_strength_2> 
0.105 
 
>  <oscillator_strength_3> 
0.0251 
 
>  <oscillator_strength_4> 
0.0164 
 
>  <open_babel_can_smiles> 
OCc1ccco1 
 
>  <mulliken_charges> 
13 
1   -0.180656 
2   -0.199084 
3   0.08447 
4   -0.109746 
5   0.31648 
6   -0.603942 
7   -0.444586 
8   0.142879 
9   0.142137 
10   0.154861 
11   0.161626 
12   0.141127 
13   0.394435 
 
>  <lowdin_charges> 
13 
1   -0.201256 
2   -0.207829 
3   -0.077686 
4   -0.135971 
5   0.044841 
6   -0.463432 
7   -0.114497 
8   0.168408 
9   0.169734 
10   0.168845 
11   0.161902 
12   0.143379 
13   0.343562 
 
$$$$ 
 
