PCCDB-ID:  25334 
public computational chemistry database (PCCDB) project, http://pccdb.org 
 
 31 33  0  0  1  0  0  0  0  0999 V2000 
    1.2629    0.2645   -0.8348 C   0  0  0  0  0  0  0  0  0  0  0  0 
    2.9076    1.3813    4.5971 C   0  0  0  0  0  0  0  0  0  0  0  0 
    4.3633    1.9824    2.6314 C   0  0  0  0  0  0  0  0  0  0  0  0 
    2.0015    2.8317    2.7473 C   0  0  0  0  0  0  0  0  0  0  0  0 
    3.5290   -0.3797    2.9039 C   0  0  0  0  0  0  0  0  0  0  0  0 
    1.1662    0.4669    3.0200 C   0  0  0  0  0  0  0  0  0  0  0  0 
    3.2548    2.4879    3.5780 C   0  0  1  0  0  0  0  0  0  0  0  0 
    2.4195    0.1213    3.8511 C   0  0  2  0  0  0  0  0  0  0  0  0 
    3.8726    0.7261    1.8823 C   0  0  1  0  0  0  0  0  0  0  0  0 
    1.5079    1.5742    2.0011 C   0  0  2  0  0  0  0  0  0  0  0  0 
    2.6260    1.0921    1.0407 C   0  0  2  0  0  0  0  0  0  0  0  0 
    2.2022   -0.0577    0.2347 N   0  0  0  0  0  0  0  0  0  0  0  0 
    1.1127   -0.6211   -1.4612 H   0  0  0  0  0  0  0  0  0  0  0  0 
    1.5884    1.0984   -1.4860 H   0  0  0  0  0  0  0  0  0  0  0  0 
    0.2881    0.5349   -0.4154 H   0  0  0  0  0  0  0  0  0  0  0  0 
    2.1293    1.7362    5.2873 H   0  0  0  0  0  0  0  0  0  0  0  0 
    3.7897    1.1420    5.2079 H   0  0  0  0  0  0  0  0  0  0  0  0 
    5.2700    1.7428    3.2037 H   0  0  0  0  0  0  0  0  0  0  0  0 
    4.6362    2.7699    1.9152 H   0  0  0  0  0  0  0  0  0  0  0  0 
    2.2324    3.6331    2.0312 H   0  0  0  0  0  0  0  0  0  0  0  0 
    1.2054    3.2117    3.4023 H   0  0  0  0  0  0  0  0  0  0  0  0 
    3.1983   -1.2850    2.3826 H   0  0  0  0  0  0  0  0  0  0  0  0 
    4.4290   -0.6419    3.4780 H   0  0  0  0  0  0  0  0  0  0  0  0 
    0.3580    0.8102    3.6811 H   0  0  0  0  0  0  0  0  0  0  0  0 
    0.8055   -0.4231    2.4928 H   0  0  0  0  0  0  0  0  0  0  0  0 
    3.6039    3.3841    4.1083 H   0  0  0  0  0  0  0  0  0  0  0  0 
    2.1746   -0.6648    4.5780 H   0  0  0  0  0  0  0  0  0  0  0  0 
    4.6660    0.3731    1.2056 H   0  0  0  0  0  0  0  0  0  0  0  0 
    0.6118    1.8305    1.4213 H   0  0  0  0  0  0  0  0  0  0  0  0 
    2.8963    1.9466    0.3853 H   0  0  0  0  0  0  0  0  0  0  0  0 
    3.0334   -0.4771   -0.1793 H   0  0  0  0  0  0  0  0  0  0  0  0 
  1 15  1  0  0  0  0 
  1 12  1  0  0  0  0 
  2 17  1  0  0  0  0 
  2 16  1  0  0  0  0 
  3 18  1  0  0  0  0 
  3  7  1  0  0  0  0 
  4 21  1  0  0  0  0 
  4  7  1  0  0  0  0 
  5 23  1  0  0  0  0 
  5  8  1  0  0  0  0 
  6 24  1  0  0  0  0 
  6  8  1  0  0  0  0 
  7 26  1  1  0  0  0 
  7  2  1  0  0  0  0 
  8 27  1  1  0  0  0 
  8  2  1  0  0  0  0 
  9 28  1  6  0  0  0 
  9  3  1  0  0  0  0 
  9  5  1  0  0  0  0 
 10 29  1  6  0  0  0 
 10  4  1  0  0  0  0 
 10  6  1  0  0  0  0 
 11 30  1  6  0  0  0 
 11  9  1  0  0  0  0 
 11 10  1  0  0  0  0 
 12 11  1  0  0  0  0 
 13  1  1  0  0  0  0 
 14  1  1  0  0  0  0 
 19  3  1  0  0  0  0 
 20  4  1  0  0  0  0 
 22  5  1  0  0  0  0 
 25  6  1  0  0  0  0 
 31 12  1  0  0  0  0 
M  END 
>  <HBA> 
1 
 
>  <HBD> 
1 
 
>  <TPSA> 
12.03 
 
>  <cid> 
25334 
 
>  <dipole> 
0.87 
 
>  <excitation_energy_1> 
5.177 
 
>  <excitation_energy_2> 
5.658 
 
>  <excitation_energy_3> 
5.796 
 
>  <excitation_energy_4> 
5.921 
 
>  <homo_energy> 
-5.826 
 
>  <homo_lumo_gap> 
7.755 
 
>  <logP> 
2.421 
 
>  <lumo_energy> 
1.929 
 
>  <melting_point> 
65.03 
 
>  <molecular_refractivity> 
51.45 
 
>  <oscillator_strength_1> 
0.0048 
 
>  <oscillator_strength_2> 
0.005 
 
>  <oscillator_strength_3> 
0.0181 
 
>  <oscillator_strength_4> 
0.0257 
 
>  <open_babel_can_smiles> 
CN[C@@H]1[C@@H]2C[C@@H]3C[C@H]1C[C@H](C2)C3 
 
>  <mulliken_charges> 
31 
1   -0.304305 
2   -0.26475 
3   -0.267963 
4   -0.270843 
5   -0.2581 
6   -0.260166 
7   -0.08615 
8   -0.091168 
9   -0.120567 
10   -0.097797 
11   0.058328 
12   -0.555501 
13   0.145799 
14   0.118357 
15   0.155915 
16   0.122943 
17   0.122113 
18   0.125795 
19   0.124207 
20   0.123492 
21   0.125736 
22   0.142436 
23   0.11907 
24   0.117676 
25   0.147866 
26   0.112922 
27   0.112245 
28   0.104967 
29   0.114494 
30   0.09108 
31   0.291868 
 
>  <lowdin_charges> 
31 
1   -0.362332 
2   -0.28304 
3   -0.28123 
4   -0.282553 
5   -0.283004 
6   -0.283566 
7   -0.131846 
8   -0.130533 
9   -0.137249 
10   -0.137719 
11   -0.071462 
12   -0.361519 
13   0.150769 
14   0.120994 
15   0.147894 
16   0.139366 
17   0.138297 
18   0.14057 
19   0.13955 
20   0.138909 
21   0.141461 
22   0.149079 
23   0.137035 
24   0.137317 
25   0.152127 
26   0.138162 
27   0.138214 
28   0.133274 
29   0.13851 
30   0.112495 
31   0.252032 
 
$$$$ 
 
