PCCDB-ID:  50400 
public computational chemistry database (PCCDB) project, http://pccdb.org 
 
 33 34  0  0  1  0  0  0  0  0999 V2000 
    2.3554    4.1420   -0.0096 C   0  0  0  0  0  0  0  0  0  0  0  0 
    3.7752    3.7228   -0.4069 C   0  0  0  0  0  0  0  0  0  0  0  0 
    4.9327   -0.2919   -2.2045 C   0  0  0  0  0  0  0  0  0  0  0  0 
    7.3338   -0.2574   -1.6211 C   0  0  0  0  0  0  0  0  0  0  0  0 
    4.9392    0.9983   -2.5575 C   0  0  0  0  0  0  0  0  0  0  0  0 
    7.3392    1.2466   -2.0068 C   0  0  0  0  0  0  0  0  0  0  0  0 
    4.0825    2.2742   -0.0035 C   0  0  0  0  0  0  0  0  0  0  0  0 
    5.6286    0.2455    0.1366 C   0  0  0  0  0  0  0  0  0  0  0  0 
    5.9174   -0.6351   -1.1103 C   0  0  1  0  0  0  0  0  0  0  0  0 
    5.9188    1.8520   -1.7806 C   0  0  2  0  0  0  0  0  0  0  0  0 
    6.4641    2.6316    0.6214 C   0  0  0  0  0  0  0  0  0  0  0  0 
    5.5387    1.7682   -0.2580 C   0  0  1  0  0  0  0  0  0  0  0  0 
    7.2132    3.6036    0.2910 N   0  0  0  0  0  0  0  0  0  0  0  0 
    6.4075    2.3567    1.9605 O   0  0  0  0  0  0  0  0  0  0  0  0 
    2.1493    5.1756   -0.3092 H   0  0  0  0  0  0  0  0  0  0  0  0 
    2.2123    4.0758    1.0759 H   0  0  0  0  0  0  0  0  0  0  0  0 
    1.6017    3.5007   -0.4832 H   0  0  0  0  0  0  0  0  0  0  0  0 
    4.5022    4.4012    0.0561 H   0  0  0  0  0  0  0  0  0  0  0  0 
    3.8915    3.8378   -1.4929 H   0  0  0  0  0  0  0  0  0  0  0  0 
    4.3044   -1.0482   -2.6680 H   0  0  0  0  0  0  0  0  0  0  0  0 
    8.0708   -0.4610   -0.8344 H   0  0  0  0  0  0  0  0  0  0  0  0 
    7.5969   -0.8849   -2.4787 H   0  0  0  0  0  0  0  0  0  0  0  0 
    4.3104    1.4204   -3.3372 H   0  0  0  0  0  0  0  0  0  0  0  0 
    7.6082    1.3770   -3.0599 H   0  0  0  0  0  0  0  0  0  0  0  0 
    8.0792    1.7935   -1.4161 H   0  0  0  0  0  0  0  0  0  0  0  0 
    3.3982    1.5962   -0.5270 H   0  0  0  0  0  0  0  0  0  0  0  0 
    3.8625    2.1557    1.0680 H   0  0  0  0  0  0  0  0  0  0  0  0 
    6.4331    0.0715    0.8621 H   0  0  0  0  0  0  0  0  0  0  0  0 
    4.6917   -0.0778    0.6065 H   0  0  0  0  0  0  0  0  0  0  0  0 
    5.8758   -1.6929   -0.8311 H   0  0  0  0  0  0  0  0  0  0  0  0 
    5.8926    2.8909   -2.1224 H   0  0  0  0  0  0  0  0  0  0  0  0 
    7.1848    3.7480   -0.7171 H   0  0  0  0  0  0  0  0  0  0  0  0 
    5.8088    1.6107    2.1132 H   0  0  0  0  0  0  0  0  0  0  0  0 
  1 16  1  0  0  0  0 
  2  1  1  0  0  0  0 
  2  7  1  0  0  0  0 
  2 18  1  0  0  0  0 
  3  9  1  0  0  0  0 
  4  9  1  0  0  0  0 
  4 21  1  0  0  0  0 
  5  3  2  0  0  0  0 
  5 10  1  0  0  0  0 
  6 10  1  0  0  0  0 
  6  4  1  0  0  0  0 
  6 25  1  0  0  0  0 
  7 27  1  0  0  0  0 
  8 29  1  0  0  0  0 
  8 28  1  0  0  0  0 
  9 30  1  1  0  0  0 
  9  8  1  0  0  0  0 
 10 31  1  6  0  0  0 
 10 12  1  0  0  0  0 
 11 14  1  0  0  0  0 
 12  7  1  0  0  0  0 
 12  8  1  0  0  0  0 
 12 11  1  1  0  0  0 
 13 11  2  0  0  0  0 
 14 33  1  0  0  0  0 
 15  1  1  0  0  0  0 
 17  1  1  0  0  0  0 
 19  2  1  0  0  0  0 
 20  3  1  0  0  0  0 
 22  4  1  0  0  0  0 
 23  5  1  0  0  0  0 
 24  6  1  0  0  0  0 
 26  7  1  0  0  0  0 
 32 13  1  0  0  0  0 
M  END 
>  <HBA> 
2 
 
>  <HBD> 
1 
 
>  <TPSA> 
43.09 
 
>  <cid> 
50400 
 
>  <dipole> 
4.3 
 
>  <excitation_energy_1> 
5.98 
 
>  <excitation_energy_2> 
6.047 
 
>  <excitation_energy_3> 
6.183 
 
>  <excitation_energy_4> 
6.289 
 
>  <homo_energy> 
-6.795 
 
>  <homo_lumo_gap> 
7.08 
 
>  <logP> 
2.945 
 
>  <lumo_energy> 
0.286 
 
>  <melting_point> 
118.73 
 
>  <molecular_refractivity> 
57.74 
 
>  <oscillator_strength_1> 
0.0206 
 
>  <oscillator_strength_2> 
0.0018 
 
>  <oscillator_strength_3> 
0.0027 
 
>  <oscillator_strength_4> 
0.0016 
 
>  <open_babel_can_smiles> 
CCC[C@]1(C[C@@H]2CC[C@H]1C=C2)C(=N)O 
 
>  <mulliken_charges> 
33 
1   -0.443642 
2   -0.268599 
3   -0.106499 
4   -0.264941 
5   -0.120593 
6   -0.278269 
7   -0.270278 
8   -0.33457 
9   -0.136174 
10   -0.172346 
11   0.469087 
12   0.034174 
13   -0.598728 
14   -0.586934 
15   0.146811 
16   0.145353 
17   0.14071 
18   0.160331 
19   0.133155 
20   0.129885 
21   0.139229 
22   0.142166 
23   0.13048 
24   0.142314 
25   0.15414 
26   0.149004 
27   0.119802 
28   0.146352 
29   0.142896 
30   0.124275 
31   0.126994 
32   0.292102 
33   0.412313 
 
>  <lowdin_charges> 
33 
1   -0.440686 
2   -0.281187 
3   -0.17417 
4   -0.279072 
5   -0.172706 
6   -0.287186 
7   -0.276661 
8   -0.290882 
9   -0.126092 
10   -0.135674 
11   0.127343 
12   -0.028943 
13   -0.400596 
14   -0.366873 
15   0.151182 
16   0.146236 
17   0.146799 
18   0.155096 
19   0.138037 
20   0.157782 
21   0.146332 
22   0.149117 
23   0.157269 
24   0.14868 
25   0.155535 
26   0.152457 
27   0.133898 
28   0.149373 
29   0.148119 
30   0.146029 
31   0.144714 
32   0.253637 
33   0.353094 
 
$$$$ 
 
