PCCDB-ID:  17356 
public computational chemistry database (PCCDB) project, http://pccdb.org 
 
 36 37  0  0  0  0  0  0  0  0999 V2000 
   -1.2656    2.5888    0.6995 C   0  0  0  0  0  0  0  0  0  0  0  0 
    1.2119   -6.3978   -0.1609 C   0  0  0  0  0  0  0  0  0  0  0  0 
    0.0828    1.8913    0.4639 C   0  0  0  0  0  0  0  0  0  0  0  0 
   -2.3918    1.5670    0.9169 C   0  0  0  0  0  0  0  0  0  0  0  0 
    0.0756   -5.7199    0.6204 C   0  0  0  0  0  0  0  0  0  0  0  0 
    2.1191   -5.3611   -0.8414 C   0  0  0  0  0  0  0  0  0  0  0  0 
    0.0071    0.8949   -0.7024 C   0  0  0  0  0  0  0  0  0  0  0  0 
   -2.4764    0.5687   -0.2502 C   0  0  0  0  0  0  0  0  0  0  0  0 
   -0.7382   -4.7721   -0.2730 C   0  0  0  0  0  0  0  0  0  0  0  0 
    1.3092   -4.4105   -1.7389 C   0  0  0  0  0  0  0  0  0  0  0  0 
   -1.1328   -0.1237   -0.5545 C   0  0  0  0  0  0  0  0  0  0  0  0 
    0.1319   -3.7389   -1.0045 C   0  0  0  0  0  0  0  0  0  0  0  0 
   -0.8285   -1.3857    0.7967 S   0  0  0  0  0  0  0  0  0  0  0  0 
    0.8417   -2.4340    0.1372 S   0  0  0  0  0  0  0  0  0  0  0  0 
   -1.5093    3.2152   -0.1721 H   0  0  0  0  0  0  0  0  0  0  0  0 
   -1.1983    3.2656    1.5606 H   0  0  0  0  0  0  0  0  0  0  0  0 
    0.7813   -7.0598   -0.9275 H   0  0  0  0  0  0  0  0  0  0  0  0 
    1.8032   -7.0372    0.5067 H   0  0  0  0  0  0  0  0  0  0  0  0 
    0.3825    1.3600    1.3765 H   0  0  0  0  0  0  0  0  0  0  0  0 
    0.8652    2.6333    0.2607 H   0  0  0  0  0  0  0  0  0  0  0  0 
   -3.3564    2.0782    1.0284 H   0  0  0  0  0  0  0  0  0  0  0  0 
   -2.2158    1.0256    1.8562 H   0  0  0  0  0  0  0  0  0  0  0  0 
    0.4981   -5.1536    1.4605 H   0  0  0  0  0  0  0  0  0  0  0  0 
   -0.5910   -6.4757    1.0545 H   0  0  0  0  0  0  0  0  0  0  0  0 
    2.8881   -5.8619   -1.4430 H   0  0  0  0  0  0  0  0  0  0  0  0 
    2.6517   -4.7833   -0.0739 H   0  0  0  0  0  0  0  0  0  0  0  0 
    0.9600    0.3686   -0.8294 H   0  0  0  0  0  0  0  0  0  0  0  0 
   -0.1713    1.4466   -1.6386 H   0  0  0  0  0  0  0  0  0  0  0  0 
   -2.7708    1.1099   -1.1616 H   0  0  0  0  0  0  0  0  0  0  0  0 
   -3.2564   -0.1801   -0.0663 H   0  0  0  0  0  0  0  0  0  0  0  0 
   -1.5156   -4.2598    0.3052 H   0  0  0  0  0  0  0  0  0  0  0  0 
   -1.2606   -5.3605   -1.0437 H   0  0  0  0  0  0  0  0  0  0  0  0 
    0.8795   -4.9869   -2.5716 H   0  0  0  0  0  0  0  0  0  0  0  0 
    1.9600   -3.6507   -2.1881 H   0  0  0  0  0  0  0  0  0  0  0  0 
   -1.2301   -0.7025   -1.4792 H   0  0  0  0  0  0  0  0  0  0  0  0 
   -0.4779   -3.1917   -1.7311 H   0  0  0  0  0  0  0  0  0  0  0  0 
  1  4  1  0  0  0  0 
  1 16  1  0  0  0  0 
  2 18  1  0  0  0  0 
  2  5  1  0  0  0  0 
  3  1  1  0  0  0  0 
  3 19  1  0  0  0  0 
  4 21  1  0  0  0  0 
  4 22  1  0  0  0  0 
  5 24  1  0  0  0  0 
  5 23  1  0  0  0  0 
  6  2  1  0  0  0  0 
  6 26  1  0  0  0  0 
  7 11  1  0  0  0  0 
  7  3  1  0  0  0  0 
  8 30  1  0  0  0  0 
  8  4  1  0  0  0  0 
  9 31  1  0  0  0  0 
  9  5  1  0  0  0  0 
 10 12  1  0  0  0  0 
 10  6  1  0  0  0  0 
 11  8  1  0  0  0  0 
 11 13  1  0  0  0  0 
 12  9  1  0  0  0  0 
 12 14  1  0  0  0  0 
 14 13  1  0  0  0  0 
 15  1  1  0  0  0  0 
 17  2  1  0  0  0  0 
 20  3  1  0  0  0  0 
 25  6  1  0  0  0  0 
 27  7  1  0  0  0  0 
 28  7  1  0  0  0  0 
 29  8  1  0  0  0  0 
 32  9  1  0  0  0  0 
 33 10  1  0  0  0  0 
 34 10  1  0  0  0  0 
 35 11  1  0  0  0  0 
 36 12  1  0  0  0  0 
M  END 
>  <HBA> 
2 
 
>  <HBD> 
0 
 
>  <TPSA> 
50.6 
 
>  <cid> 
17356 
 
>  <dipole> 
2.1 
 
>  <excitation_energy_1> 
4.534 
 
>  <excitation_energy_2> 
4.607 
 
>  <excitation_energy_3> 
5.522 
 
>  <excitation_energy_4> 
5.607 
 
>  <homo_energy> 
-6.174 
 
>  <homo_lumo_gap> 
5.774 
 
>  <logP> 
5.033 
 
>  <lumo_energy> 
-0.4 
 
>  <melting_point> 
32.55 
 
>  <molecular_refractivity> 
70.75 
 
>  <oscillator_strength_1> 
0.0066 
 
>  <oscillator_strength_2> 
0.0013 
 
>  <oscillator_strength_3> 
0.0003 
 
>  <oscillator_strength_4> 
0.0049 
 
>  <open_babel_can_smiles> 
C1CCC(CC1)SSC1CCCCC1 
 
>  <mulliken_charges> 
36 
1   -0.255718 
2   -0.256164 
3   -0.261501 
4   -0.264457 
5   -0.261373 
6   -0.265456 
7   -0.263305 
8   -0.277622 
9   -0.262773 
10   -0.276035 
11   -0.243928 
12   -0.244994 
13   -0.012262 
14   -0.012249 
15   0.124444 
16   0.132947 
17   0.124688 
18   0.133069 
19   0.154417 
20   0.131569 
21   0.13341 
22   0.15315 
23   0.154697 
24   0.131552 
25   0.133657 
26   0.153064 
27   0.16288 
28   0.131848 
29   0.140843 
30   0.151131 
31   0.16216 
32   0.131869 
33   0.14065 
34   0.150791 
35   0.162235 
36   0.162766 
 
>  <lowdin_charges> 
36 
1   -0.278524 
2   -0.280503 
3   -0.282159 
4   -0.280396 
5   -0.283303 
6   -0.283174 
7   -0.284267 
8   -0.283248 
9   -0.286391 
10   -0.28447 
11   -0.22402 
12   -0.225294 
13   0.003271 
14   0.004005 
15   0.135857 
16   0.145323 
17   0.13662 
18   0.146454 
19   0.151395 
20   0.145763 
21   0.14523 
22   0.149218 
23   0.152017 
24   0.146272 
25   0.146822 
26   0.150391 
27   0.158193 
28   0.142368 
29   0.147908 
30   0.154032 
31   0.159206 
32   0.143511 
33   0.148347 
34   0.154466 
35   0.153627 
36   0.155452 
 
$$$$ 
 
