PCCDB-ID:  6661 
public computational chemistry database (PCCDB) project, http://pccdb.org 
 
 18 18  0  0  0  0  0  0  0  0999 V2000 
    1.3269    0.1082   -0.6752 C   0  0  0  0  0  0  0  0  0  0  0  0 
    5.6051    1.6569    1.1017 C   0  0  0  0  0  0  0  0  0  0  0  0 
    3.2638   -1.1432    0.3673 C   0  0  0  0  0  0  0  0  0  0  0  0 
    4.6816   -0.6709    0.7394 C   0  0  0  0  0  0  0  0  0  0  0  0 
    3.3820    1.1803    0.1560 C   0  0  0  0  0  0  0  0  0  0  0  0 
    2.7155    0.0392   -0.2772 N   0  0  0  0  0  0  0  0  0  0  0  0 
    4.4891    0.7627    0.8868 N   0  0  0  0  0  0  0  0  0  0  0  0 
    3.0552    2.3369   -0.0647 O   0  0  0  0  0  0  0  0  0  0  0  0 
    1.1301   -0.5842   -1.5017 H   0  0  0  0  0  0  0  0  0  0  0  0 
    1.1254    1.1292   -1.0048 H   0  0  0  0  0  0  0  0  0  0  0  0 
    0.6470   -0.1382    0.1561 H   0  0  0  0  0  0  0  0  0  0  0  0 
    6.3926    1.5230    0.3429 H   0  0  0  0  0  0  0  0  0  0  0  0 
    6.0454    1.4893    2.0913 H   0  0  0  0  0  0  0  0  0  0  0  0 
    5.2286    2.6799    1.0429 H   0  0  0  0  0  0  0  0  0  0  0  0 
    2.6844   -1.4130    1.2662 H   0  0  0  0  0  0  0  0  0  0  0  0 
    3.2712   -2.0060   -0.3073 H   0  0  0  0  0  0  0  0  0  0  0  0 
    5.4012   -0.8965   -0.0655 H   0  0  0  0  0  0  0  0  0  0  0  0 
    5.0483   -1.1283    1.6647 H   0  0  0  0  0  0  0  0  0  0  0  0 
  1  6  1  0  0  0  0 
  1 11  1  0  0  0  0 
  2 13  1  0  0  0  0 
  3  4  1  0  0  0  0 
  3 15  1  0  0  0  0 
  4  7  1  0  0  0  0 
  4 18  1  0  0  0  0 
  5  7  1  0  0  0  0 
  6  5  1  0  0  0  0 
  6  3  1  0  0  0  0 
  7  2  1  0  0  0  0 
  8  5  2  0  0  0  0 
  9  1  1  0  0  0  0 
 10  1  1  0  0  0  0 
 12  2  1  0  0  0  0 
 14  2  1  0  0  0  0 
 16  3  1  0  0  0  0 
 17  4  1  0  0  0  0 
M  END 
>  <HBA> 
3 
 
>  <HBD> 
0 
 
>  <TPSA> 
23.55 
 
>  <cid> 
6661 
 
>  <dipole> 
3.74 
 
>  <excitation_energy_1> 
5.612 
 
>  <excitation_energy_2> 
5.898 
 
>  <excitation_energy_3> 
6.15 
 
>  <excitation_energy_4> 
6.198 
 
>  <homo_energy> 
-6.147 
 
>  <homo_lumo_gap> 
7.783 
 
>  <logP> 
-0.141 
 
>  <lumo_energy> 
1.635 
 
>  <melting_point> 
33.68 
 
>  <molecular_refractivity> 
38.25 
 
>  <oscillator_strength_1> 
0.0002 
 
>  <oscillator_strength_2> 
0.0702 
 
>  <oscillator_strength_3> 
0.0399 
 
>  <oscillator_strength_4> 
0.0001 
 
>  <open_babel_can_smiles> 
CN1CCN(C1=O)C 
 
>  <mulliken_charges> 
18 
1   -0.313419 
2   -0.313346 
3   -0.130135 
4   -0.130755 
5   0.766558 
6   -0.454031 
7   -0.453776 
8   -0.548925 
9   0.15186 
10   0.196897 
11   0.14251 
12   0.142454 
13   0.151874 
14   0.196876 
15   0.143891 
16   0.153723 
17   0.143953 
18   0.15379 
 
>  <lowdin_charges> 
18 
1   -0.351372 
2   -0.351081 
3   -0.193921 
4   -0.194093 
5   0.171184 
6   -0.134941 
7   -0.13642 
8   -0.327426 
9   0.150638 
10   0.179979 
11   0.140583 
12   0.140314 
13   0.149683 
14   0.179819 
15   0.136904 
16   0.151473 
17   0.137232 
18   0.151446 
 
$$$$ 
 
