PCCDB-ID:  59420 
public computational chemistry database (PCCDB) project, http://pccdb.org 
 
 33 33  0  0  0  0  0  0  0  0999 V2000 
    5.3517    3.5043   -0.8199 C   0  0  0  0  0  0  0  0  0  0  0  0 
    4.7447    2.1203   -0.5681 C   0  0  0  0  0  0  0  0  0  0  0  0 
    5.1315    1.0866   -1.6341 C   0  0  0  0  0  0  0  0  0  0  0  0 
    4.5175   -0.2981   -1.3833 C   0  0  0  0  0  0  0  0  0  0  0  0 
    4.8164   -1.3460   -2.4670 C   0  0  0  0  0  0  0  0  0  0  0  0 
    6.3077   -1.7386   -2.5629 C   0  0  0  0  0  0  0  0  0  0  0  0 
    6.8727   -3.8564   -5.4565 C   0  0  0  0  0  0  0  0  0  0  0  0 
    6.8994   -4.8304   -4.4947 C   0  0  0  0  0  0  0  0  0  0  0  0 
    6.5659   -2.7878   -3.5968 C   0  0  0  0  0  0  0  0  0  0  0  0 
    5.7602   -5.7280   -0.1839 C   0  0  0  0  0  0  0  0  0  0  0  0 
    5.5392   -5.1397   -1.5901 C   0  0  0  0  0  0  0  0  0  0  0  0 
    6.6680   -2.6119   -4.8993 N   0  0  0  0  0  0  0  0  0  0  0  0 
    6.6901   -4.1287   -3.3243 N   0  0  0  0  0  0  0  0  0  0  0  0 
    4.6206   -6.2775    0.2574 O   0  0  0  0  0  0  0  0  0  0  0  0 
    6.8030   -5.6867    0.4179 O   0  0  0  0  0  0  0  0  0  0  0  0 
    4.4942   -5.0756   -2.1672 O   0  0  0  0  0  0  0  0  0  0  0  0 
    6.7557   -4.6957   -2.0554 O   0  0  0  0  0  0  0  0  0  0  0  0 
    5.0590    4.2175   -0.0408 H   0  0  0  0  0  0  0  0  0  0  0  0 
    5.0238    3.9111   -1.7844 H   0  0  0  0  0  0  0  0  0  0  0  0 
    6.4476    3.4600   -0.8360 H   0  0  0  0  0  0  0  0  0  0  0  0 
    3.6492    2.2032   -0.5262 H   0  0  0  0  0  0  0  0  0  0  0  0 
    5.0593    1.7562    0.4204 H   0  0  0  0  0  0  0  0  0  0  0  0 
    6.2274    1.0133   -1.6756 H   0  0  0  0  0  0  0  0  0  0  0  0 
    4.8137    1.4488   -2.6232 H   0  0  0  0  0  0  0  0  0  0  0  0 
    3.4268   -0.1894   -1.3019 H   0  0  0  0  0  0  0  0  0  0  0  0 
    4.8565   -0.6753   -0.4063 H   0  0  0  0  0  0  0  0  0  0  0  0 
    4.4937   -0.9734   -3.4475 H   0  0  0  0  0  0  0  0  0  0  0  0 
    4.2243   -2.2489   -2.2718 H   0  0  0  0  0  0  0  0  0  0  0  0 
    6.6671   -2.0873   -1.5865 H   0  0  0  0  0  0  0  0  0  0  0  0 
    6.9086   -0.8645   -2.8321 H   0  0  0  0  0  0  0  0  0  0  0  0 
    6.9917   -3.9782   -6.5245 H   0  0  0  0  0  0  0  0  0  0  0  0 
    7.0409   -5.8994   -4.5013 H   0  0  0  0  0  0  0  0  0  0  0  0 
    4.8068   -6.6293    1.1491 H   0  0  0  0  0  0  0  0  0  0  0  0 
  1  2  1  0  0  0  0 
  1 18  1  0  0  0  0 
  2 21  1  0  0  0  0 
  2 22  1  0  0  0  0 
  3  4  1  0  0  0  0 
  3  2  1  0  0  0  0 
  4 25  1  0  0  0  0 
  4 26  1  0  0  0  0 
  5 28  1  0  0  0  0 
  5  4  1  0  0  0  0 
  6  5  1  0  0  0  0 
  6 29  1  0  0  0  0 
  7 12  1  0  0  0  0 
  7  8  2  0  0  0  0 
  8 13  1  0  0  0  0 
  9 13  1  0  0  0  0 
  9  6  1  0  0  0  0 
 10 14  1  0  0  0  0 
 10 15  2  0  0  0  0 
 11 10  1  0  0  0  0 
 12  9  2  0  0  0  0 
 13 17  1  0  0  0  0 
 14 33  1  0  0  0  0 
 16 11  2  0  0  0  0 
 17 11  1  0  0  0  0 
 19  1  1  0  0  0  0 
 20  1  1  0  0  0  0 
 23  3  1  0  0  0  0 
 24  3  1  0  0  0  0 
 27  5  1  0  0  0  0 
 30  6  1  0  0  0  0 
 31  7  1  0  0  0  0 
 32  8  1  0  0  0  0 
M  END 
>  <HBA> 
6 
 
>  <HBD> 
1 
 
>  <TPSA> 
81.42 
 
>  <cid> 
59420 
 
>  <dipole> 
3.4 
 
>  <excitation_energy_1> 
2.851 
 
>  <excitation_energy_2> 
3.912 
 
>  <excitation_energy_3> 
4.112 
 
>  <excitation_energy_4> 
4.326 
 
>  <homo_energy> 
-6.212 
 
>  <homo_lumo_gap> 
3.712 
 
>  <logP> 
1.046 
 
>  <lumo_energy> 
-2.501 
 
>  <melting_point> 
120.39 
 
>  <molecular_refractivity> 
60.45 
 
>  <oscillator_strength_1> 
0.0 
 
>  <oscillator_strength_2> 
0.0001 
 
>  <oscillator_strength_3> 
0.0114 
 
>  <oscillator_strength_4> 
0.0005 
 
>  <open_babel_can_smiles> 
CCCCCCc1nccn1OC(=O)C(=O)O 
 
>  <mulliken_charges> 
33 
1   -0.44192 
2   -0.247035 
3   -0.250134 
4   -0.256513 
5   -0.266374 
6   -0.343687 
7   -0.039373 
8   0.031309 
9   0.510215 
10   0.532051 
11   0.612873 
12   -0.480235 
13   -0.201483 
14   -0.533275 
15   -0.418079 
16   -0.397659 
17   -0.385328 
18   0.141788 
19   0.14307 
20   0.141778 
21   0.130797 
22   0.129412 
23   0.131771 
24   0.132706 
25   0.134005 
26   0.123463 
27   0.156352 
28   0.145953 
29   0.147264 
30   0.178167 
31   0.142016 
32   0.168169 
33   0.427939 
 
>  <lowdin_charges> 
33 
1   -0.443112 
2   -0.268943 
3   -0.274763 
4   -0.273727 
5   -0.274657 
6   -0.282317 
7   -0.140171 
8   -0.16688 
9   0.055624 
10   0.165352 
11   0.174246 
12   -0.191629 
13   0.091235 
14   -0.310265 
15   -0.210411 
16   -0.168451 
17   -0.094423 
18   0.150195 
19   0.147051 
20   0.144354 
21   0.136695 
22   0.137833 
23   0.136142 
24   0.13989 
25   0.142285 
26   0.135311 
27   0.152993 
28   0.148925 
29   0.153556 
30   0.171861 
31   0.164022 
32   0.177992 
33   0.37419 
 
$$$$ 
 
