PCCDB-ID:  11353 
public computational chemistry database (PCCDB) project, http://pccdb.org 
 
 25 27  0  0  0  0  0  0  0  0999 V2000 
   -3.6281   -0.6599    0.0145 C   0  0  0  0  0  0  0  0  0  0  0  0 
   -3.5756    0.7652    0.0045 C   0  0  0  0  0  0  0  0  0  0  0  0 
    3.6477   -0.6503    0.0107 C   0  0  0  0  0  0  0  0  0  0  0  0 
   -2.4732   -1.3975    0.0099 C   0  0  0  0  0  0  0  0  0  0  0  0 
    2.5047   -1.4095    0.0104 C   0  0  0  0  0  0  0  0  0  0  0  0 
    3.6040    0.7675   -0.0279 C   0  0  0  0  0  0  0  0  0  0  0  0 
   -2.3719    1.4210   -0.0110 C   0  0  0  0  0  0  0  0  0  0  0  0 
    0.0149   -1.4485    0.0002 C   0  0  0  0  0  0  0  0  0  0  0  0 
   -1.1986   -0.7531   -0.0054 C   0  0  0  0  0  0  0  0  0  0  0  0 
    1.2337   -0.7627   -0.0138 C   0  0  0  0  0  0  0  0  0  0  0  0 
    2.3985    1.4438   -0.0673 C   0  0  0  0  0  0  0  0  0  0  0  0 
   -1.1455    0.6891   -0.0185 C   0  0  0  0  0  0  0  0  0  0  0  0 
    1.1668    0.6786   -0.0432 C   0  0  0  0  0  0  0  0  0  0  0  0 
    2.2899    2.8143   -0.1685 N   0  0  0  0  0  0  0  0  0  0  0  0 
    0.0169    1.3653   -0.0370 N   0  0  0  0  0  0  0  0  0  0  0  0 
   -4.5938   -1.1578    0.0263 H   0  0  0  0  0  0  0  0  0  0  0  0 
   -4.5035    1.3307    0.0082 H   0  0  0  0  0  0  0  0  0  0  0  0 
    4.6196   -1.1366    0.0363 H   0  0  0  0  0  0  0  0  0  0  0  0 
   -2.5077   -2.4845    0.0182 H   0  0  0  0  0  0  0  0  0  0  0  0 
    2.5477   -2.4948    0.0330 H   0  0  0  0  0  0  0  0  0  0  0  0 
    4.5339    1.3308   -0.0392 H   0  0  0  0  0  0  0  0  0  0  0  0 
   -2.3093    2.5048   -0.0210 H   0  0  0  0  0  0  0  0  0  0  0  0 
    0.0117   -2.5370    0.0193 H   0  0  0  0  0  0  0  0  0  0  0  0 
    3.0535    3.3667    0.1953 H   0  0  0  0  0  0  0  0  0  0  0  0 
    1.3610    3.1653    0.0338 H   0  0  0  0  0  0  0  0  0  0  0  0 
  1 16  1  0  0  0  0 
  2 17  1  0  0  0  0 
  2  1  1  0  0  0  0 
  3 18  1  0  0  0  0 
  4  1  2  0  0  0  0 
  4 19  1  0  0  0  0 
  5  3  1  0  0  0  0 
  5 20  1  0  0  0  0 
  6  3  2  0  0  0  0 
  7  2  2  0  0  0  0 
  8 23  1  0  0  0  0 
  9  8  2  0  0  0  0 
  9  4  1  0  0  0  0 
 10  8  1  0  0  0  0 
 10  5  2  0  0  0  0 
 11 13  2  0  0  0  0 
 11  6  1  0  0  0  0 
 12  7  1  0  0  0  0 
 12  9  1  0  0  0  0 
 13 15  1  0  0  0  0 
 13 10  1  0  0  0  0 
 14 11  1  0  0  0  0 
 14 25  1  0  0  0  0 
 14 24  1  0  0  0  0 
 15 12  2  0  0  0  0 
 21  6  1  0  0  0  0 
 22  7  1  0  0  0  0 
M  END 
>  <HBA> 
2 
 
>  <HBD> 
1 
 
>  <TPSA> 
38.91 
 
>  <cid> 
11353 
 
>  <dipole> 
0.92 
 
>  <excitation_energy_1> 
2.691 
 
>  <excitation_energy_2> 
3.771 
 
>  <excitation_energy_3> 
3.962 
 
>  <excitation_energy_4> 
4.051 
 
>  <homo_energy> 
-4.993 
 
>  <homo_lumo_gap> 
3.186 
 
>  <logP> 
3.551 
 
>  <lumo_energy> 
-1.807 
 
>  <melting_point> 
158.65 
 
>  <molecular_refractivity> 
63.65 
 
>  <oscillator_strength_1> 
0.0444 
 
>  <oscillator_strength_2> 
0.0017 
 
>  <oscillator_strength_3> 
0.0122 
 
>  <oscillator_strength_4> 
0.0009 
 
>  <open_babel_can_smiles> 
Nc1cccc2c1nc1ccccc1c2 
 
>  <mulliken_charges> 
25 
1   -0.137767 
2   -0.139037 
3   -0.137785 
4   -0.189183 
5   -0.203758 
6   -0.202705 
7   -0.144327 
8   -0.238029 
9   0.154904 
10   0.166242 
11   0.314075 
12   0.262171 
13   0.234534 
14   -0.796834 
15   -0.649828 
16   0.133145 
17   0.133725 
18   0.127712 
19   0.132731 
20   0.121622 
21   0.116561 
22   0.137181 
23   0.137113 
24   0.320458 
25   0.347082 
 
>  <lowdin_charges> 
25 
1   -0.158058 
2   -0.154494 
3   -0.141524 
4   -0.152641 
5   -0.195484 
6   -0.217889 
7   -0.15209 
8   -0.126741 
9   -0.018645 
10   -0.010053 
11   0.061787 
12   0.043489 
13   0.02651 
14   -0.472768 
15   -0.166889 
16   0.160032 
17   0.160902 
18   0.157982 
19   0.156909 
20   0.15369 
21   0.154543 
22   0.164111 
23   0.158786 
24   0.279678 
25   0.288859 
 
$$$$ 
 
