PCCDB-ID:  22500 
public computational chemistry database (PCCDB) project, http://pccdb.org 
 
 19 19  0  0  1  0  0  0  0  0999 V2000 
    2.6508   -0.6082    1.7757 C   0  0  0  0  0  0  0  0  0  0  0  0 
    7.0206    0.2239   -0.8175 C   0  0  0  0  0  0  0  0  0  0  0  0 
    2.5639    0.0841    0.4096 C   0  0  0  0  0  0  0  0  0  0  0  0 
    3.1668   -0.7243   -0.7537 C   0  0  0  0  0  0  0  0  0  0  0  0 
    5.6169   -0.0013   -1.3212 C   0  0  2  0  0  0  0  0  0  0  0  0 
    4.6654   -0.9117   -0.6626 C   0  0  2  0  0  0  0  0  0  0  0  0 
    5.3357   -1.2974   -1.8768 O   0  0  0  0  0  0  0  0  0  0  0  0 
    2.1511   -0.0140    2.5490 H   0  0  0  0  0  0  0  0  0  0  0  0 
    3.6883   -0.7558    2.0966 H   0  0  0  0  0  0  0  0  0  0  0  0 
    2.1685   -1.5933    1.7498 H   0  0  0  0  0  0  0  0  0  0  0  0 
    7.0722    1.1296   -0.2011 H   0  0  0  0  0  0  0  0  0  0  0  0 
    7.7163    0.3462   -1.6559 H   0  0  0  0  0  0  0  0  0  0  0  0 
    7.3584   -0.6274   -0.2179 H   0  0  0  0  0  0  0  0  0  0  0  0 
    3.0566    1.0649    0.4619 H   0  0  0  0  0  0  0  0  0  0  0  0 
    1.5097    0.2848    0.1786 H   0  0  0  0  0  0  0  0  0  0  0  0 
    2.9453   -0.2278   -1.7065 H   0  0  0  0  0  0  0  0  0  0  0  0 
    2.6890   -1.7135   -0.8004 H   0  0  0  0  0  0  0  0  0  0  0  0 
    5.1923    0.8209   -1.9040 H   0  0  0  0  0  0  0  0  0  0  0  0 
    5.0274   -1.4520    0.2153 H   0  0  0  0  0  0  0  0  0  0  0  0 
  1  9  1  0  0  0  0 
  1  8  1  0  0  0  0 
  2 13  1  0  0  0  0 
  2 11  1  0  0  0  0 
  3 14  1  0  0  0  0 
  3  1  1  0  0  0  0 
  4  6  1  0  0  0  0 
  4  3  1  0  0  0  0 
  5 18  1  6  0  0  0 
  5  2  1  0  0  0  0 
  5  6  1  0  0  0  0 
  6 19  1  1  0  0  0 
  7  5  1  0  0  0  0 
  7  6  1  0  0  0  0 
 10  1  1  0  0  0  0 
 12  2  1  0  0  0  0 
 15  3  1  0  0  0  0 
 16  4  1  0  0  0  0 
 17  4  1  0  0  0  0 
M  END 
>  <HBA> 
1 
 
>  <HBD> 
0 
 
>  <TPSA> 
12.53 
 
>  <cid> 
22500 
 
>  <dipole> 
2.03 
 
>  <excitation_energy_1> 
6.674 
 
>  <excitation_energy_2> 
6.934 
 
>  <excitation_energy_3> 
7.086 
 
>  <excitation_energy_4> 
7.26 
 
>  <homo_energy> 
-6.966 
 
>  <homo_lumo_gap> 
9.214 
 
>  <logP> 
1.574 
 
>  <lumo_energy> 
2.248 
 
>  <melting_point> 
-12.93 
 
>  <molecular_refractivity> 
29.93 
 
>  <oscillator_strength_1> 
0.0069 
 
>  <oscillator_strength_2> 
0.0106 
 
>  <oscillator_strength_3> 
0.0087 
 
>  <oscillator_strength_4> 
0.0083 
 
>  <open_babel_can_smiles> 
CCC[C@H]1O[C@@H]1C 
 
>  <mulliken_charges> 
19 
1   -0.446863 
2   -0.467046 
3   -0.254189 
4   -0.282511 
5   0.097018 
6   0.094705 
7   -0.468117 
8   0.146306 
9   0.146276 
10   0.145321 
11   0.147814 
12   0.159972 
13   0.157553 
14   0.134396 
15   0.138008 
16   0.14271 
17   0.142676 
18   0.132166 
19   0.133807 
 
>  <lowdin_charges> 
19 
1   -0.447704 
2   -0.447983 
3   -0.270664 
4   -0.279735 
5   -0.026132 
6   -0.029444 
7   -0.29596 
8   0.153086 
9   0.145685 
10   0.147643 
11   0.156361 
12   0.16051 
13   0.160298 
14   0.140302 
15   0.144354 
16   0.15254 
17   0.148424 
18   0.144038 
19   0.144381 
 
$$$$ 
 
