PCCDB-ID:  71019 
public computational chemistry database (PCCDB) project, http://pccdb.org 
 
 25 26  0  0  0  0  0  0  0  0999 V2000 
   -1.4960   -1.1383    0.9851 C   0  0  0  0  0  0  0  0  0  0  0  0 
    2.7540   -3.5712   -4.5315 C   0  0  0  0  0  0  0  0  0  0  0  0 
   -1.2406   -0.8890   -0.3651 C   0  0  0  0  0  0  0  0  0  0  0  0 
   -0.4608   -1.0497    1.9194 C   0  0  0  0  0  0  0  0  0  0  0  0 
    1.8265   -3.7208   -3.4976 C   0  0  0  0  0  0  0  0  0  0  0  0 
    3.9774   -2.9369   -4.2955 C   0  0  0  0  0  0  0  0  0  0  0  0 
    0.0483   -0.5585   -0.7851 C   0  0  0  0  0  0  0  0  0  0  0  0 
    0.8265   -0.7062    1.5087 C   0  0  0  0  0  0  0  0  0  0  0  0 
    2.1161   -3.2330   -2.2223 C   0  0  0  0  0  0  0  0  0  0  0  0 
    4.2767   -2.4426   -3.0268 C   0  0  0  0  0  0  0  0  0  0  0  0 
    1.0902   -0.4598    0.1514 C   0  0  0  0  0  0  0  0  0  0  0  0 
    3.3366   -2.5880   -2.0070 C   0  0  0  0  0  0  0  0  0  0  0  0 
    5.2211   -1.7125   -0.3520 O   0  0  0  0  0  0  0  0  0  0  0  0 
    2.7218    0.0157   -0.3887 S   0  0  0  0  0  0  0  0  0  0  0  0 
    3.7475   -2.0024   -0.3397 S   0  0  1  0  0  0  0  0  0  0  0  0 
   -2.4998   -1.3990    1.3094 H   0  0  0  0  0  0  0  0  0  0  0  0 
    2.5264   -3.9569   -5.5215 H   0  0  0  0  0  0  0  0  0  0  0  0 
   -2.0444   -0.9543   -1.0934 H   0  0  0  0  0  0  0  0  0  0  0  0 
   -0.6581   -1.2386    2.9711 H   0  0  0  0  0  0  0  0  0  0  0  0 
    0.8816   -4.2246   -3.6810 H   0  0  0  0  0  0  0  0  0  0  0  0 
    4.6988   -2.8298   -5.1009 H   0  0  0  0  0  0  0  0  0  0  0  0 
    0.2560   -0.3682   -1.8333 H   0  0  0  0  0  0  0  0  0  0  0  0 
    1.6312   -0.6195    2.2322 H   0  0  0  0  0  0  0  0  0  0  0  0 
    1.4038   -3.3542   -1.4107 H   0  0  0  0  0  0  0  0  0  0  0  0 
    5.2229   -1.9568   -2.8079 H   0  0  0  0  0  0  0  0  0  0  0  0 
  1 16  1  0  0  0  0 
  1  4  2  0  0  0  0 
  2  6  2  0  0  0  0 
  2  5  1  0  0  0  0 
  3  1  1  0  0  0  0 
  4 19  1  0  0  0  0 
  5  9  2  0  0  0  0 
  6 10  1  0  0  0  0 
  7  3  2  0  0  0  0 
  7 11  1  0  0  0  0 
  8  4  1  0  0  0  0 
  8 23  1  0  0  0  0 
  9 12  1  0  0  0  0 
  9 24  1  0  0  0  0 
 10 25  1  0  0  0  0 
 10 12  2  0  0  0  0 
 11  8  2  0  0  0  0 
 12 15  1  0  0  0  0 
 14 15  1  0  0  0  0 
 14 11  1  0  0  0  0 
 15 13  2  6  0  0  0 
 17  2  1  0  0  0  0 
 18  3  1  0  0  0  0 
 20  5  1  0  0  0  0 
 21  6  1  0  0  0  0 
 22  7  1  0  0  0  0 
M  END 
>  <HBA> 
2 
 
>  <HBD> 
0 
 
>  <TPSA> 
61.58 
 
>  <cid> 
71019 
 
>  <dipole> 
5.0 
 
>  <excitation_energy_1> 
3.199 
 
>  <excitation_energy_2> 
3.698 
 
>  <excitation_energy_3> 
4.295 
 
>  <excitation_energy_4> 
4.361 
 
>  <homo_energy> 
-6.354 
 
>  <homo_lumo_gap> 
4.253 
 
>  <logP> 
4.367 
 
>  <lumo_energy> 
-2.101 
 
>  <melting_point> 
66.5 
 
>  <molecular_refractivity> 
65.28 
 
>  <oscillator_strength_1> 
0.0045 
 
>  <oscillator_strength_2> 
0.1687 
 
>  <oscillator_strength_3> 
0.1847 
 
>  <oscillator_strength_4> 
0.0131 
 
>  <open_babel_can_smiles> 
O=[S@](c1ccccc1)Sc1ccccc1 
 
>  <mulliken_charges> 
25 
1   -0.127693 
2   -0.122066 
3   -0.12261 
4   -0.120126 
5   -0.125443 
6   -0.122216 
7   -0.136654 
8   -0.129304 
9   -0.146987 
10   -0.126496 
11   -0.123292 
12   -0.14764 
13   -0.570664 
14   -0.030973 
15   0.650556 
16   0.140003 
17   0.140863 
18   0.139379 
19   0.141461 
20   0.141006 
21   0.144111 
22   0.158902 
23   0.157779 
24   0.156719 
25   0.181382 
 
>  <lowdin_charges> 
25 
1   -0.144241 
2   -0.143117 
3   -0.157753 
4   -0.151161 
5   -0.150322 
6   -0.146838 
7   -0.149208 
8   -0.149038 
9   -0.154098 
10   -0.137078 
11   -0.142609 
12   -0.17764 
13   -0.60875 
14   -0.010797 
15   0.745628 
16   0.161812 
17   0.162598 
18   0.163419 
19   0.162182 
20   0.163008 
21   0.165564 
22   0.171206 
23   0.172945 
24   0.171438 
25   0.18285 
 
$$$$ 
 
