PCCDB-ID:  27904 
public computational chemistry database (PCCDB) project, http://pccdb.org 
 
 31 30  0  0  0  0  0  0  0  0999 V2000 
    4.1016   -0.8853   -2.4686 C   0  0  0  0  0  0  0  0  0  0  0  0 
    9.3524    5.6496    3.8706 C   0  0  0  0  0  0  0  0  0  0  0  0 
    3.0974   -0.4328   -1.4018 C   0  0  0  0  0  0  0  0  0  0  0  0 
    9.7717    4.5855    3.1887 C   0  0  0  0  0  0  0  0  0  0  0  0 
    3.7000   -0.2364   -0.0007 C   0  0  0  0  0  0  0  0  0  0  0  0 
    4.7140    0.9112    0.1070 C   0  0  0  0  0  0  0  0  0  0  0  0 
    5.2409    1.1172    1.5338 C   0  0  0  0  0  0  0  0  0  0  0  0 
    6.2492    2.2677    1.6514 C   0  0  0  0  0  0  0  0  0  0  0  0 
    8.9184    3.4099    2.8057 C   0  0  0  0  0  0  0  0  0  0  0  0 
    6.7480    2.4613    3.0869 C   0  0  0  0  0  0  0  0  0  0  0  0 
    7.5932    3.5900    3.2560 O   0  0  0  0  0  0  0  0  0  0  0  0 
    3.6036   -1.0597   -3.4292 H   0  0  0  0  0  0  0  0  0  0  0  0 
    4.5939   -1.8210   -2.1746 H   0  0  0  0  0  0  0  0  0  0  0  0 
    4.8853   -0.1381   -2.6370 H   0  0  0  0  0  0  0  0  0  0  0  0 
   10.0264    6.4666    4.1124 H   0  0  0  0  0  0  0  0  0  0  0  0 
    8.3234    5.7323    4.2042 H   0  0  0  0  0  0  0  0  0  0  0  0 
    2.2915   -1.1761   -1.3345 H   0  0  0  0  0  0  0  0  0  0  0  0 
    2.6195    0.5038   -1.7232 H   0  0  0  0  0  0  0  0  0  0  0  0 
   10.8083    4.5152    2.8582 H   0  0  0  0  0  0  0  0  0  0  0  0 
    4.1771   -1.1742    0.3220 H   0  0  0  0  0  0  0  0  0  0  0  0 
    2.8833   -0.0514    0.7117 H   0  0  0  0  0  0  0  0  0  0  0  0 
    4.2448    1.8428   -0.2430 H   0  0  0  0  0  0  0  0  0  0  0  0 
    5.5639    0.7270   -0.5644 H   0  0  0  0  0  0  0  0  0  0  0  0 
    5.7060    0.1838    1.8848 H   0  0  0  0  0  0  0  0  0  0  0  0 
    4.3925    1.3053    2.2084 H   0  0  0  0  0  0  0  0  0  0  0  0 
    5.7900    3.2077    1.3176 H   0  0  0  0  0  0  0  0  0  0  0  0 
    7.0981    2.0774    0.9810 H   0  0  0  0  0  0  0  0  0  0  0  0 
    9.3480    2.4861    3.2386 H   0  0  0  0  0  0  0  0  0  0  0  0 
    8.9573    3.2789    1.7095 H   0  0  0  0  0  0  0  0  0  0  0  0 
    7.2594    1.5492    3.4403 H   0  0  0  0  0  0  0  0  0  0  0  0 
    5.8946    2.6368    3.7523 H   0  0  0  0  0  0  0  0  0  0  0  0 
  1 13  1  0  0  0  0 
  1  3  1  0  0  0  0 
  2 15  1  0  0  0  0 
  2 16  1  0  0  0  0 
  3 17  1  0  0  0  0 
  3  5  1  0  0  0  0 
  4  2  2  0  0  0  0 
  5  6  1  0  0  0  0 
  5 20  1  0  0  0  0 
  5 21  1  0  0  0  0 
  6  7  1  0  0  0  0 
  7  8  1  0  0  0  0 
  7 24  1  0  0  0  0 
  7 25  1  0  0  0  0 
  8 10  1  0  0  0  0 
  9  4  1  0  0  0  0 
  9 28  1  0  0  0  0 
  9 11  1  0  0  0  0 
 10 11  1  0  0  0  0 
 10 30  1  0  0  0  0 
 10 31  1  0  0  0  0 
 12  1  1  0  0  0  0 
 14  1  1  0  0  0  0 
 18  3  1  0  0  0  0 
 19  4  1  0  0  0  0 
 22  6  1  0  0  0  0 
 23  6  1  0  0  0  0 
 26  8  1  0  0  0  0 
 27  8  1  0  0  0  0 
 29  9  1  0  0  0  0 
M  END 
>  <HBA> 
1 
 
>  <HBD> 
0 
 
>  <TPSA> 
9.23 
 
>  <cid> 
27904 
 
>  <dipole> 
1.52 
 
>  <excitation_energy_1> 
6.271 
 
>  <excitation_energy_2> 
6.392 
 
>  <excitation_energy_3> 
6.599 
 
>  <excitation_energy_4> 
6.735 
 
>  <homo_energy> 
-6.588 
 
>  <homo_lumo_gap> 
7.407 
 
>  <logP> 
3.159 
 
>  <lumo_energy> 
0.819 
 
>  <melting_point> 
-58.77 
 
>  <molecular_refractivity> 
50.8 
 
>  <oscillator_strength_1> 
0.0051 
 
>  <oscillator_strength_2> 
0.065 
 
>  <oscillator_strength_3> 
0.0274 
 
>  <oscillator_strength_4> 
0.0043 
 
>  <open_babel_can_smiles> 
CCCCCCCOCC=C 
 
>  <mulliken_charges> 
31 
1   -0.443454 
2   -0.319441 
3   -0.248546 
4   -0.098033 
5   -0.24966 
6   -0.251684 
7   -0.261552 
8   -0.278816 
9   -0.03449 
10   -0.012848 
11   -0.475776 
12   0.142557 
13   0.140216 
14   0.145904 
15   0.133409 
16   0.159324 
17   0.130921 
18   0.130034 
19   0.1251 
20   0.125774 
21   0.127566 
22   0.129102 
23   0.132465 
24   0.129402 
25   0.130337 
26   0.144814 
27   0.133813 
28   0.125514 
29   0.13113 
30   0.11584 
31   0.141076 
 
>  <lowdin_charges> 
31 
1   -0.447872 
2   -0.33441 
3   -0.273612 
4   -0.163434 
5   -0.276697 
6   -0.276152 
7   -0.274564 
8   -0.292531 
9   -0.122745 
10   -0.132771 
11   -0.265356 
12   0.149807 
13   0.145706 
14   0.147649 
15   0.157783 
16   0.167127 
17   0.142402 
18   0.139028 
19   0.151381 
20   0.137073 
21   0.140716 
22   0.138902 
23   0.14011 
24   0.138477 
25   0.139344 
26   0.147871 
27   0.141144 
28   0.132543 
29   0.131337 
30   0.125532 
31   0.146213 
 
$$$$ 
 
