PCCDB-ID:  41638 
public computational chemistry database (PCCDB) project, http://pccdb.org 
 
 26 25  0  0  1  0  0  0  0  0999 V2000 
    0.5001    0.8195   -0.4888 C   0  0  0  0  0  0  0  0  0  0  0  0 
    2.3789   -0.4877   -1.5776 C   0  0  0  0  0  0  0  0  0  0  0  0 
    3.6921    4.6996   -2.3802 C   0  0  0  0  0  0  0  0  0  0  0  0 
    2.0137    0.6196   -0.5888 C   0  0  0  0  0  0  0  0  0  0  0  0 
    4.1653    3.3105   -2.8513 C   0  0  2  0  0  0  0  0  0  0  0  0 
    4.7137    2.5007   -1.6659 C   0  0  2  0  0  0  0  0  0  0  0  0 
    5.2557    3.4618   -3.8348 N   0  0  0  0  0  0  0  0  0  0  0  0 
    2.6199    1.8955   -1.0270 N   0  0  0  0  0  0  0  0  0  0  0  0 
    4.0520    1.8344   -0.7976 N   0  0  0  0  0  0  0  0  0  0  0  0 
    4.7814    5.5416   -2.0267 O   0  0  0  0  0  0  0  0  0  0  0  0 
    6.0541    2.5767   -1.5430 O   0  0  0  0  0  0  0  0  0  0  0  0 
    0.0096   -0.1093   -0.1790 H   0  0  0  0  0  0  0  0  0  0  0  0 
    0.0846    1.1213   -1.4573 H   0  0  0  0  0  0  0  0  0  0  0  0 
    0.2431    1.5919    0.2478 H   0  0  0  0  0  0  0  0  0  0  0  0 
    1.9609   -1.4478   -1.2539 H   0  0  0  0  0  0  0  0  0  0  0  0 
    3.4654   -0.5938   -1.6488 H   0  0  0  0  0  0  0  0  0  0  0  0 
    1.9849   -0.2568   -2.5752 H   0  0  0  0  0  0  0  0  0  0  0  0 
    2.9738    4.5886   -1.5573 H   0  0  0  0  0  0  0  0  0  0  0  0 
    3.1839    5.2101   -3.2056 H   0  0  0  0  0  0  0  0  0  0  0  0 
    2.4112    0.3433    0.4020 H   0  0  0  0  0  0  0  0  0  0  0  0 
    3.3001    2.7723   -3.2480 H   0  0  0  0  0  0  0  0  0  0  0  0 
    5.4152    4.4426   -4.0500 H   0  0  0  0  0  0  0  0  0  0  0  0 
    5.0745    2.9517   -4.6933 H   0  0  0  0  0  0  0  0  0  0  0  0 
    2.2784    2.6094   -0.3790 H   0  0  0  0  0  0  0  0  0  0  0  0 
    5.2753    5.1064   -1.3113 H   0  0  0  0  0  0  0  0  0  0  0  0 
    6.3379    2.8999   -2.4392 H   0  0  0  0  0  0  0  0  0  0  0  0 
  1 12  1  0  0  0  0 
  1 14  1  0  0  0  0 
  2 15  1  0  0  0  0 
  2  4  1  0  0  0  0 
  3 10  1  0  0  0  0 
  3 18  1  0  0  0  0 
  4  1  1  0  0  0  0 
  4 20  1  0  0  0  0 
  5 21  1  6  0  0  0 
  5  3  1  0  0  0  0 
  5  6  1  0  0  0  0 
  6 11  1  1  0  0  0 
  6  9  1  0  0  0  0 
  7  5  1  0  0  0  0 
  8  9  1  0  0  0  0 
  8  4  1  0  0  0  0 
  8 24  1  0  0  0  0 
 10 25  1  0  0  0  0 
 13  1  1  0  0  0  0 
 16  2  1  0  0  0  0 
 17  2  1  0  0  0  0 
 19  3  1  0  0  0  0 
 22  7  1  0  0  0  0 
 23  7  1  0  0  0  0 
 26 11  1  0  0  0  0 
M  RAD  2   6   2   9   2 
M  END 
>  <HBA> 
5 
 
>  <HBD> 
4 
 
>  <TPSA> 
87.38 
 
>  <cid> 
41638 
 
>  <dipole> 
3.21 
 
>  <excitation_energy_1> 
4.711 
 
>  <excitation_energy_2> 
4.888 
 
>  <excitation_energy_3> 
5.236 
 
>  <excitation_energy_4> 
5.47 
 
>  <homo_energy> 
-5.48 
 
>  <homo_lumo_gap> 
6.128 
 
>  <logP> 
-0.183 
 
>  <lumo_energy> 
0.648 
 
>  <melting_point> 
122.05 
 
>  <molecular_refractivity> 
40.63 
 
>  <oscillator_strength_1> 
0.0119 
 
>  <oscillator_strength_2> 
0.0083 
 
>  <oscillator_strength_3> 
0.0203 
 
>  <oscillator_strength_4> 
0.0194 
 
>  <open_babel_can_smiles> 
OC[C@H]([C]([N]NC(C)C)O)N 
 
>  <mulliken_charges> 
26 
1   -0.461506 
2   -0.44016 
3   -0.052971 
4   0.080534 
5   -0.054262 
6   0.518701 
7   -0.78479 
8   -0.482084 
9   -0.364703 
10   -0.621976 
11   -0.60915 
12   0.149293 
13   0.149285 
14   0.134852 
15   0.136143 
16   0.164844 
17   0.134336 
18   0.146185 
19   0.152966 
20   0.125868 
21   0.174043 
22   0.338045 
23   0.32498 
24   0.303933 
25   0.404283 
26   0.433311 
 
>  <lowdin_charges> 
26 
1   -0.451704 
2   -0.448408 
3   -0.138279 
4   -0.059762 
5   -0.120624 
6   0.092567 
7   -0.547748 
8   -0.302872 
9   -0.182139 
10   -0.467175 
11   -0.375802 
12   0.155867 
13   0.151099 
14   0.145364 
15   0.148289 
16   0.158771 
17   0.143681 
18   0.14217 
19   0.150659 
20   0.128892 
21   0.170902 
22   0.275423 
23   0.273615 
24   0.250467 
25   0.350434 
26   0.356311 
 
$$$$ 
 
