PCCDB-ID:  68956 
public computational chemistry database (PCCDB) project, http://pccdb.org 
 
 13 12  0  0  1  0  0  0  0  0999 V2000 
    1.0742   -0.4702   -0.0217 C   0  0  0  0  0  0  0  0  0  0  0  0 
    2.4899    0.0598   -0.0166 C   0  0  2  0  0  0  0  0  0  0  0  0 
    2.2529    1.7784   -1.5853 C   0  0  0  0  0  0  0  0  0  0  0  0 
    2.5274    2.0233   -2.8052 N   0  0  0  0  0  0  0  0  0  0  0  0 
    2.9985    0.9991   -0.7074 N   0  0  0  0  0  0  0  0  0  0  0  0 
    3.3422   -0.5862    0.8195 O   0  0  0  0  0  0  0  0  0  0  0  0 
    1.1713    2.3789   -1.0080 O   0  0  0  0  0  0  0  0  0  0  0  0 
    0.4380    0.0937   -0.7016 H   0  0  0  0  0  0  0  0  0  0  0  0 
    0.6435   -0.4004    0.9849 H   0  0  0  0  0  0  0  0  0  0  0  0 
    1.0739   -1.5273   -0.3165 H   0  0  0  0  0  0  0  0  0  0  0  0 
    3.3796    1.5315   -3.0748 H   0  0  0  0  0  0  0  0  0  0  0  0 
    2.8673   -1.2940    1.2824 H   0  0  0  0  0  0  0  0  0  0  0  0 
    0.8032    2.9517   -1.7058 H   0  0  0  0  0  0  0  0  0  0  0  0 
  1  2  1  0  0  0  0 
  1  9  1  0  0  0  0 
  2  5  1  6  0  0  0 
  2  6  1  0  0  0  0 
  3  7  1  0  0  0  0 
  3  5  2  0  0  0  0 
  4  3  1  0  0  0  0 
  6 12  1  0  0  0  0 
  8  1  1  0  0  0  0 
 10  1  1  0  0  0  0 
 11  4  1  0  0  0  0 
 13  7  1  0  0  0  0 
M  RAD  2   2   2   4   2 
M  END 
>  <HBA> 
4 
 
>  <HBD> 
2 
 
>  <TPSA> 
72.19 
 
>  <cid> 
68956 
 
>  <dipole> 
4.44 
 
>  <excitation_energy_1> 
5.295 
 
>  <excitation_energy_2> 
5.781 
 
>  <excitation_energy_3> 
5.914 
 
>  <excitation_energy_4> 
6.302 
 
>  <homo_energy> 
-6.631 
 
>  <homo_lumo_gap> 
6.289 
 
>  <logP> 
0.292 
 
>  <lumo_energy> 
-0.343 
 
>  <melting_point> 
109.97 
 
>  <molecular_refractivity> 
22.83 
 
>  <oscillator_strength_1> 
0.0488 
 
>  <oscillator_strength_2> 
0.0035 
 
>  <oscillator_strength_3> 
0.0812 
 
>  <oscillator_strength_4> 
0.01 
 
>  <open_babel_can_smiles> 
C[C](/N=C(/O)\[NH])O 
 
>  <mulliken_charges> 
13 
1   -0.550035 
2   0.506789 
3   0.561672 
4   -0.62565 
5   -0.437794 
6   -0.559463 
7   -0.587591 
8   0.209554 
9   0.181291 
10   0.175656 
11   0.295534 
12   0.414296 
13   0.415741 
 
>  <lowdin_charges> 
13 
1   -0.479963 
2   0.168127 
3   0.148692 
4   -0.447873 
5   -0.188514 
6   -0.345077 
7   -0.383643 
8   0.19054 
9   0.174202 
10   0.169518 
11   0.266061 
12   0.362203 
13   0.365726 
 
$$$$ 
 
