PCCDB-ID:  70255 
public computational chemistry database (PCCDB) project, http://pccdb.org 
 
 12 12  0  0  0  0  0  0  0  0999 V2000 
    0.9864    0.1336   -0.0364 C   0  0  0  0  0  0  0  0  0  0  0  0 
    4.5338   -0.5995   -0.0375 C   0  0  0  0  0  0  0  0  0  0  0  0 
    4.4248    0.8074   -0.0273 C   0  0  0  0  0  0  0  0  0  0  0  0 
    3.2242   -1.0415   -0.0423 C   0  0  0  0  0  0  0  0  0  0  0  0 
    3.1530    1.2101   -0.0257 N   0  0  0  0  0  0  0  0  0  0  0  0 
    2.4345    0.0657   -0.0353 N   0  0  0  0  0  0  0  0  0  0  0  0 
    0.5846   -0.8816   -0.0143 H   0  0  0  0  0  0  0  0  0  0  0  0 
    0.6317    0.6438   -0.9369 H   0  0  0  0  0  0  0  0  0  0  0  0 
    0.6358    0.6813    0.8429 H   0  0  0  0  0  0  0  0  0  0  0  0 
    5.4295   -1.2035   -0.0409 H   0  0  0  0  0  0  0  0  0  0  0  0 
    5.2165    1.5456   -0.0205 H   0  0  0  0  0  0  0  0  0  0  0  0 
    2.8003   -2.0359   -0.0498 H   0  0  0  0  0  0  0  0  0  0  0  0 
  1  6  1  0  0  0  0 
  1  7  1  0  0  0  0 
  1  9  1  0  0  0  0 
  2  3  1  0  0  0  0 
  3  5  2  0  0  0  0 
  3 11  1  0  0  0  0 
  4  2  2  0  0  0  0 
  4  6  1  0  0  0  0 
  6  5  1  0  0  0  0 
  8  1  1  0  0  0  0 
 10  2  1  0  0  0  0 
 12  4  1  0  0  0  0 
M  END 
>  <HBA> 
2 
 
>  <HBD> 
0 
 
>  <TPSA> 
17.82 
 
>  <cid> 
70255 
 
>  <dipole> 
2.35 
 
>  <excitation_energy_1> 
5.994 
 
>  <excitation_energy_2> 
6.162 
 
>  <excitation_energy_3> 
6.244 
 
>  <excitation_energy_4> 
6.534 
 
>  <homo_energy> 
-6.446 
 
>  <homo_lumo_gap> 
7.127 
 
>  <logP> 
0.42 
 
>  <lumo_energy> 
0.68 
 
>  <melting_point> 
20.98 
 
>  <molecular_refractivity> 
23.49 
 
>  <oscillator_strength_1> 
0.0196 
 
>  <oscillator_strength_2> 
0.001 
 
>  <oscillator_strength_3> 
0.1013 
 
>  <oscillator_strength_4> 
0.0077 
 
>  <open_babel_can_smiles> 
Cn1cccn1 
 
>  <mulliken_charges> 
12 
1   -0.301578 
2   -0.245251 
3   0.047566 
4   0.074506 
5   -0.300485 
6   -0.224302 
7   0.161976 
8   0.181795 
9   0.182857 
10   0.132979 
11   0.138557 
12   0.15138 
 
>  <lowdin_charges> 
12 
1   -0.343858 
2   -0.236927 
3   -0.146019 
4   -0.146379 
5   -0.165733 
6   0.043395 
7   0.161877 
8   0.167822 
9   0.16902 
10   0.166987 
11   0.162728 
12   0.167086 
 
$$$$ 
 
