PCCDB-ID:  31229 
public computational chemistry database (PCCDB) project, http://pccdb.org 
 
 18 18  0  0  0  0  0  0  0  0999 V2000 
    1.6070    0.3785   -1.0578 C   0  0  0  0  0  0  0  0  0  0  0  0 
    8.0516    0.5565   -1.2802 C   0  0  0  0  0  0  0  0  0  0  0  0 
    7.4658   -0.6922   -1.0637 C   0  0  0  0  0  0  0  0  0  0  0  0 
    7.2418    1.6672   -1.5249 C   0  0  0  0  0  0  0  0  0  0  0  0 
    6.0780   -0.8289   -1.0872 C   0  0  0  0  0  0  0  0  0  0  0  0 
    5.8518    1.5446   -1.5557 C   0  0  0  0  0  0  0  0  0  0  0  0 
    3.0070    0.8818   -0.8009 C   0  0  0  0  0  0  0  0  0  0  0  0 
    5.2842    0.2905   -1.3307 C   0  0  0  0  0  0  0  0  0  0  0  0 
    3.3017    1.8555   -0.1539 O   0  0  0  0  0  0  0  0  0  0  0  0 
    3.9093    0.0548   -1.4185 O   0  0  0  0  0  0  0  0  0  0  0  0 
    0.8896    1.0441   -0.5773 H   0  0  0  0  0  0  0  0  0  0  0  0 
    1.4947   -0.6380   -0.6667 H   0  0  0  0  0  0  0  0  0  0  0  0 
    1.4151    0.3354   -2.1349 H   0  0  0  0  0  0  0  0  0  0  0  0 
    9.1324    0.6631   -1.2597 H   0  0  0  0  0  0  0  0  0  0  0  0 
    8.0873   -1.5632   -0.8752 H   0  0  0  0  0  0  0  0  0  0  0  0 
    7.6913    2.6419   -1.6937 H   0  0  0  0  0  0  0  0  0  0  0  0 
    5.6000   -1.7899   -0.9249 H   0  0  0  0  0  0  0  0  0  0  0  0 
    5.2222    2.4056   -1.7402 H   0  0  0  0  0  0  0  0  0  0  0  0 
  1  7  1  0  0  0  0 
  1 12  1  0  0  0  0 
  1 11  1  0  0  0  0 
  2 14  1  0  0  0  0 
  2  3  2  0  0  0  0 
  3 15  1  0  0  0  0 
  4  2  1  0  0  0  0 
  5  3  1  0  0  0  0 
  5 17  1  0  0  0  0 
  6  4  2  0  0  0  0 
  6  8  1  0  0  0  0 
  7  9  2  0  0  0  0 
  8  5  2  0  0  0  0 
 10  8  1  0  0  0  0 
 10  7  1  0  0  0  0 
 13  1  1  0  0  0  0 
 16  4  1  0  0  0  0 
 18  6  1  0  0  0  0 
M  END 
>  <HBA> 
2 
 
>  <HBD> 
0 
 
>  <TPSA> 
26.3 
 
>  <cid> 
31229 
 
>  <dipole> 
1.66 
 
>  <excitation_energy_1> 
5.238 
 
>  <excitation_energy_2> 
5.519 
 
>  <excitation_energy_3> 
5.61 
 
>  <excitation_energy_4> 
6.139 
 
>  <homo_energy> 
-6.536 
 
>  <homo_lumo_gap> 
6.251 
 
>  <logP> 
1.612 
 
>  <lumo_energy> 
-0.286 
 
>  <melting_point> 
29.15 
 
>  <molecular_refractivity> 
37.94 
 
>  <oscillator_strength_1> 
0.001 
 
>  <oscillator_strength_2> 
0.1153 
 
>  <oscillator_strength_3> 
0.015 
 
>  <oscillator_strength_4> 
0.0111 
 
>  <open_babel_can_smiles> 
CC(=O)Oc1ccccc1 
 
>  <mulliken_charges> 
18 
1   -0.525138 
2   -0.122955 
3   -0.139028 
4   -0.144457 
5   -0.162745 
6   -0.137527 
7   0.591718 
8   0.345437 
9   -0.443889 
10   -0.515011 
11   0.185142 
12   0.185295 
13   0.185287 
14   0.131718 
15   0.134921 
16   0.136739 
17   0.139526 
18   0.154968 
 
>  <lowdin_charges> 
18 
1   -0.46224 
2   -0.159809 
3   -0.151043 
4   -0.148218 
5   -0.172328 
6   -0.169116 
7   0.208008 
8   0.10469 
9   -0.239723 
10   -0.168769 
11   0.17834 
12   0.179204 
13   0.17826 
14   0.157574 
15   0.16138 
16   0.161114 
17   0.167012 
18   0.175662 
 
$$$$ 
 
