PCCDB-ID:  40224 
public computational chemistry database (PCCDB) project, http://pccdb.org 
 
 32 35  0  0  1  0  0  0  0  0999 V2000 
    0.9696   -0.1626   -0.3199 C   0  0  0  0  0  0  0  0  0  0  0  0 
    5.1719    4.3860    3.7830 C   0  0  0  0  0  0  0  0  0  0  0  0 
    5.3420    3.0993    4.3421 C   0  0  0  0  0  0  0  0  0  0  0  0 
    3.3876   -3.2839    1.9182 C   0  0  0  0  0  0  0  0  0  0  0  0 
    4.0601   -2.6601    2.9711 C   0  0  0  0  0  0  0  0  0  0  0  0 
    4.5143    4.5243    2.5828 C   0  0  0  0  0  0  0  0  0  0  0  0 
    2.8489   -2.5145    0.8821 C   0  0  0  0  0  0  0  0  0  0  0  0 
    4.8589    1.9826    3.6946 C   0  0  0  0  0  0  0  0  0  0  0  0 
    4.2045   -1.2709    3.0105 C   0  0  0  0  0  0  0  0  0  0  0  0 
    3.3193    3.5577    0.6526 C   0  0  0  0  0  0  0  0  0  0  0  0 
    2.8129    2.4726   -0.0254 C   0  0  0  0  0  0  0  0  0  0  0  0 
    2.4932   -0.1178   -0.0896 C   0  0  2  0  0  0  0  0  0  0  0  0 
    4.0015    3.3955    1.8888 C   0  0  0  0  0  0  0  0  0  0  0  0 
    2.9890   -1.1332    0.9176 C   0  0  0  0  0  0  0  0  0  0  0  0 
    2.9798    1.1834    0.5136 C   0  0  0  0  0  0  0  0  0  0  0  0 
    4.1774    2.0815    2.4511 C   0  0  0  0  0  0  0  0  0  0  0  0 
    3.6653   -0.4892    1.9802 C   0  0  0  0  0  0  0  0  0  0  0  0 
    3.6493    0.9687    1.7192 C   0  0  0  0  0  0  0  0  0  0  0  0 
    0.6662   -1.1341   -0.7255 H   0  0  0  0  0  0  0  0  0  0  0  0 
    0.6580    0.6097   -1.0318 H   0  0  0  0  0  0  0  0  0  0  0  0 
    0.4315   -0.0005    0.6197 H   0  0  0  0  0  0  0  0  0  0  0  0 
    5.5581    5.2589    4.3021 H   0  0  0  0  0  0  0  0  0  0  0  0 
    5.8573    2.9889    5.2925 H   0  0  0  0  0  0  0  0  0  0  0  0 
    3.2852   -4.3656    1.9027 H   0  0  0  0  0  0  0  0  0  0  0  0 
    4.4811   -3.2604    3.7734 H   0  0  0  0  0  0  0  0  0  0  0  0 
    4.3739    5.5087    2.1421 H   0  0  0  0  0  0  0  0  0  0  0  0 
    2.3279   -2.9957    0.0575 H   0  0  0  0  0  0  0  0  0  0  0  0 
    5.0013    1.0136    4.1530 H   0  0  0  0  0  0  0  0  0  0  0  0 
    4.7389   -0.8308    3.8431 H   0  0  0  0  0  0  0  0  0  0  0  0 
    3.2044    4.5617    0.2512 H   0  0  0  0  0  0  0  0  0  0  0  0 
    2.2908    2.6074   -0.9695 H   0  0  0  0  0  0  0  0  0  0  0  0 
    2.9873   -0.2831   -1.0601 H   0  0  0  0  0  0  0  0  0  0  0  0 
  1 12  1  0  0  0  0 
  1 21  1  0  0  0  0 
  2 22  1  0  0  0  0 
  2  3  1  0  0  0  0 
  3 23  1  0  0  0  0 
  4  5  2  0  0  0  0 
  5  9  1  0  0  0  0 
  5 25  1  0  0  0  0 
  6  2  2  0  0  0  0 
  7 14  2  0  0  0  0 
  7  4  1  0  0  0  0 
  8 28  1  0  0  0  0 
  8  3  2  0  0  0  0 
  9 29  1  0  0  0  0 
 10 13  2  0  0  0  0 
 11 15  2  0  0  0  0 
 11 10  1  0  0  0  0 
 12 32  1  6  0  0  0 
 12 15  1  0  0  0  0 
 12 14  1  0  0  0  0 
 13 16  1  0  0  0  0 
 13  6  1  0  0  0  0 
 14 17  1  0  0  0  0 
 15 18  1  0  0  0  0 
 16  8  1  0  0  0  0 
 17  9  2  0  0  0  0 
 18 17  1  0  0  0  0 
 18 16  2  0  0  0  0 
 19  1  1  0  0  0  0 
 20  1  1  0  0  0  0 
 24  4  1  0  0  0  0 
 26  6  1  0  0  0  0 
 27  7  1  0  0  0  0 
 30 10  1  0  0  0  0 
 31 11  1  0  0  0  0 
M  END 
>  <HBA> 
0 
 
>  <HBD> 
0 
 
>  <TPSA> 
0.0 
 
>  <cid> 
40224 
 
>  <dipole> 
0.57 
 
>  <excitation_energy_1> 
3.752 
 
>  <excitation_energy_2> 
4.133 
 
>  <excitation_energy_3> 
4.464 
 
>  <excitation_energy_4> 
4.669 
 
>  <homo_energy> 
-5.382 
 
>  <homo_lumo_gap> 
4.163 
 
>  <logP> 
4.972 
 
>  <lumo_energy> 
-1.219 
 
>  <melting_point> 
118.18 
 
>  <molecular_refractivity> 
77.2 
 
>  <oscillator_strength_1> 
0.2648 
 
>  <oscillator_strength_2> 
0.0031 
 
>  <oscillator_strength_3> 
0.0149 
 
>  <oscillator_strength_4> 
0.0501 
 
>  <open_babel_can_smiles> 
C[C@@H]1c2ccccc2c2c1ccc1c2cccc1 
 
>  <mulliken_charges> 
32 
1   -0.437589 
2   -0.129375 
3   -0.143946 
4   -0.131801 
5   -0.134581 
6   -0.204623 
7   -0.200559 
8   -0.180072 
9   -0.198198 
10   -0.196268 
11   -0.199437 
12   -0.247389 
13   0.146396 
14   0.107141 
15   0.099302 
16   0.084812 
17   0.086486 
18   -0.031895 
19   0.148602 
20   0.147224 
21   0.160005 
22   0.128998 
23   0.128689 
24   0.126647 
25   0.12673 
26   0.128757 
27   0.123371 
28   0.137812 
29   0.140837 
30   0.128036 
31   0.125479 
32   0.160408 
 
>  <lowdin_charges> 
32 
1   -0.434233 
2   -0.162187 
3   -0.155149 
4   -0.156819 
5   -0.15895 
6   -0.154443 
7   -0.165775 
8   -0.161821 
9   -0.170621 
10   -0.15512 
11   -0.164685 
12   -0.121496 
13   0.000691 
14   -0.003355 
15   -0.006452 
16   -0.003062 
17   -0.007989 
18   -0.016475 
19   0.151597 
20   0.151709 
21   0.157895 
22   0.159155 
23   0.157478 
24   0.154976 
25   0.157984 
26   0.156636 
27   0.156417 
28   0.160008 
29   0.158383 
30   0.156746 
31   0.156901 
32   0.162055 
 
$$$$ 
 
