PCCDB-ID:  52331 
public computational chemistry database (PCCDB) project, http://pccdb.org 
 
 33 34  0  0  0  0  0  0  0  0999 V2000 
    1.0221   -0.0336    0.3603 C   0  0  0  0  0  0  0  0  0  0  0  0 
    6.8011    0.2312   -0.6283 C   0  0  0  0  0  0  0  0  0  0  0  0 
    4.8832   -5.5423   -2.7471 C   0  0  0  0  0  0  0  0  0  0  0  0 
    3.1931    1.2470    0.0691 C   0  0  0  0  0  0  0  0  0  0  0  0 
    4.5680    1.2796   -0.1532 C   0  0  0  0  0  0  0  0  0  0  0  0 
    6.4405   -2.8226    0.2193 C   0  0  0  0  0  0  0  0  0  0  0  0 
    7.0432   -4.0610    0.0257 C   0  0  0  0  0  0  0  0  0  0  0  0 
    3.2507   -1.1379   -0.1149 C   0  0  0  0  0  0  0  0  0  0  0  0 
    4.8533   -3.3421   -1.4987 C   0  0  0  0  0  0  0  0  0  0  0  0 
    2.5081    0.0281    0.0910 C   0  0  0  0  0  0  0  0  0  0  0  0 
    5.3170    0.1138   -0.3549 C   0  0  0  0  0  0  0  0  0  0  0  0 
    5.4361   -4.5914   -1.7138 C   0  0  0  0  0  0  0  0  0  0  0  0 
    5.3308   -2.4301   -0.5432 C   0  0  0  0  0  0  0  0  0  0  0  0 
    4.6388   -1.1274   -0.3293 C   0  0  0  0  0  0  0  0  0  0  0  0 
    6.5574   -4.9585   -0.9366 C   0  0  0  0  0  0  0  0  0  0  0  0 
    7.1349   -6.2270   -1.0805 N   0  0  0  0  0  0  0  0  0  0  0  0 
    0.5174    0.8820    0.0331 H   0  0  0  0  0  0  0  0  0  0  0  0 
    0.8140   -0.1535    1.4322 H   0  0  0  0  0  0  0  0  0  0  0  0 
    0.5548   -0.8796   -0.1555 H   0  0  0  0  0  0  0  0  0  0  0  0 
    7.0426    1.2290   -1.0098 H   0  0  0  0  0  0  0  0  0  0  0  0 
    7.1387   -0.5075   -1.3617 H   0  0  0  0  0  0  0  0  0  0  0  0 
    7.4035    0.0792    0.2769 H   0  0  0  0  0  0  0  0  0  0  0  0 
    3.9917   -5.1273   -3.2262 H   0  0  0  0  0  0  0  0  0  0  0  0 
    4.6084   -6.5068   -2.2996 H   0  0  0  0  0  0  0  0  0  0  0  0 
    5.6094   -5.7559   -3.5464 H   0  0  0  0  0  0  0  0  0  0  0  0 
    2.6485    2.1771    0.2173 H   0  0  0  0  0  0  0  0  0  0  0  0 
    5.0769    2.2409   -0.1884 H   0  0  0  0  0  0  0  0  0  0  0  0 
    6.8272   -2.1612    0.9890 H   0  0  0  0  0  0  0  0  0  0  0  0 
    7.8981   -4.3471    0.6356 H   0  0  0  0  0  0  0  0  0  0  0  0 
    2.7419   -2.0993   -0.0917 H   0  0  0  0  0  0  0  0  0  0  0  0 
    3.9973   -3.0592   -2.1074 H   0  0  0  0  0  0  0  0  0  0  0  0 
    8.0750   -6.2996   -0.7104 H   0  0  0  0  0  0  0  0  0  0  0  0 
    7.0805   -6.6218   -2.0114 H   0  0  0  0  0  0  0  0  0  0  0  0 
  1 18  1  0  0  0  0 
  2 11  1  0  0  0  0 
  2 22  1  0  0  0  0 
  3 24  1  0  0  0  0 
  3 12  1  0  0  0  0 
  4 10  1  0  0  0  0 
  4 26  1  0  0  0  0 
  5  4  2  0  0  0  0 
  6 28  1  0  0  0  0 
  7  6  1  0  0  0  0 
  7 29  1  0  0  0  0 
  8 30  1  0  0  0  0 
  8 10  2  0  0  0  0 
  9 13  1  0  0  0  0 
 10  1  1  0  0  0  0 
 11 14  2  0  0  0  0 
 11  5  1  0  0  0  0 
 12  9  2  0  0  0  0 
 12 15  1  0  0  0  0 
 13 14  1  0  0  0  0 
 13  6  2  0  0  0  0 
 14  8  1  0  0  0  0 
 15  7  2  0  0  0  0 
 16 15  1  0  0  0  0 
 16 32  1  0  0  0  0 
 17  1  1  0  0  0  0 
 19  1  1  0  0  0  0 
 20  2  1  0  0  0  0 
 21  2  1  0  0  0  0 
 23  3  1  0  0  0  0 
 25  3  1  0  0  0  0 
 27  5  1  0  0  0  0 
 31  9  1  0  0  0  0 
 33 16  1  0  0  0  0 
M  END 
>  <HBA> 
1 
 
>  <HBD> 
1 
 
>  <TPSA> 
26.02 
 
>  <cid> 
52331 
 
>  <dipole> 
2.07 
 
>  <excitation_energy_1> 
4.478 
 
>  <excitation_energy_2> 
4.523 
 
>  <excitation_energy_3> 
4.606 
 
>  <excitation_energy_4> 
4.737 
 
>  <homo_energy> 
-5.184 
 
>  <homo_lumo_gap> 
5.08 
 
>  <logP> 
4.442 
 
>  <lumo_energy> 
-0.103 
 
>  <melting_point> 
105.26 
 
>  <molecular_refractivity> 
71.18 
 
>  <oscillator_strength_1> 
0.0203 
 
>  <oscillator_strength_2> 
0.3426 
 
>  <oscillator_strength_3> 
0.0156 
 
>  <oscillator_strength_4> 
0.0275 
 
>  <open_babel_can_smiles> 
Cc1ccc(c(c1)c1ccc(c(c1)C)N)C 
 
>  <mulliken_charges> 
33 
1   -0.528929 
2   -0.532154 
3   -0.552748 
4   -0.175914 
5   -0.190091 
6   -0.179312 
7   -0.175305 
8   -0.228156 
9   -0.249984 
10   0.17839 
11   0.141468 
12   0.167801 
13   0.072521 
14   0.026227 
15   0.243798 
16   -0.791707 
17   0.152883 
18   0.16317 
19   0.15435 
20   0.148977 
21   0.166623 
22   0.156357 
23   0.160929 
24   0.167952 
25   0.14656 
26   0.115279 
27   0.116566 
28   0.127213 
29   0.114112 
30   0.12108 
31   0.122236 
32   0.318369 
33   0.321438 
 
>  <lowdin_charges> 
33 
1   -0.441845 
2   -0.44554 
3   -0.44551 
4   -0.172014 
5   -0.166205 
6   -0.154262 
7   -0.200965 
8   -0.172604 
9   -0.163033 
10   -0.003757 
11   -0.009125 
12   -0.038425 
13   -0.028029 
14   -0.009552 
15   0.049996 
16   -0.488155 
17   0.156218 
18   0.158656 
19   0.157391 
20   0.153372 
21   0.164601 
22   0.155819 
23   0.161731 
24   0.160259 
25   0.149424 
26   0.152083 
27   0.151546 
28   0.159006 
29   0.151355 
30   0.154635 
31   0.15597 
32   0.272684 
33   0.274274 
 
$$$$ 
 
