PCCDB-ID:  61783 
public computational chemistry database (PCCDB) project, http://pccdb.org 
 
  3  2  0  0  0  0  0  0  0  0999 V2000 
    0.9385   -0.0424    0.0806 S   0  0  0  0  0  0  0  0  0  0  0  0 
    2.2738    0.1452    0.1378 H   0  0  0  0  0  0  0  0  0  0  0  0 
    0.6783    1.2243    0.4668 H   0  0  0  0  0  0  0  0  0  0  0  0 
  1  2  1  0  0  0  0 
  1  3  1  0  0  0  0 
M  END 
>  <HBA> 
1 
 
>  <HBD> 
1 
 
>  <TPSA> 
25.3 
 
>  <cid> 
61783 
 
>  <dipole> 
1.43 
 
>  <excitation_energy_1> 
5.806 
 
>  <excitation_energy_2> 
6.13 
 
>  <excitation_energy_3> 
7.548 
 
>  <excitation_energy_4> 
7.797 
 
>  <homo_energy> 
-7.116 
 
>  <homo_lumo_gap> 
7.649 
 
>  <logP> 
0.113 
 
>  <lumo_energy> 
0.533 
 
>  <melting_point> 
8.97 
 
>  <molecular_refractivity> 
10.38 
 
>  <oscillator_strength_1> 
0.0729 
 
>  <oscillator_strength_2> 
0.0 
 
>  <oscillator_strength_3> 
0.0 
 
>  <oscillator_strength_4> 
0.0157 
 
>  <open_babel_can_smiles> 
S 
 
>  <mulliken_charges> 
3 
1   -0.235058 
2   0.117524 
3   0.117534 
 
>  <lowdin_charges> 
3 
1   -0.254936 
2   0.127007 
3   0.127929 
 
$$$$ 
 
