PCCDB-ID:  69978 
public computational chemistry database (PCCDB) project, http://pccdb.org 
 
 19 19  0  0  0  0  0  0  0  0999 V2000 
    1.6620    0.3896   -1.7121 C   0  0  0  0  0  0  0  0  0  0  0  0 
    2.2957    0.0307   -0.3644 C   0  0  0  0  0  0  0  0  0  0  0  0 
    4.1428   -3.0303    1.0715 C   0  0  0  0  0  0  0  0  0  0  0  0 
    2.9022   -3.6847    0.4351 C   0  0  0  0  0  0  0  0  0  0  0  0 
    3.0371   -1.3120   -0.3709 C   0  0  0  0  0  0  0  0  0  0  0  0 
    4.0227   -1.5283    0.7816 C   0  0  0  0  0  0  0  0  0  0  0  0 
    2.1807   -2.5799   -0.3553 C   0  0  0  0  0  0  0  0  0  0  0  0 
    4.6083   -0.6535    1.3788 O   0  0  0  0  0  0  0  0  0  0  0  0 
    1.0851   -2.7046   -0.8569 O   0  0  0  0  0  0  0  0  0  0  0  0 
    1.1504    1.3566   -1.6528 H   0  0  0  0  0  0  0  0  0  0  0  0 
    0.9334   -0.3674   -2.0142 H   0  0  0  0  0  0  0  0  0  0  0  0 
    2.4238    0.4648   -2.4987 H   0  0  0  0  0  0  0  0  0  0  0  0 
    1.5219    0.0008    0.4130 H   0  0  0  0  0  0  0  0  0  0  0  0 
    3.0155    0.7986   -0.0581 H   0  0  0  0  0  0  0  0  0  0  0  0 
    5.0767   -3.3882    0.6190 H   0  0  0  0  0  0  0  0  0  0  0  0 
    4.2344   -3.1893    2.1497 H   0  0  0  0  0  0  0  0  0  0  0  0 
    2.2012   -4.0862    1.1750 H   0  0  0  0  0  0  0  0  0  0  0  0 
    3.1440   -4.5107   -0.2433 H   0  0  0  0  0  0  0  0  0  0  0  0 
    3.6521   -1.3834   -1.2886 H   0  0  0  0  0  0  0  0  0  0  0  0 
  1 10  1  0  0  0  0 
  1  2  1  0  0  0  0 
  2 14  1  0  0  0  0 
  2 13  1  0  0  0  0 
  3 16  1  0  0  0  0 
  4  3  1  0  0  0  0 
  4 17  1  0  0  0  0 
  5  2  1  0  0  0  0 
  5  7  1  0  0  0  0 
  5  6  1  0  0  0  0 
  6  3  1  0  0  0  0 
  6  8  2  0  0  0  0 
  7  4  1  0  0  0  0 
  9  7  2  0  0  0  0 
 11  1  1  0  0  0  0 
 12  1  1  0  0  0  0 
 15  3  1  0  0  0  0 
 18  4  1  0  0  0  0 
 19  5  1  0  0  0  0 
M  END 
>  <HBA> 
2 
 
>  <HBD> 
0 
 
>  <TPSA> 
34.14 
 
>  <cid> 
69978 
 
>  <dipole> 
2.01 
 
>  <excitation_energy_1> 
3.886 
 
>  <excitation_energy_2> 
4.315 
 
>  <excitation_energy_3> 
5.136 
 
>  <excitation_energy_4> 
5.593 
 
>  <homo_energy> 
-6.582 
 
>  <homo_lumo_gap> 
5.388 
 
>  <logP> 
0.945 
 
>  <lumo_energy> 
-1.195 
 
>  <melting_point> 
38.13 
 
>  <molecular_refractivity> 
34.05 
 
>  <oscillator_strength_1> 
0.0017 
 
>  <oscillator_strength_2> 
0.0001 
 
>  <oscillator_strength_3> 
0.0007 
 
>  <oscillator_strength_4> 
0.0106 
 
>  <open_babel_can_smiles> 
CCC1C(=O)CCC1=O 
 
>  <mulliken_charges> 
19 
1   -0.458666 
2   -0.245391 
3   -0.368955 
4   -0.368871 
5   -0.266655 
6   0.439969 
7   0.441674 
8   -0.439448 
9   -0.438421 
10   0.146287 
11   0.178432 
12   0.136793 
13   0.147149 
14   0.165299 
15   0.182056 
16   0.185201 
17   0.188719 
18   0.183684 
19   0.191145 
 
>  <lowdin_charges> 
19 
1   -0.449672 
2   -0.26285 
3   -0.316318 
4   -0.317895 
5   -0.197373 
6   0.157095 
7   0.154689 
8   -0.217425 
9   -0.218949 
10   0.152201 
11   0.164793 
12   0.144685 
13   0.151411 
14   0.160819 
15   0.176125 
16   0.174552 
17   0.179682 
18   0.177352 
19   0.187079 
 
$$$$ 
 
