PCCDB-ID:  12256 
public computational chemistry database (PCCDB) project, http://pccdb.org 
 
 18 17  0  0  0  0  0  0  0  0999 V2000 
    4.4776    2.5877    3.9366 C   0  0  0  0  0  0  0  0  0  0  0  0 
    6.5772    0.1642    0.5196 C   0  0  0  0  0  0  0  0  0  0  0  0 
    5.7240   -1.3747    2.3470 C   0  0  0  0  0  0  0  0  0  0  0  0 
    4.3513    1.2538    3.2169 C   0  0  0  0  0  0  0  0  0  0  0  0 
    5.4957   -0.0737    1.5696 C   0  0  0  0  0  0  0  0  0  0  0  0 
    5.5127    1.0691    2.4253 O   0  0  0  0  0  0  0  0  0  0  0  0 
    3.5916    2.7766    4.5531 H   0  0  0  0  0  0  0  0  0  0  0  0 
    4.5822    3.4043    3.2150 H   0  0  0  0  0  0  0  0  0  0  0  0 
    5.3594    2.5907    4.5858 H   0  0  0  0  0  0  0  0  0  0  0  0 
    6.6068   -0.6574   -0.2047 H   0  0  0  0  0  0  0  0  0  0  0  0 
    7.5600    0.2387    0.9987 H   0  0  0  0  0  0  0  0  0  0  0  0 
    6.3876    1.0986   -0.0177 H   0  0  0  0  0  0  0  0  0  0  0  0 
    5.7335   -2.2335    1.6657 H   0  0  0  0  0  0  0  0  0  0  0  0 
    4.9384   -1.5497    3.0894 H   0  0  0  0  0  0  0  0  0  0  0  0 
    6.6867   -1.3369    2.8696 H   0  0  0  0  0  0  0  0  0  0  0  0 
    3.4519    1.2439    2.5767 H   0  0  0  0  0  0  0  0  0  0  0  0 
    4.2342    0.4401    3.9508 H   0  0  0  0  0  0  0  0  0  0  0  0 
    4.5131   -0.1252    1.0680 H   0  0  0  0  0  0  0  0  0  0  0  0 
  1  7  1  0  0  0  0 
  1  9  1  0  0  0  0 
  2 11  1  0  0  0  0 
  2  5  1  0  0  0  0 
  3 15  1  0  0  0  0 
  3 14  1  0  0  0  0 
  4  1  1  0  0  0  0 
  4 17  1  0  0  0  0 
  5  3  1  0  0  0  0 
  5  6  1  0  0  0  0 
  6  4  1  0  0  0  0 
  8  1  1  0  0  0  0 
 10  2  1  0  0  0  0 
 12  2  1  0  0  0  0 
 13  3  1  0  0  0  0 
 16  4  1  0  0  0  0 
 18  5  1  0  0  0  0 
M  END 
>  <HBA> 
1 
 
>  <HBD> 
0 
 
>  <TPSA> 
9.23 
 
>  <cid> 
12256 
 
>  <dipole> 
1.06 
 
>  <excitation_energy_1> 
6.393 
 
>  <excitation_energy_2> 
6.902 
 
>  <excitation_energy_3> 
6.935 
 
>  <excitation_energy_4> 
6.998 
 
>  <homo_energy> 
-6.68 
 
>  <homo_lumo_gap> 
9.089 
 
>  <logP> 
1.431 
 
>  <lumo_energy> 
2.408 
 
>  <melting_point> 
-34.85 
 
>  <molecular_refractivity> 
27.23 
 
>  <oscillator_strength_1> 
0.0115 
 
>  <oscillator_strength_2> 
0.0087 
 
>  <oscillator_strength_3> 
0.0139 
 
>  <oscillator_strength_4> 
0.0218 
 
>  <open_babel_can_smiles> 
CCOC(C)C 
 
>  <mulliken_charges> 
18 
1   -0.451312 
2   -0.446629 
3   -0.455566 
4   -0.005317 
5   0.165149 
6   -0.479052 
7   0.139713 
8   0.156069 
9   0.156854 
10   0.137735 
11   0.151825 
12   0.152806 
13   0.140495 
14   0.145507 
15   0.151422 
16   0.11474 
17   0.11911 
18   0.10645 
 
>  <lowdin_charges> 
18 
1   -0.449309 
2   -0.44795 
3   -0.46136 
4   -0.126878 
5   0.010777 
6   -0.277902 
7   0.152446 
8   0.156215 
9   0.156464 
10   0.150849 
11   0.15394 
12   0.156495 
13   0.152713 
14   0.151189 
15   0.153673 
16   0.12319 
17   0.124766 
18   0.120683 
 
$$$$ 
 
