PCCDB-ID:  33150 
public computational chemistry database (PCCDB) project, http://pccdb.org 
 
 36 35  0  0  1  0  0  0  0  0999 V2000 
    3.1099   -2.2254    5.0838 C   0  0  0  0  0  0  0  0  0  0  0  0 
    0.4189   -1.5211    6.4426 C   0  0  0  0  0  0  0  0  0  0  0  0 
    3.8106    2.2666    3.7307 C   0  0  0  0  0  0  0  0  0  0  0  0 
   -2.9718    0.0096    2.6498 C   0  0  0  0  0  0  0  0  0  0  0  0 
   -0.5298    1.7561    0.7813 C   0  0  0  0  0  0  0  0  0  0  0  0 
    2.2962   -0.4320    3.4863 C   0  0  0  0  0  0  0  0  0  0  0  0 
    0.3226    1.2695    3.6215 C   0  0  0  0  0  0  0  0  0  0  0  0 
    2.1823   -1.0198    4.8968 C   0  0  1  0  0  0  0  0  0  0  0  0 
    1.8043    1.0198    3.3197 C   0  0  1  0  0  0  0  0  0  0  0  0 
   -0.6454    0.4322    2.7881 C   0  0  0  0  0  0  0  0  0  0  0  0 
    0.8124   -1.3959    5.0911 O   0  0  0  0  0  0  0  0  0  0  0  0 
    2.5210    1.9123    4.1824 O   0  0  0  0  0  0  0  0  0  0  0  0 
   -1.9447    0.8741    3.1124 O   0  0  0  0  0  0  0  0  0  0  0  0 
   -0.3976    0.4759    1.3879 O   0  0  0  0  0  0  0  0  0  0  0  0 
    4.1595   -1.9268    4.9815 H   0  0  0  0  0  0  0  0  0  0  0  0 
    2.8930   -2.9927    4.3318 H   0  0  0  0  0  0  0  0  0  0  0  0 
    2.9904   -2.6769    6.0742 H   0  0  0  0  0  0  0  0  0  0  0  0 
   -0.6524   -1.7403    6.4420 H   0  0  0  0  0  0  0  0  0  0  0  0 
    0.5908   -0.5885    7.0028 H   0  0  0  0  0  0  0  0  0  0  0  0 
    0.9410   -2.3387    6.9617 H   0  0  0  0  0  0  0  0  0  0  0  0 
    4.1975    3.0134    4.4299 H   0  0  0  0  0  0  0  0  0  0  0  0 
    3.7795    2.7076    2.7212 H   0  0  0  0  0  0  0  0  0  0  0  0 
    4.5083    1.4153    3.7118 H   0  0  0  0  0  0  0  0  0  0  0  0 
   -3.9202    0.4445    2.9754 H   0  0  0  0  0  0  0  0  0  0  0  0 
   -2.8694   -0.9967    3.0835 H   0  0  0  0  0  0  0  0  0  0  0  0 
   -2.9678   -0.0794    1.5564 H   0  0  0  0  0  0  0  0  0  0  0  0 
   -0.5340    1.5853   -0.2984 H   0  0  0  0  0  0  0  0  0  0  0  0 
    0.3100    2.4212    1.0276 H   0  0  0  0  0  0  0  0  0  0  0  0 
   -1.4652    2.2456    1.0755 H   0  0  0  0  0  0  0  0  0  0  0  0 
    1.7586   -1.0821    2.7855 H   0  0  0  0  0  0  0  0  0  0  0  0 
    3.3499   -0.4679    3.1821 H   0  0  0  0  0  0  0  0  0  0  0  0 
    0.1158    2.3339    3.4643 H   0  0  0  0  0  0  0  0  0  0  0  0 
    0.1202    1.0597    4.6746 H   0  0  0  0  0  0  0  0  0  0  0  0 
    2.4443   -0.2379    5.6269 H   0  0  0  0  0  0  0  0  0  0  0  0 
    2.0000    1.3079    2.2745 H   0  0  0  0  0  0  0  0  0  0  0  0 
   -0.5410   -0.6307    3.0342 H   0  0  0  0  0  0  0  0  0  0  0  0 
  1 17  1  0  0  0  0 
  2 20  1  0  0  0  0 
  2 19  1  0  0  0  0 
  3 12  1  0  0  0  0 
  3 21  1  0  0  0  0 
  4 24  1  0  0  0  0 
  4 25  1  0  0  0  0 
  4 13  1  0  0  0  0 
  5 28  1  0  0  0  0 
  5 29  1  0  0  0  0 
  5 14  1  0  0  0  0 
  6  8  1  0  0  0  0 
  7 33  1  0  0  0  0 
  8  1  1  0  0  0  0 
  8 11  1  0  0  0  0 
  8 34  1  1  0  0  0 
  9 35  1  6  0  0  0 
  9  6  1  0  0  0  0 
  9  7  1  0  0  0  0 
  9 12  1  0  0  0  0 
 10 36  1  0  0  0  0 
 10 13  1  0  0  0  0 
 10  7  1  0  0  0  0 
 11  2  1  0  0  0  0 
 14 10  1  0  0  0  0 
 15  1  1  0  0  0  0 
 16  1  1  0  0  0  0 
 18  2  1  0  0  0  0 
 22  3  1  0  0  0  0 
 23  3  1  0  0  0  0 
 26  4  1  0  0  0  0 
 27  5  1  0  0  0  0 
 30  6  1  0  0  0  0 
 31  6  1  0  0  0  0 
 32  7  1  0  0  0  0 
M  END 
>  <HBA> 
4 
 
>  <HBD> 
0 
 
>  <TPSA> 
36.92 
 
>  <cid> 
33150 
 
>  <dipole> 
1.05 
 
>  <excitation_energy_1> 
6.322 
 
>  <excitation_energy_2> 
6.409 
 
>  <excitation_energy_3> 
6.645 
 
>  <excitation_energy_4> 
6.658 
 
>  <homo_energy> 
-6.743 
 
>  <homo_lumo_gap> 
8.787 
 
>  <logP> 
1.435 
 
>  <lumo_energy> 
2.044 
 
>  <melting_point> 
-65.02 
 
>  <molecular_refractivity> 
54.52 
 
>  <oscillator_strength_1> 
0.0077 
 
>  <oscillator_strength_2> 
0.0046 
 
>  <oscillator_strength_3> 
0.005 
 
>  <oscillator_strength_4> 
0.0051 
 
>  <open_babel_can_smiles> 
CO[C@H](C[C@@H](CC(OC)OC)OC)C 
 
>  <mulliken_charges> 
36 
1   -0.462196 
2   -0.197835 
3   -0.196369 
4   -0.20429 
5   -0.214258 
6   -0.300058 
7   -0.31248 
8   0.15691 
9   0.141225 
10   0.350097 
11   -0.476789 
12   -0.479499 
13   -0.4796 
14   -0.482535 
15   0.140925 
16   0.152336 
17   0.145431 
18   0.156994 
19   0.135009 
20   0.131406 
21   0.156892 
22   0.129274 
23   0.128684 
24   0.153784 
25   0.135023 
26   0.148615 
27   0.152479 
28   0.133305 
29   0.154419 
30   0.160978 
31   0.132436 
32   0.149337 
33   0.165413 
34   0.129807 
35   0.120018 
36   0.145111 
 
>  <lowdin_charges> 
36 
1   -0.456567 
2   -0.28173 
3   -0.281913 
4   -0.280183 
5   -0.288488 
6   -0.300816 
7   -0.298042 
8   0.003502 
9   0.005715 
10   0.095261 
11   -0.27748 
12   -0.274064 
13   -0.264719 
14   -0.282744 
15   0.150416 
16   0.154556 
17   0.150559 
18   0.152856 
19   0.134174 
20   0.132645 
21   0.155628 
22   0.130245 
23   0.129528 
24   0.1531 
25   0.134969 
26   0.139519 
27   0.151034 
28   0.133249 
29   0.145558 
30   0.162668 
31   0.146831 
32   0.154278 
33   0.165481 
34   0.134506 
35   0.130357 
36   0.140111 
 
$$$$ 
 
