PCCDB-ID:  10758 
public computational chemistry database (PCCDB) project, http://pccdb.org 
 
 17 17  0  0  1  0  0  0  0  0999 V2000 
   -1.5502   -0.0329    0.0178 C   0  0  0  0  0  0  0  0  0  0  0  0 
   -0.8837    1.1854   -0.1170 C   0  0  0  0  0  0  0  0  0  0  0  0 
   -0.8199   -1.2223    0.0823 C   0  0  0  0  0  0  0  0  0  0  0  0 
    0.5100    1.2136   -0.1866 C   0  0  0  0  0  0  0  0  0  0  0  0 
    0.5723   -1.1957    0.0194 C   0  0  0  0  0  0  0  0  0  0  0  0 
    3.3398   -0.0184    1.1984 C   0  0  0  0  0  0  0  0  0  0  0  0 
    1.2414    0.0254   -0.1177 C   0  0  0  0  0  0  0  0  0  0  0  0 
    2.7602    0.0618   -0.1677 C   0  0  2  0  0  0  0  0  0  0  0  0 
    3.8321   -0.0885    2.2476 N   0  0  0  0  0  0  0  0  0  0  0  0 
    3.2232   -1.0214   -0.9628 O   0  0  0  0  0  0  0  0  0  0  0  0 
   -2.6353   -0.0569    0.0695 H   0  0  0  0  0  0  0  0  0  0  0  0 
   -1.4459    2.1133   -0.1733 H   0  0  0  0  0  0  0  0  0  0  0  0 
   -1.3359   -2.1731    0.1840 H   0  0  0  0  0  0  0  0  0  0  0  0 
    1.0282    2.1634   -0.2982 H   0  0  0  0  0  0  0  0  0  0  0  0 
    1.1450   -2.1165    0.0610 H   0  0  0  0  0  0  0  0  0  0  0  0 
    3.0776    1.0278   -0.5901 H   0  0  0  0  0  0  0  0  0  0  0  0 
    4.1933   -1.0368   -0.9205 H   0  0  0  0  0  0  0  0  0  0  0  0 
  1 11  1  0  0  0  0 
  1  3  1  0  0  0  0 
  2  1  2  0  0  0  0 
  3 13  1  0  0  0  0 
  4  7  2  0  0  0  0 
  4  2  1  0  0  0  0 
  5 15  1  0  0  0  0 
  5  3  2  0  0  0  0 
  6  9  3  0  0  0  0 
  7  5  1  0  0  0  0 
  8 16  1  6  0  0  0 
  8  7  1  0  0  0  0 
  8  6  1  0  0  0  0 
 10 17  1  0  0  0  0 
 10  8  1  0  0  0  0 
 12  2  1  0  0  0  0 
 14  4  1  0  0  0  0 
M  END 
>  <HBA> 
2 
 
>  <HBD> 
1 
 
>  <TPSA> 
44.02 
 
>  <cid> 
10758 
 
>  <dipole> 
2.83 
 
>  <excitation_energy_1> 
5.24 
 
>  <excitation_energy_2> 
5.676 
 
>  <excitation_energy_3> 
6.087 
 
>  <excitation_energy_4> 
6.106 
 
>  <homo_energy> 
-7.034 
 
>  <homo_lumo_gap> 
6.348 
 
>  <logP> 
1.244 
 
>  <lumo_energy> 
-0.686 
 
>  <melting_point> 
59.01 
 
>  <molecular_refractivity> 
37.13 
 
>  <oscillator_strength_1> 
0.0024 
 
>  <oscillator_strength_2> 
0.0721 
 
>  <oscillator_strength_3> 
0.0545 
 
>  <oscillator_strength_4> 
0.0346 
 
>  <open_babel_can_smiles> 
O[C@@H](c1ccccc1)C#N 
 
>  <mulliken_charges> 
17 
1   -0.122071 
2   -0.129755 
3   -0.131459 
4   -0.170317 
5   -0.149394 
6   0.337051 
7   0.141479 
8   0.003619 
9   -0.462803 
10   -0.603467 
11   0.13702 
12   0.1375 
13   0.139037 
14   0.133292 
15   0.157052 
16   0.174518 
17   0.408698 
 
>  <lowdin_charges> 
17 
1   -0.14552 
2   -0.151805 
3   -0.149127 
4   -0.159098 
5   -0.143957 
6   -0.03855 
7   -0.010779 
8   0.009333 
9   -0.112779 
10   -0.429506 
11   0.159375 
12   0.162116 
13   0.162404 
14   0.158907 
15   0.172469 
16   0.162791 
17   0.353725 
 
$$$$ 
 
