PCCDB-ID:  36460 
public computational chemistry database (PCCDB) project, http://pccdb.org 
 
 26 27  0  0  1  0  0  0  0  0999 V2000 
    5.5443   -0.3102    0.6544 C   0  0  0  0  0  0  0  0  0  0  0  0 
   -1.2676    0.1514    1.4429 C   0  0  0  0  0  0  0  0  0  0  0  0 
   -2.0328   -0.9973    1.2253 C   0  0  0  0  0  0  0  0  0  0  0  0 
    0.1141    0.0471    1.6692 C   0  0  0  0  0  0  0  0  0  0  0  0 
   -1.4529   -2.2736    1.2340 C   0  0  0  0  0  0  0  0  0  0  0  0 
    3.0888   -1.0777    0.8553 C   0  0  0  0  0  0  0  0  0  0  0  0 
    4.5678   -1.3794    1.0832 C   0  0  0  0  0  0  0  0  0  0  0  0 
    0.6874   -1.2141    1.6732 C   0  0  0  0  0  0  0  0  0  0  0  0 
   -0.0851   -2.3722    1.4661 C   0  0  0  0  0  0  0  0  0  0  0  0 
    1.8887   -3.2071    1.7635 C   0  0  0  0  0  0  0  0  0  0  0  0 
    2.1167   -1.6685    1.8936 C   0  0  1  0  0  0  0  0  0  0  0  0 
    0.6719   -3.5685    1.5342 N   0  0  0  0  0  0  0  0  0  0  0  0 
    4.9655   -2.4301    1.5670 O   0  0  0  0  0  0  0  0  0  0  0  0 
    2.8751   -4.0755    1.9279 O   0  0  0  0  0  0  0  0  0  0  0  0 
    2.6619   -1.3094    3.1654 O   0  0  0  0  0  0  0  0  0  0  0  0 
    5.3163    0.0456   -0.3577 H   0  0  0  0  0  0  0  0  0  0  0  0 
    6.5658   -0.6916    0.6997 H   0  0  0  0  0  0  0  0  0  0  0  0 
    5.4467    0.5534    1.3252 H   0  0  0  0  0  0  0  0  0  0  0  0 
   -1.7427    1.1282    1.4391 H   0  0  0  0  0  0  0  0  0  0  0  0 
   -3.1011   -0.9012    1.0493 H   0  0  0  0  0  0  0  0  0  0  0  0 
    0.7128    0.9382    1.8465 H   0  0  0  0  0  0  0  0  0  0  0  0 
   -2.0463   -3.1678    1.0707 H   0  0  0  0  0  0  0  0  0  0  0  0 
    2.8277   -1.4425   -0.1482 H   0  0  0  0  0  0  0  0  0  0  0  0 
    2.9491    0.0088    0.8325 H   0  0  0  0  0  0  0  0  0  0  0  0 
    3.7278   -3.5734    1.9775 H   0  0  0  0  0  0  0  0  0  0  0  0 
    1.9904   -1.5093    3.8382 H   0  0  0  0  0  0  0  0  0  0  0  0 
  1 17  1  0  0  0  0 
  1  7  1  0  0  0  0 
  1 18  1  0  0  0  0 
  2  4  2  0  0  0  0 
  3  5  2  0  0  0  0 
  3  2  1  0  0  0  0 
  4  8  1  0  0  0  0 
  4 21  1  0  0  0  0 
  5  9  1  0  0  0  0 
  6  7  1  0  0  0  0 
  6 11  1  0  0  0  0 
  7 13  2  0  0  0  0 
  8 11  1  0  0  0  0 
  9 12  1  0  0  0  0 
  9  8  2  0  0  0  0 
 10 11  1  0  0  0  0 
 10 14  1  0  0  0  0 
 11 15  1  1  0  0  0 
 12 10  2  0  0  0  0 
 14 25  1  0  0  0  0 
 15 26  1  0  0  0  0 
 16  1  1  0  0  0  0 
 19  2  1  0  0  0  0 
 20  3  1  0  0  0  0 
 22  5  1  0  0  0  0 
 23  6  1  0  0  0  0 
 24  6  1  0  0  0  0 
M  END 
>  <HBA> 
4 
 
>  <HBD> 
2 
 
>  <TPSA> 
66.4 
 
>  <cid> 
36460 
 
>  <dipole> 
5.24 
 
>  <excitation_energy_1> 
3.831 
 
>  <excitation_energy_2> 
4.19 
 
>  <excitation_energy_3> 
4.507 
 
>  <excitation_energy_4> 
4.675 
 
>  <homo_energy> 
-5.769 
 
>  <homo_lumo_gap> 
4.484 
 
>  <logP> 
0.943 
 
>  <lumo_energy> 
-1.284 
 
>  <melting_point> 
131.64 
 
>  <molecular_refractivity> 
57.4 
 
>  <oscillator_strength_1> 
0.0071 
 
>  <oscillator_strength_2> 
0.0313 
 
>  <oscillator_strength_3> 
0.0011 
 
>  <oscillator_strength_4> 
0.0008 
 
>  <open_babel_can_smiles> 
CC(=O)C[C@]1(O)C(=Nc2c1cccc2)O 
 
>  <mulliken_charges> 
26 
1   -0.538458 
2   -0.142332 
3   -0.131488 
4   -0.202547 
5   -0.191514 
6   -0.385854 
7   0.501975 
8   0.086908 
9   0.25224 
10   0.503834 
11   0.138214 
12   -0.516521 
13   -0.462537 
14   -0.606175 
15   -0.63156 
16   0.177725 
17   0.191465 
18   0.192111 
19   0.127258 
20   0.13139 
21   0.128359 
22   0.142392 
23   0.199801 
24   0.17406 
25   0.454629 
26   0.406625 
 
>  <lowdin_charges> 
26 
1   -0.465819 
2   -0.173999 
3   -0.142481 
4   -0.158364 
5   -0.173495 
6   -0.30603 
7   0.195238 
8   -0.068704 
9   0.042203 
10   0.110563 
11   0.098126 
12   -0.199155 
13   -0.235926 
14   -0.332437 
15   -0.445278 
16   0.173805 
17   0.178332 
18   0.184253 
19   0.157135 
20   0.157385 
21   0.156941 
22   0.168682 
23   0.187101 
24   0.168508 
25   0.366981 
26   0.356437 
 
$$$$ 
 
