PCCDB-ID:  6660 
public computational chemistry database (PCCDB) project, http://pccdb.org 
 
 16 16  0  0  0  0  0  0  0  0999 V2000 
    0.9634   -0.1309    0.0386 C   0  0  0  0  0  0  0  0  0  0  0  0 
    3.2848   -1.3371   -0.1504 C   0  0  0  0  0  0  0  0  0  0  0  0 
    4.7443   -0.8523   -0.2783 C   0  0  0  0  0  0  0  0  0  0  0  0 
    2.4530   -0.0729   -0.0905 C   0  0  0  0  0  0  0  0  0  0  0  0 
    4.6656    0.6764   -0.2912 C   0  0  0  0  0  0  0  0  0  0  0  0 
    3.2293    1.0303   -0.1692 C   0  0  0  0  0  0  0  0  0  0  0  0 
    5.5964    1.4515   -0.3825 O   0  0  0  0  0  0  0  0  0  0  0  0 
    2.8966    2.3445   -0.1538 O   0  0  0  0  0  0  0  0  0  0  0  0 
    0.6668   -0.6673    0.9502 H   0  0  0  0  0  0  0  0  0  0  0  0 
    0.5147   -0.6717   -0.8059 H   0  0  0  0  0  0  0  0  0  0  0  0 
    0.4953    0.8606    0.0765 H   0  0  0  0  0  0  0  0  0  0  0  0 
    3.1294   -1.9505    0.7483 H   0  0  0  0  0  0  0  0  0  0  0  0 
    2.9819   -1.9644   -1.0007 H   0  0  0  0  0  0  0  0  0  0  0  0 
    5.2314   -1.1984   -1.1963 H   0  0  0  0  0  0  0  0  0  0  0  0 
    5.3766   -1.1750    0.5558 H   0  0  0  0  0  0  0  0  0  0  0  0 
    1.9332    2.4298   -0.0712 H   0  0  0  0  0  0  0  0  0  0  0  0 
  1 11  1  0  0  0  0 
  1  9  1  0  0  0  0 
  2  4  1  0  0  0  0 
  2 12  1  0  0  0  0 
  3  2  1  0  0  0  0 
  3 15  1  0  0  0  0 
  4  1  1  0  0  0  0 
  5  3  1  0  0  0  0 
  5  6  1  0  0  0  0 
  6  8  1  0  0  0  0 
  6  4  2  0  0  0  0 
  7  5  2  0  0  0  0 
  8 16  1  0  0  0  0 
 10  1  1  0  0  0  0 
 13  2  1  0  0  0  0 
 14  3  1  0  0  0  0 
M  END 
>  <HBA> 
2 
 
>  <HBD> 
1 
 
>  <TPSA> 
37.3 
 
>  <cid> 
6660 
 
>  <dipole> 
4.99 
 
>  <excitation_energy_1> 
3.92 
 
>  <excitation_energy_2> 
5.082 
 
>  <excitation_energy_3> 
5.192 
 
>  <excitation_energy_4> 
5.664 
 
>  <homo_energy> 
-6.275 
 
>  <homo_lumo_gap> 
5.331 
 
>  <logP> 
1.181 
 
>  <lumo_energy> 
-0.944 
 
>  <melting_point> 
45.33 
 
>  <molecular_refractivity> 
30.14 
 
>  <oscillator_strength_1> 
0.0003 
 
>  <oscillator_strength_2> 
0.2569 
 
>  <oscillator_strength_3> 
0.0008 
 
>  <oscillator_strength_4> 
0.0037 
 
>  <open_babel_can_smiles> 
OC1=C(C)CCC1=O 
 
>  <mulliken_charges> 
16 
1   -0.524939 
2   -0.33494 
3   -0.370891 
4   0.110028 
5   0.415143 
6   0.23274 
7   -0.459132 
8   -0.619232 
9   0.172965 
10   0.17316 
11   0.138163 
12   0.152732 
13   0.152889 
14   0.176606 
15   0.176821 
16   0.407887 
 
>  <lowdin_charges> 
16 
1   -0.442094 
2   -0.271274 
3   -0.308846 
4   -0.044948 
5   0.140341 
6   0.028585 
7   -0.23431 
8   -0.354314 
9   0.167424 
10   0.168013 
11   0.147153 
12   0.15204 
13   0.152511 
14   0.171932 
15   0.172514 
16   0.355271 
 
$$$$ 
 
