PCCDB-ID:  21076 
public computational chemistry database (PCCDB) project, http://pccdb.org 
 
 11 11  0  0  1  0  0  0  0  0999 V2000 
    1.0347    0.6193    0.0300 C   0  0  0  0  0  0  0  0  0  0  0  0 
    1.0340   -0.7098   -0.0631 C   0  0  0  0  0  0  0  0  0  0  0  0 
   -0.3815    1.1126    0.2348 C   0  0  2  0  0  0  0  0  0  0  0  0 
   -0.3701   -1.1918    0.0643 C   0  0  0  0  0  0  0  0  0  0  0  0 
   -0.5690    1.8698    1.3887 O   0  0  0  0  0  0  0  0  0  0  0  0 
   -0.7989   -2.3147    0.0257 O   0  0  0  0  0  0  0  0  0  0  0  0 
   -1.1744   -0.0880    0.2519 O   0  0  0  0  0  0  0  0  0  0  0  0 
    1.8776    1.3000   -0.0089 H   0  0  0  0  0  0  0  0  0  0  0  0 
    1.8650   -1.3899   -0.1979 H   0  0  0  0  0  0  0  0  0  0  0  0 
   -0.7383    1.7382   -0.5889 H   0  0  0  0  0  0  0  0  0  0  0  0 
   -0.2747    1.3367    2.1471 H   0  0  0  0  0  0  0  0  0  0  0  0 
  1  3  1  0  0  0  0 
  2  1  2  0  0  0  0 
  2  4  1  0  0  0  0 
  3 10  1  6  0  0  0 
  3  7  1  0  0  0  0 
  3  5  1  0  0  0  0 
  4  7  1  0  0  0  0 
  5 11  1  0  0  0  0 
  6  4  2  0  0  0  0 
  8  1  1  0  0  0  0 
  9  2  1  0  0  0  0 
M  END 
>  <HBA> 
3 
 
>  <HBD> 
1 
 
>  <TPSA> 
46.53 
 
>  <cid> 
21076 
 
>  <dipole> 
4.11 
 
>  <excitation_energy_1> 
4.502 
 
>  <excitation_energy_2> 
5.507 
 
>  <excitation_energy_3> 
6.274 
 
>  <excitation_energy_4> 
6.524 
 
>  <homo_energy> 
-7.611 
 
>  <homo_lumo_gap> 
5.883 
 
>  <logP> 
-0.582 
 
>  <lumo_energy> 
-1.728 
 
>  <melting_point> 
38.19 
 
>  <molecular_refractivity> 
21.2 
 
>  <oscillator_strength_1> 
0.0001 
 
>  <oscillator_strength_2> 
0.0005 
 
>  <oscillator_strength_3> 
0.1879 
 
>  <oscillator_strength_4> 
0.101 
 
>  <open_babel_can_smiles> 
O[C@H]1C=CC(=O)O1 
 
>  <mulliken_charges> 
11 
1   -0.159013 
2   -0.164259 
3   0.295487 
4   0.594219 
5   -0.573025 
6   -0.44955 
7   -0.466391 
8   0.174075 
9   0.17342 
10   0.175459 
11   0.399578 
 
>  <lowdin_charges> 
11 
1   -0.157681 
2   -0.182778 
3   0.101248 
4   0.191098 
5   -0.413439 
6   -0.219993 
7   -0.202716 
8   0.180685 
9   0.185927 
10   0.164914 
11   0.352735 
 
$$$$ 
 
