PCCDB-ID:  58281 
public computational chemistry database (PCCDB) project, http://pccdb.org 
 
 27 26  0  0  0  0  0  0  0  0999 V2000 
    1.6267    1.6716   -0.5876 C   0  0  0  0  0  0  0  0  0  0  0  0 
    1.8138    2.8293    1.5001 C   0  0  0  0  0  0  0  0  0  0  0  0 
    7.4968   -2.6018    2.4276 C   0  0  0  0  0  0  0  0  0  0  0  0 
    5.2055   -3.5183    2.5844 C   0  0  0  0  0  0  0  0  0  0  0  0 
    4.0119   -0.0459    0.4389 C   0  0  0  0  0  0  0  0  0  0  0  0 
    2.9251    0.7036    1.2260 C   0  0  0  0  0  0  0  0  0  0  0  0 
    5.5928   -1.3419    1.5589 C   0  0  0  0  0  0  0  0  0  0  0  0 
    4.3890   -1.2605    1.1391 N   0  0  0  0  0  0  0  0  0  0  0  0 
    2.4791    1.9317    0.5655 N   0  0  0  0  0  0  0  0  0  0  0  0 
    6.0683   -2.3797    2.3234 N   0  0  0  0  0  0  0  0  0  0  0  0 
    1.3638    2.6199   -1.0694 H   0  0  0  0  0  0  0  0  0  0  0  0 
    0.6848    1.1502   -0.3212 H   0  0  0  0  0  0  0  0  0  0  0  0 
    2.1530    1.0600   -1.3258 H   0  0  0  0  0  0  0  0  0  0  0  0 
    1.5500    3.7625    0.9893 H   0  0  0  0  0  0  0  0  0  0  0  0 
    2.4902    3.0745    2.3261 H   0  0  0  0  0  0  0  0  0  0  0  0 
    0.8847    2.4061    1.9328 H   0  0  0  0  0  0  0  0  0  0  0  0 
    7.7477   -2.9765    3.4273 H   0  0  0  0  0  0  0  0  0  0  0  0 
    8.0303   -1.6594    2.2725 H   0  0  0  0  0  0  0  0  0  0  0  0 
    7.8658   -3.3319    1.6885 H   0  0  0  0  0  0  0  0  0  0  0  0 
    5.5036   -3.9917    3.5266 H   0  0  0  0  0  0  0  0  0  0  0  0 
    5.2595   -4.2704    1.7816 H   0  0  0  0  0  0  0  0  0  0  0  0 
    4.1750   -3.1685    2.6547 H   0  0  0  0  0  0  0  0  0  0  0  0 
    4.8594    0.6425    0.2724 H   0  0  0  0  0  0  0  0  0  0  0  0 
    3.6264   -0.3273   -0.5502 H   0  0  0  0  0  0  0  0  0  0  0  0 
    3.3506    0.9795    2.1982 H   0  0  0  0  0  0  0  0  0  0  0  0 
    2.0867    0.0101    1.4330 H   0  0  0  0  0  0  0  0  0  0  0  0 
    6.3531   -0.5690    1.3652 H   0  0  0  0  0  0  0  0  0  0  0  0 
  1 12  1  0  0  0  0 
  1  9  1  0  0  0  0 
  2 16  1  0  0  0  0 
  2 15  1  0  0  0  0 
  3 17  1  0  0  0  0 
  4 22  1  0  0  0  0 
  4 20  1  0  0  0  0 
  5  8  1  0  0  0  0 
  5  6  1  0  0  0  0 
  6 26  1  0  0  0  0 
  6 25  1  0  0  0  0 
  7 10  1  0  0  0  0 
  8  7  2  0  0  0  0 
  9  6  1  0  0  0  0 
  9  2  1  0  0  0  0 
 10  3  1  0  0  0  0 
 10  4  1  0  0  0  0 
 11  1  1  0  0  0  0 
 13  1  1  0  0  0  0 
 14  2  1  0  0  0  0 
 18  3  1  0  0  0  0 
 19  3  1  0  0  0  0 
 21  4  1  0  0  0  0 
 23  5  1  0  0  0  0 
 24  5  1  0  0  0  0 
 27  7  1  0  0  0  0 
M  END 
>  <HBA> 
3 
 
>  <HBD> 
0 
 
>  <TPSA> 
18.84 
 
>  <cid> 
58281 
 
>  <dipole> 
1.96 
 
>  <excitation_energy_1> 
5.069 
 
>  <excitation_energy_2> 
5.285 
 
>  <excitation_energy_3> 
5.356 
 
>  <excitation_energy_4> 
5.492 
 
>  <homo_energy> 
-5.407 
 
>  <homo_lumo_gap> 
6.493 
 
>  <logP> 
0.138 
 
>  <lumo_energy> 
1.086 
 
>  <melting_point> 
-4.09 
 
>  <molecular_refractivity> 
45.24 
 
>  <oscillator_strength_1> 
0.0323 
 
>  <oscillator_strength_2> 
0.0168 
 
>  <oscillator_strength_3> 
0.0173 
 
>  <oscillator_strength_4> 
0.0653 
 
>  <open_babel_can_smiles> 
CN(CC/N=C/N(C)C)C 
 
>  <mulliken_charges> 
27 
1   -0.299441 
2   -0.29149 
3   -0.307941 
4   -0.304812 
5   -0.14419 
6   -0.106974 
7   0.253651 
8   -0.436289 
9   -0.370151 
10   -0.371555 
11   0.144896 
12   0.116077 
13   0.152194 
14   0.143815 
15   0.146648 
16   0.115492 
17   0.156776 
18   0.160249 
19   0.148836 
20   0.143716 
21   0.146366 
22   0.193212 
23   0.116638 
24   0.136594 
25   0.130712 
26   0.119209 
27   0.107761 
 
>  <lowdin_charges> 
27 
1   -0.359144 
2   -0.356257 
3   -0.347827 
4   -0.352521 
5   -0.200592 
6   -0.206267 
7   -0.043941 
8   -0.247025 
9   -0.185867 
10   -0.10816 
11   0.148539 
12   0.119108 
13   0.151271 
14   0.147115 
15   0.148996 
16   0.118947 
17   0.151114 
18   0.158321 
19   0.141271 
20   0.148496 
21   0.14331 
22   0.176683 
23   0.124268 
24   0.139102 
25   0.142575 
26   0.123402 
27   0.125083 
 
$$$$ 
 
