PCCDB-ID:  70631 
public computational chemistry database (PCCDB) project, http://pccdb.org 
 
 27 27  0  0  1  0  0  0  0  0999 V2000 
    0.7459    1.2227   -0.2947 C   0  0  0  0  0  0  0  0  0  0  0  0 
   -1.4657   -0.0004   -0.2392 C   0  0  0  0  0  0  0  0  0  0  0  0 
    1.4529   -0.0333    0.2325 C   0  0  0  0  0  0  0  0  0  0  0  0 
   -0.7555   -1.2621    0.2757 C   0  0  0  0  0  0  0  0  0  0  0  0 
   -1.4476    2.5306   -0.3824 C   0  0  0  0  0  0  0  0  0  0  0  0 
    1.4088   -2.5790    0.3641 C   0  0  0  0  0  0  0  0  0  0  0  0 
   -0.7234    1.2888    0.1565 C   0  0  2  0  0  0  0  0  0  0  0  0 
    0.7158   -1.3209   -0.1717 C   0  0  2  0  0  0  0  0  0  0  0  0 
   -0.8142    3.7698    0.0871 N   0  0  0  0  0  0  0  0  0  0  0  0 
    2.7643   -2.7075   -0.0557 O   0  0  0  0  0  0  0  0  0  0  0  0 
    0.7746    1.2222   -1.3961 H   0  0  0  0  0  0  0  0  0  0  0  0 
    1.2695    2.1291    0.0251 H   0  0  0  0  0  0  0  0  0  0  0  0 
   -2.4974    0.0266    0.1372 H   0  0  0  0  0  0  0  0  0  0  0  0 
   -1.5377   -0.0486   -1.3368 H   0  0  0  0  0  0  0  0  0  0  0  0 
    1.5066    0.0100    1.3318 H   0  0  0  0  0  0  0  0  0  0  0  0 
    2.4886   -0.0742   -0.1221 H   0  0  0  0  0  0  0  0  0  0  0  0 
   -1.2923   -2.1588   -0.0632 H   0  0  0  0  0  0  0  0  0  0  0  0 
   -0.7943   -1.2748    1.3759 H   0  0  0  0  0  0  0  0  0  0  0  0 
   -2.5203    2.4556   -0.1217 H   0  0  0  0  0  0  0  0  0  0  0  0 
   -1.3932    2.5266   -1.4797 H   0  0  0  0  0  0  0  0  0  0  0  0 
    0.8257   -3.4734    0.0853 H   0  0  0  0  0  0  0  0  0  0  0  0 
    1.4478   -2.5468    1.4593 H   0  0  0  0  0  0  0  0  0  0  0  0 
   -0.7347    1.3510    1.2591 H   0  0  0  0  0  0  0  0  0  0  0  0 
    0.7244   -1.3844   -1.2751 H   0  0  0  0  0  0  0  0  0  0  0  0 
   -0.9556    3.8616    1.0929 H   0  0  0  0  0  0  0  0  0  0  0  0 
   -1.2761    4.5741   -0.3344 H   0  0  0  0  0  0  0  0  0  0  0  0 
    2.7617   -2.7666   -1.0240 H   0  0  0  0  0  0  0  0  0  0  0  0 
  1 12  1  0  0  0  0 
  1  7  1  0  0  0  0 
  1  3  1  0  0  0  0 
  2 13  1  0  0  0  0 
  2  7  1  0  0  0  0 
  2  4  1  0  0  0  0 
  3 15  1  0  0  0  0 
  4 18  1  0  0  0  0 
  5 19  1  0  0  0  0 
  5  9  1  0  0  0  0 
  5  7  1  0  0  0  0 
  6 22  1  0  0  0  0 
  7 23  1  1  0  0  0 
  8 24  1  6  0  0  0 
  8  3  1  0  0  0  0 
  8  4  1  0  0  0  0 
  8  6  1  0  0  0  0 
  9 25  1  0  0  0  0 
 10  6  1  0  0  0  0 
 11  1  1  0  0  0  0 
 14  2  1  0  0  0  0 
 16  3  1  0  0  0  0 
 17  4  1  0  0  0  0 
 20  5  1  0  0  0  0 
 21  6  1  0  0  0  0 
 26  9  1  0  0  0  0 
 27 10  1  0  0  0  0 
M  END 
>  <HBA> 
2 
 
>  <HBD> 
2 
 
>  <TPSA> 
46.25 
 
>  <cid> 
70631 
 
>  <dipole> 
2.66 
 
>  <excitation_energy_1> 
5.532 
 
>  <excitation_energy_2> 
6.139 
 
>  <excitation_energy_3> 
6.307 
 
>  <excitation_energy_4> 
6.334 
 
>  <homo_energy> 
-6.256 
 
>  <homo_lumo_gap> 
8.286 
 
>  <logP> 
1.444 
 
>  <lumo_energy> 
2.03 
 
>  <melting_point> 
67.55 
 
>  <molecular_refractivity> 
42.33 
 
>  <oscillator_strength_1> 
0.0085 
 
>  <oscillator_strength_2> 
0.0013 
 
>  <oscillator_strength_3> 
0.0023 
 
>  <oscillator_strength_4> 
0.0092 
 
>  <open_babel_can_smiles> 
NC[C@@H]1CC[C@H](CC1)CO 
 
>  <mulliken_charges> 
27 
1   -0.253938 
2   -0.26473 
3   -0.255957 
4   -0.26793 
5   -0.136933 
6   -0.026413 
7   -0.07551 
8   -0.10701 
9   -0.716513 
10   -0.61542 
11   0.115873 
12   0.156669 
13   0.126312 
14   0.124662 
15   0.121673 
16   0.14172 
17   0.126814 
18   0.127322 
19   0.108274 
20   0.133275 
21   0.114634 
22   0.140077 
23   0.10767 
24   0.102798 
25   0.29134 
26   0.296229 
27   0.385012 
 
>  <lowdin_charges> 
27 
1   -0.276099 
2   -0.273298 
3   -0.275497 
4   -0.275715 
5   -0.200997 
6   -0.135087 
7   -0.130676 
8   -0.144996 
9   -0.555903 
10   -0.463948 
11   0.131463 
12   0.157452 
13   0.139808 
14   0.134399 
15   0.134068 
16   0.148577 
17   0.141714 
18   0.135674 
19   0.114361 
20   0.136763 
21   0.124809 
22   0.141646 
23   0.126304 
24   0.123378 
25   0.248765 
26   0.256049 
27   0.336985 
 
$$$$ 
 
