PCCDB-ID:  40923 
public computational chemistry database (PCCDB) project, http://pccdb.org 
 
 25 24  0  0  1  0  0  0  0  0999 V2000 
    4.9356   -0.0082   -3.3644 C   0  0  0  0  0  0  0  0  0  0  0  0 
    3.9171    6.2089    0.0904 C   0  0  0  0  0  0  0  0  0  0  0  0 
    4.3380   -0.6121   -2.3330 C   0  0  0  0  0  0  0  0  0  0  0  0 
    3.3793    4.8850   -0.4614 C   0  0  0  0  0  0  0  0  0  0  0  0 
    4.2978   -0.1745   -0.8863 C   0  0  0  0  0  0  0  0  0  0  0  0 
    4.3487    3.7152   -0.2515 C   0  0  0  0  0  0  0  0  0  0  0  0 
    4.8149    1.2302   -0.5234 C   0  0  0  0  0  0  0  0  0  0  0  0 
    3.8465    2.3876   -0.8249 C   0  0  2  0  0  0  0  0  0  0  0  0 
    3.6533    2.5964   -2.2246 O   0  0  0  0  0  0  0  0  0  0  0  0 
    4.9203   -0.4538   -4.3556 H   0  0  0  0  0  0  0  0  0  0  0  0 
    5.4522    0.9421   -3.2696 H   0  0  0  0  0  0  0  0  0  0  0  0 
    3.2047    7.0265   -0.0691 H   0  0  0  0  0  0  0  0  0  0  0  0 
    4.8583    6.4887   -0.3991 H   0  0  0  0  0  0  0  0  0  0  0  0 
    4.1129    6.1441    1.1684 H   0  0  0  0  0  0  0  0  0  0  0  0 
    3.8384   -1.5648   -2.5188 H   0  0  0  0  0  0  0  0  0  0  0  0 
    3.1696    4.9817   -1.5322 H   0  0  0  0  0  0  0  0  0  0  0  0 
    2.4200    4.6488    0.0216 H   0  0  0  0  0  0  0  0  0  0  0  0 
    4.8696   -0.9206   -0.3129 H   0  0  0  0  0  0  0  0  0  0  0  0 
    3.2648   -0.2804   -0.5179 H   0  0  0  0  0  0  0  0  0  0  0  0 
    4.5406    3.5830    0.8228 H   0  0  0  0  0  0  0  0  0  0  0  0 
    5.3153    3.9481   -0.7206 H   0  0  0  0  0  0  0  0  0  0  0  0 
    5.7771    1.4273   -1.0137 H   0  0  0  0  0  0  0  0  0  0  0  0 
    5.0110    1.2390    0.5569 H   0  0  0  0  0  0  0  0  0  0  0  0 
    2.8760    2.1483   -0.3498 H   0  0  0  0  0  0  0  0  0  0  0  0 
    3.4048    1.7481   -2.6251 H   0  0  0  0  0  0  0  0  0  0  0  0 
  1 11  1  0  0  0  0 
  1  3  2  0  0  0  0 
  2 14  1  0  0  0  0 
  3  5  1  0  0  0  0 
  4  6  1  0  0  0  0 
  4 17  1  0  0  0  0 
  4  2  1  0  0  0  0 
  5  7  1  0  0  0  0 
  5 19  1  0  0  0  0 
  5 18  1  0  0  0  0 
  6 20  1  0  0  0  0 
  7 23  1  0  0  0  0 
  8  7  1  0  0  0  0 
  8 24  1  1  0  0  0 
  8  6  1  0  0  0  0 
  9  8  1  0  0  0  0 
 10  1  1  0  0  0  0 
 12  2  1  0  0  0  0 
 13  2  1  0  0  0  0 
 15  3  1  0  0  0  0 
 16  4  1  0  0  0  0 
 21  6  1  0  0  0  0 
 22  7  1  0  0  0  0 
 25  9  1  0  0  0  0 
M  END 
>  <HBA> 
1 
 
>  <HBD> 
1 
 
>  <TPSA> 
20.23 
 
>  <cid> 
40923 
 
>  <dipole> 
1.92 
 
>  <excitation_energy_1> 
6.22 
 
>  <excitation_energy_2> 
6.326 
 
>  <excitation_energy_3> 
6.615 
 
>  <excitation_energy_4> 
6.89 
 
>  <homo_energy> 
-6.797 
 
>  <homo_lumo_gap> 
7.238 
 
>  <logP> 
2.114 
 
>  <lumo_energy> 
0.441 
 
>  <melting_point> 
-29.87 
 
>  <molecular_refractivity> 
41.26 
 
>  <oscillator_strength_1> 
0.0166 
 
>  <oscillator_strength_2> 
0.0147 
 
>  <oscillator_strength_3> 
0.0254 
 
>  <oscillator_strength_4> 
0.0565 
 
>  <open_babel_can_smiles> 
CCC[C@H](CCC=C)O 
 
>  <mulliken_charges> 
25 
1   -0.353969 
2   -0.442857 
3   -0.076296 
4   -0.250541 
5   -0.315113 
6   -0.252445 
7   -0.279358 
8   0.14467 
9   -0.638891 
10   0.142386 
11   0.163545 
12   0.140668 
13   0.141235 
14   0.136014 
15   0.129344 
16   0.160739 
17   0.122973 
18   0.1559 
19   0.144285 
20   0.121691 
21   0.133846 
22   0.145181 
23   0.132284 
24   0.100258 
25   0.394451 
 
>  <lowdin_charges> 
25 
1   -0.352456 
2   -0.443192 
3   -0.154458 
4   -0.271434 
5   -0.282879 
6   -0.278399 
7   -0.291928 
8   0.002628 
9   -0.475081 
10   0.160324 
11   0.164921 
12   0.149211 
13   0.146088 
14   0.141249 
15   0.151804 
16   0.152753 
17   0.136064 
18   0.160526 
19   0.148239 
20   0.137735 
21   0.143516 
22   0.149038 
23   0.148213 
24   0.116585 
25   0.340934 
 
$$$$ 
 
