PCCDB-ID:  18046 
public computational chemistry database (PCCDB) project, http://pccdb.org 
 
 20 21  0  0  0  0  0  0  0  0999 V2000 
   -2.1706   -0.7106    0.3477 C   0  0  0  0  0  0  0  0  0  0  0  0 
   -2.2367    0.6649   -0.3353 C   0  0  0  0  0  0  0  0  0  0  0  0 
   -0.8909   -1.4763   -0.0376 C   0  0  0  0  0  0  0  0  0  0  0  0 
   -1.0622    1.5714    0.0853 C   0  0  0  0  0  0  0  0  0  0  0  0 
    0.2929   -0.5551    0.0143 C   0  0  0  0  0  0  0  0  0  0  0  0 
    0.2178    0.7880    0.0720 C   0  0  0  0  0  0  0  0  0  0  0  0 
    2.6234   -0.0977    0.0597 C   0  0  0  0  0  0  0  0  0  0  0  0 
    3.8924   -0.2328    0.0716 N   0  0  0  0  0  0  0  0  0  0  0  0 
    1.6030   -1.0419   -0.0011 N   0  0  0  0  0  0  0  0  0  0  0  0 
    1.8373    1.5182    0.1263 S   0  0  0  0  0  0  0  0  0  0  0  0 
   -3.0501   -1.3091    0.0835 H   0  0  0  0  0  0  0  0  0  0  0  0 
   -2.1936   -0.5749    1.4371 H   0  0  0  0  0  0  0  0  0  0  0  0 
   -3.1859    1.1585   -0.0959 H   0  0  0  0  0  0  0  0  0  0  0  0 
   -2.2150    0.5292   -1.4250 H   0  0  0  0  0  0  0  0  0  0  0  0 
   -0.9917   -1.9036   -1.0473 H   0  0  0  0  0  0  0  0  0  0  0  0 
   -0.7426   -2.3275    0.6422 H   0  0  0  0  0  0  0  0  0  0  0  0 
   -1.2452    1.9871    1.0880 H   0  0  0  0  0  0  0  0  0  0  0  0 
   -0.9951    2.4326   -0.5924 H   0  0  0  0  0  0  0  0  0  0  0  0 
    4.1671   -1.2175    0.0275 H   0  0  0  0  0  0  0  0  0  0  0  0 
    1.8186   -2.0288   -0.0214 H   0  0  0  0  0  0  0  0  0  0  0  0 
  1 12  1  0  0  0  0 
  2 13  1  0  0  0  0 
  2  4  1  0  0  0  0 
  2  1  1  0  0  0  0 
  3  5  1  0  0  0  0 
  3  1  1  0  0  0  0 
  3 16  1  0  0  0  0 
  4 17  1  0  0  0  0 
  5  6  2  0  0  0  0 
  6  4  1  0  0  0  0 
  6 10  1  0  0  0  0 
  7  8  2  0  0  0  0 
  7 10  1  0  0  0  0 
  9  5  1  0  0  0  0 
  9  7  1  0  0  0  0 
 11  1  1  0  0  0  0 
 14  2  1  0  0  0  0 
 15  3  1  0  0  0  0 
 18  4  1  0  0  0  0 
 19  8  1  0  0  0  0 
 20  9  1  0  0  0  0 
M  END 
>  <HBA> 
3 
 
>  <HBD> 
1 
 
>  <TPSA> 
67.15 
 
>  <cid> 
18046 
 
>  <dipole> 
5.09 
 
>  <excitation_energy_1> 
3.993 
 
>  <excitation_energy_2> 
4.39 
 
>  <excitation_energy_3> 
4.611 
 
>  <excitation_energy_4> 
4.968 
 
>  <homo_energy> 
-5.01 
 
>  <homo_lumo_gap> 
5.587 
 
>  <logP> 
2.185 
 
>  <lumo_energy> 
0.577 
 
>  <melting_point> 
98.13 
 
>  <molecular_refractivity> 
43.95 
 
>  <oscillator_strength_1> 
0.0017 
 
>  <oscillator_strength_2> 
0.0014 
 
>  <oscillator_strength_3> 
0.0254 
 
>  <oscillator_strength_4> 
0.062 
 
>  <open_babel_can_smiles> 
N=c1sc2c([nH]1)CCCC2 
 
>  <mulliken_charges> 
20 
1   -0.267497 
2   -0.271092 
3   -0.3373 
4   -0.313127 
5   0.386811 
6   -0.196545 
7   0.317732 
8   -0.640699 
9   -0.66789 
10   0.207672 
11   0.139896 
12   0.147552 
13   0.140886 
14   0.144794 
15   0.157078 
16   0.146994 
17   0.155413 
18   0.155915 
19   0.270406 
20   0.323001 
 
>  <lowdin_charges> 
20 
1   -0.270091 
2   -0.270509 
3   -0.275016 
4   -0.265501 
5   0.009163 
6   -0.193362 
7   -0.014235 
8   -0.444474 
9   -0.249156 
10   0.234909 
11   0.149541 
12   0.145381 
13   0.149494 
14   0.143965 
15   0.152511 
16   0.152662 
17   0.151331 
18   0.157499 
19   0.249219 
20   0.286668 
 
$$$$ 
 
