PCCDB-ID:  25657 
public computational chemistry database (PCCDB) project, http://pccdb.org 
 
 13 12  0  0  0  0  0  0  0  0999 V2000 
    0.8667   -0.1294    0.0806 C   0  0  0  0  0  0  0  0  0  0  0  0 
    5.8513    0.5363    1.3078 C   0  0  0  0  0  0  0  0  0  0  0  0 
    2.3598   -0.1724    0.1589 C   0  0  0  0  0  0  0  0  0  0  0  0 
    5.2737   -0.1254    0.4763 C   0  0  0  0  0  0  0  0  0  0  0  0 
    3.1521   -0.9174   -0.6272 C   0  0  0  0  0  0  0  0  0  0  0  0 
    4.6253   -0.9512   -0.5421 C   0  0  0  0  0  0  0  0  0  0  0  0 
    5.3002   -1.6447   -1.2935 O   0  0  0  0  0  0  0  0  0  0  0  0 
    0.5180    0.8927   -0.1192 H   0  0  0  0  0  0  0  0  0  0  0  0 
    0.4193   -0.4284    1.0380 H   0  0  0  0  0  0  0  0  0  0  0  0 
    0.4785   -0.7866   -0.7033 H   0  0  0  0  0  0  0  0  0  0  0  0 
    6.3718    1.1094    2.0425 H   0  0  0  0  0  0  0  0  0  0  0  0 
    2.8259    0.4548    0.9190 H   0  0  0  0  0  0  0  0  0  0  0  0 
    2.7426   -1.5626   -1.4019 H   0  0  0  0  0  0  0  0  0  0  0  0 
  1  3  1  0  0  0  0 
  1  9  1  0  0  0  0 
  2 11  1  0  0  0  0 
  3 12  1  0  0  0  0 
  4  2  3  0  0  0  0 
  5  6  1  0  0  0  0 
  5  3  2  0  0  0  0 
  6  4  1  0  0  0  0 
  7  6  2  0  0  0  0 
  8  1  1  0  0  0  0 
 10  1  1  0  0  0  0 
 13  5  1  0  0  0  0 
M  END 
>  <HBA> 
1 
 
>  <HBD> 
0 
 
>  <TPSA> 
17.07 
 
>  <cid> 
25657 
 
>  <dipole> 
4.01 
 
>  <excitation_energy_1> 
3.563 
 
>  <excitation_energy_2> 
4.764 
 
>  <excitation_energy_3> 
5.067 
 
>  <excitation_energy_4> 
5.53 
 
>  <homo_energy> 
-7.061 
 
>  <homo_lumo_gap> 
5.132 
 
>  <logP> 
0.765 
 
>  <lumo_energy> 
-1.929 
 
>  <melting_point> 
21.97 
 
>  <molecular_refractivity> 
28.84 
 
>  <oscillator_strength_1> 
0.0 
 
>  <oscillator_strength_2> 
0.0001 
 
>  <oscillator_strength_3> 
0.2145 
 
>  <oscillator_strength_4> 
0.1749 
 
>  <open_babel_can_smiles> 
C/C=C/C(=O)C#C 
 
>  <mulliken_charges> 
13 
1   -0.496253 
2   -0.517737 
3   -0.080442 
4   0.354345 
5   -0.150893 
6   0.310441 
7   -0.447984 
8   0.172093 
9   0.172018 
10   0.16835 
11   0.210591 
12   0.157115 
13   0.148357 
 
>  <lowdin_charges> 
13 
1   -0.438499 
2   -0.19974 
3   -0.103455 
4   -0.051935 
5   -0.197666 
6   0.159212 
7   -0.221579 
8   0.167783 
9   0.168501 
10   0.163708 
11   0.214409 
12   0.168764 
13   0.170496 
 
$$$$ 
 
