PCCDB-ID:  69950 
public computational chemistry database (PCCDB) project, http://pccdb.org 
 
 20 19  0  0  0  0  0  0  0  0999 V2000 
    3.1041   -1.1367    0.2802 C   0  0  0  0  0  0  0  0  0  0  0  0 
    2.6687    1.8805   -2.7049 C   0  0  0  0  0  0  0  0  0  0  0  0 
    1.2523    2.4179    1.5859 C   0  0  0  0  0  0  0  0  0  0  0  0 
    2.2269    0.0395   -0.0868 C   0  0  0  0  0  0  0  0  0  0  0  0 
    3.5669    1.5467   -1.5392 C   0  0  0  0  0  0  0  0  0  0  0  0 
    1.9891    2.5730    0.2702 C   0  0  0  0  0  0  0  0  0  0  0  0 
    2.9224    1.4152   -0.1329 C   0  0  0  0  0  0  0  0  0  0  0  0 
    1.0505   -0.0737   -0.3750 O   0  0  0  0  0  0  0  0  0  0  0  0 
    4.7550    1.3223   -1.6591 O   0  0  0  0  0  0  0  0  0  0  0  0 
    1.8852    3.5772   -0.4046 O   0  0  0  0  0  0  0  0  0  0  0  0 
    4.0462   -1.1001   -0.2787 H   0  0  0  0  0  0  0  0  0  0  0  0 
    2.5771   -2.0726    0.0850 H   0  0  0  0  0  0  0  0  0  0  0  0 
    3.3643   -1.0830    1.3456 H   0  0  0  0  0  0  0  0  0  0  0  0 
    1.7121    1.3529   -2.6280 H   0  0  0  0  0  0  0  0  0  0  0  0 
    3.1780    1.6285   -3.6373 H   0  0  0  0  0  0  0  0  0  0  0  0 
    2.4442    2.9514   -2.6793 H   0  0  0  0  0  0  0  0  0  0  0  0 
    1.9098    2.0286    2.3723 H   0  0  0  0  0  0  0  0  0  0  0  0 
    0.4336    1.7013    1.4558 H   0  0  0  0  0  0  0  0  0  0  0  0 
    0.8416    3.3837    1.8866 H   0  0  0  0  0  0  0  0  0  0  0  0 
    3.7630    1.4054    0.5723 H   0  0  0  0  0  0  0  0  0  0  0  0 
  1 13  1  0  0  0  0 
  2 16  1  0  0  0  0 
  2 14  1  0  0  0  0 
  2  5  1  0  0  0  0 
  3 19  1  0  0  0  0 
  3 17  1  0  0  0  0 
  4  1  1  0  0  0  0 
  5  7  1  0  0  0  0 
  6  3  1  0  0  0  0 
  7  4  1  0  0  0  0 
  7  6  1  0  0  0  0 
  7 20  1  0  0  0  0 
  8  4  2  0  0  0  0 
  9  5  2  0  0  0  0 
 10  6  2  0  0  0  0 
 11  1  1  0  0  0  0 
 12  1  1  0  0  0  0 
 15  2  1  0  0  0  0 
 18  3  1  0  0  0  0 
M  END 
>  <HBA> 
3 
 
>  <HBD> 
0 
 
>  <TPSA> 
51.21 
 
>  <cid> 
69950 
 
>  <dipole> 
2.74 
 
>  <excitation_energy_1> 
3.958 
 
>  <excitation_energy_2> 
4.117 
 
>  <excitation_energy_3> 
4.353 
 
>  <excitation_energy_4> 
4.789 
 
>  <homo_energy> 
-6.931 
 
>  <homo_lumo_gap> 
5.298 
 
>  <logP> 
0.37 
 
>  <lumo_energy> 
-1.633 
 
>  <melting_point> 
36.95 
 
>  <molecular_refractivity> 
36.36 
 
>  <oscillator_strength_1> 
0.009 
 
>  <oscillator_strength_2> 
0.0036 
 
>  <oscillator_strength_3> 
0.0002 
 
>  <oscillator_strength_4> 
0.0072 
 
>  <open_babel_can_smiles> 
CC(=O)C(C(=O)C)C(=O)C 
 
>  <mulliken_charges> 
20 
1   -0.531359 
2   -0.535602 
3   -0.542301 
4   0.436674 
5   0.465794 
6   0.485235 
7   -0.356135 
8   -0.430502 
9   -0.430484 
10   -0.431115 
11   0.196653 
12   0.186529 
13   0.178378 
14   0.182144 
15   0.174647 
16   0.214376 
17   0.161903 
18   0.206063 
19   0.185785 
20   0.183318 
 
>  <lowdin_charges> 
20 
1   -0.470093 
2   -0.475247 
3   -0.478123 
4   0.1667 
5   0.178176 
6   0.181108 
7   -0.224378 
8   -0.228949 
9   -0.225871 
10   -0.220845 
11   0.183769 
12   0.176962 
13   0.175677 
14   0.176771 
15   0.172527 
16   0.194623 
17   0.166161 
18   0.19022 
19   0.177538 
20   0.183276 
 
$$$$ 
 
