PCCDB-ID:  44856 
public computational chemistry database (PCCDB) project, http://pccdb.org 
 
 35 35  0  0  1  0  0  0  0  0999 V2000 
    1.6482   -0.0893   -0.5078 C   0  0  0  0  0  0  0  0  0  0  0  0 
   -0.3884   -0.6182    3.6338 C   0  0  0  0  0  0  0  0  0  0  0  0 
    4.9789    0.4509   -2.4788 C   0  0  0  0  0  0  0  0  0  0  0  0 
    5.9468    0.3333   -1.2914 C   0  0  0  0  0  0  0  0  0  0  0  0 
    4.2851    0.3580    2.6169 C   0  0  0  0  0  0  0  0  0  0  0  0 
    3.5482    0.7484   -1.9996 C   0  0  0  0  0  0  0  0  0  0  0  0 
    3.2768   -0.6707    3.1350 C   0  0  0  0  0  0  0  0  0  0  0  0 
    5.3959   -0.6418   -0.2325 C   0  0  0  0  0  0  0  0  0  0  0  0 
    4.0028    0.8060    1.1714 C   0  0  0  0  0  0  0  0  0  0  0  0 
    3.1108   -0.2691   -0.9235 C   0  0  1  0  0  0  0  0  0  0  0  0 
    1.8917   -0.0890    3.3415 C   0  0  0  0  0  0  0  0  0  0  0  0 
    4.0389   -0.3180    0.2264 N   0  0  0  0  0  0  0  0  0  0  0  0 
    1.6259    1.0885    3.4672 O   0  0  0  0  0  0  0  0  0  0  0  0 
    0.9547   -1.0659    3.3898 O   0  0  0  0  0  0  0  0  0  0  0  0 
    0.9958   -0.3060   -1.3612 H   0  0  0  0  0  0  0  0  0  0  0  0 
    1.4238    0.9324   -0.1824 H   0  0  0  0  0  0  0  0  0  0  0  0 
    1.3873   -0.7758    0.3050 H   0  0  0  0  0  0  0  0  0  0  0  0 
   -0.4537   -0.0995    4.5942 H   0  0  0  0  0  0  0  0  0  0  0  0 
   -1.0007   -1.5206    3.6435 H   0  0  0  0  0  0  0  0  0  0  0  0 
   -0.7172    0.0608    2.8426 H   0  0  0  0  0  0  0  0  0  0  0  0 
    4.9754   -0.4985   -3.0355 H   0  0  0  0  0  0  0  0  0  0  0  0 
    5.3209    1.2217   -3.1809 H   0  0  0  0  0  0  0  0  0  0  0  0 
    6.0955    1.3239   -0.8400 H   0  0  0  0  0  0  0  0  0  0  0  0 
    6.9349   -0.0064   -1.6288 H   0  0  0  0  0  0  0  0  0  0  0  0 
    5.2913   -0.0736    2.6868 H   0  0  0  0  0  0  0  0  0  0  0  0 
    4.2716    1.2439    3.2620 H   0  0  0  0  0  0  0  0  0  0  0  0 
    2.8512    0.7174   -2.8480 H   0  0  0  0  0  0  0  0  0  0  0  0 
    3.4922    1.7648   -1.5832 H   0  0  0  0  0  0  0  0  0  0  0  0 
    3.5999   -1.0778    4.1032 H   0  0  0  0  0  0  0  0  0  0  0  0 
    3.2074   -1.5170    2.4455 H   0  0  0  0  0  0  0  0  0  0  0  0 
    6.0627   -0.6808    0.6363 H   0  0  0  0  0  0  0  0  0  0  0  0 
    5.3745   -1.6569   -0.6558 H   0  0  0  0  0  0  0  0  0  0  0  0 
    4.7126    1.6080    0.9058 H   0  0  0  0  0  0  0  0  0  0  0  0 
    3.0114    1.2633    1.1498 H   0  0  0  0  0  0  0  0  0  0  0  0 
    3.1888   -1.2691   -1.3797 H   0  0  0  0  0  0  0  0  0  0  0  0 
  1 16  1  0  0  0  0 
  1 17  1  0  0  0  0 
  2 19  1  0  0  0  0 
  2 18  1  0  0  0  0 
  3  6  1  0  0  0  0 
  3  4  1  0  0  0  0 
  4 23  1  0  0  0  0 
  4  8  1  0  0  0  0 
  5 25  1  0  0  0  0 
  5  7  1  0  0  0  0 
  5 26  1  0  0  0  0 
  6 28  1  0  0  0  0 
  6 10  1  0  0  0  0 
  7 11  1  0  0  0  0 
  7 29  1  0  0  0  0 
  8 12  1  0  0  0  0 
  8 31  1  0  0  0  0 
  9  5  1  0  0  0  0 
 10 35  1  6  0  0  0 
 10  1  1  0  0  0  0 
 10 12  1  0  0  0  0 
 11 14  1  0  0  0  0 
 11 13  2  0  0  0  0 
 12  9  1  0  0  0  0 
 14  2  1  0  0  0  0 
 15  1  1  0  0  0  0 
 20  2  1  0  0  0  0 
 21  3  1  0  0  0  0 
 22  3  1  0  0  0  0 
 24  4  1  0  0  0  0 
 27  6  1  0  0  0  0 
 30  7  1  0  0  0  0 
 32  8  1  0  0  0  0 
 33  9  1  0  0  0  0 
 34  9  1  0  0  0  0 
M  END 
>  <HBA> 
3 
 
>  <HBD> 
0 
 
>  <TPSA> 
29.54 
 
>  <cid> 
44856 
 
>  <dipole> 
1.23 
 
>  <excitation_energy_1> 
4.778 
 
>  <excitation_energy_2> 
4.868 
 
>  <excitation_energy_3> 
5.099 
 
>  <excitation_energy_4> 
5.232 
 
>  <homo_energy> 
-5.333 
 
>  <homo_lumo_gap> 
5.815 
 
>  <logP> 
1.752 
 
>  <lumo_energy> 
0.482 
 
>  <melting_point> 
7.77 
 
>  <molecular_refractivity> 
60.97 
 
>  <oscillator_strength_1> 
0.0102 
 
>  <oscillator_strength_2> 
0.0118 
 
>  <oscillator_strength_3> 
0.003 
 
>  <oscillator_strength_4> 
0.0014 
 
>  <open_babel_can_smiles> 
COC(=O)CCCN1CCCC[C@@H]1C 
 
>  <mulliken_charges> 
35 
1   -0.472324 
2   -0.217202 
3   -0.263028 
4   -0.26576 
5   -0.255578 
6   -0.257528 
7   -0.353676 
8   -0.144978 
9   -0.150679 
10   0.047493 
11   0.62308 
12   -0.384541 
13   -0.485925 
14   -0.453988 
15   0.142632 
16   0.151272 
17   0.15644 
18   0.167623 
19   0.162385 
20   0.169039 
21   0.126475 
22   0.131675 
23   0.135609 
24   0.128903 
25   0.13135 
26   0.151001 
27   0.126488 
28   0.131019 
29   0.166938 
30   0.185744 
31   0.135718 
32   0.132518 
33   0.119749 
34   0.161273 
35   0.120782 
 
>  <lowdin_charges> 
35 
1   -0.454437 
2   -0.27968 
3   -0.279409 
4   -0.293641 
5   -0.278439 
6   -0.293488 
7   -0.304686 
8   -0.206538 
9   -0.209331 
10   -0.059205 
11   0.194963 
12   -0.194107 
13   -0.271962 
14   -0.194544 
15   0.153646 
16   0.149527 
17   0.156562 
18   0.157428 
19   0.159823 
20   0.159442 
21   0.136439 
22   0.144424 
23   0.139757 
24   0.144258 
25   0.142335 
26   0.155747 
27   0.143674 
28   0.139233 
29   0.169221 
30   0.174297 
31   0.144101 
32   0.137711 
33   0.126798 
34   0.155815 
35   0.134266 
 
$$$$ 
 
