PCCDB-ID:  38704 
public computational chemistry database (PCCDB) project, http://pccdb.org 
 
 30 29  0  0  1  0  0  0  0  0999 V2000 
    3.0120   -0.8723    0.6325 C   0  0  0  0  0  0  0  0  0  0  0  0 
    6.5313    1.0434    6.9616 C   0  0  0  0  0  0  0  0  0  0  0  0 
    4.3223   -0.5533   -0.0982 C   0  0  0  0  0  0  0  0  0  0  0  0 
    5.1154    0.6225    0.4949 C   0  0  0  0  0  0  0  0  0  0  0  0 
    5.5668    1.8831    4.7575 C   0  0  0  0  0  0  0  0  0  0  0  0 
    5.6811    0.3329    1.8941 C   0  0  0  0  0  0  0  0  0  0  0  0 
    5.9108    2.4235    3.3576 C   0  0  0  0  0  0  0  0  0  0  0  0 
    6.7049    1.1059    5.4430 C   0  0  2  0  0  0  0  0  0  0  0  0 
    7.7491    1.6161    2.1068 N   0  0  0  0  0  0  0  0  0  0  0  0 
    6.4586    1.4504    2.4257 N   0  0  0  0  0  0  0  0  0  0  0  0 
    6.8402   -0.2082    4.8921 O   0  0  0  0  0  0  0  0  0  0  0  0 
    8.2019    0.7897    1.3169 O   0  0  0  0  0  0  0  0  0  0  0  0 
    2.4697   -1.6818    0.1310 H   0  0  0  0  0  0  0  0  0  0  0  0 
    2.3512    0.0035    0.6582 H   0  0  0  0  0  0  0  0  0  0  0  0 
    3.1828   -1.1897    1.6679 H   0  0  0  0  0  0  0  0  0  0  0  0 
    6.5538    2.0430    7.4103 H   0  0  0  0  0  0  0  0  0  0  0  0 
    7.3314    0.4443    7.4074 H   0  0  0  0  0  0  0  0  0  0  0  0 
    5.5689    0.5830    7.2267 H   0  0  0  0  0  0  0  0  0  0  0  0 
    4.0970   -0.3224   -1.1473 H   0  0  0  0  0  0  0  0  0  0  0  0 
    4.9618   -1.4468   -0.1158 H   0  0  0  0  0  0  0  0  0  0  0  0 
    4.4750    1.5154    0.5371 H   0  0  0  0  0  0  0  0  0  0  0  0 
    5.9576    0.8637   -0.1620 H   0  0  0  0  0  0  0  0  0  0  0  0 
    4.6770    1.2384    4.7191 H   0  0  0  0  0  0  0  0  0  0  0  0 
    5.2841    2.7507    5.3692 H   0  0  0  0  0  0  0  0  0  0  0  0 
    6.3541   -0.5288    1.8598 H   0  0  0  0  0  0  0  0  0  0  0  0 
    4.8866    0.1192    2.6135 H   0  0  0  0  0  0  0  0  0  0  0  0 
    6.6773    3.2001    3.4409 H   0  0  0  0  0  0  0  0  0  0  0  0 
    5.0188    2.8854    2.9128 H   0  0  0  0  0  0  0  0  0  0  0  0 
    7.6598    1.5919    5.2100 H   0  0  0  0  0  0  0  0  0  0  0  0 
    6.0893   -0.7332    5.2141 H   0  0  0  0  0  0  0  0  0  0  0  0 
  1 14  1  0  0  0  0 
  1 15  1  0  0  0  0 
  2 18  1  0  0  0  0 
  2 17  1  0  0  0  0 
  2 16  1  0  0  0  0 
  3  4  1  0  0  0  0 
  3  1  1  0  0  0  0 
  4 21  1  0  0  0  0 
  4  6  1  0  0  0  0 
  5 24  1  0  0  0  0 
  5  8  1  0  0  0  0 
  6 10  1  0  0  0  0 
  6 26  1  0  0  0  0 
  7 27  1  0  0  0  0 
  7  5  1  0  0  0  0 
  8 29  1  6  0  0  0 
  8  2  1  0  0  0  0 
  9 10  1  0  0  0  0 
 10  7  1  0  0  0  0 
 11 30  1  0  0  0  0 
 11  8  1  0  0  0  0 
 12  9  2  0  0  0  0 
 13  1  1  0  0  0  0 
 19  3  1  0  0  0  0 
 20  3  1  0  0  0  0 
 22  4  1  0  0  0  0 
 23  5  1  0  0  0  0 
 25  6  1  0  0  0  0 
 28  7  1  0  0  0  0 
M  END 
>  <HBA> 
4 
 
>  <HBD> 
1 
 
>  <TPSA> 
52.9 
 
>  <cid> 
38704 
 
>  <dipole> 
5.38 
 
>  <excitation_energy_1> 
3.412 
 
>  <excitation_energy_2> 
5.3 
 
>  <excitation_energy_3> 
5.607 
 
>  <excitation_energy_4> 
5.703 
 
>  <homo_energy> 
-5.739 
 
>  <homo_lumo_gap> 
5.26 
 
>  <logP> 
1.541 
 
>  <lumo_energy> 
-0.479 
 
>  <melting_point> 
12.41 
 
>  <molecular_refractivity> 
49.37 
 
>  <oscillator_strength_1> 
0.0013 
 
>  <oscillator_strength_2> 
0.0017 
 
>  <oscillator_strength_3> 
0.0377 
 
>  <oscillator_strength_4> 
0.0811 
 
>  <open_babel_can_smiles> 
CCCCN(CC[C@H](O)C)N=O 
 
>  <mulliken_charges> 
30 
1   -0.446226 
2   -0.468358 
3   -0.25505 
4   -0.260373 
5   -0.272197 
6   -0.140733 
7   -0.150513 
8   0.135359 
9   0.147676 
10   -0.199935 
11   -0.611224 
12   -0.390182 
13   0.147796 
14   0.141017 
15   0.140384 
16   0.14851 
17   0.165813 
18   0.132882 
19   0.139112 
20   0.141329 
21   0.126752 
22   0.166856 
23   0.129602 
24   0.142581 
25   0.186206 
26   0.14006 
27   0.175339 
28   0.151631 
29   0.155173 
30   0.380714 
 
>  <lowdin_charges> 
30 
1   -0.44817 
2   -0.461615 
3   -0.271935 
4   -0.284531 
5   -0.302572 
6   -0.218409 
7   -0.204951 
8   0.00154 
9   0.048244 
10   -0.030706 
11   -0.460744 
12   -0.280241 
13   0.153749 
14   0.146143 
15   0.142481 
16   0.155101 
17   0.162776 
18   0.143406 
19   0.145594 
20   0.14509 
21   0.137655 
22   0.16125 
23   0.140574 
24   0.154958 
25   0.172149 
26   0.148849 
27   0.166437 
28   0.149748 
29   0.151038 
30   0.337091 
 
$$$$ 
 
