PCCDB-ID:  51063 
public computational chemistry database (PCCDB) project, http://pccdb.org 
 
 39 40  0  0  0  0  0  0  0  0999 V2000 
    1.0582    2.9018    0.8050 C   0  0  0  0  0  0  0  0  0  0  0  0 
    2.1951   -0.6250   -0.2909 C   0  0  0  0  0  0  0  0  0  0  0  0 
    7.7670    0.9466    2.9506 C   0  0  0  0  0  0  0  0  0  0  0  0 
    2.3873    2.4649    0.1853 C   0  0  0  0  0  0  0  0  0  0  0  0 
    2.3815    0.1447    1.0289 C   0  0  0  0  0  0  0  0  0  0  0  0 
    8.8655    3.6732   -2.4023 C   0  0  0  0  0  0  0  0  0  0  0  0 
    7.4637    3.9234   -2.3212 C   0  0  0  0  0  0  0  0  0  0  0  0 
    9.4902    2.9802   -1.3956 C   0  0  0  0  0  0  0  0  0  0  0  0 
    5.3800    2.3704    1.2705 C   0  0  0  0  0  0  0  0  0  0  0  0 
    6.7434    3.4758   -1.2520 C   0  0  0  0  0  0  0  0  0  0  0  0 
    4.4932    1.3057    0.5828 C   0  0  0  0  0  0  0  0  0  0  0  0 
    9.0684    1.8152    0.8822 C   0  0  0  0  0  0  0  0  0  0  0  0 
    7.8817    1.6576    1.6317 C   0  0  0  0  0  0  0  0  0  0  0  0 
    8.7559    2.5132   -0.2795 C   0  0  0  0  0  0  0  0  0  0  0  0 
    6.8344    2.2611    0.9317 C   0  0  0  0  0  0  0  0  0  0  0  0 
    3.0827    1.4320    0.9574 N   0  0  0  0  0  0  0  0  0  0  0  0 
    7.3642    2.7810   -0.2363 N   0  0  0  0  0  0  0  0  0  0  0  0 
    0.6564    3.7644    0.2616 H   0  0  0  0  0  0  0  0  0  0  0  0 
    1.2013    3.1866    1.8528 H   0  0  0  0  0  0  0  0  0  0  0  0 
    0.3008    2.1117    0.7666 H   0  0  0  0  0  0  0  0  0  0  0  0 
    1.6841   -1.5765   -0.1021 H   0  0  0  0  0  0  0  0  0  0  0  0 
    3.1569   -0.8518   -0.7649 H   0  0  0  0  0  0  0  0  0  0  0  0 
    1.5900   -0.0639   -1.0117 H   0  0  0  0  0  0  0  0  0  0  0  0 
    8.7055    1.0131    3.5112 H   0  0  0  0  0  0  0  0  0  0  0  0 
    7.5423   -0.1211    2.8227 H   0  0  0  0  0  0  0  0  0  0  0  0 
    6.9749    1.3702    3.5781 H   0  0  0  0  0  0  0  0  0  0  0  0 
    3.0471    3.3392    0.1470 H   0  0  0  0  0  0  0  0  0  0  0  0 
    2.2239    2.1627   -0.8675 H   0  0  0  0  0  0  0  0  0  0  0  0 
    2.9382   -0.4838    1.7352 H   0  0  0  0  0  0  0  0  0  0  0  0 
    1.4016    0.3171    1.4885 H   0  0  0  0  0  0  0  0  0  0  0  0 
    9.4289    4.0300   -3.2587 H   0  0  0  0  0  0  0  0  0  0  0  0 
    6.9509    4.4658   -3.1082 H   0  0  0  0  0  0  0  0  0  0  0  0 
   10.5559    2.7740   -1.4294 H   0  0  0  0  0  0  0  0  0  0  0  0 
    5.2539    2.2589    2.3524 H   0  0  0  0  0  0  0  0  0  0  0  0 
    5.0094    3.3770    1.0309 H   0  0  0  0  0  0  0  0  0  0  0  0 
    5.6770    3.6290   -1.1464 H   0  0  0  0  0  0  0  0  0  0  0  0 
    4.8484    0.3203    0.9034 H   0  0  0  0  0  0  0  0  0  0  0  0 
    4.6441    1.3433   -0.5122 H   0  0  0  0  0  0  0  0  0  0  0  0 
   10.0553    1.4681    1.1585 H   0  0  0  0  0  0  0  0  0  0  0  0 
  1 19  1  0  0  0  0 
  2 21  1  0  0  0  0 
  2  5  1  0  0  0  0 
  3 24  1  0  0  0  0 
  3 26  1  0  0  0  0 
  4  1  1  0  0  0  0 
  4 16  1  0  0  0  0 
  5 30  1  0  0  0  0 
  5 29  1  0  0  0  0 
  6  7  1  0  0  0  0 
  6  8  2  0  0  0  0 
  7 10  2  0  0  0  0 
  8 14  1  0  0  0  0 
  9 34  1  0  0  0  0 
 10 36  1  0  0  0  0 
 10 17  1  0  0  0  0 
 11 37  1  0  0  0  0 
 11 16  1  0  0  0  0 
 11  9  1  0  0  0  0 
 12 39  1  0  0  0  0 
 12 13  1  0  0  0  0 
 13  3  1  0  0  0  0 
 14 17  1  0  0  0  0 
 14 12  2  0  0  0  0 
 15  9  1  0  0  0  0 
 15 13  2  0  0  0  0 
 16  5  1  0  0  0  0 
 17 15  1  0  0  0  0 
 18  1  1  0  0  0  0 
 20  1  1  0  0  0  0 
 22  2  1  0  0  0  0 
 23  2  1  0  0  0  0 
 25  3  1  0  0  0  0 
 27  4  1  0  0  0  0 
 28  4  1  0  0  0  0 
 31  6  1  0  0  0  0 
 32  7  1  0  0  0  0 
 33  8  1  0  0  0  0 
 35  9  1  0  0  0  0 
 38 11  1  0  0  0  0 
M  END 
>  <HBA> 
2 
 
>  <HBD> 
0 
 
>  <TPSA> 
7.65 
 
>  <cid> 
51063 
 
>  <dipole> 
1.31 
 
>  <excitation_energy_1> 
3.554 
 
>  <excitation_energy_2> 
4.276 
 
>  <excitation_energy_3> 
4.447 
 
>  <excitation_energy_4> 
4.529 
 
>  <homo_energy> 
-4.71 
 
>  <homo_lumo_gap> 
4.321 
 
>  <logP> 
3.132 
 
>  <lumo_energy> 
-0.389 
 
>  <melting_point> 
49.87 
 
>  <molecular_refractivity> 
74.26 
 
>  <oscillator_strength_1> 
0.0377 
 
>  <oscillator_strength_2> 
0.0104 
 
>  <oscillator_strength_3> 
0.0047 
 
>  <oscillator_strength_4> 
0.0018 
 
>  <open_babel_can_smiles> 
CCN(CCc1c(C)cc2n1cccc2)CC 
 
>  <mulliken_charges> 
39 
1   -0.452098 
2   -0.458116 
3   -0.535429 
4   -0.117547 
5   -0.137848 
6   -0.127604 
7   -0.18735 
8   -0.192482 
9   -0.348271 
10   0.067484 
11   -0.125179 
12   -0.270203 
13   0.066304 
14   0.350651 
15   0.273399 
16   -0.374511 
17   -0.557354 
18   0.141772 
19   0.156273 
20   0.147934 
21   0.1427 
22   0.150449 
23   0.148274 
24   0.15654 
25   0.158745 
26   0.154831 
27   0.134734 
28   0.114151 
29   0.138649 
30   0.14168 
31   0.12932 
32   0.13365 
33   0.136823 
34   0.158396 
35   0.142762 
36   0.156722 
37   0.142026 
38   0.122122 
39   0.117601 
 
>  <lowdin_charges> 
39 
1   -0.450869 
2   -0.467592 
3   -0.439703 
4   -0.197334 
5   -0.204847 
6   -0.179308 
7   -0.191037 
8   -0.15871 
9   -0.280855 
10   -0.11351 
11   -0.199199 
12   -0.246783 
13   -0.032601 
14   0.027171 
15   -0.032771 
16   -0.192597 
17   0.046155 
18   0.153064 
19   0.153969 
20   0.148969 
21   0.152876 
22   0.150457 
23   0.150294 
24   0.159051 
25   0.155936 
26   0.156863 
27   0.141439 
28   0.115405 
29   0.144434 
30   0.14359 
31   0.160136 
32   0.165405 
33   0.163673 
34   0.160311 
35   0.146131 
36   0.165621 
37   0.148046 
38   0.120734 
39   0.157989 
 
$$$$ 
 
