PCCDB-ID:  21052 
public computational chemistry database (PCCDB) project, http://pccdb.org 
 
 29 30  0  0  0  0  0  0  0  0999 V2000 
    0.4526   -0.4874    0.0383 C   0  0  0  0  0  0  0  0  0  0  0  0 
    3.3761    5.8292    1.3288 C   0  0  0  0  0  0  0  0  0  0  0  0 
    4.2905    5.7359    0.2750 C   0  0  0  0  0  0  0  0  0  0  0  0 
    2.9321    4.6709    1.9679 C   0  0  0  0  0  0  0  0  0  0  0  0 
    4.7556    4.4900   -0.1355 C   0  0  0  0  0  0  0  0  0  0  0  0 
    3.3832    3.4199    1.5435 C   0  0  0  0  0  0  0  0  0  0  0  0 
    4.7737   -0.4712    0.0965 C   0  0  0  0  0  0  0  0  0  0  0  0 
    4.0880   -1.6733    0.1088 C   0  0  0  0  0  0  0  0  0  0  0  0 
    2.6773    0.7149    0.0720 C   0  0  0  0  0  0  0  0  0  0  0  0 
    1.9617   -0.4808    0.0673 C   0  0  0  0  0  0  0  0  0  0  0  0 
    4.2935    3.3164    0.4809 C   0  0  0  0  0  0  0  0  0  0  0  0 
    4.0816    0.7518    0.0940 C   0  0  0  0  0  0  0  0  0  0  0  0 
    2.6801   -1.6999    0.0940 C   0  0  0  0  0  0  0  0  0  0  0  0 
    4.8788    2.0080    0.0235 C   0  0  0  0  0  0  0  0  0  0  0  0 
    2.0043   -2.9130    0.1549 N   0  0  0  0  0  0  0  0  0  0  0  0 
    6.0289    1.9893   -0.4100 O   0  0  0  0  0  0  0  0  0  0  0  0 
    0.0563    0.5317    0.0579 H   0  0  0  0  0  0  0  0  0  0  0  0 
    0.0334   -1.0281    0.8975 H   0  0  0  0  0  0  0  0  0  0  0  0 
    0.0573   -0.9694   -0.8689 H   0  0  0  0  0  0  0  0  0  0  0  0 
    3.0183    6.8023    1.6549 H   0  0  0  0  0  0  0  0  0  0  0  0 
    4.6446    6.6367   -0.2192 H   0  0  0  0  0  0  0  0  0  0  0  0 
    2.2376    4.7397    2.8010 H   0  0  0  0  0  0  0  0  0  0  0  0 
    5.4843    4.4003   -0.9348 H   0  0  0  0  0  0  0  0  0  0  0  0 
    3.0486    2.5244    2.0575 H   0  0  0  0  0  0  0  0  0  0  0  0 
    5.8586   -0.4519    0.0853 H   0  0  0  0  0  0  0  0  0  0  0  0 
    4.6352   -2.6137    0.1270 H   0  0  0  0  0  0  0  0  0  0  0  0 
    2.1189    1.6454    0.0295 H   0  0  0  0  0  0  0  0  0  0  0  0 
    2.5455   -3.7280   -0.1033 H   0  0  0  0  0  0  0  0  0  0  0  0 
    1.0717   -2.9303   -0.2355 H   0  0  0  0  0  0  0  0  0  0  0  0 
  1 17  1  0  0  0  0 
  1 10  1  0  0  0  0 
  1 18  1  0  0  0  0 
  2 20  1  0  0  0  0 
  2  4  2  0  0  0  0 
  3  2  1  0  0  0  0 
  4 22  1  0  0  0  0 
  5  3  2  0  0  0  0 
  5 11  1  0  0  0  0 
  6  4  1  0  0  0  0 
  6 24  1  0  0  0  0 
  7  8  1  0  0  0  0 
  8 26  1  0  0  0  0 
  9 12  1  0  0  0  0 
 10  9  2  0  0  0  0 
 10 13  1  0  0  0  0 
 11  6  2  0  0  0  0 
 12  7  2  0  0  0  0 
 13  8  2  0  0  0  0 
 13 15  1  0  0  0  0 
 14 12  1  0  0  0  0 
 14 11  1  0  0  0  0 
 16 14  2  0  0  0  0 
 19  1  1  0  0  0  0 
 21  3  1  0  0  0  0 
 23  5  1  0  0  0  0 
 25  7  1  0  0  0  0 
 27  9  1  0  0  0  0 
 28 15  1  0  0  0  0 
 29 15  1  0  0  0  0 
M  END 
>  <HBA> 
2 
 
>  <HBD> 
1 
 
>  <TPSA> 
43.09 
 
>  <cid> 
21052 
 
>  <dipole> 
4.51 
 
>  <excitation_energy_1> 
3.615 
 
>  <excitation_energy_2> 
3.931 
 
>  <excitation_energy_3> 
4.481 
 
>  <excitation_energy_4> 
4.679 
 
>  <homo_energy> 
-5.665 
 
>  <homo_lumo_gap> 
4.343 
 
>  <logP> 
3.389 
 
>  <lumo_energy> 
-1.322 
 
>  <melting_point> 
118.75 
 
>  <molecular_refractivity> 
65.69 
 
>  <oscillator_strength_1> 
0.0121 
 
>  <oscillator_strength_2> 
0.2752 
 
>  <oscillator_strength_3> 
0.0005 
 
>  <oscillator_strength_4> 
0.0156 
 
>  <open_babel_can_smiles> 
O=C(c1ccc(c(c1)C)N)c1ccccc1 
 
>  <mulliken_charges> 
29 
1   -0.556103 
2   -0.120986 
3   -0.136009 
4   -0.137596 
5   -0.151267 
6   -0.177013 
7   -0.166501 
8   -0.174795 
9   -0.263031 
10   0.163358 
11   0.074339 
12   0.08126 
13   0.26516 
14   0.312432 
15   -0.794054 
16   -0.479878 
17   0.165565 
18   0.16738 
19   0.151301 
20   0.132804 
21   0.134192 
22   0.131999 
23   0.155737 
24   0.146648 
25   0.156473 
26   0.122261 
27   0.139636 
28   0.327186 
29   0.3295 
 
>  <lowdin_charges> 
29 
1   -0.446653 
2   -0.146396 
3   -0.157751 
4   -0.159343 
5   -0.131722 
6   -0.155644 
7   -0.119954 
8   -0.198842 
9   -0.152652 
10   -0.042432 
11   -0.038837 
12   -0.070981 
13   0.065002 
14   0.149696 
15   -0.475824 
16   -0.261691 
17   0.163175 
18   0.160773 
19   0.151558 
20   0.158926 
21   0.160333 
22   0.158775 
23   0.173168 
24   0.166063 
25   0.172377 
26   0.154683 
27   0.163402 
28   0.28066 
29   0.280133 
 
$$$$ 
 
