PCCDB-ID:  69320 
public computational chemistry database (PCCDB) project, http://pccdb.org 
 
 20 20  0  0  0  0  0  0  0  0999 V2000 
    1.3625    0.2801   -0.2076 C   0  0  0  0  0  0  0  0  0  0  0  0 
    2.8914    0.2056   -0.2432 C   0  0  0  0  0  0  0  0  0  0  0  0 
    7.1815   -0.7396    1.4606 C   0  0  0  0  0  0  0  0  0  0  0  0 
    7.6845   -1.2459    0.2637 C   0  0  0  0  0  0  0  0  0  0  0  0 
    3.4556   -0.9070    0.6614 C   0  0  0  0  0  0  0  0  0  0  0  0 
    5.8007   -0.6282    1.6139 C   0  0  0  0  0  0  0  0  0  0  0  0 
    6.7711   -1.6168   -0.7244 C   0  0  0  0  0  0  0  0  0  0  0  0 
    4.9598   -1.0266    0.5662 C   0  0  0  0  0  0  0  0  0  0  0  0 
    5.4451   -1.5153   -0.5896 N   0  0  0  0  0  0  0  0  0  0  0  0 
    0.9894    1.0803   -0.8569 H   0  0  0  0  0  0  0  0  0  0  0  0 
    0.9951    0.4770    0.8074 H   0  0  0  0  0  0  0  0  0  0  0  0 
    0.9122   -0.6612   -0.5459 H   0  0  0  0  0  0  0  0  0  0  0  0 
    3.3181    1.1708    0.0622 H   0  0  0  0  0  0  0  0  0  0  0  0 
    3.2372    0.0220   -1.2674 H   0  0  0  0  0  0  0  0  0  0  0  0 
    7.8513   -0.4375    2.2618 H   0  0  0  0  0  0  0  0  0  0  0  0 
    8.7521   -1.3537    0.0965 H   0  0  0  0  0  0  0  0  0  0  0  0 
    3.0106   -1.8646    0.3619 H   0  0  0  0  0  0  0  0  0  0  0  0 
    3.1610   -0.7239    1.7029 H   0  0  0  0  0  0  0  0  0  0  0  0 
    5.3738   -0.2391    2.5342 H   0  0  0  0  0  0  0  0  0  0  0  0 
    7.1229   -2.0196   -1.6735 H   0  0  0  0  0  0  0  0  0  0  0  0 
  1 11  1  0  0  0  0 
  2  1  1  0  0  0  0 
  2 13  1  0  0  0  0 
  2  5  1  0  0  0  0 
  3  6  1  0  0  0  0 
  3 15  1  0  0  0  0 
  4  3  2  0  0  0  0 
  5 18  1  0  0  0  0 
  6 19  1  0  0  0  0 
  7  9  2  0  0  0  0 
  7  4  1  0  0  0  0 
  8  5  1  0  0  0  0 
  8  6  2  0  0  0  0 
  9  8  1  0  0  0  0 
 10  1  1  0  0  0  0 
 12  1  1  0  0  0  0 
 14  2  1  0  0  0  0 
 16  4  1  0  0  0  0 
 17  5  1  0  0  0  0 
 20  7  1  0  0  0  0 
M  END 
>  <HBA> 
1 
 
>  <HBD> 
0 
 
>  <TPSA> 
12.89 
 
>  <cid> 
69320 
 
>  <dipole> 
1.74 
 
>  <excitation_energy_1> 
4.828 
 
>  <excitation_energy_2> 
5.177 
 
>  <excitation_energy_3> 
5.348 
 
>  <excitation_energy_4> 
6.11 
 
>  <homo_energy> 
-6.732 
 
>  <homo_lumo_gap> 
6.202 
 
>  <logP> 
2.034 
 
>  <lumo_energy> 
-0.531 
 
>  <melting_point> 
21.33 
 
>  <molecular_refractivity> 
38.82 
 
>  <oscillator_strength_1> 
0.0044 
 
>  <oscillator_strength_2> 
0.0003 
 
>  <oscillator_strength_3> 
0.0633 
 
>  <oscillator_strength_4> 
0.0752 
 
>  <open_babel_can_smiles> 
CCCc1ccccn1 
 
>  <mulliken_charges> 
20 
1   -0.442618 
2   -0.248884 
3   -0.101211 
4   -0.143483 
5   -0.311158 
6   -0.173055 
7   0.037157 
8   0.298875 
9   -0.462813 
10   0.144126 
11   0.139355 
12   0.14464 
13   0.130795 
14   0.158703 
15   0.140388 
16   0.135067 
17   0.153829 
18   0.130791 
19   0.131498 
20   0.138 
 
>  <lowdin_charges> 
20 
1   -0.445191 
2   -0.268007 
3   -0.129297 
4   -0.180681 
5   -0.275692 
6   -0.18535 
7   -0.087398 
8   0.055752 
9   -0.159643 
10   0.151783 
11   0.144314 
12   0.148083 
13   0.139736 
14   0.152178 
15   0.162999 
16   0.161276 
17   0.157815 
18   0.141608 
19   0.160891 
20   0.154824 
 
$$$$ 
 
