PCCDB-ID:  11849 
public computational chemistry database (PCCDB) project, http://pccdb.org 
 
 25 25  0  0  0  0  0  0  0  0999 V2000 
    0.9144    0.0321    0.1776 C   0  0  0  0  0  0  0  0  0  0  0  0 
    5.2559    2.5545    0.2845 C   0  0  0  0  0  0  0  0  0  0  0  0 
    5.3282   -2.5521   -0.0305 C   0  0  0  0  0  0  0  0  0  0  0  0 
    3.1494    1.1831    0.2016 C   0  0  0  0  0  0  0  0  0  0  0  0 
    2.4232   -0.0085    0.1533 C   0  0  0  0  0  0  0  0  0  0  0  0 
    4.5450    1.2252    0.2054 C   0  0  0  0  0  0  0  0  0  0  0  0 
    4.5664   -1.2469    0.0331 C   0  0  0  0  0  0  0  0  0  0  0  0 
    3.1639   -1.1970    0.0654 C   0  0  0  0  0  0  0  0  0  0  0  0 
    5.2144   -0.0046    0.1158 C   0  0  0  0  0  0  0  0  0  0  0  0 
    2.4180   -2.4668   -0.0171 N   0  0  0  0  0  0  0  0  0  0  0  0 
    6.6890    0.0166    0.0864 N   0  0  0  0  0  0  0  0  0  0  0  0 
    1.5492   -2.6705    0.8296 O   0  0  0  0  0  0  0  0  0  0  0  0 
    2.7039   -3.2367   -0.9320 O   0  0  0  0  0  0  0  0  0  0  0  0 
    7.2651    0.6461    0.9724 O   0  0  0  0  0  0  0  0  0  0  0  0 
    7.2490   -0.5860   -0.8272 O   0  0  0  0  0  0  0  0  0  0  0  0 
    0.5657    1.0507   -0.0135 H   0  0  0  0  0  0  0  0  0  0  0  0 
    0.5300   -0.2910    1.1499 H   0  0  0  0  0  0  0  0  0  0  0  0 
    0.4707   -0.6285   -0.5738 H   0  0  0  0  0  0  0  0  0  0  0  0 
    4.5516    3.3672    0.0877 H   0  0  0  0  0  0  0  0  0  0  0  0 
    6.0748    2.6284   -0.4381 H   0  0  0  0  0  0  0  0  0  0  0  0 
    5.6941    2.7050    1.2758 H   0  0  0  0  0  0  0  0  0  0  0  0 
    4.7643   -3.3631    0.4325 H   0  0  0  0  0  0  0  0  0  0  0  0 
    6.2930   -2.4724    0.4727 H   0  0  0  0  0  0  0  0  0  0  0  0 
    5.5198   -2.8339   -1.0699 H   0  0  0  0  0  0  0  0  0  0  0  0 
    2.6028    2.1210    0.2433 H   0  0  0  0  0  0  0  0  0  0  0  0 
  1 17  1  0  0  0  0 
  2 21  1  0  0  0  0 
  3  7  1  0  0  0  0 
  3 22  1  0  0  0  0 
  3 23  1  0  0  0  0 
  4  6  1  0  0  0  0 
  4 25  1  0  0  0  0 
  5  1  1  0  0  0  0 
  5  4  2  0  0  0  0 
  6  2  1  0  0  0  0 
  7  8  2  0  0  0  0 
  7  9  1  0  0  0  0 
  8  5  1  0  0  0  0 
  9  6  2  0  0  0  0 
 10  8  1  0  0  0  0 
 10 12  2  0  0  0  0 
 11  9  1  0  0  0  0 
 11 14  2  0  0  0  0 
 13 10  2  0  0  0  0 
 15 11  2  0  0  0  0 
 16  1  1  0  0  0  0 
 18  1  1  0  0  0  0 
 19  2  1  0  0  0  0 
 20  2  1  0  0  0  0 
 24  3  1  0  0  0  0 
M  END 
>  <HBA> 
0 
 
>  <HBD> 
0 
 
>  <TPSA> 
91.64 
 
>  <cid> 
11849 
 
>  <dipole> 
3.87 
 
>  <excitation_energy_1> 
3.637 
 
>  <excitation_energy_2> 
3.648 
 
>  <excitation_energy_3> 
3.993 
 
>  <excitation_energy_4> 
4.164 
 
>  <homo_energy> 
-7.423 
 
>  <homo_lumo_gap> 
4.898 
 
>  <logP> 
3.475 
 
>  <lumo_energy> 
-2.525 
 
>  <melting_point> 
96.43 
 
>  <molecular_refractivity> 
58.98 
 
>  <oscillator_strength_1> 
0.0461 
 
>  <oscillator_strength_2> 
0.0123 
 
>  <oscillator_strength_3> 
0.0076 
 
>  <oscillator_strength_4> 
0.0199 
 
>  <open_babel_can_smiles> 
Cc1c(N(=O)=O)c(C)cc(c1N(=O)=O)C 
 
>  <mulliken_charges> 
25 
1   -0.528683 
2   -0.529132 
3   -0.510066 
4   -0.298287 
5   0.231949 
6   0.232242 
7   0.210292 
8   0.114825 
9   0.115161 
10   0.324044 
11   0.323658 
12   -0.369991 
13   -0.366723 
14   -0.369704 
15   -0.366452 
16   0.162087 
17   0.201251 
18   0.179827 
19   0.16224 
20   0.179927 
21   0.201396 
22   0.174576 
23   0.174378 
24   0.20739 
25   0.143792 
 
>  <lowdin_charges> 
25 
1   -0.442075 
2   -0.442591 
3   -0.441949 
4   -0.168642 
5   0.030633 
6   0.029637 
7   0.032314 
8   -0.006714 
9   -0.004483 
10   0.303135 
11   0.304242 
12   -0.232001 
13   -0.228968 
14   -0.233082 
15   -0.229668 
16   0.161431 
17   0.182928 
18   0.172862 
19   0.163012 
20   0.17228 
21   0.182735 
22   0.170782 
23   0.169329 
24   0.187724 
25   0.167132 
 
$$$$ 
 
