PCCDB-ID:  39145 
public computational chemistry database (PCCDB) project, http://pccdb.org 
 
 21 20  0  0  0  0  0  0  0  0999 V2000 
    2.4735   -0.1529    1.7045 C   0  0  0  0  0  0  0  0  0  0  0  0 
    4.6624   -1.8432   -3.6873 C   0  0  0  0  0  0  0  0  0  0  0  0 
    4.6010   -3.6982   -1.9607 C   0  0  0  0  0  0  0  0  0  0  0  0 
    3.1832    0.2923    0.4144 C   0  0  0  0  0  0  0  0  0  0  0  0 
    3.0718   -0.7207   -0.6935 C   0  0  0  0  0  0  0  0  0  0  0  0 
    4.0973   -1.3298   -1.2944 C   0  0  0  0  0  0  0  0  0  0  0  0 
    3.9904   -2.3533   -2.3983 C   0  0  0  0  0  0  0  0  0  0  0  0 
    2.5459    0.6175    2.4809 H   0  0  0  0  0  0  0  0  0  0  0  0 
    2.9156   -1.0757    2.0964 H   0  0  0  0  0  0  0  0  0  0  0  0 
    1.4090   -0.3456    1.5236 H   0  0  0  0  0  0  0  0  0  0  0  0 
    4.5820   -2.5841   -4.4921 H   0  0  0  0  0  0  0  0  0  0  0  0 
    5.7296   -1.6469   -3.5213 H   0  0  0  0  0  0  0  0  0  0  0  0 
    4.2013   -0.9110   -4.0315 H   0  0  0  0  0  0  0  0  0  0  0  0 
    4.5194   -4.4455   -2.7593 H   0  0  0  0  0  0  0  0  0  0  0  0 
    4.0971   -4.0907   -1.0708 H   0  0  0  0  0  0  0  0  0  0  0  0 
    5.6658   -3.5844   -1.7195 H   0  0  0  0  0  0  0  0  0  0  0  0 
    4.2414    0.4946    0.6241 H   0  0  0  0  0  0  0  0  0  0  0  0 
    2.7443    1.2461    0.0839 H   0  0  0  0  0  0  0  0  0  0  0  0 
    2.0547   -0.9738   -1.0042 H   0  0  0  0  0  0  0  0  0  0  0  0 
    5.1157   -1.0810   -0.9821 H   0  0  0  0  0  0  0  0  0  0  0  0 
    2.9240   -2.5155   -2.6108 H   0  0  0  0  0  0  0  0  0  0  0  0 
  1  9  1  0  0  0  0 
  1  8  1  0  0  0  0 
  2 12  1  0  0  0  0 
  2  7  1  0  0  0  0 
  3 16  1  0  0  0  0 
  3 15  1  0  0  0  0 
  4 17  1  0  0  0  0 
  4  1  1  0  0  0  0 
  5  4  1  0  0  0  0 
  6 20  1  0  0  0  0 
  6  5  2  0  0  0  0 
  7  3  1  0  0  0  0 
  7  6  1  0  0  0  0 
 10  1  1  0  0  0  0 
 11  2  1  0  0  0  0 
 13  2  1  0  0  0  0 
 14  3  1  0  0  0  0 
 18  4  1  0  0  0  0 
 19  5  1  0  0  0  0 
 21  7  1  0  0  0  0 
M  END 
>  <HBA> 
0 
 
>  <HBD> 
0 
 
>  <TPSA> 
0.0 
 
>  <cid> 
39145 
 
>  <dipole> 
0.06 
 
>  <excitation_energy_1> 
6.112 
 
>  <excitation_energy_2> 
6.378 
 
>  <excitation_energy_3> 
6.446 
 
>  <excitation_energy_4> 
6.749 
 
>  <homo_energy> 
-6.414 
 
>  <homo_lumo_gap> 
7.263 
 
>  <logP> 
2.609 
 
>  <lumo_energy> 
0.849 
 
>  <melting_point> 
-17.44 
 
>  <molecular_refractivity> 
35.29 
 
>  <oscillator_strength_1> 
0.0506 
 
>  <oscillator_strength_2> 
0.0891 
 
>  <oscillator_strength_3> 
0.0017 
 
>  <oscillator_strength_4> 
0.3076 
 
>  <open_babel_can_smiles> 
CC/C=C/C(C)C 
 
>  <mulliken_charges> 
21 
1   -0.438858 
2   -0.439201 
3   -0.439389 
4   -0.29521 
5   -0.095889 
6   -0.085257 
7   -0.114188 
8   0.141988 
9   0.149033 
10   0.142465 
11   0.139327 
12   0.138574 
13   0.147266 
14   0.139416 
15   0.147007 
16   0.138518 
17   0.137464 
18   0.140423 
19   0.112408 
20   0.109092 
21   0.125011 
 
>  <lowdin_charges> 
21 
1   -0.442337 
2   -0.4421 
3   -0.442683 
4   -0.267109 
5   -0.169838 
6   -0.165913 
7   -0.115192 
8   0.149508 
9   0.150342 
10   0.14542 
11   0.147859 
12   0.144093 
13   0.151615 
14   0.147946 
15   0.151838 
16   0.144093 
17   0.143624 
18   0.146531 
19   0.142488 
20   0.141744 
21   0.13807 
 
$$$$ 
 
