PCCDB-ID:  35527 
public computational chemistry database (PCCDB) project, http://pccdb.org 
 
 36 36  0  0  0  0  0  0  0  0999 V2000 
    8.4641    0.5303    1.6324 C   0  0  0  0  0  0  0  0  0  0  0  0 
    8.0286    8.9832   -2.8963 C   0  0  0  0  0  0  0  0  0  0  0  0 
    6.9916    0.9402    1.5115 C   0  0  0  0  0  0  0  0  0  0  0  0 
    8.6692    7.7429   -3.5325 C   0  0  0  0  0  0  0  0  0  0  0  0 
    6.3228    0.5110    0.1961 C   0  0  0  0  0  0  0  0  0  0  0  0 
    7.8958    6.4339   -3.3046 C   0  0  0  0  0  0  0  0  0  0  0  0 
    6.8896    1.1753   -1.0677 C   0  0  0  0  0  0  0  0  0  0  0  0 
    7.8897    5.9706   -1.8408 C   0  0  0  0  0  0  0  0  0  0  0  0 
    5.4212    3.2187   -1.3030 C   0  0  0  0  0  0  0  0  0  0  0  0 
    5.7392    4.7194   -1.3144 C   0  0  0  0  0  0  0  0  0  0  0  0 
    7.7340    3.5055   -1.4243 C   0  0  0  0  0  0  0  0  0  0  0  0 
    6.7372    2.6244   -1.0738 N   0  0  0  0  0  0  0  0  0  0  0  0 
    7.1595    4.7252   -1.6493 N   0  0  0  0  0  0  0  0  0  0  0  0 
    9.3741    3.1582   -1.5510 S   0  0  0  0  0  0  0  0  0  0  0  0 
    8.8627    0.8023    2.6165 H   0  0  0  0  0  0  0  0  0  0  0  0 
    9.0854    1.0250    0.8783 H   0  0  0  0  0  0  0  0  0  0  0  0 
    8.5834   -0.5545    1.5145 H   0  0  0  0  0  0  0  0  0  0  0  0 
    8.5934    9.8881   -3.1468 H   0  0  0  0  0  0  0  0  0  0  0  0 
    7.9928    8.9154   -1.8028 H   0  0  0  0  0  0  0  0  0  0  0  0 
    7.0007    9.1242   -3.2541 H   0  0  0  0  0  0  0  0  0  0  0  0 
    6.9067    2.0295    1.6195 H   0  0  0  0  0  0  0  0  0  0  0  0 
    6.4228    0.5029    2.3431 H   0  0  0  0  0  0  0  0  0  0  0  0 
    9.6957    7.6248   -3.1585 H   0  0  0  0  0  0  0  0  0  0  0  0 
    8.7597    7.9053   -4.6143 H   0  0  0  0  0  0  0  0  0  0  0  0 
    5.2418    0.7011    0.2575 H   0  0  0  0  0  0  0  0  0  0  0  0 
    6.4282   -0.5754    0.0664 H   0  0  0  0  0  0  0  0  0  0  0  0 
    8.3457    5.6333   -3.9034 H   0  0  0  0  0  0  0  0  0  0  0  0 
    6.8613    6.5530   -3.6591 H   0  0  0  0  0  0  0  0  0  0  0  0 
    6.3874    0.7619   -1.9574 H   0  0  0  0  0  0  0  0  0  0  0  0 
    7.9577    0.9745   -1.1719 H   0  0  0  0  0  0  0  0  0  0  0  0 
    7.4324    6.7267   -1.1889 H   0  0  0  0  0  0  0  0  0  0  0  0 
    8.9149    5.8039   -1.4977 H   0  0  0  0  0  0  0  0  0  0  0  0 
    5.0125    2.8807   -2.2690 H   0  0  0  0  0  0  0  0  0  0  0  0 
    4.7117    2.9450   -0.5171 H   0  0  0  0  0  0  0  0  0  0  0  0 
    5.5743    5.1803   -0.3280 H   0  0  0  0  0  0  0  0  0  0  0  0 
    5.1489    5.2711   -2.0526 H   0  0  0  0  0  0  0  0  0  0  0  0 
  1 15  1  0  0  0  0 
  2 19  1  0  0  0  0 
  3 21  1  0  0  0  0 
  3  1  1  0  0  0  0 
  3 22  1  0  0  0  0 
  4  6  1  0  0  0  0 
  4 23  1  0  0  0  0 
  4  2  1  0  0  0  0 
  5 25  1  0  0  0  0 
  5  3  1  0  0  0  0 
  6  8  1  0  0  0  0 
  7  5  1  0  0  0  0 
  8 13  1  0  0  0  0 
  8 32  1  0  0  0  0 
  8 31  1  0  0  0  0 
  9 12  1  0  0  0  0 
  9 34  1  0  0  0  0 
 10  9  1  0  0  0  0 
 10 35  1  0  0  0  0 
 11 12  1  0  0  0  0 
 12  7  1  0  0  0  0 
 13 11  1  0  0  0  0 
 13 10  1  0  0  0  0 
 14 11  2  0  0  0  0 
 16  1  1  0  0  0  0 
 17  1  1  0  0  0  0 
 18  2  1  0  0  0  0 
 20  2  1  0  0  0  0 
 24  4  1  0  0  0  0 
 26  5  1  0  0  0  0 
 27  6  1  0  0  0  0 
 28  6  1  0  0  0  0 
 29  7  1  0  0  0  0 
 30  7  1  0  0  0  0 
 33  9  1  0  0  0  0 
 36 10  1  0  0  0  0 
M  END 
>  <HBA> 
3 
 
>  <HBD> 
0 
 
>  <TPSA> 
38.57 
 
>  <cid> 
35527 
 
>  <dipole> 
5.17 
 
>  <excitation_energy_1> 
4.224 
 
>  <excitation_energy_2> 
4.828 
 
>  <excitation_energy_3> 
4.969 
 
>  <excitation_energy_4> 
5.125 
 
>  <homo_energy> 
-5.391 
 
>  <homo_lumo_gap> 
5.633 
 
>  <logP> 
2.365 
 
>  <lumo_energy> 
0.242 
 
>  <melting_point> 
28.33 
 
>  <molecular_refractivity> 
74.29 
 
>  <oscillator_strength_1> 
0.0002 
 
>  <oscillator_strength_2> 
0.002 
 
>  <oscillator_strength_3> 
0.022 
 
>  <oscillator_strength_4> 
0.1394 
 
>  <open_babel_can_smiles> 
CCCCN1CCN(C1=S)CCCC 
 
>  <mulliken_charges> 
36 
1   -0.457535 
2   -0.447075 
3   -0.244316 
4   -0.256765 
5   -0.265252 
6   -0.251802 
7   -0.140326 
8   -0.142079 
9   -0.139723 
10   -0.136984 
11   0.366105 
12   -0.42529 
13   -0.426375 
14   -0.31957 
15   0.140303 
16   0.183385 
17   0.133712 
18   0.147696 
19   0.144984 
20   0.139469 
21   0.139175 
22   0.128437 
23   0.143424 
24   0.137826 
25   0.124851 
26   0.137663 
27   0.161732 
28   0.122295 
29   0.133529 
30   0.199021 
31   0.138231 
32   0.192494 
33   0.152799 
34   0.165743 
35   0.156284 
36   0.163936 
 
>  <lowdin_charges> 
36 
1   -0.451568 
2   -0.445371 
3   -0.273666 
4   -0.270647 
5   -0.279389 
6   -0.282599 
7   -0.198867 
8   -0.200377 
9   -0.19515 
10   -0.194155 
11   0.000757 
12   -0.10339 
13   -0.09379 
14   -0.296175 
15   0.149762 
16   0.166248 
17   0.1408 
18   0.152982 
19   0.143786 
20   0.144024 
21   0.140874 
22   0.141609 
23   0.144664 
24   0.144536 
25   0.134916 
26   0.145349 
27   0.159356 
28   0.133829 
29   0.139719 
30   0.179343 
31   0.144064 
32   0.176079 
33   0.14275 
34   0.158048 
35   0.144178 
36   0.157471 
 
$$$$ 
 
