PCCDB-ID:  58172 
public computational chemistry database (PCCDB) project, http://pccdb.org 
 
 35 35  0  0  0  0  0  0  0  0999 V2000 
    1.3481    0.7039    0.3057 C   0  0  0  0  0  0  0  0  0  0  0  0 
    8.2989    2.3433   -1.8406 C   0  0  0  0  0  0  0  0  0  0  0  0 
    6.6340    3.4370   -0.2834 C   0  0  0  0  0  0  0  0  0  0  0  0 
    4.3941   -2.8473   -0.6813 C   0  0  0  0  0  0  0  0  0  0  0  0 
    2.1892   -0.2633   -0.0605 C   0  0  0  0  0  0  0  0  0  0  0  0 
    3.0898   -0.2063   -1.2731 C   0  0  0  0  0  0  0  0  0  0  0  0 
    5.3153    0.8496   -0.8706 C   0  0  0  0  0  0  0  0  0  0  0  0 
    7.4801    2.1805   -0.5392 C   0  0  0  0  0  0  0  0  0  0  0  0 
    5.1917   -1.5613   -0.6254 C   0  0  0  0  0  0  0  0  0  0  0  0 
    4.5698   -0.3321   -0.9250 C   0  0  0  0  0  0  0  0  0  0  0  0 
    6.6706    0.8849   -0.5550 C   0  0  0  0  0  0  0  0  0  0  0  0 
    6.5725   -1.5660   -0.2873 C   0  0  0  0  0  0  0  0  0  0  0  0 
    7.2813   -0.3479   -0.2794 C   0  0  0  0  0  0  0  0  0  0  0  0 
    7.2412   -2.8701    0.0950 C   0  0  0  0  0  0  0  0  0  0  0  0 
    8.6293   -0.4021    0.0315 O   0  0  0  0  0  0  0  0  0  0  0  0 
    6.6273   -3.8191    0.5325 O   0  0  0  0  0  0  0  0  0  0  0  0 
    8.5740   -2.9816   -0.0931 O   0  0  0  0  0  0  0  0  0  0  0  0 
    0.7218    0.6129    1.1890 H   0  0  0  0  0  0  0  0  0  0  0  0 
    1.2494    1.6246   -0.2666 H   0  0  0  0  0  0  0  0  0  0  0  0 
    8.9271    3.2405   -1.7977 H   0  0  0  0  0  0  0  0  0  0  0  0 
    7.6258    2.4382   -2.6999 H   0  0  0  0  0  0  0  0  0  0  0  0 
    8.9504    1.4827   -2.0353 H   0  0  0  0  0  0  0  0  0  0  0  0 
    7.2874    4.3067   -0.1557 H   0  0  0  0  0  0  0  0  0  0  0  0 
    6.0226    3.3333    0.6188 H   0  0  0  0  0  0  0  0  0  0  0  0 
    5.9670    3.6525   -1.1256 H   0  0  0  0  0  0  0  0  0  0  0  0 
    3.4570   -2.7077   -1.2224 H   0  0  0  0  0  0  0  0  0  0  0  0 
    4.1618   -3.2116    0.3241 H   0  0  0  0  0  0  0  0  0  0  0  0 
    4.9545   -3.6506   -1.1630 H   0  0  0  0  0  0  0  0  0  0  0  0 
    2.2600   -1.1667    0.5449 H   0  0  0  0  0  0  0  0  0  0  0  0 
    2.9270    0.7458   -1.7911 H   0  0  0  0  0  0  0  0  0  0  0  0 
    2.7965   -0.9906   -1.9832 H   0  0  0  0  0  0  0  0  0  0  0  0 
    4.8040    1.7831   -1.0850 H   0  0  0  0  0  0  0  0  0  0  0  0 
    8.1883    2.1260    0.3054 H   0  0  0  0  0  0  0  0  0  0  0  0 
    9.0267    0.4756   -0.0617 H   0  0  0  0  0  0  0  0  0  0  0  0 
    8.9586   -2.1095   -0.3031 H   0  0  0  0  0  0  0  0  0  0  0  0 
  1 18  1  0  0  0  0 
  2 20  1  0  0  0  0 
  2  8  1  0  0  0  0 
  3 23  1  0  0  0  0 
  3 24  1  0  0  0  0 
  4  9  1  0  0  0  0 
  4 27  1  0  0  0  0 
  5  1  2  0  0  0  0 
  5 29  1  0  0  0  0 
  6 10  1  0  0  0  0 
  6  5  1  0  0  0  0 
  7 11  1  0  0  0  0 
  8  3  1  0  0  0  0 
  8 33  1  0  0  0  0 
  9 12  2  0  0  0  0 
 10  7  2  0  0  0  0 
 10  9  1  0  0  0  0 
 11  8  1  0  0  0  0 
 11 13  2  0  0  0  0 
 12 13  1  0  0  0  0 
 12 14  1  0  0  0  0 
 13 15  1  0  0  0  0 
 14 16  2  0  0  0  0 
 17 14  1  0  0  0  0 
 19  1  1  0  0  0  0 
 21  2  1  0  0  0  0 
 22  2  1  0  0  0  0 
 25  3  1  0  0  0  0 
 26  4  1  0  0  0  0 
 28  4  1  0  0  0  0 
 30  6  1  0  0  0  0 
 31  6  1  0  0  0  0 
 32  7  1  0  0  0  0 
 34 15  1  0  0  0  0 
 35 17  1  0  0  0  0 
M  END 
>  <HBA> 
3 
 
>  <HBD> 
2 
 
>  <TPSA> 
57.53 
 
>  <cid> 
58172 
 
>  <dipole> 
6.54 
 
>  <excitation_energy_1> 
4.468 
 
>  <excitation_energy_2> 
4.687 
 
>  <excitation_energy_3> 
5.161 
 
>  <excitation_energy_4> 
5.245 
 
>  <homo_energy> 
-6.267 
 
>  <homo_lumo_gap> 
5.257 
 
>  <logP> 
3.251 
 
>  <lumo_energy> 
-1.01 
 
>  <melting_point> 
126.88 
 
>  <molecular_refractivity> 
69.08 
 
>  <oscillator_strength_1> 
0.0666 
 
>  <oscillator_strength_2> 
0.0067 
 
>  <oscillator_strength_3> 
0.001 
 
>  <oscillator_strength_4> 
0.005 
 
>  <open_babel_can_smiles> 
C=CCc1cc(C(C)C)c(c(c1C)C(=O)O)O 
 
>  <mulliken_charges> 
35 
1   -0.340889 
2   -0.441189 
3   -0.452359 
4   -0.507606 
5   -0.029401 
6   -0.415591 
7   -0.267309 
8   -0.210987 
9   0.049781 
10   0.136818 
11   0.196764 
12   -0.012999 
13   0.210149 
14   0.555899 
15   -0.694383 
16   -0.460949 
17   -0.591295 
18   0.142209 
19   0.131818 
20   0.153017 
21   0.161693 
22   0.141371 
23   0.150643 
24   0.162826 
25   0.153222 
26   0.139449 
27   0.187608 
28   0.177223 
29   0.139075 
30   0.145532 
31   0.165537 
32   0.128573 
33   0.129003 
34   0.432272 
35   0.434474 
 
>  <lowdin_charges> 
35 
1   -0.342873 
2   -0.44817 
3   -0.442473 
4   -0.447171 
5   -0.141859 
6   -0.273283 
7   -0.151808 
8   -0.127742 
9   0.026831 
10   -0.022447 
11   -0.052513 
12   -0.09209 
13   0.096634 
14   0.199252 
15   -0.39429 
16   -0.252137 
17   -0.364681 
18   0.160217 
19   0.151983 
20   0.153885 
21   0.159395 
22   0.146575 
23   0.155938 
24   0.159859 
25   0.152398 
26   0.150559 
27   0.176515 
28   0.174205 
29   0.156178 
30   0.152666 
31   0.160423 
32   0.160104 
33   0.137091 
34   0.364473 
35   0.358356 
 
$$$$ 
 
