PCCDB-ID:  7455 
public computational chemistry database (PCCDB) project, http://pccdb.org 
 
 21 21  0  0  0  0  0  0  0  0999 V2000 
    0.9170    0.0030    0.1967 C   0  0  0  0  0  0  0  0  0  0  0  0 
    8.6485   -1.4812   -0.5797 C   0  0  0  0  0  0  0  0  0  0  0  0 
    3.0894   -1.2924    0.0046 C   0  0  0  0  0  0  0  0  0  0  0  0 
    3.1786    1.1126   -0.0537 C   0  0  0  0  0  0  0  0  0  0  0  0 
    4.4740   -1.3537   -0.1408 C   0  0  0  0  0  0  0  0  0  0  0  0 
    4.5596    1.0620   -0.1986 C   0  0  0  0  0  0  0  0  0  0  0  0 
    2.4185   -0.0636    0.0501 C   0  0  0  0  0  0  0  0  0  0  0  0 
    5.2208   -0.1739   -0.2444 C   0  0  0  0  0  0  0  0  0  0  0  0 
    6.7004   -0.1694   -0.4005 C   0  0  0  0  0  0  0  0  0  0  0  0 
    7.3826    0.8332   -0.4933 O   0  0  0  0  0  0  0  0  0  0  0  0 
    7.2230   -1.4192   -0.4299 O   0  0  0  0  0  0  0  0  0  0  0  0 
    0.4867   -0.9868    0.3770 H   0  0  0  0  0  0  0  0  0  0  0  0 
    0.4478    0.4107   -0.7079 H   0  0  0  0  0  0  0  0  0  0  0  0 
    0.6263    0.6542    1.0296 H   0  0  0  0  0  0  0  0  0  0  0  0 
    8.8963   -2.5433   -0.5836 H   0  0  0  0  0  0  0  0  0  0  0  0 
    9.1457   -0.9733    0.2511 H   0  0  0  0  0  0  0  0  0  0  0  0 
    8.9581   -1.0107   -1.5169 H   0  0  0  0  0  0  0  0  0  0  0  0 
    2.5191   -2.2146    0.0858 H   0  0  0  0  0  0  0  0  0  0  0  0 
    2.6776    2.0775   -0.0182 H   0  0  0  0  0  0  0  0  0  0  0  0 
    4.9784   -2.3130   -0.1741 H   0  0  0  0  0  0  0  0  0  0  0  0 
    5.1486    1.9699   -0.2778 H   0  0  0  0  0  0  0  0  0  0  0  0 
  1 12  1  0  0  0  0 
  1 14  1  0  0  0  0 
  2 11  1  0  0  0  0 
  2 16  1  0  0  0  0 
  3  7  1  0  0  0  0 
  3 18  1  0  0  0  0 
  4 19  1  0  0  0  0 
  4  7  2  0  0  0  0 
  5  3  2  0  0  0  0 
  6  4  1  0  0  0  0 
  7  1  1  0  0  0  0 
  8  6  2  0  0  0  0 
  8  5  1  0  0  0  0 
  9  8  1  0  0  0  0 
 10  9  2  0  0  0  0 
 11  9  1  0  0  0  0 
 13  1  1  0  0  0  0 
 15  2  1  0  0  0  0 
 17  2  1  0  0  0  0 
 20  5  1  0  0  0  0 
 21  6  1  0  0  0  0 
M  END 
>  <HBA> 
2 
 
>  <HBD> 
0 
 
>  <TPSA> 
26.3 
 
>  <cid> 
7455 
 
>  <dipole> 
2.12 
 
>  <excitation_energy_1> 
4.897 
 
>  <excitation_energy_2> 
4.91 
 
>  <excitation_energy_3> 
5.211 
 
>  <excitation_energy_4> 
6.168 
 
>  <homo_energy> 
-6.727 
 
>  <homo_lumo_gap> 
5.636 
 
>  <logP> 
1.782 
 
>  <lumo_energy> 
-1.091 
 
>  <melting_point> 
34.1 
 
>  <molecular_refractivity> 
42.69 
 
>  <oscillator_strength_1> 
0.0137 
 
>  <oscillator_strength_2> 
0.0002 
 
>  <oscillator_strength_3> 
0.341 
 
>  <oscillator_strength_4> 
0.1206 
 
>  <open_babel_can_smiles> 
COC(=O)c1ccc(cc1)C 
 
>  <mulliken_charges> 
21 
1   -0.532117 
2   -0.215108 
3   -0.190018 
4   -0.185952 
5   -0.157146 
6   -0.152002 
7   0.187208 
8   0.05017 
9   0.588148 
10   -0.49372 
11   -0.468448 
12   0.15834 
13   0.168994 
14   0.166127 
15   0.16212 
16   0.170507 
17   0.17046 
18   0.12774 
19   0.129131 
20   0.154212 
21   0.161354 
 
>  <lowdin_charges> 
21 
1   -0.443701 
2   -0.275424 
3   -0.170669 
4   -0.166294 
5   -0.137773 
6   -0.129611 
7   0.017766 
8   -0.050779 
9   0.196722 
10   -0.27339 
11   -0.1954 
12   0.158192 
13   0.165289 
14   0.164132 
15   0.157559 
16   0.160555 
17   0.159575 
18   0.157421 
19   0.157862 
20   0.171346 
21   0.176623 
 
$$$$ 
 
