PCCDB-ID:  36213 
public computational chemistry database (PCCDB) project, http://pccdb.org 
 
 31 31  0  0  1  0  0  0  0  0999 V2000 
    2.6063   -3.1567   -0.6361 C   0  0  0  0  0  0  0  0  0  0  0  0 
    2.2743   -0.7050   -1.0769 C   0  0  0  0  0  0  0  0  0  0  0  0 
    3.0994   -1.7419   -0.7448 C   0  0  1  0  0  0  0  0  0  0  0  0 
    2.7957    0.6356   -1.1694 C   0  0  0  0  0  0  0  0  0  0  0  0 
    0.8404    1.7730   -1.7330 C   0  0  0  0  0  0  0  0  0  0  0  0 
    7.2563   -1.0400    0.0903 C   0  0  0  0  0  0  0  0  0  0  0  0 
    4.9312   -0.3765   -0.5590 C   0  0  0  0  0  0  0  0  0  0  0  0 
   -0.0954    2.1925   -0.9611 N   0  0  0  0  0  0  0  0  0  0  0  0 
    7.1282   -2.2665    0.3911 N   0  0  0  0  0  0  0  0  0  0  0  0 
   -0.7492    1.6446   -3.5514 N   0  0  0  0  0  0  0  0  0  0  0  0 
    9.6233   -1.1848    0.4940 N   0  0  0  0  0  0  0  0  0  0  0  0 
    4.4460   -1.5856   -0.4745 N   0  0  0  0  0  0  0  0  0  0  0  0 
    2.2167    1.7573   -1.4466 N   0  0  0  0  0  0  0  0  0  0  0  0 
    4.1719    0.7103   -0.8933 N   0  0  0  0  0  0  0  0  0  0  0  0 
    6.2638   -0.1130   -0.3264 N   0  0  0  0  0  0  0  0  0  0  0  0 
    0.5318    1.3370   -3.0206 N   0  0  0  0  0  0  0  0  0  0  0  0 
    8.4968   -0.3823    0.1663 N   0  0  0  0  0  0  0  0  0  0  0  0 
    1.5401   -3.2331   -0.8629 H   0  0  0  0  0  0  0  0  0  0  0  0 
    2.7829   -3.5397    0.3760 H   0  0  0  0  0  0  0  0  0  0  0  0 
    3.1646   -3.8033   -1.3232 H   0  0  0  0  0  0  0  0  0  0  0  0 
    1.2240   -0.8618   -1.2852 H   0  0  0  0  0  0  0  0  0  0  0  0 
    0.3042    2.4451   -0.0565 H   0  0  0  0  0  0  0  0  0  0  0  0 
    6.1504   -2.5515    0.3291 H   0  0  0  0  0  0  0  0  0  0  0  0 
   -1.0812    2.4744   -3.0495 H   0  0  0  0  0  0  0  0  0  0  0  0 
   -1.3734    0.8989   -3.2426 H   0  0  0  0  0  0  0  0  0  0  0  0 
    9.3814   -2.1503    0.2510 H   0  0  0  0  0  0  0  0  0  0  0  0 
    9.6936   -1.1764    1.5112 H   0  0  0  0  0  0  0  0  0  0  0  0 
    4.5705    1.6393   -0.9758 H   0  0  0  0  0  0  0  0  0  0  0  0 
    6.5228    0.8578   -0.2007 H   0  0  0  0  0  0  0  0  0  0  0  0 
    1.2670    1.5056   -3.6967 H   0  0  0  0  0  0  0  0  0  0  0  0 
    8.7043    0.1668   -0.6635 H   0  0  0  0  0  0  0  0  0  0  0  0 
  1 19  1  0  0  0  0 
  2  3  1  0  0  0  0 
  3  1  1  1  0  0  0 
  3 12  1  0  0  0  0 
  4  2  2  0  0  0  0 
  4 14  1  0  0  0  0 
  5 13  2  0  0  0  0 
  5  8  1  0  0  0  0 
  6 17  1  0  0  0  0 
  6  9  2  0  0  0  0 
  7 12  2  0  0  0  0 
  7 15  1  0  0  0  0 
  8 22  1  0  0  0  0 
 10 25  1  0  0  0  0 
 10 24  1  0  0  0  0 
 10 16  1  0  0  0  0 
 11 27  1  0  0  0  0 
 13  4  1  0  0  0  0 
 14  7  1  0  0  0  0 
 15 29  1  0  0  0  0 
 15  6  1  0  0  0  0 
 16  5  1  0  0  0  0 
 17 11  1  0  0  0  0 
 18  1  1  0  0  0  0 
 20  1  1  0  0  0  0 
 21  2  1  0  0  0  0 
 23  9  1  0  0  0  0 
 26 11  1  0  0  0  0 
 28 14  1  0  0  0  0 
 30 16  1  0  0  0  0 
 31 17  1  0  0  0  0 
M  RAD  1   8   2 
M  END 
>  <HBA> 
10 
 
>  <HBD> 
6 
 
>  <TPSA> 
178.64 
 
>  <cid> 
36213 
 
>  <dipole> 
2.63 
 
>  <excitation_energy_1> 
4.163 
 
>  <excitation_energy_2> 
4.251 
 
>  <excitation_energy_3> 
4.771 
 
>  <excitation_energy_4> 
4.887 
 
>  <homo_energy> 
-5.995 
 
>  <homo_lumo_gap> 
4.8 
 
>  <logP> 
1.187 
 
>  <lumo_energy> 
-1.195 
 
>  <melting_point> 
362.0 
 
>  <molecular_refractivity> 
61.85 
 
>  <oscillator_strength_1> 
0.1558 
 
>  <oscillator_strength_2> 
0.0354 
 
>  <oscillator_strength_3> 
0.0026 
 
>  <oscillator_strength_4> 
0.0023 
 
>  <open_babel_can_smiles> 
NNC(=N)NC1=N[C@H](C=C(N1)/N=C(\NN)/[NH])C 
 
>  <mulliken_charges> 
31 
1   -0.510708 
2   -0.234418 
3   0.316102 
4   0.546089 
5   0.509345 
6   0.64564 
7   0.844365 
8   -0.640524 
9   -0.648183 
10   -0.574418 
11   -0.574334 
12   -0.581818 
13   -0.576486 
14   -0.720595 
15   -0.746639 
16   -0.466268 
17   -0.52374 
18   0.163934 
19   0.177092 
20   0.17851 
21   0.167161 
22   0.280652 
23   0.333912 
24   0.321389 
25   0.316698 
26   0.332103 
27   0.323165 
28   0.340601 
29   0.339839 
30   0.330156 
31   0.331378 
 
>  <lowdin_charges> 
31 
1   -0.438685 
2   -0.246291 
3   0.0875 
4   0.121345 
5   0.106397 
6   0.116814 
7   0.170056 
8   -0.468014 
9   -0.434826 
10   -0.469302 
11   -0.461894 
12   -0.235514 
13   -0.265447 
14   -0.210512 
15   -0.257853 
16   -0.2599 
17   -0.269218 
18   0.161291 
19   0.171705 
20   0.174374 
21   0.182998 
22   0.255367 
23   0.275468 
24   0.261504 
25   0.262192 
26   0.264708 
27   0.262407 
28   0.297616 
29   0.291828 
30   0.278355 
31   0.27553 
 
$$$$ 
 
