PCCDB-ID:  28996 
public computational chemistry database (PCCDB) project, http://pccdb.org 
 
 33 35  0  0  0  0  0  0  0  0999 V2000 
    5.3598   -1.5869   -0.9168 C   0  0  0  0  0  0  0  0  0  0  0  0 
   -0.6593   -8.1349   -3.3012 C   0  0  0  0  0  0  0  0  0  0  0  0 
   -1.2492   -6.8969   -3.5586 C   0  0  0  0  0  0  0  0  0  0  0  0 
    0.5145   -8.1915   -2.5489 C   0  0  0  0  0  0  0  0  0  0  0  0 
   -0.6615   -5.7309   -3.0725 C   0  0  0  0  0  0  0  0  0  0  0  0 
    2.3935   -7.0796   -1.2519 C   0  0  0  0  0  0  0  0  0  0  0  0 
    2.3786   -6.0097   -0.1521 C   0  0  0  0  0  0  0  0  0  0  0  0 
    1.5387   -2.1301   -1.8403 C   0  0  0  0  0  0  0  0  0  0  0  0 
    0.9363   -3.2711   -2.3551 C   0  0  0  0  0  0  0  0  0  0  0  0 
    2.7155   -3.4992   -0.2415 C   0  0  0  0  0  0  0  0  0  0  0  0 
    4.2446   -0.8068   -0.2545 C   0  0  0  0  0  0  0  0  0  0  0  0 
    1.1149   -7.0299   -2.0596 C   0  0  0  0  0  0  0  0  0  0  0  0 
    2.1010   -4.6453   -0.7458 C   0  0  0  0  0  0  0  0  0  0  0  0 
    2.4520   -2.2283   -0.7783 C   0  0  0  0  0  0  0  0  0  0  0  0 
    0.5304   -5.7713   -2.3302 C   0  0  0  0  0  0  0  0  0  0  0  0 
    1.1880   -4.5454   -1.8187 C   0  0  0  0  0  0  0  0  0  0  0  0 
    3.0025   -1.0603   -0.2332 N   0  0  0  0  0  0  0  0  0  0  0  0 
    4.6388    0.3372    0.3761 O   0  0  0  0  0  0  0  0  0  0  0  0 
    4.9706   -2.4537   -1.4518 H   0  0  0  0  0  0  0  0  0  0  0  0 
    6.0858   -1.9347   -0.1714 H   0  0  0  0  0  0  0  0  0  0  0  0 
    5.8946   -0.9445   -1.6282 H   0  0  0  0  0  0  0  0  0  0  0  0 
   -1.1143   -9.0495   -3.6721 H   0  0  0  0  0  0  0  0  0  0  0  0 
   -2.1734   -6.8379   -4.1274 H   0  0  0  0  0  0  0  0  0  0  0  0 
    0.9741   -9.1542   -2.3345 H   0  0  0  0  0  0  0  0  0  0  0  0 
   -1.1491   -4.7781   -3.2555 H   0  0  0  0  0  0  0  0  0  0  0  0 
    2.5314   -8.0770   -0.8190 H   0  0  0  0  0  0  0  0  0  0  0  0 
    3.2561   -6.8987   -1.9121 H   0  0  0  0  0  0  0  0  0  0  0  0 
    3.3289   -6.0024    0.3939 H   0  0  0  0  0  0  0  0  0  0  0  0 
    1.5945   -6.2598    0.5790 H   0  0  0  0  0  0  0  0  0  0  0  0 
    1.3244   -1.1521   -2.2606 H   0  0  0  0  0  0  0  0  0  0  0  0 
    0.2656   -3.1674   -3.2030 H   0  0  0  0  0  0  0  0  0  0  0  0 
    3.3987   -3.5840    0.6007 H   0  0  0  0  0  0  0  0  0  0  0  0 
    5.5954    0.4490    0.2655 H   0  0  0  0  0  0  0  0  0  0  0  0 
  1 11  1  0  0  0  0 
  1 20  1  0  0  0  0 
  2  4  1  0  0  0  0 
  3  2  2  0  0  0  0 
  3  5  1  0  0  0  0 
  4 24  1  0  0  0  0 
  4 12  2  0  0  0  0 
  5 15  2  0  0  0  0 
  6 26  1  0  0  0  0 
  6  7  1  0  0  0  0 
  7 28  1  0  0  0  0 
  7 29  1  0  0  0  0 
  8 14  1  0  0  0  0 
  9  8  2  0  0  0  0 
  9 16  1  0  0  0  0 
 10 32  1  0  0  0  0 
 11 17  2  0  0  0  0 
 11 18  1  0  0  0  0 
 12  6  1  0  0  0  0 
 13 10  1  0  0  0  0 
 13  7  1  0  0  0  0 
 14 10  2  0  0  0  0 
 14 17  1  0  0  0  0 
 15 12  1  0  0  0  0 
 15 16  1  0  0  0  0 
 16 13  2  0  0  0  0 
 19  1  1  0  0  0  0 
 21  1  1  0  0  0  0 
 22  2  1  0  0  0  0 
 23  3  1  0  0  0  0 
 25  5  1  0  0  0  0 
 27  6  1  0  0  0  0 
 30  8  1  0  0  0  0 
 31  9  1  0  0  0  0 
 33 18  1  0  0  0  0 
M  END 
>  <HBA> 
2 
 
>  <HBD> 
1 
 
>  <TPSA> 
29.1 
 
>  <cid> 
28996 
 
>  <dipole> 
4.03 
 
>  <excitation_energy_1> 
4.137 
 
>  <excitation_energy_2> 
4.344 
 
>  <excitation_energy_3> 
4.589 
 
>  <excitation_energy_4> 
4.685 
 
>  <homo_energy> 
-5.312 
 
>  <homo_lumo_gap> 
4.637 
 
>  <logP> 
3.484 
 
>  <lumo_energy> 
-0.675 
 
>  <melting_point> 
129.13 
 
>  <molecular_refractivity> 
74.01 
 
>  <oscillator_strength_1> 
0.5776 
 
>  <oscillator_strength_2> 
0.0033 
 
>  <oscillator_strength_3> 
0.0076 
 
>  <oscillator_strength_4> 
0.0073 
 
>  <open_babel_can_smiles> 
C/C(=N\c1ccc2c(c1)CCc1c2cccc1)/O 
 
>  <mulliken_charges> 
33 
1   -0.554937 
2   -0.12427 
3   -0.137826 
4   -0.20368 
5   -0.185666 
6   -0.345921 
7   -0.345593 
8   -0.161517 
9   -0.195881 
10   -0.243768 
11   0.482471 
12   0.122463 
13   0.12125 
14   0.252909 
15   0.065111 
16   0.066267 
17   -0.465565 
18   -0.56932 
19   0.199068 
20   0.175351 
21   0.171717 
22   0.125043 
23   0.125695 
24   0.119645 
25   0.129248 
26   0.141575 
27   0.152331 
28   0.138986 
29   0.158948 
30   0.13047 
31   0.130255 
32   0.116988 
33   0.408153 
 
>  <lowdin_charges> 
33 
1   -0.485363 
2   -0.160765 
3   -0.158708 
4   -0.167375 
5   -0.162064 
6   -0.271765 
7   -0.271631 
8   -0.177905 
9   -0.15245 
10   -0.198106 
11   0.144872 
12   -0.008071 
13   -0.002395 
14   0.048352 
15   -0.010307 
16   -0.028412 
17   -0.166339 
18   -0.357523 
19   0.185283 
20   0.170858 
21   0.169575 
22   0.156695 
23   0.15588 
24   0.153033 
25   0.156991 
26   0.150293 
27   0.152885 
28   0.149419 
29   0.156813 
30   0.162018 
31   0.157947 
32   0.153932 
33   0.354332 
 
$$$$ 
 
