PCCDB-ID:  19239 
public computational chemistry database (PCCDB) project, http://pccdb.org 
 
 17 16  0  0  0  0  0  0  0  0999 V2000 
    0.9421    0.5028    0.1716 C   0  0  0  0  0  0  0  0  0  0  0  0 
    3.4216    1.0156    0.4096 C   0  0  0  0  0  0  0  0  0  0  0  0 
    2.3738   -0.0007   -0.0896 C   0  0  0  0  0  0  0  0  0  0  0  0 
    2.6274   -1.3771    0.5012 C   0  0  0  0  0  0  0  0  0  0  0  0 
    3.7494   -2.0961   -1.3575 N   0  0  0  0  0  0  0  0  0  0  0  0 
    3.2525   -2.3460   -0.0441 N   0  0  0  0  0  0  0  0  0  0  0  0 
    2.1761   -1.6164    1.7724 O   0  0  0  0  0  0  0  0  0  0  0  0 
    0.7619    1.4222   -0.3957 H   0  0  0  0  0  0  0  0  0  0  0  0 
    0.7667    0.7552    1.2275 H   0  0  0  0  0  0  0  0  0  0  0  0 
    0.1925   -0.2349   -0.1336 H   0  0  0  0  0  0  0  0  0  0  0  0 
    3.2561    1.9980   -0.0475 H   0  0  0  0  0  0  0  0  0  0  0  0 
    4.4414    0.6968    0.1668 H   0  0  0  0  0  0  0  0  0  0  0  0 
    3.3658    1.1356    1.4984 H   0  0  0  0  0  0  0  0  0  0  0  0 
    2.4915   -0.1242   -1.1719 H   0  0  0  0  0  0  0  0  0  0  0  0 
    4.2232   -2.9566   -1.6215 H   0  0  0  0  0  0  0  0  0  0  0  0 
    4.4793   -1.3807   -1.3235 H   0  0  0  0  0  0  0  0  0  0  0  0 
    1.6122   -0.8789    2.0471 H   0  0  0  0  0  0  0  0  0  0  0  0 
  1  9  1  0  0  0  0 
  2 13  1  0  0  0  0 
  3  1  1  0  0  0  0 
  3  2  1  0  0  0  0 
  3  4  1  0  0  0  0 
  4  7  1  0  0  0  0 
  5 16  1  0  0  0  0 
  5  6  1  0  0  0  0 
  6  4  2  0  0  0  0 
  7 17  1  0  0  0  0 
  8  1  1  0  0  0  0 
 10  1  1  0  0  0  0 
 11  2  1  0  0  0  0 
 12  2  1  0  0  0  0 
 14  3  1  0  0  0  0 
 15  5  1  0  0  0  0 
M  END 
>  <HBA> 
3 
 
>  <HBD> 
2 
 
>  <TPSA> 
55.12 
 
>  <cid> 
19239 
 
>  <dipole> 
3.28 
 
>  <excitation_energy_1> 
4.979 
 
>  <excitation_energy_2> 
5.096 
 
>  <excitation_energy_3> 
5.528 
 
>  <excitation_energy_4> 
5.963 
 
>  <homo_energy> 
-5.516 
 
>  <homo_lumo_gap> 
6.34 
 
>  <logP> 
0.724 
 
>  <lumo_energy> 
0.825 
 
>  <melting_point> 
77.58 
 
>  <molecular_refractivity> 
27.05 
 
>  <oscillator_strength_1> 
0.0112 
 
>  <oscillator_strength_2> 
0.0073 
 
>  <oscillator_strength_3> 
0.0482 
 
>  <oscillator_strength_4> 
0.0163 
 
>  <open_babel_can_smiles> 
CC(/C(=N\N)/O)C 
 
>  <mulliken_charges> 
17 
1   -0.476377 
2   -0.438991 
3   -0.183574 
4   0.516592 
5   -0.591223 
6   -0.351368 
7   -0.601406 
8   0.160602 
9   0.131168 
10   0.172248 
11   0.152059 
12   0.151009 
13   0.14621 
14   0.178001 
15   0.324296 
16   0.301586 
17   0.409168 
 
>  <lowdin_charges> 
17 
1   -0.449004 
2   -0.43661 
3   -0.15638 
4   0.100109 
5   -0.466625 
6   -0.16773 
7   -0.375263 
8   0.160892 
9   0.137825 
10   0.163588 
11   0.153106 
12   0.15148 
13   0.147362 
14   0.166439 
15   0.266753 
16   0.249787 
17   0.354272 
 
$$$$ 
 
