PCCDB-ID:  70383 
public computational chemistry database (PCCDB) project, http://pccdb.org 
 
 38 38  0  0  0  0  0  0  0  0999 V2000 
    3.7055    0.9144    0.6771 C   0  0  0  0  0  0  0  0  0  0  0  0 
    1.7664   -0.4796    1.3249 C   0  0  0  0  0  0  0  0  0  0  0  0 
    1.4384    1.1651   -0.4939 C   0  0  0  0  0  0  0  0  0  0  0  0 
    6.0171   -0.4195   -4.1083 C   0  0  0  0  0  0  0  0  0  0  0  0 
    4.9943   -2.3539   -5.2930 C   0  0  0  0  0  0  0  0  0  0  0  0 
    3.7708   -0.1873   -5.2739 C   0  0  0  0  0  0  0  0  0  0  0  0 
    2.6336   -2.2489   -0.7210 C   0  0  0  0  0  0  0  0  0  0  0  0 
    3.6657   -2.8517   -2.8341 C   0  0  0  0  0  0  0  0  0  0  0  0 
    3.0136   -3.2160   -1.6503 C   0  0  0  0  0  0  0  0  0  0  0  0 
    2.8890   -0.8947   -0.9339 C   0  0  0  0  0  0  0  0  0  0  0  0 
    3.9526   -1.5235   -3.1180 C   0  0  0  0  0  0  0  0  0  0  0  0 
    3.5510   -0.5582   -2.1460 C   0  0  0  0  0  0  0  0  0  0  0  0 
    2.4655    0.1691    0.1111 C   0  0  0  0  0  0  0  0  0  0  0  0 
    4.6720   -1.1192   -4.4259 C   0  0  0  0  0  0  0  0  0  0  0  0 
    2.6898   -4.5613   -1.2992 N   0  0  0  0  0  0  0  0  0  0  0  0 
    3.8453    0.7399   -2.4507 O   0  0  0  0  0  0  0  0  0  0  0  0 
    3.0234   -5.4127   -2.1191 O   0  0  0  0  0  0  0  0  0  0  0  0 
    3.3896    1.6676    1.4079 H   0  0  0  0  0  0  0  0  0  0  0  0 
    4.3133    1.4294   -0.0751 H   0  0  0  0  0  0  0  0  0  0  0  0 
    4.3709    0.2071    1.1832 H   0  0  0  0  0  0  0  0  0  0  0  0 
    1.4875    0.3016    2.0405 H   0  0  0  0  0  0  0  0  0  0  0  0 
    2.4216   -1.1854    1.8459 H   0  0  0  0  0  0  0  0  0  0  0  0 
    0.8505   -1.0069    1.0379 H   0  0  0  0  0  0  0  0  0  0  0  0 
    1.1349    1.8978    0.2628 H   0  0  0  0  0  0  0  0  0  0  0  0 
    0.5433    0.6285   -0.8256 H   0  0  0  0  0  0  0  0  0  0  0  0 
    1.8007    1.7312   -1.3594 H   0  0  0  0  0  0  0  0  0  0  0  0 
    6.5321   -0.1667   -5.0432 H   0  0  0  0  0  0  0  0  0  0  0  0 
    6.6732   -1.0851   -3.5349 H   0  0  0  0  0  0  0  0  0  0  0  0 
    5.8770    0.5002   -3.5384 H   0  0  0  0  0  0  0  0  0  0  0  0 
    5.4990   -2.0249   -6.2079 H   0  0  0  0  0  0  0  0  0  0  0  0 
    4.0910   -2.8970   -5.5927 H   0  0  0  0  0  0  0  0  0  0  0  0 
    5.6636   -3.0550   -4.7821 H   0  0  0  0  0  0  0  0  0  0  0  0 
    4.2858    0.0771   -6.2055 H   0  0  0  0  0  0  0  0  0  0  0  0 
    3.5250    0.7364   -4.7482 H   0  0  0  0  0  0  0  0  0  0  0  0 
    2.8354   -0.6931   -5.5412 H   0  0  0  0  0  0  0  0  0  0  0  0 
    2.1326   -2.6011    0.1721 H   0  0  0  0  0  0  0  0  0  0  0  0 
    3.9330   -3.6523   -3.5114 H   0  0  0  0  0  0  0  0  0  0  0  0 
    3.5392    1.3200   -1.7414 H   0  0  0  0  0  0  0  0  0  0  0  0 
  1 20  1  0  0  0  0 
  1 18  1  0  0  0  0 
  2 22  1  0  0  0  0 
  2 21  1  0  0  0  0 
  3 13  1  0  0  0  0 
  3 24  1  0  0  0  0 
  4 29  1  0  0  0  0 
  4 28  1  0  0  0  0 
  5 32  1  0  0  0  0 
  5 14  1  0  0  0  0 
  6 34  1  0  0  0  0 
  6 14  1  0  0  0  0 
  7 36  1  0  0  0  0 
  8  9  1  0  0  0  0 
  9 15  1  0  0  0  0 
  9  7  2  0  0  0  0 
 10  7  1  0  0  0  0 
 10 13  1  0  0  0  0 
 11  8  2  0  0  0  0 
 11 12  1  0  0  0  0 
 12 10  2  0  0  0  0 
 13  1  1  0  0  0  0 
 13  2  1  0  0  0  0 
 14  4  1  0  0  0  0 
 14 11  1  0  0  0  0 
 16 12  1  0  0  0  0 
 16 38  1  0  0  0  0 
 17 15  2  0  0  0  0 
 19  1  1  0  0  0  0 
 23  2  1  0  0  0  0 
 25  3  1  0  0  0  0 
 26  3  1  0  0  0  0 
 27  4  1  0  0  0  0 
 30  5  1  0  0  0  0 
 31  5  1  0  0  0  0 
 33  6  1  0  0  0  0 
 35  6  1  0  0  0  0 
 37  8  1  0  0  0  0 
M  END 
>  <HBA> 
3 
 
>  <HBD> 
1 
 
>  <TPSA> 
49.66 
 
>  <cid> 
70383 
 
>  <dipole> 
5.48 
 
>  <excitation_energy_1> 
1.601 
 
>  <excitation_energy_2> 
3.916 
 
>  <excitation_energy_3> 
3.985 
 
>  <excitation_energy_4> 
4.368 
 
>  <homo_energy> 
-5.519 
 
>  <homo_lumo_gap> 
3.309 
 
>  <logP> 
4.385 
 
>  <lumo_energy> 
-2.21 
 
>  <melting_point> 
90.97 
 
>  <molecular_refractivity> 
72.46 
 
>  <oscillator_strength_1> 
0.0003 
 
>  <oscillator_strength_2> 
0.0398 
 
>  <oscillator_strength_3> 
0.2556 
 
>  <oscillator_strength_4> 
0.0001 
 
>  <open_babel_can_smiles> 
O=Nc1cc(c(c(c1)C(C)(C)C)O)C(C)(C)C 
 
>  <mulliken_charges> 
38 
1   -0.459899 
2   -0.457981 
3   -0.459637 
4   -0.45122 
5   -0.457017 
6   -0.450998 
7   -0.227625 
8   -0.22378 
9   0.241616 
10   0.15789 
11   0.140471 
12   0.216978 
13   -0.019468 
14   0.032219 
15   -0.075466 
16   -0.637362 
17   -0.309487 
18   0.152706 
19   0.140116 
20   0.165334 
21   0.147456 
22   0.157379 
23   0.157217 
24   0.152977 
25   0.16559 
26   0.139384 
27   0.137224 
28   0.141252 
29   0.165994 
30   0.143584 
31   0.149689 
32   0.149589 
33   0.137305 
34   0.165808 
35   0.141284 
36   0.149625 
37   0.159743 
38   0.421511 
 
>  <lowdin_charges> 
38 
1   -0.452034 
2   -0.442621 
3   -0.450066 
4   -0.448005 
5   -0.445618 
6   -0.446551 
7   -0.1403 
8   -0.144478 
9   -0.042137 
10   -0.05506 
11   -0.020993 
12   0.116953 
13   0.008806 
14   0.021696 
15   0.033637 
16   -0.361101 
17   -0.204561 
18   0.155259 
19   0.145771 
20   0.163218 
21   0.154791 
22   0.156753 
23   0.155602 
24   0.155534 
25   0.162434 
26   0.14465 
27   0.147295 
28   0.14981 
29   0.159018 
30   0.152484 
31   0.15173 
32   0.152519 
33   0.147257 
34   0.159012 
35   0.148534 
36   0.17496 
37   0.180393 
38   0.355408 
 
$$$$ 
 
