PCCDB-ID:  62345 
public computational chemistry database (PCCDB) project, http://pccdb.org 
 
 25 26  0  0  1  0  0  0  0  0999 V2000 
    1.0125   -0.0249    0.0042 C   0  0  0  0  0  0  0  0  0  0  0  0 
    5.3315    3.7926    0.9889 C   0  0  0  0  0  0  0  0  0  0  0  0 
    3.1344   -1.1848    0.7917 C   0  0  0  0  0  0  0  0  0  0  0  0 
    4.6712   -1.2802    0.6704 C   0  0  0  0  0  0  0  0  0  0  0  0 
    3.0843    1.3503    0.5319 C   0  0  0  0  0  0  0  0  0  0  0  0 
    6.7388    1.6509    1.1171 C   0  0  0  0  0  0  0  0  0  0  0  0 
    2.5448    0.0013   -0.0018 C   0  0  2  0  0  0  0  0  0  0  0  0 
    5.5568    2.3105    0.9620 C   0  0  0  0  0  0  0  0  0  0  0  0 
    4.5672    1.2761    0.7644 C   0  0  0  0  0  0  0  0  0  0  0  0 
    5.2335    0.0906    0.8221 C   0  0  0  0  0  0  0  0  0  0  0  0 
    6.5671    0.2936    1.0353 O   0  0  0  0  0  0  0  0  0  0  0  0 
    0.6274   -0.9513   -0.4380 H   0  0  0  0  0  0  0  0  0  0  0  0 
    0.5985    0.8155   -0.5659 H   0  0  0  0  0  0  0  0  0  0  0  0 
    0.6221    0.0439    1.0278 H   0  0  0  0  0  0  0  0  0  0  0  0 
    6.2741    4.3349    1.1165 H   0  0  0  0  0  0  0  0  0  0  0  0 
    4.6654    4.0862    1.8105 H   0  0  0  0  0  0  0  0  0  0  0  0 
    4.8678    4.1472    0.0593 H   0  0  0  0  0  0  0  0  0  0  0  0 
    2.8626   -1.0723    1.8510 H   0  0  0  0  0  0  0  0  0  0  0  0 
    2.6804   -2.1226    0.4483 H   0  0  0  0  0  0  0  0  0  0  0  0 
    4.9486   -1.7092   -0.3047 H   0  0  0  0  0  0  0  0  0  0  0  0 
    5.0771   -1.9592    1.4314 H   0  0  0  0  0  0  0  0  0  0  0  0 
    2.5591    1.6082    1.4657 H   0  0  0  0  0  0  0  0  0  0  0  0 
    2.8363    2.1498   -0.1802 H   0  0  0  0  0  0  0  0  0  0  0  0 
    7.7517    1.9849    1.2875 H   0  0  0  0  0  0  0  0  0  0  0  0 
    2.8867   -0.0976   -1.0437 H   0  0  0  0  0  0  0  0  0  0  0  0 
  1 14  1  0  0  0  0 
  2 15  1  0  0  0  0 
  2 16  1  0  0  0  0 
  3 18  1  0  0  0  0 
  4  3  1  0  0  0  0 
  4 10  1  0  0  0  0 
  4 21  1  0  0  0  0 
  5  9  1  0  0  0  0 
  5 22  1  0  0  0  0 
  6 24  1  0  0  0  0 
  7 25  1  6  0  0  0 
  7  1  1  0  0  0  0 
  7  5  1  0  0  0  0 
  7  3  1  0  0  0  0 
  8  2  1  0  0  0  0 
  8  6  2  0  0  0  0 
  9 10  2  0  0  0  0 
  9  8  1  0  0  0  0 
 10 11  1  0  0  0  0 
 11  6  1  0  0  0  0 
 12  1  1  0  0  0  0 
 13  1  1  0  0  0  0 
 17  2  1  0  0  0  0 
 19  3  1  0  0  0  0 
 20  4  1  0  0  0  0 
 23  5  1  0  0  0  0 
M  END 
>  <HBA> 
1 
 
>  <HBD> 
0 
 
>  <TPSA> 
13.14 
 
>  <cid> 
62345 
 
>  <dipole> 
1.02 
 
>  <excitation_energy_1> 
5.097 
 
>  <excitation_energy_2> 
5.442 
 
>  <excitation_energy_3> 
5.552 
 
>  <excitation_energy_4> 
5.677 
 
>  <homo_energy> 
-5.483 
 
>  <homo_lumo_gap> 
6.327 
 
>  <logP> 
2.713 
 
>  <lumo_energy> 
0.844 
 
>  <melting_point> 
36.64 
 
>  <molecular_refractivity> 
45.91 
 
>  <oscillator_strength_1> 
0.0112 
 
>  <oscillator_strength_2> 
0.022 
 
>  <oscillator_strength_3> 
0.0041 
 
>  <oscillator_strength_4> 
0.1069 
 
>  <open_babel_can_smiles> 
C[C@@H]1CCc2c(C1)c(C)co2 
 
>  <mulliken_charges> 
25 
1   -0.4476 
2   -0.527834 
3   -0.267992 
4   -0.347443 
5   -0.335794 
6   0.010522 
7   -0.083372 
8   0.083703 
9   0.064233 
10   0.292346 
11   -0.459035 
12   0.141444 
13   0.141541 
14   0.140214 
15   0.15374 
16   0.15818 
17   0.157161 
18   0.138169 
19   0.132671 
20   0.152162 
21   0.153953 
22   0.139859 
23   0.138709 
24   0.141613 
25   0.12885 
 
>  <lowdin_charges> 
25 
1   -0.444482 
2   -0.436669 
3   -0.270947 
4   -0.277523 
5   -0.2708 
6   -0.103147 
7   -0.119551 
8   -0.049547 
9   -0.074398 
10   0.046419 
11   -0.111783 
12   0.149061 
13   0.149992 
14   0.145553 
15   0.15864 
16   0.15844 
17   0.157358 
18   0.141742 
19   0.145271 
20   0.151733 
21   0.159077 
22   0.145552 
23   0.148878 
24   0.163797 
25   0.137334 
 
$$$$ 
 
