PCCDB-ID:  57812 
public computational chemistry database (PCCDB) project, http://pccdb.org 
 
 35 35  0  0  0  0  0  0  0  0999 V2000 
    3.3950    2.2467    0.1605 C   0  0  0  0  0  0  0  0  0  0  0  0 
   13.1296    8.1282    3.2331 C   0  0  0  0  0  0  0  0  0  0  0  0 
    5.4830    6.2945    2.2308 C   0  0  0  0  0  0  0  0  0  0  0  0 
    8.8963    3.3626   -0.0968 C   0  0  0  0  0  0  0  0  0  0  0  0 
    4.6741    2.5355   -0.0738 C   0  0  0  0  0  0  0  0  0  0  0  0 
   12.6575    6.8427    3.8958 C   0  0  0  0  0  0  0  0  0  0  0  0 
    5.6097    3.1055    0.9479 C   0  0  0  0  0  0  0  0  0  0  0  0 
    7.9496    6.4334    2.7883 C   0  0  0  0  0  0  0  0  0  0  0  0 
    9.5815    5.0328    1.6791 C   0  0  0  0  0  0  0  0  0  0  0  0 
    6.9144    5.8447    2.0619 C   0  0  0  0  0  0  0  0  0  0  0  0 
    8.5741    4.4195    0.9324 C   0  0  0  0  0  0  0  0  0  0  0  0 
    9.2786    6.0315    2.6120 C   0  0  0  0  0  0  0  0  0  0  0  0 
    7.2456    4.8285    1.1475 C   0  0  0  0  0  0  0  0  0  0  0  0 
   10.3249    6.7092    3.4255 C   0  0  0  0  0  0  0  0  0  0  0  0 
   10.0996    7.5827    4.2426 O   0  0  0  0  0  0  0  0  0  0  0  0 
   11.5687    6.2394    3.1602 O   0  0  0  0  0  0  0  0  0  0  0  0 
    6.2430    4.2654    0.3781 O   0  0  0  0  0  0  0  0  0  0  0  0 
    2.7616    1.7999   -0.6007 H   0  0  0  0  0  0  0  0  0  0  0  0 
    2.9309    2.4401    1.1256 H   0  0  0  0  0  0  0  0  0  0  0  0 
   14.0036    8.5217    3.7653 H   0  0  0  0  0  0  0  0  0  0  0  0 
   12.3414    8.8855    3.2596 H   0  0  0  0  0  0  0  0  0  0  0  0 
   13.4146    7.9477    2.1913 H   0  0  0  0  0  0  0  0  0  0  0  0 
    5.4398    7.2680    2.7284 H   0  0  0  0  0  0  0  0  0  0  0  0 
    4.9030    5.5897    2.8411 H   0  0  0  0  0  0  0  0  0  0  0  0 
    4.9775    6.3709    1.2634 H   0  0  0  0  0  0  0  0  0  0  0  0 
    9.9690    3.3453   -0.3113 H   0  0  0  0  0  0  0  0  0  0  0  0 
    8.3557    3.5451   -1.0308 H   0  0  0  0  0  0  0  0  0  0  0  0 
    8.6142    2.3580    0.2448 H   0  0  0  0  0  0  0  0  0  0  0  0 
    5.1143    2.3425   -1.0514 H   0  0  0  0  0  0  0  0  0  0  0  0 
   12.3318    7.0240    4.9230 H   0  0  0  0  0  0  0  0  0  0  0  0 
   13.4406    6.0801    3.8926 H   0  0  0  0  0  0  0  0  0  0  0  0 
    6.3825    2.3696    1.2175 H   0  0  0  0  0  0  0  0  0  0  0  0 
    5.0709    3.3739    1.8667 H   0  0  0  0  0  0  0  0  0  0  0  0 
    7.7387    7.2233    3.5029 H   0  0  0  0  0  0  0  0  0  0  0  0 
   10.6147    4.7381    1.5298 H   0  0  0  0  0  0  0  0  0  0  0  0 
  1 19  1  0  0  0  0 
  2 21  1  0  0  0  0 
  2 20  1  0  0  0  0 
  2  6  1  0  0  0  0 
  3 23  1  0  0  0  0 
  3 24  1  0  0  0  0 
  4 28  1  0  0  0  0 
  4 11  1  0  0  0  0 
  5  1  2  0  0  0  0 
  5  7  1  0  0  0  0 
  6 30  1  0  0  0  0 
  7 32  1  0  0  0  0 
  7 33  1  0  0  0  0 
  8 34  1  0  0  0  0 
  9 12  2  0  0  0  0 
 10  3  1  0  0  0  0 
 10  8  2  0  0  0  0 
 11 13  2  0  0  0  0 
 11  9  1  0  0  0  0 
 12  8  1  0  0  0  0 
 12 14  1  0  0  0  0 
 13 10  1  0  0  0  0 
 14 15  2  0  0  0  0 
 16 14  1  0  0  0  0 
 16  6  1  0  0  0  0 
 17  7  1  0  0  0  0 
 17 13  1  0  0  0  0 
 18  1  1  0  0  0  0 
 22  2  1  0  0  0  0 
 25  3  1  0  0  0  0 
 26  4  1  0  0  0  0 
 27  4  1  0  0  0  0 
 29  5  1  0  0  0  0 
 31  6  1  0  0  0  0 
 35  9  1  0  0  0  0 
M  END 
>  <HBA> 
3 
 
>  <HBD> 
0 
 
>  <TPSA> 
35.53 
 
>  <cid> 
57812 
 
>  <dipole> 
2.39 
 
>  <excitation_energy_1> 
4.701 
 
>  <excitation_energy_2> 
4.907 
 
>  <excitation_energy_3> 
5.013 
 
>  <excitation_energy_4> 
5.374 
 
>  <homo_energy> 
-6.457 
 
>  <homo_lumo_gap> 
5.459 
 
>  <logP> 
3.045 
 
>  <lumo_energy> 
-0.999 
 
>  <melting_point> 
22.46 
 
>  <molecular_refractivity> 
68.09 
 
>  <oscillator_strength_1> 
0.0172 
 
>  <oscillator_strength_2> 
0.0003 
 
>  <oscillator_strength_3> 
0.3631 
 
>  <oscillator_strength_4> 
0.0009 
 
>  <open_babel_can_smiles> 
C=CCOc1c(C)cc(cc1C)C(=O)OCC 
 
>  <mulliken_charges> 
35 
1   -0.334728 
2   -0.461972 
3   -0.529492 
4   -0.529065 
5   -0.052464 
6   -0.039819 
7   -0.07575 
8   -0.246494 
9   -0.250983 
10   0.158131 
11   0.163277 
12   0.07583 
13   0.234982 
14   0.595018 
15   -0.498588 
16   -0.480763 
17   -0.538708 
18   0.149375 
19   0.143116 
20   0.148083 
21   0.1787 
22   0.155639 
23   0.15914 
24   0.158397 
25   0.177363 
26   0.156119 
27   0.174286 
28   0.158349 
29   0.143822 
30   0.169606 
31   0.149548 
32   0.145516 
33   0.142192 
34   0.15496 
35   0.147374 
 
>  <lowdin_charges> 
35 
1   -0.324547 
2   -0.45535 
3   -0.441713 
4   -0.438885 
5   -0.15052 
6   -0.126765 
7   -0.117449 
8   -0.143133 
9   -0.151329 
10   -0.019099 
11   -0.018902 
12   -0.051728 
13   0.085836 
14   0.198297 
15   -0.27871 
16   -0.196757 
17   -0.235718 
18   0.165056 
19   0.157563 
20   0.158263 
21   0.167151 
22   0.154168 
23   0.159969 
24   0.158813 
25   0.168979 
26   0.156871 
27   0.167243 
28   0.15671 
29   0.1599 
30   0.1573 
31   0.151553 
32   0.144015 
33   0.141223 
34   0.17403 
35   0.167666 
 
$$$$ 
 
