PCCDB-ID:  61101 
public computational chemistry database (PCCDB) project, http://pccdb.org 
 
 26 27  0  0  1  0  0  0  0  0999 V2000 
   -0.1635    0.4273    1.9408 C   0  0  0  0  0  0  0  0  0  0  0  0 
   -2.0142   -0.1434    0.4487 C   0  0  0  0  0  0  0  0  0  0  0  0 
   -1.3604   -1.7659    2.2084 C   0  0  0  0  0  0  0  0  0  0  0  0 
    1.9734   -0.9903   -0.2023 C   0  0  0  0  0  0  0  0  0  0  0  0 
    0.0480   -1.8743   -1.5515 C   0  0  0  0  0  0  0  0  0  0  0  0 
    1.0216   -3.1800    0.3223 C   0  0  0  0  0  0  0  0  0  0  0  0 
   -1.1868   -0.5005    1.5591 N   0  0  1  0  0  0  0  0  0  0  0  0 
    1.0168   -2.0132   -0.5048 N   0  0  2  0  0  0  0  0  0  0  0  0 
    0.8561    0.6938    0.9841 O   0  0  0  0  0  0  0  0  0  0  0  0 
    1.8634   -0.3576    1.0686 O   0  0  0  0  0  0  0  0  0  0  0  0 
   -1.4147   -0.2107   -0.8414 O   0  0  0  0  0  0  0  0  0  0  0  0 
   -0.9468   -2.9423    1.5230 O   0  0  0  0  0  0  0  0  0  0  0  0 
   -1.3058   -1.6226   -1.1920 O   0  0  0  0  0  0  0  0  0  0  0  0 
    0.5043   -3.0314    1.6399 O   0  0  0  0  0  0  0  0  0  0  0  0 
    0.2900    0.1045    2.8822 H   0  0  0  0  0  0  0  0  0  0  0  0 
   -0.5955    1.4318    2.0612 H   0  0  0  0  0  0  0  0  0  0  0  0 
   -2.9211   -0.7578    0.4589 H   0  0  0  0  0  0  0  0  0  0  0  0 
   -2.2849    0.9203    0.5030 H   0  0  0  0  0  0  0  0  0  0  0  0 
   -2.4302   -1.9705    2.3443 H   0  0  0  0  0  0  0  0  0  0  0  0 
   -0.8695   -1.7319    3.1860 H   0  0  0  0  0  0  0  0  0  0  0  0 
    1.9616   -0.2336   -0.9919 H   0  0  0  0  0  0  0  0  0  0  0  0 
    2.9788   -1.4296   -0.1231 H   0  0  0  0  0  0  0  0  0  0  0  0 
   -0.0538   -2.8235   -2.0931 H   0  0  0  0  0  0  0  0  0  0  0  0 
    0.3848   -1.0954   -2.2428 H   0  0  0  0  0  0  0  0  0  0  0  0 
    2.0541   -3.4919    0.5328 H   0  0  0  0  0  0  0  0  0  0  0  0 
    0.4868   -3.9892   -0.1869 H   0  0  0  0  0  0  0  0  0  0  0  0 
  1 16  1  0  0  0  0 
  1 15  1  0  0  0  0 
  2 17  1  0  0  0  0 
  2 18  1  0  0  0  0 
  3 19  1  0  0  0  0 
  3 20  1  0  0  0  0 
  4 22  1  0  0  0  0 
  4 10  1  0  0  0  0 
  5 13  1  0  0  0  0 
  6 25  1  0  0  0  0 
  6 14  1  0  0  0  0 
  7  2  1  6  0  0  0 
  7  1  1  0  0  0  0 
  7  3  1  0  0  0  0 
  8  5  1  1  0  0  0 
  8  4  1  0  0  0  0 
  8  6  1  0  0  0  0 
  9 10  1  0  0  0  0 
  9  1  1  0  0  0  0 
 11  2  1  0  0  0  0 
 12 14  1  0  0  0  0 
 12  3  1  0  0  0  0 
 13 11  1  0  0  0  0 
 21  4  1  0  0  0  0 
 23  5  1  0  0  0  0 
 24  5  1  0  0  0  0 
 26  6  1  0  0  0  0 
M  END 
>  <HBA> 
8 
 
>  <HBD> 
0 
 
>  <TPSA> 
61.86 
 
>  <cid> 
61101 
 
>  <dipole> 
0.09 
 
>  <excitation_energy_1> 
5.43 
 
>  <excitation_energy_2> 
5.455 
 
>  <excitation_energy_3> 
5.477 
 
>  <excitation_energy_4> 
5.965 
 
>  <homo_energy> 
-6.316 
 
>  <homo_lumo_gap> 
7.007 
 
>  <logP> 
-0.917 
 
>  <lumo_energy> 
0.691 
 
>  <melting_point> 
-15.75 
 
>  <molecular_refractivity> 
46.86 
 
>  <oscillator_strength_1> 
0.0001 
 
>  <oscillator_strength_2> 
0.003 
 
>  <oscillator_strength_3> 
0.0033 
 
>  <oscillator_strength_4> 
0.0002 
 
>  <open_babel_can_smiles> 
O1OCN2COOCN(C1)COOC2 
 
>  <mulliken_charges> 
26 
1   0.092363 
2   0.09466 
3   0.094263 
4   0.092344 
5   0.094358 
6   0.094521 
7   -0.361516 
8   -0.361492 
9   -0.279159 
10   -0.279673 
11   -0.281465 
12   -0.277161 
13   -0.27723 
14   -0.281109 
15   0.158973 
16   0.149332 
17   0.151787 
18   0.150724 
19   0.153869 
20   0.153437 
21   0.158941 
22   0.149367 
23   0.154062 
24   0.153441 
25   0.150618 
26   0.151743 
 
>  <lowdin_charges> 
26 
1   -0.084697 
2   -0.081862 
3   -0.083881 
4   -0.085303 
5   -0.086408 
6   -0.085035 
7   -0.160267 
8   -0.159984 
9   -0.161524 
10   -0.162419 
11   -0.163605 
12   -0.161512 
13   -0.162712 
14   -0.162472 
15   0.153949 
16   0.146767 
17   0.148485 
18   0.149698 
19   0.149998 
20   0.148825 
21   0.154906 
22   0.146442 
23   0.151808 
24   0.150719 
25   0.150282 
26   0.149802 
 
$$$$ 
 
