PCCDB-ID:  61134 
public computational chemistry database (PCCDB) project, http://pccdb.org 
 
 28 28  0  0  0  0  0  0  0  0999 V2000 
    1.4041    0.6541    0.0615 C   0  0  0  0  0  0  0  0  0  0  0  0 
    2.9223    0.4474    0.0465 C   0  0  0  0  0  0  0  0  0  0  0  0 
    3.3469   -0.7961   -0.7449 C   0  0  0  0  0  0  0  0  0  0  0  0 
    7.3257   -5.8224   -4.1546 C   0  0  0  0  0  0  0  0  0  0  0  0 
    6.1872   -5.0397   -4.3571 C   0  0  0  0  0  0  0  0  0  0  0  0 
    8.1930   -5.5179   -3.1040 C   0  0  0  0  0  0  0  0  0  0  0  0 
    5.9199   -3.9548   -3.5213 C   0  0  0  0  0  0  0  0  0  0  0  0 
    7.9198   -4.4382   -2.2635 C   0  0  0  0  0  0  0  0  0  0  0  0 
    4.8555   -1.0057   -0.7530 C   0  0  0  0  0  0  0  0  0  0  0  0 
    6.5359   -2.4439   -1.5812 C   0  0  0  0  0  0  0  0  0  0  0  0 
    6.7854   -3.6442   -2.4666 C   0  0  0  0  0  0  0  0  0  0  0  0 
    5.1510   -2.1653   -1.5125 O   0  0  0  0  0  0  0  0  0  0  0  0 
    1.1286    1.5447    0.6373 H   0  0  0  0  0  0  0  0  0  0  0  0 
    0.8924   -0.2059    0.5102 H   0  0  0  0  0  0  0  0  0  0  0  0 
    1.0118    0.7786   -0.9551 H   0  0  0  0  0  0  0  0  0  0  0  0 
    3.2894    0.3667    1.0795 H   0  0  0  0  0  0  0  0  0  0  0  0 
    3.4074    1.3363   -0.3810 H   0  0  0  0  0  0  0  0  0  0  0  0 
    2.9993   -0.7173   -1.7835 H   0  0  0  0  0  0  0  0  0  0  0  0 
    2.8714   -1.6911   -0.3224 H   0  0  0  0  0  0  0  0  0  0  0  0 
    7.5330   -6.6660   -4.8077 H   0  0  0  0  0  0  0  0  0  0  0  0 
    5.5043   -5.2741   -5.1698 H   0  0  0  0  0  0  0  0  0  0  0  0 
    9.0775   -6.1259   -2.9322 H   0  0  0  0  0  0  0  0  0  0  0  0 
    5.0324   -3.3486   -3.6693 H   0  0  0  0  0  0  0  0  0  0  0  0 
    8.5937   -4.2125   -1.4393 H   0  0  0  0  0  0  0  0  0  0  0  0 
    5.2338   -1.1212    0.2781 H   0  0  0  0  0  0  0  0  0  0  0  0 
    5.3663   -0.1268   -1.1856 H   0  0  0  0  0  0  0  0  0  0  0  0 
    7.0723   -1.5632   -1.9813 H   0  0  0  0  0  0  0  0  0  0  0  0 
    6.9445   -2.6271   -0.5725 H   0  0  0  0  0  0  0  0  0  0  0  0 
  1 14  1  0  0  0  0 
  1 13  1  0  0  0  0 
  2  1  1  0  0  0  0 
  2 16  1  0  0  0  0 
  3 19  1  0  0  0  0 
  3  2  1  0  0  0  0 
  4  6  1  0  0  0  0 
  5  4  2  0  0  0  0 
  5  7  1  0  0  0  0 
  6 22  1  0  0  0  0 
  6  8  2  0  0  0  0 
  7 11  2  0  0  0  0 
  8 24  1  0  0  0  0 
  9  3  1  0  0  0  0 
  9 25  1  0  0  0  0 
 10 12  1  0  0  0  0 
 10 28  1  0  0  0  0 
 11  8  1  0  0  0  0 
 11 10  1  0  0  0  0 
 12  9  1  0  0  0  0 
 15  1  1  0  0  0  0 
 17  2  1  0  0  0  0 
 18  3  1  0  0  0  0 
 20  4  1  0  0  0  0 
 21  5  1  0  0  0  0 
 23  7  1  0  0  0  0 
 26  9  1  0  0  0  0 
 27 10  1  0  0  0  0 
M  END 
>  <HBA> 
1 
 
>  <HBD> 
0 
 
>  <TPSA> 
9.23 
 
>  <cid> 
61134 
 
>  <dipole> 
1.2 
 
>  <excitation_energy_1> 
5.287 
 
>  <excitation_energy_2> 
5.827 
 
>  <excitation_energy_3> 
6.08 
 
>  <excitation_energy_4> 
6.165 
 
>  <homo_energy> 
-6.392 
 
>  <homo_lumo_gap> 
6.514 
 
>  <logP> 
3.003 
 
>  <lumo_energy> 
0.122 
 
>  <melting_point> 
-4.46 
 
>  <molecular_refractivity> 
51.72 
 
>  <oscillator_strength_1> 
0.0002 
 
>  <oscillator_strength_2> 
0.0379 
 
>  <oscillator_strength_3> 
0.0069 
 
>  <oscillator_strength_4> 
0.0289 
 
>  <open_babel_can_smiles> 
CCCCOCc1ccccc1 
 
>  <mulliken_charges> 
28 
1   -0.440198 
2   -0.257157 
3   -0.266387 
4   -0.128058 
5   -0.132855 
6   -0.129789 
7   -0.162605 
8   -0.179625 
9   0.000818 
10   -0.067313 
11   0.122972 
12   -0.48284 
13   0.143352 
14   0.14464 
15   0.144213 
16   0.133073 
17   0.132967 
18   0.142785 
19   0.145527 
20   0.126133 
21   0.127525 
22   0.126807 
23   0.144073 
24   0.119727 
25   0.115828 
26   0.115838 
27   0.133896 
28   0.126651 
 
>  <lowdin_charges> 
28 
1   -0.443446 
2   -0.271871 
3   -0.279532 
4   -0.161112 
5   -0.155286 
6   -0.15637 
7   -0.157821 
8   -0.168227 
9   -0.127322 
10   -0.1246 
11   -0.01205 
12   -0.268722 
13   0.150615 
14   0.148901 
15   0.147177 
16   0.138777 
17   0.140354 
18   0.146014 
19   0.149085 
20   0.156543 
21   0.157023 
22   0.156515 
23   0.166486 
24   0.153528 
25   0.12292 
26   0.124441 
27   0.135825 
28   0.132157 
 
$$$$ 
 
