PCCDB-ID:  67179 
public computational chemistry database (PCCDB) project, http://pccdb.org 
 
 29 28  0  0  1  0  0  0  0  0999 V2000 
    4.7129    0.9442   -0.4547 C   0  0  0  0  0  0  0  0  0  0  0  0 
    0.7361    3.2275    4.7166 C   0  0  0  0  0  0  0  0  0  0  0  0 
    1.8231    1.5347    6.2627 C   0  0  0  0  0  0  0  0  0  0  0  0 
    1.3464    2.1628   -0.5391 C   0  0  0  0  0  0  0  0  0  0  0  0 
    3.4443    0.8618   -0.8579 C   0  0  0  0  0  0  0  0  0  0  0  0 
    1.2313    1.1502    2.3937 C   0  0  0  0  0  0  0  0  0  0  0  0 
    1.5845    1.0061    3.8502 C   0  0  0  0  0  0  0  0  0  0  0  0 
    2.4815    1.1053    1.4929 C   0  0  0  0  0  0  0  0  0  0  0  0 
    1.3872    1.8727    4.8560 C   0  0  0  0  0  0  0  0  0  0  0  0 
    2.1854    0.9880   -0.0178 C   0  0  1  0  0  0  0  0  0  0  0  0 
    1.3752   -0.1810   -0.2746 O   0  0  0  0  0  0  0  0  0  0  0  0 
    5.5331    0.8230   -1.1576 H   0  0  0  0  0  0  0  0  0  0  0  0 
    4.9910    1.1419    0.5766 H   0  0  0  0  0  0  0  0  0  0  0  0 
    1.4107    4.0187    5.0728 H   0  0  0  0  0  0  0  0  0  0  0  0 
   -0.1679    3.2899    5.3388 H   0  0  0  0  0  0  0  0  0  0  0  0 
    0.4509    3.4687    3.6901 H   0  0  0  0  0  0  0  0  0  0  0  0 
    0.9697    1.5428    6.9558 H   0  0  0  0  0  0  0  0  0  0  0  0 
    2.5389    2.2764    6.6452 H   0  0  0  0  0  0  0  0  0  0  0  0 
    2.2945    0.5483    6.3195 H   0  0  0  0  0  0  0  0  0  0  0  0 
    0.3549    2.1586   -0.0767 H   0  0  0  0  0  0  0  0  0  0  0  0 
    1.2102    2.0787   -1.6221 H   0  0  0  0  0  0  0  0  0  0  0  0 
    1.8382    3.1165   -0.3225 H   0  0  0  0  0  0  0  0  0  0  0  0 
    3.2314    0.6621   -1.9091 H   0  0  0  0  0  0  0  0  0  0  0  0 
    0.6755    2.0753    2.2140 H   0  0  0  0  0  0  0  0  0  0  0  0 
    0.5686    0.3272    2.0933 H   0  0  0  0  0  0  0  0  0  0  0  0 
    2.0753    0.0623    4.0992 H   0  0  0  0  0  0  0  0  0  0  0  0 
    3.0980    0.2428    1.7860 H   0  0  0  0  0  0  0  0  0  0  0  0 
    3.0952    1.9959    1.6779 H   0  0  0  0  0  0  0  0  0  0  0  0 
    1.9238   -0.9551   -0.0662 H   0  0  0  0  0  0  0  0  0  0  0  0 
  1 13  1  0  0  0  0 
  2  9  1  0  0  0  0 
  2 14  1  0  0  0  0 
  2 15  1  0  0  0  0 
  3 19  1  0  0  0  0 
  3 18  1  0  0  0  0 
  3 17  1  0  0  0  0 
  4 22  1  0  0  0  0 
  4 20  1  0  0  0  0 
  4 10  1  0  0  0  0 
  5  1  2  0  0  0  0 
  6  7  1  0  0  0  0 
  7 26  1  0  0  0  0 
  7  9  2  0  0  0  0 
  8 28  1  0  0  0  0 
  8 27  1  0  0  0  0 
  8  6  1  0  0  0  0 
  9  3  1  0  0  0  0 
 10  5  1  6  0  0  0 
 10  8  1  0  0  0  0 
 11 29  1  0  0  0  0 
 11 10  1  0  0  0  0 
 12  1  1  0  0  0  0 
 16  2  1  0  0  0  0 
 21  4  1  0  0  0  0 
 23  5  1  0  0  0  0 
 24  6  1  0  0  0  0 
 25  6  1  0  0  0  0 
M  END 
>  <HBA> 
1 
 
>  <HBD> 
1 
 
>  <TPSA> 
20.23 
 
>  <cid> 
67179 
 
>  <dipole> 
1.26 
 
>  <excitation_energy_1> 
5.457 
 
>  <excitation_energy_2> 
5.651 
 
>  <excitation_energy_3> 
6.055 
 
>  <excitation_energy_4> 
6.105 
 
>  <homo_energy> 
-6.123 
 
>  <homo_lumo_gap> 
6.438 
 
>  <logP> 
2.67 
 
>  <lumo_energy> 
0.316 
 
>  <melting_point> 
-6.97 
 
>  <molecular_refractivity> 
50.44 
 
>  <oscillator_strength_1> 
0.0113 
 
>  <oscillator_strength_2> 
0.0021 
 
>  <oscillator_strength_3> 
0.0315 
 
>  <oscillator_strength_4> 
0.001 
 
>  <open_babel_can_smiles> 
C=C[C@](CCC=C(C)C)(O)C 
 
>  <mulliken_charges> 
29 
1   -0.347995 
2   -0.513434 
3   -0.505682 
4   -0.454956 
5   -0.083283 
6   -0.30611 
7   -0.164203 
8   -0.285244 
9   0.187542 
10   0.280143 
11   -0.637917 
12   0.142204 
13   0.145191 
14   0.149808 
15   0.152012 
16   0.154252 
17   0.148533 
18   0.147281 
19   0.149652 
20   0.161046 
21   0.151321 
22   0.146355 
23   0.132084 
24   0.139379 
25   0.157063 
26   0.106039 
27   0.123265 
28   0.139876 
29   0.385775 
 
>  <lowdin_charges> 
29 
1   -0.341989 
2   -0.445063 
3   -0.440394 
4   -0.441367 
5   -0.16442 
6   -0.278277 
7   -0.189887 
8   -0.287339 
9   -0.01204 
10   0.121909 
11   -0.460668 
12   0.16191 
13   0.15831 
14   0.154856 
15   0.15525 
16   0.154145 
17   0.152373 
18   0.152313 
19   0.153003 
20   0.158814 
21   0.154827 
22   0.154276 
23   0.154124 
24   0.14636 
25   0.157346 
26   0.142014 
27   0.139504 
28   0.148932 
29   0.341178 
 
$$$$ 
 
