PCCDB-ID:  10288 
public computational chemistry database (PCCDB) project, http://pccdb.org 
 
 30 32  0  0  0  0  0  0  0  0999 V2000 
    0.8226   -0.0199    0.0255 C   0  0  0  0  0  0  0  0  0  0  0  0 
    8.7992    3.3545    0.0213 C   0  0  0  0  0  0  0  0  0  0  0  0 
    7.4321    3.3715    0.0228 C   0  0  0  0  0  0  0  0  0  0  0  0 
    9.5005    2.1201    0.0211 C   0  0  0  0  0  0  0  0  0  0  0  0 
    3.0998    1.0588    0.0256 C   0  0  0  0  0  0  0  0  0  0  0  0 
    2.9805   -1.3400    0.0253 C   0  0  0  0  0  0  0  0  0  0  0  0 
    5.2830    2.1740    0.0249 C   0  0  0  0  0  0  0  0  0  0  0  0 
    2.3300   -0.0758    0.0253 C   0  0  0  0  0  0  0  0  0  0  0  0 
    6.6778    2.1555    0.0236 C   0  0  0  0  0  0  0  0  0  0  0  0 
    4.5264    0.9968    0.0254 C   0  0  0  0  0  0  0  0  0  0  0  0 
    8.8068    0.9359    0.0223 C   0  0  0  0  0  0  0  0  0  0  0  0 
    4.3534   -1.4572    0.0256 C   0  0  0  0  0  0  0  0  0  0  0  0 
    7.3708    0.8873    0.0236 C   0  0  0  0  0  0  0  0  0  0  0  0 
    5.1938   -0.2845    0.0254 C   0  0  0  0  0  0  0  0  0  0  0  0 
    6.6128   -0.3182    0.0256 C   0  0  0  0  0  0  0  0  0  0  0  0 
    9.4799   -0.2724    0.0224 O   0  0  0  0  0  0  0  0  0  0  0  0 
    4.9419   -2.6866    0.0261 O   0  0  0  0  0  0  0  0  0  0  0  0 
    7.2075   -1.5296    0.0289 O   0  0  0  0  0  0  0  0  0  0  0  0 
    0.4602    1.0126    0.0217 H   0  0  0  0  0  0  0  0  0  0  0  0 
    0.4056   -0.5201    0.9094 H   0  0  0  0  0  0  0  0  0  0  0  0 
    0.4052   -0.5269   -0.8542 H   0  0  0  0  0  0  0  0  0  0  0  0 
    9.3637    4.2827    0.0200 H   0  0  0  0  0  0  0  0  0  0  0  0 
    6.8885    4.3123    0.0237 H   0  0  0  0  0  0  0  0  0  0  0  0 
   10.5888    2.1084    0.0210 H   0  0  0  0  0  0  0  0  0  0  0  0 
    2.6316    2.0399    0.0262 H   0  0  0  0  0  0  0  0  0  0  0  0 
    2.3763   -2.2471    0.0256 H   0  0  0  0  0  0  0  0  0  0  0  0 
    4.7681    3.1312    0.0257 H   0  0  0  0  0  0  0  0  0  0  0  0 
   10.4366   -0.1155    0.0177 H   0  0  0  0  0  0  0  0  0  0  0  0 
    4.2334   -3.3503    0.0227 H   0  0  0  0  0  0  0  0  0  0  0  0 
    8.1752   -1.4097    0.0214 H   0  0  0  0  0  0  0  0  0  0  0  0 
  1 20  1  0  0  0  0 
  2  3  1  0  0  0  0 
  3  9  2  0  0  0  0 
  3 23  1  0  0  0  0 
  4  2  2  0  0  0  0 
  4 11  1  0  0  0  0 
  5 25  1  0  0  0  0 
  6  8  1  0  0  0  0 
  6 26  1  0  0  0  0 
  6 12  2  0  0  0  0 
  7 10  2  0  0  0  0 
  7 27  1  0  0  0  0 
  8  1  1  0  0  0  0 
  8  5  2  0  0  0  0 
  9  7  1  0  0  0  0 
 10 14  1  0  0  0  0 
 10  5  1  0  0  0  0 
 11 16  1  0  0  0  0 
 11 13  2  0  0  0  0 
 12 17  1  0  0  0  0 
 13  9  1  0  0  0  0 
 13 15  1  0  0  0  0 
 14 15  2  0  0  0  0 
 14 12  1  0  0  0  0 
 15 18  1  0  0  0  0 
 19  1  1  0  0  0  0 
 21  1  1  0  0  0  0 
 22  2  1  0  0  0  0 
 24  4  1  0  0  0  0 
 28 16  1  0  0  0  0 
 29 17  1  0  0  0  0 
 30 18  1  0  0  0  0 
M  END 
>  <HBA> 
3 
 
>  <HBD> 
3 
 
>  <TPSA> 
60.69 
 
>  <cid> 
10288 
 
>  <dipole> 
1.4 
 
>  <excitation_energy_1> 
2.984 
 
>  <excitation_energy_2> 
3.591 
 
>  <excitation_energy_3> 
3.818 
 
>  <excitation_energy_4> 
4.205 
 
>  <homo_energy> 
-4.52 
 
>  <homo_lumo_gap> 
3.41 
 
>  <logP> 
3.418 
 
>  <lumo_energy> 
-1.11 
 
>  <melting_point> 
220.75 
 
>  <molecular_refractivity> 
72.49 
 
>  <oscillator_strength_1> 
0.0689 
 
>  <oscillator_strength_2> 
0.1725 
 
>  <oscillator_strength_3> 
0.0007 
 
>  <oscillator_strength_4> 
0.0007 
 
>  <open_babel_can_smiles> 
Cc1cc2cc3cccc(c3c(c2c(c1)O)O)O 
 
>  <mulliken_charges> 
30 
1   -0.533688 
2   -0.144459 
3   -0.186677 
4   -0.210023 
5   -0.273326 
6   -0.268321 
7   -0.327251 
8   0.189024 
9   0.138354 
10   0.151921 
11   0.31391 
12   0.312845 
13   0.060345 
14   0.074247 
15   0.201493 
16   -0.697018 
17   -0.617849 
18   -0.637903 
19   0.156969 
20   0.159547 
21   0.159404 
22   0.130086 
23   0.126489 
24   0.11292 
25   0.114514 
26   0.100803 
27   0.11985 
28   0.423004 
29   0.403979 
30   0.446812 
 
>  <lowdin_charges> 
30 
1   -0.440565 
2   -0.150236 
3   -0.173826 
4   -0.231859 
5   -0.199943 
6   -0.248035 
7   -0.199333 
8   0.01406 
9   0.014547 
10   0.01932 
11   0.107483 
12   0.119475 
13   -0.075818 
14   -0.060469 
15   0.122892 
16   -0.389959 
17   -0.355591 
18   -0.355079 
19   0.15692 
20   0.159699 
21   0.159658 
22   0.159957 
23   0.158706 
24   0.150678 
25   0.15267 
26   0.147891 
27   0.154943 
28   0.365589 
29   0.354651 
30   0.361573 
 
$$$$ 
 
