PCCDB-ID:  51726 
public computational chemistry database (PCCDB) project, http://pccdb.org 
 
 35 35  0  0  1  0  0  0  0  0999 V2000 
    3.7833    0.7668   -1.0125 C   0  0  0  0  0  0  0  0  0  0  0  0 
   -1.8012   -1.1369    1.8057 C   0  0  0  0  0  0  0  0  0  0  0  0 
   -0.4368   -3.2740    1.9033 C   0  0  0  0  0  0  0  0  0  0  0  0 
    1.8418   -0.1933    3.7007 C   0  0  0  0  0  0  0  0  0  0  0  0 
    2.6828    0.1085   -0.1727 C   0  0  0  0  0  0  0  0  0  0  0  0 
    0.6913   -1.0610    1.6181 C   0  0  0  0  0  0  0  0  0  0  0  0 
   -0.4738   -1.7750    2.2617 C   0  0  0  0  0  0  0  0  0  0  0  0 
    1.6945   -0.3774    2.2032 C   0  0  0  0  0  0  0  0  0  0  0  0 
    2.8224    1.7974    1.6818 C   0  0  0  0  0  0  0  0  0  0  0  0 
    4.1682   -0.2498    1.8224 C   0  0  0  0  0  0  0  0  0  0  0  0 
    5.1146    1.8565    2.0145 C   0  0  0  0  0  0  0  0  0  0  0  0 
    2.8130    0.2991    1.3768 C   0  0  2  0  0  0  0  0  0  0  0  0 
    3.8465    2.4987    1.9593 N   0  0  0  0  0  0  0  0  0  0  0  0 
    5.2002    0.4391    2.1015 N   0  0  0  0  0  0  0  0  0  0  0  0 
    1.6261    2.4167    1.6012 O   0  0  0  0  0  0  0  0  0  0  0  0 
    4.2635   -1.5950    1.8782 O   0  0  0  0  0  0  0  0  0  0  0  0 
    6.1252    2.5208    2.0199 O   0  0  0  0  0  0  0  0  0  0  0  0 
    3.5953    0.5685   -2.0727 H   0  0  0  0  0  0  0  0  0  0  0  0 
    4.7747    0.3718   -0.7705 H   0  0  0  0  0  0  0  0  0  0  0  0 
    3.8082    1.8523   -0.8767 H   0  0  0  0  0  0  0  0  0  0  0  0 
   -2.6536   -1.6640    2.2489 H   0  0  0  0  0  0  0  0  0  0  0  0 
   -1.9093   -1.1869    0.7149 H   0  0  0  0  0  0  0  0  0  0  0  0 
   -1.8623   -0.0841    2.1031 H   0  0  0  0  0  0  0  0  0  0  0  0 
   -1.2876   -3.7984    2.3527 H   0  0  0  0  0  0  0  0  0  0  0  0 
    0.4823   -3.7493    2.2636 H   0  0  0  0  0  0  0  0  0  0  0  0 
   -0.4902   -3.4215    0.8173 H   0  0  0  0  0  0  0  0  0  0  0  0 
    1.0457   -0.6845    4.2616 H   0  0  0  0  0  0  0  0  0  0  0  0 
    1.8316    0.8699    3.9696 H   0  0  0  0  0  0  0  0  0  0  0  0 
    2.7978   -0.5971    4.0547 H   0  0  0  0  0  0  0  0  0  0  0  0 
    2.6654   -0.9674   -0.3832 H   0  0  0  0  0  0  0  0  0  0  0  0 
    1.7084    0.5030   -0.4836 H   0  0  0  0  0  0  0  0  0  0  0  0 
    0.6778   -1.1337    0.5312 H   0  0  0  0  0  0  0  0  0  0  0  0 
   -0.4154   -1.6877    3.3516 H   0  0  0  0  0  0  0  0  0  0  0  0 
    0.9329    1.7418    1.4860 H   0  0  0  0  0  0  0  0  0  0  0  0 
    3.3785   -1.9767    1.7356 H   0  0  0  0  0  0  0  0  0  0  0  0 
  1 20  1  0  0  0  0 
  1 19  1  0  0  0  0 
  1  5  1  0  0  0  0 
  2 23  1  0  0  0  0 
  2 21  1  0  0  0  0 
  2  7  1  0  0  0  0 
  3  7  1  0  0  0  0 
  3 25  1  0  0  0  0 
  3 24  1  0  0  0  0 
  4 28  1  0  0  0  0 
  4 29  1  0  0  0  0 
  4 27  1  0  0  0  0 
  5 12  1  0  0  0  0 
  6  8  2  0  0  0  0 
  6  7  1  0  0  0  0 
  7 33  1  0  0  0  0 
  8  4  1  0  0  0  0 
  9 13  2  0  0  0  0 
 10 16  1  0  0  0  0 
 10 14  2  0  0  0  0 
 11 17  2  0  0  0  0 
 11 14  1  0  0  0  0 
 12  9  1  0  0  0  0 
 12 10  1  0  0  0  0 
 12  8  1  1  0  0  0 
 13 11  2  0  0  0  0 
 15  9  1  0  0  0  0 
 18  1  1  0  0  0  0 
 22  2  1  0  0  0  0 
 26  3  1  0  0  0  0 
 30  5  1  0  0  0  0 
 31  5  1  0  0  0  0 
 32  6  1  0  0  0  0 
 34 15  1  0  0  0  0 
 35 16  1  0  0  0  0 
M  END 
>  <HBA> 
5 
 
>  <HBD> 
2 
 
>  <TPSA> 
75.27 
 
>  <cid> 
51726 
 
>  <dipole> 
10.59 
 
>  <excitation_energy_1> 
4.015 
 
>  <excitation_energy_2> 
4.232 
 
>  <excitation_energy_3> 
5.145 
 
>  <excitation_energy_4> 
5.506 
 
>  <homo_energy> 
-6.781 
 
>  <homo_lumo_gap> 
5.372 
 
>  <logP> 
2.009 
 
>  <lumo_energy> 
-1.41 
 
>  <melting_point> 
152.79 
 
>  <molecular_refractivity> 
71.37 
 
>  <oscillator_strength_1> 
0.0004 
 
>  <oscillator_strength_2> 
0.0002 
 
>  <oscillator_strength_3> 
0.04 
 
>  <oscillator_strength_4> 
0.0005 
 
>  <open_babel_can_smiles> 
CC[C@@]1(/C(=C/C(C)C)/C)C(=N[C](=[N]=C1O)=O)O 
 
>  <mulliken_charges> 
35 
1   -0.475698 
2   -0.445315 
3   -0.4455 
4   -0.535609 
5   -0.271084 
6   -0.166319 
7   -0.118605 
8   0.059003 
9   0.543472 
10   0.542377 
11   0.616885 
12   -0.160833 
13   -0.471821 
14   -0.471668 
15   -0.580181 
16   -0.580088 
17   -0.431413 
18   0.158746 
19   0.183139 
20   0.183113 
21   0.157209 
22   0.146874 
23   0.149467 
24   0.157139 
25   0.14926 
26   0.147005 
27   0.17026 
28   0.188626 
29   0.188936 
30   0.150952 
31   0.151293 
32   0.139038 
33   0.141948 
34   0.414576 
35   0.414814 
 
>  <lowdin_charges> 
35 
1   -0.450651 
2   -0.438731 
3   -0.440791 
4   -0.455491 
5   -0.265398 
6   -0.174277 
7   -0.120268 
8   -0.051165 
9   0.145903 
10   0.14612 
11   0.177728 
12   -0.062687 
13   -0.187395 
14   -0.187229 
15   -0.332837 
16   -0.332488 
17   -0.212273 
18   0.160222 
19   0.167224 
20   0.165821 
21   0.158087 
22   0.147804 
23   0.150734 
24   0.158169 
25   0.152369 
26   0.147954 
27   0.166433 
28   0.172883 
29   0.174347 
30   0.148228 
31   0.149915 
32   0.156422 
33   0.145853 
34   0.360481 
35   0.358985 
 
$$$$ 
 
