PCCDB-ID:  34712 
public computational chemistry database (PCCDB) project, http://pccdb.org 
 
 32 32  0  0  1  0  0  0  0  0999 V2000 
    1.7483    0.2029    1.6286 C   0  0  0  0  0  0  0  0  0  0  0  0 
    1.1914    1.0637   -0.6427 C   0  0  0  0  0  0  0  0  0  0  0  0 
    2.7792   -2.5381   -2.6358 C   0  0  0  0  0  0  0  0  0  0  0  0 
    0.3730   -1.9939   -2.1240 C   0  0  0  0  0  0  0  0  0  0  0  0 
    2.2113   -2.6231    0.4212 C   0  0  0  0  0  0  0  0  0  0  0  0 
    4.3166   -1.5000    0.6163 C   0  0  0  0  0  0  0  0  0  0  0  0 
    1.2954   -0.2102    0.2156 C   0  0  0  0  0  0  0  0  0  0  0  0 
    1.8341   -1.5571   -1.9245 C   0  0  0  0  0  0  0  0  0  0  0  0 
    3.6925   -2.8904    0.7777 C   0  0  2  0  0  0  0  0  0  0  0  0 
    2.2016   -1.3145   -0.4275 C   0  0  0  0  0  0  0  0  0  0  0  0 
    4.3110   -3.8773   -0.0402 O   0  0  0  0  0  0  0  0  0  0  0  0 
    3.5819   -0.8542   -0.4231 O   0  0  0  0  0  0  0  0  0  0  0  0 
    1.0117    0.8846    2.0688 H   0  0  0  0  0  0  0  0  0  0  0  0 
    2.7052    0.7334    1.5886 H   0  0  0  0  0  0  0  0  0  0  0  0 
    1.8544   -0.6427    2.3165 H   0  0  0  0  0  0  0  0  0  0  0  0 
    0.6416    1.8408   -0.0993 H   0  0  0  0  0  0  0  0  0  0  0  0 
    0.6691    0.9020   -1.5902 H   0  0  0  0  0  0  0  0  0  0  0  0 
    2.1911    1.4533   -0.8655 H   0  0  0  0  0  0  0  0  0  0  0  0 
    2.5461   -2.5729   -3.7061 H   0  0  0  0  0  0  0  0  0  0  0  0 
    2.6801   -3.5623   -2.2558 H   0  0  0  0  0  0  0  0  0  0  0  0 
    3.8201   -2.2120   -2.5389 H   0  0  0  0  0  0  0  0  0  0  0  0 
    0.1627   -2.1280   -3.1914 H   0  0  0  0  0  0  0  0  0  0  0  0 
   -0.3424   -1.2607   -1.7393 H   0  0  0  0  0  0  0  0  0  0  0  0 
    0.1691   -2.9520   -1.6305 H   0  0  0  0  0  0  0  0  0  0  0  0 
    1.6155   -2.5058    1.3310 H   0  0  0  0  0  0  0  0  0  0  0  0 
    1.8023   -3.4837   -0.1137 H   0  0  0  0  0  0  0  0  0  0  0  0 
    5.3665   -1.5556    0.3113 H   0  0  0  0  0  0  0  0  0  0  0  0 
    4.2568   -0.9314    1.5557 H   0  0  0  0  0  0  0  0  0  0  0  0 
    0.2912   -0.6481    0.3096 H   0  0  0  0  0  0  0  0  0  0  0  0 
    1.9708   -0.5928   -2.4272 H   0  0  0  0  0  0  0  0  0  0  0  0 
    3.8037   -3.2692    1.7977 H   0  0  0  0  0  0  0  0  0  0  0  0 
    4.3275   -3.5371   -0.9483 H   0  0  0  0  0  0  0  0  0  0  0  0 
  1 13  1  0  0  0  0 
  1 15  1  0  0  0  0 
  2 16  1  0  0  0  0 
  2  7  1  0  0  0  0 
  3 21  1  0  0  0  0 
  3 20  1  0  0  0  0 
  3  8  1  0  0  0  0 
  4  8  1  0  0  0  0 
  4 23  1  0  0  0  0 
  4 24  1  0  0  0  0 
  5  9  1  0  0  0  0 
  5 25  1  0  0  0  0 
  6  9  1  0  0  0  0 
  6 28  1  0  0  0  0 
  7 29  1  0  0  0  0 
  7  1  1  0  0  0  0 
  8 10  1  0  0  0  0 
  9 31  1  1  0  0  0 
 10 12  1  0  0  0  0 
 10  7  1  0  0  0  0 
 10  5  1  0  0  0  0 
 11  9  1  0  0  0  0 
 12  6  1  0  0  0  0 
 14  1  1  0  0  0  0 
 17  2  1  0  0  0  0 
 18  2  1  0  0  0  0 
 19  3  1  0  0  0  0 
 22  4  1  0  0  0  0 
 26  5  1  0  0  0  0 
 27  6  1  0  0  0  0 
 30  8  1  0  0  0  0 
 32 11  1  0  0  0  0 
M  END 
>  <HBA> 
2 
 
>  <HBD> 
1 
 
>  <TPSA> 
29.46 
 
>  <cid> 
34712 
 
>  <dipole> 
1.46 
 
>  <excitation_energy_1> 
6.034 
 
>  <excitation_energy_2> 
6.38 
 
>  <excitation_energy_3> 
6.537 
 
>  <excitation_energy_4> 
6.656 
 
>  <homo_energy> 
-6.514 
 
>  <homo_lumo_gap> 
8.381 
 
>  <logP> 
1.818 
 
>  <lumo_energy> 
1.867 
 
>  <melting_point> 
14.05 
 
>  <molecular_refractivity> 
50.35 
 
>  <oscillator_strength_1> 
0.0106 
 
>  <oscillator_strength_2> 
0.0014 
 
>  <oscillator_strength_3> 
0.0011 
 
>  <oscillator_strength_4> 
0.0069 
 
>  <open_babel_can_smiles> 
CC(C1(OC[C@@H](C1)O)C(C)C)C 
 
>  <mulliken_charges> 
32 
1   -0.466592 
2   -0.464941 
3   -0.489624 
4   -0.461507 
5   -0.367369 
6   -0.048815 
7   -0.086512 
8   -0.093037 
9   0.117348 
10   0.353525 
11   -0.636645 
12   -0.528249 
13   0.143715 
14   0.160074 
15   0.13804 
16   0.138166 
17   0.144896 
18   0.162432 
19   0.147057 
20   0.147331 
21   0.158011 
22   0.145043 
23   0.151105 
24   0.144738 
25   0.148566 
26   0.162347 
27   0.150447 
28   0.12579 
29   0.123833 
30   0.142566 
31   0.139255 
32   0.399005 
 
>  <lowdin_charges> 
32 
1   -0.45109 
2   -0.45129 
3   -0.454395 
4   -0.449249 
5   -0.317872 
6   -0.152438 
7   -0.131962 
8   -0.130325 
9   -0.013351 
10   0.119067 
11   -0.461487 
12   -0.287193 
13   0.152035 
14   0.154456 
15   0.144475 
16   0.150008 
17   0.147978 
18   0.156622 
19   0.152134 
20   0.145092 
21   0.152044 
22   0.150645 
23   0.152536 
24   0.147452 
25   0.15581 
26   0.161299 
27   0.14989 
28   0.133162 
29   0.138102 
30   0.150363 
31   0.147521 
32   0.339962 
 
$$$$ 
 
