PCCDB-ID:  13576 
public computational chemistry database (PCCDB) project, http://pccdb.org 
 
 31 30  0  0  0  0  0  0  0  0999 V2000 
    1.3376    0.6718   -2.1003 C   0  0  0  0  0  0  0  0  0  0  0  0 
    4.7398    2.6201    0.9879 C   0  0  0  0  0  0  0  0  0  0  0  0 
    1.9375    0.0641   -3.3740 C   0  0  0  0  0  0  0  0  0  0  0  0 
    5.9603    3.3153    0.3552 C   0  0  0  0  0  0  0  0  0  0  0  0 
    3.3550   -0.5096   -3.1963 C   0  0  0  0  0  0  0  0  0  0  0  0 
    4.4465    0.4958   -2.7871 C   0  0  0  0  0  0  0  0  0  0  0  0 
    4.6883    1.6091   -3.8167 C   0  0  0  0  0  0  0  0  0  0  0  0 
    5.8907    2.5260   -3.5298 C   0  0  0  0  0  0  0  0  0  0  0  0 
    5.7870    3.3498   -2.2380 C   0  0  0  0  0  0  0  0  0  0  0  0 
    6.3202    2.6692   -0.9802 C   0  0  0  0  0  0  0  0  0  0  0  0 
    7.0063    1.6640   -1.0205 O   0  0  0  0  0  0  0  0  0  0  0  0 
    0.3050    0.9995   -2.2673 H   0  0  0  0  0  0  0  0  0  0  0  0 
    1.9066    1.5439   -1.7574 H   0  0  0  0  0  0  0  0  0  0  0  0 
    1.3274   -0.0581   -1.2811 H   0  0  0  0  0  0  0  0  0  0  0  0 
    4.5040    3.0663    1.9597 H   0  0  0  0  0  0  0  0  0  0  0  0 
    4.9435    1.5553    1.1388 H   0  0  0  0  0  0  0  0  0  0  0  0 
    3.8500    2.7107    0.3540 H   0  0  0  0  0  0  0  0  0  0  0  0 
    1.9365    0.8180   -4.1726 H   0  0  0  0  0  0  0  0  0  0  0  0 
    1.2812   -0.7433   -3.7259 H   0  0  0  0  0  0  0  0  0  0  0  0 
    6.8244    3.2111    1.0199 H   0  0  0  0  0  0  0  0  0  0  0  0 
    5.7534    4.3844    0.2224 H   0  0  0  0  0  0  0  0  0  0  0  0 
    3.6574   -0.9935   -4.1363 H   0  0  0  0  0  0  0  0  0  0  0  0 
    3.3165   -1.3089   -2.4422 H   0  0  0  0  0  0  0  0  0  0  0  0 
    5.3850   -0.0487   -2.6260 H   0  0  0  0  0  0  0  0  0  0  0  0 
    4.1932    0.9351   -1.8131 H   0  0  0  0  0  0  0  0  0  0  0  0 
    3.7862    2.2309   -3.9129 H   0  0  0  0  0  0  0  0  0  0  0  0 
    4.8406    1.1475   -4.8033 H   0  0  0  0  0  0  0  0  0  0  0  0 
    6.0007    3.2169   -4.3751 H   0  0  0  0  0  0  0  0  0  0  0  0 
    6.8101    1.9306   -3.4838 H   0  0  0  0  0  0  0  0  0  0  0  0 
    4.7564    3.6882   -2.0544 H   0  0  0  0  0  0  0  0  0  0  0  0 
    6.3730    4.2785   -2.3313 H   0  0  0  0  0  0  0  0  0  0  0  0 
  1 13  1  0  0  0  0 
  1 14  1  0  0  0  0 
  2 16  1  0  0  0  0 
  2 15  1  0  0  0  0 
  3  5  1  0  0  0  0 
  3  1  1  0  0  0  0 
  4  2  1  0  0  0  0 
  4 20  1  0  0  0  0 
  5  6  1  0  0  0  0 
  5 23  1  0  0  0  0 
  6 24  1  0  0  0  0 
  6 25  1  0  0  0  0 
  7  8  1  0  0  0  0 
  7  6  1  0  0  0  0 
  8 29  1  0  0  0  0 
  8  9  1  0  0  0  0 
  9 30  1  0  0  0  0 
  9 10  1  0  0  0  0 
 10  4  1  0  0  0  0 
 11 10  2  0  0  0  0 
 12  1  1  0  0  0  0 
 17  2  1  0  0  0  0 
 18  3  1  0  0  0  0 
 19  3  1  0  0  0  0 
 21  4  1  0  0  0  0 
 22  5  1  0  0  0  0 
 26  7  1  0  0  0  0 
 27  7  1  0  0  0  0 
 28  8  1  0  0  0  0 
 31  9  1  0  0  0  0 
M  END 
>  <HBA> 
1 
 
>  <HBD> 
0 
 
>  <TPSA> 
17.07 
 
>  <cid> 
13576 
 
>  <dipole> 
2.41 
 
>  <excitation_energy_1> 
4.35 
 
>  <excitation_energy_2> 
6.012 
 
>  <excitation_energy_3> 
6.425 
 
>  <excitation_energy_4> 
6.563 
 
>  <homo_energy> 
-6.523 
 
>  <homo_lumo_gap> 
6.229 
 
>  <logP> 
3.326 
 
>  <lumo_energy> 
-0.294 
 
>  <melting_point> 
-7.83 
 
>  <molecular_refractivity> 
50.38 
 
>  <oscillator_strength_1> 
0.0002 
 
>  <oscillator_strength_2> 
0.0074 
 
>  <oscillator_strength_3> 
0.0008 
 
>  <oscillator_strength_4> 
0.0031 
 
>  <open_babel_can_smiles> 
CCCCCCCC(=O)CC 
 
>  <mulliken_charges> 
31 
1   -0.443818 
2   -0.456001 
3   -0.249867 
4   -0.328911 
5   -0.25452 
6   -0.259151 
7   -0.258764 
8   -0.259116 
9   -0.364088 
10   0.461947 
11   -0.451762 
12   0.14096 
13   0.140103 
14   0.141772 
15   0.155768 
16   0.171438 
17   0.15216 
18   0.133081 
19   0.130393 
20   0.165846 
21   0.14008 
22   0.126264 
23   0.126806 
24   0.15049 
25   0.127929 
26   0.126841 
27   0.129363 
28   0.127376 
29   0.161991 
30   0.151593 
31   0.163797 
 
>  <lowdin_charges> 
31 
1   -0.447344 
2   -0.436472 
3   -0.277977 
4   -0.30113 
5   -0.277384 
6   -0.281965 
7   -0.275026 
8   -0.277869 
9   -0.31179 
10   0.161189 
11   -0.241417 
12   0.148136 
13   0.143742 
14   0.146908 
15   0.156529 
16   0.159797 
17   0.149557 
18   0.139478 
19   0.14285 
20   0.165089 
21   0.14703 
22   0.139285 
23   0.140432 
24   0.152559 
25   0.136447 
26   0.13515 
27   0.140661 
28   0.144597 
29   0.157403 
30   0.154268 
31   0.167264 
 
$$$$ 
 
