PCCDB-ID:  27184 
public computational chemistry database (PCCDB) project, http://pccdb.org 
 
 28 28  0  0  1  0  0  0  0  0999 V2000 
    1.1211    0.4065   -0.9071 C   0  0  0  0  0  0  0  0  0  0  0  0 
    2.5741   -1.0415    4.9009 C   0  0  0  0  0  0  0  0  0  0  0  0 
    4.9209    0.4662   -1.8761 C   0  0  0  0  0  0  0  0  0  0  0  0 
    5.4986   -0.0416   -0.5471 C   0  0  0  0  0  0  0  0  0  0  0  0 
    3.4800    0.9713   -1.7054 C   0  0  0  0  0  0  0  0  0  0  0  0 
    4.5950   -1.1119    0.0840 C   0  0  0  0  0  0  0  0  0  0  0  0 
    2.5601   -0.0942   -1.0783 C   0  0  1  0  0  0  0  0  0  0  0  0 
    3.1486   -0.6294    0.2382 C   0  0  2  0  0  0  0  0  0  0  0  0 
    2.9810    0.3673    2.5081 C   0  0  0  0  0  0  0  0  0  0  0  0 
    3.1125    0.4874    1.1878 O   0  0  0  0  0  0  0  0  0  0  0  0 
    3.0447    1.7137    3.4609 S   0  0  0  0  0  0  0  0  0  0  0  0 
    2.7280   -1.3016    3.1065 S   0  0  0  0  0  0  0  0  0  0  0  0 
    0.7052    0.7167   -1.8722 H   0  0  0  0  0  0  0  0  0  0  0  0 
    1.0831    1.2659   -0.2301 H   0  0  0  0  0  0  0  0  0  0  0  0 
    0.4702   -0.3759   -0.4979 H   0  0  0  0  0  0  0  0  0  0  0  0 
    2.4259   -2.0388    5.3254 H   0  0  0  0  0  0  0  0  0  0  0  0 
    1.7181   -0.4030    5.1235 H   0  0  0  0  0  0  0  0  0  0  0  0 
    3.4824   -0.5890    5.3011 H   0  0  0  0  0  0  0  0  0  0  0  0 
    4.9370   -0.3488   -2.6155 H   0  0  0  0  0  0  0  0  0  0  0  0 
    5.5532    1.2660   -2.2811 H   0  0  0  0  0  0  0  0  0  0  0  0 
    5.6028    0.7984    0.1511 H   0  0  0  0  0  0  0  0  0  0  0  0 
    6.5033   -0.4546   -0.6980 H   0  0  0  0  0  0  0  0  0  0  0  0 
    3.0662    1.2740   -2.6758 H   0  0  0  0  0  0  0  0  0  0  0  0 
    3.4746    1.8652   -1.0680 H   0  0  0  0  0  0  0  0  0  0  0  0 
    4.9841   -1.4313    1.0573 H   0  0  0  0  0  0  0  0  0  0  0  0 
    4.5729   -2.0068   -0.5542 H   0  0  0  0  0  0  0  0  0  0  0  0 
    2.5438   -0.9653   -1.7522 H   0  0  0  0  0  0  0  0  0  0  0  0 
    2.5069   -1.4296    0.6218 H   0  0  0  0  0  0  0  0  0  0  0  0 
  1 15  1  0  0  0  0 
  1 14  1  0  0  0  0 
  2 17  1  0  0  0  0 
  2 18  1  0  0  0  0 
  2 16  1  0  0  0  0 
  3  5  1  0  0  0  0 
  3  4  1  0  0  0  0 
  4  6  1  0  0  0  0 
  4 21  1  0  0  0  0 
  5  7  1  0  0  0  0 
  5 24  1  0  0  0  0 
  6  8  1  0  0  0  0 
  6 25  1  0  0  0  0 
  7 27  1  6  0  0  0 
  7  1  1  0  0  0  0 
  7  8  1  0  0  0  0 
  8 28  1  1  0  0  0 
  8 10  1  0  0  0  0 
  9 12  1  0  0  0  0 
  9 11  2  0  0  0  0 
 10  9  1  0  0  0  0 
 12  2  1  0  0  0  0 
 13  1  1  0  0  0  0 
 19  3  1  0  0  0  0 
 20  3  1  0  0  0  0 
 22  4  1  0  0  0  0 
 23  5  1  0  0  0  0 
 26  6  1  0  0  0  0 
M  END 
>  <HBA> 
3 
 
>  <HBD> 
0 
 
>  <TPSA> 
66.62 
 
>  <cid> 
27184 
 
>  <dipole> 
3.48 
 
>  <excitation_energy_1> 
3.426 
 
>  <excitation_energy_2> 
4.702 
 
>  <excitation_energy_3> 
5.304 
 
>  <excitation_energy_4> 
5.405 
 
>  <homo_energy> 
-5.94 
 
>  <homo_lumo_gap> 
4.838 
 
>  <logP> 
3.23 
 
>  <lumo_energy> 
-1.102 
 
>  <melting_point> 
24.4 
 
>  <molecular_refractivity> 
59.73 
 
>  <oscillator_strength_1> 
0.0 
 
>  <oscillator_strength_2> 
0.0693 
 
>  <oscillator_strength_3> 
0.1321 
 
>  <oscillator_strength_4> 
0.0006 
 
>  <open_babel_can_smiles> 
CSC(=S)O[C@@H]1CCCC[C@@H]1C 
 
>  <mulliken_charges> 
28 
1   -0.457205 
2   -0.594182 
3   -0.265708 
4   -0.264365 
5   -0.264633 
6   -0.279018 
7   -0.09292 
8   0.08114 
9   0.06561 
10   -0.404141 
11   -0.196165 
12   0.160098 
13   0.14573 
14   0.172191 
15   0.140801 
16   0.18378 
17   0.212821 
18   0.212815 
19   0.125743 
20   0.137955 
21   0.158147 
22   0.136268 
23   0.132871 
24   0.158016 
25   0.160213 
26   0.139492 
27   0.128722 
28   0.165924 
 
>  <lowdin_charges> 
28 
1   -0.448565 
2   -0.537564 
3   -0.279621 
4   -0.279919 
5   -0.281289 
6   -0.287706 
7   -0.131618 
8   -0.002366 
9   -0.112835 
10   -0.15688 
11   -0.158729 
12   0.168345 
13   0.152454 
14   0.162215 
15   0.150096 
16   0.176413 
17   0.186326 
18   0.186389 
19   0.136648 
20   0.149055 
21   0.153198 
22   0.146946 
23   0.145778 
24   0.153107 
25   0.158182 
26   0.150046 
27   0.143939 
28   0.157956 
 
$$$$ 
 
