PCCDB-ID:  56216 
public computational chemistry database (PCCDB) project, http://pccdb.org 
 
 31 31  0  0  1  0  0  0  0  0999 V2000 
    1.9888   -2.2217    0.7510 C   0  0  0  0  0  0  0  0  0  0  0  0 
    2.3923   -1.1011    0.5495 C   0  0  0  0  0  0  0  0  0  0  0  0 
    3.2571    3.1107    3.8247 C   0  0  0  0  0  0  0  0  0  0  0  0 
    3.7523    1.6536    3.8831 C   0  0  0  0  0  0  0  0  0  0  0  0 
    3.7826    3.9603    2.6574 C   0  0  0  0  0  0  0  0  0  0  0  0 
    2.8814    0.2562    0.3020 C   0  0  0  0  0  0  0  0  0  0  0  0 
    3.1645    0.7523    2.7786 C   0  0  0  0  0  0  0  0  0  0  0  0 
    3.5976    3.3622    1.2519 C   0  0  0  0  0  0  0  0  0  0  0  0 
    3.8618    0.7585    1.3961 C   0  0  2  0  0  0  0  0  0  0  0  0 
    4.4801    2.1263    1.0292 C   0  0  1  0  0  0  0  0  0  0  0  0 
    6.0529    1.6186   -0.7027 C   0  0  0  0  0  0  0  0  0  0  0  0 
    6.8709    1.1283    0.1424 N   0  0  0  0  0  0  0  0  0  0  0  0 
    6.1781    1.7369   -2.0529 O   0  0  0  0  0  0  0  0  0  0  0  0 
    4.8629    2.1343   -0.3777 O   0  0  0  0  0  0  0  0  0  0  0  0 
    1.6360   -3.2123    0.9262 H   0  0  0  0  0  0  0  0  0  0  0  0 
    3.5237    3.6183    4.7616 H   0  0  0  0  0  0  0  0  0  0  0  0 
    2.1576    3.0950    3.7914 H   0  0  0  0  0  0  0  0  0  0  0  0 
    3.4499    1.2386    4.8533 H   0  0  0  0  0  0  0  0  0  0  0  0 
    4.8509    1.6187    3.8757 H   0  0  0  0  0  0  0  0  0  0  0  0 
    4.8547    4.1549    2.8072 H   0  0  0  0  0  0  0  0  0  0  0  0 
    3.2899    4.9407    2.6939 H   0  0  0  0  0  0  0  0  0  0  0  0 
    2.0241    0.9415    0.2349 H   0  0  0  0  0  0  0  0  0  0  0  0 
    3.3738    0.2904   -0.6758 H   0  0  0  0  0  0  0  0  0  0  0  0 
    2.1076    1.0265    2.6494 H   0  0  0  0  0  0  0  0  0  0  0  0 
    3.1526   -0.2870    3.1239 H   0  0  0  0  0  0  0  0  0  0  0  0 
    3.8924    4.1117    0.5092 H   0  0  0  0  0  0  0  0  0  0  0  0 
    2.5396    3.1370    1.0628 H   0  0  0  0  0  0  0  0  0  0  0  0 
    4.7000    0.0533    1.4289 H   0  0  0  0  0  0  0  0  0  0  0  0 
    5.4066    2.2423    1.5976 H   0  0  0  0  0  0  0  0  0  0  0  0 
    7.7329    0.8016   -0.2923 H   0  0  0  0  0  0  0  0  0  0  0  0 
    7.0319    1.3589   -2.3137 H   0  0  0  0  0  0  0  0  0  0  0  0 
  1 15  1  0  0  0  0 
  2  1  3  0  0  0  0 
  3  4  1  0  0  0  0 
  3 16  1  0  0  0  0 
  4 18  1  0  0  0  0 
  5 21  1  0  0  0  0 
  5 20  1  0  0  0  0 
  5  3  1  0  0  0  0 
  6  2  1  0  0  0  0 
  6  9  1  0  0  0  0 
  7 25  1  0  0  0  0 
  7  4  1  0  0  0  0 
  8  5  1  0  0  0  0 
  9 28  1  1  0  0  0 
  9  7  1  0  0  0  0 
 10  8  1  0  0  0  0 
 10  9  1  0  0  0  0 
 10 29  1  1  0  0  0 
 11 14  1  0  0  0  0 
 11 12  2  0  0  0  0 
 13 11  1  0  0  0  0 
 14 10  1  0  0  0  0 
 17  3  1  0  0  0  0 
 19  4  1  0  0  0  0 
 22  6  1  0  0  0  0 
 23  6  1  0  0  0  0 
 24  7  1  0  0  0  0 
 26  8  1  0  0  0  0 
 27  8  1  0  0  0  0 
 30 12  1  0  0  0  0 
 31 13  1  0  0  0  0 
M  END 
>  <HBA> 
3 
 
>  <HBD> 
1 
 
>  <TPSA> 
52.32 
 
>  <cid> 
56216 
 
>  <dipole> 
1.52 
 
>  <excitation_energy_1> 
5.836 
 
>  <excitation_energy_2> 
6.155 
 
>  <excitation_energy_3> 
6.211 
 
>  <excitation_energy_4> 
6.43 
 
>  <homo_energy> 
-6.838 
 
>  <homo_lumo_gap> 
8.022 
 
>  <logP> 
2.754 
 
>  <lumo_energy> 
1.184 
 
>  <melting_point> 
87.07 
 
>  <molecular_refractivity> 
55.42 
 
>  <oscillator_strength_1> 
0.0038 
 
>  <oscillator_strength_2> 
0.0015 
 
>  <oscillator_strength_3> 
0.0008 
 
>  <oscillator_strength_4> 
0.0461 
 
>  <open_babel_can_smiles> 
C#CC[C@@H]1CCCCC[C@@H]1OC(=N)O 
 
>  <mulliken_charges> 
31 
1   -0.537428 
2   0.374939 
3   -0.255998 
4   -0.269889 
5   -0.270388 
6   -0.418677 
7   -0.273917 
8   -0.287382 
9   -0.119589 
10   0.144898 
11   0.647979 
12   -0.625862 
13   -0.571697 
14   -0.477899 
15   0.182764 
16   0.131418 
17   0.129813 
18   0.134996 
19   0.138684 
20   0.135665 
21   0.135112 
22   0.164186 
23   0.186918 
24   0.131409 
25   0.154258 
26   0.15651 
27   0.138833 
28   0.162845 
29   0.172807 
30   0.27682 
31   0.407872 
 
>  <lowdin_charges> 
31 
1   -0.27183 
2   -0.03566 
3   -0.276365 
4   -0.280905 
5   -0.274536 
6   -0.266606 
7   -0.277893 
8   -0.28646 
9   -0.137167 
10   0.004493 
11   0.191672 
12   -0.474606 
13   -0.365767 
14   -0.18043 
15   0.200875 
16   0.144232 
17   0.13557 
18   0.147443 
19   0.140714 
20   0.138813 
21   0.14594 
22   0.162913 
23   0.175129 
24   0.139111 
25   0.157007 
26   0.160974 
27   0.142505 
28   0.160543 
29   0.16175 
30   0.257897 
31   0.360644 
 
$$$$ 
 
