PCCDB-ID:  65523 
public computational chemistry database (PCCDB) project, http://pccdb.org 
 
 32 31  0  0  0  0  0  0  0  0999 V2000 
    1.7183    1.3124   -0.8484 C   0  0  0  0  0  0  0  0  0  0  0  0 
    0.2066    1.2636   -1.1398 C   0  0  0  0  0  0  0  0  0  0  0  0 
    2.1857    0.8669    0.5523 C   0  0  0  0  0  0  0  0  0  0  0  0 
    3.0900    3.9364    3.7776 C   0  0  0  0  0  0  0  0  0  0  0  0 
   -0.7119    2.1965   -0.3215 C   0  0  0  0  0  0  0  0  0  0  0  0 
    2.0830    5.0899    3.6530 C   0  0  0  0  0  0  0  0  0  0  0  0 
    2.0077    1.9279    1.6434 C   0  0  0  0  0  0  0  0  0  0  0  0 
    2.4876    2.5110    3.9806 C   0  0  0  0  0  0  0  0  0  0  0  0 
   -0.3986    3.6291   -0.3076 N   0  0  0  0  0  0  0  0  0  0  0  0 
    1.2982    5.0409    2.4091 N   0  0  0  0  0  0  0  0  0  0  0  0 
    2.6538    1.5402    2.8957 N   0  0  0  0  0  0  0  0  0  0  0  0 
    2.0929    2.3281   -1.0436 H   0  0  0  0  0  0  0  0  0  0  0  0 
    2.2089    0.6719   -1.5928 H   0  0  0  0  0  0  0  0  0  0  0  0 
   -0.1520    0.2314   -1.0078 H   0  0  0  0  0  0  0  0  0  0  0  0 
    0.0671    1.4963   -2.2065 H   0  0  0  0  0  0  0  0  0  0  0  0 
    3.2574    0.6248    0.4896 H   0  0  0  0  0  0  0  0  0  0  0  0 
    1.6824   -0.0614    0.8535 H   0  0  0  0  0  0  0  0  0  0  0  0 
    3.7407    4.1687    4.6315 H   0  0  0  0  0  0  0  0  0  0  0  0 
    3.7325    3.9378    2.8874 H   0  0  0  0  0  0  0  0  0  0  0  0 
   -0.7567    1.8576    0.7199 H   0  0  0  0  0  0  0  0  0  0  0  0 
   -1.7341    2.0893   -0.7080 H   0  0  0  0  0  0  0  0  0  0  0  0 
    2.6422    6.0335    3.6414 H   0  0  0  0  0  0  0  0  0  0  0  0 
    1.4567    5.1122    4.5644 H   0  0  0  0  0  0  0  0  0  0  0  0 
    0.9431    2.0586    1.8708 H   0  0  0  0  0  0  0  0  0  0  0  0 
    2.3626    2.9012    1.2620 H   0  0  0  0  0  0  0  0  0  0  0  0 
    1.4098    2.5879    4.1863 H   0  0  0  0  0  0  0  0  0  0  0  0 
    2.9296    2.0588    4.8763 H   0  0  0  0  0  0  0  0  0  0  0  0 
   -0.3578    3.9854   -1.2620 H   0  0  0  0  0  0  0  0  0  0  0  0 
    0.5188    3.8026    0.1013 H   0  0  0  0  0  0  0  0  0  0  0  0 
    0.5762    4.3254    2.4738 H   0  0  0  0  0  0  0  0  0  0  0  0 
    0.7916    5.9174    2.2937 H   0  0  0  0  0  0  0  0  0  0  0  0 
    3.6508    1.4041    2.7259 H   0  0  0  0  0  0  0  0  0  0  0  0 
  1  3  1  0  0  0  0 
  2 14  1  0  0  0  0 
  2  1  1  0  0  0  0 
  2  5  1  0  0  0  0 
  3 17  1  0  0  0  0 
  3  7  1  0  0  0  0 
  4  8  1  0  0  0  0 
  4 18  1  0  0  0  0 
  5  9  1  0  0  0  0 
  5 20  1  0  0  0  0 
  6  4  1  0  0  0  0 
  6 23  1  0  0  0  0 
  7 24  1  0  0  0  0 
  7 11  1  0  0  0  0 
  8 26  1  0  0  0  0 
  8 27  1  0  0  0  0 
  9 29  1  0  0  0  0 
 10 30  1  0  0  0  0 
 10  6  1  0  0  0  0 
 11  8  1  0  0  0  0 
 12  1  1  0  0  0  0 
 13  1  1  0  0  0  0 
 15  2  1  0  0  0  0 
 16  3  1  0  0  0  0 
 19  4  1  0  0  0  0 
 21  5  1  0  0  0  0 
 22  6  1  0  0  0  0 
 25  7  1  0  0  0  0 
 28  9  1  0  0  0  0 
 31 10  1  0  0  0  0 
 32 11  1  0  0  0  0 
M  END 
>  <HBA> 
3 
 
>  <HBD> 
3 
 
>  <TPSA> 
64.07 
 
>  <cid> 
65523 
 
>  <dipole> 
1.09 
 
>  <excitation_energy_1> 
5.245 
 
>  <excitation_energy_2> 
5.446 
 
>  <excitation_energy_3> 
5.598 
 
>  <excitation_energy_4> 
5.637 
 
>  <homo_energy> 
-5.704 
 
>  <homo_lumo_gap> 
7.565 
 
>  <logP> 
1.845 
 
>  <lumo_energy> 
1.861 
 
>  <melting_point> 
107.79 
 
>  <molecular_refractivity> 
48.79 
 
>  <oscillator_strength_1> 
0.0073 
 
>  <oscillator_strength_2> 
0.0063 
 
>  <oscillator_strength_3> 
0.0199 
 
>  <oscillator_strength_4> 
0.0023 
 
>  <open_babel_can_smiles> 
NCCCCCNCCCN 
 
>  <mulliken_charges> 
32 
1   -0.265219 
2   -0.260282 
3   -0.257705 
4   -0.25863 
5   -0.143759 
6   -0.146115 
7   -0.136057 
8   -0.144707 
9   -0.738472 
10   -0.722185 
11   -0.548604 
12   0.122952 
13   0.132043 
14   0.126065 
15   0.121354 
16   0.122199 
17   0.14077 
18   0.128353 
19   0.142636 
20   0.143279 
21   0.136443 
22   0.136931 
23   0.11623 
24   0.130921 
25   0.141911 
26   0.134212 
27   0.139197 
28   0.28947 
29   0.322374 
30   0.307394 
31   0.302705 
32   0.284296 
 
>  <lowdin_charges> 
32 
1   -0.28268 
2   -0.292755 
3   -0.278134 
4   -0.305917 
5   -0.210676 
6   -0.205227 
7   -0.214206 
8   -0.209108 
9   -0.564315 
10   -0.562184 
11   -0.35804 
12   0.134766 
13   0.146996 
14   0.14004 
15   0.13528 
16   0.137092 
17   0.145879 
18   0.145287 
19   0.148006 
20   0.138511 
21   0.141309 
22   0.142974 
23   0.118397 
24   0.135104 
25   0.126537 
26   0.135851 
27   0.145893 
28   0.250092 
29   0.256859 
30   0.25522 
31   0.258992 
32   0.244159 
 
$$$$ 
 
