PCCDB-ID:  28540 
public computational chemistry database (PCCDB) project, http://pccdb.org 
 
 20 19  0  0  0  0  0  0  0  0999 V2000 
    6.0542   -0.0841    2.2504 C   0  0  0  0  0  0  0  0  0  0  0  0 
    3.4043    5.0626    2.8485 C   0  0  0  0  0  0  0  0  0  0  0  0 
    2.6760    1.7683    1.3753 C   0  0  0  0  0  0  0  0  0  0  0  0 
    4.0960    1.2278    1.1826 C   0  0  0  0  0  0  0  0  0  0  0  0 
    2.5915    2.8966    2.3981 C   0  0  0  0  0  0  0  0  0  0  0  0 
    4.6078    0.3759    2.3394 C   0  0  0  0  0  0  0  0  0  0  0  0 
    3.9012    0.0689    3.2827 O   0  0  0  0  0  0  0  0  0  0  0  0 
    3.3942    3.9783    1.9472 O   0  0  0  0  0  0  0  0  0  0  0  0 
    6.7278    0.7820    2.2337 H   0  0  0  0  0  0  0  0  0  0  0  0 
    6.2282   -0.6405    1.3210 H   0  0  0  0  0  0  0  0  0  0  0  0 
    6.2954   -0.7166    3.1071 H   0  0  0  0  0  0  0  0  0  0  0  0 
    3.7979    4.7710    3.8361 H   0  0  0  0  0  0  0  0  0  0  0  0 
    2.3957    5.4838    2.9928 H   0  0  0  0  0  0  0  0  0  0  0  0 
    4.0513    5.8344    2.4223 H   0  0  0  0  0  0  0  0  0  0  0  0 
    2.0141    0.9582    1.7000 H   0  0  0  0  0  0  0  0  0  0  0  0 
    2.3005    2.1415    0.4152 H   0  0  0  0  0  0  0  0  0  0  0  0 
    4.7970    2.0557    1.0152 H   0  0  0  0  0  0  0  0  0  0  0  0 
    4.1533    0.6078    0.2753 H   0  0  0  0  0  0  0  0  0  0  0  0 
    2.9364    2.5479    3.3836 H   0  0  0  0  0  0  0  0  0  0  0  0 
    1.5439    3.2247    2.5107 H   0  0  0  0  0  0  0  0  0  0  0  0 
  1  6  1  0  0  0  0 
  1 11  1  0  0  0  0 
  2 13  1  0  0  0  0 
  2 12  1  0  0  0  0 
  3 15  1  0  0  0  0 
  3  5  1  0  0  0  0 
  4  3  1  0  0  0  0 
  4  6  1  0  0  0  0 
  5 20  1  0  0  0  0 
  5 19  1  0  0  0  0 
  6  7  2  0  0  0  0 
  8  5  1  0  0  0  0 
  8  2  1  0  0  0  0 
  9  1  1  0  0  0  0 
 10  1  1  0  0  0  0 
 14  2  1  0  0  0  0 
 16  3  1  0  0  0  0 
 17  4  1  0  0  0  0 
 18  4  1  0  0  0  0 
M  END 
>  <HBA> 
2 
 
>  <HBD> 
0 
 
>  <TPSA> 
26.3 
 
>  <cid> 
28540 
 
>  <dipole> 
1.62 
 
>  <excitation_energy_1> 
4.426 
 
>  <excitation_energy_2> 
5.76 
 
>  <excitation_energy_3> 
6.112 
 
>  <excitation_energy_4> 
6.4 
 
>  <homo_energy> 
-6.58 
 
>  <homo_lumo_gap> 
6.31 
 
>  <logP> 
1.002 
 
>  <lumo_energy> 
-0.269 
 
>  <melting_point> 
-14.12 
 
>  <molecular_refractivity> 
32.24 
 
>  <oscillator_strength_1> 
0.0 
 
>  <oscillator_strength_2> 
0.0002 
 
>  <oscillator_strength_3> 
0.0239 
 
>  <oscillator_strength_4> 
0.0042 
 
>  <open_babel_can_smiles> 
COCCCC(=O)C 
 
>  <mulliken_charges> 
20 
1   -0.527736 
2   -0.18956 
3   -0.268262 
4   -0.358447 
5   -0.023311 
6   0.45434 
7   -0.442767 
8   -0.465929 
9   0.170592 
10   0.165896 
11   0.177966 
12   0.130151 
13   0.129229 
14   0.15439 
15   0.154724 
16   0.1422 
17   0.179023 
18   0.156457 
19   0.142865 
20   0.118177 
 
>  <lowdin_charges> 
20 
1   -0.477396 
2   -0.279529 
3   -0.280047 
4   -0.316711 
5   -0.129956 
6   0.16964 
7   -0.243244 
8   -0.279228 
9   0.171233 
10   0.168308 
11   0.172438 
12   0.130851 
13   0.13047 
14   0.154081 
15   0.160555 
16   0.151214 
17   0.171335 
18   0.163534 
19   0.136193 
20   0.126258 
 
$$$$ 
 
