PCCDB-ID:  41561 
public computational chemistry database (PCCDB) project, http://pccdb.org 
 
 25 24  0  0  0  0  0  0  0  0999 V2000 
    2.1809    2.6295    0.3044 C   0  0  0  0  0  0  0  0  0  0  0  0 
    2.8885    1.3204   -1.7317 C   0  0  0  0  0  0  0  0  0  0  0  0 
    4.1104   -2.2889    3.6019 C   0  0  0  0  0  0  0  0  0  0  0  0 
    1.7864   -0.1139    1.7495 C   0  0  0  0  0  0  0  0  0  0  0  0 
    2.5710    0.1064    0.4498 C   0  0  0  0  0  0  0  0  0  0  0  0 
    2.2448   -1.3508    2.5113 C   0  0  0  0  0  0  0  0  0  0  0  0 
    2.0851    1.2781   -0.4221 C   0  0  0  0  0  0  0  0  0  0  0  0 
    0.7066    0.9860   -0.7212 O   0  0  0  0  0  0  0  0  0  0  0  0 
    3.5968   -1.1771    2.9047 O   0  0  0  0  0  0  0  0  0  0  0  0 
    3.2092    2.8432    0.6184 H   0  0  0  0  0  0  0  0  0  0  0  0 
    1.5381    2.6463    1.1891 H   0  0  0  0  0  0  0  0  0  0  0  0 
    1.8620    3.4441   -0.3595 H   0  0  0  0  0  0  0  0  0  0  0  0 
    3.9525    1.5067   -1.5446 H   0  0  0  0  0  0  0  0  0  0  0  0 
    2.5212    2.1220   -2.3863 H   0  0  0  0  0  0  0  0  0  0  0  0 
    2.7903    0.3710   -2.2683 H   0  0  0  0  0  0  0  0  0  0  0  0 
    5.1487   -2.0609    3.8589 H   0  0  0  0  0  0  0  0  0  0  0  0 
    4.0878   -3.2044    2.9878 H   0  0  0  0  0  0  0  0  0  0  0  0 
    3.5486   -2.4857    4.5302 H   0  0  0  0  0  0  0  0  0  0  0  0 
    0.7208   -0.2208    1.5173 H   0  0  0  0  0  0  0  0  0  0  0  0 
    1.8871    0.7516    2.4158 H   0  0  0  0  0  0  0  0  0  0  0  0 
    2.5029   -0.8055   -0.1597 H   0  0  0  0  0  0  0  0  0  0  0  0 
    3.6317    0.2524    0.6829 H   0  0  0  0  0  0  0  0  0  0  0  0 
    2.1480   -2.2518    1.8790 H   0  0  0  0  0  0  0  0  0  0  0  0 
    1.6108   -1.5090    3.4013 H   0  0  0  0  0  0  0  0  0  0  0  0 
    0.3659    1.7184   -1.2591 H   0  0  0  0  0  0  0  0  0  0  0  0 
  1 10  1  0  0  0  0 
  1 11  1  0  0  0  0 
  2 13  1  0  0  0  0 
  2  7  1  0  0  0  0 
  3 16  1  0  0  0  0 
  3 18  1  0  0  0  0 
  4 20  1  0  0  0  0 
  4  6  1  0  0  0  0 
  5 22  1  0  0  0  0 
  5  4  1  0  0  0  0 
  6  9  1  0  0  0  0 
  6 24  1  0  0  0  0 
  7  1  1  0  0  0  0 
  7  5  1  0  0  0  0 
  8  7  1  0  0  0  0 
  9  3  1  0  0  0  0 
 12  1  1  0  0  0  0 
 14  2  1  0  0  0  0 
 15  2  1  0  0  0  0 
 17  3  1  0  0  0  0 
 19  4  1  0  0  0  0 
 21  5  1  0  0  0  0 
 23  6  1  0  0  0  0 
 25  8  1  0  0  0  0 
M  END 
>  <HBA> 
2 
 
>  <HBD> 
1 
 
>  <TPSA> 
29.46 
 
>  <cid> 
41561 
 
>  <dipole> 
0.41 
 
>  <excitation_energy_1> 
6.409 
 
>  <excitation_energy_2> 
6.454 
 
>  <excitation_energy_3> 
6.622 
 
>  <excitation_energy_4> 
6.973 
 
>  <homo_energy> 
-6.746 
 
>  <homo_lumo_gap> 
8.604 
 
>  <logP> 
1.184 
 
>  <lumo_energy> 
1.859 
 
>  <melting_point> 
-6.54 
 
>  <molecular_refractivity> 
38.05 
 
>  <oscillator_strength_1> 
0.0276 
 
>  <oscillator_strength_2> 
0.0104 
 
>  <oscillator_strength_3> 
0.0155 
 
>  <oscillator_strength_4> 
0.0058 
 
>  <open_babel_can_smiles> 
COCCCC(O)(C)C 
 
>  <mulliken_charges> 
25 
1   -0.462123 
2   -0.452574 
3   -0.187938 
4   -0.283193 
5   -0.250754 
6   -0.017185 
7   0.304344 
8   -0.639702 
9   -0.460381 
10   0.14518 
11   0.158348 
12   0.126565 
13   0.141684 
14   0.12587 
15   0.152678 
16   0.154821 
17   0.127616 
18   0.126953 
19   0.157442 
20   0.140821 
21   0.130836 
22   0.147893 
23   0.114718 
24   0.115961 
25   0.38212 
 
>  <lowdin_charges> 
25 
1   -0.459876 
2   -0.454825 
3   -0.278631 
4   -0.282753 
5   -0.277101 
6   -0.128264 
7   0.125037 
8   -0.469881 
9   -0.275553 
10   0.153096 
11   0.156959 
12   0.143305 
13   0.150364 
14   0.142822 
15   0.155217 
16   0.151859 
17   0.130195 
18   0.12969 
19   0.156992 
20   0.147029 
21   0.145469 
22   0.151334 
23   0.122791 
24   0.126046 
25   0.338678 
 
$$$$ 
 
