PCCDB-ID:  7151 
public computational chemistry database (PCCDB) project, http://pccdb.org 
 
 17 17  0  0  0  0  0  0  0  0999 V2000 
    3.3345    0.8993   -0.2254 C   0  0  0  0  0  0  0  0  0  0  0  0 
    1.2755   -2.6053   -4.7237 C   0  0  0  0  0  0  0  0  0  0  0  0 
    1.9654   -2.3386   -3.5466 C   0  0  0  0  0  0  0  0  0  0  0  0 
    0.6206   -1.5496   -5.3631 C   0  0  0  0  0  0  0  0  0  0  0  0 
    1.2827   -0.0444   -3.7760 C   0  0  0  0  0  0  0  0  0  0  0  0 
    1.9730   -1.0287   -3.0545 C   0  0  0  0  0  0  0  0  0  0  0  0 
    2.7132   -0.7452   -1.7933 C   0  0  0  0  0  0  0  0  0  0  0  0 
    0.6164   -0.2893   -4.9090 N   0  0  0  0  0  0  0  0  0  0  0  0 
    3.3168   -1.5834   -1.1531 O   0  0  0  0  0  0  0  0  0  0  0  0 
    2.6408    0.5552   -1.4357 O   0  0  0  0  0  0  0  0  0  0  0  0 
    3.1721    1.9689   -0.0911 H   0  0  0  0  0  0  0  0  0  0  0  0 
    4.4011    0.6796   -0.3196 H   0  0  0  0  0  0  0  0  0  0  0  0 
    2.9297    0.3381    0.6209 H   0  0  0  0  0  0  0  0  0  0  0  0 
    1.2429   -3.6064   -5.1427 H   0  0  0  0  0  0  0  0  0  0  0  0 
    2.4947   -3.1124   -2.9996 H   0  0  0  0  0  0  0  0  0  0  0  0 
    0.0707   -1.7235   -6.2867 H   0  0  0  0  0  0  0  0  0  0  0  0 
    1.2704    0.9821   -3.4204 H   0  0  0  0  0  0  0  0  0  0  0  0 
  1 11  1  0  0  0  0 
  1 13  1  0  0  0  0 
  2  3  2  0  0  0  0 
  3  6  1  0  0  0  0 
  3 15  1  0  0  0  0 
  4  8  2  0  0  0  0 
  4  2  1  0  0  0  0 
  5 17  1  0  0  0  0 
  5  6  2  0  0  0  0 
  6  7  1  0  0  0  0 
  7 10  1  0  0  0  0 
  7  9  2  0  0  0  0 
  8  5  1  0  0  0  0 
 10  1  1  0  0  0  0 
 12  1  1  0  0  0  0 
 14  2  1  0  0  0  0 
 16  4  1  0  0  0  0 
M  END 
>  <HBA> 
3 
 
>  <HBD> 
0 
 
>  <TPSA> 
39.19 
 
>  <cid> 
7151 
 
>  <dipole> 
0.46 
 
>  <excitation_energy_1> 
4.291 
 
>  <excitation_energy_2> 
4.927 
 
>  <excitation_energy_3> 
4.957 
 
>  <excitation_energy_4> 
5.174 
 
>  <homo_energy> 
-7.072 
 
>  <homo_lumo_gap> 
5.543 
 
>  <logP> 
0.868 
 
>  <lumo_energy> 
-1.529 
 
>  <melting_point> 
44.77 
 
>  <molecular_refractivity> 
35.52 
 
>  <oscillator_strength_1> 
0.0006 
 
>  <oscillator_strength_2> 
0.0033 
 
>  <oscillator_strength_3> 
0.0 
 
>  <oscillator_strength_4> 
0.0864 
 
>  <open_babel_can_smiles> 
COC(=O)c1cccnc1 
 
>  <mulliken_charges> 
17 
1   -0.218522 
2   -0.148368 
3   -0.118157 
4   0.050453 
5   0.016306 
6   0.032706 
7   0.592437 
8   -0.412687 
9   -0.488442 
10   -0.463662 
11   0.168226 
12   0.173931 
13   0.173939 
14   0.146587 
15   0.175609 
16   0.150382 
17   0.169263 
 
>  <lowdin_charges> 
17 
1   -0.273507 
2   -0.173759 
3   -0.105319 
4   -0.073391 
5   -0.072857 
6   -0.063265 
7   0.198087 
8   -0.145128 
9   -0.267014 
10   -0.188227 
11   0.160731 
12   0.159687 
13   0.16233 
14   0.168004 
15   0.183098 
16   0.16059 
17   0.169942 
 
$$$$ 
 
