PCCDB-ID:  71662 
public computational chemistry database (PCCDB) project, http://pccdb.org 
 
 35 36  0  0  0  0  0  0  0  0999 V2000 
    0.4824   -0.4417   -0.0160 C   0  0  0  0  0  0  0  0  0  0  0  0 
    4.2868    2.7807   -0.3362 C   0  0  0  0  0  0  0  0  0  0  0  0 
    8.1573    2.3079    1.3602 C   0  0  0  0  0  0  0  0  0  0  0  0 
    7.1782    1.4318    2.1522 C   0  0  0  0  0  0  0  0  0  0  0  0 
    7.5978    2.6238   -0.0338 C   0  0  0  0  0  0  0  0  0  0  0  0 
    6.9350    0.1077    1.4193 C   0  0  0  0  0  0  0  0  0  0  0  0 
    7.1543    1.3594   -0.7984 C   0  0  0  0  0  0  0  0  0  0  0  0 
    2.5089    1.0730   -0.1582 C   0  0  0  0  0  0  0  0  0  0  0  0 
    2.8713   -1.2587    0.1537 C   0  0  0  0  0  0  0  0  0  0  0  0 
    1.9736   -0.2024    0.0008 C   0  0  0  0  0  0  0  0  0  0  0  0 
    3.8919    1.3280   -0.1725 C   0  0  0  0  0  0  0  0  0  0  0  0 
    6.3522    0.2785   -0.0156 C   0  0  0  0  0  0  0  0  0  0  0  0 
    4.2445   -1.0247    0.1379 C   0  0  0  0  0  0  0  0  0  0  0  0 
    4.8111    0.2654   -0.0233 C   0  0  0  0  0  0  0  0  0  0  0  0 
    5.1149   -2.0819    0.2848 O   0  0  0  0  0  0  0  0  0  0  0  0 
   -0.0709    0.4789    0.1957 H   0  0  0  0  0  0  0  0  0  0  0  0 
    0.1863   -1.1917    0.7265 H   0  0  0  0  0  0  0  0  0  0  0  0 
    0.1468   -0.8077   -0.9957 H   0  0  0  0  0  0  0  0  0  0  0  0 
    3.3976    3.3924   -0.5153 H   0  0  0  0  0  0  0  0  0  0  0  0 
    4.9682    2.9429   -1.1753 H   0  0  0  0  0  0  0  0  0  0  0  0 
    4.7727    3.1742    0.5630 H   0  0  0  0  0  0  0  0  0  0  0  0 
    9.1150    1.7740    1.2671 H   0  0  0  0  0  0  0  0  0  0  0  0 
    8.3704    3.2412    1.8974 H   0  0  0  0  0  0  0  0  0  0  0  0 
    6.2274    1.9670    2.2926 H   0  0  0  0  0  0  0  0  0  0  0  0 
    7.5728    1.2307    3.1568 H   0  0  0  0  0  0  0  0  0  0  0  0 
    8.3540    3.1464   -0.6351 H   0  0  0  0  0  0  0  0  0  0  0  0 
    6.7674    3.3251    0.0797 H   0  0  0  0  0  0  0  0  0  0  0  0 
    6.2858   -0.5508    2.0041 H   0  0  0  0  0  0  0  0  0  0  0  0 
    7.9003   -0.4130    1.3313 H   0  0  0  0  0  0  0  0  0  0  0  0 
    8.0736    0.8540   -1.1276 H   0  0  0  0  0  0  0  0  0  0  0  0 
    6.6289    1.6331   -1.7214 H   0  0  0  0  0  0  0  0  0  0  0  0 
    1.8292    1.9140   -0.2742 H   0  0  0  0  0  0  0  0  0  0  0  0 
    2.5035   -2.2768    0.2838 H   0  0  0  0  0  0  0  0  0  0  0  0 
    6.5990   -0.6554   -0.5298 H   0  0  0  0  0  0  0  0  0  0  0  0 
    4.5944   -2.8969    0.3535 H   0  0  0  0  0  0  0  0  0  0  0  0 
  1 10  1  0  0  0  0 
  1 16  1  0  0  0  0 
  1 17  1  0  0  0  0 
  2 11  1  0  0  0  0 
  2 21  1  0  0  0  0 
  3 23  1  0  0  0  0 
  3  4  1  0  0  0  0 
  4 24  1  0  0  0  0 
  4 25  1  0  0  0  0 
  5 27  1  0  0  0  0 
  5  3  1  0  0  0  0 
  6 28  1  0  0  0  0 
  6  4  1  0  0  0  0 
  7  5  1  0  0  0  0 
  7 12  1  0  0  0  0 
  8 10  1  0  0  0  0 
  9 33  1  0  0  0  0 
 10  9  2  0  0  0  0 
 11  8  2  0  0  0  0 
 11 14  1  0  0  0  0 
 12  6  1  0  0  0  0 
 13  9  1  0  0  0  0 
 13 15  1  0  0  0  0 
 14 12  1  0  0  0  0 
 14 13  2  0  0  0  0 
 15 35  1  0  0  0  0 
 18  1  1  0  0  0  0 
 19  2  1  0  0  0  0 
 20  2  1  0  0  0  0 
 22  3  1  0  0  0  0 
 26  5  1  0  0  0  0 
 29  6  1  0  0  0  0 
 30  7  1  0  0  0  0 
 31  7  1  0  0  0  0 
 32  8  1  0  0  0  0 
 34 12  1  0  0  0  0 
M  END 
>  <HBA> 
1 
 
>  <HBD> 
1 
 
>  <TPSA> 
20.23 
 
>  <cid> 
71662 
 
>  <dipole> 
1.35 
 
>  <excitation_energy_1> 
4.874 
 
>  <excitation_energy_2> 
4.969 
 
>  <excitation_energy_3> 
5.449 
 
>  <excitation_energy_4> 
5.514 
 
>  <homo_energy> 
-5.646 
 
>  <homo_lumo_gap> 
5.81 
 
>  <logP> 
4.057 
 
>  <lumo_energy> 
0.163 
 
>  <melting_point> 
77.06 
 
>  <molecular_refractivity> 
65.28 
 
>  <oscillator_strength_1> 
0.0516 
 
>  <oscillator_strength_2> 
0.0032 
 
>  <oscillator_strength_3> 
0.0037 
 
>  <oscillator_strength_4> 
0.0156 
 
>  <open_babel_can_smiles> 
Cc1cc(C)c(c(c1)O)C1CCCCC1 
 
>  <mulliken_charges> 
35 
1   -0.532586 
2   -0.541995 
3   -0.254887 
4   -0.258489 
5   -0.262279 
6   -0.255894 
7   -0.279227 
8   -0.253631 
9   -0.25476 
10   0.192721 
11   0.10614 
12   -0.150249 
13   0.31746 
14   0.053042 
15   -0.654288 
16   0.156623 
17   0.154315 
18   0.163048 
19   0.150878 
20   0.165384 
21   0.168147 
22   0.123748 
23   0.12517 
24   0.130508 
25   0.126686 
26   0.125821 
27   0.133468 
28   0.144868 
29   0.122088 
30   0.130407 
31   0.134805 
32   0.106929 
33   0.103299 
34   0.156158 
35   0.406574 
 
>  <lowdin_charges> 
35 
1   -0.442047 
2   -0.444307 
3   -0.277947 
4   -0.279411 
5   -0.288293 
6   -0.275239 
7   -0.282199 
8   -0.203146 
9   -0.228036 
10   0.006568 
11   0.001616 
12   -0.133023 
13   0.097106 
14   -0.049552 
15   -0.385023 
16   0.158095 
17   0.157399 
18   0.160191 
19   0.154672 
20   0.161616 
21   0.159328 
22   0.134602 
23   0.140883 
24   0.137583 
25   0.14123 
26   0.142572 
27   0.142254 
28   0.152322 
29   0.136701 
30   0.144399 
31   0.14463 
32   0.149644 
33   0.145392 
34   0.163286 
35   0.356134 
 
$$$$ 
 
