PCCDB-ID:  59089 
public computational chemistry database (PCCDB) project, http://pccdb.org 
 
 33 32  0  0  0  0  0  0  0  0999 V2000 
    0.5421   -1.7539    0.5081 C   0  0  0  0  0  0  0  0  0  0  0  0 
    1.8336   -3.3550    1.9905 C   0  0  0  0  0  0  0  0  0  0  0  0 
    7.1096   -5.6038    1.2385 C   0  0  0  0  0  0  0  0  0  0  0  0 
    6.5787   -4.1705    1.0666 C   0  0  0  0  0  0  0  0  0  0  0  0 
    7.3864   -6.3416   -0.0788 C   0  0  0  0  0  0  0  0  0  0  0  0 
    5.1740   -4.0790    0.4488 C   0  0  0  0  0  0  0  0  0  0  0  0 
    7.9729   -7.7489    0.1510 C   0  0  0  0  0  0  0  0  0  0  0  0 
    4.6774   -2.6319    0.3556 C   0  0  0  0  0  0  0  0  0  0  0  0 
    1.9189   -2.1506    1.0507 C   0  0  0  0  0  0  0  0  0  0  0  0 
    8.3276   -8.4804   -1.1376 C   0  0  0  0  0  0  0  0  0  0  0  0 
    9.4384   -8.8359   -1.4386 O   0  0  0  0  0  0  0  0  0  0  0  0 
    7.2857   -8.7215   -1.9858 O   0  0  0  0  0  0  0  0  0  0  0  0 
    3.0147   -2.4388   -0.4175 S   0  0  0  0  0  0  0  0  0  0  0  0 
   -0.1379   -1.5342    1.3397 H   0  0  0  0  0  0  0  0  0  0  0  0 
    0.1017   -2.5678   -0.0795 H   0  0  0  0  0  0  0  0  0  0  0  0 
    0.6029   -0.8663   -0.1293 H   0  0  0  0  0  0  0  0  0  0  0  0 
    1.1724   -3.1260    2.8371 H   0  0  0  0  0  0  0  0  0  0  0  0 
    2.8122   -3.6240    2.4012 H   0  0  0  0  0  0  0  0  0  0  0  0 
    1.4314   -4.2294    1.4673 H   0  0  0  0  0  0  0  0  0  0  0  0 
    6.3964   -6.1869    1.8397 H   0  0  0  0  0  0  0  0  0  0  0  0 
    8.0405   -5.5681    1.8208 H   0  0  0  0  0  0  0  0  0  0  0  0 
    7.2874   -3.5916    0.4566 H   0  0  0  0  0  0  0  0  0  0  0  0 
    6.5636   -3.6866    2.0532 H   0  0  0  0  0  0  0  0  0  0  0  0 
    8.0870   -5.7550   -0.6881 H   0  0  0  0  0  0  0  0  0  0  0  0 
    6.4591   -6.4121   -0.6638 H   0  0  0  0  0  0  0  0  0  0  0  0 
    4.4694   -4.6721    1.0460 H   0  0  0  0  0  0  0  0  0  0  0  0 
    5.1671   -4.5160   -0.5573 H   0  0  0  0  0  0  0  0  0  0  0  0 
    7.2572   -8.3588    0.7219 H   0  0  0  0  0  0  0  0  0  0  0  0 
    8.8916   -7.6874    0.7400 H   0  0  0  0  0  0  0  0  0  0  0  0 
    5.3675   -2.0383   -0.2542 H   0  0  0  0  0  0  0  0  0  0  0  0 
    4.6483   -2.1617    1.3459 H   0  0  0  0  0  0  0  0  0  0  0  0 
    2.3438   -1.2961    1.5922 H   0  0  0  0  0  0  0  0  0  0  0  0 
    6.4588   -8.3849   -1.6035 H   0  0  0  0  0  0  0  0  0  0  0  0 
  1  9  1  0  0  0  0 
  1 14  1  0  0  0  0 
  2 18  1  0  0  0  0 
  2 17  1  0  0  0  0 
  3 21  1  0  0  0  0 
  3 20  1  0  0  0  0 
  4  3  1  0  0  0  0 
  4 23  1  0  0  0  0 
  5  7  1  0  0  0  0 
  5  3  1  0  0  0  0 
  6 26  1  0  0  0  0 
  6  4  1  0  0  0  0 
  7 28  1  0  0  0  0 
  7 29  1  0  0  0  0 
  8  6  1  0  0  0  0 
  8 31  1  0  0  0  0 
  9 32  1  0  0  0  0 
  9  2  1  0  0  0  0 
 10  7  1  0  0  0  0 
 11 10  2  0  0  0  0 
 12 33  1  0  0  0  0 
 12 10  1  0  0  0  0 
 13  8  1  0  0  0  0 
 13  9  1  0  0  0  0 
 15  1  1  0  0  0  0 
 16  1  1  0  0  0  0 
 19  2  1  0  0  0  0 
 22  4  1  0  0  0  0 
 24  5  1  0  0  0  0 
 25  5  1  0  0  0  0 
 27  6  1  0  0  0  0 
 30  8  1  0  0  0  0 
M  END 
>  <HBA> 
3 
 
>  <HBD> 
1 
 
>  <TPSA> 
62.6 
 
>  <cid> 
59089 
 
>  <dipole> 
5.56 
 
>  <excitation_energy_1> 
5.132 
 
>  <excitation_energy_2> 
5.285 
 
>  <excitation_energy_3> 
5.36 
 
>  <excitation_energy_4> 
5.604 
 
>  <homo_energy> 
-5.973 
 
>  <homo_lumo_gap> 
6.264 
 
>  <logP> 
3.163 
 
>  <lumo_energy> 
0.291 
 
>  <melting_point> 
56.91 
 
>  <molecular_refractivity> 
59.55 
 
>  <oscillator_strength_1> 
0.0057 
 
>  <oscillator_strength_2> 
0.0047 
 
>  <oscillator_strength_3> 
0.0137 
 
>  <oscillator_strength_4> 
0.0057 
 
>  <open_babel_can_smiles> 
CC(SCCCCCCC(=O)O)C 
 
>  <mulliken_charges> 
33 
1   -0.451511 
2   -0.433965 
3   -0.254874 
4   -0.262891 
5   -0.27352 
6   -0.250385 
7   -0.379833 
8   -0.429208 
9   -0.222969 
10   0.589053 
11   -0.435194 
12   -0.564418 
13   0.075969 
14   0.149828 
15   0.16038 
16   0.165351 
17   0.145673 
18   0.147578 
19   0.15781 
20   0.132124 
21   0.141508 
22   0.136177 
23   0.134194 
24   0.159835 
25   0.128611 
26   0.142776 
27   0.148758 
28   0.15751 
29   0.179726 
30   0.17416 
31   0.163474 
32   0.159154 
33   0.409117 
 
>  <lowdin_charges> 
33 
1   -0.447759 
2   -0.449619 
3   -0.275219 
4   -0.278627 
5   -0.277419 
6   -0.283817 
7   -0.318227 
8   -0.378307 
9   -0.210505 
10   0.192902 
11   -0.235963 
12   -0.362341 
13   0.071356 
14   0.155037 
15   0.158188 
16   0.161904 
17   0.151357 
18   0.149761 
19   0.157134 
20   0.14155 
21   0.147522 
22   0.143683 
23   0.143495 
24   0.154866 
25   0.13581 
26   0.146364 
27   0.146547 
28   0.159809 
29   0.172869 
30   0.165286 
31   0.155918 
32   0.149911 
33   0.356533 
 
$$$$ 
 
