PCCDB-ID:  62049 
public computational chemistry database (PCCDB) project, http://pccdb.org 
 
 21 21  0  0  1  0  0  0  0  0999 V2000 
    0.9408    0.0003    0.0013 C   0  0  0  0  0  0  0  0  0  0  0  0 
    2.9237   -2.4435    2.9062 C   0  0  0  0  0  0  0  0  0  0  0  0 
    2.9176   -1.1000    0.9218 C   0  0  0  0  0  0  0  0  0  0  0  0 
    2.9380    1.2575    0.6342 C   0  0  0  0  0  0  0  0  0  0  0  0 
    3.0759   -0.0229    3.1096 C   0  0  2  0  0  0  0  0  0  0  0  0 
    2.3932    0.0135    0.1690 N   0  0  0  0  0  0  0  0  0  0  0  0 
    2.5244   -1.1454    2.3536 N   0  0  0  0  0  0  0  0  0  0  0  0 
    2.5842   -0.0209    4.8872 S   0  0  0  0  0  0  0  0  0  0  0  0 
    2.5571    1.6168    2.4309 S   0  0  0  0  0  0  0  0  0  0  0  0 
    0.6464   -0.9559   -0.4435 H   0  0  0  0  0  0  0  0  0  0  0  0 
    0.6556    0.7994   -0.6911 H   0  0  0  0  0  0  0  0  0  0  0  0 
    0.3912    0.1334    0.9431 H   0  0  0  0  0  0  0  0  0  0  0  0 
    2.4650   -3.2348    2.3046 H   0  0  0  0  0  0  0  0  0  0  0  0 
    2.5727   -2.5418    3.9336 H   0  0  0  0  0  0  0  0  0  0  0  0 
    4.0198   -2.5978    2.9003 H   0  0  0  0  0  0  0  0  0  0  0  0 
    4.0204   -1.0854    0.8212 H   0  0  0  0  0  0  0  0  0  0  0  0 
    2.5560   -2.0283    0.4693 H   0  0  0  0  0  0  0  0  0  0  0  0 
    2.5327    2.1003    0.0680 H   0  0  0  0  0  0  0  0  0  0  0  0 
    4.0261    1.2431    0.5132 H   0  0  0  0  0  0  0  0  0  0  0  0 
    4.1804   -0.0546    3.1471 H   0  0  0  0  0  0  0  0  0  0  0  0 
    1.2607    0.1057    4.6474 H   0  0  0  0  0  0  0  0  0  0  0  0 
  1  6  1  0  0  0  0 
  1 12  1  0  0  0  0 
  2 14  1  0  0  0  0 
  3  7  1  0  0  0  0 
  4  9  1  0  0  0  0 
  5 20  1  6  0  0  0 
  5  8  1  0  0  0  0 
  6  4  1  0  0  0  0 
  6  3  1  0  0  0  0 
  7  2  1  0  0  0  0 
  7  5  1  0  0  0  0 
  9  5  1  0  0  0  0 
 10  1  1  0  0  0  0 
 11  1  1  0  0  0  0 
 13  2  1  0  0  0  0 
 15  2  1  0  0  0  0 
 16  3  1  0  0  0  0 
 17  3  1  0  0  0  0 
 18  4  1  0  0  0  0 
 19  4  1  0  0  0  0 
 21  8  1  0  0  0  0 
M  END 
>  <HBA> 
4 
 
>  <HBD> 
1 
 
>  <TPSA> 
70.58 
 
>  <cid> 
62049 
 
>  <dipole> 
2.52 
 
>  <excitation_energy_1> 
5.08 
 
>  <excitation_energy_2> 
5.181 
 
>  <excitation_energy_3> 
5.336 
 
>  <excitation_energy_4> 
5.363 
 
>  <homo_energy> 
-6.025 
 
>  <homo_lumo_gap> 
6.308 
 
>  <logP> 
0.601 
 
>  <lumo_energy> 
0.283 
 
>  <melting_point> 
31.18 
 
>  <molecular_refractivity> 
53.18 
 
>  <oscillator_strength_1> 
0.0024 
 
>  <oscillator_strength_2> 
0.0047 
 
>  <oscillator_strength_3> 
0.0047 
 
>  <oscillator_strength_4> 
0.0061 
 
>  <open_babel_can_smiles> 
CN1CN(C)CS[C@H]1S 
 
>  <mulliken_charges> 
21 
1   -0.303335 
2   -0.313597 
3   -0.013414 
4   -0.296271 
5   -0.25758 
6   -0.347848 
7   -0.369385 
8   -0.054162 
9   0.092629 
10   0.148996 
11   0.149224 
12   0.169182 
13   0.153288 
14   0.18979 
15   0.124167 
16   0.126748 
17   0.152125 
18   0.178908 
19   0.176214 
20   0.17222 
21   0.122099 
 
>  <lowdin_charges> 
21 
1   -0.357966 
2   -0.360994 
3   -0.136874 
4   -0.302927 
5   -0.253503 
6   -0.161667 
7   -0.208031 
8   -0.051228 
9   0.057981 
10   0.152344 
11   0.152105 
12   0.149814 
13   0.154371 
14   0.168831 
15   0.123239 
16   0.122307 
17   0.152834 
18   0.170285 
19   0.156387 
20   0.14463 
21   0.128063 
 
$$$$ 
 
