PCCDB-ID:  61840 
public computational chemistry database (PCCDB) project, http://pccdb.org 
 
 32 31  0  0  1  0  0  0  0  0999 V2000 
    2.3814    1.3320   -0.7685 C   0  0  0  0  0  0  0  0  0  0  0  0 
    3.9301   -4.0501    3.1453 C   0  0  0  0  0  0  0  0  0  0  0  0 
    3.5908    0.3924   -0.8005 C   0  0  0  0  0  0  0  0  0  0  0  0 
    4.0875   -3.3971    1.7669 C   0  0  0  0  0  0  0  0  0  0  0  0 
    3.7377   -0.4493    0.4745 C   0  0  0  0  0  0  0  0  0  0  0  0 
    4.9471   -1.3945    0.4396 C   0  0  0  0  0  0  0  0  0  0  0  0 
    6.5674   -2.8430    1.7730 C   0  0  0  0  0  0  0  0  0  0  0  0 
    7.6428   -1.8219    2.1546 C   0  0  0  0  0  0  0  0  0  0  0  0 
    5.1374   -2.2646    1.7032 C   0  0  2  0  0  0  0  0  0  0  0  0 
    9.0406   -2.4277    2.2145 C   0  0  0  0  0  0  0  0  0  0  0  0 
    9.3068   -3.5784    1.9777 O   0  0  0  0  0  0  0  0  0  0  0  0 
   10.0334   -1.5608    2.5682 O   0  0  0  0  0  0  0  0  0  0  0  0 
    2.3046    1.9172   -1.6919 H   0  0  0  0  0  0  0  0  0  0  0  0 
    2.4487    2.0383    0.0684 H   0  0  0  0  0  0  0  0  0  0  0  0 
    1.4463    0.7705   -0.6516 H   0  0  0  0  0  0  0  0  0  0  0  0 
    3.1647   -4.8340    3.1205 H   0  0  0  0  0  0  0  0  0  0  0  0 
    3.6248   -3.3123    3.8978 H   0  0  0  0  0  0  0  0  0  0  0  0 
    4.8595   -4.5140    3.4940 H   0  0  0  0  0  0  0  0  0  0  0  0 
    4.5073    0.9800   -0.9547 H   0  0  0  0  0  0  0  0  0  0  0  0 
    3.5113   -0.2773   -1.6685 H   0  0  0  0  0  0  0  0  0  0  0  0 
    3.1114   -3.0020    1.4596 H   0  0  0  0  0  0  0  0  0  0  0  0 
    4.3513   -4.1628    1.0228 H   0  0  0  0  0  0  0  0  0  0  0  0 
    2.8125   -1.0208    0.6310 H   0  0  0  0  0  0  0  0  0  0  0  0 
    3.8284    0.2223    1.3416 H   0  0  0  0  0  0  0  0  0  0  0  0 
    5.8469   -0.7860    0.2710 H   0  0  0  0  0  0  0  0  0  0  0  0 
    4.8702   -2.0580   -0.4352 H   0  0  0  0  0  0  0  0  0  0  0  0 
    6.6130   -3.6602    2.5002 H   0  0  0  0  0  0  0  0  0  0  0  0 
    6.8291   -3.2922    0.8066 H   0  0  0  0  0  0  0  0  0  0  0  0 
    7.4183   -1.3794    3.1371 H   0  0  0  0  0  0  0  0  0  0  0  0 
    7.6690   -0.9820    1.4456 H   0  0  0  0  0  0  0  0  0  0  0  0 
    4.9848   -1.6186    2.5843 H   0  0  0  0  0  0  0  0  0  0  0  0 
    9.6607   -0.6776    2.7266 H   0  0  0  0  0  0  0  0  0  0  0  0 
  1 15  1  0  0  0  0 
  1 14  1  0  0  0  0 
  2 18  1  0  0  0  0 
  2 17  1  0  0  0  0 
  3  1  1  0  0  0  0 
  3  5  1  0  0  0  0 
  4  2  1  0  0  0  0 
  5 23  1  0  0  0  0 
  5 24  1  0  0  0  0 
  6  5  1  0  0  0  0 
  6  9  1  0  0  0  0 
  7  8  1  0  0  0  0 
  7 27  1  0  0  0  0 
  8 10  1  0  0  0  0 
  8 29  1  0  0  0  0 
  9  4  1  0  0  0  0 
  9  7  1  0  0  0  0 
  9 31  1  1  0  0  0 
 10 12  1  0  0  0  0 
 11 10  2  0  0  0  0 
 12 32  1  0  0  0  0 
 13  1  1  0  0  0  0 
 16  2  1  0  0  0  0 
 19  3  1  0  0  0  0 
 20  3  1  0  0  0  0 
 21  4  1  0  0  0  0 
 22  4  1  0  0  0  0 
 25  6  1  0  0  0  0 
 26  6  1  0  0  0  0 
 28  7  1  0  0  0  0 
 30  8  1  0  0  0  0 
M  END 
>  <HBA> 
2 
 
>  <HBD> 
1 
 
>  <TPSA> 
37.3 
 
>  <cid> 
61840 
 
>  <dipole> 
4.21 
 
>  <excitation_energy_1> 
5.741 
 
>  <excitation_energy_2> 
6.389 
 
>  <excitation_energy_3> 
7.3 
 
>  <excitation_energy_4> 
7.328 
 
>  <homo_energy> 
-7.339 
 
>  <homo_lumo_gap> 
7.679 
 
>  <logP> 
3.068 
 
>  <lumo_energy> 
0.34 
 
>  <melting_point> 
47.94 
 
>  <molecular_refractivity> 
51.96 
 
>  <oscillator_strength_1> 
0.0003 
 
>  <oscillator_strength_2> 
0.0158 
 
>  <oscillator_strength_3> 
0.0016 
 
>  <oscillator_strength_4> 
0.0037 
 
>  <open_babel_can_smiles> 
CCCC[C@H](CCC(=O)O)CC 
 
>  <mulliken_charges> 
32 
1   -0.441944 
2   -0.451255 
3   -0.247277 
4   -0.262539 
5   -0.253356 
6   -0.267977 
7   -0.260617 
8   -0.413754 
9   -0.066587 
10   0.609554 
11   -0.437136 
12   -0.570107 
13   0.143329 
14   0.140755 
15   0.142593 
16   0.145674 
17   0.140841 
18   0.150101 
19   0.128456 
20   0.132895 
21   0.135608 
22   0.13414 
23   0.134638 
24   0.124986 
25   0.122285 
26   0.131843 
27   0.156987 
28   0.153284 
29   0.162648 
30   0.165414 
31   0.109363 
32   0.407157 
 
>  <lowdin_charges> 
32 
1   -0.444976 
2   -0.448625 
3   -0.272527 
4   -0.275689 
5   -0.277167 
6   -0.278024 
7   -0.272497 
8   -0.323381 
9   -0.127426 
10   0.192093 
11   -0.235211 
12   -0.360374 
13   0.150256 
14   0.146431 
15   0.146796 
16   0.152511 
17   0.146526 
18   0.148727 
19   0.137781 
20   0.140462 
21   0.142616 
22   0.14251 
23   0.139592 
24   0.136517 
25   0.135955 
26   0.141117 
27   0.156441 
28   0.15386 
29   0.159228 
30   0.16 
31   0.130146 
32   0.356331 
 
$$$$ 
 
