PCCDB-ID:  31191 
public computational chemistry database (PCCDB) project, http://pccdb.org 
 
 20 19  0  0  0  0  0  0  0  0999 V2000 
    2.8944   -1.5206   -0.7726 C   0  0  0  0  0  0  0  0  0  0  0  0 
    6.8978    0.0254    0.3766 C   0  0  0  0  0  0  0  0  0  0  0  0 
    2.5595   -0.1004   -1.2408 C   0  0  0  0  0  0  0  0  0  0  0  0 
    2.7127    0.9612   -0.1377 C   0  0  0  0  0  0  0  0  0  0  0  0 
    6.2606    0.9717   -0.6143 C   0  0  0  0  0  0  0  0  0  0  0  0 
    4.1362    1.1464    0.3663 C   0  0  0  0  0  0  0  0  0  0  0  0 
    5.0585    1.3936   -0.6597 N   0  0  0  0  0  0  0  0  0  0  0  0 
    7.0800    1.4054   -1.6031 O   0  0  0  0  0  0  0  0  0  0  0  0 
    4.4133    1.1713    1.5571 O   0  0  0  0  0  0  0  0  0  0  0  0 
    2.7417   -2.2486   -1.5774 H   0  0  0  0  0  0  0  0  0  0  0  0 
    2.2647   -1.8195    0.0742 H   0  0  0  0  0  0  0  0  0  0  0  0 
    3.9397   -1.6015   -0.4495 H   0  0  0  0  0  0  0  0  0  0  0  0 
    6.1736   -0.3353    1.1043 H   0  0  0  0  0  0  0  0  0  0  0  0 
    7.6886    0.5502    0.9268 H   0  0  0  0  0  0  0  0  0  0  0  0 
    7.3564   -0.8202   -0.1516 H   0  0  0  0  0  0  0  0  0  0  0  0 
    1.5249   -0.0715   -1.6059 H   0  0  0  0  0  0  0  0  0  0  0  0 
    3.1984    0.1748   -2.0881 H   0  0  0  0  0  0  0  0  0  0  0  0 
    2.0885    0.7249    0.7299 H   0  0  0  0  0  0  0  0  0  0  0  0 
    2.3853    1.9337   -0.5306 H   0  0  0  0  0  0  0  0  0  0  0  0 
    7.9596    1.0105   -1.4904 H   0  0  0  0  0  0  0  0  0  0  0  0 
  1 12  1  0  0  0  0 
  1 11  1  0  0  0  0 
  2 14  1  0  0  0  0 
  2 13  1  0  0  0  0 
  3  1  1  0  0  0  0 
  3  4  1  0  0  0  0 
  4  6  1  0  0  0  0 
  4 18  1  0  0  0  0 
  5  2  1  0  0  0  0 
  6  9  2  0  0  0  0 
  7  5  2  0  0  0  0 
  7  6  1  0  0  0  0 
  8 20  1  0  0  0  0 
  8  5  1  0  0  0  0 
 10  1  1  0  0  0  0 
 15  2  1  0  0  0  0 
 16  3  1  0  0  0  0 
 17  3  1  0  0  0  0 
 19  4  1  0  0  0  0 
M  END 
>  <HBA> 
3 
 
>  <HBD> 
1 
 
>  <TPSA> 
46.17 
 
>  <cid> 
31191 
 
>  <dipole> 
3.5 
 
>  <excitation_energy_1> 
4.163 
 
>  <excitation_energy_2> 
5.446 
 
>  <excitation_energy_3> 
5.678 
 
>  <excitation_energy_4> 
6.098 
 
>  <homo_energy> 
-6.498 
 
>  <homo_lumo_gap> 
5.657 
 
>  <logP> 
0.84 
 
>  <lumo_energy> 
-0.841 
 
>  <melting_point> 
43.4 
 
>  <molecular_refractivity> 
34.16 
 
>  <oscillator_strength_1> 
0.001 
 
>  <oscillator_strength_2> 
0.0078 
 
>  <oscillator_strength_3> 
0.0036 
 
>  <oscillator_strength_4> 
0.0841 
 
>  <open_babel_can_smiles> 
CCCC(=O)/N=C(/O)\C 
 
>  <mulliken_charges> 
20 
1   -0.443045 
2   -0.552462 
3   -0.262499 
4   -0.32561 
5   0.518081 
6   0.51245 
7   -0.446216 
8   -0.556593 
9   -0.475204 
10   0.145225 
11   0.147966 
12   0.137073 
13   0.21785 
14   0.186987 
15   0.164971 
16   0.137869 
17   0.158853 
18   0.155156 
19   0.16555 
20   0.413597 
 
>  <lowdin_charges> 
20 
1   -0.446664 
2   -0.485375 
3   -0.272561 
4   -0.298507 
5   0.177016 
6   0.167668 
7   -0.201684 
8   -0.338654 
9   -0.272955 
10   0.151932 
11   0.150232 
12   0.142041 
13   0.195114 
14   0.180088 
15   0.165813 
16   0.144863 
17   0.153688 
18   0.158489 
19   0.169681 
20   0.359774 
 
$$$$ 
 
