PCCDB-ID:  10108 
public computational chemistry database (PCCDB) project, http://pccdb.org 
 
 24 24  0  0  0  0  0  0  0  0999 V2000 
    0.8187   -0.0822    0.0330 C   0  0  0  0  0  0  0  0  0  0  0  0 
    4.9201    1.9479    1.4012 C   0  0  0  0  0  0  0  0  0  0  0  0 
    4.9894    2.0592   -1.1079 C   0  0  0  0  0  0  0  0  0  0  0  0 
    2.9915   -1.4470    0.1094 C   0  0  0  0  0  0  0  0  0  0  0  0 
    3.0462    1.0419    0.0539 C   0  0  0  0  0  0  0  0  0  0  0  0 
    5.3040   -0.1674    0.0552 C   0  0  0  0  0  0  0  0  0  0  0  0 
    2.3374   -0.0911    0.0622 C   0  0  0  0  0  0  0  0  0  0  0  0 
    4.5099   -1.4707    0.0179 C   0  0  0  0  0  0  0  0  0  0  0  0 
    4.5515    1.1951    0.0991 C   0  0  0  0  0  0  0  0  0  0  0  0 
    5.0983   -2.5319   -0.0779 O   0  0  0  0  0  0  0  0  0  0  0  0 
    0.4114   -1.0986    0.0513 H   0  0  0  0  0  0  0  0  0  0  0  0 
    0.4361    0.4075   -0.8705 H   0  0  0  0  0  0  0  0  0  0  0  0 
    0.4019    0.4532    0.8945 H   0  0  0  0  0  0  0  0  0  0  0  0 
    4.4111    2.9177    1.4536 H   0  0  0  0  0  0  0  0  0  0  0  0 
    6.0007    2.1323    1.4517 H   0  0  0  0  0  0  0  0  0  0  0  0 
    4.6302    1.3686    2.2852 H   0  0  0  0  0  0  0  0  0  0  0  0 
    4.4898    3.0354   -1.0960 H   0  0  0  0  0  0  0  0  0  0  0  0 
    4.7410    1.5659   -2.0545 H   0  0  0  0  0  0  0  0  0  0  0  0 
    6.0720    2.2361   -1.0881 H   0  0  0  0  0  0  0  0  0  0  0  0 
    2.6117   -2.0946   -0.6945 H   0  0  0  0  0  0  0  0  0  0  0  0 
    2.7164   -1.9752    1.0368 H   0  0  0  0  0  0  0  0  0  0  0  0 
    2.5036    1.9891    0.0241 H   0  0  0  0  0  0  0  0  0  0  0  0 
    5.9694   -0.2113   -0.8159 H   0  0  0  0  0  0  0  0  0  0  0  0 
    5.9737   -0.2612    0.9201 H   0  0  0  0  0  0  0  0  0  0  0  0 
  1 11  1  0  0  0  0 
  1  7  1  0  0  0  0 
  1 13  1  0  0  0  0 
  2 15  1  0  0  0  0 
  2 14  1  0  0  0  0 
  2 16  1  0  0  0  0 
  3 17  1  0  0  0  0 
  3 19  1  0  0  0  0 
  3  9  1  0  0  0  0 
  4 21  1  0  0  0  0 
  5  7  2  0  0  0  0 
  5  9  1  0  0  0  0 
  6  9  1  0  0  0  0 
  6 24  1  0  0  0  0 
  7  4  1  0  0  0  0 
  8  6  1  0  0  0  0 
  8  4  1  0  0  0  0 
  9  2  1  0  0  0  0 
 10  8  2  0  0  0  0 
 12  1  1  0  0  0  0 
 18  3  1  0  0  0  0 
 20  4  1  0  0  0  0 
 22  5  1  0  0  0  0 
 23  6  1  0  0  0  0 
M  END 
>  <HBA> 
1 
 
>  <HBD> 
0 
 
>  <TPSA> 
17.07 
 
>  <cid> 
10108 
 
>  <dipole> 
2.81 
 
>  <excitation_energy_1> 
4.202 
 
>  <excitation_energy_2> 
4.988 
 
>  <excitation_energy_3> 
5.784 
 
>  <excitation_energy_4> 
5.952 
 
>  <homo_energy> 
-6.387 
 
>  <homo_lumo_gap> 
5.981 
 
>  <logP> 
2.322 
 
>  <lumo_energy> 
-0.405 
 
>  <melting_point> 
47.31 
 
>  <molecular_refractivity> 
42.73 
 
>  <oscillator_strength_1> 
0.0 
 
>  <oscillator_strength_2> 
0.0012 
 
>  <oscillator_strength_3> 
0.0086 
 
>  <oscillator_strength_4> 
0.0102 
 
>  <open_babel_can_smiles> 
O=C1CC(=CC(C1)(C)C)C 
 
>  <mulliken_charges> 
24 
1   -0.526022 
2   -0.451921 
3   -0.454918 
4   -0.438107 
5   -0.16255 
6   -0.400177 
7   0.168953 
8   0.457977 
9   0.090972 
10   -0.460039 
11   0.153504 
12   0.165442 
13   0.164786 
14   0.141635 
15   0.142624 
16   0.146635 
17   0.141382 
18   0.148257 
19   0.143105 
20   0.180083 
21   0.181388 
22   0.109532 
23   0.179225 
24   0.178233 
 
>  <lowdin_charges> 
24 
1   -0.447351 
2   -0.439463 
3   -0.438955 
4   -0.310146 
5   -0.186007 
6   -0.311887 
7   -0.02495 
8   0.167637 
9   0.012721 
10   -0.245871 
11   0.154323 
12   0.163531 
13   0.163268 
14   0.147989 
15   0.14595 
16   0.150708 
17   0.147574 
18   0.150903 
19   0.146331 
20   0.175479 
21   0.176212 
22   0.14831 
23   0.17689 
24   0.176804 
 
$$$$ 
 
