PCCDB-ID:  68319 
public computational chemistry database (PCCDB) project, http://pccdb.org 
 
 19 18  0  0  1  0  0  0  0  0999 V2000 
    2.1850    0.1329   -1.3117 C   0  0  0  0  0  0  0  0  0  0  0  0 
    4.5568   -0.0224   -1.7668 C   0  0  0  0  0  0  0  0  0  0  0  0 
    3.8058    0.9342    0.3322 C   0  0  0  0  0  0  0  0  0  0  0  0 
    4.8206    0.3416    1.3032 C   0  0  1  0  0  0  0  0  0  0  0  0 
    5.4335    2.4109    2.0068 N   0  0  0  0  0  0  0  0  0  0  0  0 
    5.5856    0.9846    2.0970 N   0  0  0  0  0  0  0  0  0  0  0  0 
    3.5164   -0.0334   -0.7345 N   0  0  0  0  0  0  0  0  0  0  0  0 
    4.8691   -1.0100    1.3047 O   0  0  0  0  0  0  0  0  0  0  0  0 
    2.0042   -0.6635   -2.0410 H   0  0  0  0  0  0  0  0  0  0  0  0 
    2.0558    1.1028   -1.8245 H   0  0  0  0  0  0  0  0  0  0  0  0 
    1.4275    0.0538   -0.5256 H   0  0  0  0  0  0  0  0  0  0  0  0 
    4.3657   -0.8249   -2.4865 H   0  0  0  0  0  0  0  0  0  0  0  0 
    5.5335   -0.1993   -1.3072 H   0  0  0  0  0  0  0  0  0  0  0  0 
    4.5975    0.9361   -2.3135 H   0  0  0  0  0  0  0  0  0  0  0  0 
    4.1862    1.8993   -0.0355 H   0  0  0  0  0  0  0  0  0  0  0  0 
    2.8709    1.1404    0.8703 H   0  0  0  0  0  0  0  0  0  0  0  0 
    6.1588    2.7801    2.6179 H   0  0  0  0  0  0  0  0  0  0  0  0 
    4.5525    2.6772    2.4543 H   0  0  0  0  0  0  0  0  0  0  0  0 
    4.2521   -1.2713    0.5819 H   0  0  0  0  0  0  0  0  0  0  0  0 
  1  7  1  0  0  0  0 
  1 11  1  0  0  0  0 
  2 13  1  0  0  0  0 
  2  7  1  0  0  0  0 
  3 16  1  0  0  0  0 
  3  4  1  0  0  0  0 
  4  8  1  1  0  0  0 
  4  6  1  0  0  0  0 
  5  6  1  0  0  0  0 
  5 18  1  0  0  0  0 
  5 17  1  0  0  0  0 
  7  3  1  0  0  0  0 
  9  1  1  0  0  0  0 
 10  1  1  0  0  0  0 
 12  2  1  0  0  0  0 
 14  2  1  0  0  0  0 
 15  3  1  0  0  0  0 
 19  8  1  0  0  0  0 
M  RAD  2   4   2   6   2 
M  END 
>  <HBA> 
4 
 
>  <HBD> 
2 
 
>  <TPSA> 
58.36 
 
>  <cid> 
68319 
 
>  <dipole> 
4.0 
 
>  <excitation_energy_1> 
4.908 
 
>  <excitation_energy_2> 
5.164 
 
>  <excitation_energy_3> 
5.543 
 
>  <excitation_energy_4> 
5.776 
 
>  <homo_energy> 
-5.423 
 
>  <homo_lumo_gap> 
6.348 
 
>  <logP> 
-0.371 
 
>  <lumo_energy> 
0.925 
 
>  <melting_point> 
80.22 
 
>  <molecular_refractivity> 
29.95 
 
>  <oscillator_strength_1> 
0.0032 
 
>  <oscillator_strength_2> 
0.0258 
 
>  <oscillator_strength_3> 
0.0274 
 
>  <oscillator_strength_4> 
0.0044 
 
>  <open_babel_can_smiles> 
N[N][C](CN(C)C)O 
 
>  <mulliken_charges> 
19 
1   -0.2973 
2   -0.311195 
3   -0.220404 
4   0.520264 
5   -0.599758 
6   -0.368306 
7   -0.427616 
8   -0.60422 
9   0.157553 
10   0.134705 
11   0.157541 
12   0.157151 
13   0.178394 
14   0.139044 
15   0.182691 
16   0.160693 
17   0.322497 
18   0.29892 
19   0.419345 
 
>  <lowdin_charges> 
19 
1   -0.356632 
2   -0.362094 
3   -0.239903 
4   0.090097 
5   -0.473937 
6   -0.180138 
7   -0.187868 
8   -0.374159 
9   0.155542 
10   0.131255 
11   0.15478 
12   0.155211 
13   0.164076 
14   0.134089 
15   0.162083 
16   0.160631 
17   0.265633 
18   0.249233 
19   0.352099 
 
$$$$ 
 
