PCCDB-ID:  10855 
public computational chemistry database (PCCDB) project, http://pccdb.org 
 
 28 29  0  0  0  0  0  0  0  0999 V2000 
   -0.3804    1.1246    0.8528 C   0  0  0  0  0  0  0  0  0  0  0  0 
   -2.7737    1.2291    0.4891 C   0  0  0  0  0  0  0  0  0  0  0  0 
   -1.3081   -6.2566   -1.1074 C   0  0  0  0  0  0  0  0  0  0  0  0 
   -3.7003   -6.1504   -1.4778 C   0  0  0  0  0  0  0  0  0  0  0  0 
   -0.3996   -0.2221    0.5157 C   0  0  0  0  0  0  0  0  0  0  0  0 
   -2.7872   -0.1140    0.1546 C   0  0  0  0  0  0  0  0  0  0  0  0 
   -1.2946   -4.9133   -0.7732 C   0  0  0  0  0  0  0  0  0  0  0  0 
   -3.6811   -4.8036   -1.1410 C   0  0  0  0  0  0  0  0  0  0  0  0 
   -1.5699    1.8747    0.8453 C   0  0  0  0  0  0  0  0  0  0  0  0 
   -2.5114   -6.9013   -1.4668 C   0  0  0  0  0  0  0  0  0  0  0  0 
   -1.5959   -0.8647    0.1634 C   0  0  0  0  0  0  0  0  0  0  0  0 
   -2.4853   -4.1617   -0.7857 C   0  0  0  0  0  0  0  0  0  0  0  0 
   -1.5566    3.2377    1.1276 N   0  0  0  0  0  0  0  0  0  0  0  0 
   -2.5249   -8.2644   -1.7488 N   0  0  0  0  0  0  0  0  0  0  0  0 
   -1.4945   -2.2333   -0.1545 N   0  0  0  0  0  0  0  0  0  0  0  0 
   -2.5866   -2.7930   -0.4684 N   0  0  0  0  0  0  0  0  0  0  0  0 
    0.5569    1.6076    1.1199 H   0  0  0  0  0  0  0  0  0  0  0  0 
   -3.6987    1.8022    0.4748 H   0  0  0  0  0  0  0  0  0  0  0  0 
   -0.3836   -6.8304   -1.0901 H   0  0  0  0  0  0  0  0  0  0  0  0 
   -4.6372   -6.6328   -1.7475 H   0  0  0  0  0  0  0  0  0  0  0  0 
    0.5141   -0.8092    0.5213 H   0  0  0  0  0  0  0  0  0  0  0  0 
   -3.7120   -0.6114   -0.1164 H   0  0  0  0  0  0  0  0  0  0  0  0 
   -0.3702   -4.4166   -0.4998 H   0  0  0  0  0  0  0  0  0  0  0  0 
   -4.5943   -4.2159   -1.1492 H   0  0  0  0  0  0  0  0  0  0  0  0 
   -0.7764    3.5619    1.6848 H   0  0  0  0  0  0  0  0  0  0  0  0 
   -2.4361    3.6290    1.4400 H   0  0  0  0  0  0  0  0  0  0  0  0 
   -1.6448   -8.6564   -2.0589 H   0  0  0  0  0  0  0  0  0  0  0  0 
   -3.3039   -8.5882   -2.3078 H   0  0  0  0  0  0  0  0  0  0  0  0 
  1 17  1  0  0  0  0 
  2  9  2  0  0  0  0 
  3 19  1  0  0  0  0 
  3  7  2  0  0  0  0 
  4 10  2  0  0  0  0 
  4  8  1  0  0  0  0 
  5 21  1  0  0  0  0 
  5  1  2  0  0  0  0 
  6 11  2  0  0  0  0 
  6  2  1  0  0  0  0 
  7 23  1  0  0  0  0 
  8 12  2  0  0  0  0 
  9  1  1  0  0  0  0 
  9 13  1  0  0  0  0 
 10  3  1  0  0  0  0 
 11  5  1  0  0  0  0 
 12  7  1  0  0  0  0 
 12 16  1  0  0  0  0 
 13 26  1  0  0  0  0 
 13 25  1  0  0  0  0 
 14 10  1  0  0  0  0 
 15 11  1  0  0  0  0 
 16 15  2  0  0  0  0 
 18  2  1  0  0  0  0 
 20  4  1  0  0  0  0 
 22  6  1  0  0  0  0 
 24  8  1  0  0  0  0 
 27 14  1  0  0  0  0 
 28 14  1  0  0  0  0 
M  END 
>  <HBA> 
4 
 
>  <HBD> 
2 
 
>  <TPSA> 
76.76 
 
>  <cid> 
10855 
 
>  <dipole> 
0.0 
 
>  <excitation_energy_1> 
2.758 
 
>  <excitation_energy_2> 
3.145 
 
>  <excitation_energy_3> 
4.031 
 
>  <excitation_energy_4> 
4.19 
 
>  <homo_energy> 
-4.901 
 
>  <homo_lumo_gap> 
3.391 
 
>  <logP> 
4.429 
 
>  <lumo_energy> 
-1.51 
 
>  <melting_point> 
161.13 
 
>  <molecular_refractivity> 
65.87 
 
>  <oscillator_strength_1> 
0.0 
 
>  <oscillator_strength_2> 
0.983 
 
>  <oscillator_strength_3> 
0.0 
 
>  <oscillator_strength_4> 
0.0221 
 
>  <open_babel_can_smiles> 
Nc1ccc(cc1)/N=N/c1ccc(cc1)N 
 
>  <mulliken_charges> 
28 
1   -0.184561 
2   -0.188558 
3   -0.188452 
4   -0.184637 
5   -0.148376 
6   -0.132991 
7   -0.133077 
8   -0.148335 
9   0.328193 
10   0.328181 
11   0.269919 
12   0.269949 
13   -0.788745 
14   -0.788746 
15   -0.328273 
16   -0.328278 
17   0.118638 
18   0.120251 
19   0.120263 
20   0.118627 
21   0.135061 
22   0.150999 
23   0.151001 
24   0.135055 
25   0.32414 
26   0.324304 
27   0.324307 
28   0.32414 
 
>  <lowdin_charges> 
28 
1   -0.205071 
2   -0.196603 
3   -0.1966 
4   -0.205078 
5   -0.138382 
6   -0.14167 
7   -0.141674 
8   -0.138383 
9   0.069611 
10   0.069609 
11   -0.011661 
12   -0.011664 
13   -0.480436 
14   -0.480432 
15   -0.098514 
16   -0.098513 
17   0.153863 
18   0.153548 
19   0.153554 
20   0.153865 
21   0.165266 
22   0.172402 
23   0.172404 
24   0.165271 
25   0.279103 
26   0.278541 
27   0.278539 
28   0.279104 
 
$$$$ 
 
