PCCDB-ID:  41747 
public computational chemistry database (PCCDB) project, http://pccdb.org 
 
 25 26  0  0  0  0  0  0  0  0999 V2000 
    2.7846   -1.1785    0.4259 C   0  0  0  0  0  0  0  0  0  0  0  0 
    2.6193    0.3361    0.2597 C   0  0  0  0  0  0  0  0  0  0  0  0 
    5.4960    4.8372   -0.4059 C   0  0  0  0  0  0  0  0  0  0  0  0 
    6.5594    3.9333   -0.4890 C   0  0  0  0  0  0  0  0  0  0  0  0 
    4.1857    4.4122   -0.6471 C   0  0  0  0  0  0  0  0  0  0  0  0 
    6.3253    2.5933   -0.8135 C   0  0  0  0  0  0  0  0  0  0  0  0 
    2.6464    2.3799   -1.2821 C   0  0  0  0  0  0  0  0  0  0  0  0 
    4.5127    0.7934   -1.4287 C   0  0  0  0  0  0  0  0  0  0  0  0 
    2.9827    0.8654   -1.1412 C   0  0  0  0  0  0  0  0  0  0  0  0 
    3.9533    3.0763   -0.9695 C   0  0  0  0  0  0  0  0  0  0  0  0 
    5.0188    2.1700   -1.0520 C   0  0  0  0  0  0  0  0  0  0  0  0 
    2.4699   -1.4995    1.4254 H   0  0  0  0  0  0  0  0  0  0  0  0 
    3.8246   -1.4980    0.2931 H   0  0  0  0  0  0  0  0  0  0  0  0 
    2.1749   -1.7240   -0.3054 H   0  0  0  0  0  0  0  0  0  0  0  0 
    3.2244    0.8621    1.0117 H   0  0  0  0  0  0  0  0  0  0  0  0 
    1.5737    0.6008    0.4693 H   0  0  0  0  0  0  0  0  0  0  0  0 
    5.6884    5.8754   -0.1479 H   0  0  0  0  0  0  0  0  0  0  0  0 
    7.5735    4.2728   -0.2944 H   0  0  0  0  0  0  0  0  0  0  0  0 
    3.3607    5.1178   -0.5778 H   0  0  0  0  0  0  0  0  0  0  0  0 
    7.1552    1.8926   -0.8740 H   0  0  0  0  0  0  0  0  0  0  0  0 
    1.8256    2.6870   -0.6220 H   0  0  0  0  0  0  0  0  0  0  0  0 
    2.3260    2.6130   -2.3084 H   0  0  0  0  0  0  0  0  0  0  0  0 
    4.6967    0.5976   -2.4953 H   0  0  0  0  0  0  0  0  0  0  0  0 
    5.0119   -0.0112   -0.8766 H   0  0  0  0  0  0  0  0  0  0  0  0 
    2.4247    0.2778   -1.8810 H   0  0  0  0  0  0  0  0  0  0  0  0 
  1 12  1  0  0  0  0 
  2  1  1  0  0  0  0 
  2 16  1  0  0  0  0 
  2 15  1  0  0  0  0 
  3 17  1  0  0  0  0 
  4  3  1  0  0  0  0 
  4 18  1  0  0  0  0 
  5 19  1  0  0  0  0 
  5  3  2  0  0  0  0 
  6  4  2  0  0  0  0 
  7  9  1  0  0  0  0 
  7 10  1  0  0  0  0 
  7 21  1  0  0  0  0 
  8  9  1  0  0  0  0 
  8 11  1  0  0  0  0 
  8 24  1  0  0  0  0 
  9  2  1  0  0  0  0 
 10  5  1  0  0  0  0 
 11 10  2  0  0  0  0 
 11  6  1  0  0  0  0 
 13  1  1  0  0  0  0 
 14  1  1  0  0  0  0 
 20  6  1  0  0  0  0 
 22  7  1  0  0  0  0 
 23  8  1  0  0  0  0 
 25  9  1  0  0  0  0 
M  END 
>  <HBA> 
0 
 
>  <HBD> 
0 
 
>  <TPSA> 
0.0 
 
>  <cid> 
41747 
 
>  <dipole> 
0.53 
 
>  <excitation_energy_1> 
5.146 
 
>  <excitation_energy_2> 
5.782 
 
>  <excitation_energy_3> 
5.814 
 
>  <excitation_energy_4> 
6.07 
 
>  <homo_energy> 
-6.169 
 
>  <homo_lumo_gap> 
6.275 
 
>  <logP> 
2.811 
 
>  <lumo_energy> 
0.106 
 
>  <melting_point> 
32.58 
 
>  <molecular_refractivity> 
48.68 
 
>  <oscillator_strength_1> 
0.0255 
 
>  <oscillator_strength_2> 
0.0007 
 
>  <oscillator_strength_3> 
0.0106 
 
>  <oscillator_strength_4> 
0.0082 
 
>  <open_babel_can_smiles> 
CCC1Cc2c(C1)cccc2 
 
>  <mulliken_charges> 
25 
1   -0.44743 
2   -0.252988 
3   -0.132721 
4   -0.13274 
5   -0.19773 
6   -0.198246 
7   -0.356135 
8   -0.357042 
9   -0.090363 
10   0.134374 
11   0.133501 
12   0.144167 
13   0.145522 
14   0.14095 
15   0.139959 
16   0.130781 
17   0.123854 
18   0.12381 
19   0.121753 
20   0.121559 
21   0.143134 
22   0.148891 
23   0.149353 
24   0.146091 
25   0.117699 
 
>  <lowdin_charges> 
25 
1   -0.446501 
2   -0.274662 
3   -0.158795 
4   -0.159921 
5   -0.168194 
6   -0.168257 
7   -0.28038 
8   -0.28225 
9   -0.124194 
10   -0.013723 
11   -0.013649 
12   0.150548 
13   0.145321 
14   0.147113 
15   0.14571 
16   0.139549 
17   0.153858 
18   0.154352 
19   0.155096 
20   0.154965 
21   0.150557 
22   0.151648 
23   0.151303 
24   0.151716 
25   0.138791 
 
$$$$ 
 
