PCCDB-ID:  16497 
public computational chemistry database (PCCDB) project, http://pccdb.org 
 
 23 23  0  0  0  0  0  0  0  0999 V2000 
    3.4846   -0.2869   -1.2059 C   0  0  0  0  0  0  0  0  0  0  0  0 
    2.2088   -1.0496    0.8507 C   0  0  0  0  0  0  0  0  0  0  0  0 
    2.2310    2.5584    0.5877 C   0  0  0  0  0  0  0  0  0  0  0  0 
    2.6633    3.7006    1.2703 C   0  0  0  0  0  0  0  0  0  0  0  0 
    4.1395    1.3626    1.4090 C   0  0  0  0  0  0  0  0  0  0  0  0 
    2.4943    0.1273   -0.1007 C   0  0  0  0  0  0  0  0  0  0  0  0 
    2.9604    1.3705    0.6447 C   0  0  0  0  0  0  0  0  0  0  0  0 
    3.8320    3.6838    2.0255 C   0  0  0  0  0  0  0  0  0  0  0  0 
    4.5803    2.4918    2.0936 C   0  0  0  0  0  0  0  0  0  0  0  0 
    4.3087    4.7645    2.7160 O   0  0  0  0  0  0  0  0  0  0  0  0 
    5.7218    2.5162    2.8468 O   0  0  0  0  0  0  0  0  0  0  0  0 
    3.0993   -1.1438   -1.7717 H   0  0  0  0  0  0  0  0  0  0  0  0 
    4.4540   -0.5776   -0.7827 H   0  0  0  0  0  0  0  0  0  0  0  0 
    3.6618    0.5355   -1.9074 H   0  0  0  0  0  0  0  0  0  0  0  0 
    1.7992   -1.9039    0.2981 H   0  0  0  0  0  0  0  0  0  0  0  0 
    1.4892   -0.7665    1.6265 H   0  0  0  0  0  0  0  0  0  0  0  0 
    3.1235   -1.3891    1.3519 H   0  0  0  0  0  0  0  0  0  0  0  0 
    1.3134    2.6021    0.0066 H   0  0  0  0  0  0  0  0  0  0  0  0 
    2.0820    4.6199    1.2149 H   0  0  0  0  0  0  0  0  0  0  0  0 
    4.7375    0.4542    1.4770 H   0  0  0  0  0  0  0  0  0  0  0  0 
    1.5467    0.3882   -0.5915 H   0  0  0  0  0  0  0  0  0  0  0  0 
    3.6975    5.5050    2.5805 H   0  0  0  0  0  0  0  0  0  0  0  0 
    6.1348    1.6400    2.8014 H   0  0  0  0  0  0  0  0  0  0  0  0 
  1 13  1  0  0  0  0 
  1  6  1  0  0  0  0 
  2 17  1  0  0  0  0 
  2 16  1  0  0  0  0 
  3  7  2  0  0  0  0 
  3  4  1  0  0  0  0 
  4  8  2  0  0  0  0 
  5 20  1  0  0  0  0 
  5  9  2  0  0  0  0 
  6  7  1  0  0  0  0 
  6  2  1  0  0  0  0 
  7  5  1  0  0  0  0 
  8  9  1  0  0  0  0 
  8 10  1  0  0  0  0 
  9 11  1  0  0  0  0 
 12  1  1  0  0  0  0 
 14  1  1  0  0  0  0 
 15  2  1  0  0  0  0 
 18  3  1  0  0  0  0 
 19  4  1  0  0  0  0 
 21  6  1  0  0  0  0 
 22 10  1  0  0  0  0 
 23 11  1  0  0  0  0 
M  END 
>  <HBA> 
2 
 
>  <HBD> 
2 
 
>  <TPSA> 
40.46 
 
>  <cid> 
16497 
 
>  <dipole> 
1.4 
 
>  <excitation_energy_1> 
4.759 
 
>  <excitation_energy_2> 
4.821 
 
>  <excitation_energy_3> 
4.976 
 
>  <excitation_energy_4> 
5.333 
 
>  <homo_energy> 
-5.434 
 
>  <homo_lumo_gap> 
5.679 
 
>  <logP> 
2.221 
 
>  <lumo_energy> 
0.245 
 
>  <melting_point> 
87.77 
 
>  <molecular_refractivity> 
45.07 
 
>  <oscillator_strength_1> 
0.0009 
 
>  <oscillator_strength_2> 
0.0641 
 
>  <oscillator_strength_3> 
0.0001 
 
>  <oscillator_strength_4> 
0.0042 
 
>  <open_babel_can_smiles> 
CC(c1ccc(c(c1)O)O)C 
 
>  <mulliken_charges> 
23 
1   -0.436362 
2   -0.437265 
3   -0.21203 
4   -0.194344 
5   -0.262723 
6   -0.161987 
7   0.188238 
8   0.315763 
9   0.326478 
10   -0.634104 
11   -0.635095 
12   0.139858 
13   0.138799 
14   0.149858 
15   0.140125 
16   0.150173 
17   0.138468 
18   0.119355 
19   0.115905 
20   0.110927 
21   0.128309 
22   0.405781 
23   0.405873 
 
>  <lowdin_charges> 
23 
1   -0.443051 
2   -0.443931 
3   -0.182248 
4   -0.207272 
5   -0.216866 
6   -0.11684 
7   -0.009014 
8   0.073809 
9   0.081398 
10   -0.372825 
11   -0.371163 
12   0.148205 
13   0.14483 
14   0.153636 
15   0.148521 
16   0.153846 
17   0.14513 
18   0.154087 
19   0.152978 
20   0.150023 
21   0.142241 
22   0.358222 
23   0.356284 
 
$$$$ 
 
