PCCDB-ID:  31628 
public computational chemistry database (PCCDB) project, http://pccdb.org 
 
 28 30  0  0  1  0  0  0  0  0999 V2000 
    0.9599   -0.0537   -0.0128 C   0  0  0  0  0  0  0  0  0  0  0  0 
    9.5071   -2.5567   -0.0169 C   0  0  0  0  0  0  0  0  0  0  0  0 
    8.7369   -3.7281   -0.0153 C   0  0  0  0  0  0  0  0  0  0  0  0 
    8.8713   -1.3236   -0.0149 C   0  0  0  0  0  0  0  0  0  0  0  0 
    7.3538   -3.6519   -0.0128 C   0  0  0  0  0  0  0  0  0  0  0  0 
    3.1597    1.2181   -0.0071 C   0  0  0  0  0  0  0  0  0  0  0  0 
    4.5463    1.2513   -0.0079 C   0  0  0  0  0  0  0  0  0  0  0  0 
    3.2119   -1.1870   -0.0059 C   0  0  0  0  0  0  0  0  0  0  0  0 
    2.4704   -0.0083   -0.0069 C   0  0  2  0  0  0  0  0  0  0  0  0 
    7.4708   -1.2045   -0.0104 C   0  0  0  0  0  0  0  0  0  0  0  0 
    5.3064    0.0719   -0.0080 C   0  0  1  0  0  0  0  0  0  0  0  0 
    6.7111   -2.3991   -0.0100 C   0  0  0  0  0  0  0  0  0  0  0  0 
    4.6156   -1.1571   -0.0070 C   0  0  0  0  0  0  0  0  0  0  0  0 
    6.7866    0.1174   -0.0095 C   0  0  0  0  0  0  0  0  0  0  0  0 
    7.3572    1.2743   -0.0107 N   0  0  0  0  0  0  0  0  0  0  0  0 
    5.3324   -2.3420   -0.0073 N   0  0  0  0  0  0  0  0  0  0  0  0 
    0.5320    0.9519    0.0404 H   0  0  0  0  0  0  0  0  0  0  0  0 
    0.5724   -0.6283    0.8375 H   0  0  0  0  0  0  0  0  0  0  0  0 
    0.5778   -0.5309   -0.9240 H   0  0  0  0  0  0  0  0  0  0  0  0 
   10.5914   -2.6124   -0.0180 H   0  0  0  0  0  0  0  0  0  0  0  0 
    9.2208   -4.7010   -0.0167 H   0  0  0  0  0  0  0  0  0  0  0  0 
    9.4783   -0.4224   -0.0157 H   0  0  0  0  0  0  0  0  0  0  0  0 
    6.7516   -4.5580   -0.0116 H   0  0  0  0  0  0  0  0  0  0  0  0 
    2.5960    2.1474   -0.0066 H   0  0  0  0  0  0  0  0  0  0  0  0 
    5.0862    2.1920   -0.0078 H   0  0  0  0  0  0  0  0  0  0  0  0 
    2.7021   -2.1496   -0.0039 H   0  0  0  0  0  0  0  0  0  0  0  0 
    8.3763    1.1905   -0.0101 H   0  0  0  0  0  0  0  0  0  0  0  0 
    4.8187   -3.2116   -0.0064 H   0  0  0  0  0  0  0  0  0  0  0  0 
  1 17  1  0  0  0  0 
  1 18  1  0  0  0  0 
  2  3  1  0  0  0  0 
  2  4  2  0  0  0  0 
  3  5  2  0  0  0  0 
  4 10  1  0  0  0  0 
  5 23  1  0  0  0  0 
  5 12  1  0  0  0  0 
  6  9  1  0  0  0  0 
  6 24  1  0  0  0  0 
  7 25  1  0  0  0  0 
  7  6  2  0  0  0  0 
  8 26  1  0  0  0  0 
  9  1  1  6  0  0  0 
  9  8  1  0  0  0  0 
 10 12  2  0  0  0  0 
 10 14  1  0  0  0  0 
 11 14  1  6  0  0  0 
 11  7  1  0  0  0  0 
 11 13  1  0  0  0  0 
 12 16  1  0  0  0  0 
 13  8  2  0  0  0  0 
 15 27  1  0  0  0  0 
 15 14  2  0  0  0  0 
 16 13  1  0  0  0  0 
 16 28  1  0  0  0  0 
 19  1  1  0  0  0  0 
 20  2  1  0  0  0  0 
 21  3  1  0  0  0  0 
 22  4  1  0  0  0  0 
M  RAD  2   9   2  11   2 
M  END 
>  <HBA> 
2 
 
>  <HBD> 
1 
 
>  <TPSA> 
38.91 
 
>  <cid> 
31628 
 
>  <dipole> 
3.95 
 
>  <excitation_energy_1> 
3.463 
 
>  <excitation_energy_2> 
4.226 
 
>  <excitation_energy_3> 
4.358 
 
>  <excitation_energy_4> 
4.425 
 
>  <homo_energy> 
-5.23 
 
>  <homo_lumo_gap> 
4.016 
 
>  <logP> 
3.86 
 
>  <lumo_energy> 
-1.214 
 
>  <melting_point> 
163.49 
 
>  <molecular_refractivity> 
68.62 
 
>  <oscillator_strength_1> 
0.0962 
 
>  <oscillator_strength_2> 
0.0866 
 
>  <oscillator_strength_3> 
0.0017 
 
>  <oscillator_strength_4> 
0.0222 
 
>  <open_babel_can_smiles> 
C[C]1C=C[C]2C(=C1)Nc1c(C2=N)cccc1 
 
>  <mulliken_charges> 
28 
1   -0.533901 
2   -0.136927 
3   -0.131428 
4   -0.214365 
5   -0.184802 
6   -0.187096 
7   -0.18871 
8   -0.245365 
9   0.181947 
10   0.110638 
11   0.095011 
12   0.348709 
13   0.345138 
14   0.231393 
15   -0.661373 
16   -0.844688 
17   0.159612 
18   0.162451 
19   0.164235 
20   0.131525 
21   0.134876 
22   0.133971 
23   0.125018 
24   0.122231 
25   0.169203 
26   0.112106 
27   0.278934 
28   0.321659 
 
>  <lowdin_charges> 
28 
1   -0.443134 
2   -0.173731 
3   -0.137775 
4   -0.139502 
5   -0.194213 
6   -0.186271 
7   -0.12259 
8   -0.207159 
9   0.01858 
10   -0.060714 
11   -0.050152 
12   0.067091 
13   0.059788 
14   0.055566 
15   -0.403324 
16   -0.216549 
17   0.158729 
18   0.161863 
19   0.162349 
20   0.15816 
21   0.161248 
22   0.158369 
23   0.155964 
24   0.156161 
25   0.181211 
26   0.14996 
27   0.242015 
28   0.28806 
 
$$$$ 
 
