PCCDB-ID:  7643 
public computational chemistry database (PCCDB) project, http://pccdb.org 
 
 24 24  0  0  0  0  0  0  0  0999 V2000 
    4.7819    0.0578   -0.0897 C   0  0  0  0  0  0  0  0  0  0  0  0 
   -0.5901    6.7766   -1.8245 C   0  0  0  0  0  0  0  0  0  0  0  0 
   -0.4655    5.7592   -2.7722 C   0  0  0  0  0  0  0  0  0  0  0  0 
   -0.2798    6.5146   -0.4889 C   0  0  0  0  0  0  0  0  0  0  0  0 
   -0.0315    4.4908   -2.3848 C   0  0  0  0  0  0  0  0  0  0  0  0 
    0.1540    5.2443   -0.1072 C   0  0  0  0  0  0  0  0  0  0  0  0 
    0.7908    2.8472   -0.6366 C   0  0  0  0  0  0  0  0  0  0  0  0 
    2.3199    2.7355   -0.7479 C   0  0  0  0  0  0  0  0  0  0  0  0 
    0.2861    4.2142   -1.0481 C   0  0  0  0  0  0  0  0  0  0  0  0 
    2.8394    1.3725   -0.3332 C   0  0  0  0  0  0  0  0  0  0  0  0 
    2.1627    0.4465    0.0594 O   0  0  0  0  0  0  0  0  0  0  0  0 
    4.1855    1.3125   -0.4569 O   0  0  0  0  0  0  0  0  0  0  0  0 
    4.3910   -0.7515   -0.7123 H   0  0  0  0  0  0  0  0  0  0  0  0 
    4.5786   -0.1731    0.9595 H   0  0  0  0  0  0  0  0  0  0  0  0 
    5.8527    0.1838   -0.2532 H   0  0  0  0  0  0  0  0  0  0  0  0 
   -0.9296    7.7646   -2.1238 H   0  0  0  0  0  0  0  0  0  0  0  0 
   -0.7116    5.9511   -3.8135 H   0  0  0  0  0  0  0  0  0  0  0  0 
   -0.3802    7.2980    0.2580 H   0  0  0  0  0  0  0  0  0  0  0  0 
    0.0559    3.7011   -3.1284 H   0  0  0  0  0  0  0  0  0  0  0  0 
    0.3871    5.0458    0.9371 H   0  0  0  0  0  0  0  0  0  0  0  0 
    0.4943    2.6274    0.3948 H   0  0  0  0  0  0  0  0  0  0  0  0 
    0.3337    2.0691   -1.2578 H   0  0  0  0  0  0  0  0  0  0  0  0 
    2.8147    3.4943   -0.1283 H   0  0  0  0  0  0  0  0  0  0  0  0 
    2.6549    2.9338   -1.7739 H   0  0  0  0  0  0  0  0  0  0  0  0 
  1 14  1  0  0  0  0 
  2  4  2  0  0  0  0 
  3  5  2  0  0  0  0 
  3  2  1  0  0  0  0 
  4  6  1  0  0  0  0 
  4 18  1  0  0  0  0 
  5  9  1  0  0  0  0 
  6 20  1  0  0  0  0 
  7 21  1  0  0  0  0 
  8  7  1  0  0  0  0 
  8 10  1  0  0  0  0 
  8 23  1  0  0  0  0 
  9  7  1  0  0  0  0 
  9  6  2  0  0  0  0 
 10 11  2  0  0  0  0 
 12 10  1  0  0  0  0 
 12  1  1  0  0  0  0 
 13  1  1  0  0  0  0 
 15  1  1  0  0  0  0 
 16  2  1  0  0  0  0 
 17  3  1  0  0  0  0 
 19  5  1  0  0  0  0 
 22  7  1  0  0  0  0 
 24  8  1  0  0  0  0 
M  END 
>  <HBA> 
2 
 
>  <HBD> 
0 
 
>  <TPSA> 
26.3 
 
>  <cid> 
7643 
 
>  <dipole> 
1.64 
 
>  <excitation_energy_1> 
5.3 
 
>  <excitation_energy_2> 
5.789 
 
>  <excitation_energy_3> 
5.9 
 
>  <excitation_energy_4> 
6.03 
 
>  <homo_energy> 
-6.517 
 
>  <homo_lumo_gap> 
6.525 
 
>  <logP> 
1.792 
 
>  <lumo_energy> 
0.008 
 
>  <melting_point> 
17.6 
 
>  <molecular_refractivity> 
47.11 
 
>  <oscillator_strength_1> 
0.0009 
 
>  <oscillator_strength_2> 
0.0002 
 
>  <oscillator_strength_3> 
0.0346 
 
>  <oscillator_strength_4> 
0.0031 
 
>  <open_babel_can_smiles> 
COC(=O)CCc1ccccc1 
 
>  <mulliken_charges> 
24 
1   -0.218169 
2   -0.130884 
3   -0.12779 
4   -0.127687 
5   -0.180469 
6   -0.180946 
7   -0.347754 
8   -0.356963 
9   0.166982 
10   0.624049 
11   -0.477947 
12   -0.45415 
13   0.169685 
14   0.169521 
15   0.164152 
16   0.128172 
17   0.128774 
18   0.128779 
19   0.123078 
20   0.123322 
21   0.160927 
22   0.160568 
23   0.177574 
24   0.177177 
 
>  <lowdin_charges> 
24 
1   -0.276432 
2   -0.160073 
3   -0.153084 
4   -0.156098 
5   -0.169443 
6   -0.166426 
7   -0.26829 
8   -0.300183 
9   -0.001316 
10   0.198942 
11   -0.26538 
12   -0.198061 
13   0.159875 
14   0.157364 
15   0.158417 
16   0.156628 
17   0.15586 
18   0.15809 
19   0.154979 
20   0.152869 
21   0.158516 
22   0.160525 
23   0.172511 
24   0.17021 
 
$$$$ 
 
