PCCDB-ID:  40576 
public computational chemistry database (PCCDB) project, http://pccdb.org 
 
 32 34  0  0  0  0  0  0  0  0999 V2000 
    0.7262   -0.2264   -0.0491 C   0  0  0  0  0  0  0  0  0  0  0  0 
    5.1191   -3.0808    0.1953 C   0  0  0  0  0  0  0  0  0  0  0  0 
    3.7862   -3.5236    0.1430 C   0  0  0  0  0  0  0  0  0  0  0  0 
    5.4149   -1.7202    0.1879 C   0  0  0  0  0  0  0  0  0  0  0  0 
    2.7238   -2.6235    0.0847 C   0  0  0  0  0  0  0  0  0  0  0  0 
    3.5045    3.3189    0.0066 C   0  0  0  0  0  0  0  0  0  0  0  0 
    2.5220    2.3344   -0.0118 C   0  0  0  0  0  0  0  0  0  0  0  0 
    5.2705    1.6663    0.1211 C   0  0  0  0  0  0  0  0  0  0  0  0 
    5.9151    4.1118    0.0545 C   0  0  0  0  0  0  0  0  0  0  0  0 
    6.4423    5.4219    1.9163 C   0  0  0  0  0  0  0  0  0  0  0  0 
    4.8777    3.0025    0.0703 C   0  0  0  0  0  0  0  0  0  0  0  0 
    4.3679   -0.7936    0.1294 C   0  0  0  0  0  0  0  0  0  0  0  0 
    4.3054    0.6523    0.0989 C   0  0  0  0  0  0  0  0  0  0  0  0 
    3.0252   -1.2582    0.0850 C   0  0  0  0  0  0  0  0  0  0  0  0 
    2.9311    0.9977    0.0390 C   0  0  0  0  0  0  0  0  0  0  0  0 
    5.5981    5.1688    1.0108 N   0  0  0  0  0  0  0  0  0  0  0  0 
    2.1677   -0.1645    0.0493 N   0  0  0  0  0  0  0  0  0  0  0  0 
    6.2448    6.3745    2.8529 O   0  0  0  0  0  0  0  0  0  0  0  0 
    0.3602   -1.1139    0.4742 H   0  0  0  0  0  0  0  0  0  0  0  0 
    0.3812   -0.2643   -1.0913 H   0  0  0  0  0  0  0  0  0  0  0  0 
    0.2879    0.6510    0.4340 H   0  0  0  0  0  0  0  0  0  0  0  0 
    5.9243   -3.8087    0.2380 H   0  0  0  0  0  0  0  0  0  0  0  0 
    3.5767   -4.5899    0.1444 H   0  0  0  0  0  0  0  0  0  0  0  0 
    6.4471   -1.3812    0.2244 H   0  0  0  0  0  0  0  0  0  0  0  0 
    1.6994   -2.9804    0.0346 H   0  0  0  0  0  0  0  0  0  0  0  0 
    3.2131    4.3648   -0.0172 H   0  0  0  0  0  0  0  0  0  0  0  0 
    1.4722    2.6070   -0.0684 H   0  0  0  0  0  0  0  0  0  0  0  0 
    6.3271    1.4121    0.1750 H   0  0  0  0  0  0  0  0  0  0  0  0 
    5.9397    4.5743   -0.9430 H   0  0  0  0  0  0  0  0  0  0  0  0 
    6.9145    3.6771    0.2241 H   0  0  0  0  0  0  0  0  0  0  0  0 
    7.4095    4.9295    2.0641 H   0  0  0  0  0  0  0  0  0  0  0  0 
    5.3699    6.7628    2.6628 H   0  0  0  0  0  0  0  0  0  0  0  0 
  1 17  1  0  0  0  0 
  1 21  1  0  0  0  0 
  1 19  1  0  0  0  0 
  2 22  1  0  0  0  0 
  3 23  1  0  0  0  0 
  3  2  2  0  0  0  0 
  4  2  1  0  0  0  0 
  4 24  1  0  0  0  0 
  5 14  2  0  0  0  0 
  5  3  1  0  0  0  0 
  6 11  1  0  0  0  0 
  7  6  2  0  0  0  0 
  7 15  1  0  0  0  0 
  8 28  1  0  0  0  0 
  9 11  1  0  0  0  0 
  9 30  1  0  0  0  0 
  9 16  1  0  0  0  0 
 10 31  1  0  0  0  0 
 10 18  1  0  0  0  0 
 11  8  2  0  0  0  0 
 12  4  2  0  0  0  0 
 13  8  1  0  0  0  0 
 13 12  1  0  0  0  0 
 14 12  1  0  0  0  0 
 15 17  1  0  0  0  0 
 15 13  2  0  0  0  0 
 16 10  2  0  0  0  0 
 17 14  1  0  0  0  0 
 20  1  1  0  0  0  0 
 25  5  1  0  0  0  0 
 26  6  1  0  0  0  0 
 27  7  1  0  0  0  0 
 29  9  1  0  0  0  0 
 32 18  1  0  0  0  0 
M  END 
>  <HBA> 
3 
 
>  <HBD> 
1 
 
>  <TPSA> 
34.03 
 
>  <cid> 
40576 
 
>  <dipole> 
1.74 
 
>  <excitation_energy_1> 
3.885 
 
>  <excitation_energy_2> 
4.356 
 
>  <excitation_energy_3> 
4.813 
 
>  <excitation_energy_4> 
4.924 
 
>  <homo_energy> 
-5.279 
 
>  <homo_lumo_gap> 
4.65 
 
>  <logP> 
3.604 
 
>  <lumo_energy> 
-0.629 
 
>  <melting_point> 
148.9 
 
>  <molecular_refractivity> 
73.87 
 
>  <oscillator_strength_1> 
0.035 
 
>  <oscillator_strength_2> 
0.1078 
 
>  <oscillator_strength_3> 
0.0118 
 
>  <oscillator_strength_4> 
0.4661 
 
>  <open_babel_can_smiles> 
O/C=N/Cc1ccc2c(c1)c1ccccc1n2C 
 
>  <mulliken_charges> 
32 
1   -0.325895 
2   -0.147223 
3   -0.140329 
4   -0.196228 
5   -0.183314 
6   -0.180389 
7   -0.181328 
8   -0.265182 
9   -0.238254 
10   0.285514 
11   0.159295 
12   0.058794 
13   0.069523 
14   0.32278 
15   0.323472 
16   -0.398656 
17   -0.625614 
18   -0.559229 
19   0.171913 
20   0.168449 
21   0.172372 
22   0.122207 
23   0.124463 
24   0.127312 
25   0.124603 
26   0.135993 
27   0.125128 
28   0.121573 
29   0.158458 
30   0.124881 
31   0.138378 
32   0.406536 
 
>  <lowdin_charges> 
32 
1   -0.345146 
2   -0.179698 
3   -0.152768 
4   -0.152012 
5   -0.194787 
6   -0.151868 
7   -0.190995 
8   -0.162985 
9   -0.189667 
10   0.012805 
11   -0.027179 
12   -0.033686 
13   -0.034274 
14   0.041522 
15   0.039573 
16   -0.227975 
17   -0.046797 
18   -0.360108 
19   0.165062 
20   0.153827 
21   0.165474 
22   0.156494 
23   0.154818 
24   0.15608 
25   0.155718 
26   0.162269 
27   0.155468 
28   0.152498 
29   0.152832 
30   0.130028 
31   0.1383 
32   0.357178 
 
$$$$ 
 
