PCCDB-ID:  15642 
public computational chemistry database (PCCDB) project, http://pccdb.org 
 
 29 29  0  0  0  0  0  0  0  0999 V2000 
    1.3570    0.2591    0.8271 C   0  0  0  0  0  0  0  0  0  0  0  0 
    8.1087    0.3168    0.7497 C   0  0  0  0  0  0  0  0  0  0  0  0 
    2.7684    0.7259    1.1343 C   0  0  0  0  0  0  0  0  0  0  0  0 
    6.6856    0.7455    1.0572 C   0  0  0  0  0  0  0  0  0  0  0  0 
    4.5472    3.4733   -4.5466 C   0  0  0  0  0  0  0  0  0  0  0  0 
    4.4979    4.3777   -3.4850 C   0  0  0  0  0  0  0  0  0  0  0  0 
    4.6489    2.1017   -4.2959 C   0  0  0  0  0  0  0  0  0  0  0  0 
    4.5482    3.9146   -2.1692 C   0  0  0  0  0  0  0  0  0  0  0  0 
    4.6991    1.6335   -2.9847 C   0  0  0  0  0  0  0  0  0  0  0  0 
    4.6476    2.5407   -1.9167 C   0  0  0  0  0  0  0  0  0  0  0  0 
    4.6864    3.0639    0.8389 O   0  0  0  0  0  0  0  0  0  0  0  0 
    3.4482    0.9688   -0.1208 O   0  0  0  0  0  0  0  0  0  0  0  0 
    6.0289    1.0629   -0.1929 O   0  0  0  0  0  0  0  0  0  0  0  0 
    4.7018    2.0006   -0.2006 P   0  0  0  0  0  0  0  0  0  0  0  0 
    0.8227    0.0518    1.7613 H   0  0  0  0  0  0  0  0  0  0  0  0 
    1.3691   -0.6546    0.2244 H   0  0  0  0  0  0  0  0  0  0  0  0 
    0.8082    1.0290    0.2757 H   0  0  0  0  0  0  0  0  0  0  0  0 
    8.6282    0.0583    1.6794 H   0  0  0  0  0  0  0  0  0  0  0  0 
    8.6570    1.1263    0.2580 H   0  0  0  0  0  0  0  0  0  0  0  0 
    8.1206   -0.5580    0.0916 H   0  0  0  0  0  0  0  0  0  0  0  0 
    3.3228   -0.0427    1.6878 H   0  0  0  0  0  0  0  0  0  0  0  0 
    2.7689    1.6466    1.7247 H   0  0  0  0  0  0  0  0  0  0  0  0 
    6.6629    1.6263    1.7060 H   0  0  0  0  0  0  0  0  0  0  0  0 
    6.1312   -0.0644    1.5489 H   0  0  0  0  0  0  0  0  0  0  0  0 
    4.5061    3.8353   -5.5706 H   0  0  0  0  0  0  0  0  0  0  0  0 
    4.4195    5.4438   -3.6803 H   0  0  0  0  0  0  0  0  0  0  0  0 
    4.6885    1.3983   -5.1232 H   0  0  0  0  0  0  0  0  0  0  0  0 
    4.5123    4.6073   -1.3338 H   0  0  0  0  0  0  0  0  0  0  0  0 
    4.7800    0.5686   -2.7894 H   0  0  0  0  0  0  0  0  0  0  0  0 
  1  3  1  0  0  0  0 
  1 15  1  0  0  0  0 
  2  4  1  0  0  0  0 
  2 18  1  0  0  0  0 
  3 21  1  0  0  0  0 
  3 22  1  0  0  0  0 
  4 24  1  0  0  0  0 
  4 23  1  0  0  0  0 
  5  7  2  0  0  0  0 
  5  6  1  0  0  0  0 
  6  8  2  0  0  0  0 
  7  9  1  0  0  0  0 
  8 10  1  0  0  0  0 
  8 28  1  0  0  0  0 
  9 29  1  0  0  0  0 
  9 10  2  0  0  0  0 
 10 14  1  0  0  0  0 
 12  3  1  0  0  0  0 
 13  4  1  0  0  0  0 
 14 13  1  0  0  0  0 
 14 12  1  0  0  0  0 
 14 11  2  0  0  0  0 
 16  1  1  0  0  0  0 
 17  1  1  0  0  0  0 
 19  2  1  0  0  0  0 
 20  2  1  0  0  0  0 
 25  5  1  0  0  0  0 
 26  6  1  0  0  0  0 
 27  7  1  0  0  0  0 
M  END 
>  <HBA> 
3 
 
>  <HBD> 
0 
 
>  <TPSA> 
45.34 
 
>  <cid> 
15642 
 
>  <dipole> 
2.02 
 
>  <excitation_energy_1> 
5.269 
 
>  <excitation_energy_2> 
5.851 
 
>  <excitation_energy_3> 
6.07 
 
>  <excitation_energy_4> 
6.151 
 
>  <homo_energy> 
-6.955 
 
>  <homo_lumo_gap> 
6.354 
 
>  <logP> 
2.578 
 
>  <lumo_energy> 
-0.601 
 
>  <melting_point> 
13.47 
 
>  <molecular_refractivity> 
57.19 
 
>  <oscillator_strength_1> 
0.0075 
 
>  <oscillator_strength_2> 
0.0991 
 
>  <oscillator_strength_3> 
0.0028 
 
>  <oscillator_strength_4> 
0.0017 
 
>  <open_babel_can_smiles> 
CCOP(=O)(c1ccccc1)OCC 
 
>  <mulliken_charges> 
29 
1   -0.453541 
2   -0.454131 
3   -0.039725 
4   -0.039824 
5   -0.124375 
6   -0.123752 
7   -0.126749 
8   -0.165498 
9   -0.140176 
10   -0.090497 
11   -0.59388 
12   -0.539178 
13   -0.537484 
14   1.106062 
15   0.147659 
16   0.160019 
17   0.16588 
18   0.147888 
19   0.166695 
20   0.160148 
21   0.141247 
22   0.177652 
23   0.17629 
24   0.142185 
25   0.136406 
26   0.137556 
27   0.136229 
28   0.172251 
29   0.154645 
 
>  <lowdin_charges> 
29 
1   -0.449261 
2   -0.448919 
3   -0.12017 
4   -0.12083 
5   -0.141708 
6   -0.152751 
7   -0.156483 
8   -0.137392 
9   -0.128819 
10   -0.176685 
11   -0.60898 
12   -0.40807 
13   -0.405971 
14   1.059954 
15   0.157172 
16   0.157929 
17   0.162132 
18   0.157391 
19   0.162447 
20   0.158219 
21   0.141221 
22   0.162978 
23   0.162222 
24   0.141569 
25   0.159705 
26   0.160001 
27   0.161836 
28   0.181376 
29   0.169888 
 
$$$$ 
 
