PCCDB-ID:  33462 
public computational chemistry database (PCCDB) project, http://pccdb.org 
 
 17 18  0  0  0  0  0  0  0  0999 V2000 
    2.1402    0.7296    0.0291 C   0  0  0  0  0  0  0  0  0  0  0  0 
    0.8964    1.3696    0.0556 C   0  0  0  0  0  0  0  0  0  0  0  0 
    1.0589   -1.4477   -0.0141 C   0  0  0  0  0  0  0  0  0  0  0  0 
    2.2223   -0.6661   -0.0047 C   0  0  0  0  0  0  0  0  0  0  0  0 
   -0.2596    0.5975    0.0475 C   0  0  0  0  0  0  0  0  0  0  0  0 
   -0.1716   -0.8064    0.0125 C   0  0  0  0  0  0  0  0  0  0  0  0 
   -2.5786    0.0752    0.0519 C   0  0  0  0  0  0  0  0  0  0  0  0 
   -3.8474    0.1782    0.0611 N   0  0  0  0  0  0  0  0  0  0  0  0 
   -1.5823    1.0432    0.0690 N   0  0  0  0  0  0  0  0  0  0  0  0 
    3.4164   -1.3377   -0.0303 O   0  0  0  0  0  0  0  0  0  0  0  0 
   -1.7822   -1.5418    0.0076 S   0  0  0  0  0  0  0  0  0  0  0  0 
    3.0495    1.3266    0.0352 H   0  0  0  0  0  0  0  0  0  0  0  0 
    0.8417    2.4543    0.0815 H   0  0  0  0  0  0  0  0  0  0  0  0 
    1.1444   -2.5287   -0.0407 H   0  0  0  0  0  0  0  0  0  0  0  0 
   -4.1522    1.1544    0.0857 H   0  0  0  0  0  0  0  0  0  0  0  0 
   -1.8248    2.0236    0.0931 H   0  0  0  0  0  0  0  0  0  0  0  0 
    4.1406   -0.6933   -0.0199 H   0  0  0  0  0  0  0  0  0  0  0  0 
  1 12  1  0  0  0  0 
  1  2  1  0  0  0  0 
  2 13  1  0  0  0  0 
  3  4  1  0  0  0  0 
  3  6  2  0  0  0  0 
  4  1  2  0  0  0  0 
  5  2  2  0  0  0  0 
  5  9  1  0  0  0  0 
  6  5  1  0  0  0  0 
  7  8  2  0  0  0  0 
  7  9  1  0  0  0  0 
  8 15  1  0  0  0  0 
  9 16  1  0  0  0  0 
 10 17  1  0  0  0  0 
 10  4  1  0  0  0  0 
 11  6  1  0  0  0  0 
 11  7  1  0  0  0  0 
 14  3  1  0  0  0  0 
M  END 
>  <HBA> 
4 
 
>  <HBD> 
2 
 
>  <TPSA> 
87.38 
 
>  <cid> 
33462 
 
>  <dipole> 
5.3 
 
>  <excitation_energy_1> 
4.223 
 
>  <excitation_energy_2> 
4.263 
 
>  <excitation_energy_3> 
4.657 
 
>  <excitation_energy_4> 
4.67 
 
>  <homo_energy> 
-5.339 
 
>  <homo_lumo_gap> 
4.942 
 
>  <logP> 
2.165 
 
>  <lumo_energy> 
-0.397 
 
>  <melting_point> 
153.52 
 
>  <molecular_refractivity> 
46.05 
 
>  <oscillator_strength_1> 
0.0943 
 
>  <oscillator_strength_2> 
0.0001 
 
>  <oscillator_strength_3> 
0.0 
 
>  <oscillator_strength_4> 
0.0012 
 
>  <open_babel_can_smiles> 
Oc1ccc2c(c1)sc(=N)[nH]2 
 
>  <mulliken_charges> 
17 
1   -0.21317 
2   -0.166789 
3   -0.222714 
4   0.366947 
5   0.379386 
6   -0.147827 
7   0.325367 
8   -0.635949 
9   -0.702516 
10   -0.646112 
11   0.237859 
12   0.123505 
13   0.132572 
14   0.156412 
15   0.276922 
16   0.328028 
17   0.40808 
 
>  <lowdin_charges> 
17 
1   -0.212313 
2   -0.176311 
3   -0.184188 
4   0.097815 
5   0.02775 
6   -0.136251 
7   -0.011242 
8   -0.431167 
9   -0.24587 
10   -0.381955 
11   0.257289 
12   0.157326 
13   0.159853 
14   0.175546 
15   0.253504 
16   0.290989 
17   0.359222 
 
$$$$ 
 
