PCCDB-ID:  72761 
public computational chemistry database (PCCDB) project, http://pccdb.org 
 
 14 14  0  0  0  0  0  0  0  0999 V2000 
    0.7222    1.2335   -0.2942 C   0  0  0  0  0  0  0  0  0  0  0  0 
    1.4280    0.0119    0.2798 C   0  0  0  0  0  0  0  0  0  0  0  0 
   -1.4474    0.0578    0.0932 C   0  0  0  0  0  0  0  0  0  0  0  0 
   -0.6784   -1.2770   -0.0965 C   0  0  0  0  0  0  0  0  0  0  0  0 
   -0.6788    1.1961    0.1055 N   0  0  0  0  0  0  0  0  0  0  0  0 
    0.6917   -1.1826   -0.1135 N   0  0  0  0  0  0  0  0  0  0  0  0 
   -2.6533    0.0663    0.2464 O   0  0  0  0  0  0  0  0  0  0  0  0 
   -1.2759   -2.3252   -0.2455 O   0  0  0  0  0  0  0  0  0  0  0  0 
    0.8306    1.2465   -1.3890 H   0  0  0  0  0  0  0  0  0  0  0  0 
    1.1773    2.1460    0.1026 H   0  0  0  0  0  0  0  0  0  0  0  0 
    1.4984    0.1021    1.3741 H   0  0  0  0  0  0  0  0  0  0  0  0 
    2.4440   -0.0526   -0.1212 H   0  0  0  0  0  0  0  0  0  0  0  0 
   -1.2127    2.0578    0.1164 H   0  0  0  0  0  0  0  0  0  0  0  0 
    1.1696   -2.0765   -0.1247 H   0  0  0  0  0  0  0  0  0  0  0  0 
  1 10  1  0  0  0  0 
  1  5  1  0  0  0  0 
  1  2  1  0  0  0  0 
  2 11  1  0  0  0  0 
  3  5  1  0  0  0  0 
  3  7  2  0  0  0  0 
  4  3  1  0  0  0  0 
  5 13  1  0  0  0  0 
  6  4  1  0  0  0  0 
  6  2  1  0  0  0  0 
  8  4  2  0  0  0  0 
  9  1  1  0  0  0  0 
 12  2  1  0  0  0  0 
 14  6  1  0  0  0  0 
M  END 
>  <HBA> 
4 
 
>  <HBD> 
2 
 
>  <TPSA> 
58.2 
 
>  <cid> 
72761 
 
>  <dipole> 
7.08 
 
>  <excitation_energy_1> 
4.156 
 
>  <excitation_energy_2> 
4.875 
 
>  <excitation_energy_3> 
5.381 
 
>  <excitation_energy_4> 
5.788 
 
>  <homo_energy> 
-6.705 
 
>  <homo_lumo_gap> 
5.706 
 
>  <logP> 
-1.11 
 
>  <lumo_energy> 
-0.999 
 
>  <melting_point> 
94.48 
 
>  <molecular_refractivity> 
33.06 
 
>  <oscillator_strength_1> 
0.0001 
 
>  <oscillator_strength_2> 
0.0009 
 
>  <oscillator_strength_3> 
0.0022 
 
>  <oscillator_strength_4> 
0.1211 
 
>  <open_babel_can_smiles> 
O=C1NCCNC1=O 
 
>  <mulliken_charges> 
14 
1   -0.130491 
2   -0.130497 
3   0.549578 
4   0.549541 
5   -0.612222 
6   -0.612094 
7   -0.473639 
8   -0.473719 
9   0.166411 
10   0.163918 
11   0.166412 
12   0.163935 
13   0.336432 
14   0.336436 
 
>  <lowdin_charges> 
14 
1   -0.193331 
2   -0.192974 
3   0.125391 
4   0.133427 
5   -0.280611 
6   -0.282423 
7   -0.251651 
8   -0.253863 
9   0.146742 
10   0.162201 
11   0.146758 
12   0.160914 
13   0.289799 
14   0.289622 
 
$$$$ 
 
