PCCDB-ID:  70190 
public computational chemistry database (PCCDB) project, http://pccdb.org 
 
 22 21  0  0  0  0  0  0  0  0999 V2000 
    1.0529   -0.0627    0.0854 C   0  0  0  0  0  0  0  0  0  0  0  0 
    3.0651   -1.3649    0.7485 C   0  0  0  0  0  0  0  0  0  0  0  0 
    3.0301   -0.1777   -1.4711 C   0  0  0  0  0  0  0  0  0  0  0  0 
    4.5842    1.1478    0.8626 C   0  0  0  0  0  0  0  0  0  0  0  0 
    2.6440    2.3893    0.2448 C   0  0  0  0  0  0  0  0  0  0  0  0 
    2.5943   -0.0935    0.0113 C   0  0  0  0  0  0  0  0  0  0  0  0 
    3.1321    1.1015    0.7251 N   0  0  0  0  0  0  0  0  0  0  0  0 
    0.6442   -1.0197   -0.2559 H   0  0  0  0  0  0  0  0  0  0  0  0 
    0.6181    0.7163   -0.5486 H   0  0  0  0  0  0  0  0  0  0  0  0 
    0.7249    0.1058    1.1169 H   0  0  0  0  0  0  0  0  0  0  0  0 
    2.5363   -2.2404    0.3568 H   0  0  0  0  0  0  0  0  0  0  0  0 
    2.8536   -1.2834    1.8202 H   0  0  0  0  0  0  0  0  0  0  0  0 
    4.1356   -1.5529    0.6197 H   0  0  0  0  0  0  0  0  0  0  0  0 
    2.6005   -1.0682   -1.9443 H   0  0  0  0  0  0  0  0  0  0  0  0 
    4.1194   -0.2464   -1.5686 H   0  0  0  0  0  0  0  0  0  0  0  0 
    2.6935    0.6934   -2.0446 H   0  0  0  0  0  0  0  0  0  0  0  0 
    4.8452    1.9935    1.5090 H   0  0  0  0  0  0  0  0  0  0  0  0 
    5.1297    1.2840   -0.0908 H   0  0  0  0  0  0  0  0  0  0  0  0 
    4.9609    0.2434    1.3448 H   0  0  0  0  0  0  0  0  0  0  0  0 
    3.0161    3.1742    0.9131 H   0  0  0  0  0  0  0  0  0  0  0  0 
    1.5531    2.4301    0.2736 H   0  0  0  0  0  0  0  0  0  0  0  0 
    2.9711    2.6516   -0.7802 H   0  0  0  0  0  0  0  0  0  0  0  0 
  1 10  1  0  0  0  0 
  2 12  1  0  0  0  0 
  3  6  1  0  0  0  0 
  4 19  1  0  0  0  0 
  4 17  1  0  0  0  0 
  5 21  1  0  0  0  0 
  5  7  1  0  0  0  0 
  5 20  1  0  0  0  0 
  6  1  1  0  0  0  0 
  6  7  1  0  0  0  0 
  6  2  1  0  0  0  0 
  7  4  1  0  0  0  0 
  8  1  1  0  0  0  0 
  9  1  1  0  0  0  0 
 11  2  1  0  0  0  0 
 13  2  1  0  0  0  0 
 14  3  1  0  0  0  0 
 15  3  1  0  0  0  0 
 16  3  1  0  0  0  0 
 18  4  1  0  0  0  0 
 22  5  1  0  0  0  0 
M  END 
>  <HBA> 
1 
 
>  <HBD> 
0 
 
>  <TPSA> 
3.24 
 
>  <cid> 
70190 
 
>  <dipole> 
0.5 
 
>  <excitation_energy_1> 
5.027 
 
>  <excitation_energy_2> 
5.479 
 
>  <excitation_energy_3> 
5.544 
 
>  <excitation_energy_4> 
5.71 
 
>  <homo_energy> 
-5.423 
 
>  <homo_lumo_gap> 
7.543 
 
>  <logP> 
1.347 
 
>  <lumo_energy> 
2.12 
 
>  <melting_point> 
-12.9 
 
>  <molecular_refractivity> 
33.89 
 
>  <oscillator_strength_1> 
0.0028 
 
>  <oscillator_strength_2> 
0.0155 
 
>  <oscillator_strength_3> 
0.0042 
 
>  <oscillator_strength_4> 
0.0285 
 
>  <open_babel_can_smiles> 
CN(C(C)(C)C)C 
 
>  <mulliken_charges> 
22 
1   -0.457619 
2   -0.456384 
3   -0.454703 
4   -0.30125 
5   -0.300924 
6   0.235005 
7   -0.379368 
8   0.138504 
9   0.141944 
10   0.152764 
11   0.138269 
12   0.152584 
13   0.141559 
14   0.139134 
15   0.142249 
16   0.142361 
17   0.14438 
18   0.117667 
19   0.151156 
20   0.144101 
21   0.151437 
22   0.117133 
 
>  <lowdin_charges> 
22 
1   -0.448366 
2   -0.444936 
3   -0.459299 
4   -0.361007 
5   -0.357516 
6   0.075201 
7   -0.190464 
8   0.149917 
9   0.148635 
10   0.15423 
11   0.150302 
12   0.153434 
13   0.145675 
14   0.151234 
15   0.146554 
16   0.149065 
17   0.149084 
18   0.119509 
19   0.151988 
20   0.149485 
21   0.149322 
22   0.117951 
 
$$$$ 
 
