PCCDB-ID:  7951 
public computational chemistry database (PCCDB) project, http://pccdb.org 
 
 19 19  0  0  0  0  0  0  0  0999 V2000 
    1.0607   -0.0201    0.0954 C   0  0  0  0  0  0  0  0  0  0  0  0 
    3.2754    1.1882    0.0187 C   0  0  0  0  0  0  0  0  0  0  0  0 
    3.2720   -1.2283    0.0226 C   0  0  0  0  0  0  0  0  0  0  0  0 
    5.3727   -0.0224   -0.0502 C   0  0  0  0  0  0  0  0  0  0  0  0 
    2.5724   -0.0171    0.0438 C   0  0  0  0  0  0  0  0  0  0  0  0 
    4.6802    1.1935   -0.0319 C   0  0  0  0  0  0  0  0  0  0  0  0 
    4.6736   -1.2378   -0.0276 C   0  0  0  0  0  0  0  0  0  0  0  0 
    5.3771    2.4062   -0.1161 N   0  0  0  0  0  0  0  0  0  0  0  0 
    5.3712   -2.4507   -0.1079 N   0  0  0  0  0  0  0  0  0  0  0  0 
    0.6590    0.9970    0.1418 H   0  0  0  0  0  0  0  0  0  0  0  0 
    0.6910   -0.5668    0.9719 H   0  0  0  0  0  0  0  0  0  0  0  0 
    0.6333   -0.5078   -0.7898 H   0  0  0  0  0  0  0  0  0  0  0  0 
    2.7357    2.1326    0.0316 H   0  0  0  0  0  0  0  0  0  0  0  0 
    2.7286   -2.1711    0.0392 H   0  0  0  0  0  0  0  0  0  0  0  0 
    6.4603   -0.0254   -0.0985 H   0  0  0  0  0  0  0  0  0  0  0  0 
    4.8833    3.1986    0.2763 H   0  0  0  0  0  0  0  0  0  0  0  0 
    6.3305    2.3683    0.2240 H   0  0  0  0  0  0  0  0  0  0  0  0 
    4.8754   -3.2428    0.2828 H   0  0  0  0  0  0  0  0  0  0  0  0 
    6.3224   -2.4123    0.2383 H   0  0  0  0  0  0  0  0  0  0  0  0 
  1 10  1  0  0  0  0 
  1 11  1  0  0  0  0 
  2 13  1  0  0  0  0 
  2  5  2  0  0  0  0 
  3 14  1  0  0  0  0 
  3  5  1  0  0  0  0 
  4  6  2  0  0  0  0 
  4  7  1  0  0  0  0 
  5  1  1  0  0  0  0 
  6  2  1  0  0  0  0 
  7  3  2  0  0  0  0 
  8  6  1  0  0  0  0 
  8 17  1  0  0  0  0 
  8 16  1  0  0  0  0 
  9  7  1  0  0  0  0 
  9 19  1  0  0  0  0 
  9 18  1  0  0  0  0 
 12  1  1  0  0  0  0 
 15  4  1  0  0  0  0 
M  END 
>  <HBA> 
2 
 
>  <HBD> 
2 
 
>  <TPSA> 
52.04 
 
>  <cid> 
7951 
 
>  <dipole> 
2.49 
 
>  <excitation_energy_1> 
4.436 
 
>  <excitation_energy_2> 
4.59 
 
>  <excitation_energy_3> 
4.728 
 
>  <excitation_energy_4> 
4.946 
 
>  <homo_energy> 
-4.974 
 
>  <homo_lumo_gap> 
5.595 
 
>  <logP> 
2.322 
 
>  <lumo_energy> 
0.62 
 
>  <melting_point> 
107.47 
 
>  <molecular_refractivity> 
40.22 
 
>  <oscillator_strength_1> 
0.0034 
 
>  <oscillator_strength_2> 
0.0306 
 
>  <oscillator_strength_3> 
0.0056 
 
>  <oscillator_strength_4> 
0.0107 
 
>  <open_babel_can_smiles> 
Cc1cc(N)cc(c1)N 
 
>  <mulliken_charges> 
19 
1   -0.531122 
2   -0.244375 
3   -0.237864 
4   -0.232594 
5   0.175276 
6   0.316231 
7   0.312799 
8   -0.790701 
9   -0.790165 
10   0.150108 
11   0.155441 
12   0.160499 
13   0.099758 
14   0.098166 
15   0.098465 
16   0.316166 
17   0.314145 
18   0.315823 
19   0.313945 
 
>  <lowdin_charges> 
19 
1   -0.441532 
2   -0.241366 
3   -0.241924 
4   -0.250096 
5   0.021056 
6   0.069879 
7   0.070539 
8   -0.49067 
9   -0.491302 
10   0.153156 
11   0.157546 
12   0.160125 
13   0.146409 
14   0.146164 
15   0.143444 
16   0.273776 
17   0.270666 
18   0.27356 
19   0.270572 
 
$$$$ 
 
