PCCDB-ID:  13019 
public computational chemistry database (PCCDB) project, http://pccdb.org 
 
 14 14  0  0  0  0  0  0  0  0999 V2000 
   -0.7714    1.1557   -0.0642 C   0  0  0  0  0  0  0  0  0  0  0  0 
    1.3884    0.0491   -0.0413 C   0  0  0  0  0  0  0  0  0  0  0  0 
   -1.4033   -0.0821   -0.0541 C   0  0  0  0  0  0  0  0  0  0  0  0 
    0.7597   -1.1870   -0.0306 C   0  0  0  0  0  0  0  0  0  0  0  0 
    1.2816    2.5105   -0.0689 C   0  0  0  0  0  0  0  0  0  0  0  0 
    0.6308    1.2356   -0.0581 C   0  0  0  0  0  0  0  0  0  0  0  0 
   -0.6403   -1.2572   -0.0372 C   0  0  0  0  0  0  0  0  0  0  0  0 
    1.8103    3.5474   -0.0778 N   0  0  0  0  0  0  0  0  0  0  0  0 
   -1.2000   -2.4970   -0.0264 O   0  0  0  0  0  0  0  0  0  0  0  0 
   -1.3609    2.0667   -0.0774 H   0  0  0  0  0  0  0  0  0  0  0  0 
    2.4720    0.1075   -0.0360 H   0  0  0  0  0  0  0  0  0  0  0  0 
   -2.4899   -0.1378   -0.0585 H   0  0  0  0  0  0  0  0  0  0  0  0 
    1.3313   -2.1090   -0.0176 H   0  0  0  0  0  0  0  0  0  0  0  0 
   -2.1668   -2.4156   -0.0328 H   0  0  0  0  0  0  0  0  0  0  0  0 
  1  6  2  0  0  0  0 
  1  3  1  0  0  0  0 
  2 11  1  0  0  0  0 
  2  4  2  0  0  0  0 
  3  7  2  0  0  0  0 
  4 13  1  0  0  0  0 
  5  6  1  0  0  0  0 
  6  2  1  0  0  0  0 
  7  4  1  0  0  0  0 
  7  9  1  0  0  0  0 
  8  5  3  0  0  0  0 
 10  1  1  0  0  0  0 
 12  3  1  0  0  0  0 
 14  9  1  0  0  0  0 
M  END 
>  <HBA> 
2 
 
>  <HBD> 
1 
 
>  <TPSA> 
44.02 
 
>  <cid> 
13019 
 
>  <dipole> 
5.19 
 
>  <excitation_energy_1> 
4.916 
 
>  <excitation_energy_2> 
5.248 
 
>  <excitation_energy_3> 
5.488 
 
>  <excitation_energy_4> 
6.168 
 
>  <homo_energy> 
-6.599 
 
>  <homo_lumo_gap> 
5.51 
 
>  <logP> 
1.264 
 
>  <lumo_energy> 
-1.088 
 
>  <melting_point> 
82.03 
 
>  <molecular_refractivity> 
33.18 
 
>  <oscillator_strength_1> 
0.0113 
 
>  <oscillator_strength_2> 
0.3144 
 
>  <oscillator_strength_3> 
0.0003 
 
>  <oscillator_strength_4> 
0.0006 
 
>  <open_babel_can_smiles> 
N#Cc1ccc(cc1)O 
 
>  <mulliken_charges> 
14 
1   -0.139148 
2   -0.139569 
3   -0.198411 
4   -0.162595 
5   0.229642 
6   0.123087 
7   0.366087 
8   -0.481825 
9   -0.629571 
10   0.162185 
11   0.162318 
12   0.135703 
13   0.15723 
14   0.414866 
 
>  <lowdin_charges> 
14 
1   -0.120607 
2   -0.117502 
3   -0.205326 
4   -0.178786 
5   -0.016237 
6   -0.041178 
7   0.116686 
8   -0.126689 
9   -0.358594 
10   0.176394 
11   0.174339 
12   0.159934 
13   0.176702 
14   0.360864 
 
$$$$ 
 
