PCCDB-ID:  61774 
public computational chemistry database (PCCDB) project, http://pccdb.org 
 
 16 15  0  0  0  0  0  0  0  0999 V2000 
    0.2513    0.4040    0.1451 C   0  0  0  0  0  0  0  0  0  0  0  0 
    7.0835    2.3060   -1.0426 C   0  0  0  0  0  0  0  0  0  0  0  0 
    1.6942    0.0512   -0.0251 C   0  0  0  0  0  0  0  0  0  0  0  0 
    6.2470    1.2993   -0.8123 C   0  0  0  0  0  0  0  0  0  0  0  0 
    2.6815    0.9262   -0.2588 C   0  0  0  0  0  0  0  0  0  0  0  0 
    4.0744    0.4670   -0.4093 C   0  0  0  0  0  0  0  0  0  0  0  0 
    4.4706   -0.6774   -0.3421 O   0  0  0  0  0  0  0  0  0  0  0  0 
    4.8973    1.5429   -0.6447 O   0  0  0  0  0  0  0  0  0  0  0  0 
   -0.1165    0.0683    1.1239 H   0  0  0  0  0  0  0  0  0  0  0  0 
   -0.3637   -0.1066   -0.6080 H   0  0  0  0  0  0  0  0  0  0  0  0 
    0.0788    1.4813    0.0609 H   0  0  0  0  0  0  0  0  0  0  0  0 
    8.1411    2.1081   -1.1723 H   0  0  0  0  0  0  0  0  0  0  0  0 
    6.7393    3.3332   -1.1058 H   0  0  0  0  0  0  0  0  0  0  0  0 
    1.9632   -1.0023    0.0467 H   0  0  0  0  0  0  0  0  0  0  0  0 
    6.5258    0.2545   -0.7395 H   0  0  0  0  0  0  0  0  0  0  0  0 
    2.5004    1.9938   -0.3451 H   0  0  0  0  0  0  0  0  0  0  0  0 
  1  9  1  0  0  0  0 
  2  4  2  0  0  0  0 
  3 14  1  0  0  0  0 
  3  1  1  0  0  0  0 
  4 15  1  0  0  0  0 
  4  8  1  0  0  0  0 
  5  3  2  0  0  0  0 
  6  7  2  0  0  0  0 
  6  5  1  0  0  0  0 
  8  6  1  0  0  0  0 
 10  1  1  0  0  0  0 
 11  1  1  0  0  0  0 
 12  2  1  0  0  0  0 
 13  2  1  0  0  0  0 
 16  5  1  0  0  0  0 
M  END 
>  <HBA> 
2 
 
>  <HBD> 
0 
 
>  <TPSA> 
26.3 
 
>  <cid> 
61774 
 
>  <dipole> 
2.1 
 
>  <excitation_energy_1> 
4.793 
 
>  <excitation_energy_2> 
4.851 
 
>  <excitation_energy_3> 
5.811 
 
>  <excitation_energy_4> 
6.494 
 
>  <homo_energy> 
-6.642 
 
>  <homo_lumo_gap> 
5.323 
 
>  <logP> 
1.249 
 
>  <lumo_energy> 
-1.32 
 
>  <melting_point> 
-24.93 
 
>  <molecular_refractivity> 
31.29 
 
>  <oscillator_strength_1> 
0.2774 
 
>  <oscillator_strength_2> 
0.0001 
 
>  <oscillator_strength_3> 
0.412 
 
>  <oscillator_strength_4> 
0.0396 
 
>  <open_babel_can_smiles> 
C=COC(=O)/C=C/C 
 
>  <mulliken_charges> 
16 
1   -0.4994 
2   -0.390234 
3   -0.051814 
4   0.158991 
5   -0.194097 
6   0.619937 
7   -0.486203 
8   -0.473616 
9   0.172031 
10   0.172105 
11   0.164177 
12   0.153382 
13   0.153848 
14   0.169561 
15   0.182333 
16   0.149 
 
>  <lowdin_charges> 
16 
1   -0.438378 
2   -0.362054 
3   -0.086931 
4   -0.031802 
5   -0.211676 
6   0.201988 
7   -0.264382 
8   -0.153855 
9   0.168304 
10   0.169753 
11   0.159227 
12   0.170565 
13   0.167902 
14   0.171723 
15   0.17286 
16   0.166755 
 
$$$$ 
 
