PCCDB-ID:  14467 
public computational chemistry database (PCCDB) project, http://pccdb.org 
 
 21 20  0  0  0  0  0  0  0  0999 V2000 
    2.3877    0.1339    1.4424 C   0  0  0  0  0  0  0  0  0  0  0  0 
    1.5261   -2.8631   -1.7380 C   0  0  0  0  0  0  0  0  0  0  0  0 
    2.5727   -0.1602   -0.0500 C   0  0  0  0  0  0  0  0  0  0  0  0 
    2.1332   -2.6007   -0.3533 C   0  0  0  0  0  0  0  0  0  0  0  0 
    4.4576   -1.7014   -0.2348 C   0  0  0  0  0  0  0  0  0  0  0  0 
    5.2271   -0.7534    0.1808 N   0  0  0  0  0  0  0  0  0  0  0  0 
    4.8735   -3.0038   -0.5817 N   0  0  0  0  0  0  0  0  0  0  0  0 
    3.0936   -1.4983   -0.3354 N   0  0  0  0  0  0  0  0  0  0  0  0 
    1.9680    1.1375    1.5822 H   0  0  0  0  0  0  0  0  0  0  0  0 
    3.3545    0.0859    1.9494 H   0  0  0  0  0  0  0  0  0  0  0  0 
    1.7043   -0.5824    1.9147 H   0  0  0  0  0  0  0  0  0  0  0  0 
    0.7796   -3.6647   -1.6860 H   0  0  0  0  0  0  0  0  0  0  0  0 
    2.2928   -3.1608   -2.4638 H   0  0  0  0  0  0  0  0  0  0  0  0 
    1.0337   -1.9663   -2.1301 H   0  0  0  0  0  0  0  0  0  0  0  0 
    3.2691    0.5626   -0.4809 H   0  0  0  0  0  0  0  0  0  0  0  0 
    1.6171   -0.0628   -0.5805 H   0  0  0  0  0  0  0  0  0  0  0  0 
    2.6228   -3.5026    0.0238 H   0  0  0  0  0  0  0  0  0  0  0  0 
    1.3278   -2.3670    0.3551 H   0  0  0  0  0  0  0  0  0  0  0  0 
    6.2084   -1.0188    0.0863 H   0  0  0  0  0  0  0  0  0  0  0  0 
    5.8819   -3.0828   -0.6348 H   0  0  0  0  0  0  0  0  0  0  0  0 
    4.4399   -3.3789   -1.4191 H   0  0  0  0  0  0  0  0  0  0  0  0 
  1  9  1  0  0  0  0 
  1 11  1  0  0  0  0 
  1 10  1  0  0  0  0 
  2 12  1  0  0  0  0 
  2  4  1  0  0  0  0 
  3  1  1  0  0  0  0 
  4  8  1  0  0  0  0 
  4 17  1  0  0  0  0 
  4 18  1  0  0  0  0 
  5  6  1  0  0  0  0 
  7  5  2  0  0  0  0 
  8  5  1  0  0  0  0 
  8  3  1  0  0  0  0 
 13  2  1  0  0  0  0 
 14  2  1  0  0  0  0 
 15  3  1  0  0  0  0 
 16  3  1  0  0  0  0 
 19  6  1  0  0  0  0 
 20  7  1  0  0  0  0 
 21  7  1  0  0  0  0 
M  RAD  1   6   2 
M  END 
>  <HBA> 
3 
 
>  <HBD> 
2 
 
>  <TPSA> 
53.11 
 
>  <cid> 
14467 
 
>  <dipole> 
2.92 
 
>  <excitation_energy_1> 
4.783 
 
>  <excitation_energy_2> 
5.409 
 
>  <excitation_energy_3> 
5.607 
 
>  <excitation_energy_4> 
5.737 
 
>  <homo_energy> 
-5.486 
 
>  <homo_lumo_gap> 
6.936 
 
>  <logP> 
1.022 
 
>  <lumo_energy> 
1.45 
 
>  <melting_point> 
62.28 
 
>  <molecular_refractivity> 
35.34 
 
>  <oscillator_strength_1> 
0.0163 
 
>  <oscillator_strength_2> 
0.0215 
 
>  <oscillator_strength_3> 
0.0248 
 
>  <oscillator_strength_4> 
0.0146 
 
>  <open_babel_can_smiles> 
CCN(C(=[NH2])[NH])CC 
 
>  <mulliken_charges> 
21 
1   -0.447656 
2   -0.438065 
3   -0.12794 
4   -0.15722 
5   0.584398 
6   -0.662345 
7   -0.758885 
8   -0.405707 
9   0.135652 
10   0.185763 
11   0.133067 
12   0.144523 
13   0.13681 
14   0.155471 
15   0.175693 
16   0.127641 
17   0.171395 
18   0.148986 
19   0.258484 
20   0.317781 
21   0.322155 
 
>  <lowdin_charges> 
21 
1   -0.457228 
2   -0.455648 
3   -0.192402 
4   -0.20302 
5   0.127095 
6   -0.496612 
7   -0.510644 
8   -0.124975 
9   0.148183 
10   0.169464 
11   0.142703 
12   0.152422 
13   0.143366 
14   0.15408 
15   0.168337 
16   0.137293 
17   0.160485 
18   0.148191 
19   0.241676 
20   0.272302 
21   0.274932 
 
$$$$ 
 
