PCCDB-ID:  49608 
public computational chemistry database (PCCDB) project, http://pccdb.org 
 
 39 39  0  0  0  0  0  0  0  0999 V2000 
    0.7730    1.2948    4.1943 C   0  0  0  0  0  0  0  0  0  0  0  0 
    4.8376    4.1200    3.8684 C   0  0  0  0  0  0  0  0  0  0  0  0 
    5.3105    2.8747    4.6326 C   0  0  0  0  0  0  0  0  0  0  0  0 
    4.1050    3.8579    2.5427 C   0  0  0  0  0  0  0  0  0  0  0  0 
    4.2283    1.8246    4.9379 C   0  0  0  0  0  0  0  0  0  0  0  0 
    2.7268    3.1846    2.7031 C   0  0  0  0  0  0  0  0  0  0  0  0 
    3.7706    1.0092    3.7126 C   0  0  0  0  0  0  0  0  0  0  0  0 
   -0.4575    0.0637    1.5758 C   0  0  0  0  0  0  0  0  0  0  0  0 
    0.4875    1.2567    1.7829 C   0  0  0  0  0  0  0  0  0  0  0  0 
    2.7453    1.6385    2.7264 C   0  0  0  0  0  0  0  0  0  0  0  0 
    0.6958   -1.4994    0.0771 C   0  0  0  0  0  0  0  0  0  0  0  0 
    0.3109   -0.8234   -0.9457 N   0  0  0  0  0  0  0  0  0  0  0  0 
    1.5770   -2.5945    0.0821 N   0  0  0  0  0  0  0  0  0  0  0  0 
    0.2678   -1.1843    1.3632 N   0  0  0  0  0  0  0  0  0  0  0  0 
    1.4053    1.0281    2.9064 N   0  0  0  0  0  0  0  0  0  0  0  0 
   -0.1257    0.6780    4.2975 H   0  0  0  0  0  0  0  0  0  0  0  0 
    0.4662    2.3477    4.3346 H   0  0  0  0  0  0  0  0  0  0  0  0 
    1.4470    1.0235    5.0115 H   0  0  0  0  0  0  0  0  0  0  0  0 
    5.7099    4.7592    3.6742 H   0  0  0  0  0  0  0  0  0  0  0  0 
    4.1717    4.7069    4.5189 H   0  0  0  0  0  0  0  0  0  0  0  0 
    5.7629    3.2050    5.5777 H   0  0  0  0  0  0  0  0  0  0  0  0 
    6.1175    2.3857    4.0659 H   0  0  0  0  0  0  0  0  0  0  0  0 
    4.7412    3.2611    1.8718 H   0  0  0  0  0  0  0  0  0  0  0  0 
    3.9662    4.8234    2.0390 H   0  0  0  0  0  0  0  0  0  0  0  0 
    3.3761    2.3039    5.4389 H   0  0  0  0  0  0  0  0  0  0  0  0 
    4.6436    1.1174    5.6685 H   0  0  0  0  0  0  0  0  0  0  0  0 
    2.0793    3.4912    1.8721 H   0  0  0  0  0  0  0  0  0  0  0  0 
    2.2501    3.5734    3.6124 H   0  0  0  0  0  0  0  0  0  0  0  0 
    3.3457    0.0532    4.0402 H   0  0  0  0  0  0  0  0  0  0  0  0 
    4.6728    0.7443    3.1452 H   0  0  0  0  0  0  0  0  0  0  0  0 
   -1.0841    0.2425    0.7003 H   0  0  0  0  0  0  0  0  0  0  0  0 
   -1.1148   -0.0682    2.4439 H   0  0  0  0  0  0  0  0  0  0  0  0 
   -0.1077    2.1810    1.9051 H   0  0  0  0  0  0  0  0  0  0  0  0 
    1.0771    1.3717    0.8676 H   0  0  0  0  0  0  0  0  0  0  0  0 
    3.0504    1.3173    1.7221 H   0  0  0  0  0  0  0  0  0  0  0  0 
    0.6275   -1.2620   -1.8122 H   0  0  0  0  0  0  0  0  0  0  0  0 
    1.7329   -2.9939   -0.8355 H   0  0  0  0  0  0  0  0  0  0  0  0 
    1.3321   -3.3108    0.7582 H   0  0  0  0  0  0  0  0  0  0  0  0 
    1.0010   -1.2966    2.0591 H   0  0  0  0  0  0  0  0  0  0  0  0 
  1 16  1  0  0  0  0 
  1 17  1  0  0  0  0 
  1 18  1  0  0  0  0 
  2 20  1  0  0  0  0 
  2  3  1  0  0  0  0 
  3  5  1  0  0  0  0 
  3 21  1  0  0  0  0 
  4  6  1  0  0  0  0 
  4  2  1  0  0  0  0 
  5 25  1  0  0  0  0 
  5 26  1  0  0  0  0 
  6 10  1  0  0  0  0 
  6 28  1  0  0  0  0 
  7 29  1  0  0  0  0 
  7  5  1  0  0  0  0 
  8  9  1  0  0  0  0 
  8 32  1  0  0  0  0 
  9 33  1  0  0  0  0 
  9 15  1  0  0  0  0 
 10 15  1  0  0  0  0 
 10  7  1  0  0  0  0 
 11 13  2  0  0  0  0 
 11 14  1  0  0  0  0 
 12 11  1  0  0  0  0 
 13 38  1  0  0  0  0 
 14  8  1  0  0  0  0 
 14 39  1  0  0  0  0 
 15  1  1  0  0  0  0 
 19  2  1  0  0  0  0 
 22  3  1  0  0  0  0 
 23  4  1  0  0  0  0 
 24  4  1  0  0  0  0 
 27  6  1  0  0  0  0 
 30  7  1  0  0  0  0 
 31  8  1  0  0  0  0 
 34  9  1  0  0  0  0 
 35 10  1  0  0  0  0 
 36 12  1  0  0  0  0 
 37 13  1  0  0  0  0 
M  RAD  1  12   2 
M  END 
>  <HBA> 
4 
 
>  <HBD> 
2 
 
>  <TPSA> 
67.64 
 
>  <cid> 
49608 
 
>  <dipole> 
2.14 
 
>  <excitation_energy_1> 
4.934 
 
>  <excitation_energy_2> 
5.161 
 
>  <excitation_energy_3> 
5.203 
 
>  <excitation_energy_4> 
5.393 
 
>  <homo_energy> 
-5.51 
 
>  <homo_lumo_gap> 
7.208 
 
>  <logP> 
2.315 
 
>  <lumo_energy> 
1.698 
 
>  <melting_point> 
121.69 
 
>  <molecular_refractivity> 
64.87 
 
>  <oscillator_strength_1> 
0.0012 
 
>  <oscillator_strength_2> 
0.0149 
 
>  <oscillator_strength_3> 
0.0076 
 
>  <oscillator_strength_4> 
0.0014 
 
>  <open_babel_can_smiles> 
CN(C1CCCCCC1)CCNC(=[NH2])[NH] 
 
>  <mulliken_charges> 
39 
1   -0.312867 
2   -0.25428 
3   -0.254751 
4   -0.260286 
5   -0.25884 
6   -0.274784 
7   -0.292471 
8   -0.141287 
9   -0.137524 
10   0.051211 
11   0.581392 
12   -0.651956 
13   -0.754892 
14   -0.587357 
15   -0.403556 
16   0.148404 
17   0.124385 
18   0.154207 
19   0.127999 
20   0.126794 
21   0.127488 
22   0.126208 
23   0.128396 
24   0.131697 
25   0.131223 
26   0.129596 
27   0.136793 
28   0.132524 
29   0.14273 
30   0.133765 
31   0.185022 
32   0.134244 
33   0.114264 
34   0.165304 
35   0.131082 
36   0.260794 
37   0.315687 
38   0.321171 
39   0.322472 
 
>  <lowdin_charges> 
39 
1   -0.363652 
2   -0.278886 
3   -0.279171 
4   -0.279564 
5   -0.285507 
6   -0.298673 
7   -0.29238 
8   -0.208619 
9   -0.215393 
10   -0.063565 
11   0.12765 
12   -0.490451 
13   -0.514465 
14   -0.310038 
15   -0.194852 
16   0.149003 
17   0.122063 
18   0.153122 
19   0.142605 
20   0.137718 
21   0.142164 
22   0.137223 
23   0.139884 
24   0.145024 
25   0.139275 
26   0.146147 
27   0.147588 
28   0.141004 
29   0.150532 
30   0.145573 
31   0.175193 
32   0.140132 
33   0.124474 
34   0.158452 
35   0.141015 
36   0.245332 
37   0.273054 
38   0.278097 
39   0.272893 
 
$$$$ 
 
