PCCDB-ID:  68294 
public computational chemistry database (PCCDB) project, http://pccdb.org 
 
 15 14  0  0  0  0  0  0  0  0999 V2000 
    1.5427   -0.0030    0.2287 C   0  0  0  0  0  0  0  0  0  0  0  0 
    1.0400   -2.1534    1.5084 C   0  0  0  0  0  0  0  0  0  0  0  0 
    0.8699   -1.3821    0.2012 C   0  0  0  0  0  0  0  0  0  0  0  0 
   -0.5323   -1.1762   -0.1960 N   0  0  0  0  0  0  0  0  0  0  0  0 
    1.3388    0.6696   -0.9955 O   0  0  0  0  0  0  0  0  0  0  0  0 
    0.3710   -3.4027    1.3561 O   0  0  0  0  0  0  0  0  0  0  0  0 
    2.6236   -0.1013    0.3824 H   0  0  0  0  0  0  0  0  0  0  0  0 
    1.1414    0.5805    1.0800 H   0  0  0  0  0  0  0  0  0  0  0  0 
    0.6091   -1.5715    2.3420 H   0  0  0  0  0  0  0  0  0  0  0  0 
    2.1118   -2.2967    1.7221 H   0  0  0  0  0  0  0  0  0  0  0  0 
    1.3363   -1.9677   -0.6009 H   0  0  0  0  0  0  0  0  0  0  0  0 
   -1.0489   -0.7694    0.5864 H   0  0  0  0  0  0  0  0  0  0  0  0 
   -0.9640   -2.0810   -0.3736 H   0  0  0  0  0  0  0  0  0  0  0  0 
    0.4305    0.4169   -1.2542 H   0  0  0  0  0  0  0  0  0  0  0  0 
    0.4717   -3.9017    2.1802 H   0  0  0  0  0  0  0  0  0  0  0  0 
  1  7  1  0  0  0  0 
  1  8  1  0  0  0  0 
  2 10  1  0  0  0  0 
  2  9  1  0  0  0  0 
  3  1  1  0  0  0  0 
  3  2  1  0  0  0  0 
  4  3  1  0  0  0  0 
  4 12  1  0  0  0  0 
  5  1  1  0  0  0  0 
  6  2  1  0  0  0  0 
  6 15  1  0  0  0  0 
 11  3  1  0  0  0  0 
 13  4  1  0  0  0  0 
 14  5  1  0  0  0  0 
M  END 
>  <HBA> 
3 
 
>  <HBD> 
3 
 
>  <TPSA> 
66.48 
 
>  <cid> 
68294 
 
>  <dipole> 
3.83 
 
>  <excitation_energy_1> 
6.017 
 
>  <excitation_energy_2> 
6.388 
 
>  <excitation_energy_3> 
6.572 
 
>  <excitation_energy_4> 
6.627 
 
>  <homo_energy> 
-6.68 
 
>  <homo_lumo_gap> 
8.28 
 
>  <logP> 
-1.001 
 
>  <lumo_energy> 
1.6 
 
>  <melting_point> 
66.91 
 
>  <molecular_refractivity> 
21.57 
 
>  <oscillator_strength_1> 
0.0187 
 
>  <oscillator_strength_2> 
0.0264 
 
>  <oscillator_strength_3> 
0.0056 
 
>  <oscillator_strength_4> 
0.0046 
 
>  <open_babel_can_smiles> 
OCC(CO)N 
 
>  <mulliken_charges> 
15 
1   -6.1e-05 
2   -0.036153 
3   -0.027117 
4   -0.736693 
5   -0.633139 
6   -0.623693 
7   0.136518 
8   0.102024 
9   0.112012 
10   0.123964 
11   0.156498 
12   0.295774 
13   0.325135 
14   0.407972 
15   0.39696 
 
>  <lowdin_charges> 
15 
1   -0.136596 
2   -0.149432 
3   -0.096749 
4   -0.547358 
5   -0.47296 
6   -0.476866 
7   0.141843 
8   0.116824 
9   0.123243 
10   0.129568 
11   0.154024 
12   0.254456 
13   0.270048 
14   0.341967 
15   0.347987 
 
$$$$ 
 
