PCCDB-ID:  30914 
public computational chemistry database (PCCDB) project, http://pccdb.org 
 
 15 15  0  0  0  0  0  0  0  0999 V2000 
    2.4668    1.5609   -0.5324 C   0  0  0  0  0  0  0  0  0  0  0  0 
    4.6812   -0.7308    3.4443 C   0  0  0  0  0  0  0  0  0  0  0  0 
    4.0416   -1.7341    2.7045 C   0  0  0  0  0  0  0  0  0  0  0  0 
    3.9602    0.8153    1.9529 C   0  0  0  0  0  0  0  0  0  0  0  0 
    2.5454    0.1168   -0.0648 C   0  0  0  0  0  0  0  0  0  0  0  0 
    3.3185   -0.1818    1.2052 C   0  0  0  0  0  0  0  0  0  0  0  0 
    4.6440    0.5505    3.0737 N   0  0  0  0  0  0  0  0  0  0  0  0 
    3.3635   -1.4688    1.5915 N   0  0  0  0  0  0  0  0  0  0  0  0 
    2.0064   -0.7798   -0.6813 O   0  0  0  0  0  0  0  0  0  0  0  0 
    3.4655    1.9755   -0.7150 H   0  0  0  0  0  0  0  0  0  0  0  0 
    1.9821    2.1945    0.2205 H   0  0  0  0  0  0  0  0  0  0  0  0 
    1.8882    1.5944   -1.4570 H   0  0  0  0  0  0  0  0  0  0  0  0 
    5.2324   -0.9690    4.3519 H   0  0  0  0  0  0  0  0  0  0  0  0 
    4.0821   -2.7739    3.0242 H   0  0  0  0  0  0  0  0  0  0  0  0 
    3.9276    1.8589    1.6511 H   0  0  0  0  0  0  0  0  0  0  0  0 
  1  5  1  0  0  0  0 
  1 11  1  0  0  0  0 
  2 13  1  0  0  0  0 
  3 14  1  0  0  0  0 
  3  2  2  0  0  0  0 
  4  7  2  0  0  0  0 
  5  6  1  0  0  0  0 
  6  8  2  0  0  0  0 
  6  4  1  0  0  0  0 
  7  2  1  0  0  0  0 
  8  3  1  0  0  0  0 
  9  5  2  0  0  0  0 
 10  1  1  0  0  0  0 
 12  1  1  0  0  0  0 
 15  4  1  0  0  0  0 
M  END 
>  <HBA> 
3 
 
>  <HBD> 
0 
 
>  <TPSA> 
42.85 
 
>  <cid> 
30914 
 
>  <dipole> 
2.6 
 
>  <excitation_energy_1> 
3.316 
 
>  <excitation_energy_2> 
3.696 
 
>  <excitation_energy_3> 
4.197 
 
>  <excitation_energy_4> 
4.69 
 
>  <homo_energy> 
-6.841 
 
>  <homo_lumo_gap> 
4.648 
 
>  <logP> 
0.679 
 
>  <lumo_energy> 
-2.193 
 
>  <melting_point> 
69.22 
 
>  <molecular_refractivity> 
32.23 
 
>  <oscillator_strength_1> 
0.0004 
 
>  <oscillator_strength_2> 
0.0022 
 
>  <oscillator_strength_3> 
0.0018 
 
>  <oscillator_strength_4> 
0.0002 
 
>  <open_babel_can_smiles> 
CC(=O)c1cnccn1 
 
>  <mulliken_charges> 
15 
1   -0.547467 
2   0.038601 
3   0.040886 
4   0.006506 
5   0.428322 
6   0.213063 
7   -0.378408 
8   -0.403043 
9   -0.414143 
10   0.173724 
11   0.174405 
12   0.188864 
13   0.161033 
14   0.160267 
15   0.157391 
 
>  <lowdin_charges> 
15 
1   -0.479255 
2   -0.091774 
3   -0.098856 
4   -0.100141 
5   0.156259 
6   -0.01089 
7   -0.115902 
8   -0.084678 
9   -0.199863 
10   0.1707 
11   0.172845 
12   0.179415 
13   0.168327 
14   0.167016 
15   0.166798 
 
$$$$ 
 
