PCCDB-ID:  23522 
public computational chemistry database (PCCDB) project, http://pccdb.org 
 
 24 26  0  0  1  0  0  0  0  0999 V2000 
   -3.6729    0.6739   -0.0189 C   0  0  0  0  0  0  0  0  0  0  0  0 
   -3.6399   -0.7316   -0.0105 C   0  0  0  0  0  0  0  0  0  0  0  0 
   -2.4850    1.3864   -0.0098 C   0  0  0  0  0  0  0  0  0  0  0  0 
   -2.4329   -1.4154    0.0064 C   0  0  0  0  0  0  0  0  0  0  0  0 
    2.4930    1.4168    0.0408 C   0  0  0  0  0  0  0  0  0  0  0  0 
    3.6531    0.7238    0.0580 C   0  0  0  0  0  0  0  0  0  0  0  0 
    0.0172    1.4083    0.0158 C   0  0  0  0  0  0  0  0  0  0  0  0 
    2.4016   -1.4248    0.0593 C   0  0  0  0  0  0  0  0  0  0  0  0 
   -1.2404    0.7239    0.0071 C   0  0  2  0  0  0  0  0  0  0  0  0 
    1.2140    0.7424    0.0312 C   0  0  0  0  0  0  0  0  0  0  0  0 
    3.6924   -0.7577    0.0709 C   0  0  0  0  0  0  0  0  0  0  0  0 
   -1.2251   -0.6967    0.0156 C   0  0  0  0  0  0  0  0  0  0  0  0 
    1.2307   -0.7181    0.0416 C   0  0  0  0  0  0  0  0  0  0  0  0 
   -0.0091   -1.3406    0.0336 N   0  0  0  0  0  0  0  0  0  0  0  0 
    4.7699   -1.3654    0.0893 O   0  0  0  0  0  0  0  0  0  0  0  0 
   -4.6245    1.1958   -0.0321 H   0  0  0  0  0  0  0  0  0  0  0  0 
   -4.5692   -1.2942   -0.0175 H   0  0  0  0  0  0  0  0  0  0  0  0 
   -2.4945    2.4734   -0.0160 H   0  0  0  0  0  0  0  0  0  0  0  0 
   -2.4131   -2.5025    0.0129 H   0  0  0  0  0  0  0  0  0  0  0  0 
    2.4867    2.5047    0.0326 H   0  0  0  0  0  0  0  0  0  0  0  0 
    4.6172    1.2240    0.0649 H   0  0  0  0  0  0  0  0  0  0  0  0 
    0.0135    2.4963    0.0104 H   0  0  0  0  0  0  0  0  0  0  0  0 
    2.4068   -2.5116    0.0677 H   0  0  0  0  0  0  0  0  0  0  0  0 
   -0.0118   -2.3530    0.0419 H   0  0  0  0  0  0  0  0  0  0  0  0 
  1  2  1  0  0  0  0 
  1  3  2  0  0  0  0 
  2  4  1  0  0  0  0 
  4 19  1  0  0  0  0 
  4 12  2  0  0  0  0 
  5  6  2  0  0  0  0 
  6 21  1  0  0  0  0 
  6 11  1  0  0  0  0 
  7 10  2  0  0  0  0 
  8 23  1  0  0  0  0 
  8 11  1  0  0  0  0 
  9  3  1  6  0  0  0 
  9 12  1  0  0  0  0 
  9  7  1  0  0  0  0 
 10  5  1  0  0  0  0 
 10 13  1  0  0  0  0 
 11 15  2  0  0  0  0 
 12 14  1  0  0  0  0 
 13  8  2  0  0  0  0 
 14 13  1  0  0  0  0 
 14 24  1  0  0  0  0 
 16  1  1  0  0  0  0 
 17  2  1  0  0  0  0 
 18  3  1  0  0  0  0 
 20  5  1  0  0  0  0 
 22  7  1  0  0  0  0 
M  RAD  2   2   2   9   2 
M  END 
>  <HBA> 
1 
 
>  <HBD> 
1 
 
>  <TPSA> 
32.86 
 
>  <cid> 
23522 
 
>  <dipole> 
7.03 
 
>  <excitation_energy_1> 
2.731 
 
>  <excitation_energy_2> 
2.785 
 
>  <excitation_energy_3> 
3.742 
 
>  <excitation_energy_4> 
4.3 
 
>  <homo_energy> 
-5.347 
 
>  <homo_lumo_gap> 
3.097 
 
>  <logP> 
2.681 
 
>  <lumo_energy> 
-2.25 
 
>  <melting_point> 
175.71 
 
>  <molecular_refractivity> 
62.07 
 
>  <oscillator_strength_1> 
0.1701 
 
>  <oscillator_strength_2> 
0.0 
 
>  <oscillator_strength_3> 
0.1027 
 
>  <oscillator_strength_4> 
0.1202 
 
>  <open_babel_can_smiles> 
O=C1C=CC2=C[C]3C(=C[CH]C=C3)NC2=C1 
 
>  <mulliken_charges> 
24 
1   -0.136726 
2   -0.132134 
3   -0.204725 
4   -0.178797 
5   -0.177782 
6   -0.187692 
7   -0.214758 
8   -0.306297 
9   0.125475 
10   0.127172 
11   0.443108 
12   0.370768 
13   0.4058 
14   -0.837965 
15   -0.544822 
16   0.138764 
17   0.14283 
18   0.141193 
19   0.136201 
20   0.138133 
21   0.144736 
22   0.14905 
23   0.123203 
24   0.335265 
 
>  <lowdin_charges> 
24 
1   -0.172155 
2   -0.133978 
3   -0.139777 
4   -0.188904 
5   -0.14964 
6   -0.16477 
7   -0.123192 
8   -0.264146 
9   -0.031637 
10   -0.009479 
11   0.126794 
12   0.069367 
13   0.067444 
14   -0.181394 
15   -0.303262 
16   0.164023 
17   0.165764 
18   0.161635 
19   0.159136 
20   0.159527 
21   0.170872 
22   0.165592 
23   0.159498 
24   0.292682 
 
$$$$ 
 
