PCCDB-ID:  7814 
public computational chemistry database (PCCDB) project, http://pccdb.org 
 
 16 16  0  0  0  0  0  0  0  0999 V2000 
   -0.7466    1.1632    0.0052 C   0  0  0  0  0  0  0  0  0  0  0  0 
   -1.3806   -0.0769    0.0046 C   0  0  0  0  0  0  0  0  0  0  0  0 
    1.3913    0.0702    0.0096 C   0  0  0  0  0  0  0  0  0  0  0  0 
    0.7574   -1.1700    0.0090 C   0  0  0  0  0  0  0  0  0  0  0  0 
    0.6522    1.2619    0.0080 C   0  0  0  0  0  0  0  0  0  0  0  0 
   -0.6414   -1.2686    0.0066 C   0  0  0  0  0  0  0  0  0  0  0  0 
    1.2935    2.5163    0.0724 N   0  0  0  0  0  0  0  0  0  0  0  0 
   -1.2828   -2.5231    0.0697 N   0  0  0  0  0  0  0  0  0  0  0  0 
   -1.3484    2.0699    0.0060 H   0  0  0  0  0  0  0  0  0  0  0  0 
   -2.4679   -0.1202    0.0047 H   0  0  0  0  0  0  0  0  0  0  0  0 
    2.4786    0.1134    0.0140 H   0  0  0  0  0  0  0  0  0  0  0  0 
    1.3591   -2.0766    0.0128 H   0  0  0  0  0  0  0  0  0  0  0  0 
    0.7466    3.2691   -0.3308 H   0  0  0  0  0  0  0  0  0  0  0  0 
    2.2235    2.5142   -0.3318 H   0  0  0  0  0  0  0  0  0  0  0  0 
   -2.2125   -2.5206   -0.3353 H   0  0  0  0  0  0  0  0  0  0  0  0 
   -0.7357   -3.2757   -0.3336 H   0  0  0  0  0  0  0  0  0  0  0  0 
  1  9  1  0  0  0  0 
  1  5  1  0  0  0  0 
  2 10  1  0  0  0  0 
  2  1  2  0  0  0  0 
  2  6  1  0  0  0  0 
  3 11  1  0  0  0  0 
  4  3  1  0  0  0  0 
  4 12  1  0  0  0  0 
  5  3  2  0  0  0  0 
  5  7  1  0  0  0  0 
  6  4  2  0  0  0  0 
  6  8  1  0  0  0  0 
 13  7  1  0  0  0  0 
 14  7  1  0  0  0  0 
 15  8  1  0  0  0  0 
 16  8  1  0  0  0  0 
M  END 
>  <HBA> 
2 
 
>  <HBD> 
2 
 
>  <TPSA> 
52.04 
 
>  <cid> 
7814 
 
>  <dipole> 
2.51 
 
>  <excitation_energy_1> 
4.131 
 
>  <excitation_energy_2> 
4.207 
 
>  <excitation_energy_3> 
4.317 
 
>  <excitation_energy_4> 
4.85 
 
>  <homo_energy> 
-4.642 
 
>  <homo_lumo_gap> 
4.933 
 
>  <logP> 
2.013 
 
>  <lumo_energy> 
0.291 
 
>  <melting_point> 
102.63 
 
>  <molecular_refractivity> 
35.25 
 
>  <oscillator_strength_1> 
0.0438 
 
>  <oscillator_strength_2> 
0.0054 
 
>  <oscillator_strength_3> 
0.0034 
 
>  <oscillator_strength_4> 
0.0 
 
>  <open_babel_can_smiles> 
Nc1ccc(cc1)N 
 
>  <mulliken_charges> 
16 
1   -0.177772 
2   -0.177876 
3   -0.17776 
4   -0.177877 
5   0.291932 
6   0.292044 
7   -0.785757 
8   -0.785741 
9   0.113293 
10   0.113257 
11   0.113301 
12   0.113328 
13   0.311408 
14   0.311411 
15   0.311391 
16   0.311418 
 
>  <lowdin_charges> 
16 
1   -0.189289 
2   -0.185974 
3   -0.185927 
4   -0.189233 
5   0.035658 
6   0.035657 
7   -0.501022 
8   -0.501028 
9   0.151647 
10   0.149121 
11   0.149146 
12   0.15167 
13   0.270761 
14   0.269025 
15   0.269005 
16   0.270781 
 
$$$$ 
 
