PCCDB-ID:  8739 
public computational chemistry database (PCCDB) project, http://pccdb.org 
 
 20 20  0  0  0  0  0  0  0  0999 V2000 
   -0.7470    1.1777   -0.0989 C   0  0  0  0  0  0  0  0  0  0  0  0 
    1.4290    0.0985   -0.0577 C   0  0  0  0  0  0  0  0  0  0  0  0 
   -1.3666   -0.0693   -0.1346 C   0  0  0  0  0  0  0  0  0  0  0  0 
    0.8178   -1.1509   -0.0937 C   0  0  0  0  0  0  0  0  0  0  0  0 
    0.6512    1.2638   -0.0564 C   0  0  0  0  0  0  0  0  0  0  0  0 
   -0.5765   -1.2195   -0.1227 C   0  0  0  0  0  0  0  0  0  0  0  0 
    1.3630    2.5726   -0.0193 C   0  0  0  0  0  0  0  0  0  0  0  0 
   -1.5897   -3.2021    1.4718 N   0  0  0  0  0  0  0  0  0  0  0  0 
    0.5184    3.6335   -0.0203 O   0  0  0  0  0  0  0  0  0  0  0  0 
    2.5694    2.7023    0.0105 O   0  0  0  0  0  0  0  0  0  0  0  0 
   -2.7064   -2.6465   -0.7504 O   0  0  0  0  0  0  0  0  0  0  0  0 
   -0.4032   -3.7871   -0.7072 O   0  0  0  0  0  0  0  0  0  0  0  0 
   -1.3737   -2.8300   -0.1696 S   0  0  0  0  0  0  0  0  0  0  0  0 
   -1.3428    2.0831   -0.1094 H   0  0  0  0  0  0  0  0  0  0  0  0 
    2.5095    0.1917   -0.0363 H   0  0  0  0  0  0  0  0  0  0  0  0 
   -2.4465   -0.1544   -0.1864 H   0  0  0  0  0  0  0  0  0  0  0  0 
    1.4064   -2.0615   -0.1142 H   0  0  0  0  0  0  0  0  0  0  0  0 
   -2.5831   -3.3116    1.6662 H   0  0  0  0  0  0  0  0  0  0  0  0 
   -1.0740   -4.0502    1.6979 H   0  0  0  0  0  0  0  0  0  0  0  0 
    1.0861    4.4261    0.0041 H   0  0  0  0  0  0  0  0  0  0  0  0 
  1  5  2  0  0  0  0 
  2  5  1  0  0  0  0 
  2 15  1  0  0  0  0 
  3  6  2  0  0  0  0 
  3  1  1  0  0  0  0 
  4  2  2  0  0  0  0 
  5  7  1  0  0  0  0 
  6  4  1  0  0  0  0 
  7 10  2  0  0  0  0 
  8 18  1  0  0  0  0 
  8 19  1  0  0  0  0 
  9  7  1  0  0  0  0 
  9 20  1  0  0  0  0 
 11 13  2  0  0  0  0 
 12 13  2  0  0  0  0 
 13  6  1  0  0  0  0 
 13  8  1  0  0  0  0 
 14  1  1  0  0  0  0 
 16  3  1  0  0  0  0 
 17  4  1  0  0  0  0 
M  END 
>  <HBA> 
5 
 
>  <HBD> 
2 
 
>  <TPSA> 
105.84 
 
>  <cid> 
8739 
 
>  <dipole> 
3.3 
 
>  <excitation_energy_1> 
4.668 
 
>  <excitation_energy_2> 
4.781 
 
>  <excitation_energy_3> 
5.013 
 
>  <excitation_energy_4> 
5.72 
 
>  <homo_energy> 
-7.519 
 
>  <homo_lumo_gap> 
5.51 
 
>  <logP> 
1.813 
 
>  <lumo_energy> 
-2.008 
 
>  <melting_point> 
184.04 
 
>  <molecular_refractivity> 
44.4 
 
>  <oscillator_strength_1> 
0.0001 
 
>  <oscillator_strength_2> 
0.0282 
 
>  <oscillator_strength_3> 
0.2684 
 
>  <oscillator_strength_4> 
0.0891 
 
>  <open_babel_can_smiles> 
OC(=O)c1ccc(cc1)S(=O)(=O)N 
 
>  <mulliken_charges> 
20 
1   -0.154256 
2   -0.150146 
3   -0.146655 
4   -0.147759 
5   0.070794 
6   -0.125652 
7   0.546171 
8   -0.815592 
9   -0.580069 
10   -0.465063 
11   -0.531376 
12   -0.530442 
13   1.17573 
14   0.173772 
15   0.177958 
16   0.182694 
17   0.183762 
18   0.359532 
19   0.359694 
20   0.416904 
 
>  <lowdin_charges> 
20 
1   -0.132428 
2   -0.120254 
3   -0.134243 
4   -0.136218 
5   -0.032851 
6   -0.163316 
7   0.191904 
8   -0.694603 
9   -0.354431 
10   -0.261401 
11   -0.587811 
12   -0.58809 
13   1.311243 
14   0.181322 
15   0.182645 
16   0.183129 
17   0.186037 
18   0.30019 
19   0.301748 
20   0.367428 
 
$$$$ 
 
