PCCDB-ID:  18853 
public computational chemistry database (PCCDB) project, http://pccdb.org 
 
 24 23  0  0  0  0  0  0  0  0999 V2000 
    0.7994    0.3541    0.3463 C   0  0  0  0  0  0  0  0  0  0  0  0 
    2.8805   -0.3735    1.6032 C   0  0  0  0  0  0  0  0  0  0  0  0 
    4.3787    3.6364    1.3313 C   0  0  0  0  0  0  0  0  0  0  0  0 
    6.3117    3.3787   -0.2819 C   0  0  0  0  0  0  0  0  0  0  0  0 
    2.9943    1.3466   -0.2495 C   0  0  0  0  0  0  0  0  0  0  0  0 
    4.4722    1.6332   -0.2466 C   0  0  0  0  0  0  0  0  0  0  0  0 
    2.2929    0.5018    0.5228 C   0  0  0  0  0  0  0  0  0  0  0  0 
    4.8147    3.1302   -0.0504 C   0  0  0  0  0  0  0  0  0  0  0  0 
    0.5292   -0.6834    0.1028 H   0  0  0  0  0  0  0  0  0  0  0  0 
    0.4159    0.9991   -0.4508 H   0  0  0  0  0  0  0  0  0  0  0  0 
    0.2637    0.6038    1.2732 H   0  0  0  0  0  0  0  0  0  0  0  0 
    2.3819   -0.1889    2.5649 H   0  0  0  0  0  0  0  0  0  0  0  0 
    3.9525   -0.2216    1.7474 H   0  0  0  0  0  0  0  0  0  0  0  0 
    2.7209   -1.4360    1.3711 H   0  0  0  0  0  0  0  0  0  0  0  0 
    4.5750    4.7097    1.4395 H   0  0  0  0  0  0  0  0  0  0  0  0 
    4.9290    3.1168    2.1273 H   0  0  0  0  0  0  0  0  0  0  0  0 
    3.3102    3.4661    1.5001 H   0  0  0  0  0  0  0  0  0  0  0  0 
    6.5592    4.4416   -0.1757 H   0  0  0  0  0  0  0  0  0  0  0  0 
    6.6214    3.0601   -1.2846 H   0  0  0  0  0  0  0  0  0  0  0  0 
    6.9183    2.8238    0.4460 H   0  0  0  0  0  0  0  0  0  0  0  0 
    2.4341    1.9153   -0.9958 H   0  0  0  0  0  0  0  0  0  0  0  0 
    4.8941    1.3134   -1.2126 H   0  0  0  0  0  0  0  0  0  0  0  0 
    4.9942    1.0470    0.5198 H   0  0  0  0  0  0  0  0  0  0  0  0 
    4.2566    3.6983   -0.8110 H   0  0  0  0  0  0  0  0  0  0  0  0 
  1  7  1  0  0  0  0 
  1 11  1  0  0  0  0 
  2 13  1  0  0  0  0 
  2 12  1  0  0  0  0 
  3 15  1  0  0  0  0 
  3 17  1  0  0  0  0 
  3 16  1  0  0  0  0 
  4 18  1  0  0  0  0 
  4  8  1  0  0  0  0 
  4 20  1  0  0  0  0 
  5  6  1  0  0  0  0 
  5  7  2  0  0  0  0 
  6  8  1  0  0  0  0 
  6 23  1  0  0  0  0 
  7  2  1  0  0  0  0 
  8  3  1  0  0  0  0 
  9  1  1  0  0  0  0 
 10  1  1  0  0  0  0 
 14  2  1  0  0  0  0 
 19  4  1  0  0  0  0 
 21  5  1  0  0  0  0 
 22  6  1  0  0  0  0 
 24  8  1  0  0  0  0 
M  END 
>  <HBA> 
0 
 
>  <HBD> 
0 
 
>  <TPSA> 
0.0 
 
>  <cid> 
18853 
 
>  <dipole> 
0.21 
 
>  <excitation_energy_1> 
5.708 
 
>  <excitation_energy_2> 
6.141 
 
>  <excitation_energy_3> 
6.188 
 
>  <excitation_energy_4> 
6.326 
 
>  <homo_energy> 
-6.144 
 
>  <homo_lumo_gap> 
7.078 
 
>  <logP> 
2.999 
 
>  <lumo_energy> 
0.933 
 
>  <melting_point> 
-14.68 
 
>  <molecular_refractivity> 
40.1 
 
>  <oscillator_strength_1> 
0.0041 
 
>  <oscillator_strength_2> 
0.0104 
 
>  <oscillator_strength_3> 
0.0145 
 
>  <oscillator_strength_4> 
0.1104 
 
>  <open_babel_can_smiles> 
CC(CC=C(C)C)C 
 
>  <mulliken_charges> 
24 
1   -0.505959 
2   -0.511701 
3   -0.439134 
4   -0.441557 
5   -0.161361 
6   -0.291546 
7   0.186076 
8   -0.068194 
9   0.148083 
10   0.150207 
11   0.148105 
12   0.150123 
13   0.154128 
14   0.151256 
15   0.137017 
16   0.133908 
17   0.149982 
18   0.139958 
19   0.138269 
20   0.137572 
21   0.107695 
22   0.135601 
23   0.130913 
24   0.120559 
 
>  <lowdin_charges> 
24 
1   -0.43985 
2   -0.441259 
3   -0.444786 
4   -0.444396 
5   -0.191653 
6   -0.27641 
7   -0.011251 
8   -0.118994 
9   0.150759 
10   0.15466 
11   0.151985 
12   0.153927 
13   0.15348 
14   0.153298 
15   0.144869 
16   0.144358 
17   0.151676 
18   0.146574 
19   0.145905 
20   0.146032 
21   0.144727 
22   0.146991 
23   0.143923 
24   0.135434 
 
$$$$ 
 
