PCCDB-ID:  68451 
public computational chemistry database (PCCDB) project, http://pccdb.org 
 
 25 25  0  0  0  0  0  0  0  0999 V2000 
    0.7921   -1.6545   -0.2348 C   0  0  0  0  0  0  0  0  0  0  0  0 
    1.2776    1.9317   -1.8752 C   0  0  0  0  0  0  0  0  0  0  0  0 
    0.8881    1.1980    1.8624 C   0  0  0  0  0  0  0  0  0  0  0  0 
    4.6036   -1.3906   -0.3647 C   0  0  0  0  0  0  0  0  0  0  0  0 
    4.8144   -0.0504   -0.0423 C   0  0  0  0  0  0  0  0  0  0  0  0 
    3.3043   -1.8966   -0.4221 C   0  0  0  0  0  0  0  0  0  0  0  0 
    3.7186    0.7712    0.2202 C   0  0  0  0  0  0  0  0  0  0  0  0 
    2.1903   -1.0884   -0.1628 C   0  0  0  0  0  0  0  0  0  0  0  0 
    0.7523    2.0066   -0.4486 C   0  0  0  0  0  0  0  0  0  0  0  0 
    2.4162    0.2652    0.1572 C   0  0  0  0  0  0  0  0  0  0  0  0 
    1.3109    1.1286    0.4642 N   0  0  0  0  0  0  0  0  0  0  0  0 
   -0.1217    2.8032   -0.1289 O   0  0  0  0  0  0  0  0  0  0  0  0 
    0.8129   -2.6989   -0.5598 H   0  0  0  0  0  0  0  0  0  0  0  0 
    0.1625   -1.0933   -0.9346 H   0  0  0  0  0  0  0  0  0  0  0  0 
    0.2872   -1.6178    0.7381 H   0  0  0  0  0  0  0  0  0  0  0  0 
    1.3480    0.9041   -2.2443 H   0  0  0  0  0  0  0  0  0  0  0  0 
    2.2799    2.3696   -1.9424 H   0  0  0  0  0  0  0  0  0  0  0  0 
    0.5995    2.5068   -2.5073 H   0  0  0  0  0  0  0  0  0  0  0  0 
   -0.0233    1.7939    1.9077 H   0  0  0  0  0  0  0  0  0  0  0  0 
    1.6591    1.6690    2.4857 H   0  0  0  0  0  0  0  0  0  0  0  0 
    0.6973    0.1921    2.2507 H   0  0  0  0  0  0  0  0  0  0  0  0 
    5.4473   -2.0435   -0.5712 H   0  0  0  0  0  0  0  0  0  0  0  0 
    5.8217    0.3534    0.0075 H   0  0  0  0  0  0  0  0  0  0  0  0 
    3.1464   -2.9423   -0.6753 H   0  0  0  0  0  0  0  0  0  0  0  0 
    3.8609    1.8173    0.4782 H   0  0  0  0  0  0  0  0  0  0  0  0 
  1  8  1  0  0  0  0 
  1 15  1  0  0  0  0 
  2  9  1  0  0  0  0 
  3 19  1  0  0  0  0 
  3 21  1  0  0  0  0 
  3 20  1  0  0  0  0 
  4  5  1  0  0  0  0 
  5 23  1  0  0  0  0 
  5  7  2  0  0  0  0 
  6  4  2  0  0  0  0 
  6  8  1  0  0  0  0 
  7 25  1  0  0  0  0 
  8 10  2  0  0  0  0 
  9 12  2  0  0  0  0 
  9 11  1  0  0  0  0 
 10  7  1  0  0  0  0 
 10 11  1  0  0  0  0 
 11  3  1  0  0  0  0 
 13  1  1  0  0  0  0 
 14  1  1  0  0  0  0 
 16  2  1  0  0  0  0 
 17  2  1  0  0  0  0 
 18  2  1  0  0  0  0 
 22  4  1  0  0  0  0 
 24  6  1  0  0  0  0 
M  END 
>  <HBA> 
2 
 
>  <HBD> 
0 
 
>  <TPSA> 
20.31 
 
>  <cid> 
68451 
 
>  <dipole> 
3.72 
 
>  <excitation_energy_1> 
5.024 
 
>  <excitation_energy_2> 
5.189 
 
>  <excitation_energy_3> 
5.326 
 
>  <excitation_energy_4> 
5.355 
 
>  <homo_energy> 
-6.408 
 
>  <homo_lumo_gap> 
6.006 
 
>  <logP> 
1.978 
 
>  <lumo_energy> 
-0.403 
 
>  <melting_point> 
38.23 
 
>  <molecular_refractivity> 
50.62 
 
>  <oscillator_strength_1> 
0.001 
 
>  <oscillator_strength_2> 
0.0054 
 
>  <oscillator_strength_3> 
0.0005 
 
>  <oscillator_strength_4> 
0.0311 
 
>  <open_babel_can_smiles> 
CC(=O)N(c1ccccc1C)C 
 
>  <mulliken_charges> 
25 
1   -0.528937 
2   -0.539598 
3   -0.318731 
4   -0.11262 
5   -0.147097 
6   -0.206273 
7   -0.131829 
8   0.179788 
9   0.566723 
10   0.16926 
11   -0.491727 
12   -0.504484 
13   0.15615 
14   0.171028 
15   0.168217 
16   0.167737 
17   0.174098 
18   0.181826 
19   0.201817 
20   0.154561 
21   0.152071 
22   0.133869 
23   0.135874 
24   0.129412 
25   0.138863 
 
>  <lowdin_charges> 
25 
1   -0.440956 
2   -0.472754 
3   -0.351967 
4   -0.152581 
5   -0.157859 
6   -0.162842 
7   -0.159695 
8   -0.004144 
9   0.162321 
10   0.028505 
11   -0.102892 
12   -0.309911 
13   0.157131 
14   0.166559 
15   0.163311 
16   0.166249 
17   0.171709 
18   0.176976 
19   0.182675 
20   0.149994 
21   0.149416 
22   0.161489 
23   0.160371 
24   0.156367 
25   0.162529 
 
$$$$ 
 
