PCCDB-ID:  33822 
public computational chemistry database (PCCDB) project, http://pccdb.org 
 
 34 34  0  0  1  0  0  0  0  0999 V2000 
    3.7740    1.0716    0.3328 C   0  0  0  0  0  0  0  0  0  0  0  0 
    2.5892   -4.3833   -6.0130 C   0  0  0  0  0  0  0  0  0  0  0  0 
    2.4385   -5.3617   -3.6787 C   0  0  0  0  0  0  0  0  0  0  0  0 
    8.8106   -3.3167   -2.8281 C   0  0  0  0  0  0  0  0  0  0  0  0 
    3.2276   -0.3393    0.5626 C   0  0  0  0  0  0  0  0  0  0  0  0 
    3.5690   -1.3042   -0.5788 C   0  0  0  0  0  0  0  0  0  0  0  0 
    3.0385   -4.2480   -4.5539 C   0  0  0  0  0  0  0  0  0  0  0  0 
    7.3281   -3.1131   -2.6827 C   0  0  2  0  0  0  0  0  0  0  0  0 
    5.4819   -2.2102   -1.6224 C   0  0  0  0  0  0  0  0  0  0  0  0 
    5.1466   -3.6825   -3.6082 C   0  0  0  0  0  0  0  0  0  0  0  0 
    5.0075   -1.4679   -0.6974 N   0  0  0  0  0  0  0  0  0  0  0  0 
    4.4974   -4.3001   -4.5163 N   0  0  0  0  0  0  0  0  0  0  0  0 
    6.8635   -2.3732   -1.7327 N   0  0  0  0  0  0  0  0  0  0  0  0 
    6.5415   -3.7583   -3.6090 N   0  0  0  0  0  0  0  0  0  0  0  0 
    4.6766   -2.9061   -2.5597 N   0  0  0  0  0  0  0  0  0  0  0  0 
    3.5554    1.7255    1.1846 H   0  0  0  0  0  0  0  0  0  0  0  0 
    3.3293    1.5278   -0.5615 H   0  0  0  0  0  0  0  0  0  0  0  0 
    4.8584    1.0386    0.1908 H   0  0  0  0  0  0  0  0  0  0  0  0 
    1.4969   -4.3403   -6.0936 H   0  0  0  0  0  0  0  0  0  0  0  0 
    2.9334   -5.3384   -6.4252 H   0  0  0  0  0  0  0  0  0  0  0  0 
    3.0144   -3.5799   -6.6232 H   0  0  0  0  0  0  0  0  0  0  0  0 
    1.3435   -5.3520   -3.7284 H   0  0  0  0  0  0  0  0  0  0  0  0 
    2.7339   -5.2500   -2.6289 H   0  0  0  0  0  0  0  0  0  0  0  0 
    2.7924   -6.3394   -4.0237 H   0  0  0  0  0  0  0  0  0  0  0  0 
    9.3254   -2.7148   -2.0793 H   0  0  0  0  0  0  0  0  0  0  0  0 
    9.1515   -3.0215   -3.8279 H   0  0  0  0  0  0  0  0  0  0  0  0 
    9.0742   -4.3719   -2.6839 H   0  0  0  0  0  0  0  0  0  0  0  0 
    2.1361   -0.3090    0.6837 H   0  0  0  0  0  0  0  0  0  0  0  0 
    3.6413   -0.7499    1.4922 H   0  0  0  0  0  0  0  0  0  0  0  0 
    3.1306   -0.9112   -1.5168 H   0  0  0  0  0  0  0  0  0  0  0  0 
    3.0757   -2.2747   -0.3851 H   0  0  0  0  0  0  0  0  0  0  0  0 
    2.6575   -3.2760   -4.1867 H   0  0  0  0  0  0  0  0  0  0  0  0 
    6.9389   -4.3195   -4.3502 H   0  0  0  0  0  0  0  0  0  0  0  0 
    3.6758   -2.8021   -2.4835 H   0  0  0  0  0  0  0  0  0  0  0  0 
  1  5  1  0  0  0  0 
  1 16  1  0  0  0  0 
  2  7  1  0  0  0  0 
  3 23  1  0  0  0  0 
  4 27  1  0  0  0  0 
  4 25  1  0  0  0  0 
  5 28  1  0  0  0  0 
  5 29  1  0  0  0  0 
  6 31  1  0  0  0  0 
  6  5  1  0  0  0  0 
  7 12  1  0  0  0  0 
  7 32  1  0  0  0  0 
  7  3  1  0  0  0  0 
  8  4  1  1  0  0  0 
  8 13  1  0  0  0  0 
  9 11  1  0  0  0  0 
 10 15  1  0  0  0  0 
 11  6  1  0  0  0  0 
 12 10  2  0  0  0  0 
 13  9  2  0  0  0  0 
 14 10  1  0  0  0  0 
 14  8  1  0  0  0  0 
 15 34  1  0  0  0  0 
 15  9  1  0  0  0  0 
 17  1  1  0  0  0  0 
 18  1  1  0  0  0  0 
 19  2  1  0  0  0  0 
 20  2  1  0  0  0  0 
 21  2  1  0  0  0  0 
 22  3  1  0  0  0  0 
 24  3  1  0  0  0  0 
 26  4  1  0  0  0  0 
 30  6  1  0  0  0  0 
 33 14  1  0  0  0  0 
M  RAD  2   8   2  11   2 
M  END 
>  <HBA> 
5 
 
>  <HBD> 
2 
 
>  <TPSA> 
62.73 
 
>  <cid> 
33822 
 
>  <dipole> 
3.01 
 
>  <excitation_energy_1> 
4.875 
 
>  <excitation_energy_2> 
4.951 
 
>  <excitation_energy_3> 
5.118 
 
>  <excitation_energy_4> 
5.394 
 
>  <homo_energy> 
-6.158 
 
>  <homo_lumo_gap> 
5.581 
 
>  <logP> 
1.968 
 
>  <lumo_energy> 
-0.577 
 
>  <melting_point> 
122.13 
 
>  <molecular_refractivity> 
62.63 
 
>  <oscillator_strength_1> 
0.0064 
 
>  <oscillator_strength_2> 
0.0907 
 
>  <oscillator_strength_3> 
0.0901 
 
>  <oscillator_strength_4> 
0.0183 
 
>  <open_babel_can_smiles> 
CCC[N]C1=N[C](N/C(=N/C(C)C)/N1)C 
 
>  <mulliken_charges> 
34 
1   -0.443427 
2   -0.428864 
3   -0.436103 
4   -0.535071 
5   -0.243376 
6   -0.16323 
7   0.01154 
8   0.518049 
9   0.652164 
10   0.749676 
11   -0.455549 
12   -0.498739 
13   -0.489684 
14   -0.67253 
15   -0.743293 
16   0.136371 
17   0.12971 
18   0.175303 
19   0.134554 
20   0.15054 
21   0.147795 
22   0.142469 
23   0.138976 
24   0.156894 
25   0.204798 
26   0.171428 
27   0.175915 
28   0.120307 
29   0.144554 
30   0.119866 
31   0.125054 
32   0.102109 
33   0.346363 
34   0.355434 
 
>  <lowdin_charges> 
34 
1   -0.446845 
2   -0.441731 
3   -0.446842 
4   -0.449104 
5   -0.270753 
6   -0.211384 
7   -0.054082 
8   0.118217 
9   0.12093 
10   0.138589 
11   -0.219033 
12   -0.266921 
13   -0.196355 
14   -0.233003 
15   -0.271335 
16   0.14757 
17   0.141288 
18   0.161145 
19   0.144285 
20   0.153689 
21   0.154432 
22   0.148548 
23   0.144877 
24   0.156056 
25   0.189308 
26   0.167568 
27   0.169431 
28   0.134807 
29   0.148373 
30   0.124955 
31   0.130061 
32   0.114537 
33   0.304548 
34   0.294172 
 
$$$$ 
 
