PCCDB-ID:  11991 
public computational chemistry database (PCCDB) project, http://pccdb.org 
 
 24 23  0  0  1  0  0  0  0  0999 V2000 
    1.0944   -0.8042    0.2386 C   0  0  0  0  0  0  0  0  0  0  0  0 
    6.0608    3.1501   -0.8607 C   0  0  0  0  0  0  0  0  0  0  0  0 
    1.5721    2.1733   -0.5287 C   0  0  0  0  0  0  0  0  0  0  0  0 
    2.3545    0.0027    0.5697 C   0  0  0  0  0  0  0  0  0  0  0  0 
    4.6313    2.6874   -1.1602 C   0  0  0  0  0  0  0  0  0  0  0  0 
    2.6943    1.1256   -0.4327 C   0  0  2  0  0  0  0  0  0  0  0  0 
    4.0641    1.7576   -0.0761 C   0  0  2  0  0  0  0  0  0  0  0  0 
    4.0341    2.4099    1.2004 O   0  0  0  0  0  0  0  0  0  0  0  0 
    0.9657   -1.6297    0.9480 H   0  0  0  0  0  0  0  0  0  0  0  0 
    1.1522   -1.2392   -0.7675 H   0  0  0  0  0  0  0  0  0  0  0  0 
    0.1863   -0.1931    0.2843 H   0  0  0  0  0  0  0  0  0  0  0  0 
    6.4217    3.8474   -1.6250 H   0  0  0  0  0  0  0  0  0  0  0  0 
    6.7513    2.2984   -0.8312 H   0  0  0  0  0  0  0  0  0  0  0  0 
    6.1098    3.6480    0.1126 H   0  0  0  0  0  0  0  0  0  0  0  0 
    0.6327    1.7202   -0.8591 H   0  0  0  0  0  0  0  0  0  0  0  0 
    1.8119    2.9696   -1.2420 H   0  0  0  0  0  0  0  0  0  0  0  0 
    1.3797    2.6364    0.4483 H   0  0  0  0  0  0  0  0  0  0  0  0 
    3.2107   -0.6850    0.6154 H   0  0  0  0  0  0  0  0  0  0  0  0 
    2.2690    0.4426    1.5712 H   0  0  0  0  0  0  0  0  0  0  0  0 
    4.6005    2.1655   -2.1266 H   0  0  0  0  0  0  0  0  0  0  0  0 
    3.9774    3.5652   -1.2685 H   0  0  0  0  0  0  0  0  0  0  0  0 
    2.8137    0.6658   -1.4267 H   0  0  0  0  0  0  0  0  0  0  0  0 
    4.7779    0.9356    0.0684 H   0  0  0  0  0  0  0  0  0  0  0  0 
    3.4823    3.2027    1.1043 H   0  0  0  0  0  0  0  0  0  0  0  0 
  1 11  1  0  0  0  0 
  1  4  1  0  0  0  0 
  1  9  1  0  0  0  0 
  2 13  1  0  0  0  0 
  2 14  1  0  0  0  0 
  3  6  1  0  0  0  0 
  3 17  1  0  0  0  0 
  4 18  1  0  0  0  0 
  4 19  1  0  0  0  0 
  5  2  1  0  0  0  0 
  5  7  1  0  0  0  0 
  6 22  1  6  0  0  0 
  6  7  1  0  0  0  0 
  6  4  1  0  0  0  0 
  7 23  1  1  0  0  0 
  7  8  1  0  0  0  0 
 10  1  1  0  0  0  0 
 12  2  1  0  0  0  0 
 15  3  1  0  0  0  0 
 16  3  1  0  0  0  0 
 20  5  1  0  0  0  0 
 21  5  1  0  0  0  0 
 24  8  1  0  0  0  0 
M  END 
>  <HBA> 
1 
 
>  <HBD> 
1 
 
>  <TPSA> 
20.23 
 
>  <cid> 
11991 
 
>  <dipole> 
1.53 
 
>  <excitation_energy_1> 
6.442 
 
>  <excitation_energy_2> 
6.929 
 
>  <excitation_energy_3> 
7.225 
 
>  <excitation_energy_4> 
7.281 
 
>  <homo_energy> 
-7.018 
 
>  <homo_lumo_gap> 
8.876 
 
>  <logP> 
1.803 
 
>  <lumo_energy> 
1.859 
 
>  <melting_point> 
-8.61 
 
>  <molecular_refractivity> 
36.92 
 
>  <oscillator_strength_1> 
0.0053 
 
>  <oscillator_strength_2> 
0.0009 
 
>  <oscillator_strength_3> 
0.0013 
 
>  <oscillator_strength_4> 
0.0135 
 
>  <open_babel_can_smiles> 
CC[C@H]([C@@H](CC)C)O 
 
>  <mulliken_charges> 
24 
1   -0.449579 
2   -0.440702 
3   -0.480067 
4   -0.248856 
5   -0.276618 
6   -0.070453 
7   0.137206 
8   -0.629263 
9   0.143444 
10   0.13816 
11   0.143721 
12   0.138977 
13   0.142039 
14   0.157802 
15   0.154605 
16   0.145111 
17   0.136008 
18   0.126955 
19   0.14687 
20   0.132139 
21   0.123434 
22   0.114408 
23   0.127827 
24   0.386833 
 
>  <lowdin_charges> 
24 
1   -0.447169 
2   -0.446833 
3   -0.457106 
4   -0.274637 
5   -0.291688 
6   -0.139763 
7   -0.004363 
8   -0.46455 
9   0.151405 
10   0.143652 
11   0.14647 
12   0.14921 
13   0.147848 
14   0.154838 
15   0.156365 
16   0.149076 
17   0.142824 
18   0.140756 
19   0.147304 
20   0.144413 
21   0.136534 
22   0.135937 
23   0.141239 
24   0.338238 
 
$$$$ 
 
