PCCDB-ID:  66220 
public computational chemistry database (PCCDB) project, http://pccdb.org 
 
 25 24  0  0  0  0  0  0  0  0999 V2000 
    0.9996   -0.4800    2.4064 C   0  0  0  0  0  0  0  0  0  0  0  0 
    5.0021   -1.2213   -0.5624 C   0  0  0  0  0  0  0  0  0  0  0  0 
    2.5233   -0.6445    2.4533 C   0  0  0  0  0  0  0  0  0  0  0  0 
    3.1223   -0.8498    1.0510 C   0  0  0  0  0  0  0  0  0  0  0  0 
    5.3794    0.2759    1.4294 C   0  0  0  0  0  0  0  0  0  0  0  0 
    5.1266   -2.2212    1.7521 C   0  0  0  0  0  0  0  0  0  0  0  0 
    4.6619   -1.0019    0.9248 C   0  0  0  0  0  0  0  0  0  0  0  0 
    6.7794    0.2762    1.1988 O   0  0  0  0  0  0  0  0  0  0  0  0 
    6.5413   -2.4661    1.6903 O   0  0  0  0  0  0  0  0  0  0  0  0 
    0.5836   -0.3380    3.4102 H   0  0  0  0  0  0  0  0  0  0  0  0 
    0.5180   -1.3626    1.9675 H   0  0  0  0  0  0  0  0  0  0  0  0 
    0.7127    0.3881    1.8005 H   0  0  0  0  0  0  0  0  0  0  0  0 
    4.5886   -0.4117   -1.1748 H   0  0  0  0  0  0  0  0  0  0  0  0 
    4.5811   -2.1652   -0.9330 H   0  0  0  0  0  0  0  0  0  0  0  0 
    6.0833   -1.2208   -0.7292 H   0  0  0  0  0  0  0  0  0  0  0  0 
    2.7681   -1.4955    3.1020 H   0  0  0  0  0  0  0  0  0  0  0  0 
    2.9640    0.2398    2.9301 H   0  0  0  0  0  0  0  0  0  0  0  0 
    2.8194   -0.0035    0.4173 H   0  0  0  0  0  0  0  0  0  0  0  0 
    2.6536   -1.7383    0.6011 H   0  0  0  0  0  0  0  0  0  0  0  0 
    5.1641    0.4185    2.5014 H   0  0  0  0  0  0  0  0  0  0  0  0 
    4.9808    1.1504    0.9004 H   0  0  0  0  0  0  0  0  0  0  0  0 
    4.5737   -3.1210    1.4396 H   0  0  0  0  0  0  0  0  0  0  0  0 
    4.9259   -2.0630    2.8153 H   0  0  0  0  0  0  0  0  0  0  0  0 
    7.1059   -0.5656    1.5675 H   0  0  0  0  0  0  0  0  0  0  0  0 
    6.7508   -2.7611    0.7901 H   0  0  0  0  0  0  0  0  0  0  0  0 
  1  3  1  0  0  0  0 
  1 10  1  0  0  0  0 
  2  7  1  0  0  0  0 
  3 17  1  0  0  0  0 
  3 16  1  0  0  0  0 
  4  3  1  0  0  0  0 
  5 20  1  0  0  0  0 
  6 23  1  0  0  0  0 
  7  4  1  0  0  0  0 
  7  5  1  0  0  0  0 
  7  6  1  0  0  0  0 
  8  5  1  0  0  0  0 
  8 24  1  0  0  0  0 
  9  6  1  0  0  0  0 
 11  1  1  0  0  0  0 
 12  1  1  0  0  0  0 
 13  2  1  0  0  0  0 
 14  2  1  0  0  0  0 
 15  2  1  0  0  0  0 
 18  4  1  0  0  0  0 
 19  4  1  0  0  0  0 
 21  5  1  0  0  0  0 
 22  6  1  0  0  0  0 
 25  9  1  0  0  0  0 
M  END 
>  <HBA> 
2 
 
>  <HBD> 
2 
 
>  <TPSA> 
40.46 
 
>  <cid> 
66220 
 
>  <dipole> 
2.65 
 
>  <excitation_energy_1> 
6.093 
 
>  <excitation_energy_2> 
6.543 
 
>  <excitation_energy_3> 
6.616 
 
>  <excitation_energy_4> 
6.843 
 
>  <homo_energy> 
-6.71 
 
>  <homo_lumo_gap> 
8.253 
 
>  <logP> 
0.777 
 
>  <lumo_energy> 
1.543 
 
>  <melting_point> 
28.7 
 
>  <molecular_refractivity> 
37.83 
 
>  <oscillator_strength_1> 
0.0006 
 
>  <oscillator_strength_2> 
0.0035 
 
>  <oscillator_strength_3> 
0.0101 
 
>  <oscillator_strength_4> 
0.0184 
 
>  <open_babel_can_smiles> 
CCCC(CO)(CO)C 
 
>  <mulliken_charges> 
25 
1   -0.443239 
2   -0.468893 
3   -0.266688 
4   -0.25949 
5   -0.018316 
6   -0.053432 
7   0.037017 
8   -0.645652 
9   -0.629956 
10   0.145329 
11   0.142557 
12   0.144575 
13   0.151032 
14   0.132593 
15   0.151846 
16   0.136536 
17   0.143305 
18   0.132318 
19   0.126815 
20   0.116432 
21   0.132573 
22   0.127981 
23   0.154382 
24   0.406554 
25   0.403821 
 
>  <lowdin_charges> 
25 
1   -0.444075 
2   -0.452311 
3   -0.281057 
4   -0.275875 
5   -0.134307 
6   -0.139687 
7   -0.030265 
8   -0.483426 
9   -0.461687 
10   0.150718 
11   0.147405 
12   0.148325 
13   0.15695 
14   0.143019 
15   0.151067 
16   0.141424 
17   0.144593 
18   0.144402 
19   0.140821 
20   0.123239 
21   0.142064 
22   0.133583 
23   0.149185 
24   0.338883 
25   0.347009 
 
$$$$ 
 
