PCCDB-ID:  11308 
public computational chemistry database (PCCDB) project, http://pccdb.org 
 
 27 27  0  0  0  0  0  0  0  0999 V2000 
    2.8592   -1.1996    0.2733 C   0  0  0  0  0  0  0  0  0  0  0  0 
    3.9710    5.1889   -0.8279 C   0  0  0  0  0  0  0  0  0  0  0  0 
    1.0646    2.8399    0.6297 C   0  0  0  0  0  0  0  0  0  0  0  0 
    3.9222    1.1690   -3.0627 C   0  0  0  0  0  0  0  0  0  0  0  0 
    3.5862    0.3483   -1.9915 C   0  0  0  0  0  0  0  0  0  0  0  0 
    3.7818    2.5592   -3.0033 C   0  0  0  0  0  0  0  0  0  0  0  0 
    3.0853    0.9139   -0.8124 C   0  0  0  0  0  0  0  0  0  0  0  0 
    3.2788    3.1199   -1.8111 C   0  0  0  0  0  0  0  0  0  0  0  0 
    2.9286    2.3139   -0.7240 C   0  0  0  0  0  0  0  0  0  0  0  0 
    4.1735    3.3375   -4.2312 C   0  0  0  0  0  0  0  0  0  0  0  0 
    4.7014    2.8077   -5.1853 O   0  0  0  0  0  0  0  0  0  0  0  0 
    3.9073    4.6587   -4.2353 O   0  0  0  0  0  0  0  0  0  0  0  0 
    2.7155    0.2156    0.2923 O   0  0  0  0  0  0  0  0  0  0  0  0 
    3.0786    4.4903   -1.7228 O   0  0  0  0  0  0  0  0  0  0  0  0 
    2.4837    2.8946    0.4381 O   0  0  0  0  0  0  0  0  0  0  0  0 
    2.5130   -1.5447    1.2487 H   0  0  0  0  0  0  0  0  0  0  0  0 
    3.9072   -1.4923    0.1336 H   0  0  0  0  0  0  0  0  0  0  0  0 
    2.2462   -1.6552   -0.5145 H   0  0  0  0  0  0  0  0  0  0  0  0 
    5.0098    5.0647   -1.1541 H   0  0  0  0  0  0  0  0  0  0  0  0 
    3.8436    4.8208    0.1914 H   0  0  0  0  0  0  0  0  0  0  0  0 
    3.6870    6.2411   -0.8879 H   0  0  0  0  0  0  0  0  0  0  0  0 
    0.7186    1.8034    0.6985 H   0  0  0  0  0  0  0  0  0  0  0  0 
    0.5420    3.3547   -0.1855 H   0  0  0  0  0  0  0  0  0  0  0  0 
    0.8672    3.3536    1.5731 H   0  0  0  0  0  0  0  0  0  0  0  0 
    4.3127    0.7457   -3.9817 H   0  0  0  0  0  0  0  0  0  0  0  0 
    3.7118   -0.7243   -2.0798 H   0  0  0  0  0  0  0  0  0  0  0  0 
    3.4605    4.8915   -3.3913 H   0  0  0  0  0  0  0  0  0  0  0  0 
  1 13  1  0  0  0  0 
  1 16  1  0  0  0  0 
  2 20  1  0  0  0  0 
  3 22  1  0  0  0  0 
  3 24  1  0  0  0  0 
  4  6  2  0  0  0  0 
  4  5  1  0  0  0  0 
  5  7  2  0  0  0  0 
  6  8  1  0  0  0  0 
  7  9  1  0  0  0  0 
  7 13  1  0  0  0  0 
  8 14  1  0  0  0  0 
  8  9  2  0  0  0  0 
  9 15  1  0  0  0  0 
 10  6  1  0  0  0  0 
 11 10  2  0  0  0  0 
 12 10  1  0  0  0  0 
 12 27  1  0  0  0  0 
 14  2  1  0  0  0  0 
 15  3  1  0  0  0  0 
 17  1  1  0  0  0  0 
 18  1  1  0  0  0  0 
 19  2  1  0  0  0  0 
 21  2  1  0  0  0  0 
 23  3  1  0  0  0  0 
 25  4  1  0  0  0  0 
 26  5  1  0  0  0  0 
M  END 
>  <HBA> 
5 
 
>  <HBD> 
1 
 
>  <TPSA> 
64.99 
 
>  <cid> 
11308 
 
>  <dipole> 
6.43 
 
>  <excitation_energy_1> 
4.716 
 
>  <excitation_energy_2> 
4.823 
 
>  <excitation_energy_3> 
5.018 
 
>  <excitation_energy_4> 
5.65 
 
>  <homo_energy> 
-6.343 
 
>  <homo_lumo_gap> 
5.388 
 
>  <logP> 
1.411 
 
>  <lumo_energy> 
-0.955 
 
>  <melting_point> 
112.97 
 
>  <molecular_refractivity> 
52.88 
 
>  <oscillator_strength_1> 
0.0248 
 
>  <oscillator_strength_2> 
0.0015 
 
>  <oscillator_strength_3> 
0.2031 
 
>  <oscillator_strength_4> 
0.2075 
 
>  <open_babel_can_smiles> 
COc1ccc(c(c1OC)OC)C(=O)O 
 
>  <mulliken_charges> 
27 
1   -0.221611 
2   -0.231921 
3   -0.211686 
4   -0.190426 
5   -0.200227 
6   0.007115 
7   0.357663 
8   0.255478 
9   0.281351 
10   0.568549 
11   -0.468632 
12   -0.606867 
13   -0.502723 
14   -0.569122 
15   -0.52552 
16   0.177391 
17   0.162133 
18   0.159586 
19   0.161909 
20   0.193352 
21   0.171414 
22   0.160327 
23   0.153355 
24   0.163335 
25   0.174646 
26   0.144076 
27   0.437054 
 
>  <lowdin_charges> 
27 
1   -0.274655 
2   -0.275018 
3   -0.270363 
4   -0.11967 
5   -0.211492 
6   -0.095605 
7   0.094675 
8   0.079063 
9   0.044571 
10   0.193296 
11   -0.263702 
12   -0.368756 
13   -0.184824 
14   -0.235756 
15   -0.223249 
16   0.166932 
17   0.150136 
18   0.150824 
19   0.150045 
20   0.166822 
21   0.161559 
22   0.148743 
23   0.147662 
24   0.158879 
25   0.184827 
26   0.166777 
27   0.358279 
 
$$$$ 
 
