PCCDB-ID:  11360 
public computational chemistry database (PCCDB) project, http://pccdb.org 
 
 18 19  0  0  0  0  0  0  0  0999 V2000 
    2.4227   -0.6611    0.0101 C   0  0  0  0  0  0  0  0  0  0  0  0 
   -2.4577    0.6364   -0.0267 C   0  0  0  0  0  0  0  0  0  0  0  0 
   -1.2386    1.3550   -0.0168 C   0  0  0  0  0  0  0  0  0  0  0  0 
    1.2211   -1.4202    0.0012 C   0  0  0  0  0  0  0  0  0  0  0  0 
    2.4563    0.7122    0.0103 C   0  0  0  0  0  0  0  0  0  0  0  0 
   -2.4022   -0.7346   -0.0258 C   0  0  0  0  0  0  0  0  0  0  0  0 
   -0.0204    0.7117   -0.0063 C   0  0  0  0  0  0  0  0  0  0  0  0 
    0.0263   -0.7341   -0.0070 C   0  0  0  0  0  0  0  0  0  0  0  0 
    1.2462    1.5062    0.0036 C   0  0  0  0  0  0  0  0  0  0  0  0 
   -1.2087   -1.3782   -0.0167 N   0  0  0  0  0  0  0  0  0  0  0  0 
    1.2155    2.7464    0.0048 O   0  0  0  0  0  0  0  0  0  0  0  0 
    3.3632   -1.2088    0.0162 H   0  0  0  0  0  0  0  0  0  0  0  0 
   -3.4168    1.1399   -0.0351 H   0  0  0  0  0  0  0  0  0  0  0  0 
   -1.2215    2.4416   -0.0166 H   0  0  0  0  0  0  0  0  0  0  0  0 
    1.2485   -2.5061    0.0007 H   0  0  0  0  0  0  0  0  0  0  0  0 
    3.3983    1.2511    0.0162 H   0  0  0  0  0  0  0  0  0  0  0  0 
   -3.2814   -1.3693   -0.0315 H   0  0  0  0  0  0  0  0  0  0  0  0 
   -1.2028   -2.3909   -0.0168 H   0  0  0  0  0  0  0  0  0  0  0  0 
  1  5  2  0  0  0  0 
  1 12  1  0  0  0  0 
  2  6  2  0  0  0  0 
  2  3  1  0  0  0  0 
  3 14  1  0  0  0  0 
  3  7  2  0  0  0  0 
  4  1  1  0  0  0  0 
  5 16  1  0  0  0  0 
  6 10  1  0  0  0  0 
  7  9  1  0  0  0  0 
  8  7  1  0  0  0  0 
  8  4  2  0  0  0  0 
  9 11  2  0  0  0  0 
  9  5  1  0  0  0  0 
 10  8  1  0  0  0  0 
 13  2  1  0  0  0  0 
 15  4  1  0  0  0  0 
 17  6  1  0  0  0  0 
 18 10  1  0  0  0  0 
M  END 
>  <HBA> 
1 
 
>  <HBD> 
1 
 
>  <TPSA> 
32.86 
 
>  <cid> 
11360 
 
>  <dipole> 
7.55 
 
>  <excitation_energy_1> 
2.259 
 
>  <excitation_energy_2> 
2.797 
 
>  <excitation_energy_3> 
3.705 
 
>  <excitation_energy_4> 
3.749 
 
>  <homo_energy> 
-4.827 
 
>  <homo_lumo_gap> 
2.898 
 
>  <logP> 
1.528 
 
>  <lumo_energy> 
-1.929 
 
>  <melting_point> 
130.37 
 
>  <molecular_refractivity> 
44.57 
 
>  <oscillator_strength_1> 
0.0446 
 
>  <oscillator_strength_2> 
0.0 
 
>  <oscillator_strength_3> 
0.0018 
 
>  <oscillator_strength_4> 
0.0966 
 
>  <open_babel_can_smiles> 
O=c1cccc2c1ccc[nH]2 
 
>  <mulliken_charges> 
18 
1   -0.123152 
2   -0.191688 
3   -0.114635 
4   -0.224497 
5   -0.202464 
6   0.112459 
7   0.004086 
8   0.367743 
9   0.382201 
10   -0.682149 
11   -0.556017 
12   0.129644 
13   0.153992 
14   0.185019 
15   0.11026 
16   0.127603 
17   0.176432 
18   0.345161 
 
>  <lowdin_charges> 
18 
1   -0.120078 
2   -0.206023 
3   -0.077064 
4   -0.266585 
5   -0.227886 
6   -0.066194 
7   -0.047878 
8   0.061664 
9   0.114863 
10   -0.142767 
11   -0.328146 
12   0.158751 
13   0.174376 
14   0.187065 
15   0.148915 
16   0.163814 
17   0.17626 
18   0.296913 
 
$$$$ 
 
