PCCDB-ID:  25807 
public computational chemistry database (PCCDB) project, http://pccdb.org 
 
 15 14  0  0  0  0  0  0  0  0999 V2000 
    0.9422    0.1937    0.6183 C   0  0  0  0  0  0  0  0  0  0  0  0 
    2.2707    1.4500   -2.5253 C   0  0  0  0  0  0  0  0  0  0  0  0 
    2.1966   -0.2077    0.3882 C   0  0  0  0  0  0  0  0  0  0  0  0 
    2.8905    1.6806   -1.1446 C   0  0  0  0  0  0  0  0  0  0  0  0 
    4.3304   -0.2210   -0.5226 N   0  0  0  0  0  0  0  0  0  0  0  0 
    3.1382    0.4308   -0.4232 N   0  0  0  0  0  0  0  0  0  0  0  0 
    5.1472    0.3092   -1.2609 O   0  0  0  0  0  0  0  0  0  0  0  0 
    0.3119   -0.3904    1.2785 H   0  0  0  0  0  0  0  0  0  0  0  0 
    0.5046    1.0825    0.1773 H   0  0  0  0  0  0  0  0  0  0  0  0 
    2.1026    2.4110   -3.0235 H   0  0  0  0  0  0  0  0  0  0  0  0 
    1.3114    0.9282   -2.4497 H   0  0  0  0  0  0  0  0  0  0  0  0 
    2.9433    0.8533   -3.1480 H   0  0  0  0  0  0  0  0  0  0  0  0 
    2.6061   -1.1102    0.8315 H   0  0  0  0  0  0  0  0  0  0  0  0 
    2.2503    2.3008   -0.5115 H   0  0  0  0  0  0  0  0  0  0  0  0 
    3.8626    2.1694   -1.2405 H   0  0  0  0  0  0  0  0  0  0  0  0 
  1  8  1  0  0  0  0 
  2 11  1  0  0  0  0 
  2  4  1  0  0  0  0 
  3  1  2  0  0  0  0 
  3 13  1  0  0  0  0 
  4 14  1  0  0  0  0 
  4  6  1  0  0  0  0 
  5  6  1  0  0  0  0 
  6  3  1  0  0  0  0 
  7  5  1  0  0  0  0 
  9  1  1  0  0  0  0 
 10  2  1  0  0  0  0 
 12  2  1  0  0  0  0 
 15  4  1  0  0  0  0 
M  RAD  2   5   2   7   2 
M  END 
>  <HBA> 
3 
 
>  <HBD> 
0 
 
>  <TPSA> 
32.67 
 
>  <cid> 
25807 
 
>  <dipole> 
3.16 
 
>  <excitation_energy_1> 
3.21 
 
>  <excitation_energy_2> 
4.753 
 
>  <excitation_energy_3> 
5.902 
 
>  <excitation_energy_4> 
5.947 
 
>  <homo_energy> 
-6.397 
 
>  <homo_lumo_gap> 
4.98 
 
>  <logP> 
1.133 
 
>  <lumo_energy> 
-1.418 
 
>  <melting_point> 
-24.15 
 
>  <molecular_refractivity> 
28.5 
 
>  <oscillator_strength_1> 
0.0013 
 
>  <oscillator_strength_2> 
0.2549 
 
>  <oscillator_strength_3> 
0.0114 
 
>  <oscillator_strength_4> 
0.0444 
 
>  <open_babel_can_smiles> 
CCN(C=C)[N][O] 
 
>  <mulliken_charges> 
15 
1   -0.388261 
2   -0.44864 
3   0.125656 
4   -0.158355 
5   0.162147 
6   -0.257035 
7   -0.36227 
8   0.156861 
9   0.148875 
10   0.156499 
11   0.161256 
12   0.1767 
13   0.171377 
14   0.163123 
15   0.192067 
 
>  <lowdin_charges> 
15 
1   -0.385148 
2   -0.448518 
3   -0.091144 
4   -0.2142 
5   0.060808 
6   -0.01057 
7   -0.246583 
8   0.175122 
9   0.163893 
10   0.15967 
11   0.156992 
12   0.167198 
13   0.1765 
14   0.161454 
15   0.174526 
 
$$$$ 
 
