PCCDB-ID:  15162 
public computational chemistry database (PCCDB) project, http://pccdb.org 
 
 27 27  0  0  0  0  0  0  0  0999 V2000 
    3.8249    0.4734    1.0544 C   0  0  0  0  0  0  0  0  0  0  0  0 
    2.1876   -2.8088    0.2870 C   0  0  0  0  0  0  0  0  0  0  0  0 
    3.9855    0.7641   -2.9753 C   0  0  0  0  0  0  0  0  0  0  0  0 
    2.8023   -5.2504   -1.8113 C   0  0  0  0  0  0  0  0  0  0  0  0 
    2.7263    0.3342   -0.0160 C   0  0  0  0  0  0  0  0  0  0  0  0 
    2.7828   -2.1303   -0.9153 C   0  0  0  0  0  0  0  0  0  0  0  0 
    3.5773   -0.5101   -2.3024 C   0  0  0  0  0  0  0  0  0  0  0  0 
    3.2966   -4.0811   -2.6435 C   0  0  0  0  0  0  0  0  0  0  0  0 
    3.0092   -0.7311   -1.0432 C   0  0  0  0  0  0  0  0  0  0  0  0 
    3.2190   -2.7278   -2.1074 C   0  0  0  0  0  0  0  0  0  0  0  0 
    3.6902   -1.7143   -2.9173 N   0  0  0  0  0  0  0  0  0  0  0  0 
    3.7621   -4.2645   -3.7713 O   0  0  0  0  0  0  0  0  0  0  0  0 
    3.5708    1.2546    1.7809 H   0  0  0  0  0  0  0  0  0  0  0  0 
    4.7870    0.7330    0.5982 H   0  0  0  0  0  0  0  0  0  0  0  0 
    3.9639   -0.4656    1.6018 H   0  0  0  0  0  0  0  0  0  0  0  0 
    1.7629   -2.0728    0.9762 H   0  0  0  0  0  0  0  0  0  0  0  0 
    2.9347   -3.3835    0.8506 H   0  0  0  0  0  0  0  0  0  0  0  0 
    1.3856   -3.5043    0.0171 H   0  0  0  0  0  0  0  0  0  0  0  0 
    4.4867    1.4409   -2.2758 H   0  0  0  0  0  0  0  0  0  0  0  0 
    3.1236    1.3037   -3.3905 H   0  0  0  0  0  0  0  0  0  0  0  0 
    4.6789    0.5689   -3.8006 H   0  0  0  0  0  0  0  0  0  0  0  0 
    1.7216   -5.1777   -1.6389 H   0  0  0  0  0  0  0  0  0  0  0  0 
    3.2873   -5.2783   -0.8290 H   0  0  0  0  0  0  0  0  0  0  0  0 
    3.0157   -6.1751   -2.3511 H   0  0  0  0  0  0  0  0  0  0  0  0 
    2.5931    1.3004   -0.5190 H   0  0  0  0  0  0  0  0  0  0  0  0 
    1.7689    0.1284    0.4809 H   0  0  0  0  0  0  0  0  0  0  0  0 
    4.0616   -1.9166   -3.8364 H   0  0  0  0  0  0  0  0  0  0  0  0 
  1 15  1  0  0  0  0 
  1 13  1  0  0  0  0 
  2 17  1  0  0  0  0 
  2 16  1  0  0  0  0 
  3  7  1  0  0  0  0 
  3 19  1  0  0  0  0 
  4 22  1  0  0  0  0 
  4 23  1  0  0  0  0 
  5 26  1  0  0  0  0 
  5  1  1  0  0  0  0 
  6  2  1  0  0  0  0 
  7  9  2  0  0  0  0 
  8 10  1  0  0  0  0 
  8  4  1  0  0  0  0 
  9  6  1  0  0  0  0 
  9  5  1  0  0  0  0 
 10  6  2  0  0  0  0 
 11  7  1  0  0  0  0 
 11 10  1  0  0  0  0 
 12  8  2  0  0  0  0 
 14  1  1  0  0  0  0 
 18  2  1  0  0  0  0 
 20  3  1  0  0  0  0 
 21  3  1  0  0  0  0 
 24  4  1  0  0  0  0 
 25  5  1  0  0  0  0 
 27 11  1  0  0  0  0 
M  END 
>  <HBA> 
1 
 
>  <HBD> 
1 
 
>  <TPSA> 
32.86 
 
>  <cid> 
15162 
 
>  <dipole> 
2.7 
 
>  <excitation_energy_1> 
4.17 
 
>  <excitation_energy_2> 
4.509 
 
>  <excitation_energy_3> 
4.907 
 
>  <excitation_energy_4> 
5.008 
 
>  <homo_energy> 
-5.554 
 
>  <homo_lumo_gap> 
4.803 
 
>  <logP> 
2.397 
 
>  <lumo_energy> 
-0.751 
 
>  <melting_point> 
99.34 
 
>  <molecular_refractivity> 
50.69 
 
>  <oscillator_strength_1> 
0.0001 
 
>  <oscillator_strength_2> 
0.3268 
 
>  <oscillator_strength_3> 
0.1024 
 
>  <oscillator_strength_4> 
0.0052 
 
>  <open_babel_can_smiles> 
CCc1c(C)[nH]c(c1C)C(=O)C 
 
>  <mulliken_charges> 
27 
1   -0.432545 
2   -0.538522 
3   -0.53289 
4   -0.537038 
5   -0.345001 
6   0.0536 
7   0.326437 
8   0.400537 
9   0.030619 
10   0.202147 
11   -0.660042 
12   -0.512617 
13   0.139902 
14   0.14512 
15   0.148068 
16   0.157437 
17   0.161643 
18   0.159559 
19   0.17217 
20   0.173074 
21   0.158994 
22   0.168227 
23   0.165987 
24   0.175351 
25   0.137105 
26   0.143264 
27   0.339414 
 
>  <lowdin_charges> 
27 
1   -0.442901 
2   -0.445421 
3   -0.447462 
4   -0.466166 
5   -0.270682 
6   -0.03236 
7   0.020879 
8   0.144359 
9   -0.075373 
10   -0.060816 
11   -0.15047 
12   -0.295764 
13   0.147822 
14   0.147962 
15   0.14975 
16   0.160746 
17   0.160367 
18   0.159745 
19   0.168871 
20   0.166498 
21   0.162791 
22   0.166301 
23   0.166387 
24   0.171996 
25   0.147723 
26   0.147947 
27   0.297272 
 
$$$$ 
 
