PCCDB-ID:  69409 
public computational chemistry database (PCCDB) project, http://pccdb.org 
 
 23 22  0  0  0  0  0  0  0  0999 V2000 
    4.5242    2.3970    2.5805 C   0  0  0  0  0  0  0  0  0  0  0  0 
    7.5767   -5.2150    3.0811 C   0  0  0  0  0  0  0  0  0  0  0  0 
    4.9369   -1.9675    1.6308 C   0  0  0  0  0  0  0  0  0  0  0  0 
    4.3772   -0.8396    0.7696 C   0  0  0  0  0  0  0  0  0  0  0  0 
    6.4631   -1.9713    1.6747 C   0  0  0  0  0  0  0  0  0  0  0  0 
    3.9961    1.0340    2.1986 C   0  0  0  0  0  0  0  0  0  0  0  0 
    7.0671   -4.2452    2.0408 C   0  0  0  0  0  0  0  0  0  0  0  0 
    2.9976    0.5168    2.6481 O   0  0  0  0  0  0  0  0  0  0  0  0 
    6.7805   -4.5281    0.8977 O   0  0  0  0  0  0  0  0  0  0  0  0 
    4.7862    0.4623    1.2543 O   0  0  0  0  0  0  0  0  0  0  0  0 
    6.9607   -2.9982    2.5608 O   0  0  0  0  0  0  0  0  0  0  0  0 
    3.9745    2.7697    3.4455 H   0  0  0  0  0  0  0  0  0  0  0  0 
    4.3952    3.0899    1.7415 H   0  0  0  0  0  0  0  0  0  0  0  0 
    5.5943    2.3484    2.8025 H   0  0  0  0  0  0  0  0  0  0  0  0 
    7.7961   -6.1728    2.6080 H   0  0  0  0  0  0  0  0  0  0  0  0 
    6.8155   -5.3577    3.8562 H   0  0  0  0  0  0  0  0  0  0  0  0 
    8.4713   -4.8189    3.5707 H   0  0  0  0  0  0  0  0  0  0  0  0 
    4.5887   -2.9187    1.2119 H   0  0  0  0  0  0  0  0  0  0  0  0 
    4.5345   -1.8840    2.6461 H   0  0  0  0  0  0  0  0  0  0  0  0 
    3.2863   -0.8823    0.7453 H   0  0  0  0  0  0  0  0  0  0  0  0 
    4.7671   -0.8863   -0.2513 H   0  0  0  0  0  0  0  0  0  0  0  0 
    6.8485   -1.0373    2.0879 H   0  0  0  0  0  0  0  0  0  0  0  0 
    6.8828   -2.1283    0.6769 H   0  0  0  0  0  0  0  0  0  0  0  0 
  1 14  1  0  0  0  0 
  1 12  1  0  0  0  0 
  2 17  1  0  0  0  0 
  2 16  1  0  0  0  0 
  3  5  1  0  0  0  0 
  3 19  1  0  0  0  0 
  4 10  1  0  0  0  0 
  4  3  1  0  0  0  0 
  5 22  1  0  0  0  0 
  5 11  1  0  0  0  0 
  6  1  1  0  0  0  0 
  6  8  2  0  0  0  0 
  7 11  1  0  0  0  0 
  7  2  1  0  0  0  0 
  9  7  2  0  0  0  0 
 10  6  1  0  0  0  0 
 13  1  1  0  0  0  0 
 15  2  1  0  0  0  0 
 18  3  1  0  0  0  0 
 20  4  1  0  0  0  0 
 21  4  1  0  0  0  0 
 23  5  1  0  0  0  0 
M  END 
>  <HBA> 
4 
 
>  <HBD> 
0 
 
>  <TPSA> 
52.6 
 
>  <cid> 
69409 
 
>  <dipole> 
1.94 
 
>  <excitation_energy_1> 
5.809 
 
>  <excitation_energy_2> 
5.81 
 
>  <excitation_energy_3> 
7.032 
 
>  <excitation_energy_4> 
7.035 
 
>  <homo_energy> 
-7.393 
 
>  <homo_lumo_gap> 
7.63 
 
>  <logP> 
0.503 
 
>  <lumo_energy> 
0.237 
 
>  <melting_point> 
-2.34 
 
>  <molecular_refractivity> 
38.33 
 
>  <oscillator_strength_1> 
0.001 
 
>  <oscillator_strength_2> 
0.0012 
 
>  <oscillator_strength_3> 
0.029 
 
>  <oscillator_strength_4> 
0.0195 
 
>  <open_babel_can_smiles> 
CC(=O)OCCCOC(=O)C 
 
>  <mulliken_charges> 
23 
1   -0.523064 
2   -0.523318 
3   -0.306883 
4   -0.062532 
5   -0.039659 
6   0.601076 
7   0.600627 
8   -0.464931 
9   -0.470073 
10   -0.456022 
11   -0.454728 
12   0.184276 
13   0.185534 
14   0.179081 
15   0.18293 
16   0.184306 
17   0.180818 
18   0.170237 
19   0.172035 
20   0.177691 
21   0.157538 
22   0.160469 
23   0.16459 
 
>  <lowdin_charges> 
23 
1   -0.464348 
2   -0.464451 
3   -0.298981 
4   -0.127401 
5   -0.134186 
6   0.200586 
7   0.200168 
8   -0.26361 
9   -0.268105 
10   -0.204992 
11   -0.197308 
12   0.177382 
13   0.180828 
14   0.174201 
15   0.175912 
16   0.180207 
17   0.177239 
18   0.166937 
19   0.161534 
20   0.163103 
21   0.153565 
22   0.156267 
23   0.155455 
 
$$$$ 
 
