PCCDB-ID:  13035 
public computational chemistry database (PCCDB) project, http://pccdb.org 
 
 29 29  0  0  0  0  0  0  0  0999 V2000 
    0.9246    0.1587    0.2178 C   0  0  0  0  0  0  0  0  0  0  0  0 
    2.6497   -0.1760   -1.5419 C   0  0  0  0  0  0  0  0  0  0  0  0 
    5.3287    1.5083   -0.5597 C   0  0  0  0  0  0  0  0  0  0  0  0 
    4.7379    2.5548    1.6161 C   0  0  0  0  0  0  0  0  0  0  0  0 
    4.4894   -1.2536    0.8670 C   0  0  0  0  0  0  0  0  0  0  0  0 
    2.9595   -1.2319    0.7536 C   0  0  0  0  0  0  0  0  0  0  0  0 
    4.9969    0.0485    1.5001 C   0  0  0  0  0  0  0  0  0  0  0  0 
    2.4357    0.0025   -0.0247 C   0  0  0  0  0  0  0  0  0  0  0  0 
    4.5180    1.3108    0.7381 C   0  0  0  0  0  0  0  0  0  0  0  0 
    3.0601    1.2676    0.4468 N   0  0  0  0  0  0  0  0  0  0  0  0 
    0.3807   -0.7269   -0.1289 H   0  0  0  0  0  0  0  0  0  0  0  0 
    0.5383    1.0344   -0.3153 H   0  0  0  0  0  0  0  0  0  0  0  0 
    0.7063    0.2849    1.2866 H   0  0  0  0  0  0  0  0  0  0  0  0 
    2.0172   -0.9888   -1.9182 H   0  0  0  0  0  0  0  0  0  0  0  0 
    3.6823   -0.4232   -1.7997 H   0  0  0  0  0  0  0  0  0  0  0  0 
    2.3821    0.7460   -2.0671 H   0  0  0  0  0  0  0  0  0  0  0  0 
    6.3685    1.7585   -0.3174 H   0  0  0  0  0  0  0  0  0  0  0  0 
    4.9003    2.3276   -1.1454 H   0  0  0  0  0  0  0  0  0  0  0  0 
    5.3504    0.6176   -1.1925 H   0  0  0  0  0  0  0  0  0  0  0  0 
    5.7987    2.6769    1.8608 H   0  0  0  0  0  0  0  0  0  0  0  0 
    4.1863    2.4739    2.5623 H   0  0  0  0  0  0  0  0  0  0  0  0 
    4.3951    3.4567    1.0973 H   0  0  0  0  0  0  0  0  0  0  0  0 
    4.9432   -1.3988   -0.1223 H   0  0  0  0  0  0  0  0  0  0  0  0 
    4.8063   -2.1113    1.4738 H   0  0  0  0  0  0  0  0  0  0  0  0 
    2.5358   -1.2099    1.7691 H   0  0  0  0  0  0  0  0  0  0  0  0 
    2.5938   -2.1541    0.2821 H   0  0  0  0  0  0  0  0  0  0  0  0 
    6.0933    0.0447    1.5663 H   0  0  0  0  0  0  0  0  0  0  0  0 
    4.6209    0.1018    2.5331 H   0  0  0  0  0  0  0  0  0  0  0  0 
    2.5810    1.5281    1.3079 H   0  0  0  0  0  0  0  0  0  0  0  0 
  1 13  1  0  0  0  0 
  2  8  1  0  0  0  0 
  3 17  1  0  0  0  0 
  3  9  1  0  0  0  0 
  4 20  1  0  0  0  0 
  4 21  1  0  0  0  0 
  5 24  1  0  0  0  0 
  5  7  1  0  0  0  0 
  6  5  1  0  0  0  0 
  6 25  1  0  0  0  0 
  7 27  1  0  0  0  0 
  7 28  1  0  0  0  0 
  8  1  1  0  0  0  0 
  8 10  1  0  0  0  0 
  8  6  1  0  0  0  0 
  9  7  1  0  0  0  0 
  9  4  1  0  0  0  0 
 10  9  1  0  0  0  0 
 10 29  1  0  0  0  0 
 11  1  1  0  0  0  0 
 12  1  1  0  0  0  0 
 14  2  1  0  0  0  0 
 15  2  1  0  0  0  0 
 16  2  1  0  0  0  0 
 18  3  1  0  0  0  0 
 19  3  1  0  0  0  0 
 22  4  1  0  0  0  0 
 23  5  1  0  0  0  0 
 26  6  1  0  0  0  0 
M  END 
>  <HBA> 
1 
 
>  <HBD> 
1 
 
>  <TPSA> 
12.03 
 
>  <cid> 
13035 
 
>  <dipole> 
0.91 
 
>  <excitation_energy_1> 
5.208 
 
>  <excitation_energy_2> 
5.723 
 
>  <excitation_energy_3> 
5.744 
 
>  <excitation_energy_4> 
5.879 
 
>  <homo_energy> 
-5.646 
 
>  <homo_lumo_gap> 
7.54 
 
>  <logP> 
2.646 
 
>  <lumo_energy> 
1.894 
 
>  <melting_point> 
43.25 
 
>  <molecular_refractivity> 
50.06 
 
>  <oscillator_strength_1> 
0.0212 
 
>  <oscillator_strength_2> 
0.0003 
 
>  <oscillator_strength_3> 
0.0 
 
>  <oscillator_strength_4> 
0.0067 
 
>  <open_babel_can_smiles> 
CC1(C)CCCC(N1)(C)C 
 
>  <mulliken_charges> 
29 
1   -0.460705 
2   -0.442015 
3   -0.442305 
4   -0.460813 
5   -0.274385 
6   -0.25427 
7   -0.254129 
8   0.216887 
9   0.216334 
10   -0.579544 
11   0.142137 
12   0.15383 
13   0.130391 
14   0.132265 
15   0.141607 
16   0.151303 
17   0.132435 
18   0.151504 
19   0.141588 
20   0.142207 
21   0.130456 
22   0.153928 
23   0.131704 
24   0.131472 
25   0.117111 
26   0.12509 
27   0.125083 
28   0.117077 
29   0.283758 
 
>  <lowdin_charges> 
29 
1   -0.445066 
2   -0.449634 
3   -0.449265 
4   -0.443708 
5   -0.281761 
6   -0.288081 
7   -0.28495 
8   0.066362 
9   0.066203 
10   -0.366347 
11   0.151529 
12   0.155568 
13   0.140136 
14   0.146627 
15   0.146219 
16   0.156179 
17   0.144689 
18   0.156883 
19   0.147319 
20   0.149547 
21   0.141512 
22   0.15531 
23   0.138186 
24   0.145615 
25   0.134484 
26   0.142833 
27   0.140346 
28   0.134105 
29   0.249159 
 
$$$$ 
 
