PCCDB-ID:  69314 
public computational chemistry database (PCCDB) project, http://pccdb.org 
 
 20 20  0  0  0  0  0  0  0  0999 V2000 
   -1.7297    0.1856    0.3158 C   0  0  0  0  0  0  0  0  0  0  0  0 
   -1.0346    1.2718   -0.2099 C   0  0  0  0  0  0  0  0  0  0  0  0 
   -1.0209   -0.9490    0.7245 C   0  0  0  0  0  0  0  0  0  0  0  0 
    0.3586    1.2415   -0.3327 C   0  0  0  0  0  0  0  0  0  0  0  0 
    0.3645   -0.9953    0.6101 C   0  0  0  0  0  0  0  0  0  0  0  0 
    3.2073    1.0657   -0.4404 C   0  0  0  0  0  0  0  0  0  0  0  0 
    1.0539    0.1027    0.0818 C   0  0  0  0  0  0  0  0  0  0  0  0 
    4.6830    0.6908   -0.2974 C   0  0  0  0  0  0  0  0  0  0  0  0 
    5.6518    1.2929   -0.8521 N   0  0  0  0  0  0  0  0  0  0  0  0 
    4.9272   -0.3299    0.5493 O   0  0  0  0  0  0  0  0  0  0  0  0 
    2.4215   -0.0348    0.0012 O   0  0  0  0  0  0  0  0  0  0  0  0 
   -2.8112    0.2187    0.4072 H   0  0  0  0  0  0  0  0  0  0  0  0 
   -1.5722    2.1593   -0.5327 H   0  0  0  0  0  0  0  0  0  0  0  0 
   -1.5498   -1.8041    1.1362 H   0  0  0  0  0  0  0  0  0  0  0  0 
    0.8788    2.0966   -0.7491 H   0  0  0  0  0  0  0  0  0  0  0  0 
    0.9288   -1.8688    0.9218 H   0  0  0  0  0  0  0  0  0  0  0  0 
    2.9864    1.3098   -1.4868 H   0  0  0  0  0  0  0  0  0  0  0  0 
    2.9976    1.9520    0.1757 H   0  0  0  0  0  0  0  0  0  0  0  0 
    5.3064    2.0405   -1.4577 H   0  0  0  0  0  0  0  0  0  0  0  0 
    4.0669   -0.7159    0.7967 H   0  0  0  0  0  0  0  0  0  0  0  0 
  1 12  1  0  0  0  0 
  1  3  2  0  0  0  0 
  2  1  1  0  0  0  0 
  3 14  1  0  0  0  0 
  4  2  2  0  0  0  0 
  4  7  1  0  0  0  0 
  5  3  1  0  0  0  0 
  5 16  1  0  0  0  0 
  6  8  1  0  0  0  0 
  6 11  1  0  0  0  0 
  6 18  1  0  0  0  0 
  7  5  2  0  0  0  0 
  8 10  1  0  0  0  0 
  9  8  2  0  0  0  0 
 10 20  1  0  0  0  0 
 11  7  1  0  0  0  0 
 13  2  1  0  0  0  0 
 15  4  1  0  0  0  0 
 17  6  1  0  0  0  0 
 19  9  1  0  0  0  0 
M  END 
>  <HBA> 
3 
 
>  <HBD> 
1 
 
>  <TPSA> 
52.32 
 
>  <cid> 
69314 
 
>  <dipole> 
4.79 
 
>  <excitation_energy_1> 
5.134 
 
>  <excitation_energy_2> 
5.735 
 
>  <excitation_energy_3> 
5.812 
 
>  <excitation_energy_4> 
6.049 
 
>  <homo_energy> 
-6.49 
 
>  <homo_lumo_gap> 
6.076 
 
>  <logP> 
1.251 
 
>  <lumo_energy> 
-0.414 
 
>  <melting_point> 
83.4 
 
>  <molecular_refractivity> 
40.65 
 
>  <oscillator_strength_1> 
0.0252 
 
>  <oscillator_strength_2> 
0.0038 
 
>  <oscillator_strength_3> 
0.079 
 
>  <oscillator_strength_4> 
0.0023 
 
>  <open_babel_can_smiles> 
OC(=N)COc1ccccc1 
 
>  <mulliken_charges> 
20 
1   -0.12878 
2   -0.138143 
3   -0.132737 
4   -0.189165 
5   -0.174928 
6   -0.120694 
7   0.383342 
8   0.466541 
9   -0.578477 
10   -0.576245 
11   -0.557699 
12   0.134045 
13   0.137801 
14   0.138834 
15   0.138854 
16   0.140134 
17   0.169762 
18   0.178312 
19   0.280199 
20   0.429044 
 
>  <lowdin_charges> 
20 
1   -0.168553 
2   -0.14294 
3   -0.14274 
4   -0.210488 
5   -0.181818 
6   -0.165329 
7   0.105059 
8   0.117396 
9   -0.396929 
10   -0.35185 
11   -0.216471 
12   0.159042 
13   0.162349 
14   0.163604 
15   0.165018 
16   0.167573 
17   0.157956 
18   0.162395 
19   0.25664 
20   0.360084 
 
$$$$ 
 
