PCCDB-ID:  66014 
public computational chemistry database (PCCDB) project, http://pccdb.org 
 
 15 15  0  0  0  0  0  0  0  0999 V2000 
    0.9071   -0.0044    0.1010 C   0  0  0  0  0  0  0  0  0  0  0  0 
    4.3056    3.6542   -0.1413 C   0  0  0  0  0  0  0  0  0  0  0  0 
    4.8967    2.3975   -0.3000 C   0  0  0  0  0  0  0  0  0  0  0  0 
    2.9677    3.7438    0.2470 C   0  0  0  0  0  0  0  0  0  0  0  0 
    4.1577    1.2397   -0.0713 C   0  0  0  0  0  0  0  0  0  0  0  0 
    2.2156    2.5881    0.4562 C   0  0  0  0  0  0  0  0  0  0  0  0 
    2.8033    1.3242    0.2856 C   0  0  0  0  0  0  0  0  0  0  0  0 
    2.1063    0.1148    0.5076 N   0  0  0  0  0  0  0  0  0  0  0  0 
    0.3679   -0.9292    0.3115 H   0  0  0  0  0  0  0  0  0  0  0  0 
    0.3701    0.7687   -0.4661 H   0  0  0  0  0  0  0  0  0  0  0  0 
    4.8886    4.5566   -0.3035 H   0  0  0  0  0  0  0  0  0  0  0  0 
    5.9406    2.3204   -0.5923 H   0  0  0  0  0  0  0  0  0  0  0  0 
    2.5072    4.7175    0.3930 H   0  0  0  0  0  0  0  0  0  0  0  0 
    4.6063    0.2562   -0.1739 H   0  0  0  0  0  0  0  0  0  0  0  0 
    1.1827    2.6585    0.7856 H   0  0  0  0  0  0  0  0  0  0  0  0 
  1  9  1  0  0  0  0 
  1  8  2  0  0  0  0 
  2  4  1  0  0  0  0 
  3  2  2  0  0  0  0 
  3  5  1  0  0  0  0 
  4 13  1  0  0  0  0 
  4  6  2  0  0  0  0 
  5  7  2  0  0  0  0 
  6 15  1  0  0  0  0 
  7  6  1  0  0  0  0 
  7  8  1  0  0  0  0 
 10  1  1  0  0  0  0 
 11  2  1  0  0  0  0 
 12  3  1  0  0  0  0 
 14  5  1  0  0  0  0 
M  END 
>  <HBA> 
1 
 
>  <HBD> 
0 
 
>  <TPSA> 
12.36 
 
>  <cid> 
66014 
 
>  <dipole> 
1.43 
 
>  <excitation_energy_1> 
4.199 
 
>  <excitation_energy_2> 
4.789 
 
>  <excitation_energy_3> 
5.327 
 
>  <excitation_energy_4> 
5.517 
 
>  <homo_energy> 
-6.199 
 
>  <homo_lumo_gap> 
5.214 
 
>  <logP> 
2.019 
 
>  <lumo_energy> 
-0.985 
 
>  <melting_point> 
28.55 
 
>  <molecular_refractivity> 
35.65 
 
>  <oscillator_strength_1> 
0.0874 
 
>  <oscillator_strength_2> 
0.0018 
 
>  <oscillator_strength_3> 
0.0983 
 
>  <oscillator_strength_4> 
0.0808 
 
>  <open_babel_can_smiles> 
C=Nc1ccccc1 
 
>  <mulliken_charges> 
15 
1   -0.131564 
2   -0.125363 
3   -0.137404 
4   -0.14033 
5   -0.146199 
6   -0.152967 
7   0.245258 
8   -0.367676 
9   0.154613 
10   0.136812 
11   0.129984 
12   0.132754 
13   0.131868 
14   0.139482 
15   0.130732 
 
>  <lowdin_charges> 
15 
1   -0.20869 
2   -0.162205 
3   -0.15007 
4   -0.152436 
5   -0.159985 
6   -0.175832 
7   0.033927 
8   -0.121257 
9   0.159488 
10   0.137603 
11   0.158956 
12   0.157912 
13   0.15849 
14   0.165839 
15   0.15826 
 
$$$$ 
 
