PCCDB-ID:  26873 
public computational chemistry database (PCCDB) project, http://pccdb.org 
 
  5  4  0  0  0  0  0  0  0  0999 V2000 
    1.0170    0.0667   -0.0725 C   0  0  0  0  0  0  0  0  0  0  0  0 
    2.1103    0.0667   -0.0725 H   0  0  0  0  0  0  0  0  0  0  0  0 
    0.6526    0.9319   -0.6328 H   0  0  0  0  0  0  0  0  0  0  0  0 
    0.6526    0.1193    0.9569 H   0  0  0  0  0  0  0  0  0  0  0  0 
    0.6526   -0.8511   -0.5417 H   0  0  0  0  0  0  0  0  0  0  0  0 
  1  2  1  0  0  0  0 
  1  4  1  0  0  0  0 
  3  1  1  0  0  0  0 
  5  1  1  0  0  0  0 
M  END 
>  <HBA> 
0 
 
>  <HBD> 
0 
 
>  <TPSA> 
0.0 
 
>  <cid> 
26873 
 
>  <dipole> 
0.0 
 
>  <excitation_energy_1> 
10.103 
 
>  <excitation_energy_2> 
10.103 
 
>  <excitation_energy_3> 
10.103 
 
>  <excitation_energy_4> 
11.272 
 
>  <homo_energy> 
-10.588 
 
>  <homo_lumo_gap> 
13.796 
 
>  <logP> 
0.636 
 
>  <lumo_energy> 
3.208 
 
>  <melting_point> 
-23.24 
 
>  <molecular_refractivity> 
6.92 
 
>  <oscillator_strength_1> 
0.1278 
 
>  <oscillator_strength_2> 
0.1278 
 
>  <oscillator_strength_3> 
0.1278 
 
>  <oscillator_strength_4> 
0.0 
 
>  <open_babel_can_smiles> 
C 
 
>  <mulliken_charges> 
5 
1   -0.628105 
2   0.157029 
3   0.157018 
4   0.157032 
5   0.157025 
 
>  <lowdin_charges> 
5 
1   -0.632743 
2   0.156781 
3   0.159278 
4   0.157737 
5   0.158948 
 
$$$$ 
 
