PCCDB-ID:  22718 
public computational chemistry database (PCCDB) project, http://pccdb.org 
 
 38 38  0  0  1  0  0  0  0  0999 V2000 
    1.0640   -0.9291   -0.2035 C   0  0  0  0  0  0  0  0  0  0  0  0 
    6.2464    6.1318   -0.7229 C   0  0  0  0  0  0  0  0  0  0  0  0 
    6.5725    3.2498   -4.3835 C   0  0  0  0  0  0  0  0  0  0  0  0 
    2.5849   -0.7790   -0.3109 C   0  0  0  0  0  0  0  0  0  0  0  0 
    3.0162    0.4483   -1.1242 C   0  0  0  0  0  0  0  0  0  0  0  0 
    4.5379    0.6049   -1.2394 C   0  0  0  0  0  0  0  0  0  0  0  0 
    4.9646    1.8328   -2.0555 C   0  0  0  0  0  0  0  0  0  0  0  0 
    8.4578    4.9206   -1.1389 C   0  0  0  0  0  0  0  0  0  0  0  0 
    6.4887    1.9701   -2.1703 C   0  0  0  0  0  0  0  0  0  0  0  0 
    9.0248    3.6129   -1.6887 C   0  0  0  0  0  0  0  0  0  0  0  0 
    6.9318    4.8190   -1.0730 C   0  0  2  0  0  0  0  0  0  0  0  0 
    6.9793    3.2341   -2.9145 C   0  0  1  0  0  0  0  0  0  0  0  0 
    8.4081    3.2759   -2.9273 O   0  0  0  0  0  0  0  0  0  0  0  0 
    6.4279    4.4266   -2.3565 O   0  0  0  0  0  0  0  0  0  0  0  0 
    0.7883   -1.8134    0.3825 H   0  0  0  0  0  0  0  0  0  0  0  0 
    0.6046   -1.0298   -1.1946 H   0  0  0  0  0  0  0  0  0  0  0  0 
    0.6127   -0.0544    0.2811 H   0  0  0  0  0  0  0  0  0  0  0  0 
    6.5585    6.4765    0.2694 H   0  0  0  0  0  0  0  0  0  0  0  0 
    5.1588    6.0071   -0.7235 H   0  0  0  0  0  0  0  0  0  0  0  0 
    6.5028    6.9024   -1.4580 H   0  0  0  0  0  0  0  0  0  0  0  0 
    6.9461    2.3549   -4.8896 H   0  0  0  0  0  0  0  0  0  0  0  0 
    7.0072    4.1326   -4.8588 H   0  0  0  0  0  0  0  0  0  0  0  0 
    5.4854    3.2947   -4.4840 H   0  0  0  0  0  0  0  0  0  0  0  0 
    3.0109   -1.6836   -0.7679 H   0  0  0  0  0  0  0  0  0  0  0  0 
    3.0185   -0.7159    0.6974 H   0  0  0  0  0  0  0  0  0  0  0  0 
    2.5914    1.3541   -0.6662 H   0  0  0  0  0  0  0  0  0  0  0  0 
    2.5795    0.3858   -2.1322 H   0  0  0  0  0  0  0  0  0  0  0  0 
    4.9623   -0.3023   -1.6949 H   0  0  0  0  0  0  0  0  0  0  0  0 
    4.9733    0.6685   -0.2307 H   0  0  0  0  0  0  0  0  0  0  0  0 
    4.5537    2.7418   -1.5980 H   0  0  0  0  0  0  0  0  0  0  0  0 
    4.5180    1.7674   -3.0566 H   0  0  0  0  0  0  0  0  0  0  0  0 
    8.7308    5.7474   -1.8062 H   0  0  0  0  0  0  0  0  0  0  0  0 
    8.8735    5.1297   -0.1449 H   0  0  0  0  0  0  0  0  0  0  0  0 
    6.9095    1.1028   -2.6946 H   0  0  0  0  0  0  0  0  0  0  0  0 
    6.9193    1.9485   -1.1618 H   0  0  0  0  0  0  0  0  0  0  0  0 
    8.9028    2.8046   -0.9500 H   0  0  0  0  0  0  0  0  0  0  0  0 
   10.0937    3.6966   -1.9078 H   0  0  0  0  0  0  0  0  0  0  0  0 
    6.6576    4.0601   -0.3209 H   0  0  0  0  0  0  0  0  0  0  0  0 
  1 17  1  0  0  0  0 
  1 15  1  0  0  0  0 
  2 18  1  0  0  0  0 
  4  1  1  0  0  0  0 
  4 25  1  0  0  0  0 
  5 26  1  0  0  0  0 
  5  4  1  0  0  0  0 
  6  5  1  0  0  0  0 
  6 29  1  0  0  0  0 
  7 30  1  0  0  0  0 
  7  6  1  0  0  0  0 
  8 11  1  0  0  0  0 
  8 33  1  0  0  0  0 
  9  7  1  0  0  0  0 
  9 35  1  0  0  0  0 
 10  8  1  0  0  0  0 
 10 36  1  0  0  0  0 
 11  2  1  0  0  0  0 
 11 38  1  1  0  0  0 
 12  3  1  6  0  0  0 
 12 14  1  0  0  0  0 
 12  9  1  0  0  0  0 
 13 12  1  0  0  0  0 
 13 10  1  0  0  0  0 
 14 11  1  0  0  0  0 
 16  1  1  0  0  0  0 
 19  2  1  0  0  0  0 
 20  2  1  0  0  0  0 
 21  3  1  0  0  0  0 
 22  3  1  0  0  0  0 
 23  3  1  0  0  0  0 
 24  4  1  0  0  0  0 
 27  5  1  0  0  0  0 
 28  6  1  0  0  0  0 
 31  7  1  0  0  0  0 
 32  8  1  0  0  0  0 
 34  9  1  0  0  0  0 
 37 10  1  0  0  0  0 
M  END 
>  <HBA> 
2 
 
>  <HBD> 
0 
 
>  <TPSA> 
18.46 
 
>  <cid> 
22718 
 
>  <dipole> 
1.61 
 
>  <excitation_energy_1> 
6.358 
 
>  <excitation_energy_2> 
6.491 
 
>  <excitation_energy_3> 
6.762 
 
>  <excitation_energy_4> 
6.809 
 
>  <homo_energy> 
-6.738 
 
>  <homo_lumo_gap> 
8.89 
 
>  <logP> 
3.498 
 
>  <lumo_energy> 
2.152 
 
>  <melting_point> 
-14.85 
 
>  <molecular_refractivity> 
59.89 
 
>  <oscillator_strength_1> 
0.0105 
 
>  <oscillator_strength_2> 
0.0 
 
>  <oscillator_strength_3> 
0.0039 
 
>  <oscillator_strength_4> 
0.0216 
 
>  <open_babel_can_smiles> 
CCCCCC[C@]1(C)OCC[C@H](O1)C 
 
>  <mulliken_charges> 
38 
1   -0.441297 
2   -0.453094 
3   -0.465007 
4   -0.246382 
5   -0.245808 
6   -0.254313 
7   -0.260468 
8   -0.278379 
9   -0.295145 
10   -0.042193 
11   0.148594 
12   0.540439 
13   -0.503745 
14   -0.515784 
15   0.14113 
16   0.141329 
17   0.140985 
18   0.140026 
19   0.156281 
20   0.155094 
21   0.148155 
22   0.160925 
23   0.154617 
24   0.129863 
25   0.128992 
26   0.126618 
27   0.127002 
28   0.12724 
29   0.12411 
30   0.144476 
31   0.132855 
32   0.147684 
33   0.131148 
34   0.140587 
35   0.130067 
36   0.123265 
37   0.148047 
38   0.112087 
 
>  <lowdin_charges> 
38 
1   -0.445416 
2   -0.444014 
3   -0.446042 
4   -0.271732 
5   -0.274246 
6   -0.273592 
7   -0.2768 
8   -0.306011 
9   -0.300448 
10   -0.133547 
11   0.003901 
12   0.215173 
13   -0.270047 
14   -0.270357 
15   0.149414 
16   0.145803 
17   0.146762 
18   0.151723 
19   0.156444 
20   0.156942 
21   0.157598 
22   0.164639 
23   0.157133 
24   0.139047 
25   0.137428 
26   0.137855 
27   0.136816 
28   0.137733 
29   0.134974 
30   0.14634 
31   0.140243 
32   0.15212 
33   0.149404 
34   0.151835 
35   0.141517 
36   0.127293 
37   0.149625 
38   0.12449 
 
$$$$ 
 
