PCCDB-ID:  70913 
public computational chemistry database (PCCDB) project, http://pccdb.org 
 
 27 26  0  0  0  0  0  0  0  0999 V2000 
    6.6521    5.9873   -4.0919 C   0  0  0  0  0  0  0  0  0  0  0  0 
   11.6039    5.1101   -1.5925 C   0  0  0  0  0  0  0  0  0  0  0  0 
    9.3985    1.1343   -1.9454 C   0  0  0  0  0  0  0  0  0  0  0  0 
    7.9055    1.4431   -3.8122 C   0  0  0  0  0  0  0  0  0  0  0  0 
    7.2058    5.2421   -2.8894 C   0  0  0  0  0  0  0  0  0  0  0  0 
   10.6568    4.3148   -2.4755 C   0  0  0  0  0  0  0  0  0  0  0  0 
    8.4741    3.3103   -2.3508 C   0  0  0  0  0  0  0  0  0  0  0  0 
    8.9120    2.0679   -2.9574 N   0  0  0  0  0  0  0  0  0  0  0  0 
    7.9301    4.1091   -3.3680 O   0  0  0  0  0  0  0  0  0  0  0  0 
    9.5258    3.9478   -1.6685 O   0  0  0  0  0  0  0  0  0  0  0  0 
    6.0897    6.8697   -3.7670 H   0  0  0  0  0  0  0  0  0  0  0  0 
    5.9829    5.3437   -4.6722 H   0  0  0  0  0  0  0  0  0  0  0  0 
    7.4646    6.3165   -4.7477 H   0  0  0  0  0  0  0  0  0  0  0  0 
   12.4898    5.4124   -2.1624 H   0  0  0  0  0  0  0  0  0  0  0  0 
   11.9319    4.5108   -0.7366 H   0  0  0  0  0  0  0  0  0  0  0  0 
   11.1150    6.0119   -1.2084 H   0  0  0  0  0  0  0  0  0  0  0  0 
    9.8507    0.2697   -2.4422 H   0  0  0  0  0  0  0  0  0  0  0  0 
    8.5937    0.7646   -1.2804 H   0  0  0  0  0  0  0  0  0  0  0  0 
   10.1556    1.6182   -1.3256 H   0  0  0  0  0  0  0  0  0  0  0  0 
    8.3408    0.5447   -4.2621 H   0  0  0  0  0  0  0  0  0  0  0  0 
    7.6119    2.1272   -4.6077 H   0  0  0  0  0  0  0  0  0  0  0  0 
    6.9971    1.1379   -3.2569 H   0  0  0  0  0  0  0  0  0  0  0  0 
    6.3908    4.9086   -2.2273 H   0  0  0  0  0  0  0  0  0  0  0  0 
    7.8679    5.8868   -2.2962 H   0  0  0  0  0  0  0  0  0  0  0  0 
   11.1421    3.4144   -2.8697 H   0  0  0  0  0  0  0  0  0  0  0  0 
   10.3197    4.9096   -3.3328 H   0  0  0  0  0  0  0  0  0  0  0  0 
    7.7123    3.1506   -1.5599 H   0  0  0  0  0  0  0  0  0  0  0  0 
  1 11  1  0  0  0  0 
  1  5  1  0  0  0  0 
  2 16  1  0  0  0  0 
  2 15  1  0  0  0  0 
  3 19  1  0  0  0  0 
  3 18  1  0  0  0  0 
  4 22  1  0  0  0  0 
  4  8  1  0  0  0  0 
  5 24  1  0  0  0  0 
  5 23  1  0  0  0  0 
  6 10  1  0  0  0  0 
  6  2  1  0  0  0  0 
  7 10  1  0  0  0  0 
  7 27  1  0  0  0  0 
  8  7  1  0  0  0  0 
  8  3  1  0  0  0  0 
  9  5  1  0  0  0  0 
  9  7  1  0  0  0  0 
 12  1  1  0  0  0  0 
 13  1  1  0  0  0  0 
 14  2  1  0  0  0  0 
 17  3  1  0  0  0  0 
 20  4  1  0  0  0  0 
 21  4  1  0  0  0  0 
 25  6  1  0  0  0  0 
 26  6  1  0  0  0  0 
M  END 
>  <HBA> 
3 
 
>  <HBD> 
0 
 
>  <TPSA> 
21.7 
 
>  <cid> 
70913 
 
>  <dipole> 
0.52 
 
>  <excitation_energy_1> 
5.613 
 
>  <excitation_energy_2> 
5.961 
 
>  <excitation_energy_3> 
6.022 
 
>  <excitation_energy_4> 
6.092 
 
>  <homo_energy> 
-5.88 
 
>  <homo_lumo_gap> 
8.28 
 
>  <logP> 
0.905 
 
>  <lumo_energy> 
2.4 
 
>  <melting_point> 
-42.49 
 
>  <molecular_refractivity> 
40.83 
 
>  <oscillator_strength_1> 
0.035 
 
>  <oscillator_strength_2> 
0.0023 
 
>  <oscillator_strength_3> 
0.0246 
 
>  <oscillator_strength_4> 
0.0214 
 
>  <open_babel_can_smiles> 
CCOC(N(C)C)OCC 
 
>  <mulliken_charges> 
27 
1   -0.456181 
2   -0.455839 
3   -0.308314 
4   -0.299895 
5   -0.017497 
6   -0.022611 
7   0.54327 
8   -0.415713 
9   -0.500113 
10   -0.501448 
11   0.14504 
12   0.156685 
13   0.15924 
14   0.142195 
15   0.153392 
16   0.15206 
17   0.149728 
18   0.119822 
19   0.170378 
20   0.144887 
21   0.177992 
22   0.114211 
23   0.125749 
24   0.142931 
25   0.144099 
26   0.14033 
27   0.095601 
 
>  <lowdin_charges> 
27 
1   -0.450791 
2   -0.450089 
3   -0.363851 
4   -0.360642 
5   -0.128484 
6   -0.132747 
7   0.137445 
8   -0.186994 
9   -0.258613 
10   -0.271467 
11   0.155497 
12   0.157234 
13   0.15808 
14   0.153503 
15   0.15449 
16   0.153488 
17   0.151682 
18   0.123622 
19   0.162282 
20   0.149719 
21   0.165714 
22   0.120723 
23   0.13072 
24   0.139745 
25   0.140944 
26   0.139399 
27   0.10939 
 
$$$$ 
 
