PCCDB-ID:  43990 
public computational chemistry database (PCCDB) project, http://pccdb.org 
 
 25 26  0  0  0  0  0  0  0  0999 V2000 
   -1.7211   -0.7930    1.1367 C   0  0  0  0  0  0  0  0  0  0  0  0 
   -1.2446    0.5092    0.9663 C   0  0  0  0  0  0  0  0  0  0  0  0 
   -0.9165   -1.8772    0.7840 C   0  0  0  0  0  0  0  0  0  0  0  0 
    0.0270    0.7343    0.4436 C   0  0  0  0  0  0  0  0  0  0  0  0 
    0.3613   -1.6580    0.2721 C   0  0  0  0  0  0  0  0  0  0  0  0 
    3.8197    3.8808   -4.1971 C   0  0  0  0  0  0  0  0  0  0  0  0 
    2.6079    4.7437   -3.8597 C   0  0  0  0  0  0  0  0  0  0  0  0 
    0.8477   -0.3504    0.0941 C   0  0  0  0  0  0  0  0  0  0  0  0 
    2.2297   -0.1633   -0.4222 C   0  0  0  0  0  0  0  0  0  0  0  0 
    2.2795    2.4576   -2.5488 C   0  0  0  0  0  0  0  0  0  0  0  0 
    2.6941    0.7137   -1.2414 N   0  0  0  0  0  0  0  0  0  0  0  0 
    1.7510    1.5865   -1.7730 N   0  0  0  0  0  0  0  0  0  0  0  0 
    3.1501   -1.0738    0.0044 O   0  0  0  0  0  0  0  0  0  0  0  0 
    4.0336    2.6095   -2.8839 S   0  0  0  0  0  0  0  0  0  0  0  0 
    1.2315    3.6256   -3.3842 S   0  0  0  0  0  0  0  0  0  0  0  0 
   -2.7163   -0.9611    1.5395 H   0  0  0  0  0  0  0  0  0  0  0  0 
   -1.8674    1.3560    1.2410 H   0  0  0  0  0  0  0  0  0  0  0  0 
   -1.2833   -2.8931    0.9024 H   0  0  0  0  0  0  0  0  0  0  0  0 
    0.3909    1.7437    0.3012 H   0  0  0  0  0  0  0  0  0  0  0  0 
    0.9732   -2.5055   -0.0266 H   0  0  0  0  0  0  0  0  0  0  0  0 
    4.7343    4.4808   -4.2296 H   0  0  0  0  0  0  0  0  0  0  0  0 
    3.6891    3.3845   -5.1632 H   0  0  0  0  0  0  0  0  0  0  0  0 
    2.2764    5.3266   -4.7242 H   0  0  0  0  0  0  0  0  0  0  0  0 
    2.8251    5.4257   -3.0325 H   0  0  0  0  0  0  0  0  0  0  0  0 
    2.7920   -1.5223    0.7868 H   0  0  0  0  0  0  0  0  0  0  0  0 
  1 16  1  0  0  0  0 
  2  1  1  0  0  0  0 
  2 17  1  0  0  0  0 
  3 18  1  0  0  0  0 
  3  1  2  0  0  0  0 
  4  2  2  0  0  0  0 
  5  3  1  0  0  0  0 
  6  7  1  0  0  0  0 
  6 14  1  0  0  0  0 
  7 15  1  0  0  0  0 
  7 24  1  0  0  0  0 
  8  5  2  0  0  0  0 
  8  4  1  0  0  0  0 
  9 13  1  0  0  0  0 
  9  8  1  0  0  0  0 
 10 12  1  0  0  0  0 
 11  9  2  0  0  0  0 
 12 11  1  0  0  0  0 
 13 25  1  0  0  0  0 
 14 10  1  0  0  0  0 
 15 10  1  0  0  0  0 
 19  4  1  0  0  0  0 
 20  5  1  0  0  0  0 
 21  6  1  0  0  0  0 
 22  6  1  0  0  0  0 
 23  7  1  0  0  0  0 
M  RAD  2  10   2  12   2 
M  END 
>  <HBA> 
5 
 
>  <HBD> 
1 
 
>  <TPSA> 
92.06 
 
>  <cid> 
43990 
 
>  <dipole> 
1.8 
 
>  <excitation_energy_1> 
3.777 
 
>  <excitation_energy_2> 
3.96 
 
>  <excitation_energy_3> 
4.478 
 
>  <excitation_energy_4> 
4.498 
 
>  <homo_energy> 
-5.595 
 
>  <homo_lumo_gap> 
4.425 
 
>  <logP> 
2.558 
 
>  <lumo_energy> 
-1.17 
 
>  <melting_point> 
122.44 
 
>  <molecular_refractivity> 
65.81 
 
>  <oscillator_strength_1> 
0.1291 
 
>  <oscillator_strength_2> 
0.2179 
 
>  <oscillator_strength_3> 
0.006 
 
>  <oscillator_strength_4> 
0.0007 
 
>  <open_babel_can_smiles> 
O/C(=N/[N][C]1SCCS1)/c1ccccc1 
 
>  <mulliken_charges> 
25 
1   -0.119908 
2   -0.14087 
3   -0.131543 
4   -0.128536 
5   -0.196395 
6   -0.434528 
7   -0.428007 
8   0.079656 
9   0.44805 
10   -0.023463 
11   -0.334941 
12   -0.304554 
13   -0.578195 
14   0.201793 
15   0.189394 
16   0.137557 
17   0.139685 
18   0.137755 
19   0.165722 
20   0.145703 
21   0.185925 
22   0.196394 
23   0.186816 
24   0.197169 
25   0.409322 
 
>  <lowdin_charges> 
25 
1   -0.143262 
2   -0.154361 
3   -0.154543 
4   -0.130577 
5   -0.168452 
6   -0.38337 
7   -0.377242 
8   -0.038508 
9   0.128994 
10   -0.194677 
11   -0.131533 
12   -0.141502 
13   -0.352354 
14   0.177518 
15   0.19062 
16   0.160864 
17   0.163758 
18   0.160984 
19   0.177471 
20   0.163804 
21   0.173879 
22   0.168548 
23   0.175498 
24   0.169683 
25   0.35876 
 
$$$$ 
 
