PCCDB-ID:  15078 
public computational chemistry database (PCCDB) project, http://pccdb.org 
 
 12 12  0  0  0  0  0  0  0  0999 V2000 
   -0.3730   -1.1597    0.0444 C   0  0  0  0  0  0  0  0  0  0  0  0 
   -0.3682    1.1552   -0.1297 C   0  0  0  0  0  0  0  0  0  0  0  0 
   -0.6723   -2.3965    0.0229 N   0  0  0  0  0  0  0  0  0  0  0  0 
   -0.6710    2.3913   -0.1349 N   0  0  0  0  0  0  0  0  0  0  0  0 
   -1.1446   -0.0032   -0.0764 N   0  0  0  0  0  0  0  0  0  0  0  0 
    0.9491   -0.6952    0.2018 N   0  0  0  0  0  0  0  0  0  0  0  0 
    0.9634    0.6937   -0.1712 N   0  0  0  0  0  0  0  0  0  0  0  0 
   -1.6739   -2.5416   -0.1025 H   0  0  0  0  0  0  0  0  0  0  0  0 
   -1.6801    2.5340   -0.0988 H   0  0  0  0  0  0  0  0  0  0  0  0 
   -2.1518   -0.0046   -0.1214 H   0  0  0  0  0  0  0  0  0  0  0  0 
    1.5961   -1.2292   -0.3722 H   0  0  0  0  0  0  0  0  0  0  0  0 
    1.5586    1.2292    0.4550 H   0  0  0  0  0  0  0  0  0  0  0  0 
  1  6  1  0  0  0  0 
  2  5  1  0  0  0  0 
  3  1  2  0  0  0  0 
  4  2  2  0  0  0  0 
  4  9  1  0  0  0  0 
  5  1  1  0  0  0  0 
  7  2  1  0  0  0  0 
  7  6  1  0  0  0  0 
  7 12  1  0  0  0  0 
  8  3  1  0  0  0  0 
 10  5  1  0  0  0  0 
 11  6  1  0  0  0  0 
M  END 
>  <HBA> 
4 
 
>  <HBD> 
3 
 
>  <TPSA> 
93.61 
 
>  <cid> 
15078 
 
>  <dipole> 
1.89 
 
>  <excitation_energy_1> 
5.163 
 
>  <excitation_energy_2> 
5.649 
 
>  <excitation_energy_3> 
5.83 
 
>  <excitation_energy_4> 
5.899 
 
>  <homo_energy> 
-6.104 
 
>  <homo_lumo_gap> 
6.697 
 
>  <logP> 
0.132 
 
>  <lumo_energy> 
0.593 
 
>  <melting_point> 
180.91 
 
>  <molecular_refractivity> 
25.19 
 
>  <oscillator_strength_1> 
0.002 
 
>  <oscillator_strength_2> 
0.0087 
 
>  <oscillator_strength_3> 
0.0096 
 
>  <oscillator_strength_4> 
0.0097 
 
>  <open_babel_can_smiles> 
N=c1[nH][nH]c(=N)[nH]1 
 
>  <mulliken_charges> 
12 
1   0.667233 
2   0.667652 
3   -0.650095 
4   -0.650259 
5   -0.69827 
6   -0.472124 
7   -0.472526 
8   0.280342 
9   0.280313 
10   0.336715 
11   0.3555 
12   0.35552 
 
>  <lowdin_charges> 
12 
1   0.120791 
2   0.120712 
3   -0.445403 
4   -0.445395 
5   -0.267202 
6   -0.241124 
7   -0.240949 
8   0.257251 
9   0.257071 
10   0.296193 
11   0.294022 
12   0.294033 
 
$$$$ 
 
