PCCDB-ID:  42365 
public computational chemistry database (PCCDB) project, http://pccdb.org 
 
 30 31  0  0  0  0  0  0  0  0999 V2000 
    2.7711    0.2952    3.1955 C   0  0  0  0  0  0  0  0  0  0  0  0 
    2.3813   -0.0142    1.7474 C   0  0  0  0  0  0  0  0  0  0  0  0 
    9.3823   -0.2235    0.0061 C   0  0  0  0  0  0  0  0  0  0  0  0 
    8.6876   -1.4355   -0.0265 C   0  0  0  0  0  0  0  0  0  0  0  0 
    8.6776    0.9702    0.1394 C   0  0  0  0  0  0  0  0  0  0  0  0 
    7.2987   -1.4355    0.0738 C   0  0  0  0  0  0  0  0  0  0  0  0 
    6.5172    2.2761    0.4080 C   0  0  0  0  0  0  0  0  0  0  0  0 
    3.0179    0.9397    0.7262 C   0  0  0  0  0  0  0  0  0  0  0  0 
    5.0392    2.1138    0.0522 C   0  0  0  0  0  0  0  0  0  0  0  0 
    5.0690   -0.2766    0.2742 C   0  0  0  0  0  0  0  0  0  0  0  0 
    7.2802    0.9791    0.2427 C   0  0  0  0  0  0  0  0  0  0  0  0 
    6.5846   -0.2379    0.2090 C   0  0  0  0  0  0  0  0  0  0  0  0 
    4.4806    0.9669    0.7671 N   0  0  0  0  0  0  0  0  0  0  0  0 
    2.3014   -0.4090    3.8916 H   0  0  0  0  0  0  0  0  0  0  0  0 
    2.4550    1.3070    3.4790 H   0  0  0  0  0  0  0  0  0  0  0  0 
    3.8560    0.2423    3.3275 H   0  0  0  0  0  0  0  0  0  0  0  0 
    1.2919    0.0583    1.6283 H   0  0  0  0  0  0  0  0  0  0  0  0 
    2.6360   -1.0543    1.5058 H   0  0  0  0  0  0  0  0  0  0  0  0 
   10.4661   -0.2104   -0.0742 H   0  0  0  0  0  0  0  0  0  0  0  0 
    9.2260   -2.3741   -0.1280 H   0  0  0  0  0  0  0  0  0  0  0  0 
    9.2152    1.9162    0.1629 H   0  0  0  0  0  0  0  0  0  0  0  0 
    6.7552   -2.3783    0.0480 H   0  0  0  0  0  0  0  0  0  0  0  0 
    6.5898    2.6136    1.4512 H   0  0  0  0  0  0  0  0  0  0  0  0 
    6.9668    3.0630   -0.2113 H   0  0  0  0  0  0  0  0  0  0  0  0 
    2.6703    1.9579    0.9435 H   0  0  0  0  0  0  0  0  0  0  0  0 
    2.6478    0.6883   -0.2895 H   0  0  0  0  0  0  0  0  0  0  0  0 
    4.9225    2.0099   -1.0463 H   0  0  0  0  0  0  0  0  0  0  0  0 
    4.4861    3.0116    0.3489 H   0  0  0  0  0  0  0  0  0  0  0  0 
    4.7633   -1.0991    0.9303 H   0  0  0  0  0  0  0  0  0  0  0  0 
    4.6751   -0.5244   -0.7366 H   0  0  0  0  0  0  0  0  0  0  0  0 
  1 16  1  0  0  0  0 
  1 15  1  0  0  0  0 
  1 14  1  0  0  0  0 
  2  1  1  0  0  0  0 
  3  5  1  0  0  0  0 
  4  3  2  0  0  0  0 
  4  6  1  0  0  0  0 
  5 21  1  0  0  0  0 
  5 11  2  0  0  0  0 
  6 12  2  0  0  0  0 
  7 23  1  0  0  0  0 
  8 13  1  0  0  0  0 
  8 25  1  0  0  0  0 
  8  2  1  0  0  0  0 
  9 28  1  0  0  0  0 
  9  7  1  0  0  0  0 
  9 13  1  0  0  0  0 
 10 13  1  0  0  0  0 
 10 29  1  0  0  0  0 
 11  7  1  0  0  0  0 
 12 11  1  0  0  0  0 
 12 10  1  0  0  0  0 
 17  2  1  0  0  0  0 
 18  2  1  0  0  0  0 
 19  3  1  0  0  0  0 
 20  4  1  0  0  0  0 
 22  6  1  0  0  0  0 
 24  7  1  0  0  0  0 
 26  8  1  0  0  0  0 
 27  9  1  0  0  0  0 
 30 10  1  0  0  0  0 
M  END 
>  <HBA> 
1 
 
>  <HBD> 
0 
 
>  <TPSA> 
3.24 
 
>  <cid> 
42365 
 
>  <dipole> 
0.68 
 
>  <excitation_energy_1> 
4.888 
 
>  <excitation_energy_2> 
5.004 
 
>  <excitation_energy_3> 
5.23 
 
>  <excitation_energy_4> 
5.414 
 
>  <homo_energy> 
-5.725 
 
>  <homo_lumo_gap> 
5.81 
 
>  <logP> 
2.393 
 
>  <lumo_energy> 
0.084 
 
>  <melting_point> 
34.55 
 
>  <molecular_refractivity> 
60.3 
 
>  <oscillator_strength_1> 
0.0028 
 
>  <oscillator_strength_2> 
0.0107 
 
>  <oscillator_strength_3> 
0.0285 
 
>  <oscillator_strength_4> 
0.0139 
 
>  <open_babel_can_smiles> 
CCCN1CCc2c(C1)cccc2 
 
>  <mulliken_charges> 
30 
1   -0.435574 
2   -0.268439 
3   -0.128198 
4   -0.133006 
5   -0.191548 
6   -0.181251 
7   -0.334422 
8   -0.100346 
9   -0.131979 
10   -0.184349 
11   0.128523 
12   0.098468 
13   -0.401245 
14   0.13722 
15   0.136787 
16   0.163835 
17   0.13295 
18   0.136778 
19   0.124959 
20   0.125246 
21   0.119599 
22   0.118815 
23   0.160439 
24   0.139925 
25   0.131697 
26   0.10666 
27   0.114583 
28   0.136521 
29   0.154392 
30   0.122959 
 
>  <lowdin_charges> 
30 
1   -0.44513 
2   -0.276701 
3   -0.15725 
4   -0.160831 
5   -0.164469 
6   -0.164264 
7   -0.278142 
8   -0.197037 
9   -0.195458 
10   -0.199632 
11   -0.01121 
12   -0.015793 
13   -0.18672 
14   0.148259 
15   0.144478 
16   0.155395 
17   0.142956 
18   0.139004 
19   0.153799 
20   0.156166 
21   0.15335 
22   0.153129 
23   0.156922 
24   0.151932 
25   0.141096 
26   0.11591 
27   0.115171 
28   0.14672 
29   0.15472 
30   0.12363 
 
$$$$ 
 
