PCCDB-ID:  12981 
public computational chemistry database (PCCDB) project, http://pccdb.org 
 
 25 24  0  0  1  0  0  0  0  0999 V2000 
    1.0336   -0.5713    0.3948 C   0  0  0  0  0  0  0  0  0  0  0  0 
    6.7912    1.3653   -3.0505 C   0  0  0  0  0  0  0  0  0  0  0  0 
    2.4580   -0.0516    0.1753 C   0  0  0  0  0  0  0  0  0  0  0  0 
    2.6544    0.6156   -1.1921 C   0  0  0  0  0  0  0  0  0  0  0  0 
    4.0803    1.1367   -1.4167 C   0  0  0  0  0  0  0  0  0  0  0  0 
    4.2657    1.7863   -2.7952 C   0  0  0  0  0  0  0  0  0  0  0  0 
    5.6584    2.3884   -3.0185 C   0  0  2  0  0  0  0  0  0  0  0  0 
    6.7156    3.9093   -4.4467 O   0  0  0  0  0  0  0  0  0  0  0  0 
    5.5356    3.0705   -4.2783 O   0  0  0  0  0  0  0  0  0  0  0  0 
    0.9266   -1.0422    1.3787 H   0  0  0  0  0  0  0  0  0  0  0  0 
    0.7624   -1.3170   -0.3627 H   0  0  0  0  0  0  0  0  0  0  0  0 
    0.3005    0.2424    0.3337 H   0  0  0  0  0  0  0  0  0  0  0  0 
    6.9145    0.8811   -2.0762 H   0  0  0  0  0  0  0  0  0  0  0  0 
    7.7356    1.8576   -3.2999 H   0  0  0  0  0  0  0  0  0  0  0  0 
    6.5876    0.5897   -3.7989 H   0  0  0  0  0  0  0  0  0  0  0  0 
    3.1708   -0.8823    0.2775 H   0  0  0  0  0  0  0  0  0  0  0  0 
    2.7123    0.6658    0.9685 H   0  0  0  0  0  0  0  0  0  0  0  0 
    1.9419    1.4470   -1.2964 H   0  0  0  0  0  0  0  0  0  0  0  0 
    2.4008   -0.1025   -1.9860 H   0  0  0  0  0  0  0  0  0  0  0  0 
    4.7876    0.3050   -1.2951 H   0  0  0  0  0  0  0  0  0  0  0  0 
    4.3267    1.8670   -0.6321 H   0  0  0  0  0  0  0  0  0  0  0  0 
    3.5299    2.5903   -2.9237 H   0  0  0  0  0  0  0  0  0  0  0  0 
    4.0665    1.0494   -3.5855 H   0  0  0  0  0  0  0  0  0  0  0  0 
    5.8596    3.1435   -2.2453 H   0  0  0  0  0  0  0  0  0  0  0  0 
    7.1226    3.4740   -5.2169 H   0  0  0  0  0  0  0  0  0  0  0  0 
  1 10  1  0  0  0  0 
  2  7  1  0  0  0  0 
  2 13  1  0  0  0  0 
  3 16  1  0  0  0  0 
  3  1  1  0  0  0  0 
  3 17  1  0  0  0  0 
  4  3  1  0  0  0  0 
  5 20  1  0  0  0  0 
  5  4  1  0  0  0  0 
  5 21  1  0  0  0  0 
  6  5  1  0  0  0  0 
  7  6  1  0  0  0  0 
  7 24  1  1  0  0  0 
  8  9  1  0  0  0  0 
  9  7  1  0  0  0  0 
 11  1  1  0  0  0  0 
 12  1  1  0  0  0  0 
 14  2  1  0  0  0  0 
 15  2  1  0  0  0  0 
 18  4  1  0  0  0  0 
 19  4  1  0  0  0  0 
 22  6  1  0  0  0  0 
 23  6  1  0  0  0  0 
 25  8  1  0  0  0  0 
M  END 
>  <HBA> 
2 
 
>  <HBD> 
1 
 
>  <TPSA> 
29.46 
 
>  <cid> 
12981 
 
>  <dipole> 
1.78 
 
>  <excitation_energy_1> 
5.52 
 
>  <excitation_energy_2> 
6.549 
 
>  <excitation_energy_3> 
6.724 
 
>  <excitation_energy_4> 
7.121 
 
>  <homo_energy> 
-6.871 
 
>  <homo_lumo_gap> 
7.717 
 
>  <logP> 
2.445 
 
>  <lumo_energy> 
0.846 
 
>  <melting_point> 
2.29 
 
>  <molecular_refractivity> 
38.42 
 
>  <oscillator_strength_1> 
0.0007 
 
>  <oscillator_strength_2> 
0.0012 
 
>  <oscillator_strength_3> 
0.0042 
 
>  <oscillator_strength_4> 
0.01 
 
>  <open_babel_can_smiles> 
CCCCC[C@H](OO)C 
 
>  <mulliken_charges> 
25 
1   -0.44182 
2   -0.471569 
3   -0.24799 
4   -0.246102 
5   -0.263814 
6   -0.28384 
7   0.187097 
8   -0.408922 
9   -0.319549 
10   0.142472 
11   0.141856 
12   0.142618 
13   0.150068 
14   0.153704 
15   0.144144 
16   0.130098 
17   0.131283 
18   0.130881 
19   0.129188 
20   0.134612 
21   0.132438 
22   0.15187 
23   0.138998 
24   0.131651 
25   0.410627 
 
>  <lowdin_charges> 
25 
1   -0.445325 
2   -0.464853 
3   -0.273546 
4   -0.274804 
5   -0.275458 
6   -0.282467 
7   -0.001363 
8   -0.347154 
9   -0.170955 
10   0.149325 
11   0.147357 
12   0.147482 
13   0.155997 
14   0.156392 
15   0.150532 
16   0.139187 
17   0.14011 
18   0.139966 
19   0.1395 
20   0.141049 
21   0.140999 
22   0.15437 
23   0.146241 
24   0.137828 
25   0.34959 
 
$$$$ 
 
