PCCDB-ID:  70683 
public computational chemistry database (PCCDB) project, http://pccdb.org 
 
 22 21  0  0  0  0  0  0  0  0999 V2000 
    3.6712   -4.0525   -1.5196 C   0  0  0  0  0  0  0  0  0  0  0  0 
    6.4257   -1.2551    0.7731 C   0  0  0  0  0  0  0  0  0  0  0  0 
    6.3214    0.3527   -1.1821 C   0  0  0  0  0  0  0  0  0  0  0  0 
    3.6302   -2.6914   -2.1974 C   0  0  0  0  0  0  0  0  0  0  0  0 
    4.3420   -1.1247   -0.5493 C   0  0  0  0  0  0  0  0  0  0  0  0 
    5.5224   -0.2868   -0.0358 C   0  0  0  0  0  0  0  0  0  0  0  0 
    4.9414    0.7848    0.7825 N   0  0  0  0  0  0  0  0  0  0  0  0 
    3.2745   -1.2124    0.0223 O   0  0  0  0  0  0  0  0  0  0  0  0 
    4.6513   -1.8076   -1.6702 O   0  0  0  0  0  0  0  0  0  0  0  0 
    2.9394   -4.7213   -1.9873 H   0  0  0  0  0  0  0  0  0  0  0  0 
    3.4230   -3.9626   -0.4585 H   0  0  0  0  0  0  0  0  0  0  0  0 
    4.6623   -4.5077   -1.6178 H   0  0  0  0  0  0  0  0  0  0  0  0 
    6.8235   -2.0604    0.1454 H   0  0  0  0  0  0  0  0  0  0  0  0 
    5.8670   -1.7045    1.6021 H   0  0  0  0  0  0  0  0  0  0  0  0 
    7.2747   -0.7008    1.1919 H   0  0  0  0  0  0  0  0  0  0  0  0 
    6.7713   -0.4016   -1.8325 H   0  0  0  0  0  0  0  0  0  0  0  0 
    7.1233    0.9712   -0.7613 H   0  0  0  0  0  0  0  0  0  0  0  0 
    5.6759    1.0020   -1.7801 H   0  0  0  0  0  0  0  0  0  0  0  0 
    2.6553   -2.2151   -2.0718 H   0  0  0  0  0  0  0  0  0  0  0  0 
    3.8644   -2.7660   -3.2621 H   0  0  0  0  0  0  0  0  0  0  0  0 
    5.6573    1.1634    1.4003 H   0  0  0  0  0  0  0  0  0  0  0  0 
    4.2040    0.3938    1.3667 H   0  0  0  0  0  0  0  0  0  0  0  0 
  1 11  1  0  0  0  0 
  2 15  1  0  0  0  0 
  2 14  1  0  0  0  0 
  3 17  1  0  0  0  0 
  3  6  1  0  0  0  0 
  4 19  1  0  0  0  0 
  4  9  1  0  0  0  0 
  4  1  1  0  0  0  0 
  5  6  1  0  0  0  0 
  5  8  2  0  0  0  0 
  6  2  1  0  0  0  0 
  6  7  1  0  0  0  0 
  7 22  1  0  0  0  0 
  7 21  1  0  0  0  0 
  9  5  1  0  0  0  0 
 10  1  1  0  0  0  0 
 12  1  1  0  0  0  0 
 13  2  1  0  0  0  0 
 16  3  1  0  0  0  0 
 18  3  1  0  0  0  0 
 20  4  1  0  0  0  0 
M  END 
>  <HBA> 
3 
 
>  <HBD> 
1 
 
>  <TPSA> 
52.32 
 
>  <cid> 
70683 
 
>  <dipole> 
2.24 
 
>  <excitation_energy_1> 
5.497 
 
>  <excitation_energy_2> 
5.833 
 
>  <excitation_energy_3> 
5.86 
 
>  <excitation_energy_4> 
6.481 
 
>  <homo_energy> 
-6.294 
 
>  <homo_lumo_gap> 
6.651 
 
>  <logP> 
0.987 
 
>  <lumo_energy> 
0.356 
 
>  <melting_point> 
51.15 
 
>  <molecular_refractivity> 
34.99 
 
>  <oscillator_strength_1> 
0.0075 
 
>  <oscillator_strength_2> 
0.0367 
 
>  <oscillator_strength_3> 
0.005 
 
>  <oscillator_strength_4> 
0.0026 
 
>  <open_babel_can_smiles> 
CCOC(=O)C(N)(C)C 
 
>  <mulliken_charges> 
22 
1   -0.463124 
2   -0.458095 
3   -0.427067 
4   -0.045748 
5   0.652495 
6   0.098931 
7   -0.71814 
8   -0.495144 
9   -0.465931 
10   0.151969 
11   0.176436 
12   0.156589 
13   0.15496 
14   0.152277 
15   0.145289 
16   0.1539 
17   0.135671 
18   0.161362 
19   0.173884 
20   0.154181 
21   0.290294 
22   0.315012 
 
>  <lowdin_charges> 
22 
1   -0.4546 
2   -0.457112 
3   -0.44488 
4   -0.125134 
5   0.200142 
6   0.042054 
7   -0.546398 
8   -0.270829 
9   -0.187413 
10   0.160972 
11   0.164063 
12   0.155195 
13   0.15686 
14   0.154802 
15   0.151785 
16   0.1571 
17   0.149456 
18   0.162371 
19   0.1602 
20   0.151376 
21   0.253714 
22   0.266273 
 
$$$$ 
 
