PCCDB-ID:  15018 
public computational chemistry database (PCCDB) project, http://pccdb.org 
 
  9  8  0  0  0  0  0  0  0  0999 V2000 
    0.8759   -0.0062   -0.0194 C   0  0  0  0  0  0  0  0  0  0  0  0 
    4.2556   -1.1203   -0.6471 C   0  0  0  0  0  0  0  0  0  0  0  0 
    2.0855    0.0207   -0.0018 C   0  0  0  0  0  0  0  0  0  0  0  0 
    3.5420    0.0464    0.0155 C   0  0  0  0  0  0  0  0  0  0  0  0 
    4.1496    0.9645    0.5380 O   0  0  0  0  0  0  0  0  0  0  0  0 
   -0.1914   -0.0133   -0.0279 H   0  0  0  0  0  0  0  0  0  0  0  0 
    3.5650   -1.8607   -1.0572 H   0  0  0  0  0  0  0  0  0  0  0  0 
    4.9095   -1.5990    0.0901 H   0  0  0  0  0  0  0  0  0  0  0  0 
    4.8952   -0.7345   -1.4487 H   0  0  0  0  0  0  0  0  0  0  0  0 
  1  3  3  0  0  0  0 
  2  4  1  0  0  0  0 
  2  8  1  0  0  0  0 
  3  4  1  0  0  0  0 
  4  5  2  0  0  0  0 
  6  1  1  0  0  0  0 
  7  2  1  0  0  0  0 
  9  2  1  0  0  0  0 
M  END 
>  <HBA> 
1 
 
>  <HBD> 
0 
 
>  <TPSA> 
17.07 
 
>  <cid> 
15018 
 
>  <dipole> 
2.87 
 
>  <excitation_energy_1> 
3.786 
 
>  <excitation_energy_2> 
4.808 
 
>  <excitation_energy_3> 
5.692 
 
>  <excitation_energy_4> 
6.81 
 
>  <homo_energy> 
-7.217 
 
>  <homo_lumo_gap> 
5.497 
 
>  <logP> 
0.209 
 
>  <lumo_energy> 
-1.72 
 
>  <melting_point> 
13.51 
 
>  <molecular_refractivity> 
19.7 
 
>  <oscillator_strength_1> 
0.0 
 
>  <oscillator_strength_2> 
0.0001 
 
>  <oscillator_strength_3> 
0.1133 
 
>  <oscillator_strength_4> 
0.0194 
 
>  <open_babel_can_smiles> 
CC(=O)C#C 
 
>  <mulliken_charges> 
9 
1   -0.479706 
2   -0.526503 
3   0.330972 
4   0.317462 
5   -0.408303 
6   0.213888 
7   0.169497 
8   0.191274 
9   0.191419 
 
>  <lowdin_charges> 
9 
1   -0.18419 
2   -0.469735 
3   -0.058389 
4   0.17314 
5   -0.210463 
6   0.21346 
7   0.168351 
8   0.183963 
9   0.183863 
 
$$$$ 
 
