PCCDB-ID:  52789 
public computational chemistry database (PCCDB) project, http://pccdb.org 
 
 15 14  0  0  0  0  0  0  0  0999 V2000 
    0.9747    0.1292    0.0579 C   0  0  0  0  0  0  0  0  0  0  0  0 
    2.9242   -1.4506    0.4238 C   0  0  0  0  0  0  0  0  0  0  0  0 
    2.4962   -0.0355    0.0337 C   0  0  0  0  0  0  0  0  0  0  0  0 
    4.3911    0.3978   -1.3627 N   0  0  0  0  0  0  0  0  0  0  0  0 
    2.9659    0.2703   -1.3272 N   0  0  0  0  0  0  0  0  0  0  0  0 
    0.5771   -0.1031    1.0513 H   0  0  0  0  0  0  0  0  0  0  0  0 
    0.5064   -0.5452   -0.6682 H   0  0  0  0  0  0  0  0  0  0  0  0 
    0.6748    1.1566   -0.1884 H   0  0  0  0  0  0  0  0  0  0  0  0 
    2.6375   -1.6703    1.4589 H   0  0  0  0  0  0  0  0  0  0  0  0 
    4.0083   -1.5543    0.3302 H   0  0  0  0  0  0  0  0  0  0  0  0 
    2.4486   -2.1862   -0.2355 H   0  0  0  0  0  0  0  0  0  0  0  0 
    2.9345    0.6709    0.7656 H   0  0  0  0  0  0  0  0  0  0  0  0 
    4.6890    1.3521   -1.1420 H   0  0  0  0  0  0  0  0  0  0  0  0 
    4.6926    0.1954   -2.3125 H   0  0  0  0  0  0  0  0  0  0  0  0 
    2.5176    1.1373   -1.6331 H   0  0  0  0  0  0  0  0  0  0  0  0 
  1  6  1  0  0  0  0 
  2  9  1  0  0  0  0 
  3  1  1  0  0  0  0 
  3  2  1  0  0  0  0 
  3 12  1  0  0  0  0 
  4  5  1  0  0  0  0 
  4 13  1  0  0  0  0 
  5  3  1  0  0  0  0 
  7  1  1  0  0  0  0 
  8  1  1  0  0  0  0 
 10  2  1  0  0  0  0 
 11  2  1  0  0  0  0 
 14  4  1  0  0  0  0 
 15  5  1  0  0  0  0 
M  END 
>  <HBA> 
2 
 
>  <HBD> 
2 
 
>  <TPSA> 
38.05 
 
>  <cid> 
52789 
 
>  <dipole> 
1.98 
 
>  <excitation_energy_1> 
5.508 
 
>  <excitation_energy_2> 
6.026 
 
>  <excitation_energy_3> 
6.269 
 
>  <excitation_energy_4> 
6.614 
 
>  <homo_energy> 
-6.117 
 
>  <homo_lumo_gap> 
8.117 
 
>  <logP> 
0.949 
 
>  <lumo_energy> 
2.0 
 
>  <melting_point> 
56.86 
 
>  <molecular_refractivity> 
22.04 
 
>  <oscillator_strength_1> 
0.0069 
 
>  <oscillator_strength_2> 
0.0185 
 
>  <oscillator_strength_3> 
0.0136 
 
>  <oscillator_strength_4> 
0.0817 
 
>  <open_babel_can_smiles> 
NNC(C)C 
 
>  <mulliken_charges> 
15 
1   -0.460803 
2   -0.428918 
3   0.08286 
4   -0.587849 
5   -0.457197 
6   0.147645 
7   0.155794 
8   0.130224 
9   0.127641 
10   0.168901 
11   0.140704 
12   0.098973 
13   0.285526 
14   0.313349 
15   0.283149 
 
>  <lowdin_charges> 
15 
1   -0.450885 
2   -0.447433 
3   -0.058253 
4   -0.482131 
5   -0.311739 
6   0.154494 
7   0.155648 
8   0.141269 
9   0.142704 
10   0.16145 
11   0.149638 
12   0.114317 
13   0.23697 
14   0.257829 
15   0.236123 
 
$$$$ 
 
