PCCDB-ID:  61997 
public computational chemistry database (PCCDB) project, http://pccdb.org 
 
 31 31  0  0  0  0  0  0  0  0999 V2000 
    2.3082    2.8158   -6.0015 C   0  0  0  0  0  0  0  0  0  0  0  0 
    4.3393    1.8280   -7.1693 C   0  0  0  0  0  0  0  0  0  0  0  0 
   12.5249    3.0368   -1.9195 C   0  0  0  0  0  0  0  0  0  0  0  0 
   12.0838    2.4459   -3.1053 C   0  0  0  0  0  0  0  0  0  0  0  0 
   11.6575    3.8536   -1.1925 C   0  0  0  0  0  0  0  0  0  0  0  0 
   10.7842    2.6716   -3.5594 C   0  0  0  0  0  0  0  0  0  0  0  0 
   10.3576    4.0759   -1.6499 C   0  0  0  0  0  0  0  0  0  0  0  0 
    8.4820    3.6970   -3.3172 C   0  0  0  0  0  0  0  0  0  0  0  0 
    7.5653    2.5546   -2.8589 C   0  0  0  0  0  0  0  0  0  0  0  0 
    4.4531    2.6803   -4.7840 C   0  0  0  0  0  0  0  0  0  0  0  0 
    3.7679    2.4471   -5.9221 C   0  0  0  0  0  0  0  0  0  0  0  0 
    9.9029    3.4901   -2.8386 C   0  0  0  0  0  0  0  0  0  0  0  0 
    5.8785    2.3866   -4.5345 C   0  0  0  0  0  0  0  0  0  0  0  0 
    6.6872    1.8792   -5.2931 O   0  0  0  0  0  0  0  0  0  0  0  0 
    6.2014    2.7737   -3.2687 O   0  0  0  0  0  0  0  0  0  0  0  0 
    1.6981    1.9308   -6.2277 H   0  0  0  0  0  0  0  0  0  0  0  0 
    2.1344    3.5287   -6.8189 H   0  0  0  0  0  0  0  0  0  0  0  0 
    1.9399    3.2602   -5.0724 H   0  0  0  0  0  0  0  0  0  0  0  0 
    3.7826    0.9141   -7.4192 H   0  0  0  0  0  0  0  0  0  0  0  0 
    5.3950    1.5861   -7.0631 H   0  0  0  0  0  0  0  0  0  0  0  0 
    4.2059    2.5109   -8.0197 H   0  0  0  0  0  0  0  0  0  0  0  0 
   13.5386    2.8654   -1.5673 H   0  0  0  0  0  0  0  0  0  0  0  0 
   12.7539    1.8121   -3.6805 H   0  0  0  0  0  0  0  0  0  0  0  0 
   11.9931    4.3217   -0.2707 H   0  0  0  0  0  0  0  0  0  0  0  0 
   10.4467    2.2130   -4.4863 H   0  0  0  0  0  0  0  0  0  0  0  0 
    9.6885    4.7186   -1.0812 H   0  0  0  0  0  0  0  0  0  0  0  0 
    8.0814    4.6430   -2.9345 H   0  0  0  0  0  0  0  0  0  0  0  0 
    8.4507    3.7426   -4.4108 H   0  0  0  0  0  0  0  0  0  0  0  0 
    7.5253    2.5005   -1.7680 H   0  0  0  0  0  0  0  0  0  0  0  0 
    7.9142    1.5984   -3.2567 H   0  0  0  0  0  0  0  0  0  0  0  0 
    3.9392    3.1319   -3.9402 H   0  0  0  0  0  0  0  0  0  0  0  0 
  1 11  1  0  0  0  0 
  1 18  1  0  0  0  0 
  2 20  1  0  0  0  0 
  2 11  1  0  0  0  0 
  3 22  1  0  0  0  0 
  3  5  2  0  0  0  0 
  4  3  1  0  0  0  0 
  5 24  1  0  0  0  0 
  6  4  2  0  0  0  0 
  6 12  1  0  0  0  0 
  7  5  1  0  0  0  0 
  7 26  1  0  0  0  0 
  8 27  1  0  0  0  0 
  8  9  1  0  0  0  0 
  8 12  1  0  0  0  0 
  9 29  1  0  0  0  0 
 10 13  1  0  0  0  0 
 10 31  1  0  0  0  0 
 11 10  2  0  0  0  0 
 12  7  2  0  0  0  0 
 13 15  1  0  0  0  0 
 14 13  2  0  0  0  0 
 15  9  1  0  0  0  0 
 16  1  1  0  0  0  0 
 17  1  1  0  0  0  0 
 19  2  1  0  0  0  0 
 21  2  1  0  0  0  0 
 23  4  1  0  0  0  0 
 25  6  1  0  0  0  0 
 28  8  1  0  0  0  0 
 30  9  1  0  0  0  0 
M  END 
>  <HBA> 
2 
 
>  <HBD> 
0 
 
>  <TPSA> 
26.3 
 
>  <cid> 
61997 
 
>  <dipole> 
1.55 
 
>  <excitation_energy_1> 
4.778 
 
>  <excitation_energy_2> 
4.996 
 
>  <excitation_energy_3> 
5.223 
 
>  <excitation_energy_4> 
5.334 
 
>  <homo_energy> 
-6.498 
 
>  <homo_lumo_gap> 
5.527 
 
>  <logP> 
2.739 
 
>  <lumo_energy> 
-0.971 
 
>  <melting_point> 
28.82 
 
>  <molecular_refractivity> 
61.06 
 
>  <oscillator_strength_1> 
0.0004 
 
>  <oscillator_strength_2> 
0.0374 
 
>  <oscillator_strength_3> 
0.0008 
 
>  <oscillator_strength_4> 
0.0014 
 
>  <open_babel_can_smiles> 
O=C(C=C(C)C)OCCc1ccccc1 
 
>  <mulliken_charges> 
31 
1   -0.512125 
2   -0.5327 
3   -0.130508 
4   -0.127934 
5   -0.127531 
6   -0.181145 
7   -0.181966 
8   -0.368785 
9   -0.035103 
10   -0.256519 
11   0.217877 
12   0.154492 
13   0.621888 
14   -0.508745 
15   -0.478644 
16   0.163513 
17   0.163307 
18   0.161764 
19   0.156479 
20   0.213407 
21   0.15554 
22   0.128245 
23   0.130042 
24   0.128423 
25   0.1385 
26   0.123246 
27   0.149903 
28   0.172243 
29   0.153077 
30   0.169843 
31   0.139917 
 
>  <lowdin_charges> 
31 
1   -0.441696 
2   -0.45541 
3   -0.15904 
4   -0.155925 
5   -0.155354 
6   -0.164624 
7   -0.169841 
8   -0.283192 
9   -0.129019 
10   -0.236308 
11   0.059488 
12   -0.003276 
13   0.203608 
14   -0.286508 
15   -0.199142 
16   0.163201 
17   0.163205 
18   0.159825 
19   0.161677 
20   0.185405 
21   0.161195 
22   0.156238 
23   0.159218 
24   0.157114 
25   0.161027 
26   0.155648 
27   0.153238 
28   0.162541 
29   0.150902 
30   0.158482 
31   0.167323 
 
$$$$ 
 
