PCCDB-ID:  68314 
public computational chemistry database (PCCDB) project, http://pccdb.org 
 
 26 26  0  0  0  0  0  0  0  0999 V2000 
    2.4782   -0.3755    2.0609 C   0  0  0  0  0  0  0  0  0  0  0  0 
    3.2562   -0.6642    0.7729 C   0  0  0  0  0  0  0  0  0  0  0  0 
    2.6651    0.0430   -0.4528 C   0  0  0  0  0  0  0  0  0  0  0  0 
    3.1953    0.8871   -6.3630 C   0  0  0  0  0  0  0  0  0  0  0  0 
    2.6704    0.9880   -5.0870 C   0  0  0  0  0  0  0  0  0  0  0  0 
    3.4544   -0.2394   -1.7239 C   0  0  0  0  0  0  0  0  0  0  0  0 
    4.9470   -0.4604   -5.4604 C   0  0  0  0  0  0  0  0  0  0  0  0 
    4.3729    0.1456   -6.5805 C   0  0  0  0  0  0  0  0  0  0  0  0 
    3.3379    0.3312   -4.0382 C   0  0  0  0  0  0  0  0  0  0  0  0 
    4.8982   -0.0343   -7.8717 N   0  0  0  0  0  0  0  0  0  0  0  0 
    4.4453   -0.3754   -4.2186 N   0  0  0  0  0  0  0  0  0  0  0  0 
    2.7954    0.4450   -2.7981 O   0  0  0  0  0  0  0  0  0  0  0  0 
    2.9168   -0.8980    2.9183 H   0  0  0  0  0  0  0  0  0  0  0  0 
    1.4333   -0.6966    1.9708 H   0  0  0  0  0  0  0  0  0  0  0  0 
    2.4737    0.6976    2.2882 H   0  0  0  0  0  0  0  0  0  0  0  0 
    3.2773   -1.7485    0.5935 H   0  0  0  0  0  0  0  0  0  0  0  0 
    4.3044   -0.3595    0.9018 H   0  0  0  0  0  0  0  0  0  0  0  0 
    2.6374    1.1282   -0.2856 H   0  0  0  0  0  0  0  0  0  0  0  0 
    1.6248   -0.2746   -0.6044 H   0  0  0  0  0  0  0  0  0  0  0  0 
    2.6983    1.3742   -7.1992 H   0  0  0  0  0  0  0  0  0  0  0  0 
    1.7671    1.5524   -4.8817 H   0  0  0  0  0  0  0  0  0  0  0  0 
    3.4940   -1.3139   -1.9431 H   0  0  0  0  0  0  0  0  0  0  0  0 
    4.4902    0.1121   -1.6415 H   0  0  0  0  0  0  0  0  0  0  0  0 
    5.8587   -1.0492   -5.5665 H   0  0  0  0  0  0  0  0  0  0  0  0 
    4.7311    0.7493   -8.4931 H   0  0  0  0  0  0  0  0  0  0  0  0 
    5.8827   -0.2773   -7.8790 H   0  0  0  0  0  0  0  0  0  0  0  0 
  1 15  1  0  0  0  0 
  1 13  1  0  0  0  0 
  2 17  1  0  0  0  0 
  2  1  1  0  0  0  0 
  3 18  1  0  0  0  0 
  3  2  1  0  0  0  0 
  4  5  2  0  0  0  0 
  5 21  1  0  0  0  0 
  5  9  1  0  0  0  0 
  6 23  1  0  0  0  0 
  6  3  1  0  0  0  0 
  7 11  1  0  0  0  0 
  8  4  1  0  0  0  0 
  8  7  2  0  0  0  0 
  9 12  1  0  0  0  0 
 10  8  1  0  0  0  0 
 11  9  2  0  0  0  0 
 12  6  1  0  0  0  0 
 14  1  1  0  0  0  0 
 16  2  1  0  0  0  0 
 19  3  1  0  0  0  0 
 20  4  1  0  0  0  0 
 22  6  1  0  0  0  0 
 24  7  1  0  0  0  0 
 25 10  1  0  0  0  0 
 26 10  1  0  0  0  0 
M  END 
>  <HBA> 
3 
 
>  <HBD> 
1 
 
>  <TPSA> 
48.14 
 
>  <cid> 
68314 
 
>  <dipole> 
2.02 
 
>  <excitation_energy_1> 
4.218 
 
>  <excitation_energy_2> 
4.567 
 
>  <excitation_energy_3> 
5.199 
 
>  <excitation_energy_4> 
5.277 
 
>  <homo_energy> 
-5.233 
 
>  <homo_lumo_gap> 
4.893 
 
>  <logP> 
2.424 
 
>  <lumo_energy> 
-0.34 
 
>  <melting_point> 
72.09 
 
>  <molecular_refractivity> 
49.55 
 
>  <oscillator_strength_1> 
0.0553 
 
>  <oscillator_strength_2> 
0.0054 
 
>  <oscillator_strength_3> 
0.0031 
 
>  <oscillator_strength_4> 
0.0191 
 
>  <open_babel_can_smiles> 
CCCCOc1ccc(cn1)N 
 
>  <mulliken_charges> 
26 
1   -0.439985 
2   -0.256834 
3   -0.268669 
4   -0.133076 
5   -0.192713 
6   -0.013911 
7   -0.008641 
8   0.273962 
9   0.549909 
10   -0.789768 
11   -0.504128 
12   -0.519767 
13   0.143087 
14   0.143638 
15   0.143334 
16   0.134798 
17   0.13414 
18   0.141225 
19   0.142221 
20   0.130787 
21   0.141028 
22   0.14409 
23   0.144304 
24   0.125289 
25   0.316992 
26   0.318686 
 
>  <lowdin_charges> 
26 
1   -0.440654 
2   -0.268698 
3   -0.278717 
4   -0.161504 
5   -0.184654 
6   -0.12054 
7   -0.127764 
8   0.019859 
9   0.118281 
10   -0.493406 
11   -0.175537 
12   -0.205701 
13   0.150744 
14   0.146289 
15   0.145749 
16   0.138899 
17   0.139097 
18   0.144216 
19   0.145499 
20   0.159822 
21   0.170126 
22   0.141402 
23   0.14228 
24   0.14923 
25   0.273687 
26   0.271996 
 
$$$$ 
 
