PCCDB-ID:  33053 
public computational chemistry database (PCCDB) project, http://pccdb.org 
 
 34 35  0  0  1  0  0  0  0  0999 V2000 
    3.1349    1.3339   -0.0287 C   0  0  0  0  0  0  0  0  0  0  0  0 
    2.2630    0.0726   -0.0930 C   0  0  0  0  0  0  0  0  0  0  0  0 
    2.0121   -1.0016   -5.3981 C   0  0  0  0  0  0  0  0  0  0  0  0 
    1.4687    0.1493   -4.5425 C   0  0  0  0  0  0  0  0  0  0  0  0 
    3.2686   -3.5639   -1.1755 C   0  0  0  0  0  0  0  0  0  0  0  0 
    1.9386   -2.3309   -4.6358 C   0  0  0  0  0  0  0  0  0  0  0  0 
    2.7232   -2.4178   -0.3170 C   0  0  0  0  0  0  0  0  0  0  0  0 
    2.5682   -3.6134   -2.5369 C   0  0  0  0  0  0  0  0  0  0  0  0 
    2.1765    0.2232   -3.1811 C   0  0  0  0  0  0  0  0  0  0  0  0 
    2.8078   -1.0477   -1.0209 C   0  0  1  0  0  0  0  0  0  0  0  0 
    2.6494   -2.2667   -3.2726 C   0  0  2  0  0  0  0  0  0  0  0  0 
    2.1026   -1.1060   -2.4023 C   0  0  2  0  0  0  0  0  0  0  0  0 
    2.6995    2.0823    0.6442 H   0  0  0  0  0  0  0  0  0  0  0  0 
    3.2557    1.7999   -1.0124 H   0  0  0  0  0  0  0  0  0  0  0  0 
    4.1377    1.0942    0.3463 H   0  0  0  0  0  0  0  0  0  0  0  0 
    1.2429    0.3438   -0.3988 H   0  0  0  0  0  0  0  0  0  0  0  0 
    2.1666   -0.3258    0.9260 H   0  0  0  0  0  0  0  0  0  0  0  0 
    3.0592   -0.7928   -5.6637 H   0  0  0  0  0  0  0  0  0  0  0  0 
    1.4589   -1.0720   -6.3435 H   0  0  0  0  0  0  0  0  0  0  0  0 
    0.3905    0.0011   -4.3805 H   0  0  0  0  0  0  0  0  0  0  0  0 
    1.5745    1.1048   -5.0725 H   0  0  0  0  0  0  0  0  0  0  0  0 
    3.1535   -4.5209   -0.6500 H   0  0  0  0  0  0  0  0  0  0  0  0 
    4.3488   -3.4202   -1.3277 H   0  0  0  0  0  0  0  0  0  0  0  0 
    2.3739   -3.1398   -5.2384 H   0  0  0  0  0  0  0  0  0  0  0  0 
    0.8829   -2.5987   -4.4745 H   0  0  0  0  0  0  0  0  0  0  0  0 
    3.2659   -2.3696    0.6367 H   0  0  0  0  0  0  0  0  0  0  0  0 
    1.6712   -2.6212   -0.0624 H   0  0  0  0  0  0  0  0  0  0  0  0 
    1.5092   -3.8778   -2.3917 H   0  0  0  0  0  0  0  0  0  0  0  0 
    3.0021   -4.4049   -3.1632 H   0  0  0  0  0  0  0  0  0  0  0  0 
    1.7379    1.0346   -2.5886 H   0  0  0  0  0  0  0  0  0  0  0  0 
    3.2339    0.4873   -3.3377 H   0  0  0  0  0  0  0  0  0  0  0  0 
    3.8753   -0.8439   -1.2091 H   0  0  0  0  0  0  0  0  0  0  0  0 
    3.7158   -2.0534   -3.4637 H   0  0  0  0  0  0  0  0  0  0  0  0 
    1.0353   -1.3177   -2.2099 H   0  0  0  0  0  0  0  0  0  0  0  0 
  1 15  1  0  0  0  0 
  1 13  1  0  0  0  0 
  2  1  1  0  0  0  0 
  2 17  1  0  0  0  0 
  3  6  1  0  0  0  0 
  3  4  1  0  0  0  0 
  4 20  1  0  0  0  0 
  4  9  1  0  0  0  0 
  5 22  1  0  0  0  0 
  5  7  1  0  0  0  0 
  6 25  1  0  0  0  0 
  6 11  1  0  0  0  0 
  7 27  1  0  0  0  0 
  7 26  1  0  0  0  0 
  8 28  1  0  0  0  0 
  8  5  1  0  0  0  0 
  9 30  1  0  0  0  0 
  9 12  1  0  0  0  0 
 10 32  1  6  0  0  0 
 10  7  1  0  0  0  0 
 10  2  1  0  0  0  0 
 11 33  1  6  0  0  0 
 11  8  1  0  0  0  0 
 11 12  1  0  0  0  0 
 12 34  1  1  0  0  0 
 12 10  1  0  0  0  0 
 14  1  1  0  0  0  0 
 16  2  1  0  0  0  0 
 18  3  1  0  0  0  0 
 19  3  1  0  0  0  0 
 21  4  1  0  0  0  0 
 23  5  1  0  0  0  0 
 24  6  1  0  0  0  0 
 29  8  1  0  0  0  0 
 31  9  1  0  0  0  0 
M  END 
>  <HBA> 
0 
 
>  <HBD> 
0 
 
>  <TPSA> 
0.0 
 
>  <cid> 
33053 
 
>  <dipole> 
0.01 
 
>  <excitation_energy_1> 
6.939 
 
>  <excitation_energy_2> 
7.012 
 
>  <excitation_energy_3> 
7.104 
 
>  <excitation_energy_4> 
7.141 
 
>  <homo_energy> 
-7.353 
 
>  <homo_lumo_gap> 
9.793 
 
>  <logP> 
4.003 
 
>  <lumo_energy> 
2.441 
 
>  <melting_point> 
14.61 
 
>  <molecular_refractivity> 
55.57 
 
>  <oscillator_strength_1> 
0.0004 
 
>  <oscillator_strength_2> 
0.0019 
 
>  <oscillator_strength_3> 
0.0009 
 
>  <oscillator_strength_4> 
0.0009 
 
>  <open_babel_can_smiles> 
CC[C@H]1CCC[C@@H]2[C@@H]1CCCC2 
 
>  <mulliken_charges> 
34 
1   -0.451482 
2   -0.26753 
3   -0.258095 
4   -0.258675 
5   -0.262232 
6   -0.260068 
7   -0.273879 
8   -0.259597 
9   -0.269762 
10   -0.06069 
11   -0.080512 
12   -0.083507 
13   0.138905 
14   0.148854 
15   0.141447 
16   0.132533 
17   0.131981 
18   0.125981 
19   0.127842 
20   0.125966 
21   0.127671 
22   0.127534 
23   0.12601 
24   0.125412 
25   0.122978 
26   0.126696 
27   0.12526 
28   0.123032 
29   0.125079 
30   0.134647 
31   0.123254 
32   0.111414 
33   0.108662 
34   0.10487 
 
>  <lowdin_charges> 
34 
1   -0.44734 
2   -0.273892 
3   -0.276354 
4   -0.275515 
5   -0.276366 
6   -0.276708 
7   -0.277045 
8   -0.276464 
9   -0.279905 
10   -0.127684 
11   -0.129939 
12   -0.129538 
13   0.148468 
14   0.147635 
15   0.144883 
16   0.139112 
17   0.141467 
18   0.135413 
19   0.142078 
20   0.134804 
21   0.142036 
22   0.142277 
23   0.134872 
24   0.142057 
25   0.134493 
26   0.140379 
27   0.134694 
28   0.134465 
29   0.141951 
30   0.145858 
31   0.13429 
32   0.130143 
33   0.128415 
34   0.126961 
 
$$$$ 
 
