PCCDB-ID:  12022 
public computational chemistry database (PCCDB) project, http://pccdb.org 
 
 19 18  0  0  0  0  0  0  0  0999 V2000 
    1.0547   -0.4460    0.4307 C   0  0  0  0  0  0  0  0  0  0  0  0 
    5.0618    2.4300    1.0412 C   0  0  0  0  0  0  0  0  0  0  0  0 
    2.1730    1.9796    1.8825 C   0  0  0  0  0  0  0  0  0  0  0  0 
    2.4282   -0.2933    1.0873 C   0  0  0  0  0  0  0  0  0  0  0  0 
    4.3765    1.1063    1.3859 C   0  0  0  0  0  0  0  0  0  0  0  0 
    2.9513    1.0755    1.0436 N   0  0  0  0  0  0  0  0  0  0  0  0 
    0.7836   -1.5064    0.3753 H   0  0  0  0  0  0  0  0  0  0  0  0 
    1.0718   -0.0383   -0.5856 H   0  0  0  0  0  0  0  0  0  0  0  0 
    0.2625    0.0631    0.9895 H   0  0  0  0  0  0  0  0  0  0  0  0 
    6.1435    2.3407    1.1929 H   0  0  0  0  0  0  0  0  0  0  0  0 
    4.7137    3.2593    1.6656 H   0  0  0  0  0  0  0  0  0  0  0  0 
    4.8785    2.6913   -0.0065 H   0  0  0  0  0  0  0  0  0  0  0  0 
    1.1278    1.9885    1.5625 H   0  0  0  0  0  0  0  0  0  0  0  0 
    2.5481    3.0020    1.7876 H   0  0  0  0  0  0  0  0  0  0  0  0 
    2.2013    1.7016    2.9562 H   0  0  0  0  0  0  0  0  0  0  0  0 
    3.1408   -0.9284    0.5475 H   0  0  0  0  0  0  0  0  0  0  0  0 
    2.3881   -0.6815    2.1266 H   0  0  0  0  0  0  0  0  0  0  0  0 
    4.5434    0.8686    2.4573 H   0  0  0  0  0  0  0  0  0  0  0  0 
    4.8626    0.3073    0.8130 H   0  0  0  0  0  0  0  0  0  0  0  0 
  1  9  1  0  0  0  0 
  1  4  1  0  0  0  0 
  2 10  1  0  0  0  0 
  2  5  1  0  0  0  0 
  2 11  1  0  0  0  0 
  3 15  1  0  0  0  0 
  4 17  1  0  0  0  0 
  5 18  1  0  0  0  0 
  6  4  1  0  0  0  0 
  6  5  1  0  0  0  0 
  6  3  1  0  0  0  0 
  7  1  1  0  0  0  0 
  8  1  1  0  0  0  0 
 12  2  1  0  0  0  0 
 13  3  1  0  0  0  0 
 14  3  1  0  0  0  0 
 16  4  1  0  0  0  0 
 19  5  1  0  0  0  0 
M  END 
>  <HBA> 
1 
 
>  <HBD> 
0 
 
>  <TPSA> 
3.24 
 
>  <cid> 
12022 
 
>  <dipole> 
0.5 
 
>  <excitation_energy_1> 
5.412 
 
>  <excitation_energy_2> 
5.75 
 
>  <excitation_energy_3> 
5.819 
 
>  <excitation_energy_4> 
5.95 
 
>  <homo_energy> 
-5.619 
 
>  <homo_lumo_gap> 
7.973 
 
>  <logP> 
0.958 
 
>  <lumo_energy> 
2.354 
 
>  <melting_point> 
-23.26 
 
>  <molecular_refractivity> 
29.05 
 
>  <oscillator_strength_1> 
0.0146 
 
>  <oscillator_strength_2> 
0.0124 
 
>  <oscillator_strength_3> 
0.0461 
 
>  <oscillator_strength_4> 
0.1223 
 
>  <open_babel_can_smiles> 
CCN(CC)C 
 
>  <mulliken_charges> 
19 
1   -0.45219 
2   -0.452009 
3   -0.30736 
4   -0.102336 
5   -0.102447 
6   -0.368875 
7   0.14161 
8   0.155739 
9   0.146296 
10   0.141597 
11   0.146257 
12   0.155767 
13   0.152257 
14   0.152119 
15   0.113041 
16   0.134263 
17   0.105967 
18   0.106073 
19   0.134232 
 
>  <lowdin_charges> 
19 
1   -0.449652 
2   -0.44861 
3   -0.356939 
4   -0.196538 
5   -0.194981 
6   -0.189449 
7   0.150957 
8   0.153982 
9   0.148918 
10   0.150543 
11   0.14859 
12   0.153677 
13   0.15035 
14   0.150659 
15   0.116122 
16   0.144024 
17   0.112593 
18   0.112025 
19   0.143728 
 
$$$$ 
 
