PCCDB-ID:  9500 
public computational chemistry database (PCCDB) project, http://pccdb.org 
 
 17 17  0  0  0  0  0  0  0  0999 V2000 
   -0.7729    1.1675   -0.0806 C   0  0  0  0  0  0  0  0  0  0  0  0 
   -1.4340   -0.0201   -0.0642 C   0  0  0  0  0  0  0  0  0  0  0  0 
    1.3373    0.0397   -0.0151 C   0  0  0  0  0  0  0  0  0  0  0  0 
    0.6671    1.2343   -0.0635 C   0  0  0  0  0  0  0  0  0  0  0  0 
   -0.7276   -1.2939   -0.0123 C   0  0  0  0  0  0  0  0  0  0  0  0 
    1.4077    2.5218   -0.0930 C   0  0  0  0  0  0  0  0  0  0  0  0 
   -1.1755   -2.4997    0.0180 N   0  0  0  0  0  0  0  0  0  0  0  0 
    2.5090    2.7816   -0.6772 N   0  0  0  0  0  0  0  0  0  0  0  0 
    0.6752   -1.1408    0.0098 N   0  0  0  0  0  0  0  0  0  0  0  0 
    0.8080    3.5489    0.5835 O   0  0  0  0  0  0  0  0  0  0  0  0 
   -1.3369    2.0954   -0.1390 H   0  0  0  0  0  0  0  0  0  0  0  0 
   -2.5185   -0.0557   -0.0965 H   0  0  0  0  0  0  0  0  0  0  0  0 
    2.4201   -0.0183    0.0237 H   0  0  0  0  0  0  0  0  0  0  0  0 
   -2.1961   -2.4975   -0.0000 H   0  0  0  0  0  0  0  0  0  0  0  0 
    2.8000    1.9831   -1.2428 H   0  0  0  0  0  0  0  0  0  0  0  0 
    1.1856   -2.0148    0.0640 H   0  0  0  0  0  0  0  0  0  0  0  0 
    0.1771    3.1820    1.2220 H   0  0  0  0  0  0  0  0  0  0  0  0 
  1  2  2  0  0  0  0 
  1  4  1  0  0  0  0 
  2  5  1  0  0  0  0 
  3  9  1  0  0  0  0 
  3 13  1  0  0  0  0 
  4  3  2  0  0  0  0 
  5  9  1  0  0  0  0 
  5  7  2  0  0  0  0 
  6  4  1  0  0  0  0 
  6 10  1  0  0  0  0 
  8  6  2  0  0  0  0 
  9 16  1  0  0  0  0 
 10 17  1  0  0  0  0 
 11  1  1  0  0  0  0 
 12  2  1  0  0  0  0 
 14  7  1  0  0  0  0 
 15  8  1  0  0  0  0 
M  END 
>  <HBA> 
4 
 
>  <HBD> 
2 
 
>  <TPSA> 
82.0 
 
>  <cid> 
9500 
 
>  <dipole> 
2.61 
 
>  <excitation_energy_1> 
3.554 
 
>  <excitation_energy_2> 
4.718 
 
>  <excitation_energy_3> 
4.768 
 
>  <excitation_energy_4> 
4.872 
 
>  <homo_energy> 
-5.725 
 
>  <homo_lumo_gap> 
4.177 
 
>  <logP> 
1.044 
 
>  <lumo_energy> 
-1.548 
 
>  <melting_point> 
158.79 
 
>  <molecular_refractivity> 
36.74 
 
>  <oscillator_strength_1> 
0.0293 
 
>  <oscillator_strength_2> 
0.1766 
 
>  <oscillator_strength_3> 
0.1232 
 
>  <oscillator_strength_4> 
0.005 
 
>  <open_babel_can_smiles> 
OC(=N)c1ccc(=N)[nH]c1 
 
>  <mulliken_charges> 
17 
1   -0.143056 
2   -0.196414 
3   0.078753 
4   -0.007796 
5   0.492462 
6   0.418428 
7   -0.666152 
8   -0.583537 
9   -0.621251 
10   -0.577282 
11   0.15669 
12   0.146589 
13   0.182656 
14   0.284087 
15   0.280025 
16   0.349634 
17   0.406164 
 
>  <lowdin_charges> 
17 
1   -0.137134 
2   -0.194935 
3   -0.057674 
4   -0.117543 
5   0.087797 
6   0.124454 
7   -0.454102 
8   -0.396387 
9   -0.173421 
10   -0.365607 
11   0.169975 
12   0.167841 
13   0.176536 
14   0.253957 
15   0.255013 
16   0.30413 
17   0.357102 
 
$$$$ 
 
