PCCDB-ID:  70307 
public computational chemistry database (PCCDB) project, http://pccdb.org 
 
 32 32  0  0  0  0  0  0  0  0999 V2000 
    6.7475   -3.6726    1.7399 C   0  0  0  0  0  0  0  0  0  0  0  0 
    6.7050    2.7842   -2.0583 C   0  0  0  0  0  0  0  0  0  0  0  0 
    6.2107   -2.4168    1.0441 C   0  0  0  0  0  0  0  0  0  0  0  0 
    6.1433   -1.2048    1.9861 C   0  0  0  0  0  0  0  0  0  0  0  0 
    5.4813    0.0731    1.4303 C   0  0  0  0  0  0  0  0  0  0  0  0 
    6.3382    0.9768    0.5202 C   0  0  0  0  0  0  0  0  0  0  0  0 
    6.5333    0.4775   -0.9183 C   0  0  0  0  0  0  0  0  0  0  0  0 
    9.5698    1.7045   -2.3327 C   0  0  0  0  0  0  0  0  0  0  0  0 
    8.8252    1.1198   -3.5610 C   0  0  0  0  0  0  0  0  0  0  0  0 
    7.3472    1.4127   -1.8158 C   0  0  0  0  0  0  0  0  0  0  0  0 
    8.6522    1.5582   -1.2563 O   0  0  0  0  0  0  0  0  0  0  0  0 
    7.5485    0.7409   -3.0611 O   0  0  0  0  0  0  0  0  0  0  0  0 
    6.7831   -4.5267    1.0540 H   0  0  0  0  0  0  0  0  0  0  0  0 
    6.1169   -3.9549    2.5924 H   0  0  0  0  0  0  0  0  0  0  0  0 
    7.7631   -3.5101    2.1218 H   0  0  0  0  0  0  0  0  0  0  0  0 
    6.6137    3.3459   -1.1243 H   0  0  0  0  0  0  0  0  0  0  0  0 
    5.7104    2.6650   -2.4998 H   0  0  0  0  0  0  0  0  0  0  0  0 
    7.3140    3.3764   -2.7496 H   0  0  0  0  0  0  0  0  0  0  0  0 
    5.2055   -2.6199    0.6478 H   0  0  0  0  0  0  0  0  0  0  0  0 
    6.8410   -2.1942    0.1754 H   0  0  0  0  0  0  0  0  0  0  0  0 
    7.1554   -0.9615    2.3427 H   0  0  0  0  0  0  0  0  0  0  0  0 
    5.5799   -1.5118    2.8795 H   0  0  0  0  0  0  0  0  0  0  0  0 
    5.1768    0.6837    2.2910 H   0  0  0  0  0  0  0  0  0  0  0  0 
    4.5483   -0.1939    0.9113 H   0  0  0  0  0  0  0  0  0  0  0  0 
    7.3213    1.1329    0.9824 H   0  0  0  0  0  0  0  0  0  0  0  0 
    5.8560    1.9629    0.4892 H   0  0  0  0  0  0  0  0  0  0  0  0 
    5.5590    0.3134   -1.3969 H   0  0  0  0  0  0  0  0  0  0  0  0 
    7.0623   -0.4791   -0.9312 H   0  0  0  0  0  0  0  0  0  0  0  0 
    9.8362    2.7596   -2.4869 H   0  0  0  0  0  0  0  0  0  0  0  0 
   10.4802    1.1530   -2.0779 H   0  0  0  0  0  0  0  0  0  0  0  0 
    9.3088    0.2270   -3.9704 H   0  0  0  0  0  0  0  0  0  0  0  0 
    8.7316    1.8614   -4.3667 H   0  0  0  0  0  0  0  0  0  0  0  0 
  1 15  1  0  0  0  0 
  1 14  1  0  0  0  0 
  2 10  1  0  0  0  0 
  2 16  1  0  0  0  0 
  3  1  1  0  0  0  0 
  3  4  1  0  0  0  0 
  4 21  1  0  0  0  0 
  4 22  1  0  0  0  0 
  5  4  1  0  0  0  0 
  5 23  1  0  0  0  0 
  6 25  1  0  0  0  0 
  6  5  1  0  0  0  0 
  7  6  1  0  0  0  0 
  8 30  1  0  0  0  0 
  8 11  1  0  0  0  0 
  9 12  1  0  0  0  0 
  9  8  1  0  0  0  0 
 10 11  1  0  0  0  0 
 10  7  1  0  0  0  0 
 12 10  1  0  0  0  0 
 13  1  1  0  0  0  0 
 17  2  1  0  0  0  0 
 18  2  1  0  0  0  0 
 19  3  1  0  0  0  0 
 20  3  1  0  0  0  0 
 24  5  1  0  0  0  0 
 26  6  1  0  0  0  0 
 27  7  1  0  0  0  0 
 28  7  1  0  0  0  0 
 29  8  1  0  0  0  0 
 31  9  1  0  0  0  0 
 32  9  1  0  0  0  0 
M  END 
>  <HBA> 
2 
 
>  <HBD> 
0 
 
>  <TPSA> 
18.46 
 
>  <cid> 
70307 
 
>  <dipole> 
1.19 
 
>  <excitation_energy_1> 
6.426 
 
>  <excitation_energy_2> 
6.619 
 
>  <excitation_energy_3> 
6.769 
 
>  <excitation_energy_4> 
6.911 
 
>  <homo_energy> 
-6.814 
 
>  <homo_lumo_gap> 
8.868 
 
>  <logP> 
2.72 
 
>  <lumo_energy> 
2.054 
 
>  <melting_point> 
-13.52 
 
>  <molecular_refractivity> 
50.28 
 
>  <oscillator_strength_1> 
0.0028 
 
>  <oscillator_strength_2> 
0.0001 
 
>  <oscillator_strength_3> 
0.018 
 
>  <oscillator_strength_4> 
0.0227 
 
>  <open_babel_can_smiles> 
CCCCCCC1(C)OCCO1 
 
>  <mulliken_charges> 
32 
1   -0.44229 
2   -0.458219 
3   -0.252141 
4   -0.245481 
5   -0.26229 
6   -0.267138 
7   -0.280484 
8   -0.051806 
9   -0.050618 
10   0.525418 
11   -0.502284 
12   -0.509367 
13   0.140847 
14   0.139696 
15   0.141422 
16   0.157238 
17   0.152348 
18   0.14187 
19   0.128712 
20   0.142826 
21   0.128467 
22   0.125788 
23   0.128382 
24   0.125515 
25   0.151204 
26   0.128393 
27   0.136874 
28   0.154858 
29   0.135656 
30   0.151127 
31   0.150369 
32   0.135107 
 
>  <lowdin_charges> 
32 
1   -0.445017 
2   -0.465904 
3   -0.276281 
4   -0.276222 
5   -0.276917 
6   -0.277359 
7   -0.285137 
8   -0.146878 
9   -0.149473 
10   0.215331 
11   -0.2666 
12   -0.267651 
13   0.149183 
14   0.145672 
15   0.145351 
16   0.158991 
17   0.158127 
18   0.1553 
19   0.137422 
20   0.142974 
21   0.138087 
22   0.139781 
23   0.144484 
24   0.137533 
25   0.149513 
26   0.140157 
27   0.149172 
28   0.156101 
29   0.133068 
30   0.151124 
31   0.150782 
32   0.135285 
 
$$$$ 
 
