PCCDB-ID:  11082 
public computational chemistry database (PCCDB) project, http://pccdb.org 
 
 26 27  0  0  1  0  0  0  0  0999 V2000 
    1.2491   -0.7485   -0.3051 C   0  0  0  0  0  0  0  0  0  0  0  0 
    2.9472   -0.3530    1.5206 C   0  0  0  0  0  0  0  0  0  0  0  0 
    2.0195    2.6645   -2.6020 C   0  0  2  0  0  0  0  0  0  0  0  0 
    3.6181    0.0967   -0.9082 C   0  0  2  0  0  0  0  0  0  0  0  0 
    2.4326    1.2041   -2.9407 C   0  0  0  0  0  0  0  0  0  0  0  0 
    2.8391    2.4096   -1.2943 C   0  0  2  0  0  0  0  0  0  0  0  0 
    3.9124   -1.3223   -1.4412 C   0  0  0  0  0  0  0  0  0  0  0  0 
    2.4477    0.1018    0.1446 C   0  0  0  0  0  0  0  0  0  0  0  0 
    0.6399    3.0388   -2.4628 N   0  0  0  0  0  0  0  0  0  0  0  0 
    3.3198    1.1489   -1.8793 N   0  0  0  0  0  0  0  0  0  0  0  0 
    2.1026    0.3541   -3.7531 O   0  0  0  0  0  0  0  0  0  0  0  0 
    4.5121   -2.0878   -0.7191 O   0  0  0  0  0  0  0  0  0  0  0  0 
    3.4734   -1.6919   -2.6427 O   0  0  0  0  0  0  0  0  0  0  0  0 
    1.9372    1.9227    0.2449 S   0  0  0  0  0  0  0  0  0  0  0  0 
    0.4097   -0.6077    0.3825 H   0  0  0  0  0  0  0  0  0  0  0  0 
    1.5158   -1.8120   -0.2990 H   0  0  0  0  0  0  0  0  0  0  0  0 
    0.9049   -0.4879   -1.3105 H   0  0  0  0  0  0  0  0  0  0  0  0 
    3.3232   -1.3786    1.4492 H   0  0  0  0  0  0  0  0  0  0  0  0 
    2.1366   -0.3289    2.2563 H   0  0  0  0  0  0  0  0  0  0  0  0 
    3.7570    0.2880    1.8813 H   0  0  0  0  0  0  0  0  0  0  0  0 
    2.5261    3.3826   -3.2562 H   0  0  0  0  0  0  0  0  0  0  0  0 
    4.5329    0.3981   -0.3902 H   0  0  0  0  0  0  0  0  0  0  0  0 
    3.6189    3.1345   -1.0533 H   0  0  0  0  0  0  0  0  0  0  0  0 
    0.1412    2.3816   -1.8669 H   0  0  0  0  0  0  0  0  0  0  0  0 
    0.1794    3.0609   -3.3697 H   0  0  0  0  0  0  0  0  0  0  0  0 
    2.9689   -0.9907   -3.1328 H   0  0  0  0  0  0  0  0  0  0  0  0 
  1 16  1  0  0  0  0 
  1  8  1  0  0  0  0 
  1 15  1  0  0  0  0 
  2 20  1  0  0  0  0 
  2 19  1  0  0  0  0 
  3 21  1  6  0  0  0 
  3  9  1  0  0  0  0 
  3  6  1  0  0  0  0 
  4 22  1  1  0  0  0 
  4  8  1  0  0  0  0 
  5  3  1  0  0  0  0 
  5 10  1  0  0  0  0 
  6 23  1  1  0  0  0 
  6 14  1  0  0  0  0 
  7  4  1  0  0  0  0 
  7 12  2  0  0  0  0 
  8 14  1  0  0  0  0 
  8  2  1  0  0  0  0 
  9 24  1  0  0  0  0 
 10  6  1  0  0  0  0 
 10  4  1  0  0  0  0 
 11  5  2  0  0  0  0 
 13  7  1  0  0  0  0 
 17  1  1  0  0  0  0 
 18  2  1  0  0  0  0 
 25  9  1  0  0  0  0 
 26 13  1  0  0  0  0 
M  END 
>  <HBA> 
6 
 
>  <HBD> 
2 
 
>  <TPSA> 
108.93 
 
>  <cid> 
11082 
 
>  <dipole> 
3.82 
 
>  <excitation_energy_1> 
4.672 
 
>  <excitation_energy_2> 
4.913 
 
>  <excitation_energy_3> 
5.138 
 
>  <excitation_energy_4> 
5.429 
 
>  <homo_energy> 
-6.67 
 
>  <homo_lumo_gap> 
5.834 
 
>  <logP> 
0.099 
 
>  <lumo_energy> 
-0.835 
 
>  <melting_point> 
192.69 
 
>  <molecular_refractivity> 
55.46 
 
>  <oscillator_strength_1> 
0.006 
 
>  <oscillator_strength_2> 
0.0003 
 
>  <oscillator_strength_3> 
0.0091 
 
>  <oscillator_strength_4> 
0.0044 
 
>  <open_babel_can_smiles> 
OC(=O)[C@H]1N2C(=O)[C@H]([C@H]2SC1(C)C)N 
 
>  <mulliken_charges> 
26 
1   -0.462044 
2   -0.449998 
3   -0.071636 
4   -0.0775 
5   0.573435 
6   -0.126093 
7   0.604153 
8   -0.099769 
9   -0.696505 
10   -0.423286 
11   -0.515729 
12   -0.45412 
13   -0.595472 
14   0.100032 
15   0.166983 
16   0.181635 
17   0.158453 
18   0.192922 
19   0.158358 
20   0.163027 
21   0.183255 
22   0.197227 
23   0.191891 
24   0.326652 
25   0.321144 
26   0.452986 
 
>  <lowdin_charges> 
26 
1   -0.454009 
2   -0.446549 
3   -0.091454 
4   -0.105179 
5   0.141641 
6   -0.154838 
7   0.19225 
8   -0.06654 
9   -0.521182 
10   -0.117609 
11   -0.272088 
12   -0.256066 
13   -0.349582 
14   0.083471 
15   0.165173 
16   0.165883 
17   0.15572 
18   0.174335 
19   0.160186 
20   0.162088 
21   0.172291 
22   0.18258 
23   0.167732 
24   0.271247 
25   0.273301 
26   0.367198 
 
$$$$ 
 
