PCCDB-ID:  10295 
public computational chemistry database (PCCDB) project, http://pccdb.org 
 
 23 25  0  0  0  0  0  0  0  0999 V2000 
   -3.7129   -0.7968    0.0013 C   0  0  0  0  0  0  0  0  0  0  0  0 
    3.7225   -0.7725    0.0035 C   0  0  0  0  0  0  0  0  0  0  0  0 
   -3.8036    0.6027    0.0009 C   0  0  0  0  0  0  0  0  0  0  0  0 
    3.8040    0.6276    0.0028 C   0  0  0  0  0  0  0  0  0  0  0  0 
   -2.4660   -1.3995    0.0001 C   0  0  0  0  0  0  0  0  0  0  0  0 
    2.4796   -1.3833    0.0013 C   0  0  0  0  0  0  0  0  0  0  0  0 
   -2.6535    1.3786   -0.0013 C   0  0  0  0  0  0  0  0  0  0  0  0 
    2.6488    1.3959    0.0001 C   0  0  0  0  0  0  0  0  0  0  0  0 
   -1.2817   -0.6364   -0.0022 C   0  0  0  0  0  0  0  0  0  0  0  0 
    1.2903   -0.6280   -0.0009 C   0  0  0  0  0  0  0  0  0  0  0  0 
   -1.3872    0.7669   -0.0029 C   0  0  0  0  0  0  0  0  0  0  0  0 
    1.3866    0.7760   -0.0014 C   0  0  0  0  0  0  0  0  0  0  0  0 
    0.0067   -1.3797   -0.0041 C   0  0  0  0  0  0  0  0  0  0  0  0 
    0.0108   -2.6104   -0.0080 O   0  0  0  0  0  0  0  0  0  0  0  0 
   -0.0039    1.8614   -0.0047 S   0  0  0  0  0  0  0  0  0  0  0  0 
   -4.6138   -1.4032    0.0036 H   0  0  0  0  0  0  0  0  0  0  0  0 
    4.6273   -1.3730    0.0050 H   0  0  0  0  0  0  0  0  0  0  0  0 
   -4.7758    1.0880    0.0024 H   0  0  0  0  0  0  0  0  0  0  0  0 
    4.7730    1.1192    0.0042 H   0  0  0  0  0  0  0  0  0  0  0  0 
   -2.3567   -2.4786    0.0010 H   0  0  0  0  0  0  0  0  0  0  0  0 
    2.3772   -2.4632    0.0006 H   0  0  0  0  0  0  0  0  0  0  0  0 
   -2.7260    2.4630   -0.0010 H   0  0  0  0  0  0  0  0  0  0  0  0 
    2.7143    2.4807   -0.0008 H   0  0  0  0  0  0  0  0  0  0  0  0 
  1 16  1  0  0  0  0 
  2 17  1  0  0  0  0 
  3  1  1  0  0  0  0 
  3 18  1  0  0  0  0 
  4  2  1  0  0  0  0 
  4 19  1  0  0  0  0 
  5 20  1  0  0  0  0 
  5  1  2  0  0  0  0 
  6  2  2  0  0  0  0 
  7 22  1  0  0  0  0 
  7  3  2  0  0  0  0 
  8  4  2  0  0  0  0 
  9  5  1  0  0  0  0 
 10  6  1  0  0  0  0 
 11  9  2  0  0  0  0 
 11  7  1  0  0  0  0 
 12 10  2  0  0  0  0 
 12  8  1  0  0  0  0 
 13  9  1  0  0  0  0 
 13 10  1  0  0  0  0 
 14 13  2  0  0  0  0 
 15 11  1  0  0  0  0 
 15 12  1  0  0  0  0 
 21  6  1  0  0  0  0 
 23  8  1  0  0  0  0 
M  END 
>  <HBA> 
2 
 
>  <HBD> 
0 
 
>  <TPSA> 
45.31 
 
>  <cid> 
10295 
 
>  <dipole> 
2.41 
 
>  <excitation_energy_1> 
3.499 
 
>  <excitation_energy_2> 
3.569 
 
>  <excitation_energy_3> 
4.377 
 
>  <excitation_energy_4> 
4.689 
 
>  <homo_energy> 
-5.946 
 
>  <homo_lumo_gap> 
4.093 
 
>  <logP> 
3.415 
 
>  <lumo_energy> 
-1.853 
 
>  <melting_point> 
127.66 
 
>  <molecular_refractivity> 
65.6 
 
>  <oscillator_strength_1> 
0.0659 
 
>  <oscillator_strength_2> 
0.0 
 
>  <oscillator_strength_3> 
0.0197 
 
>  <oscillator_strength_4> 
0.042 
 
>  <open_babel_can_smiles> 
O=c1c2ccccc2sc2c1cccc2 
 
>  <mulliken_charges> 
23 
1   -0.140837 
2   -0.140846 
3   -0.108103 
4   -0.108082 
5   -0.139322 
6   -0.139345 
7   -0.173574 
8   -0.173564 
9   0.063604 
10   0.063613 
11   -0.137741 
12   -0.137768 
13   0.337274 
14   -0.502003 
15   0.231118 
16   0.141149 
17   0.14115 
18   0.142431 
19   0.142423 
20   0.170838 
21   0.170843 
22   0.148371 
23   0.14837 
 
>  <lowdin_charges> 
23 
1   -0.160722 
2   -0.160687 
3   -0.133391 
4   -0.133435 
5   -0.118105 
6   -0.11809 
7   -0.164634 
8   -0.164635 
9   -0.054086 
10   -0.054097 
11   -0.116306 
12   -0.116284 
13   0.143138 
14   -0.270208 
15   0.271029 
16   0.164345 
17   0.164317 
18   0.164595 
19   0.164631 
20   0.180072 
21   0.18006 
22   0.16625 
23   0.166242 
 
$$$$ 
 
