PCCDB-ID:  22130 
public computational chemistry database (PCCDB) project, http://pccdb.org 
 
 29 30  0  0  1  0  0  0  0  0999 V2000 
    0.7234    0.2919   -0.6248 C   0  0  0  0  0  0  0  0  0  0  0  0 
    2.9543    0.3516   -1.7683 C   0  0  0  0  0  0  0  0  0  0  0  0 
    5.1126   -1.0285    3.8672 C   0  0  0  0  0  0  0  0  0  0  0  0 
    4.7596   -0.8689    1.3279 C   0  0  0  0  0  0  0  0  0  0  0  0 
    4.3615    0.5623    0.9356 C   0  0  0  0  0  0  0  0  0  0  0  0 
    2.2252   -0.0098   -0.4631 C   0  0  0  0  0  0  0  0  0  0  0  0 
    4.1699   -1.3219    2.6878 C   0  0  2  0  0  0  0  0  0  0  0  0 
    2.8331    0.7195    0.7724 C   0  0  1  0  0  0  0  0  0  0  0  0 
    2.8003   -0.7096    2.9618 C   0  0  2  0  0  0  0  0  0  0  0  0 
    2.1600    0.2705    2.0625 C   0  0  1  0  0  0  0  0  0  0  0  0 
    2.7796    0.6946    3.2877 O   0  0  0  0  0  0  0  0  0  0  0  0 
    0.3288   -0.1969   -1.5232 H   0  0  0  0  0  0  0  0  0  0  0  0 
    0.5503    1.3708   -0.7330 H   0  0  0  0  0  0  0  0  0  0  0  0 
    0.1256   -0.0586    0.2223 H   0  0  0  0  0  0  0  0  0  0  0  0 
    2.4587   -0.1182   -2.6258 H   0  0  0  0  0  0  0  0  0  0  0  0 
    3.9972    0.0203   -1.7731 H   0  0  0  0  0  0  0  0  0  0  0  0 
    2.9468    1.4368   -1.9357 H   0  0  0  0  0  0  0  0  0  0  0  0 
    6.0713   -1.5429    3.7352 H   0  0  0  0  0  0  0  0  0  0  0  0 
    4.6772   -1.3633    4.8166 H   0  0  0  0  0  0  0  0  0  0  0  0 
    5.3040    0.0459    3.9529 H   0  0  0  0  0  0  0  0  0  0  0  0 
    5.8532   -0.9533    1.3621 H   0  0  0  0  0  0  0  0  0  0  0  0 
    4.4273   -1.5605    0.5427 H   0  0  0  0  0  0  0  0  0  0  0  0 
    4.8743    0.8545    0.0139 H   0  0  0  0  0  0  0  0  0  0  0  0 
    4.6938    1.2615    1.7102 H   0  0  0  0  0  0  0  0  0  0  0  0 
    2.3305   -1.0938   -0.3094 H   0  0  0  0  0  0  0  0  0  0  0  0 
    4.0189   -2.4101    2.6460 H   0  0  0  0  0  0  0  0  0  0  0  0 
    2.6168    1.7925    0.6452 H   0  0  0  0  0  0  0  0  0  0  0  0 
    2.1537   -1.3039    3.6126 H   0  0  0  0  0  0  0  0  0  0  0  0 
    1.0728    0.3481    2.0929 H   0  0  0  0  0  0  0  0  0  0  0  0 
  1  6  1  0  0  0  0 
  1 14  1  0  0  0  0 
  2  6  1  0  0  0  0 
  3 20  1  0  0  0  0 
  3 19  1  0  0  0  0 
  4 21  1  0  0  0  0 
  4  7  1  0  0  0  0 
  5  4  1  0  0  0  0 
  5 24  1  0  0  0  0 
  6 25  1  0  0  0  0 
  6  8  1  0  0  0  0 
  7 26  1  6  0  0  0 
  7  9  1  0  0  0  0 
  7  3  1  0  0  0  0 
  8 27  1  6  0  0  0 
  8  5  1  0  0  0  0 
  8 10  1  0  0  0  0 
  9 11  1  0  0  0  0 
  9 28  1  1  0  0  0 
 10 29  1  6  0  0  0 
 10  9  1  0  0  0  0 
 10 11  1  0  0  0  0 
 12  1  1  0  0  0  0 
 13  1  1  0  0  0  0 
 15  2  1  0  0  0  0 
 16  2  1  0  0  0  0 
 17  2  1  0  0  0  0 
 18  3  1  0  0  0  0 
 22  4  1  0  0  0  0 
 23  5  1  0  0  0  0 
M  END 
>  <HBA> 
1 
 
>  <HBD> 
0 
 
>  <TPSA> 
12.53 
 
>  <cid> 
22130 
 
>  <dipole> 
1.9 
 
>  <excitation_energy_1> 
6.447 
 
>  <excitation_energy_2> 
6.806 
 
>  <excitation_energy_3> 
6.917 
 
>  <excitation_energy_4> 
6.969 
 
>  <homo_energy> 
-6.901 
 
>  <homo_lumo_gap> 
8.934 
 
>  <logP> 
2.456 
 
>  <lumo_energy> 
2.033 
 
>  <melting_point> 
6.99 
 
>  <molecular_refractivity> 
47.04 
 
>  <oscillator_strength_1> 
0.018 
 
>  <oscillator_strength_2> 
0.0035 
 
>  <oscillator_strength_3> 
0.0129 
 
>  <oscillator_strength_4> 
0.0061 
 
>  <open_babel_can_smiles> 
CC([C@@H]1CC[C@H]([C@@H]2[C@H]1O2)C)C 
 
>  <mulliken_charges> 
29 
1   -0.455268 
2   -0.452192 
3   -0.448549 
4   -0.283897 
5   -0.295932 
6   -0.07175 
7   -0.084381 
8   -0.091123 
9   0.069712 
10   0.079122 
11   -0.471906 
12   0.142535 
13   0.142663 
14   0.14591 
15   0.140614 
16   0.14854 
17   0.141346 
18   0.13874 
19   0.141908 
20   0.166066 
21   0.132527 
22   0.13463 
23   0.134306 
24   0.157622 
25   0.123383 
26   0.122212 
27   0.1253 
28   0.131945 
29   0.135916 
 
>  <lowdin_charges> 
29 
1   -0.447579 
2   -0.444067 
3   -0.441299 
4   -0.278801 
5   -0.286472 
6   -0.12106 
7   -0.129917 
8   -0.133478 
9   -0.031877 
10   -0.027196 
11   -0.295615 
12   0.150405 
13   0.14555 
14   0.148663 
15   0.149966 
16   0.148801 
17   0.145296 
18   0.146381 
19   0.149621 
20   0.156454 
21   0.143522 
22   0.141742 
23   0.146852 
24   0.155343 
25   0.134021 
26   0.141099 
27   0.141784 
28   0.146795 
29   0.145067 
 
$$$$ 
 
