PCCDB-ID:  27694 
public computational chemistry database (PCCDB) project, http://pccdb.org 
 
 32 33  0  0  0  0  0  0  0  0999 V2000 
    0.6624    0.1564    0.1246 C   0  0  0  0  0  0  0  0  0  0  0  0 
    9.0416    0.2948   -1.2971 C   0  0  0  0  0  0  0  0  0  0  0  0 
    7.5492   -3.6614   -2.2292 C   0  0  0  0  0  0  0  0  0  0  0  0 
    4.0630    1.5693   -0.5839 C   0  0  0  0  0  0  0  0  0  0  0  0 
    2.5647    1.3439   -0.7938 C   0  0  0  0  0  0  0  0  0  0  0  0 
    6.2304    0.3059   -0.9404 C   0  0  0  0  0  0  0  0  0  0  0  0 
    4.9359   -2.1306   -0.7081 C   0  0  0  0  0  0  0  0  0  0  0  0 
    2.6908   -1.0248   -0.3825 C   0  0  0  0  0  0  0  0  0  0  0  0 
    4.8443    0.2788   -0.7170 C   0  0  0  0  0  0  0  0  0  0  0  0 
    4.1902   -0.9492   -0.5920 C   0  0  0  0  0  0  0  0  0  0  0  0 
    6.9720   -0.8702   -1.0408 C   0  0  0  0  0  0  0  0  0  0  0  0 
    6.3060   -2.1124   -0.9295 C   0  0  0  0  0  0  0  0  0  0  0  0 
    2.1114    0.2432    0.0521 N   0  0  0  0  0  0  0  0  0  0  0  0 
    8.3251   -0.9269   -1.2357 O   0  0  0  0  0  0  0  0  0  0  0  0 
    6.9916   -3.3045   -0.9637 O   0  0  0  0  0  0  0  0  0  0  0  0 
    0.2543    1.0974    0.5093 H   0  0  0  0  0  0  0  0  0  0  0  0 
    0.3757   -0.6459    0.8140 H   0  0  0  0  0  0  0  0  0  0  0  0 
    0.1861   -0.0517   -0.8548 H   0  0  0  0  0  0  0  0  0  0  0  0 
   10.0903    0.0204   -1.4268 H   0  0  0  0  0  0  0  0  0  0  0  0 
    8.9295    0.8736   -0.3709 H   0  0  0  0  0  0  0  0  0  0  0  0 
    8.7206    0.9120   -2.1472 H   0  0  0  0  0  0  0  0  0  0  0  0 
    8.3114   -2.9443   -2.5497 H   0  0  0  0  0  0  0  0  0  0  0  0 
    6.7658   -3.7318   -2.9964 H   0  0  0  0  0  0  0  0  0  0  0  0 
    8.0070   -4.6441   -2.0914 H   0  0  0  0  0  0  0  0  0  0  0  0 
    4.2146    1.9893    0.4201 H   0  0  0  0  0  0  0  0  0  0  0  0 
    4.4324    2.3154   -1.2996 H   0  0  0  0  0  0  0  0  0  0  0  0 
    2.3547    1.1522   -1.8667 H   0  0  0  0  0  0  0  0  0  0  0  0 
    2.0101    2.2470   -0.5148 H   0  0  0  0  0  0  0  0  0  0  0  0 
    6.7234    1.2689   -1.0265 H   0  0  0  0  0  0  0  0  0  0  0  0 
    4.4559   -3.1017   -0.6136 H   0  0  0  0  0  0  0  0  0  0  0  0 
    2.4609   -1.7856    0.3752 H   0  0  0  0  0  0  0  0  0  0  0  0 
    2.2142   -1.3762   -1.3248 H   0  0  0  0  0  0  0  0  0  0  0  0 
  1 16  1  0  0  0  0 
  1 17  1  0  0  0  0 
  2 14  1  0  0  0  0 
  2 20  1  0  0  0  0 
  3 24  1  0  0  0  0 
  3 15  1  0  0  0  0 
  4 25  1  0  0  0  0 
  5  4  1  0  0  0  0 
  5 28  1  0  0  0  0 
  5 13  1  0  0  0  0 
  6  9  1  0  0  0  0 
  7 30  1  0  0  0  0 
  7 10  1  0  0  0  0 
  8 13  1  0  0  0  0 
  8 31  1  0  0  0  0 
  9 10  2  0  0  0  0 
  9  4  1  0  0  0  0 
 10  8  1  0  0  0  0 
 11  6  2  0  0  0  0 
 11 12  1  0  0  0  0 
 12  7  2  0  0  0  0 
 13  1  1  0  0  0  0 
 14 11  1  0  0  0  0 
 15 12  1  0  0  0  0 
 18  1  1  0  0  0  0 
 19  2  1  0  0  0  0 
 21  2  1  0  0  0  0 
 22  3  1  0  0  0  0 
 23  3  1  0  0  0  0 
 26  4  1  0  0  0  0 
 27  5  1  0  0  0  0 
 29  6  1  0  0  0  0 
 32  8  1  0  0  0  0 
M  END 
>  <HBA> 
3 
 
>  <HBD> 
0 
 
>  <TPSA> 
21.7 
 
>  <cid> 
27694 
 
>  <dipole> 
2.38 
 
>  <excitation_energy_1> 
4.772 
 
>  <excitation_energy_2> 
5.003 
 
>  <excitation_energy_3> 
5.169 
 
>  <excitation_energy_4> 
5.252 
 
>  <homo_energy> 
-5.502 
 
>  <homo_lumo_gap> 
5.704 
 
>  <logP> 
1.63 
 
>  <lumo_energy> 
0.201 
 
>  <melting_point> 
48.09 
 
>  <molecular_refractivity> 
63.67 
 
>  <oscillator_strength_1> 
0.0492 
 
>  <oscillator_strength_2> 
0.0282 
 
>  <oscillator_strength_3> 
0.0256 
 
>  <oscillator_strength_4> 
0.0284 
 
>  <open_babel_can_smiles> 
COc1cc2CN(C)CCc2cc1OC 
 
>  <mulliken_charges> 
32 
1   -0.287425 
2   -0.212431 
3   -0.208994 
4   -0.333881 
5   -0.13257 
6   -0.281987 
7   -0.240059 
8   -0.178638 
9   0.128528 
10   0.097644 
11   0.35498 
12   0.317567 
13   -0.388748 
14   -0.512557 
15   -0.523476 
16   0.148249 
17   0.148758 
18   0.116212 
19   0.168651 
20   0.153895 
21   0.149559 
22   0.160825 
23   0.135623 
24   0.155788 
25   0.159631 
26   0.136417 
27   0.113013 
28   0.1348 
29   0.123936 
30   0.126531 
31   0.150068 
32   0.120095 
 
>  <lowdin_charges> 
32 
1   -0.35576 
2   -0.276694 
3   -0.276859 
4   -0.277232 
5   -0.196309 
6   -0.218426 
7   -0.177671 
8   -0.197034 
9   -0.011874 
10   -0.029481 
11   0.078254 
12   0.06872 
13   -0.183527 
14   -0.197702 
15   -0.225171 
16   0.149958 
17   0.151033 
18   0.119688 
19   0.160555 
20   0.146758 
21   0.144251 
22   0.149647 
23   0.13742 
24   0.153942 
25   0.156706 
26   0.149674 
27   0.11469 
28   0.146069 
29   0.158988 
30   0.162696 
31   0.152535 
32   0.122157 
 
$$$$ 
 
