PCCDB-ID:  44664 
public computational chemistry database (PCCDB) project, http://pccdb.org 
 
 34 36  0  0  0  0  0  0  0  0999 V2000 
    3.5992    0.1276   -1.0378 C   0  0  0  0  0  0  0  0  0  0  0  0 
    2.5436   -0.0113    0.0665 C   0  0  0  0  0  0  0  0  0  0  0  0 
    3.6172    4.0763    3.2080 C   0  0  0  0  0  0  0  0  0  0  0  0 
    2.4382    3.9996    2.2249 C   0  0  0  0  0  0  0  0  0  0  0  0 
    4.5393   -1.7985    4.6447 C   0  0  0  0  0  0  0  0  0  0  0  0 
    3.7153    2.8028    4.0691 C   0  0  0  0  0  0  0  0  0  0  0  0 
    4.3681   -0.4241    4.6670 C   0  0  0  0  0  0  0  0  0  0  0  0 
    4.2491   -2.5436    3.4867 C   0  0  0  0  0  0  0  0  0  0  0  0 
    2.6017    2.8425    1.2178 C   0  0  0  0  0  0  0  0  0  0  0  0 
    3.5624    1.5772    3.2127 C   0  0  0  0  0  0  0  0  0  0  0  0 
    3.8716    0.2091    3.5128 C   0  0  0  0  0  0  0  0  0  0  0  0 
    3.7561   -1.9509    2.3233 C   0  0  0  0  0  0  0  0  0  0  0  0 
    3.0617    1.6076    1.9347 C   0  0  0  0  0  0  0  0  0  0  0  0 
    3.5480   -0.5546    2.3559 C   0  0  0  0  0  0  0  0  0  0  0  0 
    3.4312   -2.7371    1.1831 N   0  0  0  0  0  0  0  0  0  0  0  0 
    3.0417    0.3235    1.3968 N   0  0  0  0  0  0  0  0  0  0  0  0 
    3.1733   -0.1502   -2.0091 H   0  0  0  0  0  0  0  0  0  0  0  0 
    4.4649   -0.5176   -0.8460 H   0  0  0  0  0  0  0  0  0  0  0  0 
    3.9677    1.1565   -1.1079 H   0  0  0  0  0  0  0  0  0  0  0  0 
    2.1537   -1.0297    0.1034 H   0  0  0  0  0  0  0  0  0  0  0  0 
    1.6959    0.6461   -0.1517 H   0  0  0  0  0  0  0  0  0  0  0  0 
    3.5138    4.9588    3.8511 H   0  0  0  0  0  0  0  0  0  0  0  0 
    4.5499    4.2048    2.6409 H   0  0  0  0  0  0  0  0  0  0  0  0 
    2.3310    4.9449    1.6794 H   0  0  0  0  0  0  0  0  0  0  0  0 
    1.5082    3.8530    2.7910 H   0  0  0  0  0  0  0  0  0  0  0  0 
    4.9188   -2.3158    5.5220 H   0  0  0  0  0  0  0  0  0  0  0  0 
    2.9393    2.8275    4.8505 H   0  0  0  0  0  0  0  0  0  0  0  0 
    4.6753    2.7858    4.6032 H   0  0  0  0  0  0  0  0  0  0  0  0 
    4.6060    0.1549    5.5551 H   0  0  0  0  0  0  0  0  0  0  0  0 
    4.4199   -3.6187    3.4864 H   0  0  0  0  0  0  0  0  0  0  0  0 
    3.3252    3.1298    0.4382 H   0  0  0  0  0  0  0  0  0  0  0  0 
    1.6495    2.6746    0.6957 H   0  0  0  0  0  0  0  0  0  0  0  0 
    3.6739   -3.7116    1.3388 H   0  0  0  0  0  0  0  0  0  0  0  0 
    3.9138   -2.4251    0.3440 H   0  0  0  0  0  0  0  0  0  0  0  0 
  1 18  1  0  0  0  0 
  1  2  1  0  0  0  0 
  2 20  1  0  0  0  0 
  2 16  1  0  0  0  0 
  3 22  1  0  0  0  0 
  3  6  1  0  0  0  0 
  4 25  1  0  0  0  0 
  4  3  1  0  0  0  0 
  5  7  1  0  0  0  0 
  5 26  1  0  0  0  0 
  6 28  1  0  0  0  0 
  6 27  1  0  0  0  0 
  7 29  1  0  0  0  0 
  8  5  2  0  0  0  0 
  9 13  1  0  0  0  0 
  9  4  1  0  0  0  0 
 10 11  1  0  0  0  0 
 10  6  1  0  0  0  0 
 11  7  2  0  0  0  0 
 12 14  2  0  0  0  0 
 12  8  1  0  0  0  0 
 13 10  2  0  0  0  0 
 14 11  1  0  0  0  0 
 15 33  1  0  0  0  0 
 15 12  1  0  0  0  0 
 16 13  1  0  0  0  0 
 16 14  1  0  0  0  0 
 17  1  1  0  0  0  0 
 19  1  1  0  0  0  0 
 21  2  1  0  0  0  0 
 23  3  1  0  0  0  0 
 24  4  1  0  0  0  0 
 30  8  1  0  0  0  0 
 31  9  1  0  0  0  0 
 32  9  1  0  0  0  0 
 34 15  1  0  0  0  0 
M  END 
>  <HBA> 
2 
 
>  <HBD> 
1 
 
>  <TPSA> 
30.95 
 
>  <cid> 
44664 
 
>  <dipole> 
2.73 
 
>  <excitation_energy_1> 
4.06 
 
>  <excitation_energy_2> 
4.421 
 
>  <excitation_energy_3> 
4.492 
 
>  <excitation_energy_4> 
4.601 
 
>  <homo_energy> 
-4.686 
 
>  <homo_lumo_gap> 
5.037 
 
>  <logP> 
3.703 
 
>  <lumo_energy> 
0.351 
 
>  <melting_point> 
131.24 
 
>  <molecular_refractivity> 
69.84 
 
>  <oscillator_strength_1> 
0.0337 
 
>  <oscillator_strength_2> 
0.0428 
 
>  <oscillator_strength_3> 
0.0525 
 
>  <oscillator_strength_4> 
0.0004 
 
>  <open_babel_can_smiles> 
CCn1c2c(N)cccc2c2c1CCCC2 
 
>  <mulliken_charges> 
34 
1   -0.448163 
2   -0.173858 
3   -0.266516 
4   -0.265341 
5   -0.144602 
6   -0.334403 
7   -0.213142 
8   -0.205106 
9   -0.345811 
10   0.032493 
11   0.056516 
12   0.262803 
13   0.291968 
14   0.272698 
15   -0.8021 
16   -0.596312 
17   0.148906 
18   0.147876 
19   0.159612 
20   0.195125 
21   0.153535 
22   0.130611 
23   0.135887 
24   0.131441 
25   0.142238 
26   0.113374 
27   0.14076 
28   0.140212 
29   0.113185 
30   0.101386 
31   0.147997 
32   0.145427 
33   0.315126 
34   0.316178 
 
>  <lowdin_charges> 
34 
1   -0.45322 
2   -0.201662 
3   -0.274127 
4   -0.271497 
5   -0.171049 
6   -0.269681 
7   -0.186639 
8   -0.212189 
9   -0.279274 
10   -0.080626 
11   -0.027114 
12   0.025199 
13   0.006242 
14   0.00613 
15   -0.507397 
16   -0.037107 
17   0.154574 
18   0.148438 
19   0.154816 
20   0.171354 
21   0.153459 
22   0.144335 
23   0.141243 
24   0.144465 
25   0.144556 
26   0.15239 
27   0.145013 
28   0.148392 
29   0.153231 
30   0.144612 
31   0.148372 
32   0.150047 
33   0.267314 
34   0.267402 
 
$$$$ 
 
