PCCDB-ID:  21083 
public computational chemistry database (PCCDB) project, http://pccdb.org 
 
 20 20  0  0  0  0  0  0  0  0999 V2000 
    1.0497    0.0287    0.0026 C   0  0  0  0  0  0  0  0  0  0  0  0 
    6.3395   -0.1464    1.2906 C   0  0  0  0  0  0  0  0  0  0  0  0 
    3.2410    1.2366    0.0729 C   0  0  0  0  0  0  0  0  0  0  0  0 
    3.1699   -1.3016    0.0192 C   0  0  0  0  0  0  0  0  0  0  0  0 
    4.2192    1.1837    1.2742 C   0  0  0  0  0  0  0  0  0  0  0  0 
    4.1485   -1.3546    1.2202 C   0  0  0  0  0  0  0  0  0  0  0  0 
    2.3851   -0.0088    0.0141 C   0  0  0  0  0  0  0  0  0  0  0  0 
    5.0041   -0.1091    1.2793 C   0  0  0  0  0  0  0  0  0  0  0  0 
    0.5034    0.9691    0.0124 H   0  0  0  0  0  0  0  0  0  0  0  0 
    0.4521   -0.8797   -0.0249 H   0  0  0  0  0  0  0  0  0  0  0  0 
    6.9370    0.7620    1.3201 H   0  0  0  0  0  0  0  0  0  0  0  0 
    6.8860   -1.0867    1.2790 H   0  0  0  0  0  0  0  0  0  0  0  0 
    3.8360    1.3134   -0.8497 H   0  0  0  0  0  0  0  0  0  0  0  0 
    2.6157    2.1347    0.1316 H   0  0  0  0  0  0  0  0  0  0  0  0 
    2.4955   -2.1652    0.0400 H   0  0  0  0  0  0  0  0  0  0  0  0 
    3.7608   -1.3717   -0.9066 H   0  0  0  0  0  0  0  0  0  0  0  0 
    3.6283    1.2545    2.1999 H   0  0  0  0  0  0  0  0  0  0  0  0 
    4.8939    2.0470    1.2528 H   0  0  0  0  0  0  0  0  0  0  0  0 
    4.7735   -2.2529    1.1618 H   0  0  0  0  0  0  0  0  0  0  0  0 
    3.5535   -1.4310    2.1429 H   0  0  0  0  0  0  0  0  0  0  0  0 
  1  9  1  0  0  0  0 
  1  7  2  0  0  0  0 
  2 11  1  0  0  0  0 
  3 14  1  0  0  0  0 
  3  5  1  0  0  0  0 
  4 15  1  0  0  0  0 
  4  6  1  0  0  0  0 
  5  8  1  0  0  0  0 
  5 17  1  0  0  0  0 
  6  8  1  0  0  0  0 
  6 20  1  0  0  0  0 
  7  4  1  0  0  0  0 
  7  3  1  0  0  0  0 
  8  2  2  0  0  0  0 
 10  1  1  0  0  0  0 
 12  2  1  0  0  0  0 
 13  3  1  0  0  0  0 
 16  4  1  0  0  0  0 
 18  5  1  0  0  0  0 
 19  6  1  0  0  0  0 
M  END 
>  <HBA> 
0 
 
>  <HBD> 
0 
 
>  <TPSA> 
0.0 
 
>  <cid> 
21083 
 
>  <dipole> 
0.0 
 
>  <excitation_energy_1> 
5.824 
 
>  <excitation_energy_2> 
5.848 
 
>  <excitation_energy_3> 
6.312 
 
>  <excitation_energy_4> 
6.355 
 
>  <homo_energy> 
-6.37 
 
>  <homo_lumo_gap> 
6.814 
 
>  <logP> 
2.673 
 
>  <lumo_energy> 
0.444 
 
>  <melting_point> 
-39.67 
 
>  <molecular_refractivity> 
37.51 
 
>  <oscillator_strength_1> 
0.2173 
 
>  <oscillator_strength_2> 
0.0 
 
>  <oscillator_strength_3> 
0.132 
 
>  <oscillator_strength_4> 
0.0 
 
>  <open_babel_can_smiles> 
C=C1CCC(=C)CC1 
 
>  <mulliken_charges> 
20 
1   -0.414484 
2   -0.414492 
3   -0.325439 
4   -0.325262 
5   -0.325336 
6   -0.32547 
7   0.23207 
8   0.2321 
9   0.131534 
10   0.131534 
11   0.131534 
12   0.131535 
13   0.146109 
14   0.138969 
15   0.138908 
16   0.146102 
17   0.146097 
18   0.138911 
19   0.138967 
20   0.146113 
 
>  <lowdin_charges> 
20 
1   -0.36455 
2   -0.364555 
3   -0.272623 
4   -0.272754 
5   -0.272758 
6   -0.272634 
7   0.001938 
8   0.00194 
9   0.153898 
10   0.154136 
11   0.154134 
12   0.153899 
13   0.149957 
14   0.14997 
15   0.150113 
16   0.149926 
17   0.149922 
18   0.150115 
19   0.149968 
20   0.149958 
 
$$$$ 
 
