PCCDB-ID:  16913 
public computational chemistry database (PCCDB) project, http://pccdb.org 
 
 32 33  0  0  1  0  0  0  0  0999 V2000 
    0.9101   -0.1452    0.0709 C   0  0  0  0  0  0  0  0  0  0  0  0 
    2.8728   -0.1561    1.5517 C   0  0  0  0  0  0  0  0  0  0  0  0 
    2.7605    2.4912   -0.3814 C   0  0  0  0  0  0  0  0  0  0  0  0 
    5.4219    1.2689   -1.9845 C   0  0  0  0  0  0  0  0  0  0  0  0 
    2.5913   -0.8723   -2.2359 C   0  0  0  0  0  0  0  0  0  0  0  0 
    2.5274    0.6854   -2.2076 C   0  0  0  0  0  0  0  0  0  0  0  0 
    4.6010   -0.8567   -0.7690 C   0  0  0  0  0  0  0  0  0  0  0  0 
    3.1003   -1.2192   -0.8137 C   0  0  1  0  0  0  0  0  0  0  0  0 
    2.4534   -0.1097    0.0691 C   0  0  0  0  0  0  0  0  0  0  0  0 
    3.0762    1.0607   -0.8012 C   0  0  2  0  0  0  0  0  0  0  0  0 
    4.6124    0.7117   -0.8048 C   0  0  2  0  0  0  0  0  0  0  0  0 
    5.1784    1.2773    0.3933 O   0  0  0  0  0  0  0  0  0  0  0  0 
    0.5621   -1.0365    0.6075 H   0  0  0  0  0  0  0  0  0  0  0  0 
    0.4557   -0.1678   -0.9215 H   0  0  0  0  0  0  0  0  0  0  0  0 
    0.5051    0.7257    0.6002 H   0  0  0  0  0  0  0  0  0  0  0  0 
    2.5074   -1.0848    2.0094 H   0  0  0  0  0  0  0  0  0  0  0  0 
    2.4156    0.6761    2.1009 H   0  0  0  0  0  0  0  0  0  0  0  0 
    3.9472   -0.0865    1.7066 H   0  0  0  0  0  0  0  0  0  0  0  0 
    1.6772    2.6609   -0.3670 H   0  0  0  0  0  0  0  0  0  0  0  0 
    3.1928    3.2155   -1.0831 H   0  0  0  0  0  0  0  0  0  0  0  0 
    3.1613    2.7152    0.6106 H   0  0  0  0  0  0  0  0  0  0  0  0 
    5.1484    0.8196   -2.9431 H   0  0  0  0  0  0  0  0  0  0  0  0 
    6.4870    1.0499   -1.8262 H   0  0  0  0  0  0  0  0  0  0  0  0 
    5.3144    2.3563   -2.0602 H   0  0  0  0  0  0  0  0  0  0  0  0 
    3.2717   -1.2510   -3.0074 H   0  0  0  0  0  0  0  0  0  0  0  0 
    1.6102   -1.3146   -2.4359 H   0  0  0  0  0  0  0  0  0  0  0  0 
    1.4990    1.0458   -2.3079 H   0  0  0  0  0  0  0  0  0  0  0  0 
    3.0901    1.1545   -3.0181 H   0  0  0  0  0  0  0  0  0  0  0  0 
    5.1515   -1.2965   -1.6093 H   0  0  0  0  0  0  0  0  0  0  0  0 
    5.0772   -1.2078    0.1521 H   0  0  0  0  0  0  0  0  0  0  0  0 
    2.8863   -2.2484   -0.5050 H   0  0  0  0  0  0  0  0  0  0  0  0 
    6.1210    1.0463    0.3989 H   0  0  0  0  0  0  0  0  0  0  0  0 
  1 15  1  0  0  0  0 
  1 13  1  0  0  0  0 
  2 18  1  0  0  0  0 
  2 16  1  0  0  0  0 
  2 17  1  0  0  0  0 
  3 19  1  0  0  0  0 
  3 21  1  0  0  0  0 
  4 23  1  0  0  0  0 
  4 11  1  0  0  0  0 
  5  6  1  0  0  0  0 
  5  8  1  0  0  0  0 
  6 10  1  0  0  0  0 
  7 30  1  0  0  0  0 
  8  7  1  0  0  0  0 
  8 31  1  1  0  0  0 
  8  9  1  0  0  0  0 
  9  1  1  0  0  0  0 
  9  2  1  0  0  0  0 
 10  3  1  1  0  0  0 
 10  9  1  0  0  0  0 
 11 10  1  0  0  0  0 
 11  7  1  0  0  0  0 
 11 12  1  1  0  0  0 
 12 32  1  0  0  0  0 
 14  1  1  0  0  0  0 
 20  3  1  0  0  0  0 
 22  4  1  0  0  0  0 
 24  4  1  0  0  0  0 
 25  5  1  0  0  0  0 
 26  5  1  0  0  0  0 
 27  6  1  0  0  0  0 
 28  6  1  0  0  0  0 
 29  7  1  0  0  0  0 
M  END 
>  <HBA> 
1 
 
>  <HBD> 
1 
 
>  <TPSA> 
20.23 
 
>  <cid> 
16913 
 
>  <dipole> 
1.43 
 
>  <excitation_energy_1> 
6.263 
 
>  <excitation_energy_2> 
6.851 
 
>  <excitation_energy_3> 
6.892 
 
>  <excitation_energy_4> 
7.036 
 
>  <homo_energy> 
-6.936 
 
>  <homo_lumo_gap> 
8.795 
 
>  <logP> 
2.584 
 
>  <lumo_energy> 
1.859 
 
>  <melting_point> 
82.29 
 
>  <molecular_refractivity> 
51.44 
 
>  <oscillator_strength_1> 
0.0148 
 
>  <oscillator_strength_2> 
0.014 
 
>  <oscillator_strength_3> 
0.0022 
 
>  <oscillator_strength_4> 
0.0 
 
>  <open_babel_can_smiles> 
C[C@@]12CC[C@H](C2(C)C)C[C@]1(C)O 
 
>  <mulliken_charges> 
32 
1   -0.467364 
2   -0.463436 
3   -0.478916 
4   -0.480481 
5   -0.281351 
6   -0.298018 
7   -0.311666 
8   -0.097272 
9   0.093414 
10   0.079147 
11   0.336829 
12   -0.649122 
13   0.138939 
14   0.141875 
15   0.142727 
16   0.125805 
17   0.136788 
18   0.168702 
19   0.134905 
20   0.136207 
21   0.168864 
22   0.147582 
23   0.126077 
24   0.156591 
25   0.127145 
26   0.137251 
27   0.138685 
28   0.135028 
29   0.128448 
30   0.136576 
31   0.108059 
32   0.381982 
 
>  <lowdin_charges> 
32 
1   -0.448612 
2   -0.452507 
3   -0.444149 
4   -0.454212 
5   -0.288947 
6   -0.289168 
7   -0.302966 
8   -0.130764 
9   0.005864 
10   -0.000282 
11   0.118983 
12   -0.454477 
13   0.149551 
14   0.148576 
15   0.149912 
16   0.141723 
17   0.148787 
18   0.159977 
19   0.144911 
20   0.148956 
21   0.161866 
22   0.151938 
23   0.141696 
24   0.153461 
25   0.14134 
26   0.144364 
27   0.144686 
28   0.146287 
29   0.142315 
30   0.148944 
31   0.13635 
32   0.335599 
 
$$$$ 
 
