PCCDB-ID:  68381 
public computational chemistry database (PCCDB) project, http://pccdb.org 
 
 26 26  0  0  0  0  0  0  0  0999 V2000 
    2.9195    0.3188    1.4827 C   0  0  0  0  0  0  0  0  0  0  0  0 
    0.9683   -0.2822   -0.0052 C   0  0  0  0  0  0  0  0  0  0  0  0 
    3.0823    0.6106   -1.0561 C   0  0  0  0  0  0  0  0  0  0  0  0 
    4.6245    0.5947   -1.1444 C   0  0  0  0  0  0  0  0  0  0  0  0 
    4.9017   -0.6602   -4.0289 C   0  0  0  0  0  0  0  0  0  0  0  0 
    5.1168   -0.7460   -5.3661 C   0  0  0  0  0  0  0  0  0  0  0  0 
    5.5315    1.3344   -4.8284 C   0  0  0  0  0  0  0  0  0  0  0  0 
    2.4993   -0.2178    0.1064 C   0  0  0  0  0  0  0  0  0  0  0  0 
    5.1728    0.7096   -3.6623 C   0  0  0  0  0  0  0  0  0  0  0  0 
    5.1089    1.3896   -2.3486 C   0  0  0  0  0  0  0  0  0  0  0  0 
    5.4034    2.5733   -2.2453 O   0  0  0  0  0  0  0  0  0  0  0  0 
    5.5038    0.4702   -5.8666 O   0  0  0  0  0  0  0  0  0  0  0  0 
    2.4757   -0.2807    2.2862 H   0  0  0  0  0  0  0  0  0  0  0  0 
    2.5824    1.3550    1.6165 H   0  0  0  0  0  0  0  0  0  0  0  0 
    4.0059    0.3009    1.6211 H   0  0  0  0  0  0  0  0  0  0  0  0 
    0.5390   -0.8991    0.7929 H   0  0  0  0  0  0  0  0  0  0  0  0 
    0.6538   -0.7075   -0.9657 H   0  0  0  0  0  0  0  0  0  0  0  0 
    0.5268    0.7195    0.0761 H   0  0  0  0  0  0  0  0  0  0  0  0 
    2.6661    0.2323   -2.0000 H   0  0  0  0  0  0  0  0  0  0  0  0 
    2.7476    1.6534   -0.9668 H   0  0  0  0  0  0  0  0  0  0  0  0 
    4.9799   -0.4427   -1.1973 H   0  0  0  0  0  0  0  0  0  0  0  0 
    5.0625    1.0620   -0.2583 H   0  0  0  0  0  0  0  0  0  0  0  0 
    4.5890   -1.4658   -3.3799 H   0  0  0  0  0  0  0  0  0  0  0  0 
    5.0518   -1.5464   -6.0869 H   0  0  0  0  0  0  0  0  0  0  0  0 
    5.8209    2.3505   -5.0465 H   0  0  0  0  0  0  0  0  0  0  0  0 
    2.8861   -1.2448    0.0100 H   0  0  0  0  0  0  0  0  0  0  0  0 
  1 14  1  0  0  0  0 
  1 15  1  0  0  0  0 
  1 13  1  0  0  0  0 
  2 18  1  0  0  0  0 
  2  8  1  0  0  0  0 
  2 16  1  0  0  0  0 
  3 20  1  0  0  0  0 
  3  8  1  0  0  0  0 
  4  3  1  0  0  0  0 
  4 22  1  0  0  0  0 
  5  9  1  0  0  0  0 
  5 23  1  0  0  0  0 
  6  5  2  0  0  0  0 
  7  9  2  0  0  0  0 
  8  1  1  0  0  0  0 
  9 10  1  0  0  0  0 
 10 11  2  0  0  0  0 
 10  4  1  0  0  0  0 
 12  6  1  0  0  0  0 
 12  7  1  0  0  0  0 
 17  2  1  0  0  0  0 
 19  3  1  0  0  0  0 
 21  4  1  0  0  0  0 
 24  6  1  0  0  0  0 
 25  7  1  0  0  0  0 
 26  8  1  0  0  0  0 
M  END 
>  <HBA> 
2 
 
>  <HBD> 
0 
 
>  <TPSA> 
30.21 
 
>  <cid> 
68381 
 
>  <dipole> 
3.06 
 
>  <excitation_energy_1> 
3.847 
 
>  <excitation_energy_2> 
4.81 
 
>  <excitation_energy_3> 
5.879 
 
>  <excitation_energy_4> 
5.95 
 
>  <homo_energy> 
-6.534 
 
>  <homo_lumo_gap> 
5.41 
 
>  <logP> 
2.898 
 
>  <lumo_energy> 
-1.124 
 
>  <melting_point> 
34.78 
 
>  <molecular_refractivity> 
48.13 
 
>  <oscillator_strength_1> 
0.0008 
 
>  <oscillator_strength_2> 
0.0601 
 
>  <oscillator_strength_3> 
0.0808 
 
>  <oscillator_strength_4> 
0.0019 
 
>  <open_babel_can_smiles> 
CC(CCC(=O)c1cocc1)C 
 
>  <mulliken_charges> 
26 
1   -0.446236 
2   -0.44333 
3   -0.262141 
4   -0.350001 
5   -0.212626 
6   0.073122 
7   0.0841 
8   -0.064285 
9   0.017095 
10   0.395675 
11   -0.47366 
12   -0.389385 
13   0.142398 
14   0.144214 
15   0.146833 
16   0.142133 
17   0.140034 
18   0.143195 
19   0.136759 
20   0.149781 
21   0.137564 
22   0.167409 
23   0.150548 
24   0.166114 
25   0.186243 
26   0.118447 
 
>  <lowdin_charges> 
26 
1   -0.444995 
2   -0.444667 
3   -0.269746 
4   -0.303307 
5   -0.206072 
6   -0.079912 
7   -0.037564 
8   -0.117975 
9   -0.091634 
10   0.160007 
11   -0.254299 
12   -0.076715 
13   0.150915 
14   0.147435 
15   0.147716 
16   0.150359 
17   0.147435 
18   0.147352 
19   0.143996 
20   0.148554 
21   0.147457 
22   0.165986 
23   0.174687 
24   0.176504 
25   0.186458 
26   0.132024 
 
$$$$ 
 
