PCCDB-ID:  44862 
public computational chemistry database (PCCDB) project, http://pccdb.org 
 
 27 26  0  0  1  0  0  0  0  0999 V2000 
    0.8308    0.2722   -0.9932 C   0  0  0  0  0  0  0  0  0  0  0  0 
    2.6715    1.6745    0.0032 C   0  0  0  0  0  0  0  0  0  0  0  0 
    3.5693   -0.0499    2.8397 C   0  0  0  0  0  0  0  0  0  0  0  0 
    3.7643   -2.2392    1.8699 C   0  0  0  0  0  0  0  0  0  0  0  0 
    2.9466   -1.7477   -1.7220 C   0  0  0  0  0  0  0  0  0  0  0  0 
    2.1606   -0.6493    0.9303 C   0  0  0  0  0  0  0  0  0  0  0  0 
    3.2726   -0.3568   -1.3184 C   0  0  2  0  0  0  0  0  0  0  0  0 
    2.2241    0.2418   -0.3404 C   0  0  0  0  0  0  0  0  0  0  0  0 
    2.7310   -2.8364   -2.0649 N   0  0  0  0  0  0  0  0  0  0  0  0 
    3.4489   -0.8350    1.6159 N   0  0  0  0  0  0  0  0  0  0  0  0 
    3.3550    0.4730   -2.4714 O   0  0  0  0  0  0  0  0  0  0  0  0 
    0.1010    0.7209   -0.3093 H   0  0  0  0  0  0  0  0  0  0  0  0 
    0.4809   -0.7358   -1.2450 H   0  0  0  0  0  0  0  0  0  0  0  0 
    0.8471    0.8652   -1.9118 H   0  0  0  0  0  0  0  0  0  0  0  0 
    1.9788    2.1227    0.7252 H   0  0  0  0  0  0  0  0  0  0  0  0 
    2.6849    2.3012   -0.8919 H   0  0  0  0  0  0  0  0  0  0  0  0 
    3.6763    1.6839    0.4386 H   0  0  0  0  0  0  0  0  0  0  0  0 
    4.5884   -0.1362    3.2332 H   0  0  0  0  0  0  0  0  0  0  0  0 
    2.8693   -0.3792    3.6325 H   0  0  0  0  0  0  0  0  0  0  0  0 
    3.3766    1.0065    2.6366 H   0  0  0  0  0  0  0  0  0  0  0  0 
    4.7806   -2.3172    2.2722 H   0  0  0  0  0  0  0  0  0  0  0  0 
    3.7251   -2.8088    0.9368 H   0  0  0  0  0  0  0  0  0  0  0  0 
    3.0765   -2.7163    2.5943 H   0  0  0  0  0  0  0  0  0  0  0  0 
    1.7670   -1.6308    0.6400 H   0  0  0  0  0  0  0  0  0  0  0  0 
    1.4116   -0.2122    1.6104 H   0  0  0  0  0  0  0  0  0  0  0  0 
    4.2296   -0.3951   -0.7793 H   0  0  0  0  0  0  0  0  0  0  0  0 
    4.0822    0.1504   -3.0264 H   0  0  0  0  0  0  0  0  0  0  0  0 
  1  8  1  0  0  0  0 
  1 12  1  0  0  0  0 
  2 17  1  0  0  0  0 
  2 15  1  0  0  0  0 
  3 18  1  0  0  0  0 
  3 19  1  0  0  0  0 
  4 21  1  0  0  0  0 
  4 23  1  0  0  0  0 
  5  7  1  0  0  0  0 
  6 25  1  0  0  0  0 
  6 10  1  0  0  0  0 
  7 26  1  1  0  0  0 
  7  8  1  0  0  0  0 
  8  2  1  0  0  0  0 
  8  6  1  0  0  0  0 
  9  5  3  0  0  0  0 
 10  4  1  0  0  0  0 
 10  3  1  0  0  0  0 
 11  7  1  0  0  0  0 
 13  1  1  0  0  0  0 
 14  1  1  0  0  0  0 
 16  2  1  0  0  0  0 
 20  3  1  0  0  0  0 
 22  4  1  0  0  0  0 
 24  6  1  0  0  0  0 
 27 11  1  0  0  0  0 
M  END 
>  <HBA> 
3 
 
>  <HBD> 
1 
 
>  <TPSA> 
47.26 
 
>  <cid> 
44862 
 
>  <dipole> 
3.04 
 
>  <excitation_energy_1> 
4.955 
 
>  <excitation_energy_2> 
5.421 
 
>  <excitation_energy_3> 
5.691 
 
>  <excitation_energy_4> 
5.9 
 
>  <homo_energy> 
-5.899 
 
>  <homo_lumo_gap> 
6.291 
 
>  <logP> 
0.459 
 
>  <lumo_energy> 
0.392 
 
>  <melting_point> 
45.95 
 
>  <molecular_refractivity> 
44.12 
 
>  <oscillator_strength_1> 
0.0005 
 
>  <oscillator_strength_2> 
0.0284 
 
>  <oscillator_strength_3> 
0.0485 
 
>  <oscillator_strength_4> 
0.0088 
 
>  <open_babel_can_smiles> 
O[C@@H](C(CN(C)C)(C)C)C#N 
 
>  <mulliken_charges> 
27 
1   -0.467668 
2   -0.460565 
3   -0.303544 
4   -0.313406 
5   0.34275 
6   -0.155455 
7   0.096425 
8   0.073421 
9   -0.499127 
10   -0.377758 
11   -0.615383 
12   0.143336 
13   0.158548 
14   0.171013 
15   0.140046 
16   0.169981 
17   0.152947 
18   0.149912 
19   0.122376 
20   0.155061 
21   0.148183 
22   0.168225 
23   0.124649 
24   0.155213 
25   0.131364 
26   0.18293 
27   0.406527 
 
>  <lowdin_charges> 
27 
1   -0.449065 
2   -0.447513 
3   -0.357398 
4   -0.361053 
5   -0.035513 
6   -0.206974 
7   -0.00562 
8   0.005199 
9   -0.128137 
10   -0.192366 
11   -0.438451 
12   0.152702 
13   0.156346 
14   0.164527 
15   0.150206 
16   0.163864 
17   0.153684 
18   0.149358 
19   0.123609 
20   0.150678 
21   0.148354 
22   0.158108 
23   0.125555 
24   0.154103 
25   0.140966 
26   0.168258 
27   0.356573 
 
$$$$ 
 
