PCCDB-ID:  26725 
public computational chemistry database (PCCDB) project, http://pccdb.org 
 
 27 26  0  0  0  0  0  0  0  0999 V2000 
    1.2164   -0.0457   -0.2243 C   0  0  0  0  0  0  0  0  0  0  0  0 
    2.7507   -2.0061   -0.3293 C   0  0  0  0  0  0  0  0  0  0  0  0 
    2.9727   -0.1334   -2.0037 C   0  0  0  0  0  0  0  0  0  0  0  0 
    5.6468    1.0852    1.6356 C   0  0  0  0  0  0  0  0  0  0  0  0 
    5.8377   -0.9650    0.1924 C   0  0  0  0  0  0  0  0  0  0  0  0 
    5.8100    1.9360   -1.6358 C   0  0  0  0  0  0  0  0  0  0  0  0 
    3.5661    0.3008    0.4758 C   0  0  0  0  0  0  0  0  0  0  0  0 
    2.6686   -0.4781   -0.5333 C   0  0  0  0  0  0  0  0  0  0  0  0 
    5.1181    0.3854    0.3627 C   0  0  0  0  0  0  0  0  0  0  0  0 
    5.4791    1.2275   -0.7550 N   0  0  0  0  0  0  0  0  0  0  0  0 
    0.5087   -0.5803   -0.8689 H   0  0  0  0  0  0  0  0  0  0  0  0 
    1.0760    1.0288   -0.3922 H   0  0  0  0  0  0  0  0  0  0  0  0 
    0.9470   -0.2612    0.8174 H   0  0  0  0  0  0  0  0  0  0  0  0 
    1.9913   -2.5075   -0.9413 H   0  0  0  0  0  0  0  0  0  0  0  0 
    2.5625   -2.2784    0.7170 H   0  0  0  0  0  0  0  0  0  0  0  0 
    3.7210   -2.4206   -0.6149 H   0  0  0  0  0  0  0  0  0  0  0  0 
    2.2420   -0.6229   -2.6593 H   0  0  0  0  0  0  0  0  0  0  0  0 
    3.9683   -0.4651   -2.3136 H   0  0  0  0  0  0  0  0  0  0  0  0 
    2.9165    0.9453   -2.1843 H   0  0  0  0  0  0  0  0  0  0  0  0 
    5.4559    0.4578    2.5125 H   0  0  0  0  0  0  0  0  0  0  0  0 
    5.1537    2.0510    1.7836 H   0  0  0  0  0  0  0  0  0  0  0  0 
    6.7248    1.2564    1.5570 H   0  0  0  0  0  0  0  0  0  0  0  0 
    5.5358   -1.6545    0.9869 H   0  0  0  0  0  0  0  0  0  0  0  0 
    6.9210   -0.8187    0.2534 H   0  0  0  0  0  0  0  0  0  0  0  0 
    5.6141   -1.4219   -0.7734 H   0  0  0  0  0  0  0  0  0  0  0  0 
    3.3576   -0.1029    1.4762 H   0  0  0  0  0  0  0  0  0  0  0  0 
    3.2210    1.3424    0.4942 H   0  0  0  0  0  0  0  0  0  0  0  0 
  1 13  1  0  0  0  0 
  2 15  1  0  0  0  0 
  3  8  1  0  0  0  0 
  4 21  1  0  0  0  0 
  4 20  1  0  0  0  0 
  5 24  1  0  0  0  0 
  5  9  1  0  0  0  0 
  5 23  1  0  0  0  0 
  6 10  3  0  0  0  0 
  7 27  1  0  0  0  0 
  7 26  1  0  0  0  0 
  8  2  1  0  0  0  0 
  8  1  1  0  0  0  0 
  8  7  1  0  0  0  0 
  9  7  1  0  0  0  0 
  9  4  1  0  0  0  0 
 10  9  1  0  0  0  0 
 11  1  1  0  0  0  0 
 12  1  1  0  0  0  0 
 14  2  1  0  0  0  0 
 16  2  1  0  0  0  0 
 17  3  1  0  0  0  0 
 18  3  1  0  0  0  0 
 19  3  1  0  0  0  0 
 22  4  1  0  0  0  0 
 25  5  1  0  0  0  0 
M  RAD  1   6   2 
M  END 
>  <HBA> 
0 
 
>  <HBD> 
0 
 
>  <TPSA> 
0.0 
 
>  <cid> 
26725 
 
>  <dipole> 
3.65 
 
>  <excitation_energy_1> 
7.474 
 
>  <excitation_energy_2> 
7.543 
 
>  <excitation_energy_3> 
7.58 
 
>  <excitation_energy_4> 
7.685 
 
>  <homo_energy> 
-7.81 
 
>  <homo_lumo_gap> 
8.958 
 
>  <logP> 
2.351 
 
>  <lumo_energy> 
1.148 
 
>  <melting_point> 
47.33 
 
>  <molecular_refractivity> 
44.67 
 
>  <oscillator_strength_1> 
0.0227 
 
>  <oscillator_strength_2> 
0.0038 
 
>  <oscillator_strength_3> 
0.0294 
 
>  <oscillator_strength_4> 
0.0167 
 
>  <open_babel_can_smiles> 
CC(CC(C)(C)C)([N]#[C])C 
 
>  <mulliken_charges> 
27 
1   -0.444204 
2   -0.447901 
3   -0.447206 
4   -0.435366 
5   -0.442074 
6   -0.093441 
7   -0.253427 
8   0.093369 
9   0.137845 
10   -0.186279 
11   0.142401 
12   0.143754 
13   0.137523 
14   0.142306 
15   0.134701 
16   0.143873 
17   0.136366 
18   0.150033 
19   0.153349 
20   0.151067 
21   0.162052 
22   0.16217 
23   0.153261 
24   0.159007 
25   0.170545 
26   0.132502 
27   0.143774 
 
>  <lowdin_charges> 
27 
1   -0.439709 
2   -0.44733 
3   -0.444339 
4   -0.435815 
5   -0.439613 
6   -0.12968 
7   -0.274635 
8   0.015359 
9   0.075084 
10   -0.070417 
11   0.150459 
12   0.146876 
13   0.144779 
14   0.151053 
15   0.143533 
16   0.149505 
17   0.148561 
18   0.150491 
19   0.153167 
20   0.155971 
21   0.160099 
22   0.158948 
23   0.158543 
24   0.15804 
25   0.161591 
26   0.14731 
27   0.152169 
 
$$$$ 
 
