PCCDB-ID:  41011 
public computational chemistry database (PCCDB) project, http://pccdb.org 
 
 35 36  0  0  0  0  0  0  0  0999 V2000 
    1.0381   -0.3049    1.1863 C   0  0  0  0  0  0  0  0  0  0  0  0 
   12.2334    0.7182    3.5996 C   0  0  0  0  0  0  0  0  0  0  0  0 
    3.2384    0.9156    0.8587 C   0  0  0  0  0  0  0  0  0  0  0  0 
    3.2199   -1.4628    0.5957 C   0  0  0  0  0  0  0  0  0  0  0  0 
   11.7270    0.3638    1.1375 C   0  0  0  0  0  0  0  0  0  0  0  0 
    9.9995   -0.1109    2.7216 C   0  0  0  0  0  0  0  0  0  0  0  0 
    4.5931    0.9449    0.5427 C   0  0  0  0  0  0  0  0  0  0  0  0 
    4.5811   -1.4553    0.2938 C   0  0  0  0  0  0  0  0  0  0  0  0 
   10.8816   -0.0076    0.0980 C   0  0  0  0  0  0  0  0  0  0  0  0 
    9.1441   -0.5090    1.6935 C   0  0  0  0  0  0  0  0  0  0  0  0 
    2.5179   -0.2863    0.8817 C   0  0  0  0  0  0  0  0  0  0  0  0 
   11.3043    0.3277    2.4739 C   0  0  0  0  0  0  0  0  0  0  0  0 
    5.2845   -0.2416    0.2537 C   0  0  0  0  0  0  0  0  0  0  0  0 
    9.5734   -0.4514    0.3582 C   0  0  0  0  0  0  0  0  0  0  0  0 
    7.4018   -1.0130   -0.8443 C   0  0  0  0  0  0  0  0  0  0  0  0 
    6.9713   -1.8538   -1.7139 N   0  0  0  0  0  0  0  0  0  0  0  0 
    6.6660   -0.1800   -0.0010 N   0  0  0  0  0  0  0  0  0  0  0  0 
    8.7796   -0.8344   -0.7399 N   0  0  0  0  0  0  0  0  0  0  0  0 
    0.7830    0.4012    1.9848 H   0  0  0  0  0  0  0  0  0  0  0  0 
    0.7078   -1.3003    1.5010 H   0  0  0  0  0  0  0  0  0  0  0  0 
    0.4419   -0.0261    0.3069 H   0  0  0  0  0  0  0  0  0  0  0  0 
   12.8784    1.5575    3.3157 H   0  0  0  0  0  0  0  0  0  0  0  0 
   12.8928   -0.1129    3.8846 H   0  0  0  0  0  0  0  0  0  0  0  0 
   11.6758    1.0120    4.4951 H   0  0  0  0  0  0  0  0  0  0  0  0 
    2.7293    1.8503    1.0836 H   0  0  0  0  0  0  0  0  0  0  0  0 
    2.6966   -2.4160    0.6232 H   0  0  0  0  0  0  0  0  0  0  0  0 
   12.7344    0.7011    0.9029 H   0  0  0  0  0  0  0  0  0  0  0  0 
    9.6396   -0.1618    3.7470 H   0  0  0  0  0  0  0  0  0  0  0  0 
    5.1240    1.8942    0.5181 H   0  0  0  0  0  0  0  0  0  0  0  0 
    5.1026   -2.3895    0.1166 H   0  0  0  0  0  0  0  0  0  0  0  0 
   11.2264    0.0526   -0.9316 H   0  0  0  0  0  0  0  0  0  0  0  0 
    8.1527   -0.8765    1.9315 H   0  0  0  0  0  0  0  0  0  0  0  0 
    5.9612   -1.7748   -1.8266 H   0  0  0  0  0  0  0  0  0  0  0  0 
    7.1357    0.6642    0.2990 H   0  0  0  0  0  0  0  0  0  0  0  0 
    9.2607   -1.2719   -1.5148 H   0  0  0  0  0  0  0  0  0  0  0  0 
  1 20  1  0  0  0  0 
  1 19  1  0  0  0  0 
  2 23  1  0  0  0  0 
  2 24  1  0  0  0  0 
  3 11  1  0  0  0  0 
  3 25  1  0  0  0  0 
  4 26  1  0  0  0  0 
  4 11  2  0  0  0  0 
  5 12  2  0  0  0  0 
  6 28  1  0  0  0  0 
  7  3  2  0  0  0  0 
  8  4  1  0  0  0  0 
  9 14  2  0  0  0  0 
  9  5  1  0  0  0  0 
 10 32  1  0  0  0  0 
 10  6  2  0  0  0  0 
 11  1  1  0  0  0  0 
 12  6  1  0  0  0  0 
 12  2  1  0  0  0  0 
 13  8  2  0  0  0  0 
 13  7  1  0  0  0  0 
 14 10  1  0  0  0  0 
 15 18  1  0  0  0  0 
 15 17  1  0  0  0  0 
 16 15  2  0  0  0  0 
 17 13  1  0  0  0  0 
 17 34  1  0  0  0  0 
 18 14  1  0  0  0  0 
 21  1  1  0  0  0  0 
 22  2  1  0  0  0  0 
 27  5  1  0  0  0  0 
 29  7  1  0  0  0  0 
 30  8  1  0  0  0  0 
 31  9  1  0  0  0  0 
 33 16  1  0  0  0  0 
 35 18  1  0  0  0  0 
M  END 
>  <HBA> 
3 
 
>  <HBD> 
2 
 
>  <TPSA> 
50.41 
 
>  <cid> 
41011 
 
>  <dipole> 
2.7 
 
>  <excitation_energy_1> 
4.521 
 
>  <excitation_energy_2> 
4.534 
 
>  <excitation_energy_3> 
4.59 
 
>  <excitation_energy_4> 
4.714 
 
>  <homo_energy> 
-5.499 
 
>  <homo_lumo_gap> 
5.274 
 
>  <logP> 
4.135 
 
>  <lumo_energy> 
-0.226 
 
>  <melting_point> 
153.59 
 
>  <molecular_refractivity> 
77.12 
 
>  <oscillator_strength_1> 
0.0322 
 
>  <oscillator_strength_2> 
0.1953 
 
>  <oscillator_strength_3> 
0.2461 
 
>  <oscillator_strength_4> 
0.0531 
 
>  <open_babel_can_smiles> 
N=C(Nc1ccc(cc1)C)Nc1ccc(cc1)C 
 
>  <mulliken_charges> 
35 
1   -0.530475 
2   -0.530077 
3   -0.184167 
4   -0.194846 
5   -0.184742 
6   -0.19538 
7   -0.187837 
8   -0.17964 
9   -0.178199 
10   -0.174552 
11   0.180237 
12   0.179896 
13   0.348105 
14   0.325093 
15   0.623724 
16   -0.652327 
17   -0.724733 
18   -0.717559 
19   0.156938 
20   0.15576 
21   0.164401 
22   0.155936 
23   0.164489 
24   0.154874 
25   0.124508 
26   0.126602 
27   0.123861 
28   0.124339 
29   0.124888 
30   0.156358 
31   0.127041 
32   0.151962 
33   0.286513 
34   0.336725 
35   0.342281 
 
>  <lowdin_charges> 
35 
1   -0.442597 
2   -0.443046 
3   -0.156613 
4   -0.157765 
5   -0.155902 
6   -0.158405 
7   -0.188407 
8   -0.191978 
9   -0.184023 
10   -0.195575 
11   -0.012767 
12   -0.015679 
13   0.052773 
14   0.043687 
15   0.133294 
16   -0.470036 
17   -0.267782 
18   -0.26073 
19   0.158631 
20   0.156939 
21   0.161123 
22   0.158071 
23   0.161241 
24   0.157299 
25   0.156475 
26   0.156879 
27   0.154986 
28   0.154708 
29   0.155666 
30   0.170665 
31   0.156076 
32   0.167561 
33   0.254876 
34   0.291479 
35   0.298873 
 
$$$$ 
 
