PCCDB-ID:  11052 
public computational chemistry database (PCCDB) project, http://pccdb.org 
 
 28 28  0  0  0  0  0  0  0  0999 V2000 
    1.9515   -0.9751   -0.0556 C   0  0  0  0  0  0  0  0  0  0  0  0 
    3.5621    0.3017    1.4215 C   0  0  0  0  0  0  0  0  0  0  0  0 
    3.7433    4.1789   -3.8930 C   0  0  0  0  0  0  0  0  0  0  0  0 
    3.3910    1.8923   -2.9682 C   0  0  0  0  0  0  0  0  0  0  0  0 
    3.0657    0.9782   -1.9713 C   0  0  0  0  0  0  0  0  0  0  0  0 
    2.3783    0.4164    0.4353 C   0  0  0  0  0  0  0  0  0  0  0  0 
    3.3701    3.2714   -2.7437 C   0  0  0  0  0  0  0  0  0  0  0  0 
    2.6963    1.3963   -0.6929 C   0  0  0  0  0  0  0  0  0  0  0  0 
    2.9902    3.7390   -1.4579 C   0  0  0  0  0  0  0  0  0  0  0  0 
    2.6626    2.7845   -0.4696 C   0  0  0  0  0  0  0  0  0  0  0  0 
    2.9539    5.2290   -1.1965 C   0  0  0  0  0  0  0  0  0  0  0  0 
    2.3179    3.2655    0.7831 O   0  0  0  0  0  0  0  0  0  0  0  0 
    3.5069    6.0309   -1.9186 O   0  0  0  0  0  0  0  0  0  0  0  0 
    2.2481    5.6772   -0.1376 O   0  0  0  0  0  0  0  0  0  0  0  0 
    1.6204   -1.5836    0.7926 H   0  0  0  0  0  0  0  0  0  0  0  0 
    2.7842   -1.5062   -0.5301 H   0  0  0  0  0  0  0  0  0  0  0  0 
    1.1284   -0.9163   -0.7754 H   0  0  0  0  0  0  0  0  0  0  0  0 
    3.3083   -0.3555    2.2615 H   0  0  0  0  0  0  0  0  0  0  0  0 
    3.8555    1.2766    1.8252 H   0  0  0  0  0  0  0  0  0  0  0  0 
    4.4359   -0.1193    0.9118 H   0  0  0  0  0  0  0  0  0  0  0  0 
    3.8723    3.5839   -4.8029 H   0  0  0  0  0  0  0  0  0  0  0  0 
    4.6704    4.7212   -3.6895 H   0  0  0  0  0  0  0  0  0  0  0  0 
    2.9845    4.9444   -4.0754 H   0  0  0  0  0  0  0  0  0  0  0  0 
    3.6729    1.5259   -3.9512 H   0  0  0  0  0  0  0  0  0  0  0  0 
    3.1005   -0.0820   -2.1998 H   0  0  0  0  0  0  0  0  0  0  0  0 
    1.5075    0.8042    0.9955 H   0  0  0  0  0  0  0  0  0  0  0  0 
    1.9352    2.5518    1.3156 H   0  0  0  0  0  0  0  0  0  0  0  0 
    1.9486    4.9260    0.4104 H   0  0  0  0  0  0  0  0  0  0  0  0 
  1  6  1  0  0  0  0 
  1 15  1  0  0  0  0 
  2 19  1  0  0  0  0 
  2 18  1  0  0  0  0 
  3 22  1  0  0  0  0 
  3  7  1  0  0  0  0 
  4  7  2  0  0  0  0 
  4  5  1  0  0  0  0 
  5  8  2  0  0  0  0 
  6 26  1  0  0  0  0 
  6  2  1  0  0  0  0 
  7  9  1  0  0  0  0 
  8 10  1  0  0  0  0 
  8  6  1  0  0  0  0 
  9 11  1  0  0  0  0 
  9 10  2  0  0  0  0 
 10 12  1  0  0  0  0 
 11 14  1  0  0  0  0 
 12 27  1  0  0  0  0 
 13 11  2  0  0  0  0 
 14 28  1  0  0  0  0 
 16  1  1  0  0  0  0 
 17  1  1  0  0  0  0 
 20  2  1  0  0  0  0 
 21  3  1  0  0  0  0 
 23  3  1  0  0  0  0 
 24  4  1  0  0  0  0 
 25  5  1  0  0  0  0 
M  END 
>  <HBA> 
3 
 
>  <HBD> 
2 
 
>  <TPSA> 
57.53 
 
>  <cid> 
11052 
 
>  <dipole> 
6.71 
 
>  <excitation_energy_1> 
4.589 
 
>  <excitation_energy_2> 
4.632 
 
>  <excitation_energy_3> 
5.29 
 
>  <excitation_energy_4> 
5.388 
 
>  <homo_energy> 
-6.46 
 
>  <homo_lumo_gap> 
5.396 
 
>  <logP> 
2.522 
 
>  <lumo_energy> 
-1.064 
 
>  <melting_point> 
143.97 
 
>  <molecular_refractivity> 
54.97 
 
>  <oscillator_strength_1> 
0.0662 
 
>  <oscillator_strength_2> 
0.0026 
 
>  <oscillator_strength_3> 
0.0052 
 
>  <oscillator_strength_4> 
0.0929 
 
>  <open_babel_can_smiles> 
CC(c1ccc(c(c1O)C(=O)O)C)C 
 
>  <mulliken_charges> 
28 
1   -0.453026 
2   -0.438399 
3   -0.499192 
4   -0.184211 
5   -0.198113 
6   -0.206292 
7   0.111376 
8   0.178942 
9   -0.013139 
10   0.211497 
11   0.562328 
12   -0.691802 
13   -0.464757 
14   -0.595045 
15   0.151796 
16   0.154991 
17   0.158874 
18   0.149812 
19   0.154246 
20   0.160515 
21   0.136616 
22   0.187554 
23   0.176983 
24   0.129554 
25   0.134508 
26   0.119139 
27   0.429306 
28   0.435937 
 
>  <lowdin_charges> 
28 
1   -0.444225 
2   -0.447745 
3   -0.43955 
4   -0.181509 
5   -0.143335 
6   -0.124905 
7   0.038332 
8   -0.052985 
9   -0.093984 
10   0.098793 
11   0.198327 
12   -0.393918 
13   -0.254675 
14   -0.366618 
15   0.156922 
16   0.153945 
17   0.157927 
18   0.152903 
19   0.153218 
20   0.159043 
21   0.147135 
22   0.177526 
23   0.172899 
24   0.159055 
25   0.16138 
26   0.131875 
27   0.364824 
28   0.359344 
 
$$$$ 
 
