PCCDB-ID:  71090 
public computational chemistry database (PCCDB) project, http://pccdb.org 
 
 21 21  0  0  0  0  0  0  0  0999 V2000 
    2.2885    1.4303    3.1063 C   0  0  0  0  0  0  0  0  0  0  0  0 
    3.1104    0.5860    2.1859 C   0  0  0  0  0  0  0  0  0  0  0  0 
    7.1573    1.5327   -2.8710 C   0  0  0  0  0  0  0  0  0  0  0  0 
    6.8333    0.1771   -2.7588 C   0  0  0  0  0  0  0  0  0  0  0  0 
    6.6545    2.4460   -1.9434 C   0  0  0  0  0  0  0  0  0  0  0  0 
    3.8479    1.0410    1.1621 C   0  0  0  0  0  0  0  0  0  0  0  0 
    6.0115   -0.2585   -1.7246 C   0  0  0  0  0  0  0  0  0  0  0  0 
    5.8229    2.0101   -0.9115 C   0  0  0  0  0  0  0  0  0  0  0  0 
    5.4901    0.6520   -0.7905 C   0  0  0  0  0  0  0  0  0  0  0  0 
    4.6164    0.1016    0.3012 C   0  0  0  0  0  0  0  0  0  0  0  0 
    4.5341   -1.1136    0.4632 O   0  0  0  0  0  0  0  0  0  0  0  0 
    1.2342    1.1230    3.0778 H   0  0  0  0  0  0  0  0  0  0  0  0 
    2.3448    2.4938    2.8527 H   0  0  0  0  0  0  0  0  0  0  0  0 
    2.6175    1.3047    4.1468 H   0  0  0  0  0  0  0  0  0  0  0  0 
    3.1118   -0.4897    2.3595 H   0  0  0  0  0  0  0  0  0  0  0  0 
    7.8015    1.8746   -3.6767 H   0  0  0  0  0  0  0  0  0  0  0  0 
    7.2254   -0.5378   -3.4772 H   0  0  0  0  0  0  0  0  0  0  0  0 
    6.9100    3.4993   -2.0216 H   0  0  0  0  0  0  0  0  0  0  0  0 
    3.8724    2.1047    0.9440 H   0  0  0  0  0  0  0  0  0  0  0  0 
    5.7539   -1.3065   -1.6133 H   0  0  0  0  0  0  0  0  0  0  0  0 
    5.4553    2.7362   -0.1940 H   0  0  0  0  0  0  0  0  0  0  0  0 
  1 14  1  0  0  0  0 
  2 15  1  0  0  0  0 
  2  1  1  0  0  0  0 
  3  4  2  0  0  0  0 
  3  5  1  0  0  0  0 
  4  7  1  0  0  0  0 
  5  8  2  0  0  0  0 
  6  2  2  0  0  0  0 
  7 20  1  0  0  0  0 
  7  9  2  0  0  0  0 
  8  9  1  0  0  0  0 
  8 21  1  0  0  0  0 
  9 10  1  0  0  0  0 
 10 11  2  0  0  0  0 
 10  6  1  0  0  0  0 
 12  1  1  0  0  0  0 
 13  1  1  0  0  0  0 
 16  3  1  0  0  0  0 
 17  4  1  0  0  0  0 
 18  5  1  0  0  0  0 
 19  6  1  0  0  0  0 
M  END 
>  <HBA> 
1 
 
>  <HBD> 
0 
 
>  <TPSA> 
17.07 
 
>  <cid> 
71090 
 
>  <dipole> 
2.71 
 
>  <excitation_energy_1> 
3.411 
 
>  <excitation_energy_2> 
4.424 
 
>  <excitation_energy_3> 
4.649 
 
>  <excitation_energy_4> 
4.933 
 
>  <homo_energy> 
-6.629 
 
>  <homo_lumo_gap> 
4.874 
 
>  <logP> 
2.445 
 
>  <lumo_energy> 
-1.755 
 
>  <melting_point> 
46.67 
 
>  <molecular_refractivity> 
45.78 
 
>  <oscillator_strength_1> 
0.0002 
 
>  <oscillator_strength_2> 
0.0083 
 
>  <oscillator_strength_3> 
0.3919 
 
>  <oscillator_strength_4> 
0.0965 
 
>  <open_babel_can_smiles> 
C/C=C/C(=O)c1ccccc1 
 
>  <mulliken_charges> 
21 
1   -0.499298 
2   -0.05328 
3   -0.118484 
4   -0.133773 
5   -0.13662 
6   -0.182916 
7   -0.153918 
8   -0.174789 
9   0.067098 
10   0.374619 
11   -0.48884 
12   0.169535 
13   0.1583 
14   0.168961 
15   0.167803 
16   0.135833 
17   0.136892 
18   0.134096 
19   0.128894 
20   0.163394 
21   0.136493 
 
>  <lowdin_charges> 
21 
1   -0.436215 
2   -0.085038 
3   -0.14126 
4   -0.156561 
5   -0.15694 
6   -0.222832 
7   -0.126991 
8   -0.152159 
9   -0.043888 
10   0.154511 
11   -0.262024 
12   0.165648 
13   0.155943 
14   0.165519 
15   0.170561 
16   0.161308 
17   0.162202 
18   0.158204 
19   0.153238 
20   0.175572 
21   0.161204 
 
$$$$ 
 
