PCCDB-ID:  21547 
public computational chemistry database (PCCDB) project, http://pccdb.org 
 
 24 25  0  0  0  0  0  0  0  0999 V2000 
   -1.7232   -0.7384    0.3244 C   0  0  0  0  0  0  0  0  0  0  0  0 
   -1.1561    0.1623    1.2243 C   0  0  0  0  0  0  0  0  0  0  0  0 
   -0.9207   -1.3084   -0.6654 C   0  0  0  0  0  0  0  0  0  0  0  0 
    4.2193   -1.3182    2.1803 C   0  0  0  0  0  0  0  0  0  0  0  0 
    0.1991    0.4892    1.1386 C   0  0  0  0  0  0  0  0  0  0  0  0 
    0.4335   -0.9868   -0.7474 C   0  0  0  0  0  0  0  0  0  0  0  0 
    3.6427   -2.0599    0.9704 C   0  0  0  0  0  0  0  0  0  0  0  0 
    3.3678   -0.1316    2.6407 C   0  0  0  0  0  0  0  0  0  0  0  0 
    1.0180   -0.0834    0.1555 C   0  0  0  0  0  0  0  0  0  0  0  0 
    2.4914    0.3182   -0.0083 C   0  0  0  0  0  0  0  0  0  0  0  0 
    3.5972   -1.0580   -0.5681 S   0  0  0  0  0  0  0  0  0  0  0  0 
    3.2340    1.2322    1.4145 S   0  0  0  0  0  0  0  0  0  0  0  0 
   -2.7776   -0.9931    0.3914 H   0  0  0  0  0  0  0  0  0  0  0  0 
   -1.7674    0.6192    1.9983 H   0  0  0  0  0  0  0  0  0  0  0  0 
   -1.3476   -2.0098   -1.3777 H   0  0  0  0  0  0  0  0  0  0  0  0 
    5.2372   -0.9809    1.9558 H   0  0  0  0  0  0  0  0  0  0  0  0 
    4.2849   -2.0301    3.0163 H   0  0  0  0  0  0  0  0  0  0  0  0 
    0.6238    1.2047    1.8346 H   0  0  0  0  0  0  0  0  0  0  0  0 
    1.0474   -1.4442   -1.5164 H   0  0  0  0  0  0  0  0  0  0  0  0 
    2.6334   -2.4320    1.1815 H   0  0  0  0  0  0  0  0  0  0  0  0 
    4.2663   -2.9232    0.7173 H   0  0  0  0  0  0  0  0  0  0  0  0 
    3.8141    0.3390    3.5225 H   0  0  0  0  0  0  0  0  0  0  0  0 
    2.3602   -0.4627    2.9174 H   0  0  0  0  0  0  0  0  0  0  0  0 
    2.5711    1.0407   -0.8285 H   0  0  0  0  0  0  0  0  0  0  0  0 
  1 13  1  0  0  0  0 
  1  2  2  0  0  0  0 
  2 14  1  0  0  0  0 
  3  1  1  0  0  0  0 
  4  8  1  0  0  0  0 
  4 17  1  0  0  0  0 
  5  2  1  0  0  0  0 
  5 18  1  0  0  0  0 
  6  3  2  0  0  0  0 
  6  9  1  0  0  0  0 
  7 20  1  0  0  0  0 
  7  4  1  0  0  0  0 
  8 23  1  0  0  0  0 
  8 22  1  0  0  0  0 
  9  5  2  0  0  0  0 
 10  9  1  0  0  0  0 
 10 12  1  0  0  0  0 
 11 10  1  0  0  0  0 
 11  7  1  0  0  0  0 
 12  8  1  0  0  0  0 
 15  3  1  0  0  0  0 
 16  4  1  0  0  0  0 
 19  6  1  0  0  0  0 
 21  7  1  0  0  0  0 
 24 10  1  0  0  0  0 
M  END 
>  <HBA> 
2 
 
>  <HBD> 
0 
 
>  <TPSA> 
50.6 
 
>  <cid> 
21547 
 
>  <dipole> 
2.3 
 
>  <excitation_energy_1> 
4.451 
 
>  <excitation_energy_2> 
4.742 
 
>  <excitation_energy_3> 
4.815 
 
>  <excitation_energy_4> 
5.122 
 
>  <homo_energy> 
-5.772 
 
>  <homo_lumo_gap> 
5.483 
 
>  <logP> 
3.555 
 
>  <lumo_energy> 
-0.288 
 
>  <melting_point> 
45.68 
 
>  <molecular_refractivity> 
58.9 
 
>  <oscillator_strength_1> 
0.0083 
 
>  <oscillator_strength_2> 
0.0025 
 
>  <oscillator_strength_3> 
0.0085 
 
>  <oscillator_strength_4> 
0.0169 
 
>  <open_babel_can_smiles> 
C1CSC(SC1)c1ccccc1 
 
>  <mulliken_charges> 
24 
1   -0.126708 
2   -0.131543 
3   -0.13055 
4   -0.249774 
5   -0.183172 
6   -0.172891 
7   -0.418453 
8   -0.421559 
9   0.157042 
10   -0.503488 
11   0.112015 
12   0.115804 
13   0.130041 
14   0.130489 
15   0.131131 
16   0.168819 
17   0.146786 
18   0.160031 
19   0.155295 
20   0.179773 
21   0.178437 
22   0.178436 
23   0.17732 
24   0.216718 
 
>  <lowdin_charges> 
24 
1   -0.155316 
2   -0.157946 
3   -0.15653 
4   -0.281179 
5   -0.170385 
6   -0.164556 
7   -0.378502 
8   -0.378924 
9   -0.024594 
10   -0.327825 
11   0.104986 
12   0.107463 
13   0.156316 
14   0.159178 
15   0.159389 
16   0.158973 
17   0.152719 
18   0.171948 
19   0.170968 
20   0.159256 
21   0.172115 
22   0.172106 
23   0.157333 
24   0.193009 
 
$$$$ 
 
