PCCDB-ID:  41486 
public computational chemistry database (PCCDB) project, http://pccdb.org 
 
 25 25  0  0  0  0  0  0  0  0999 V2000 
    0.9403   -0.7788    1.9329 C   0  0  0  0  0  0  0  0  0  0  0  0 
    7.2223   -0.7536    0.5146 C   0  0  0  0  0  0  0  0  0  0  0  0 
    6.4963    0.3700    0.9210 C   0  0  0  0  0  0  0  0  0  0  0  0 
    6.5676   -1.9586    0.2957 C   0  0  0  0  0  0  0  0  0  0  0  0 
    5.1193    0.2831    1.1083 C   0  0  0  0  0  0  0  0  0  0  0  0 
    4.4591   -3.3421    0.2608 C   0  0  0  0  0  0  0  0  0  0  0  0 
    4.9667   -4.4903   -0.2271 C   0  0  0  0  0  0  0  0  0  0  0  0 
    2.4244   -0.5795    2.1108 C   0  0  0  0  0  0  0  0  0  0  0  0 
    5.1768   -2.0839    0.4779 C   0  0  0  0  0  0  0  0  0  0  0  0 
    4.4752   -0.9335    0.8922 C   0  0  0  0  0  0  0  0  0  0  0  0 
    4.1768   -5.7221   -0.4823 C   0  0  0  0  0  0  0  0  0  0  0  0 
    2.9718   -0.1022    3.0704 O   0  0  0  0  0  0  0  0  0  0  0  0 
    4.5219   -6.5608   -1.2819 O   0  0  0  0  0  0  0  0  0  0  0  0 
    3.0147   -5.8814    0.2160 O   0  0  0  0  0  0  0  0  0  0  0  0 
    3.0872   -1.0388    0.9912 O   0  0  0  0  0  0  0  0  0  0  0  0 
    0.7108   -1.8451    1.8336 H   0  0  0  0  0  0  0  0  0  0  0  0 
    0.6004   -0.2869    1.0161 H   0  0  0  0  0  0  0  0  0  0  0  0 
    0.4154   -0.3692    2.7962 H   0  0  0  0  0  0  0  0  0  0  0  0 
    8.2963   -0.6879    0.3690 H   0  0  0  0  0  0  0  0  0  0  0  0 
    7.0005    1.3166    1.0915 H   0  0  0  0  0  0  0  0  0  0  0  0 
    7.1404   -2.8251   -0.0186 H   0  0  0  0  0  0  0  0  0  0  0  0 
    4.5469    1.1466    1.4233 H   0  0  0  0  0  0  0  0  0  0  0  0 
    3.3987   -3.2971    0.4988 H   0  0  0  0  0  0  0  0  0  0  0  0 
    5.9949   -4.5688   -0.5655 H   0  0  0  0  0  0  0  0  0  0  0  0 
    2.9734   -5.2281    0.9327 H   0  0  0  0  0  0  0  0  0  0  0  0 
  1  8  1  0  0  0  0 
  1 18  1  0  0  0  0 
  2  3  2  0  0  0  0 
  3 20  1  0  0  0  0 
  3  5  1  0  0  0  0 
  4  9  2  0  0  0  0 
  4  2  1  0  0  0  0 
  5 22  1  0  0  0  0 
  6  9  1  0  0  0  0 
  6 23  1  0  0  0  0 
  7  6  2  0  0  0  0 
  8 12  2  0  0  0  0 
  9 10  1  0  0  0  0 
 10 15  1  0  0  0  0 
 10  5  2  0  0  0  0 
 11  7  1  0  0  0  0 
 11 14  1  0  0  0  0 
 13 11  2  0  0  0  0 
 14 25  1  0  0  0  0 
 15  8  1  0  0  0  0 
 16  1  1  0  0  0  0 
 17  1  1  0  0  0  0 
 19  2  1  0  0  0  0 
 21  4  1  0  0  0  0 
 24  7  1  0  0  0  0 
M  END 
>  <HBA> 
4 
 
>  <HBD> 
1 
 
>  <TPSA> 
63.6 
 
>  <cid> 
41486 
 
>  <dipole> 
4.72 
 
>  <excitation_energy_1> 
4.182 
 
>  <excitation_energy_2> 
4.247 
 
>  <excitation_energy_3> 
4.433 
 
>  <excitation_energy_4> 
5.209 
 
>  <homo_energy> 
-6.683 
 
>  <homo_lumo_gap> 
4.615 
 
>  <logP> 
1.71 
 
>  <lumo_energy> 
-2.068 
 
>  <melting_point> 
130.17 
 
>  <molecular_refractivity> 
54.61 
 
>  <oscillator_strength_1> 
0.1687 
 
>  <oscillator_strength_2> 
0.0594 
 
>  <oscillator_strength_3> 
0.3498 
 
>  <oscillator_strength_4> 
0.047 
 
>  <open_babel_can_smiles> 
OC(=O)/C=C/c1ccccc1OC(=O)C 
 
>  <mulliken_charges> 
25 
1   -0.527032 
2   -0.120073 
3   -0.140213 
4   -0.195768 
5   -0.132653 
6   -0.16737 
7   -0.198418 
8   0.589558 
9   0.126703 
10   0.289111 
11   0.580667 
12   -0.432864 
13   -0.450742 
14   -0.575286 
15   -0.523792 
16   0.185451 
17   0.192077 
18   0.192155 
19   0.143089 
20   0.146893 
21   0.144923 
22   0.158949 
23   0.142848 
24   0.165642 
25   0.406144 
 
>  <lowdin_charges> 
25 
1   -0.462377 
2   -0.152842 
3   -0.137559 
4   -0.140596 
5   -0.163239 
6   -0.133217 
7   -0.199046 
8   0.212198 
9   -0.025367 
10   0.107482 
11   0.190987 
12   -0.229485 
13   -0.237717 
14   -0.36523 
15   -0.174339 
16   0.178839 
17   0.183806 
18   0.181829 
19   0.163512 
20   0.166949 
21   0.166593 
22   0.177911 
23   0.159662 
24   0.175429 
25   0.355816 
 
$$$$ 
 
