PCCDB-ID:  7947 
public computational chemistry database (PCCDB) project, http://pccdb.org 
 
 21 21  0  0  0  0  0  0  0  0999 V2000 
    0.9395   -0.0728    0.0694 C   0  0  0  0  0  0  0  0  0  0  0  0 
    5.3309    2.4546    0.0550 C   0  0  0  0  0  0  0  0  0  0  0  0 
    5.3245   -2.6003    0.0568 C   0  0  0  0  0  0  0  0  0  0  0  0 
    3.1687    1.1314    0.0630 C   0  0  0  0  0  0  0  0  0  0  0  0 
    3.1662   -1.2733    0.0630 C   0  0  0  0  0  0  0  0  0  0  0  0 
    5.2508   -0.0725    0.0554 C   0  0  0  0  0  0  0  0  0  0  0  0 
    2.4516   -0.0685    0.0652 C   0  0  0  0  0  0  0  0  0  0  0  0 
    4.5693    1.1481    0.0579 C   0  0  0  0  0  0  0  0  0  0  0  0 
    4.5638   -1.2933    0.0581 C   0  0  0  0  0  0  0  0  0  0  0  0 
    0.5371    0.9452    0.0763 H   0  0  0  0  0  0  0  0  0  0  0  0 
    0.5421   -0.5944    0.9492 H   0  0  0  0  0  0  0  0  0  0  0  0 
    0.5373   -0.5843   -0.8141 H   0  0  0  0  0  0  0  0  0  0  0  0 
    4.6521    3.3133    0.0465 H   0  0  0  0  0  0  0  0  0  0  0  0 
    5.9831    2.5367   -0.8235 H   0  0  0  0  0  0  0  0  0  0  0  0 
    5.9731    2.5468    0.9399 H   0  0  0  0  0  0  0  0  0  0  0  0 
    4.6453   -3.4586    0.0399 H   0  0  0  0  0  0  0  0  0  0  0  0 
    5.9594   -2.6955    0.9467 H   0  0  0  0  0  0  0  0  0  0  0  0 
    5.9840   -2.6795   -0.8164 H   0  0  0  0  0  0  0  0  0  0  0  0 
    2.6263    2.0751    0.0661 H   0  0  0  0  0  0  0  0  0  0  0  0 
    2.6213   -2.2160    0.0656 H   0  0  0  0  0  0  0  0  0  0  0  0 
    6.3401   -0.0750    0.0519 H   0  0  0  0  0  0  0  0  0  0  0  0 
  1 10  1  0  0  0  0 
  1 11  1  0  0  0  0 
  2  8  1  0  0  0  0 
  2 15  1  0  0  0  0 
  3  9  1  0  0  0  0 
  3 17  1  0  0  0  0 
  4  7  2  0  0  0  0 
  4 19  1  0  0  0  0 
  5  7  1  0  0  0  0 
  5 20  1  0  0  0  0 
  6  8  2  0  0  0  0 
  6  9  1  0  0  0  0 
  7  1  1  0  0  0  0 
  8  4  1  0  0  0  0 
  9  5  2  0  0  0  0 
 12  1  1  0  0  0  0 
 13  2  1  0  0  0  0 
 14  2  1  0  0  0  0 
 16  3  1  0  0  0  0 
 18  3  1  0  0  0  0 
 21  6  1  0  0  0  0 
M  END 
>  <HBA> 
0 
 
>  <HBD> 
0 
 
>  <TPSA> 
0.0 
 
>  <cid> 
7947 
 
>  <dipole> 
0.08 
 
>  <excitation_energy_1> 
5.1 
 
>  <excitation_energy_2> 
5.635 
 
>  <excitation_energy_3> 
5.871 
 
>  <excitation_energy_4> 
5.942 
 
>  <homo_energy> 
-6.15 
 
>  <homo_lumo_gap> 
6.31 
 
>  <logP> 
2.612 
 
>  <lumo_energy> 
0.161 
 
>  <melting_point> 
16.83 
 
>  <molecular_refractivity> 
41.34 
 
>  <oscillator_strength_1> 
0.0039 
 
>  <oscillator_strength_2> 
0.0171 
 
>  <oscillator_strength_3> 
0.0 
 
>  <oscillator_strength_4> 
0.0 
 
>  <open_babel_can_smiles> 
Cc1cc(C)cc(c1)C 
 
>  <mulliken_charges> 
21 
1   -0.53119 
2   -0.531089 
3   -0.530436 
4   -0.24914 
5   -0.242065 
6   -0.236243 
7   0.193216 
8   0.19091 
9   0.187878 
10   0.152893 
11   0.159871 
12   0.160038 
13   0.152906 
14   0.159987 
15   0.160154 
16   0.152703 
17   0.160194 
18   0.159793 
19   0.110255 
20   0.109838 
21   0.109527 
 
>  <lowdin_charges> 
21 
1   -0.442864 
2   -0.44313 
3   -0.44313 
4   -0.187931 
5   -0.185683 
6   -0.180198 
7   0.004453 
8   0.003907 
9   0.004528 
10   0.154623 
11   0.15984 
12   0.159892 
13   0.155709 
14   0.159632 
15   0.159664 
16   0.155658 
17   0.159649 
18   0.159557 
19   0.149362 
20   0.149404 
21   0.147057 
 
$$$$ 
 
