PCCDB-ID:  60028 
public computational chemistry database (PCCDB) project, http://pccdb.org 
 
 35 35  0  0  1  0  0  0  0  0999 V2000 
    1.7144    0.4014   -0.2966 C   0  0  0  0  0  0  0  0  0  0  0  0 
    0.9073   -1.5780    1.0721 C   0  0  0  0  0  0  0  0  0  0  0  0 
    2.1143   -2.3388   -1.6264 C   0  0  0  0  0  0  0  0  0  0  0  0 
    8.4465   -1.3417   -2.2868 C   0  0  0  0  0  0  0  0  0  0  0  0 
    7.1323   -1.8052   -2.2288 C   0  0  0  0  0  0  0  0  0  0  0  0 
    9.2378   -1.2949   -1.1412 C   0  0  0  0  0  0  0  0  0  0  0  0 
    7.3884   -2.1744    0.1469 C   0  0  0  0  0  0  0  0  0  0  0  0 
    4.2113   -1.4365   -0.7959 C   0  0  0  0  0  0  0  0  0  0  0  0 
    2.1159   -0.9098    0.4051 C   0  0  0  0  0  0  0  0  0  0  0  0 
    6.5981   -2.2191   -1.0016 C   0  0  0  0  0  0  0  0  0  0  0  0 
    8.7148   -1.7172    0.0922 C   0  0  0  0  0  0  0  0  0  0  0  0 
    5.1515   -2.6637   -0.9177 C   0  0  1  0  0  0  0  0  0  0  0  0 
    9.4817   -1.6305    1.2614 N   0  0  0  0  0  0  0  0  0  0  0  0 
    2.8512   -1.8685   -0.4535 N   0  0  0  0  0  0  0  0  0  0  0  0 
    4.9415   -3.5026    0.2037 O   0  0  0  0  0  0  0  0  0  0  0  0 
    1.2762    1.0993    0.4260 H   0  0  0  0  0  0  0  0  0  0  0  0 
    0.9687    0.2298   -1.0813 H   0  0  0  0  0  0  0  0  0  0  0  0 
    2.5798    0.8951   -0.7525 H   0  0  0  0  0  0  0  0  0  0  0  0 
    0.5006   -0.9228    1.8504 H   0  0  0  0  0  0  0  0  0  0  0  0 
    1.1979   -2.5264    1.5357 H   0  0  0  0  0  0  0  0  0  0  0  0 
    0.0975   -1.7759    0.3607 H   0  0  0  0  0  0  0  0  0  0  0  0 
    2.6681   -3.1535   -2.1026 H   0  0  0  0  0  0  0  0  0  0  0  0 
    1.9537   -1.5551   -2.3869 H   0  0  0  0  0  0  0  0  0  0  0  0 
    1.1408   -2.7384   -1.3307 H   0  0  0  0  0  0  0  0  0  0  0  0 
    8.8665   -1.0219   -3.2374 H   0  0  0  0  0  0  0  0  0  0  0  0 
    6.5278   -1.8542   -3.1315 H   0  0  0  0  0  0  0  0  0  0  0  0 
   10.2631   -0.9352   -1.1971 H   0  0  0  0  0  0  0  0  0  0  0  0 
    6.9649   -2.5177    1.0861 H   0  0  0  0  0  0  0  0  0  0  0  0 
    4.2564   -0.8353   -1.7196 H   0  0  0  0  0  0  0  0  0  0  0  0 
    4.5897   -0.8140    0.0217 H   0  0  0  0  0  0  0  0  0  0  0  0 
    2.8226   -0.6557    1.2053 H   0  0  0  0  0  0  0  0  0  0  0  0 
    4.9072   -3.2082   -1.8467 H   0  0  0  0  0  0  0  0  0  0  0  0 
   10.4826   -1.6752    1.1119 H   0  0  0  0  0  0  0  0  0  0  0  0 
    9.1953   -2.2679    1.9948 H   0  0  0  0  0  0  0  0  0  0  0  0 
    3.9925   -3.3690    0.4097 H   0  0  0  0  0  0  0  0  0  0  0  0 
  1  9  1  0  0  0  0 
  1 16  1  0  0  0  0 
  2 20  1  0  0  0  0 
  2 19  1  0  0  0  0 
  3 24  1  0  0  0  0 
  3 14  1  0  0  0  0 
  4  5  2  0  0  0  0 
  4  6  1  0  0  0  0 
  5 10  1  0  0  0  0 
  6 11  2  0  0  0  0 
  7 28  1  0  0  0  0 
  8 14  1  0  0  0  0 
  8 30  1  0  0  0  0 
  9  2  1  0  0  0  0 
  9 31  1  0  0  0  0 
 10 12  1  0  0  0  0 
 10  7  2  0  0  0  0 
 11  7  1  0  0  0  0 
 11 13  1  0  0  0  0 
 12 32  1  6  0  0  0 
 12  8  1  0  0  0  0 
 12 15  1  0  0  0  0 
 13 34  1  0  0  0  0 
 14  9  1  0  0  0  0 
 15 35  1  0  0  0  0 
 17  1  1  0  0  0  0 
 18  1  1  0  0  0  0 
 21  2  1  0  0  0  0 
 22  3  1  0  0  0  0 
 23  3  1  0  0  0  0 
 25  4  1  0  0  0  0 
 26  5  1  0  0  0  0 
 27  6  1  0  0  0  0 
 29  8  1  0  0  0  0 
 33 13  1  0  0  0  0 
M  END 
>  <HBA> 
3 
 
>  <HBD> 
2 
 
>  <TPSA> 
49.49 
 
>  <cid> 
60028 
 
>  <dipole> 
1.31 
 
>  <excitation_energy_1> 
4.681 
 
>  <excitation_energy_2> 
4.771 
 
>  <excitation_energy_3> 
5.09 
 
>  <excitation_energy_4> 
5.304 
 
>  <homo_energy> 
-5.244 
 
>  <homo_lumo_gap> 
5.597 
 
>  <logP> 
2.224 
 
>  <lumo_energy> 
0.354 
 
>  <melting_point> 
75.24 
 
>  <molecular_refractivity> 
63.91 
 
>  <oscillator_strength_1> 
0.0372 
 
>  <oscillator_strength_2> 
0.0076 
 
>  <oscillator_strength_3> 
0.0043 
 
>  <oscillator_strength_4> 
0.0139 
 
>  <open_babel_can_smiles> 
CN(C(C)C)C[C@@H](c1cccc(c1)N)O 
 
>  <mulliken_charges> 
35 
1   -0.456733 
2   -0.451557 
3   -0.31612 
4   -0.138198 
5   -0.191092 
6   -0.171786 
7   -0.222983 
8   -0.148731 
9   0.051487 
10   0.129559 
11   0.30946 
12   0.082557 
13   -0.788519 
14   -0.414955 
15   -0.652833 
16   0.14627 
17   0.146163 
18   0.152753 
19   0.146675 
20   0.152315 
21   0.144218 
22   0.161958 
23   0.132532 
24   0.156465 
25   0.121278 
26   0.109544 
27   0.110895 
28   0.135271 
29   0.127417 
30   0.151366 
31   0.136494 
32   0.1158 
33   0.315826 
34   0.319456 
35   0.397745 
 
>  <lowdin_charges> 
35 
1   -0.46467 
2   -0.452178 
3   -0.365166 
4   -0.147178 
5   -0.202502 
6   -0.204014 
7   -0.203365 
8   -0.222124 
9   -0.058007 
10   -0.00121 
11   0.059738 
12   -0.004741 
13   -0.489991 
14   -0.189501 
15   -0.469771 
16   0.155677 
17   0.150199 
18   0.154189 
19   0.155702 
20   0.154711 
21   0.148207 
22   0.15661 
23   0.130377 
24   0.154148 
25   0.154242 
26   0.150019 
27   0.148862 
28   0.163624 
29   0.132792 
30   0.154982 
31   0.14441 
32   0.126194 
33   0.270749 
34   0.275434 
35   0.333553 
 
$$$$ 
 
