PCCDB-ID:  7948 
public computational chemistry database (PCCDB) project, http://pccdb.org 
 
 19 19  0  0  0  0  0  0  0  0999 V2000 
    0.9901   -0.0499   -0.0891 C   0  0  0  0  0  0  0  0  0  0  0  0 
    5.3861    2.4671   -0.1002 C   0  0  0  0  0  0  0  0  0  0  0  0 
    3.2211    1.1502   -0.0946 C   0  0  0  0  0  0  0  0  0  0  0  0 
    3.2066   -1.2585   -0.0945 C   0  0  0  0  0  0  0  0  0  0  0  0 
    5.3110   -0.0533   -0.1002 C   0  0  0  0  0  0  0  0  0  0  0  0 
    2.5019   -0.0492   -0.0926 C   0  0  0  0  0  0  0  0  0  0  0  0 
    4.6227    1.1620   -0.0984 C   0  0  0  0  0  0  0  0  0  0  0  0 
    4.6036   -1.2579   -0.0984 C   0  0  0  0  0  0  0  0  0  0  0  0 
    5.3370   -2.4152   -0.1006 O   0  0  0  0  0  0  0  0  0  0  0  0 
    0.5921    0.9694   -0.0843 H   0  0  0  0  0  0  0  0  0  0  0  0 
    0.5910   -0.5681    0.7919 H   0  0  0  0  0  0  0  0  0  0  0  0 
    0.5870   -0.5613   -0.9724 H   0  0  0  0  0  0  0  0  0  0  0  0 
    4.7083    3.3264   -0.1029 H   0  0  0  0  0  0  0  0  0  0  0  0 
    6.0344    2.5494   -0.9813 H   0  0  0  0  0  0  0  0  0  0  0  0 
    6.0322    2.5532    0.7823 H   0  0  0  0  0  0  0  0  0  0  0  0 
    2.6805    2.0939   -0.0929 H   0  0  0  0  0  0  0  0  0  0  0  0 
    2.6654   -2.2046   -0.0925 H   0  0  0  0  0  0  0  0  0  0  0  0 
    6.3970   -0.0855   -0.1029 H   0  0  0  0  0  0  0  0  0  0  0  0 
    4.7277   -3.1696   -0.0997 H   0  0  0  0  0  0  0  0  0  0  0  0 
  1 10  1  0  0  0  0 
  1 11  1  0  0  0  0 
  2  7  1  0  0  0  0 
  2 15  1  0  0  0  0 
  3 16  1  0  0  0  0 
  3  6  1  0  0  0  0 
  4  6  2  0  0  0  0 
  4 17  1  0  0  0  0 
  5  8  2  0  0  0  0 
  5  7  1  0  0  0  0 
  6  1  1  0  0  0  0 
  7  3  2  0  0  0  0 
  8  4  1  0  0  0  0 
  9 19  1  0  0  0  0 
  9  8  1  0  0  0  0 
 12  1  1  0  0  0  0 
 13  2  1  0  0  0  0 
 14  2  1  0  0  0  0 
 18  5  1  0  0  0  0 
M  END 
>  <HBA> 
1 
 
>  <HBD> 
1 
 
>  <TPSA> 
20.23 
 
>  <cid> 
7948 
 
>  <dipole> 
1.35 
 
>  <excitation_energy_1> 
4.92 
 
>  <excitation_energy_2> 
5.138 
 
>  <excitation_energy_3> 
5.653 
 
>  <excitation_energy_4> 
5.674 
 
>  <homo_energy> 
-5.799 
 
>  <homo_lumo_gap> 
5.872 
 
>  <logP> 
2.009 
 
>  <lumo_energy> 
0.073 
 
>  <melting_point> 
52.97 
 
>  <molecular_refractivity> 
38.4 
 
>  <oscillator_strength_1> 
0.0481 
 
>  <oscillator_strength_2> 
0.0002 
 
>  <oscillator_strength_3> 
0.0022 
 
>  <oscillator_strength_4> 
0.0012 
 
>  <open_babel_can_smiles> 
Cc1cc(C)cc(c1)O 
 
>  <mulliken_charges> 
19 
1   -0.531947 
2   -0.530875 
3   -0.248427 
4   -0.252957 
5   -0.216541 
6   0.183818 
7   0.181157 
8   0.359307 
9   -0.64722 
10   0.156196 
11   0.160184 
12   0.160317 
13   0.153354 
14   0.162346 
15   0.162429 
16   0.110009 
17   0.105517 
18   0.128039 
19   0.405294 
 
>  <lowdin_charges> 
19 
1   -0.442374 
2   -0.442217 
3   -0.204949 
4   -0.231826 
5   -0.200713 
6   0.014067 
7   0.013856 
8   0.106298 
9   -0.383015 
10   0.156522 
11   0.160033 
12   0.160084 
13   0.156105 
14   0.161124 
15   0.161158 
16   0.15044 
17   0.148026 
18   0.160777 
19   0.356602 
 
$$$$ 
 
