PCCDB-ID:  28456 
public computational chemistry database (PCCDB) project, http://pccdb.org 
 
 35 34  0  0  1  0  0  0  0  0999 V2000 
    6.7339   -0.2339   -2.7060 C   0  0  0  0  0  0  0  0  0  0  0  0 
    8.0867   -5.8483    1.6871 C   0  0  0  0  0  0  0  0  0  0  0  0 
    6.9298   -6.6228    3.7917 C   0  0  0  0  0  0  0  0  0  0  0  0 
    3.1674   -3.2789    1.6736 C   0  0  0  0  0  0  0  0  0  0  0  0 
    5.4748   -0.9220   -2.1686 C   0  0  0  0  0  0  0  0  0  0  0  0 
    5.6919   -1.6136   -0.8156 C   0  0  0  0  0  0  0  0  0  0  0  0 
    4.4258   -2.2971   -0.2798 C   0  0  0  0  0  0  0  0  0  0  0  0 
    5.8814   -4.7702    2.4260 C   0  0  0  0  0  0  0  0  0  0  0  0 
    5.4593   -4.2200    1.0553 C   0  0  0  0  0  0  0  0  0  0  0  0 
    6.7297   -6.0580    2.3771 C   0  0  0  0  0  0  0  0  0  0  0  0 
    4.5618   -2.9636    1.1072 C   0  0  2  0  0  0  0  0  0  0  0  0 
    6.5448    0.2510   -3.6706 H   0  0  0  0  0  0  0  0  0  0  0  0 
    7.5493   -0.9536   -2.8492 H   0  0  0  0  0  0  0  0  0  0  0  0 
    7.0914    0.5356   -2.0106 H   0  0  0  0  0  0  0  0  0  0  0  0 
    8.6746   -6.7740    1.6899 H   0  0  0  0  0  0  0  0  0  0  0  0 
    8.6743   -5.0812    2.2091 H   0  0  0  0  0  0  0  0  0  0  0  0 
    7.9757   -5.5325    0.6445 H   0  0  0  0  0  0  0  0  0  0  0  0 
    7.4927   -7.5634    3.7688 H   0  0  0  0  0  0  0  0  0  0  0  0 
    5.9692   -6.8175    4.2837 H   0  0  0  0  0  0  0  0  0  0  0  0 
    7.4885   -5.9172    4.4207 H   0  0  0  0  0  0  0  0  0  0  0  0 
    2.5570   -2.3705    1.7383 H   0  0  0  0  0  0  0  0  0  0  0  0 
    3.2165   -3.7146    2.6769 H   0  0  0  0  0  0  0  0  0  0  0  0 
    2.6359   -3.9901    1.0273 H   0  0  0  0  0  0  0  0  0  0  0  0 
    5.1216   -1.6625   -2.9007 H   0  0  0  0  0  0  0  0  0  0  0  0 
    4.6668   -0.1832   -2.0713 H   0  0  0  0  0  0  0  0  0  0  0  0 
    6.0388   -0.8705   -0.0817 H   0  0  0  0  0  0  0  0  0  0  0  0 
    6.5078   -2.3416   -0.9186 H   0  0  0  0  0  0  0  0  0  0  0  0 
    4.0806   -3.0500   -1.0056 H   0  0  0  0  0  0  0  0  0  0  0  0 
    3.6265   -1.5434   -0.2273 H   0  0  0  0  0  0  0  0  0  0  0  0 
    4.9874   -4.9753    3.0300 H   0  0  0  0  0  0  0  0  0  0  0  0 
    6.4430   -3.9945    2.9702 H   0  0  0  0  0  0  0  0  0  0  0  0 
    4.9288   -5.0065    0.4954 H   0  0  0  0  0  0  0  0  0  0  0  0 
    6.3600   -3.9883    0.4750 H   0  0  0  0  0  0  0  0  0  0  0  0 
    6.1672   -6.8051    1.7951 H   0  0  0  0  0  0  0  0  0  0  0  0 
    5.0415   -2.2345    1.7803 H   0  0  0  0  0  0  0  0  0  0  0  0 
  1  5  1  0  0  0  0 
  1 14  1  0  0  0  0 
  2 15  1  0  0  0  0 
  2 16  1  0  0  0  0 
  2 10  1  0  0  0  0 
  3 19  1  0  0  0  0 
  3 20  1  0  0  0  0 
  4 21  1  0  0  0  0 
  4 22  1  0  0  0  0 
  5 25  1  0  0  0  0 
  5  6  1  0  0  0  0 
  6  7  1  0  0  0  0 
  6 26  1  0  0  0  0 
  7 29  1  0  0  0  0 
  7 11  1  0  0  0  0 
  8 31  1  0  0  0  0 
  8 30  1  0  0  0  0 
  9 11  1  0  0  0  0 
  9  8  1  0  0  0  0 
 10  8  1  0  0  0  0 
 10  3  1  0  0  0  0 
 11  4  1  0  0  0  0 
 11 35  1  1  0  0  0 
 12  1  1  0  0  0  0 
 13  1  1  0  0  0  0 
 17  2  1  0  0  0  0 
 18  3  1  0  0  0  0 
 23  4  1  0  0  0  0 
 24  5  1  0  0  0  0 
 27  6  1  0  0  0  0 
 28  7  1  0  0  0  0 
 32  9  1  0  0  0  0 
 33  9  1  0  0  0  0 
 34 10  1  0  0  0  0 
M  END 
>  <HBA> 
0 
 
>  <HBD> 
0 
 
>  <TPSA> 
0.0 
 
>  <cid> 
28456 
 
>  <dipole> 
0.06 
 
>  <excitation_energy_1> 
7.506 
 
>  <excitation_energy_2> 
7.661 
 
>  <excitation_energy_3> 
7.79 
 
>  <excitation_energy_4> 
7.806 
 
>  <homo_energy> 
-7.916 
 
>  <homo_lumo_gap> 
10.24 
 
>  <logP> 
4.249 
 
>  <lumo_energy> 
2.324 
 
>  <melting_point> 
-29.88 
 
>  <molecular_refractivity> 
54.99 
 
>  <oscillator_strength_1> 
0.0005 
 
>  <oscillator_strength_2> 
0.0021 
 
>  <oscillator_strength_3> 
0.0487 
 
>  <oscillator_strength_4> 
0.0015 
 
>  <open_babel_can_smiles> 
CCCC[C@H](CCC(C)C)C 
 
>  <mulliken_charges> 
35 
1   -0.441555 
2   -0.444716 
3   -0.441982 
4   -0.451932 
5   -0.246772 
6   -0.253866 
7   -0.253308 
8   -0.252547 
9   -0.265548 
10   -0.065245 
11   -0.067874 
12   0.141132 
13   0.140801 
14   0.140868 
15   0.138757 
16   0.136929 
17   0.144532 
18   0.138239 
19   0.138467 
20   0.137672 
21   0.138933 
22   0.144128 
23   0.137477 
24   0.130017 
25   0.129718 
26   0.125902 
27   0.131663 
28   0.123037 
29   0.12387 
30   0.128618 
31   0.122106 
32   0.121632 
33   0.136782 
34   0.119046 
35   0.11502 
 
>  <lowdin_charges> 
35 
1   -0.445882 
2   -0.447372 
3   -0.445672 
4   -0.447493 
5   -0.273468 
6   -0.278895 
7   -0.277051 
8   -0.278615 
9   -0.281101 
10   -0.1212 
11   -0.124181 
12   0.1487 
13   0.146429 
14   0.146965 
15   0.147887 
16   0.145819 
17   0.14696 
18   0.146816 
19   0.146384 
20   0.146219 
21   0.147492 
22   0.147191 
23   0.146038 
24   0.139716 
25   0.138875 
26   0.137863 
27   0.138495 
28   0.137823 
29   0.139362 
30   0.139953 
31   0.137099 
32   0.136993 
33   0.142595 
34   0.135276 
35   0.133978 
 
$$$$ 
 
