PCCDB-ID:  29160 
public computational chemistry database (PCCDB) project, http://pccdb.org 
 
 23 24  0  0  0  0  0  0  0  0999 V2000 
    0.8456    0.0926    0.0171 C   0  0  0  0  0  0  0  0  0  0  0  0 
    2.9014    0.0914    1.4935 C   0  0  0  0  0  0  0  0  0  0  0  0 
    4.1643   -2.9803   -2.4288 C   0  0  0  0  0  0  0  0  0  0  0  0 
    3.3904   -3.4225   -1.3523 C   0  0  0  0  0  0  0  0  0  0  0  0 
    4.3364   -1.6132   -2.6696 C   0  0  0  0  0  0  0  0  0  0  0  0 
    2.7712   -2.5028   -0.4934 C   0  0  0  0  0  0  0  0  0  0  0  0 
    3.7143    0.7680   -1.8059 C   0  0  0  0  0  0  0  0  0  0  0  0 
    2.9724    1.2087   -0.7741 C   0  0  0  0  0  0  0  0  0  0  0  0 
    3.7211   -0.6991   -1.8138 C   0  0  0  0  0  0  0  0  0  0  0  0 
    2.9383   -1.1447   -0.7273 C   0  0  0  0  0  0  0  0  0  0  0  0 
    2.3908    0.0584    0.0346 C   0  0  0  0  0  0  0  0  0  0  0  0 
    0.4738    1.0023    0.5042 H   0  0  0  0  0  0  0  0  0  0  0  0 
    0.4323   -0.7680    0.5561 H   0  0  0  0  0  0  0  0  0  0  0  0 
    0.4630    0.0704   -1.0082 H   0  0  0  0  0  0  0  0  0  0  0  0 
    2.5603    1.0011    2.0023 H   0  0  0  0  0  0  0  0  0  0  0  0 
    3.9952    0.0674    1.5283 H   0  0  0  0  0  0  0  0  0  0  0  0 
    2.5221   -0.7693    2.0567 H   0  0  0  0  0  0  0  0  0  0  0  0 
    4.6366   -3.7063   -3.0857 H   0  0  0  0  0  0  0  0  0  0  0  0 
    3.2667   -4.4883   -1.1792 H   0  0  0  0  0  0  0  0  0  0  0  0 
    4.9394   -1.2729   -3.5081 H   0  0  0  0  0  0  0  0  0  0  0  0 
    2.1702   -2.8585    0.3409 H   0  0  0  0  0  0  0  0  0  0  0  0 
    4.2374    1.3842   -2.5307 H   0  0  0  0  0  0  0  0  0  0  0  0 
    2.7852    2.2471   -0.5172 H   0  0  0  0  0  0  0  0  0  0  0  0 
  1 11  1  0  0  0  0 
  1 12  1  0  0  0  0 
  1 13  1  0  0  0  0 
  2 16  1  0  0  0  0 
  2 15  1  0  0  0  0 
  2 17  1  0  0  0  0 
  3  4  1  0  0  0  0 
  4 19  1  0  0  0  0 
  4  6  2  0  0  0  0 
  5  3  2  0  0  0  0 
  5  9  1  0  0  0  0 
  6 21  1  0  0  0  0 
  7  8  2  0  0  0  0 
  8 23  1  0  0  0  0 
  8 11  1  0  0  0  0 
  9  7  1  0  0  0  0 
  9 10  2  0  0  0  0 
 10  6  1  0  0  0  0 
 10 11  1  0  0  0  0 
 11  2  1  0  0  0  0 
 14  1  1  0  0  0  0 
 18  3  1  0  0  0  0 
 20  5  1  0  0  0  0 
 22  7  1  0  0  0  0 
M  END 
>  <HBA> 
0 
 
>  <HBD> 
0 
 
>  <TPSA> 
0.0 
 
>  <cid> 
29160 
 
>  <dipole> 
0.6 
 
>  <excitation_energy_1> 
4.705 
 
>  <excitation_energy_2> 
4.76 
 
>  <excitation_energy_3> 
5.401 
 
>  <excitation_energy_4> 
5.616 
 
>  <homo_energy> 
-5.725 
 
>  <homo_lumo_gap> 
5.203 
 
>  <logP> 
2.991 
 
>  <lumo_energy> 
-0.522 
 
>  <melting_point> 
59.87 
 
>  <molecular_refractivity> 
48.88 
 
>  <oscillator_strength_1> 
0.1279 
 
>  <oscillator_strength_2> 
0.0339 
 
>  <oscillator_strength_3> 
0.0104 
 
>  <oscillator_strength_4> 
0.2565 
 
>  <open_babel_can_smiles> 
CC1(C)C=Cc2c1cccc2 
 
>  <mulliken_charges> 
23 
1   -0.439258 
2   -0.439318 
3   -0.132431 
4   -0.137578 
5   -0.199035 
6   -0.191882 
7   -0.153142 
8   -0.136358 
9   0.113791 
10   0.099905 
11   -0.023184 
12   0.141206 
13   0.144442 
14   0.157708 
15   0.141232 
16   0.157734 
17   0.144475 
18   0.124918 
19   0.124252 
20   0.124727 
21   0.12161 
22   0.129098 
23   0.127088 
 
>  <lowdin_charges> 
23 
1   -0.43241 
2   -0.431136 
3   -0.160342 
4   -0.160913 
5   -0.16906 
6   -0.165184 
7   -0.168479 
8   -0.160437 
9   -0.010317 
10   -0.006263 
11   0.017061 
12   0.148784 
13   0.150528 
14   0.156637 
15   0.148749 
16   0.15546 
17   0.150478 
18   0.157198 
19   0.1539 
20   0.156421 
21   0.154474 
22   0.159356 
23   0.155492 
 
$$$$ 
 
