PCCDB-ID:  11957 
public computational chemistry database (PCCDB) project, http://pccdb.org 
 
 18 18  0  0  0  0  0  0  0  0999 V2000 
    1.5165   -0.3156    0.6990 C   0  0  0  0  0  0  0  0  0  0  0  0 
    4.2644   -3.5185   -2.2519 C   0  0  0  0  0  0  0  0  0  0  0  0 
    3.1923   -3.6748   -1.3773 C   0  0  0  0  0  0  0  0  0  0  0  0 
    4.8120   -2.2452   -2.4341 C   0  0  0  0  0  0  0  0  0  0  0  0 
    2.6684   -2.5784   -0.6896 C   0  0  0  0  0  0  0  0  0  0  0  0 
    4.3013   -1.1418   -1.7592 C   0  0  0  0  0  0  0  0  0  0  0  0 
    3.2199   -1.3033   -0.8749 C   0  0  0  0  0  0  0  0  0  0  0  0 
    3.3063    0.9992   -0.3387 N   0  0  0  0  0  0  0  0  0  0  0  0 
    2.6792   -0.1932   -0.1725 N   0  0  0  0  0  0  0  0  0  0  0  0 
    2.8309    1.9412    0.2786 O   0  0  0  0  0  0  0  0  0  0  0  0 
    0.6610   -0.7035    0.1379 H   0  0  0  0  0  0  0  0  0  0  0  0 
    1.2964    0.6854    1.0681 H   0  0  0  0  0  0  0  0  0  0  0  0 
    1.7337   -0.9806    1.5410 H   0  0  0  0  0  0  0  0  0  0  0  0 
    4.6701   -4.3735   -2.7847 H   0  0  0  0  0  0  0  0  0  0  0  0 
    2.7509   -4.6553   -1.2212 H   0  0  0  0  0  0  0  0  0  0  0  0 
    5.6477   -2.1046   -3.1143 H   0  0  0  0  0  0  0  0  0  0  0  0 
    1.8360   -2.7287   -0.0122 H   0  0  0  0  0  0  0  0  0  0  0  0 
    4.7285   -0.1591   -1.9081 H   0  0  0  0  0  0  0  0  0  0  0  0 
  1 12  1  0  0  0  0 
  1 13  1  0  0  0  0 
  2  3  1  0  0  0  0 
  3 15  1  0  0  0  0 
  3  5  2  0  0  0  0 
  4  2  2  0  0  0  0 
  4  6  1  0  0  0  0 
  5 17  1  0  0  0  0 
  6  7  2  0  0  0  0 
  7  5  1  0  0  0  0 
  7  9  1  0  0  0  0 
  8  9  1  0  0  0  0 
  8 10  2  0  0  0  0 
  9  1  1  0  0  0  0 
 11  1  1  0  0  0  0 
 14  2  1  0  0  0  0 
 16  4  1  0  0  0  0 
 18  6  1  0  0  0  0 
M  END 
>  <HBA> 
3 
 
>  <HBD> 
0 
 
>  <TPSA> 
32.67 
 
>  <cid> 
11957 
 
>  <dipole> 
3.36 
 
>  <excitation_energy_1> 
3.123 
 
>  <excitation_energy_2> 
4.271 
 
>  <excitation_energy_3> 
4.641 
 
>  <excitation_energy_4> 
5.324 
 
>  <homo_energy> 
-6.221 
 
>  <homo_lumo_gap> 
4.716 
 
>  <logP> 
1.804 
 
>  <lumo_energy> 
-1.505 
 
>  <melting_point> 
32.38 
 
>  <molecular_refractivity> 
40.58 
 
>  <oscillator_strength_1> 
0.0009 
 
>  <oscillator_strength_2> 
0.2234 
 
>  <oscillator_strength_3> 
0.0054 
 
>  <oscillator_strength_4> 
0.0543 
 
>  <open_babel_can_smiles> 
O=NN(c1ccccc1)C 
 
>  <mulliken_charges> 
18 
1   -0.351648 
2   -0.122912 
3   -0.137255 
4   -0.141133 
5   -0.184686 
6   -0.157627 
7   0.351054 
8   0.179193 
9   -0.352901 
10   -0.367459 
11   0.178082 
12   0.216344 
13   0.178028 
14   0.13313 
15   0.135283 
16   0.138228 
17   0.136917 
18   0.169365 
 
>  <lowdin_charges> 
18 
1   -0.380806 
2   -0.165829 
3   -0.146863 
4   -0.143899 
5   -0.188971 
6   -0.172123 
7   0.047062 
8   0.065045 
9   -0.018627 
10   -0.244145 
11   0.167182 
12   0.189013 
13   0.166066 
14   0.161337 
15   0.16058 
16   0.162424 
17   0.164437 
18   0.178117 
 
$$$$ 
 
