PCCDB-ID:  70792 
public computational chemistry database (PCCDB) project, http://pccdb.org 
 
 30 30  0  0  0  0  0  0  0  0999 V2000 
    2.5086   -0.4360    0.8268 C   0  0  0  0  0  0  0  0  0  0  0  0 
    4.8512   -1.3834    1.1021 C   0  0  0  0  0  0  0  0  0  0  0  0 
    7.1964    4.4676   -0.3962 C   0  0  0  0  0  0  0  0  0  0  0  0 
    7.5257    2.9881   -0.6511 C   0  0  0  0  0  0  0  0  0  0  0  0 
    5.7086    4.6579   -0.0612 C   0  0  0  0  0  0  0  0  0  0  0  0 
    6.6278    2.3936   -1.7473 C   0  0  0  0  0  0  0  0  0  0  0  0 
    4.8059    4.0631   -1.1544 C   0  0  0  0  0  0  0  0  0  0  0  0 
    4.0138   -0.1145    0.8753 C   0  0  0  0  0  0  0  0  0  0  0  0 
    5.1371    2.5995   -1.4529 C   0  0  0  0  0  0  0  0  0  0  0  0 
    4.4227    0.5429   -0.4366 C   0  0  0  0  0  0  0  0  0  0  0  0 
    4.4297   -0.0242   -1.5105 O   0  0  0  0  0  0  0  0  0  0  0  0 
    4.7576    1.8409   -0.2630 O   0  0  0  0  0  0  0  0  0  0  0  0 
    2.1942   -0.9203    1.7579 H   0  0  0  0  0  0  0  0  0  0  0  0 
    2.2904   -1.1118   -0.0066 H   0  0  0  0  0  0  0  0  0  0  0  0 
    1.9089    0.4720    0.6975 H   0  0  0  0  0  0  0  0  0  0  0  0 
    4.5505   -1.8754    2.0336 H   0  0  0  0  0  0  0  0  0  0  0  0 
    5.9201   -1.1520    1.1709 H   0  0  0  0  0  0  0  0  0  0  0  0 
    4.7092   -2.0860    0.2750 H   0  0  0  0  0  0  0  0  0  0  0  0 
    7.4450    5.0543   -1.2936 H   0  0  0  0  0  0  0  0  0  0  0  0 
    7.8207    4.8612    0.4158 H   0  0  0  0  0  0  0  0  0  0  0  0 
    7.3850    2.4203    0.2784 H   0  0  0  0  0  0  0  0  0  0  0  0 
    8.5798    2.8730   -0.9325 H   0  0  0  0  0  0  0  0  0  0  0  0 
    5.4786    5.7226    0.0704 H   0  0  0  0  0  0  0  0  0  0  0  0 
    5.4848    4.1660    0.8943 H   0  0  0  0  0  0  0  0  0  0  0  0 
    6.8234    1.3255   -1.8894 H   0  0  0  0  0  0  0  0  0  0  0  0 
    6.8441    2.8845   -2.7071 H   0  0  0  0  0  0  0  0  0  0  0  0 
    4.9367    4.6278   -2.0884 H   0  0  0  0  0  0  0  0  0  0  0  0 
    3.7487    4.1476   -0.8761 H   0  0  0  0  0  0  0  0  0  0  0  0 
    4.2025    0.5998    1.6835 H   0  0  0  0  0  0  0  0  0  0  0  0 
    4.5364    2.2202   -2.2838 H   0  0  0  0  0  0  0  0  0  0  0  0 
  1  8  1  0  0  0  0 
  1 13  1  0  0  0  0 
  2 17  1  0  0  0  0 
  2 16  1  0  0  0  0 
  3  5  1  0  0  0  0 
  3 20  1  0  0  0  0 
  4  3  1  0  0  0  0 
  4 21  1  0  0  0  0 
  5 23  1  0  0  0  0 
  5 24  1  0  0  0  0 
  6  9  1  0  0  0  0 
  6  4  1  0  0  0  0 
  7 28  1  0  0  0  0 
  7  5  1  0  0  0  0 
  8  2  1  0  0  0  0 
  8 29  1  0  0  0  0 
  9  7  1  0  0  0  0 
  9 12  1  0  0  0  0 
 10 12  1  0  0  0  0 
 10  8  1  0  0  0  0 
 11 10  2  0  0  0  0 
 14  1  1  0  0  0  0 
 15  1  1  0  0  0  0 
 18  2  1  0  0  0  0 
 19  3  1  0  0  0  0 
 22  4  1  0  0  0  0 
 25  6  1  0  0  0  0 
 26  6  1  0  0  0  0 
 27  7  1  0  0  0  0 
 30  9  1  0  0  0  0 
M  END 
>  <HBA> 
2 
 
>  <HBD> 
0 
 
>  <TPSA> 
26.3 
 
>  <cid> 
70792 
 
>  <dipole> 
1.8 
 
>  <excitation_energy_1> 
5.751 
 
>  <excitation_energy_2> 
6.732 
 
>  <excitation_energy_3> 
7.074 
 
>  <excitation_energy_4> 
7.236 
 
>  <homo_energy> 
-7.124 
 
>  <homo_lumo_gap> 
7.611 
 
>  <logP> 
2.518 
 
>  <lumo_energy> 
0.487 
 
>  <melting_point> 
5.8 
 
>  <molecular_refractivity> 
49.35 
 
>  <oscillator_strength_1> 
0.0015 
 
>  <oscillator_strength_2> 
0.0092 
 
>  <oscillator_strength_3> 
0.003 
 
>  <oscillator_strength_4> 
0.0062 
 
>  <open_babel_can_smiles> 
CC(C(=O)OC1CCCCC1)C 
 
>  <mulliken_charges> 
30 
1   -0.450547 
2   -0.448407 
3   -0.259983 
4   -0.260349 
5   -0.261325 
6   -0.28201 
7   -0.275421 
8   -0.15544 
9   0.117834 
10   0.630042 
11   -0.491804 
12   -0.478792 
13   0.148075 
14   0.167655 
15   0.150927 
16   0.145071 
17   0.148634 
18   0.169378 
19   0.126066 
20   0.132472 
21   0.139553 
22   0.133037 
23   0.131876 
24   0.145909 
25   0.159229 
26   0.134151 
27   0.135523 
28   0.142706 
29   0.148082 
30   0.157857 
 
>  <lowdin_charges> 
30 
1   -0.43922 
2   -0.43827 
3   -0.279881 
4   -0.278948 
5   -0.278545 
6   -0.286432 
7   -0.28198 
8   -0.144133 
9   0.000281 
10   0.200527 
11   -0.277309 
12   -0.197732 
13   0.152899 
14   0.161112 
15   0.153388 
16   0.151607 
17   0.150597 
18   0.162345 
19   0.136624 
20   0.145618 
21   0.143321 
22   0.143959 
23   0.143109 
24   0.146118 
25   0.15684 
26   0.146727 
27   0.146657 
28   0.149543 
29   0.153917 
30   0.157261 
 
$$$$ 
 
