PCCDB-ID:  47236 
public computational chemistry database (PCCDB) project, http://pccdb.org 
 
 13 13  0  0  0  0  0  0  0  0999 V2000 
   -1.1808    0.1260   -0.1431 C   0  0  0  0  0  0  0  0  0  0  0  0 
   -0.3018   -0.9861   -0.3287 C   0  0  0  0  0  0  0  0  0  0  0  0 
   -0.5881    1.2005    0.4514 C   0  0  0  0  0  0  0  0  0  0  0  0 
    0.9646   -0.7410    0.1434 C   0  0  0  0  0  0  0  0  0  0  0  0 
    3.3710   -1.0952    0.1411 N   0  0  0  0  0  0  0  0  0  0  0  0 
    2.0520   -1.6111    0.2157 N   0  0  0  0  0  0  0  0  0  0  0  0 
    1.0890    0.8740    0.8225 S   0  0  0  0  0  0  0  0  0  0  0  0 
   -2.2190    0.1218   -0.4593 H   0  0  0  0  0  0  0  0  0  0  0  0 
   -0.5949   -1.9241   -0.7884 H   0  0  0  0  0  0  0  0  0  0  0  0 
   -1.0057    2.1706    0.6807 H   0  0  0  0  0  0  0  0  0  0  0  0 
    3.6518   -0.8152    1.0789 H   0  0  0  0  0  0  0  0  0  0  0  0 
    3.3961   -0.2615   -0.4524 H   0  0  0  0  0  0  0  0  0  0  0  0 
    1.9569   -2.4081   -0.4041 H   0  0  0  0  0  0  0  0  0  0  0  0 
  1  3  2  0  0  0  0 
  2  1  1  0  0  0  0 
  2  4  2  0  0  0  0 
  3 10  1  0  0  0  0 
  3  7  1  0  0  0  0 
  4  6  1  0  0  0  0 
  4  7  1  0  0  0  0 
  5  6  1  0  0  0  0 
  5 11  1  0  0  0  0 
  8  1  1  0  0  0  0 
  9  2  1  0  0  0  0 
 12  5  1  0  0  0  0 
 13  6  1  0  0  0  0 
M  END 
>  <HBA> 
3 
 
>  <HBD> 
2 
 
>  <TPSA> 
66.29 
 
>  <cid> 
47236 
 
>  <dipole> 
0.74 
 
>  <excitation_energy_1> 
4.587 
 
>  <excitation_energy_2> 
4.665 
 
>  <excitation_energy_3> 
4.908 
 
>  <excitation_energy_4> 
5.238 
 
>  <homo_energy> 
-5.238 
 
>  <homo_lumo_gap> 
5.377 
 
>  <logP> 
1.807 
 
>  <lumo_energy> 
0.139 
 
>  <melting_point> 
92.01 
 
>  <molecular_refractivity> 
31.53 
 
>  <oscillator_strength_1> 
0.0393 
 
>  <oscillator_strength_2> 
0.0195 
 
>  <oscillator_strength_3> 
0.1202 
 
>  <oscillator_strength_4> 
0.0047 
 
>  <open_babel_can_smiles> 
NNc1cccs1 
 
>  <mulliken_charges> 
13 
1   -0.092952 
2   -0.149162 
3   -0.353753 
4   0.059817 
5   -0.583192 
6   -0.491331 
7   0.201371 
8   0.137498 
9   0.12812 
10   0.165824 
11   0.331482 
12   0.31089 
13   0.335388 
 
>  <lowdin_charges> 
13 
1   -0.165779 
2   -0.244978 
3   -0.342908 
4   -0.104928 
5   -0.46503 
6   -0.243346 
7   0.260128 
8   0.162563 
9   0.161013 
10   0.180174 
11   0.267894 
12   0.25383 
13   0.281366 
 
$$$$ 
 
