PCCDB-ID:  11863 
public computational chemistry database (PCCDB) project, http://pccdb.org 
 
 26 25  0  0  0  0  0  0  0  0999 V2000 
    3.1553   -1.0768    1.0796 C   0  0  0  0  0  0  0  0  0  0  0  0 
    2.9986    3.3738    1.0321 C   0  0  0  0  0  0  0  0  0  0  0  0 
    6.3583    1.2859   -0.8749 C   0  0  0  0  0  0  0  0  0  0  0  0 
    6.7814    0.8700    1.5814 C   0  0  0  0  0  0  0  0  0  0  0  0 
    3.5862    0.2633    1.6886 C   0  0  0  0  0  0  0  0  0  0  0  0 
    4.3394    2.6566    1.2355 C   0  0  0  0  0  0  0  0  0  0  0  0 
    5.7928    0.6770    0.4188 C   0  0  0  0  0  0  0  0  0  0  0  0 
    4.3562    1.1962    0.7254 C   0  0  0  0  0  0  0  0  0  0  0  0 
    2.5939   -1.6752    1.8065 H   0  0  0  0  0  0  0  0  0  0  0  0 
    4.0106   -1.6792    0.7534 H   0  0  0  0  0  0  0  0  0  0  0  0 
    2.5086   -0.9219    0.2069 H   0  0  0  0  0  0  0  0  0  0  0  0 
    3.0418    4.4026    1.4080 H   0  0  0  0  0  0  0  0  0  0  0  0 
    2.1770    2.8696    1.5537 H   0  0  0  0  0  0  0  0  0  0  0  0 
    2.7351    3.4190   -0.0319 H   0  0  0  0  0  0  0  0  0  0  0  0 
    7.3450    0.8663   -1.1052 H   0  0  0  0  0  0  0  0  0  0  0  0 
    6.4784    2.3733   -0.7965 H   0  0  0  0  0  0  0  0  0  0  0  0 
    5.7013    1.0845   -1.7296 H   0  0  0  0  0  0  0  0  0  0  0  0 
    7.7362    0.3801    1.3565 H   0  0  0  0  0  0  0  0  0  0  0  0 
    6.4075    0.4432    2.5189 H   0  0  0  0  0  0  0  0  0  0  0  0 
    6.9929    1.9312    1.7587 H   0  0  0  0  0  0  0  0  0  0  0  0 
    4.1958    0.0806    2.5845 H   0  0  0  0  0  0  0  0  0  0  0  0 
    2.6873    0.7826    2.0444 H   0  0  0  0  0  0  0  0  0  0  0  0 
    4.6027    2.6734    2.3023 H   0  0  0  0  0  0  0  0  0  0  0  0 
    5.1183    3.2370    0.7246 H   0  0  0  0  0  0  0  0  0  0  0  0 
    5.7085   -0.4048    0.2431 H   0  0  0  0  0  0  0  0  0  0  0  0 
    3.8135    1.1840   -0.2343 H   0  0  0  0  0  0  0  0  0  0  0  0 
  1  5  1  0  0  0  0 
  1  9  1  0  0  0  0 
  2  6  1  0  0  0  0 
  2 12  1  0  0  0  0 
  2 13  1  0  0  0  0 
  3 16  1  0  0  0  0 
  3  7  1  0  0  0  0 
  4 20  1  0  0  0  0 
  4 19  1  0  0  0  0 
  5 22  1  0  0  0  0 
  5 21  1  0  0  0  0 
  6 23  1  0  0  0  0 
  7  8  1  0  0  0  0 
  7  4  1  0  0  0  0 
  8  6  1  0  0  0  0 
  8  5  1  0  0  0  0 
 10  1  1  0  0  0  0 
 11  1  1  0  0  0  0 
 14  2  1  0  0  0  0 
 15  3  1  0  0  0  0 
 17  3  1  0  0  0  0 
 18  4  1  0  0  0  0 
 24  6  1  0  0  0  0 
 25  7  1  0  0  0  0 
 26  8  1  0  0  0  0 
M  END 
>  <HBA> 
0 
 
>  <HBD> 
0 
 
>  <TPSA> 
0.0 
 
>  <cid> 
11863 
 
>  <dipole> 
0.04 
 
>  <excitation_energy_1> 
7.479 
 
>  <excitation_energy_2> 
7.579 
 
>  <excitation_energy_3> 
7.808 
 
>  <excitation_energy_4> 
7.849 
 
>  <homo_energy> 
-7.949 
 
>  <homo_lumo_gap> 
10.207 
 
>  <logP> 
3.079 
 
>  <lumo_energy> 
2.259 
 
>  <melting_point> 
-27.89 
 
>  <molecular_refractivity> 
40.57 
 
>  <oscillator_strength_1> 
0.006 
 
>  <oscillator_strength_2> 
0.0041 
 
>  <oscillator_strength_3> 
0.0078 
 
>  <oscillator_strength_4> 
0.0142 
 
>  <open_babel_can_smiles> 
CCC(C(C)C)CC 
 
>  <mulliken_charges> 
26 
1   -0.449265 
2   -0.449652 
3   -0.448993 
4   -0.450777 
5   -0.265971 
6   -0.26559 
7   -0.078029 
8   -0.049968 
9   0.14098 
10   0.146155 
11   0.141388 
12   0.140911 
13   0.145067 
14   0.141563 
15   0.138385 
16   0.141362 
17   0.138808 
18   0.138656 
19   0.142311 
20   0.143093 
21   0.130822 
22   0.132379 
23   0.132076 
24   0.132309 
25   0.122213 
26   0.109768 
 
>  <lowdin_charges> 
26 
1   -0.449437 
2   -0.444248 
3   -0.444327 
4   -0.447128 
5   -0.278168 
6   -0.276734 
7   -0.121959 
8   -0.127772 
9   0.150702 
10   0.146804 
11   0.146206 
12   0.147955 
13   0.146781 
14   0.144262 
15   0.146963 
16   0.14282 
17   0.146922 
18   0.148031 
19   0.146942 
20   0.145659 
21   0.139115 
22   0.142512 
23   0.138596 
24   0.142002 
25   0.135408 
26   0.132092 
 
$$$$ 
 
