PCCDB-ID:  41898 
public computational chemistry database (PCCDB) project, http://pccdb.org 
 
 30 31  0  0  1  0  0  0  0  0999 V2000 
    3.5259    1.0223   -0.1900 C   0  0  0  0  0  0  0  0  0  0  0  0 
   -1.0580    1.4152    2.9899 C   0  0  0  0  0  0  0  0  0  0  0  0 
    0.1325    2.1279    3.1066 C   0  0  0  0  0  0  0  0  0  0  0  0 
    0.7843   -2.4293    0.6959 C   0  0  0  0  0  0  0  0  0  0  0  0 
   -1.0155    0.0620    2.6517 C   0  0  0  0  0  0  0  0  0  0  0  0 
    1.3453    1.4763    2.8787 C   0  0  0  0  0  0  0  0  0  0  0  0 
    0.1773   -2.0763    2.0693 C   0  0  0  0  0  0  0  0  0  0  0  0 
    2.3182   -2.4600    0.6672 C   0  0  0  0  0  0  0  0  0  0  0  0 
    2.7530   -0.5321    2.3218 C   0  0  0  0  0  0  0  0  0  0  0  0 
    0.1949   -0.6023    2.4214 C   0  0  0  0  0  0  0  0  0  0  0  0 
    1.4009    0.1213    2.5310 C   0  0  0  0  0  0  0  0  0  0  0  0 
    3.0381   -1.1239    0.9171 C   0  0  2  0  0  0  0  0  0  0  0  0 
    2.7007   -0.1795   -0.1507 N   0  0  0  0  0  0  0  0  0  0  0  0 
    3.3109    1.5740   -1.1109 H   0  0  0  0  0  0  0  0  0  0  0  0 
    4.6148    0.8251   -0.1519 H   0  0  0  0  0  0  0  0  0  0  0  0 
    3.2739    1.6795    0.6482 H   0  0  0  0  0  0  0  0  0  0  0  0 
   -2.0137    1.9033    3.1627 H   0  0  0  0  0  0  0  0  0  0  0  0 
    0.1224    3.1814    3.3739 H   0  0  0  0  0  0  0  0  0  0  0  0 
    0.4112   -1.7242   -0.0556 H   0  0  0  0  0  0  0  0  0  0  0  0 
    0.4230   -3.4251    0.4059 H   0  0  0  0  0  0  0  0  0  0  0  0 
   -1.9453   -0.4966    2.5660 H   0  0  0  0  0  0  0  0  0  0  0  0 
    2.2756    2.0319    2.9781 H   0  0  0  0  0  0  0  0  0  0  0  0 
    0.7039   -2.6544    2.8455 H   0  0  0  0  0  0  0  0  0  0  0  0 
   -0.8629   -2.4221    2.0939 H   0  0  0  0  0  0  0  0  0  0  0  0 
    2.6482   -2.8480   -0.3085 H   0  0  0  0  0  0  0  0  0  0  0  0 
    2.6782   -3.1839    1.4120 H   0  0  0  0  0  0  0  0  0  0  0  0 
    2.8957   -1.3464    3.0476 H   0  0  0  0  0  0  0  0  0  0  0  0 
    3.5298    0.2055    2.5539 H   0  0  0  0  0  0  0  0  0  0  0  0 
    4.1250   -1.3519    0.9138 H   0  0  0  0  0  0  0  0  0  0  0  0 
    2.7919   -0.6663   -1.0407 H   0  0  0  0  0  0  0  0  0  0  0  0 
  1 15  1  0  0  0  0 
  1 13  1  0  0  0  0 
  1 16  1  0  0  0  0 
  2  3  1  0  0  0  0 
  2 17  1  0  0  0  0 
  3 18  1  0  0  0  0 
  4  7  1  0  0  0  0 
  5  2  2  0  0  0  0 
  6 22  1  0  0  0  0 
  6  3  2  0  0  0  0 
  7 24  1  0  0  0  0 
  7 10  1  0  0  0  0 
  7 23  1  0  0  0  0 
  8  4  1  0  0  0  0 
  8 12  1  0  0  0  0 
  8 26  1  0  0  0  0 
  9 11  1  0  0  0  0 
  9 28  1  0  0  0  0 
  9 27  1  0  0  0  0 
 10 11  2  0  0  0  0 
 10  5  1  0  0  0  0 
 11  6  1  0  0  0  0 
 12 29  1  6  0  0  0 
 12  9  1  0  0  0  0 
 13 12  1  0  0  0  0 
 14  1  1  0  0  0  0 
 19  4  1  0  0  0  0 
 20  4  1  0  0  0  0 
 21  5  1  0  0  0  0 
 25  8  1  0  0  0  0 
 30 13  1  0  0  0  0 
M  END 
>  <HBA> 
1 
 
>  <HBD> 
1 
 
>  <TPSA> 
12.03 
 
>  <cid> 
41898 
 
>  <dipole> 
1.38 
 
>  <excitation_energy_1> 
5.146 
 
>  <excitation_energy_2> 
5.207 
 
>  <excitation_energy_3> 
5.275 
 
>  <excitation_energy_4> 
5.34 
 
>  <homo_energy> 
-5.842 
 
>  <homo_lumo_gap> 
6.098 
 
>  <logP> 
2.544 
 
>  <lumo_energy> 
0.256 
 
>  <melting_point> 
59.09 
 
>  <molecular_refractivity> 
56.29 
 
>  <oscillator_strength_1> 
0.0018 
 
>  <oscillator_strength_2> 
0.0113 
 
>  <oscillator_strength_3> 
0.0031 
 
>  <oscillator_strength_4> 
0.0049 
 
>  <open_babel_can_smiles> 
CN[C@@H]1CCCc2c(C1)cccc2 
 
>  <mulliken_charges> 
30 
1   -0.306745 
2   -0.126554 
3   -0.127989 
4   -0.243366 
5   -0.194847 
6   -0.199419 
7   -0.35718 
8   -0.287917 
9   -0.384371 
10   0.135564 
11   0.172529 
12   0.071327 
13   -0.536699 
14   0.146829 
15   0.115424 
16   0.158687 
17   0.122458 
18   0.12218 
19   0.155332 
20   0.12712 
21   0.117615 
22   0.116479 
23   0.138862 
24   0.137952 
25   0.123055 
26   0.129368 
27   0.144255 
28   0.141542 
29   0.097191 
30   0.291319 
 
>  <lowdin_charges> 
30 
1   -0.360258 
2   -0.161878 
3   -0.160014 
4   -0.276125 
5   -0.168544 
6   -0.169223 
7   -0.275636 
8   -0.283767 
9   -0.286074 
10   -0.005275 
11   -0.001302 
12   -0.05965 
13   -0.359398 
14   0.151609 
15   0.116422 
16   0.151216 
17   0.15471 
18   0.152963 
19   0.154022 
20   0.142032 
21   0.151611 
22   0.150094 
23   0.146711 
24   0.147844 
25   0.1382 
26   0.142353 
27   0.153386 
28   0.150619 
29   0.111742 
30   0.251611 
 
$$$$ 
 
