PCCDB-ID:  38257 
public computational chemistry database (PCCDB) project, http://pccdb.org 
 
 40 42  0  0  1  0  0  0  0  0999 V2000 
    9.4353    0.7248    8.4302 C   0  0  0  0  0  0  0  0  0  0  0  0 
    8.5498   -0.4946    8.1355 C   0  0  0  0  0  0  0  0  0  0  0  0 
    7.3415   -0.2035    7.2186 C   0  0  0  0  0  0  0  0  0  0  0  0 
    7.5971   -0.3652    5.7133 C   0  0  0  0  0  0  0  0  0  0  0  0 
   11.2517    0.5683    1.2840 C   0  0  0  0  0  0  0  0  0  0  0  0 
    8.8790   -0.2617    1.4206 C   0  0  0  0  0  0  0  0  0  0  0  0 
    9.3842    2.1691    1.8226 C   0  0  0  0  0  0  0  0  0  0  0  0 
   10.5392   -0.8976    3.2036 C   0  0  0  0  0  0  0  0  0  0  0  0 
   11.0436    1.5356    3.5997 C   0  0  0  0  0  0  0  0  0  0  0  0 
    9.7760    0.9218    1.0032 C   0  0  1  0  0  0  0  0  0  0  0  0 
   11.4414    0.2840    2.7892 C   0  0  2  0  0  0  0  0  0  0  0  0 
    9.0606   -0.5509    2.9267 C   0  0  1  0  0  0  0  0  0  0  0  0 
    9.5630    1.8853    3.3298 C   0  0  2  0  0  0  0  0  0  0  0  0 
    8.6393    0.7113    3.7373 C   0  0  2  0  0  0  0  0  0  0  0  0 
    8.5986    0.5696    5.1969 N   0  0  0  0  0  0  0  0  0  0  0  0 
   10.2903    0.4511    9.0599 H   0  0  0  0  0  0  0  0  0  0  0  0 
    8.8632    1.4946    8.9623 H   0  0  0  0  0  0  0  0  0  0  0  0 
    9.8170    1.1889    7.5156 H   0  0  0  0  0  0  0  0  0  0  0  0 
    8.1847   -0.8911    9.0920 H   0  0  0  0  0  0  0  0  0  0  0  0 
    9.1552   -1.3016    7.6954 H   0  0  0  0  0  0  0  0  0  0  0  0 
    6.9728    0.8129    7.4098 H   0  0  0  0  0  0  0  0  0  0  0  0 
    6.5233   -0.8898    7.4767 H   0  0  0  0  0  0  0  0  0  0  0  0 
    6.6592   -0.1646    5.1785 H   0  0  0  0  0  0  0  0  0  0  0  0 
    7.8450   -1.4248    5.5124 H   0  0  0  0  0  0  0  0  0  0  0  0 
   11.9041    1.3958    0.9721 H   0  0  0  0  0  0  0  0  0  0  0  0 
   11.5482   -0.3105    0.6942 H   0  0  0  0  0  0  0  0  0  0  0  0 
    9.1336   -1.1545    0.8324 H   0  0  0  0  0  0  0  0  0  0  0  0 
    7.8261   -0.0305    1.2059 H   0  0  0  0  0  0  0  0  0  0  0  0 
    8.3421    2.4473    1.6124 H   0  0  0  0  0  0  0  0  0  0  0  0 
   10.0067    3.0254    1.5278 H   0  0  0  0  0  0  0  0  0  0  0  0 
   10.6896   -1.1338    4.2668 H   0  0  0  0  0  0  0  0  0  0  0  0 
   10.8194   -1.8023    2.6465 H   0  0  0  0  0  0  0  0  0  0  0  0 
   11.6798    2.3860    3.3179 H   0  0  0  0  0  0  0  0  0  0  0  0 
   11.2167    1.3686    4.6720 H   0  0  0  0  0  0  0  0  0  0  0  0 
    9.6428    1.1261   -0.0676 H   0  0  0  0  0  0  0  0  0  0  0  0 
   12.4923    0.0335    2.9868 H   0  0  0  0  0  0  0  0  0  0  0  0 
    8.4232   -1.3980    3.2120 H   0  0  0  0  0  0  0  0  0  0  0  0 
    9.2758    2.7652    3.9179 H   0  0  0  0  0  0  0  0  0  0  0  0 
    7.6131    0.9737    3.4390 H   0  0  0  0  0  0  0  0  0  0  0  0 
    9.5160    0.3005    5.5428 H   0  0  0  0  0  0  0  0  0  0  0  0 
  1 17  1  0  0  0  0 
  1 16  1  0  0  0  0 
  2  1  1  0  0  0  0 
  2 19  1  0  0  0  0 
  3 21  1  0  0  0  0 
  3 22  1  0  0  0  0 
  3  2  1  0  0  0  0 
  4  3  1  0  0  0  0 
  5 11  1  0  0  0  0 
  6 12  1  0  0  0  0 
  7 13  1  0  0  0  0 
  8 31  1  0  0  0  0 
  9 34  1  0  0  0  0 
 10 35  1  6  0  0  0 
 10  5  1  0  0  0  0 
 10  6  1  0  0  0  0 
 10  7  1  0  0  0  0 
 11 36  1  1  0  0  0 
 11  8  1  0  0  0  0 
 11  9  1  0  0  0  0 
 12  8  1  0  0  0  0 
 12 37  1  1  0  0  0 
 12 14  1  0  0  0  0 
 13  9  1  0  0  0  0 
 13 14  1  0  0  0  0 
 13 38  1  1  0  0  0 
 14 39  1  6  0  0  0 
 14 15  1  0  0  0  0 
 15 40  1  0  0  0  0 
 15  4  1  0  0  0  0 
 18  1  1  0  0  0  0 
 20  2  1  0  0  0  0 
 23  4  1  0  0  0  0 
 24  4  1  0  0  0  0 
 25  5  1  0  0  0  0 
 26  5  1  0  0  0  0 
 27  6  1  0  0  0  0 
 28  6  1  0  0  0  0 
 29  7  1  0  0  0  0 
 30  7  1  0  0  0  0 
 32  8  1  0  0  0  0 
 33  9  1  0  0  0  0 
M  END 
>  <HBA> 
1 
 
>  <HBD> 
1 
 
>  <TPSA> 
12.03 
 
>  <cid> 
38257 
 
>  <dipole> 
0.84 
 
>  <excitation_energy_1> 
5.053 
 
>  <excitation_energy_2> 
5.394 
 
>  <excitation_energy_3> 
5.494 
 
>  <excitation_energy_4> 
5.67 
 
>  <homo_energy> 
-5.646 
 
>  <homo_lumo_gap> 
7.358 
 
>  <logP> 
3.592 
 
>  <lumo_energy> 
1.712 
 
>  <melting_point> 
63.04 
 
>  <molecular_refractivity> 
65.87 
 
>  <oscillator_strength_1> 
0.0028 
 
>  <oscillator_strength_2> 
0.0023 
 
>  <oscillator_strength_3> 
0.0086 
 
>  <oscillator_strength_4> 
0.0361 
 
>  <open_babel_can_smiles> 
CCCCN[C@@H]1[C@@H]2C[C@@H]3C[C@H]1C[C@H](C2)C3 
 
>  <mulliken_charges> 
40 
1   -0.445292 
2   -0.259027 
3   -0.246724 
4   -0.12621 
5   -0.265301 
6   -0.26991 
7   -0.271635 
8   -0.275845 
9   -0.282404 
10   -0.085902 
11   -0.084711 
12   -0.101002 
13   -0.089977 
14   0.042532 
15   -0.576769 
16   0.136063 
17   0.143895 
18   0.153194 
19   0.133735 
20   0.124945 
21   0.139453 
22   0.124382 
23   0.132682 
24   0.112876 
25   0.124634 
26   0.12404 
27   0.124565 
28   0.124815 
29   0.125539 
30   0.125159 
31   0.118373 
32   0.127761 
33   0.128117 
34   0.1248 
35   0.1142 
36   0.114023 
37   0.117251 
38   0.126097 
39   0.115733 
40   0.301843 
 
>  <lowdin_charges> 
40 
1   -0.451054 
2   -0.278665 
3   -0.280899 
4   -0.200191 
5   -0.282675 
6   -0.27962 
7   -0.28008 
8   -0.282675 
9   -0.282595 
10   -0.129537 
11   -0.12962 
12   -0.149903 
13   -0.135756 
14   -0.071121 
15   -0.362328 
16   0.146236 
17   0.148944 
18   0.15049 
19   0.143133 
20   0.136153 
21   0.145134 
22   0.142993 
23   0.141361 
24   0.113876 
25   0.140008 
26   0.139424 
27   0.139786 
28   0.137704 
29   0.138244 
30   0.140496 
31   0.132868 
32   0.141764 
33   0.142281 
34   0.135554 
35   0.136344 
36   0.136375 
37   0.139568 
38   0.146051 
39   0.134156 
40   0.247776 
 
$$$$ 
 
