PCCDB-ID:  35030 
public computational chemistry database (PCCDB) project, http://pccdb.org 
 
 31 31  0  0  0  0  0  0  0  0999 V2000 
    1.1037    1.3156    0.3404 C   0  0  0  0  0  0  0  0  0  0  0  0 
    2.5480    3.0179    1.5744 C   0  0  0  0  0  0  0  0  0  0  0  0 
    9.8363   -1.0858   -0.4409 C   0  0  0  0  0  0  0  0  0  0  0  0 
    8.9223   -0.4016   -2.7224 C   0  0  0  0  0  0  0  0  0  0  0  0 
    2.3832    2.1389    0.3410 C   0  0  0  0  0  0  0  0  0  0  0  0 
    8.9758   -0.1085   -1.2278 C   0  0  0  0  0  0  0  0  0  0  0  0 
    6.1526    2.9666   -1.2941 C   0  0  0  0  0  0  0  0  0  0  0  0 
    4.6350    1.5553   -0.2488 C   0  0  0  0  0  0  0  0  0  0  0  0 
    6.8144    0.8198   -0.7589 C   0  0  0  0  0  0  0  0  0  0  0  0 
    6.4631    4.0933   -1.8131 N   0  0  0  0  0  0  0  0  0  0  0  0 
    4.8666    2.7165   -0.7395 N   0  0  0  0  0  0  0  0  0  0  0  0 
    7.1278    1.9456   -1.2774 N   0  0  0  0  0  0  0  0  0  0  0  0 
    5.5694    0.5395   -0.2205 N   0  0  0  0  0  0  0  0  0  0  0  0 
    3.4761    1.1646    0.2907 O   0  0  0  0  0  0  0  0  0  0  0  0 
    7.6282   -0.2359   -0.6635 O   0  0  0  0  0  0  0  0  0  0  0  0 
    0.2351    1.9827    0.3567 H   0  0  0  0  0  0  0  0  0  0  0  0 
    1.0547    0.6678    1.2226 H   0  0  0  0  0  0  0  0  0  0  0  0 
    1.0404    0.6901   -0.5554 H   0  0  0  0  0  0  0  0  0  0  0  0 
    1.7262    3.7406    1.6305 H   0  0  0  0  0  0  0  0  0  0  0  0 
    3.4877    3.5743    1.5269 H   0  0  0  0  0  0  0  0  0  0  0  0 
    2.5350    2.4116    2.4871 H   0  0  0  0  0  0  0  0  0  0  0  0 
   10.8706   -1.0389   -0.7977 H   0  0  0  0  0  0  0  0  0  0  0  0 
    9.4757   -2.1128   -0.5665 H   0  0  0  0  0  0  0  0  0  0  0  0 
    9.8281   -0.8430    0.6262 H   0  0  0  0  0  0  0  0  0  0  0  0 
    9.9283   -0.3360   -3.1509 H   0  0  0  0  0  0  0  0  0  0  0  0 
    8.2852    0.3255   -3.2324 H   0  0  0  0  0  0  0  0  0  0  0  0 
    8.5344   -1.4105   -2.9029 H   0  0  0  0  0  0  0  0  0  0  0  0 
    2.4559    2.7482   -0.5633 H   0  0  0  0  0  0  0  0  0  0  0  0 
    9.2976    0.9219   -1.0600 H   0  0  0  0  0  0  0  0  0  0  0  0 
    5.6466    4.7063   -1.7406 H   0  0  0  0  0  0  0  0  0  0  0  0 
    5.3576   -0.3627    0.1819 H   0  0  0  0  0  0  0  0  0  0  0  0 
  1  5  1  0  0  0  0 
  1 16  1  0  0  0  0 
  1 17  1  0  0  0  0 
  2 19  1  0  0  0  0 
  2 21  1  0  0  0  0 
  3 24  1  0  0  0  0 
  4  6  1  0  0  0  0 
  5  2  1  0  0  0  0 
  6 29  1  0  0  0  0 
  6 15  1  0  0  0  0 
  6  3  1  0  0  0  0 
  7 12  2  0  0  0  0 
  7 11  2  0  0  0  0 
  8 13  1  0  0  0  0 
  8 14  1  0  0  0  0 
  9 15  1  0  0  0  0 
  9 13  1  0  0  0  0 
 10 30  1  0  0  0  0 
 10  7  1  0  0  0  0 
 11  8  2  0  0  0  0 
 12  9  2  0  0  0  0 
 13 31  1  0  0  0  0 
 14  5  1  0  0  0  0 
 18  1  1  0  0  0  0 
 20  2  1  0  0  0  0 
 22  3  1  0  0  0  0 
 23  3  1  0  0  0  0 
 25  4  1  0  0  0  0 
 26  4  1  0  0  0  0 
 27  4  1  0  0  0  0 
 28  5  1  0  0  0  0 
M  RAD  1  10   2 
M  END 
>  <HBA> 
6 
 
>  <HBD> 
1 
 
>  <TPSA> 
83.15 
 
>  <cid> 
35030 
 
>  <dipole> 
5.47 
 
>  <excitation_energy_1> 
5.066 
 
>  <excitation_energy_2> 
5.334 
 
>  <excitation_energy_3> 
5.658 
 
>  <excitation_energy_4> 
5.718 
 
>  <homo_energy> 
-5.853 
 
>  <homo_lumo_gap> 
6.022 
 
>  <logP> 
1.609 
 
>  <lumo_energy> 
0.169 
 
>  <melting_point> 
108.55 
 
>  <molecular_refractivity> 
56.44 
 
>  <oscillator_strength_1> 
0.0002 
 
>  <oscillator_strength_2> 
0.0016 
 
>  <oscillator_strength_3> 
0.0027 
 
>  <oscillator_strength_4> 
0.0056 
 
>  <open_babel_can_smiles> 
CC(OC1=[N]=[C](=[N]=C(N1)OC(C)C)[NH])C 
 
>  <mulliken_charges> 
31 
1   -0.453305 
2   -0.46021 
3   -0.453402 
4   -0.46049 
5   0.131572 
6   0.128948 
7   0.515103 
8   0.777016 
9   0.774281 
10   -0.621543 
11   -0.530676 
12   -0.496336 
13   -0.708386 
14   -0.51791 
15   -0.521193 
16   0.15501 
17   0.1557 
18   0.16017 
19   0.151788 
20   0.180268 
21   0.150606 
22   0.155016 
23   0.153701 
24   0.158898 
25   0.152093 
26   0.184875 
27   0.147161 
28   0.175154 
29   0.183718 
30   0.277518 
31   0.354857 
 
>  <lowdin_charges> 
31 
1   -0.448525 
2   -0.454886 
3   -0.444097 
4   -0.454121 
5   0.018539 
6   0.021268 
7   0.105905 
8   0.181138 
9   0.179761 
10   -0.404606 
11   -0.259843 
12   -0.223688 
13   -0.238188 
14   -0.190382 
15   -0.192485 
16   0.160886 
17   0.156742 
18   0.160326 
19   0.160098 
20   0.169633 
21   0.154018 
22   0.15942 
23   0.154298 
24   0.157738 
25   0.159321 
26   0.17324 
27   0.151397 
28   0.161815 
29   0.164668 
30   0.250368 
31   0.310244 
 
$$$$ 
 
