PCCDB-ID:  22495 
public computational chemistry database (PCCDB) project, http://pccdb.org 
 
 25 26  0  0  0  0  0  0  0  0999 V2000 
    0.8945   -0.0518   -0.2282 C   0  0  0  0  0  0  0  0  0  0  0  0 
    2.9316    2.5365   -0.0614 C   0  0  0  0  0  0  0  0  0  0  0  0 
    5.4278   -3.0090   -0.4699 C   0  0  0  0  0  0  0  0  0  0  0  0 
    5.7730   -1.6251    0.1158 C   0  0  0  0  0  0  0  0  0  0  0  0 
    4.1077   -3.5590    0.0975 C   0  0  0  0  0  0  0  0  0  0  0  0 
    2.3902   -0.0311   -0.1201 C   0  0  0  0  0  0  0  0  0  0  0  0 
    3.2173    1.0687   -0.0492 C   0  0  0  0  0  0  0  0  0  0  0  0 
    4.5598   -0.7558    0.0316 C   0  0  0  0  0  0  0  0  0  0  0  0 
    2.9102   -2.6111   -0.0741 C   0  0  0  0  0  0  0  0  0  0  0  0 
    3.2443   -1.1920   -0.0657 C   0  0  0  0  0  0  0  0  0  0  0  0 
    4.5320    0.6054    0.0446 N   0  0  0  0  0  0  0  0  0  0  0  0 
    1.7678   -3.0477   -0.1724 O   0  0  0  0  0  0  0  0  0  0  0  0 
    0.4768    0.9603   -0.2493 H   0  0  0  0  0  0  0  0  0  0  0  0 
    0.4441   -0.5910    0.6124 H   0  0  0  0  0  0  0  0  0  0  0  0 
    0.5703   -0.5750   -1.1344 H   0  0  0  0  0  0  0  0  0  0  0  0 
    1.8556    2.7125   -0.1345 H   0  0  0  0  0  0  0  0  0  0  0  0 
    3.4048    3.0438   -0.9137 H   0  0  0  0  0  0  0  0  0  0  0  0 
    3.2837    3.0344    0.8528 H   0  0  0  0  0  0  0  0  0  0  0  0 
    6.2456   -3.7121   -0.2733 H   0  0  0  0  0  0  0  0  0  0  0  0 
    5.3396   -2.9180   -1.5602 H   0  0  0  0  0  0  0  0  0  0  0  0 
    6.6220   -1.1806   -0.4211 H   0  0  0  0  0  0  0  0  0  0  0  0 
    6.0950   -1.7375    1.1636 H   0  0  0  0  0  0  0  0  0  0  0  0 
    4.2196   -3.7479    1.1767 H   0  0  0  0  0  0  0  0  0  0  0  0 
    3.8426   -4.5167   -0.3615 H   0  0  0  0  0  0  0  0  0  0  0  0 
    5.3455    1.2023    0.0878 H   0  0  0  0  0  0  0  0  0  0  0  0 
  1  6  1  0  0  0  0 
  1 14  1  0  0  0  0 
  2  7  1  0  0  0  0 
  2 18  1  0  0  0  0 
  3 19  1  0  0  0  0 
  3  5  1  0  0  0  0 
  3  4  1  0  0  0  0 
  4 22  1  0  0  0  0 
  5 23  1  0  0  0  0 
  6 10  1  0  0  0  0 
  6  7  2  0  0  0  0 
  7 11  1  0  0  0  0 
  8 11  1  0  0  0  0 
  8  4  1  0  0  0  0 
  9 10  1  0  0  0  0 
  9  5  1  0  0  0  0 
 10  8  2  0  0  0  0 
 11 25  1  0  0  0  0 
 12  9  2  0  0  0  0 
 13  1  1  0  0  0  0 
 15  1  1  0  0  0  0 
 16  2  1  0  0  0  0 
 17  2  1  0  0  0  0 
 20  3  1  0  0  0  0 
 21  4  1  0  0  0  0 
 24  5  1  0  0  0  0 
M  END 
>  <HBA> 
1 
 
>  <HBD> 
1 
 
>  <TPSA> 
32.86 
 
>  <cid> 
22495 
 
>  <dipole> 
5.4 
 
>  <excitation_energy_1> 
4.05 
 
>  <excitation_energy_2> 
4.472 
 
>  <excitation_energy_3> 
4.64 
 
>  <excitation_energy_4> 
5.212 
 
>  <homo_energy> 
-5.486 
 
>  <homo_lumo_gap> 
5.148 
 
>  <logP> 
2.151 
 
>  <lumo_energy> 
-0.337 
 
>  <melting_point> 
121.92 
 
>  <molecular_refractivity> 
48.58 
 
>  <oscillator_strength_1> 
0.0005 
 
>  <oscillator_strength_2> 
0.0493 
 
>  <oscillator_strength_3> 
0.0016 
 
>  <oscillator_strength_4> 
0.0145 
 
>  <open_babel_can_smiles> 
Cc1[nH]c2c(c1C)C(=O)CCC2 
 
>  <mulliken_charges> 
25 
1   -0.512958 
2   -0.537931 
3   -0.273495 
4   -0.341613 
5   -0.356045 
6   0.055833 
7   0.28227 
8   0.316176 
9   0.388649 
10   -0.013591 
11   -0.698525 
12   -0.502559 
13   0.132419 
14   0.170006 
15   0.170162 
16   0.176164 
17   0.157271 
18   0.157487 
19   0.13825 
20   0.151098 
21   0.143799 
22   0.156471 
23   0.15739 
24   0.161749 
25   0.321523 
 
>  <lowdin_charges> 
25 
1   -0.435651 
2   -0.4458 
3   -0.268679 
4   -0.277985 
5   -0.303637 
6   -0.036012 
7   -0.004802 
8   0.023995 
9   0.146021 
10   -0.110195 
11   -0.185101 
12   -0.27497 
13   0.144775 
14   0.167418 
15   0.166991 
16   0.169305 
17   0.157233 
18   0.156974 
19   0.148701 
20   0.146597 
21   0.152389 
22   0.152587 
23   0.157982 
24   0.163965 
25   0.287899 
 
$$$$ 
 
