PCCDB-ID:  34710 
public computational chemistry database (PCCDB) project, http://pccdb.org 
 
 29 29  0  0  1  0  0  0  0  0999 V2000 
    1.7361   -0.4503   -2.2987 C   0  0  0  0  0  0  0  0  0  0  0  0 
    5.7720    2.9349   -3.9401 C   0  0  0  0  0  0  0  0  0  0  0  0 
    3.1654   -0.1584   -1.8308 C   0  0  0  0  0  0  0  0  0  0  0  0 
    3.7509    1.1215   -2.4424 C   0  0  0  0  0  0  0  0  0  0  0  0 
    5.1893    1.3934   -1.9849 C   0  0  0  0  0  0  0  0  0  0  0  0 
    7.2053    2.9589   -1.8055 C   0  0  0  0  0  0  0  0  0  0  0  0 
    5.6101    4.2772   -0.6658 C   0  0  0  0  0  0  0  0  0  0  0  0 
    7.0911    4.2939   -1.0423 C   0  0  2  0  0  0  0  0  0  0  0  0 
    5.7870    2.7468   -2.4219 C   0  0  1  0  0  0  0  0  0  0  0  0 
    7.3961    5.4185   -1.8615 O   0  0  0  0  0  0  0  0  0  0  0  0 
    4.9792    3.8279   -1.8648 O   0  0  0  0  0  0  0  0  0  0  0  0 
    1.3432   -1.3649   -1.8398 H   0  0  0  0  0  0  0  0  0  0  0  0 
    1.6938   -0.5790   -3.3873 H   0  0  0  0  0  0  0  0  0  0  0  0 
    1.0589    0.3721   -2.0373 H   0  0  0  0  0  0  0  0  0  0  0  0 
    6.2898    2.1078   -4.4393 H   0  0  0  0  0  0  0  0  0  0  0  0 
    6.2790    3.8660   -4.2150 H   0  0  0  0  0  0  0  0  0  0  0  0 
    4.7473    2.9806   -4.3200 H   0  0  0  0  0  0  0  0  0  0  0  0 
    3.8130   -1.0116   -2.0796 H   0  0  0  0  0  0  0  0  0  0  0  0 
    3.1814   -0.0757   -0.7346 H   0  0  0  0  0  0  0  0  0  0  0  0 
    3.1253    1.9811   -2.1694 H   0  0  0  0  0  0  0  0  0  0  0  0 
    3.7108    1.0422   -3.5375 H   0  0  0  0  0  0  0  0  0  0  0  0 
    5.8541    0.5925   -2.3407 H   0  0  0  0  0  0  0  0  0  0  0  0 
    5.2260    1.3494   -0.8867 H   0  0  0  0  0  0  0  0  0  0  0  0 
    7.4540    2.1450   -1.1141 H   0  0  0  0  0  0  0  0  0  0  0  0 
    7.9936    3.0126   -2.5608 H   0  0  0  0  0  0  0  0  0  0  0  0 
    5.2143    5.2671   -0.4223 H   0  0  0  0  0  0  0  0  0  0  0  0 
    5.4136    3.5952    0.1777 H   0  0  0  0  0  0  0  0  0  0  0  0 
    7.7629    4.3534   -0.1817 H   0  0  0  0  0  0  0  0  0  0  0  0 
    6.6584    5.5070   -2.4883 H   0  0  0  0  0  0  0  0  0  0  0  0 
  1 14  1  0  0  0  0 
  1 12  1  0  0  0  0 
  1  3  1  0  0  0  0 
  3 19  1  0  0  0  0 
  4 20  1  0  0  0  0 
  4  5  1  0  0  0  0 
  4  3  1  0  0  0  0 
  5 23  1  0  0  0  0 
  6 24  1  0  0  0  0 
  6  8  1  0  0  0  0 
  7 26  1  0  0  0  0 
  7 27  1  0  0  0  0 
  8  7  1  0  0  0  0 
  8 28  1  1  0  0  0 
  9  2  1  6  0  0  0 
  9  5  1  0  0  0  0 
  9 11  1  0  0  0  0 
  9  6  1  0  0  0  0 
 10  8  1  0  0  0  0 
 11  7  1  0  0  0  0 
 13  1  1  0  0  0  0 
 15  2  1  0  0  0  0 
 16  2  1  0  0  0  0 
 17  2  1  0  0  0  0 
 18  3  1  0  0  0  0 
 21  4  1  0  0  0  0 
 22  5  1  0  0  0  0 
 25  6  1  0  0  0  0 
 29 10  1  0  0  0  0 
M  END 
>  <HBA> 
2 
 
>  <HBD> 
1 
 
>  <TPSA> 
29.46 
 
>  <cid> 
34710 
 
>  <dipole> 
1.53 
 
>  <excitation_energy_1> 
6.237 
 
>  <excitation_energy_2> 
6.534 
 
>  <excitation_energy_3> 
6.802 
 
>  <excitation_energy_4> 
6.896 
 
>  <homo_energy> 
-6.675 
 
>  <homo_lumo_gap> 
8.55 
 
>  <logP> 
1.716 
 
>  <lumo_energy> 
1.875 
 
>  <melting_point> 
14.71 
 
>  <molecular_refractivity> 
45.55 
 
>  <oscillator_strength_1> 
0.0085 
 
>  <oscillator_strength_2> 
0.0107 
 
>  <oscillator_strength_3> 
0.0034 
 
>  <oscillator_strength_4> 
0.0036 
 
>  <open_babel_can_smiles> 
C[C@@]1(CCCC)C[C@H](CO1)O 
 
>  <mulliken_charges> 
29 
1   -0.441639 
2   -0.467467 
3   -0.248678 
4   -0.256834 
5   -0.276221 
6   -0.33892 
7   -0.061639 
8   0.122056 
9   0.334648 
10   -0.631931 
11   -0.514291 
12   0.141315 
13   0.140978 
14   0.143317 
15   0.14425 
16   0.140178 
17   0.162327 
18   0.128145 
19   0.129634 
20   0.150677 
21   0.129123 
22   0.12873 
23   0.127716 
24   0.14065 
25   0.159496 
26   0.155173 
27   0.125201 
28   0.137403 
29   0.396604 
 
>  <lowdin_charges> 
29 
1   -0.443622 
2   -0.449772 
3   -0.269584 
4   -0.278364 
5   -0.284074 
6   -0.313637 
7   -0.153915 
8   -0.014549 
9   0.123651 
10   -0.463443 
11   -0.28995 
12   0.149446 
13   0.144138 
14   0.14807 
15   0.154159 
16   0.149641 
17   0.158902 
18   0.137898 
19   0.135935 
20   0.150098 
21   0.136666 
22   0.1433 
23   0.138651 
24   0.152214 
25   0.161935 
26   0.153923 
27   0.131662 
28   0.148251 
29   0.34237 
 
$$$$ 
 
