PCCDB-ID:  16911 
public computational chemistry database (PCCDB) project, http://pccdb.org 
 
 24 23  0  0  0  0  0  0  0  0999 V2000 
    1.3266   -0.6235    2.7613 C   0  0  0  0  0  0  0  0  0  0  0  0 
    5.0453   -1.4651   -0.5447 C   0  0  0  0  0  0  0  0  0  0  0  0 
    5.4892    0.3088    1.1810 C   0  0  0  0  0  0  0  0  0  0  0  0 
    2.8526   -0.7079    2.6388 C   0  0  0  0  0  0  0  0  0  0  0  0 
    3.3062   -1.0063    1.2005 C   0  0  0  0  0  0  0  0  0  0  0  0 
    5.5267   -2.1021    1.8356 C   0  0  0  0  0  0  0  0  0  0  0  0 
    4.8334   -1.0612    0.9267 C   0  0  0  0  0  0  0  0  0  0  0  0 
    5.0105   -3.4239    1.7088 O   0  0  0  0  0  0  0  0  0  0  0  0 
    1.0183   -0.4223    3.7935 H   0  0  0  0  0  0  0  0  0  0  0  0 
    0.8495   -1.5601    2.4467 H   0  0  0  0  0  0  0  0  0  0  0  0 
    0.9241    0.1781    2.1302 H   0  0  0  0  0  0  0  0  0  0  0  0 
    4.5184   -0.7819   -1.2221 H   0  0  0  0  0  0  0  0  0  0  0  0 
    4.6784   -2.4809   -0.7227 H   0  0  0  0  0  0  0  0  0  0  0  0 
    6.1101   -1.4423   -0.8084 H   0  0  0  0  0  0  0  0  0  0  0  0 
    5.0378    1.0809    0.5461 H   0  0  0  0  0  0  0  0  0  0  0  0 
    6.5610    0.2763    0.9494 H   0  0  0  0  0  0  0  0  0  0  0  0 
    5.3870    0.6313    2.2236 H   0  0  0  0  0  0  0  0  0  0  0  0 
    3.2222   -1.4839    3.3249 H   0  0  0  0  0  0  0  0  0  0  0  0 
    3.2940    0.2345    2.9867 H   0  0  0  0  0  0  0  0  0  0  0  0 
    2.8700   -0.2496    0.5325 H   0  0  0  0  0  0  0  0  0  0  0  0 
    2.8628   -1.9622    0.8835 H   0  0  0  0  0  0  0  0  0  0  0  0 
    5.4941   -1.7697    2.8851 H   0  0  0  0  0  0  0  0  0  0  0  0 
    6.5837   -2.1763    1.5562 H   0  0  0  0  0  0  0  0  0  0  0  0 
    4.1244   -3.4310    2.1011 H   0  0  0  0  0  0  0  0  0  0  0  0 
  1  9  1  0  0  0  0 
  2  7  1  0  0  0  0 
  3 17  1  0  0  0  0 
  4  1  1  0  0  0  0 
  4 19  1  0  0  0  0 
  4 18  1  0  0  0  0 
  5  4  1  0  0  0  0 
  6 22  1  0  0  0  0 
  7  3  1  0  0  0  0 
  7  5  1  0  0  0  0 
  7  6  1  0  0  0  0 
  8  6  1  0  0  0  0 
  8 24  1  0  0  0  0 
 10  1  1  0  0  0  0 
 11  1  1  0  0  0  0 
 12  2  1  0  0  0  0 
 13  2  1  0  0  0  0 
 14  2  1  0  0  0  0 
 15  3  1  0  0  0  0 
 16  3  1  0  0  0  0 
 20  5  1  0  0  0  0 
 21  5  1  0  0  0  0 
 23  6  1  0  0  0  0 
M  END 
>  <HBA> 
1 
 
>  <HBD> 
1 
 
>  <TPSA> 
20.23 
 
>  <cid> 
16911 
 
>  <dipole> 
1.72 
 
>  <excitation_energy_1> 
6.351 
 
>  <excitation_energy_2> 
6.957 
 
>  <excitation_energy_3> 
7.18 
 
>  <excitation_energy_4> 
7.331 
 
>  <homo_energy> 
-7.037 
 
>  <homo_lumo_gap> 
8.583 
 
>  <logP> 
1.805 
 
>  <lumo_energy> 
1.546 
 
>  <melting_point> 
10.08 
 
>  <molecular_refractivity> 
36.66 
 
>  <oscillator_strength_1> 
0.0019 
 
>  <oscillator_strength_2> 
0.0248 
 
>  <oscillator_strength_3> 
0.0069 
 
>  <oscillator_strength_4> 
0.0116 
 
>  <open_babel_can_smiles> 
CCCC(CO)(C)C 
 
>  <mulliken_charges> 
24 
1   -0.440868 
2   -0.447608 
3   -0.45623 
4   -0.264755 
5   -0.269301 
6   -0.038337 
7   0.083348 
8   -0.622613 
9   0.144045 
10   0.140777 
11   0.145288 
12   0.133818 
13   0.1589 
14   0.135083 
15   0.142287 
16   0.141143 
17   0.141703 
18   0.123624 
19   0.140835 
20   0.130458 
21   0.124165 
22   0.120356 
23   0.139745 
24   0.394136 
 
>  <lowdin_charges> 
24 
1   -0.443569 
2   -0.443296 
3   -0.443325 
4   -0.280385 
5   -0.284421 
6   -0.137289 
7   -0.007675 
8   -0.465355 
9   0.149436 
10   0.146133 
11   0.149266 
12   0.146245 
13   0.155984 
14   0.144525 
15   0.15128 
16   0.147239 
17   0.145478 
18   0.134558 
19   0.143973 
20   0.144389 
21   0.137135 
22   0.125128 
23   0.144188 
24   0.340357 
 
$$$$ 
 
