PCCDB-ID:  66919 
public computational chemistry database (PCCDB) project, http://pccdb.org 
 
 33 32  0  0  0  0  0  0  0  0999 V2000 
    0.3985    0.3828    1.1357 C   0  0  0  0  0  0  0  0  0  0  0  0 
    7.1874   -2.2368    2.6664 C   0  0  0  0  0  0  0  0  0  0  0  0 
    8.1902    1.9466    1.8455 C   0  0  0  0  0  0  0  0  0  0  0  0 
    2.3511   -1.3933    2.6332 C   0  0  0  0  0  0  0  0  0  0  0  0 
    1.8263    0.0099    0.7312 C   0  0  0  0  0  0  0  0  0  0  0  0 
    7.1660   -1.0335    1.7217 C   0  0  0  0  0  0  0  0  0  0  0  0 
    6.8056    1.3712    1.5315 C   0  0  0  0  0  0  0  0  0  0  0  0 
    4.1272   -0.2476    1.4531 C   0  0  0  0  0  0  0  0  0  0  0  0 
    5.0992   -0.0136    2.6299 C   0  0  0  0  0  0  0  0  0  0  0  0 
    2.7222   -0.2044    1.8726 N   0  0  0  0  0  0  0  0  0  0  0  0 
    6.5141    0.1499    2.2883 N   0  0  0  0  0  0  0  0  0  0  0  0 
   -0.1759    0.6750    0.2492 H   0  0  0  0  0  0  0  0  0  0  0  0 
    0.4095    1.2259    1.8348 H   0  0  0  0  0  0  0  0  0  0  0  0 
   -0.1360   -0.4472    1.6091 H   0  0  0  0  0  0  0  0  0  0  0  0 
    7.7984   -3.0386    2.2365 H   0  0  0  0  0  0  0  0  0  0  0  0 
    6.1876   -2.6485    2.8414 H   0  0  0  0  0  0  0  0  0  0  0  0 
    7.6148   -1.9551    3.6345 H   0  0  0  0  0  0  0  0  0  0  0  0 
    8.3486    2.8803    1.2927 H   0  0  0  0  0  0  0  0  0  0  0  0 
    8.9970    1.2601    1.5662 H   0  0  0  0  0  0  0  0  0  0  0  0 
    8.2809    2.1537    2.9167 H   0  0  0  0  0  0  0  0  0  0  0  0 
    1.3261   -1.3044    3.0026 H   0  0  0  0  0  0  0  0  0  0  0  0 
    2.9992   -1.5027    3.5066 H   0  0  0  0  0  0  0  0  0  0  0  0 
    2.4217   -2.3245    2.0345 H   0  0  0  0  0  0  0  0  0  0  0  0 
    2.2439    0.8356    0.1426 H   0  0  0  0  0  0  0  0  0  0  0  0 
    1.8048   -0.8741    0.0607 H   0  0  0  0  0  0  0  0  0  0  0  0 
    6.7242   -1.3351    0.7518 H   0  0  0  0  0  0  0  0  0  0  0  0 
    8.2029   -0.7548    1.5041 H   0  0  0  0  0  0  0  0  0  0  0  0 
    6.7095    1.2201    0.4388 H   0  0  0  0  0  0  0  0  0  0  0  0 
    6.0510    2.1183    1.8040 H   0  0  0  0  0  0  0  0  0  0  0  0 
    4.3682   -1.1966    0.9337 H   0  0  0  0  0  0  0  0  0  0  0  0 
    4.2774    0.5539    0.7206 H   0  0  0  0  0  0  0  0  0  0  0  0 
    5.0215   -0.8314    3.3530 H   0  0  0  0  0  0  0  0  0  0  0  0 
    4.7722    0.8918    3.1551 H   0  0  0  0  0  0  0  0  0  0  0  0 
  1 14  1  0  0  0  0 
  1 13  1  0  0  0  0 
  2 16  1  0  0  0  0 
  2 17  1  0  0  0  0 
  3 20  1  0  0  0  0 
  4 21  1  0  0  0  0 
  4 22  1  0  0  0  0 
  5  1  1  0  0  0  0 
  5 10  1  0  0  0  0 
  6 11  1  0  0  0  0 
  6  2  1  0  0  0  0 
  7 29  1  0  0  0  0 
  7  3  1  0  0  0  0 
  7 11  1  0  0  0  0 
  8 10  1  0  0  0  0 
  8  9  1  0  0  0  0 
  9 33  1  0  0  0  0 
  9 32  1  0  0  0  0 
 10  4  1  0  0  0  0 
 11  9  1  0  0  0  0 
 12  1  1  0  0  0  0 
 15  2  1  0  0  0  0 
 18  3  1  0  0  0  0 
 19  3  1  0  0  0  0 
 23  4  1  0  0  0  0 
 24  5  1  0  0  0  0 
 25  5  1  0  0  0  0 
 26  6  1  0  0  0  0 
 27  6  1  0  0  0  0 
 28  7  1  0  0  0  0 
 30  8  1  0  0  0  0 
 31  8  1  0  0  0  0 
M  END 
>  <HBA> 
2 
 
>  <HBD> 
0 
 
>  <TPSA> 
6.48 
 
>  <cid> 
66919 
 
>  <dipole> 
0.94 
 
>  <excitation_energy_1> 
4.928 
 
>  <excitation_energy_2> 
5.174 
 
>  <excitation_energy_3> 
5.262 
 
>  <excitation_energy_4> 
5.31 
 
>  <homo_energy> 
-5.255 
 
>  <homo_lumo_gap> 
7.404 
 
>  <logP> 
1.28 
 
>  <lumo_energy> 
2.15 
 
>  <melting_point> 
-23.28 
 
>  <molecular_refractivity> 
51.17 
 
>  <oscillator_strength_1> 
0.0067 
 
>  <oscillator_strength_2> 
0.0109 
 
>  <oscillator_strength_3> 
0.0051 
 
>  <oscillator_strength_4> 
0.0034 
 
>  <open_babel_can_smiles> 
CCN(CCN(CC)CC)C 
 
>  <mulliken_charges> 
33 
1   -0.453205 
2   -0.453418 
3   -0.438448 
4   -0.309841 
5   -0.10172 
6   -0.113112 
7   -0.118374 
8   -0.127702 
9   -0.152283 
10   -0.377162 
11   -0.377688 
12   0.142278 
13   0.156002 
14   0.146678 
15   0.1414 
16   0.145646 
17   0.155307 
18   0.13639 
19   0.144736 
20   0.15315 
21   0.153745 
22   0.153585 
23   0.114258 
24   0.135348 
25   0.106626 
26   0.112683 
27   0.137801 
28   0.112894 
29   0.137125 
30   0.111909 
31   0.136481 
32   0.141029 
33   0.147886 
 
>  <lowdin_charges> 
33 
1   -0.453295 
2   -0.45124 
3   -0.449077 
4   -0.36041 
5   -0.197699 
6   -0.19691 
7   -0.195425 
8   -0.219268 
9   -0.213795 
10   -0.187275 
11   -0.190381 
12   0.153251 
13   0.155413 
14   0.14903 
15   0.153327 
16   0.146523 
17   0.154359 
18   0.148529 
19   0.147768 
20   0.151979 
21   0.151328 
22   0.151566 
23   0.118494 
24   0.143754 
25   0.114537 
26   0.115157 
27   0.143214 
28   0.115957 
29   0.145872 
30   0.117484 
31   0.144694 
32   0.143762 
33   0.148775 
 
$$$$ 
 
