PCCDB-ID:  33603 
public computational chemistry database (PCCDB) project, http://pccdb.org 
 
 28 29  0  0  0  0  0  0  0  0999 V2000 
   -1.5612    0.1110   -0.1536 C   0  0  0  0  0  0  0  0  0  0  0  0 
    4.4420    4.1179    0.0698 C   0  0  0  0  0  0  0  0  0  0  0  0 
   -0.8962    0.9430   -1.0565 C   0  0  0  0  0  0  0  0  0  0  0  0 
   -0.8209   -0.6740    0.7323 C   0  0  0  0  0  0  0  0  0  0  0  0 
    3.3940    3.7601    0.9201 C   0  0  0  0  0  0  0  0  0  0  0  0 
    4.9074    3.1968   -0.8705 C   0  0  0  0  0  0  0  0  0  0  0  0 
    0.4969    0.9846   -1.0807 C   0  0  0  0  0  0  0  0  0  0  0  0 
    0.5725   -0.6239    0.7258 C   0  0  0  0  0  0  0  0  0  0  0  0 
    2.8212    2.4918    0.8410 C   0  0  0  0  0  0  0  0  0  0  0  0 
    4.3291    1.9317   -0.9685 C   0  0  0  0  0  0  0  0  0  0  0  0 
    1.2383    0.2001   -0.1892 C   0  0  0  0  0  0  0  0  0  0  0  0 
    3.2834    1.5688   -0.1069 C   0  0  0  0  0  0  0  0  0  0  0  0 
    3.4685   -0.8649   -0.2636 C   0  0  0  0  0  0  0  0  0  0  0  0 
    4.7095   -1.0067    0.0024 N   0  0  0  0  0  0  0  0  0  0  0  0 
    2.6709    0.2806   -0.2040 N   0  0  0  0  0  0  0  0  0  0  0  0 
    2.7585   -1.9412   -0.6870 O   0  0  0  0  0  0  0  0  0  0  0  0 
   -2.6469    0.0750   -0.1404 H   0  0  0  0  0  0  0  0  0  0  0  0 
    4.8904    5.1050    0.1379 H   0  0  0  0  0  0  0  0  0  0  0  0 
   -1.4621    1.5548   -1.7539 H   0  0  0  0  0  0  0  0  0  0  0  0 
   -1.3284   -1.3219    1.4419 H   0  0  0  0  0  0  0  0  0  0  0  0 
    3.0242    4.4671    1.6579 H   0  0  0  0  0  0  0  0  0  0  0  0 
    5.7168    3.4659   -1.5437 H   0  0  0  0  0  0  0  0  0  0  0  0 
    1.0173    1.6224   -1.7886 H   0  0  0  0  0  0  0  0  0  0  0  0 
    1.1474   -1.2276    1.4201 H   0  0  0  0  0  0  0  0  0  0  0  0 
    2.0114    2.2115    1.5071 H   0  0  0  0  0  0  0  0  0  0  0  0 
    4.6824    1.2224   -1.7100 H   0  0  0  0  0  0  0  0  0  0  0  0 
    5.1277   -0.1494    0.3584 H   0  0  0  0  0  0  0  0  0  0  0  0 
    3.3984   -2.6746   -0.6531 H   0  0  0  0  0  0  0  0  0  0  0  0 
  1 17  1  0  0  0  0 
  1  4  2  0  0  0  0 
  2 18  1  0  0  0  0 
  2  5  2  0  0  0  0 
  3  1  1  0  0  0  0 
  4 20  1  0  0  0  0 
  5 21  1  0  0  0  0 
  6  2  1  0  0  0  0 
  7  3  2  0  0  0  0 
  7 11  1  0  0  0  0 
  8  4  1  0  0  0  0 
  8 24  1  0  0  0  0 
  9  5  1  0  0  0  0 
  9 25  1  0  0  0  0 
 10  6  2  0  0  0  0 
 10 12  1  0  0  0  0 
 11  8  2  0  0  0  0 
 12  9  2  0  0  0  0 
 13 15  1  0  0  0  0 
 13 14  2  0  0  0  0 
 14 27  1  0  0  0  0 
 15 11  1  0  0  0  0 
 15 12  1  0  0  0  0 
 16 28  1  0  0  0  0 
 16 13  1  0  0  0  0 
 19  3  1  0  0  0  0 
 22  6  1  0  0  0  0 
 23  7  1  0  0  0  0 
 26 10  1  0  0  0  0 
M  END 
>  <HBA> 
2 
 
>  <HBD> 
1 
 
>  <TPSA> 
46.33 
 
>  <cid> 
33603 
 
>  <dipole> 
2.03 
 
>  <excitation_energy_1> 
4.391 
 
>  <excitation_energy_2> 
4.441 
 
>  <excitation_energy_3> 
4.782 
 
>  <excitation_energy_4> 
4.83 
 
>  <homo_energy> 
-5.633 
 
>  <homo_lumo_gap> 
5.181 
 
>  <logP> 
3.604 
 
>  <lumo_energy> 
-0.452 
 
>  <melting_point> 
133.23 
 
>  <molecular_refractivity> 
64.18 
 
>  <oscillator_strength_1> 
0.1273 
 
>  <oscillator_strength_2> 
0.0706 
 
>  <oscillator_strength_3> 
0.0873 
 
>  <oscillator_strength_4> 
0.0449 
 
>  <open_babel_can_smiles> 
OC(=N)N(c1ccccc1)c1ccccc1 
 
>  <mulliken_charges> 
28 
1   -0.123183 
2   -0.124267 
3   -0.141857 
4   -0.145318 
5   -0.140809 
6   -0.14084 
7   -0.146252 
8   -0.13167 
9   -0.150851 
10   -0.163722 
11   0.28196 
12   0.256062 
13   0.627977 
14   -0.658103 
15   -0.613164 
16   -0.593696 
17   0.130576 
18   0.132953 
19   0.133659 
20   0.133387 
21   0.136275 
22   0.137224 
23   0.143194 
24   0.140178 
25   0.147873 
26   0.155937 
27   0.29529 
28   0.421189 
 
>  <lowdin_charges> 
28 
1   -0.158585 
2   -0.16123 
3   -0.153823 
4   -0.153405 
5   -0.151126 
6   -0.151427 
7   -0.165186 
8   -0.163035 
9   -0.16778 
10   -0.176778 
11   0.052861 
12   0.044487 
13   0.158722 
14   -0.476425 
15   -0.0862 
16   -0.365287 
17   0.156902 
18   0.159578 
19   0.16127 
20   0.161129 
21   0.162208 
22   0.162099 
23   0.168262 
24   0.167118 
25   0.170022 
26   0.172217 
27   0.264341 
28   0.369073 
 
$$$$ 
 
