PCCDB-ID:  32204 
public computational chemistry database (PCCDB) project, http://pccdb.org 
 
 20 20  0  0  0  0  0  0  0  0999 V2000 
   -0.9088    0.9701    0.2310 C   0  0  0  0  0  0  0  0  0  0  0  0 
    1.2786    0.0609   -0.2193 C   0  0  0  0  0  0  0  0  0  0  0  0 
   -1.4335   -0.3235    0.2374 C   0  0  0  0  0  0  0  0  0  0  0  0 
    0.7517   -1.2243   -0.2439 C   0  0  0  0  0  0  0  0  0  0  0  0 
    0.4613    1.1808    0.0168 C   0  0  0  0  0  0  0  0  0  0  0  0 
   -0.6118   -1.4260   -0.0042 C   0  0  0  0  0  0  0  0  0  0  0  0 
    0.6762    3.6469    0.5923 C   0  0  0  0  0  0  0  0  0  0  0  0 
    1.1726    4.7386    0.1296 N   0  0  0  0  0  0  0  0  0  0  0  0 
   -0.2320    3.5132    1.6481 N   0  0  0  0  0  0  0  0  0  0  0  0 
    1.0589    2.4583   -0.0143 N   0  0  0  0  0  0  0  0  0  0  0  0 
   -1.0751   -2.7159   -0.0212 O   0  0  0  0  0  0  0  0  0  0  0  0 
   -1.5678    1.8165    0.3864 H   0  0  0  0  0  0  0  0  0  0  0  0 
    2.3434    0.2080   -0.3823 H   0  0  0  0  0  0  0  0  0  0  0  0 
   -2.4992   -0.4661    0.4094 H   0  0  0  0  0  0  0  0  0  0  0  0 
    1.3868   -2.0843   -0.4320 H   0  0  0  0  0  0  0  0  0  0  0  0 
    0.8918    5.5386    0.6982 H   0  0  0  0  0  0  0  0  0  0  0  0 
   -0.2660    4.3277    2.2483 H   0  0  0  0  0  0  0  0  0  0  0  0 
   -0.1506    2.6530    2.1801 H   0  0  0  0  0  0  0  0  0  0  0  0 
    1.7721    2.6169   -0.7136 H   0  0  0  0  0  0  0  0  0  0  0  0 
   -2.0313   -2.7073    0.1394 H   0  0  0  0  0  0  0  0  0  0  0  0 
  1  3  1  0  0  0  0 
  1 12  1  0  0  0  0 
  2  5  1  0  0  0  0 
  3 14  1  0  0  0  0 
  4  2  2  0  0  0  0 
  4  6  1  0  0  0  0 
  5  1  2  0  0  0  0 
  6  3  2  0  0  0  0 
  7  9  2  0  0  0  0 
  8  7  1  0  0  0  0 
  8 16  1  0  0  0  0 
  9 18  1  0  0  0  0 
  9 17  1  0  0  0  0 
 10  5  1  0  0  0  0 
 10  7  1  0  0  0  0 
 11  6  1  0  0  0  0 
 11 20  1  0  0  0  0 
 13  2  1  0  0  0  0 
 15  4  1  0  0  0  0 
 19 10  1  0  0  0  0 
M  RAD  1   8   2 
M  END 
>  <HBA> 
4 
 
>  <HBD> 
3 
 
>  <TPSA> 
84.63 
 
>  <cid> 
32204 
 
>  <dipole> 
3.26 
 
>  <excitation_energy_1> 
4.304 
 
>  <excitation_energy_2> 
4.609 
 
>  <excitation_energy_3> 
4.729 
 
>  <excitation_energy_4> 
4.919 
 
>  <homo_energy> 
-5.244 
 
>  <homo_lumo_gap> 
5.07 
 
>  <logP> 
1.698 
 
>  <lumo_energy> 
-0.174 
 
>  <melting_point> 
178.03 
 
>  <molecular_refractivity> 
43.09 
 
>  <oscillator_strength_1> 
0.0335 
 
>  <oscillator_strength_2> 
0.0145 
 
>  <oscillator_strength_3> 
0.0461 
 
>  <oscillator_strength_4> 
0.2891 
 
>  <open_babel_can_smiles> 
[NH]C(=[NH2])Nc1ccc(cc1)O 
 
>  <mulliken_charges> 
20 
1   -0.178296 
2   -0.181753 
3   -0.206863 
4   -0.163816 
5   0.315247 
6   0.35159 
7   0.581619 
8   -0.649716 
9   -0.750239 
10   -0.698581 
11   -0.646909 
12   0.164407 
13   0.132123 
14   0.120488 
15   0.14258 
16   0.265111 
17   0.324416 
18   0.331505 
19   0.340649 
20   0.406436 
 
>  <lowdin_charges> 
20 
1   -0.183062 
2   -0.168743 
3   -0.205706 
4   -0.177688 
5   0.029135 
6   0.090887 
7   0.133057 
8   -0.487211 
9   -0.505218 
10   -0.263746 
11   -0.381208 
12   0.174973 
13   0.158695 
14   0.152516 
15   0.169894 
16   0.24742 
17   0.279667 
18   0.283352 
19   0.297845 
20   0.35514 
 
$$$$ 
 
