PCCDB-ID:  22208 
public computational chemistry database (PCCDB) project, http://pccdb.org 
 
 10 10  0  0  0  0  0  0  0  0999 V2000 
   -1.1170    0.0156    0.0007 C   0  0  0  0  0  0  0  0  0  0  0  0 
   -0.3550   -1.1184    0.0028 C   0  0  0  0  0  0  0  0  0  0  0  0 
    0.9036    0.6903   -0.0006 C   0  0  0  0  0  0  0  0  0  0  0  0 
   -0.3203    1.1528   -0.0016 N   0  0  0  0  0  0  0  0  0  0  0  0 
    0.9648   -0.6671    0.0022 N   0  0  0  0  0  0  0  0  0  0  0  0 
    2.0436    1.4132   -0.0012 O   0  0  0  0  0  0  0  0  0  0  0  0 
   -2.1954    0.0935    0.0016 H   0  0  0  0  0  0  0  0  0  0  0  0 
   -0.5978   -2.1698    0.0056 H   0  0  0  0  0  0  0  0  0  0  0  0 
    1.8070   -1.2224    0.0002 H   0  0  0  0  0  0  0  0  0  0  0  0 
    1.7643    2.3443   -0.0006 H   0  0  0  0  0  0  0  0  0  0  0  0 
  1  7  1  0  0  0  0 
  1  2  2  0  0  0  0 
  2  8  1  0  0  0  0 
  3  5  1  0  0  0  0 
  4  3  2  0  0  0  0 
  4  1  1  0  0  0  0 
  5  2  1  0  0  0  0 
  6  3  1  0  0  0  0 
  6 10  1  0  0  0  0 
  9  5  1  0  0  0  0 
M  END 
>  <HBA> 
1 
 
>  <HBD> 
2 
 
>  <TPSA> 
48.65 
 
>  <cid> 
22208 
 
>  <dipole> 
2.16 
 
>  <excitation_energy_1> 
4.93 
 
>  <excitation_energy_2> 
5.386 
 
>  <excitation_energy_3> 
5.948 
 
>  <excitation_energy_4> 
6.317 
 
>  <homo_energy> 
-5.595 
 
>  <homo_lumo_gap> 
6.944 
 
>  <logP> 
-0.297 
 
>  <lumo_energy> 
1.35 
 
>  <melting_point> 
132.3 
 
>  <molecular_refractivity> 
21.41 
 
>  <oscillator_strength_1> 
0.0032 
 
>  <oscillator_strength_2> 
0.0043 
 
>  <oscillator_strength_3> 
0.0117 
 
>  <oscillator_strength_4> 
0.1528 
 
>  <open_babel_can_smiles> 
Oc1ncc[nH]1 
 
>  <mulliken_charges> 
10 
1   -0.029604 
2   0.015668 
3   0.673749 
4   -0.492243 
5   -0.595619 
6   -0.62312 
7   0.135047 
8   0.149419 
9   0.339899 
10   0.426805 
 
>  <lowdin_charges> 
10 
1   -0.143216 
2   -0.175037 
3   0.127566 
4   -0.244678 
5   -0.201364 
6   -0.365845 
7   0.160006 
8   0.167593 
9   0.299962 
10   0.375013 
 
$$$$ 
 
