PCCDB-ID:  23378 
public computational chemistry database (PCCDB) project, http://pccdb.org 
 
 26 26  0  0  0  0  0  0  0  0999 V2000 
   -1.4893    0.9232    0.5519 C   0  0  0  0  0  0  0  0  0  0  0  0 
   -0.2230    1.7873    0.4485 C   0  0  0  0  0  0  0  0  0  0  0  0 
   -1.5572   -0.3012   -0.3778 C   0  0  0  0  0  0  0  0  0  0  0  0 
    1.1193    1.0418    0.5612 C   0  0  0  0  0  0  0  0  0  0  0  0 
   -0.5536   -1.4077   -0.0080 C   0  0  0  0  0  0  0  0  0  0  0  0 
    1.4297    0.1523   -0.6566 C   0  0  0  0  0  0  0  0  0  0  0  0 
    0.7466   -1.8121   -2.0900 C   0  0  0  0  0  0  0  0  0  0  0  0 
    0.8679   -1.2871   -0.6288 C   0  0  0  0  0  0  0  0  0  0  0  0 
    1.7342   -2.2513    0.0948 N   0  0  0  0  0  0  0  0  0  0  0  0 
    0.3672   -1.1294   -3.0154 O   0  0  0  0  0  0  0  0  0  0  0  0 
    1.0391   -3.1147   -2.2209 O   0  0  0  0  0  0  0  0  0  0  0  0 
   -2.3587    1.5649    0.3564 H   0  0  0  0  0  0  0  0  0  0  0  0 
   -1.6016    0.5727    1.5892 H   0  0  0  0  0  0  0  0  0  0  0  0 
   -0.2699    2.5592    1.2284 H   0  0  0  0  0  0  0  0  0  0  0  0 
   -0.2307    2.3240   -0.5112 H   0  0  0  0  0  0  0  0  0  0  0  0 
   -1.4250   -0.0105   -1.4269 H   0  0  0  0  0  0  0  0  0  0  0  0 
   -2.5671   -0.7238   -0.3048 H   0  0  0  0  0  0  0  0  0  0  0  0 
    1.1592    0.4599    1.4944 H   0  0  0  0  0  0  0  0  0  0  0  0 
    1.9151    1.7926    0.6465 H   0  0  0  0  0  0  0  0  0  0  0  0 
   -0.9527   -2.3909   -0.2852 H   0  0  0  0  0  0  0  0  0  0  0  0 
   -0.4448   -1.4283    1.0866 H   0  0  0  0  0  0  0  0  0  0  0  0 
    2.5179    0.0736   -0.7936 H   0  0  0  0  0  0  0  0  0  0  0  0 
    1.0555    0.6420   -1.5611 H   0  0  0  0  0  0  0  0  0  0  0  0 
    1.5273   -2.2590    1.0910 H   0  0  0  0  0  0  0  0  0  0  0  0 
    2.7158   -1.9955   -0.0049 H   0  0  0  0  0  0  0  0  0  0  0  0 
    1.3570   -3.3850   -1.3198 H   0  0  0  0  0  0  0  0  0  0  0  0 
  1 13  1  0  0  0  0 
  2  1  1  0  0  0  0 
  2  4  1  0  0  0  0 
  2 14  1  0  0  0  0 
  3 17  1  0  0  0  0 
  3  5  1  0  0  0  0 
  3  1  1  0  0  0  0 
  4 19  1  0  0  0  0 
  4 18  1  0  0  0  0 
  5 21  1  0  0  0  0 
  6  8  1  0  0  0  0 
  6  4  1  0  0  0  0 
  7  8  1  0  0  0  0 
  8  5  1  0  0  0  0 
  8  9  1  0  0  0  0 
  9 24  1  0  0  0  0 
 10  7  2  0  0  0  0 
 11  7  1  0  0  0  0 
 11 26  1  0  0  0  0 
 12  1  1  0  0  0  0 
 15  2  1  0  0  0  0 
 16  3  1  0  0  0  0 
 20  5  1  0  0  0  0 
 22  6  1  0  0  0  0 
 23  6  1  0  0  0  0 
 25  9  1  0  0  0  0 
M  END 
>  <HBA> 
3 
 
>  <HBD> 
2 
 
>  <TPSA> 
63.32 
 
>  <cid> 
23378 
 
>  <dipole> 
5.04 
 
>  <excitation_energy_1> 
5.509 
 
>  <excitation_energy_2> 
5.951 
 
>  <excitation_energy_3> 
6.671 
 
>  <excitation_energy_4> 
6.785 
 
>  <homo_energy> 
-6.727 
 
>  <homo_lumo_gap> 
7.312 
 
>  <logP> 
1.823 
 
>  <lumo_energy> 
0.585 
 
>  <melting_point> 
137.12 
 
>  <molecular_refractivity> 
42.97 
 
>  <oscillator_strength_1> 
0.0014 
 
>  <oscillator_strength_2> 
0.0121 
 
>  <oscillator_strength_3> 
0.003 
 
>  <oscillator_strength_4> 
0.0255 
 
>  <open_babel_can_smiles> 
OC(=O)C1(N)CCCCCC1 
 
>  <mulliken_charges> 
26 
1   -0.260214 
2   -0.256997 
3   -0.269863 
4   -0.263261 
5   -0.28025 
6   -0.288482 
7   0.612531 
8   0.10098 
9   -0.787314 
10   -0.472947 
11   -0.588737 
12   0.135991 
13   0.12465 
14   0.131162 
15   0.13875 
16   0.17137 
17   0.137632 
18   0.116997 
19   0.138012 
20   0.155699 
21   0.128079 
22   0.124643 
23   0.181606 
24   0.318612 
25   0.318207 
26   0.433141 
 
>  <lowdin_charges> 
26 
1   -0.276892 
2   -0.277796 
3   -0.282013 
4   -0.282057 
5   -0.273029 
6   -0.290059 
7   0.17859 
8   0.01939 
9   -0.541265 
10   -0.263078 
11   -0.358371 
12   0.147114 
13   0.133499 
14   0.144524 
15   0.142438 
16   0.159765 
17   0.149415 
18   0.131961 
19   0.149793 
20   0.155372 
21   0.136877 
22   0.139717 
23   0.168746 
24   0.265356 
25   0.263668 
26   0.358337 
 
$$$$ 
 
