PCCDB-ID:  70020 
public computational chemistry database (PCCDB) project, http://pccdb.org 
 
 28 28  0  0  0  0  0  0  0  0999 V2000 
    4.9519   -0.0324    0.0670 C   0  0  0  0  0  0  0  0  0  0  0  0 
   -2.4245   -2.7726    4.5000 C   0  0  0  0  0  0  0  0  0  0  0  0 
    3.0717   -4.7726    2.0798 C   0  0  0  0  0  0  0  0  0  0  0  0 
    4.0626   -1.0723    0.7461 C   0  0  0  0  0  0  0  0  0  0  0  0 
   -0.4298   -1.2972    3.1266 C   0  0  0  0  0  0  0  0  0  0  0  0 
    0.6020   -0.6636    2.4449 C   0  0  0  0  0  0  0  0  0  0  0  0 
    0.8091   -3.3765    2.9373 C   0  0  0  0  0  0  0  0  0  0  0  0 
   -0.3205   -2.6710    3.3731 C   0  0  0  0  0  0  0  0  0  0  0  0 
    1.7500   -1.3285    1.9917 C   0  0  0  0  0  0  0  0  0  0  0  0 
    2.7618   -0.4796    1.2744 C   0  0  0  0  0  0  0  0  0  0  0  0 
    1.8355   -2.7224    2.2558 C   0  0  0  0  0  0  0  0  0  0  0  0 
    2.5338    0.7145    1.1149 O   0  0  0  0  0  0  0  0  0  0  0  0 
   -1.2506   -3.4189    4.0256 O   0  0  0  0  0  0  0  0  0  0  0  0 
    2.9456   -3.3817    1.8193 O   0  0  0  0  0  0  0  0  0  0  0  0 
    5.8725   -0.5005   -0.2990 H   0  0  0  0  0  0  0  0  0  0  0  0 
    5.2229    0.7691    0.7608 H   0  0  0  0  0  0  0  0  0  0  0  0 
    4.4398    0.4340   -0.7798 H   0  0  0  0  0  0  0  0  0  0  0  0 
   -3.0195   -3.5518    4.9792 H   0  0  0  0  0  0  0  0  0  0  0  0 
   -2.9995   -2.3298    3.6771 H   0  0  0  0  0  0  0  0  0  0  0  0 
   -2.1844   -1.9938    5.2348 H   0  0  0  0  0  0  0  0  0  0  0  0 
    4.0323   -5.0661    1.6530 H   0  0  0  0  0  0  0  0  0  0  0  0 
    2.2690   -5.3456    1.5990 H   0  0  0  0  0  0  0  0  0  0  0  0 
    3.0718   -4.9810    3.1569 H   0  0  0  0  0  0  0  0  0  0  0  0 
    4.5847   -1.5601    1.5789 H   0  0  0  0  0  0  0  0  0  0  0  0 
    3.8158   -1.8936    0.0614 H   0  0  0  0  0  0  0  0  0  0  0  0 
   -1.2915   -0.7284    3.4541 H   0  0  0  0  0  0  0  0  0  0  0  0 
    0.5460    0.3999    2.2378 H   0  0  0  0  0  0  0  0  0  0  0  0 
    0.8484   -4.4369    3.1497 H   0  0  0  0  0  0  0  0  0  0  0  0 
  1  4  1  0  0  0  0 
  1 16  1  0  0  0  0 
  2 18  1  0  0  0  0 
  2 20  1  0  0  0  0 
  3 23  1  0  0  0  0 
  4 10  1  0  0  0  0 
  4 24  1  0  0  0  0 
  5  8  1  0  0  0  0 
  5 26  1  0  0  0  0 
  6  5  2  0  0  0  0 
  7 28  1  0  0  0  0 
  7  8  2  0  0  0  0 
  8 13  1  0  0  0  0 
  9 11  2  0  0  0  0 
  9  6  1  0  0  0  0 
 10  9  1  0  0  0  0 
 11  7  1  0  0  0  0 
 12 10  2  0  0  0  0 
 13  2  1  0  0  0  0 
 14  3  1  0  0  0  0 
 14 11  1  0  0  0  0 
 15  1  1  0  0  0  0 
 17  1  1  0  0  0  0 
 19  2  1  0  0  0  0 
 21  3  1  0  0  0  0 
 22  3  1  0  0  0  0 
 25  4  1  0  0  0  0 
 27  6  1  0  0  0  0 
M  END 
>  <HBA> 
3 
 
>  <HBD> 
0 
 
>  <TPSA> 
35.53 
 
>  <cid> 
70020 
 
>  <dipole> 
4.41 
 
>  <excitation_energy_1> 
3.913 
 
>  <excitation_energy_2> 
4.453 
 
>  <excitation_energy_3> 
4.807 
 
>  <excitation_energy_4> 
5.571 
 
>  <homo_energy> 
-6.003 
 
>  <homo_lumo_gap> 
5.048 
 
>  <logP> 
2.296 
 
>  <lumo_energy> 
-0.955 
 
>  <melting_point> 
49.76 
 
>  <molecular_refractivity> 
54.43 
 
>  <oscillator_strength_1> 
0.0 
 
>  <oscillator_strength_2> 
0.1384 
 
>  <oscillator_strength_3> 
0.2426 
 
>  <oscillator_strength_4> 
0.001 
 
>  <open_babel_can_smiles> 
CCC(=O)c1ccc(cc1OC)OC 
 
>  <mulliken_charges> 
28 
1   -0.432636 
2   -0.218134 
3   -0.217663 
4   -0.336745 
5   -0.197559 
6   -0.184241 
7   -0.262726 
8   0.389905 
9   0.038547 
10   0.406686 
11   0.322923 
12   -0.479307 
13   -0.506286 
14   -0.514212 
15   0.130338 
16   0.15561 
17   0.156244 
18   0.172624 
19   0.158285 
20   0.15819 
21   0.173447 
22   0.159012 
23   0.1591 
24   0.160988 
25   0.161831 
26   0.134192 
27   0.168675 
28   0.142913 
 
>  <lowdin_charges> 
28 
1   -0.443609 
2   -0.280272 
3   -0.275994 
4   -0.307329 
5   -0.233642 
6   -0.106101 
7   -0.24483 
8   0.121829 
9   -0.098428 
10   0.161791 
11   0.116851 
12   -0.262658 
13   -0.190755 
14   -0.188319 
15   0.145322 
16   0.156905 
17   0.157254 
18   0.165907 
19   0.150337 
20   0.149665 
21   0.16466 
22   0.15084 
23   0.147995 
24   0.163666 
25   0.163927 
26   0.165143 
27   0.178677 
28   0.171169 
 
$$$$ 
 
