PCCDB-ID:  11701 
public computational chemistry database (PCCDB) project, http://pccdb.org 
 
 20 19  0  0  0  0  0  0  0  0999 V2000 
    0.7592   -0.1779    0.7197 C   0  0  0  0  0  0  0  0  0  0  0  0 
    3.0422   -1.1572    1.2335 C   0  0  0  0  0  0  0  0  0  0  0  0 
    2.6907    0.3626   -0.7849 C   0  0  0  0  0  0  0  0  0  0  0  0 
    4.1925    0.3110   -1.0915 C   0  0  0  0  0  0  0  0  0  0  0  0 
    2.5959    1.3039    1.5669 C   0  0  0  0  0  0  0  0  0  0  0  0 
    2.2868    0.0779    0.6880 C   0  0  0  0  0  0  0  0  0  0  0  0 
    4.6891   -0.5917   -1.7249 O   0  0  0  0  0  0  0  0  0  0  0  0 
    4.9361    1.3261   -0.6167 O   0  0  0  0  0  0  0  0  0  0  0  0 
    3.1337    2.3203    1.1727 O   0  0  0  0  0  0  0  0  0  0  0  0 
    2.2273    1.2355    2.8620 O   0  0  0  0  0  0  0  0  0  0  0  0 
    0.5196   -1.0412    0.0909 H   0  0  0  0  0  0  0  0  0  0  0  0 
    0.2016    0.6855    0.3412 H   0  0  0  0  0  0  0  0  0  0  0  0 
    0.3887   -0.4010    1.7278 H   0  0  0  0  0  0  0  0  0  0  0  0 
    2.8717   -2.0128    0.5727 H   0  0  0  0  0  0  0  0  0  0  0  0 
    2.7004   -1.4400    2.2366 H   0  0  0  0  0  0  0  0  0  0  0  0 
    4.1214   -0.9826    1.2808 H   0  0  0  0  0  0  0  0  0  0  0  0 
    2.2361   -0.4049   -1.4152 H   0  0  0  0  0  0  0  0  0  0  0  0 
    2.2836    1.3350   -1.0855 H   0  0  0  0  0  0  0  0  0  0  0  0 
    4.3677    1.9285   -0.0856 H   0  0  0  0  0  0  0  0  0  0  0  0 
    1.8046    0.3821    3.0529 H   0  0  0  0  0  0  0  0  0  0  0  0 
  1 13  1  0  0  0  0 
  2 16  1  0  0  0  0 
  2 15  1  0  0  0  0 
  3  6  1  0  0  0  0 
  4  3  1  0  0  0  0 
  4  8  1  0  0  0  0 
  5 10  1  0  0  0  0 
  6  1  1  0  0  0  0 
  6  2  1  0  0  0  0 
  6  5  1  0  0  0  0 
  7  4  2  0  0  0  0 
  8 19  1  0  0  0  0 
  9  5  2  0  0  0  0 
 10 20  1  0  0  0  0 
 11  1  1  0  0  0  0 
 12  1  1  0  0  0  0 
 14  2  1  0  0  0  0 
 17  3  1  0  0  0  0 
 18  3  1  0  0  0  0 
M  END 
>  <HBA> 
4 
 
>  <HBD> 
2 
 
>  <TPSA> 
74.6 
 
>  <cid> 
11701 
 
>  <dipole> 
6.11 
 
>  <excitation_energy_1> 
5.52 
 
>  <excitation_energy_2> 
5.652 
 
>  <excitation_energy_3> 
5.759 
 
>  <excitation_energy_4> 
6.154 
 
>  <homo_energy> 
-7.067 
 
>  <homo_lumo_gap> 
6.389 
 
>  <logP> 
0.572 
 
>  <lumo_energy> 
-0.678 
 
>  <melting_point> 
146.44 
 
>  <molecular_refractivity> 
34.24 
 
>  <oscillator_strength_1> 
0.0008 
 
>  <oscillator_strength_2> 
0.002 
 
>  <oscillator_strength_3> 
0.0021 
 
>  <oscillator_strength_4> 
0.0069 
 
>  <open_babel_can_smiles> 
OC(=O)CC(C(=O)O)(C)C 
 
>  <mulliken_charges> 
20 
1   -0.457944 
2   -0.462704 
3   -0.375512 
4   0.581311 
5   0.641036 
6   -0.058991 
7   -0.455084 
8   -0.586928 
9   -0.477075 
10   -0.556175 
11   0.174196 
12   0.174389 
13   0.136517 
14   0.182852 
15   0.133754 
16   0.191499 
17   0.173781 
18   0.174221 
19   0.445258 
20   0.421598 
 
>  <lowdin_charges> 
20 
1   -0.440841 
2   -0.441654 
3   -0.315521 
4   0.184831 
5   0.210354 
6   -0.027146 
7   -0.256847 
8   -0.363858 
9   -0.256849 
10   -0.328246 
11   0.167139 
12   0.165679 
13   0.144617 
14   0.172624 
15   0.144571 
16   0.171599 
17   0.174775 
18   0.169406 
19   0.36309 
20   0.362275 
 
$$$$ 
 
