PCCDB-ID:  28536 
public computational chemistry database (PCCDB) project, http://pccdb.org 
 
 18 17  0  0  1  0  0  0  0  0999 V2000 
    2.0447   -1.0112   -1.0358 C   0  0  0  0  0  0  0  0  0  0  0  0 
    2.4045   -0.3661    0.3058 C   0  0  0  0  0  0  0  0  0  0  0  0 
    3.0088    1.3330    2.7146 C   0  0  0  0  0  0  0  0  0  0  0  0 
    3.0596    1.8311    1.4694 C   0  0  0  0  0  0  0  0  0  0  0  0 
    3.3814    2.1589    3.8755 C   0  0  0  0  0  0  0  0  0  0  0  0 
    2.7408    1.1240    0.1745 C   0  0  1  0  0  0  0  0  0  0  0  0 
    3.3534    1.7719    5.0283 O   0  0  0  0  0  0  0  0  0  0  0  0 
    3.8093    1.3552   -0.7543 O   0  0  0  0  0  0  0  0  0  0  0  0 
    1.8416   -2.0803   -0.9132 H   0  0  0  0  0  0  0  0  0  0  0  0 
    2.8598   -0.8940   -1.7557 H   0  0  0  0  0  0  0  0  0  0  0  0 
    1.1501   -0.5472   -1.4678 H   0  0  0  0  0  0  0  0  0  0  0  0 
    3.2628   -0.8860    0.7558 H   0  0  0  0  0  0  0  0  0  0  0  0 
    1.5711   -0.4798    1.0109 H   0  0  0  0  0  0  0  0  0  0  0  0 
    2.6905    0.3166    2.9320 H   0  0  0  0  0  0  0  0  0  0  0  0 
    3.3953    2.8608    1.3321 H   0  0  0  0  0  0  0  0  0  0  0  0 
    3.7024    3.1958    3.6255 H   0  0  0  0  0  0  0  0  0  0  0  0 
    1.8840    1.6384   -0.2837 H   0  0  0  0  0  0  0  0  0  0  0  0 
    4.6040    0.9355   -0.3844 H   0  0  0  0  0  0  0  0  0  0  0  0 
  1  9  1  0  0  0  0 
  1  2  1  0  0  0  0 
  2 12  1  0  0  0  0 
  2 13  1  0  0  0  0 
  3 14  1  0  0  0  0 
  3  5  1  0  0  0  0 
  4  3  2  0  0  0  0 
  5  7  2  0  0  0  0 
  6 17  1  6  0  0  0 
  6  2  1  0  0  0  0 
  6  4  1  0  0  0  0 
  8 18  1  0  0  0  0 
  8  6  1  0  0  0  0 
 10  1  1  0  0  0  0 
 11  1  1  0  0  0  0 
 15  4  1  0  0  0  0 
 16  5  1  0  0  0  0 
M  END 
>  <HBA> 
2 
 
>  <HBD> 
1 
 
>  <TPSA> 
37.3 
 
>  <cid> 
28536 
 
>  <dipole> 
2.41 
 
>  <excitation_energy_1> 
3.628 
 
>  <excitation_energy_2> 
5.143 
 
>  <excitation_energy_3> 
6.037 
 
>  <excitation_energy_4> 
6.377 
 
>  <homo_energy> 
-6.92 
 
>  <homo_lumo_gap> 
5.165 
 
>  <logP> 
0.512 
 
>  <lumo_energy> 
-1.755 
 
>  <melting_point> 
33.57 
 
>  <molecular_refractivity> 
31.84 
 
>  <oscillator_strength_1> 
0.0003 
 
>  <oscillator_strength_2> 
0.0856 
 
>  <oscillator_strength_3> 
0.4007 
 
>  <oscillator_strength_4> 
0.0079 
 
>  <open_babel_can_smiles> 
CC[C@@H](/C=C/C=O)O 
 
>  <mulliken_charges> 
18 
1   -0.44271 
2   -0.278905 
3   -0.14808 
4   -0.133118 
5   0.233806 
6   0.101518 
7   -0.411567 
8   -0.613774 
9   0.146949 
10   0.162091 
11   0.146321 
12   0.13277 
13   0.146159 
14   0.155239 
15   0.154517 
16   0.102479 
17   0.157113 
18   0.389193 
 
>  <lowdin_charges> 
18 
1   -0.443967 
2   -0.291019 
3   -0.199471 
4   -0.132082 
5   0.043817 
6   -0.002631 
7   -0.225027 
8   -0.454345 
9   0.151431 
10   0.158248 
11   0.15069 
12   0.14245 
13   0.152276 
14   0.169498 
15   0.163703 
16   0.114269 
17   0.158463 
18   0.343697 
 
$$$$ 
 
