PCCDB-ID:  14359 
public computational chemistry database (PCCDB) project, http://pccdb.org 
 
 30 31  0  0  0  0  0  0  0  0999 V2000 
    0.0776    4.4628   -1.0644 C   0  0  0  0  0  0  0  0  0  0  0  0 
    9.3160    4.2504    6.1960 C   0  0  0  0  0  0  0  0  0  0  0  0 
    8.8033    5.5442    6.0963 C   0  0  0  0  0  0  0  0  0  0  0  0 
    8.7026    3.2144    5.4845 C   0  0  0  0  0  0  0  0  0  0  0  0 
    7.6922    5.7959    5.2941 C   0  0  0  0  0  0  0  0  0  0  0  0 
    7.5931    3.4666    4.6842 C   0  0  0  0  0  0  0  0  0  0  0  0 
    5.8991    5.0999    3.7407 C   0  0  0  0  0  0  0  0  0  0  0  0 
    5.2022    4.2657    2.9412 C   0  0  0  0  0  0  0  0  0  0  0  0 
    3.4434    3.5819    1.3443 C   0  0  0  0  0  0  0  0  0  0  0  0 
    3.4658    5.8808    2.0375 C   0  0  0  0  0  0  0  0  0  0  0  0 
    2.3328    3.8193    0.5335 C   0  0  0  0  0  0  0  0  0  0  0  0 
    2.3645    6.1342    1.2383 C   0  0  0  0  0  0  0  0  0  0  0  0 
    7.0622    4.7672    4.5681 C   0  0  0  0  0  0  0  0  0  0  0  0 
    4.0399    4.5926    2.1147 C   0  0  0  0  0  0  0  0  0  0  0  0 
    1.7849    5.1048    0.4769 C   0  0  0  0  0  0  0  0  0  0  0  0 
    0.7044    5.4615   -0.2753 O   0  0  0  0  0  0  0  0  0  0  0  0 
   -0.7473    4.9603   -1.5775 H   0  0  0  0  0  0  0  0  0  0  0  0 
   -0.3194    3.6487   -0.4436 H   0  0  0  0  0  0  0  0  0  0  0  0 
    0.7680    4.0442   -1.8086 H   0  0  0  0  0  0  0  0  0  0  0  0 
   10.1816    4.0485    6.8209 H   0  0  0  0  0  0  0  0  0  0  0  0 
    9.2683    6.3600    6.6438 H   0  0  0  0  0  0  0  0  0  0  0  0 
    9.0914    2.2018    5.5570 H   0  0  0  0  0  0  0  0  0  0  0  0 
    7.2995    6.8078    5.2214 H   0  0  0  0  0  0  0  0  0  0  0  0 
    7.1321    2.6435    4.1462 H   0  0  0  0  0  0  0  0  0  0  0  0 
    5.5949    6.1442    3.7998 H   0  0  0  0  0  0  0  0  0  0  0  0 
    5.5128    3.2234    2.8778 H   0  0  0  0  0  0  0  0  0  0  0  0 
    3.8598    2.5776    1.3791 H   0  0  0  0  0  0  0  0  0  0  0  0 
    3.8892    6.6984    2.6133 H   0  0  0  0  0  0  0  0  0  0  0  0 
    1.9096    3.0037   -0.0416 H   0  0  0  0  0  0  0  0  0  0  0  0 
    1.9272    7.1263    1.1824 H   0  0  0  0  0  0  0  0  0  0  0  0 
  1 18  1  0  0  0  0 
  1 16  1  0  0  0  0 
  2 20  1  0  0  0  0 
  3  2  1  0  0  0  0 
  3 21  1  0  0  0  0 
  4 22  1  0  0  0  0 
  4  2  2  0  0  0  0 
  5  3  2  0  0  0  0 
  6  4  1  0  0  0  0 
  7 25  1  0  0  0  0 
  7 13  1  0  0  0  0 
  8  7  2  0  0  0  0 
  9 27  1  0  0  0  0 
  9 14  2  0  0  0  0 
 10 14  1  0  0  0  0 
 10 28  1  0  0  0  0 
 11  9  1  0  0  0  0 
 12 10  2  0  0  0  0 
 13  6  2  0  0  0  0 
 13  5  1  0  0  0  0 
 14  8  1  0  0  0  0 
 15 11  2  0  0  0  0 
 15 12  1  0  0  0  0 
 16 15  1  0  0  0  0 
 17  1  1  0  0  0  0 
 19  1  1  0  0  0  0 
 23  5  1  0  0  0  0 
 24  6  1  0  0  0  0 
 26  8  1  0  0  0  0 
 29 11  1  0  0  0  0 
 30 12  1  0  0  0  0 
M  END 
>  <HBA> 
1 
 
>  <HBD> 
0 
 
>  <TPSA> 
9.23 
 
>  <cid> 
14359 
 
>  <dipole> 
1.76 
 
>  <excitation_energy_1> 
3.729 
 
>  <excitation_energy_2> 
4.338 
 
>  <excitation_energy_3> 
4.438 
 
>  <excitation_energy_4> 
4.84 
 
>  <homo_energy> 
-5.178 
 
>  <homo_lumo_gap> 
4.016 
 
>  <logP> 
3.866 
 
>  <lumo_energy> 
-1.162 
 
>  <melting_point> 
73.9 
 
>  <molecular_refractivity> 
68.3 
 
>  <oscillator_strength_1> 
1.0063 
 
>  <oscillator_strength_2> 
0.0857 
 
>  <oscillator_strength_3> 
0.0141 
 
>  <oscillator_strength_4> 
0.0155 
 
>  <open_babel_can_smiles> 
COc1ccc(cc1)/C=C/c1ccccc1 
 
>  <mulliken_charges> 
30 
1   -0.215604 
2   -0.130642 
3   -0.129672 
4   -0.130705 
5   -0.198919 
6   -0.181743 
7   -0.195151 
8   -0.186825 
9   -0.211307 
10   -0.184259 
11   -0.195334 
12   -0.173654 
13   0.183752 
14   0.184292 
15   0.376647 
16   -0.505122 
17   0.170966 
18   0.153166 
19   0.153188 
20   0.127756 
21   0.128487 
22   0.128086 
23   0.125419 
24   0.127327 
25   0.123476 
26   0.124207 
27   0.128431 
28   0.132485 
29   0.131791 
30   0.139459 
 
>  <lowdin_charges> 
30 
1   -0.281512 
2   -0.160069 
3   -0.156946 
4   -0.153563 
5   -0.162073 
6   -0.160249 
7   -0.164801 
8   -0.152904 
9   -0.148568 
10   -0.14627 
11   -0.215702 
12   -0.17808 
13   0.002385 
14   -0.018505 
15   0.103508 
16   -0.194859 
17   0.164518 
18   0.14697 
19   0.147158 
20   0.157363 
21   0.158403 
22   0.155996 
23   0.15403 
24   0.156845 
25   0.150157 
26   0.150534 
27   0.155728 
28   0.160177 
29   0.163677 
30   0.166649 
 
$$$$ 
 
