PCCDB-ID:  32505 
public computational chemistry database (PCCDB) project, http://pccdb.org 
 
 25 26  0  0  0  0  0  0  0  0999 V2000 
    2.6391    1.5014    1.2223 C   0  0  0  0  0  0  0  0  0  0  0  0 
    4.7325   -3.0014    2.1199 C   0  0  0  0  0  0  0  0  0  0  0  0 
    5.0077   -1.7146    2.5793 C   0  0  0  0  0  0  0  0  0  0  0  0 
    3.6795   -3.1966    1.2278 C   0  0  0  0  0  0  0  0  0  0  0  0 
    4.2384   -0.6313    2.1533 C   0  0  0  0  0  0  0  0  0  0  0  0 
    0.8188   -4.3918   -1.8391 C   0  0  0  0  0  0  0  0  0  0  0  0 
   -0.3268   -3.8489   -0.9855 C   0  0  0  0  0  0  0  0  0  0  0  0 
    2.8913   -2.1323    0.7823 C   0  0  0  0  0  0  0  0  0  0  0  0 
    3.1799   -0.8341    1.2587 C   0  0  0  0  0  0  0  0  0  0  0  0 
    1.7408   -2.3436   -0.1727 C   0  0  0  0  0  0  0  0  0  0  0  0 
    2.3763    0.1730    0.8005 O   0  0  0  0  0  0  0  0  0  0  0  0 
    2.2390   -3.2197   -1.7568 S   0  0  0  0  0  0  0  0  0  0  0  0 
    0.3795   -3.3140    0.6142 S   0  0  0  0  0  0  0  0  0  0  0  0 
    1.8986    2.1253    0.7185 H   0  0  0  0  0  0  0  0  0  0  0  0 
    3.6463    1.8260    0.9303 H   0  0  0  0  0  0  0  0  0  0  0  0 
    2.5247    1.6096    2.3087 H   0  0  0  0  0  0  0  0  0  0  0  0 
    5.3308   -3.8451    2.4507 H   0  0  0  0  0  0  0  0  0  0  0  0 
    5.8262   -1.5433    3.2734 H   0  0  0  0  0  0  0  0  0  0  0  0 
    3.4578   -4.1914    0.8535 H   0  0  0  0  0  0  0  0  0  0  0  0 
    4.4656    0.3622    2.5215 H   0  0  0  0  0  0  0  0  0  0  0  0 
    0.5200   -4.4827   -2.8887 H   0  0  0  0  0  0  0  0  0  0  0  0 
    1.1361   -5.3730   -1.4762 H   0  0  0  0  0  0  0  0  0  0  0  0 
   -1.0736   -4.6230   -0.7795 H   0  0  0  0  0  0  0  0  0  0  0  0 
   -0.8220   -3.0071   -1.4800 H   0  0  0  0  0  0  0  0  0  0  0  0 
    1.3388   -1.3772   -0.4678 H   0  0  0  0  0  0  0  0  0  0  0  0 
  1 16  1  0  0  0  0 
  2 17  1  0  0  0  0 
  2  3  2  0  0  0  0 
  3 18  1  0  0  0  0 
  4  2  1  0  0  0  0 
  5 20  1  0  0  0  0 
  5  3  1  0  0  0  0 
  6 12  1  0  0  0  0 
  6 22  1  0  0  0  0 
  6  7  1  0  0  0  0 
  7 23  1  0  0  0  0 
  7 13  1  0  0  0  0 
  8  4  2  0  0  0  0 
  8  9  1  0  0  0  0 
  9  5  2  0  0  0  0 
 10 13  1  0  0  0  0 
 10  8  1  0  0  0  0 
 11  1  1  0  0  0  0 
 11  9  1  0  0  0  0 
 12 10  1  0  0  0  0 
 14  1  1  0  0  0  0 
 15  1  1  0  0  0  0 
 19  4  1  0  0  0  0 
 21  6  1  0  0  0  0 
 24  7  1  0  0  0  0 
 25 10  1  0  0  0  0 
M  END 
>  <HBA> 
3 
 
>  <HBD> 
0 
 
>  <TPSA> 
59.83 
 
>  <cid> 
32505 
 
>  <dipole> 
1.32 
 
>  <excitation_energy_1> 
4.516 
 
>  <excitation_energy_2> 
4.61 
 
>  <excitation_energy_3> 
4.657 
 
>  <excitation_energy_4> 
4.785 
 
>  <homo_energy> 
-5.802 
 
>  <homo_lumo_gap> 
5.421 
 
>  <logP> 
3.174 
 
>  <lumo_energy> 
-0.381 
 
>  <melting_point> 
52.45 
 
>  <molecular_refractivity> 
60.58 
 
>  <oscillator_strength_1> 
0.0212 
 
>  <oscillator_strength_2> 
0.0018 
 
>  <oscillator_strength_3> 
0.0017 
 
>  <oscillator_strength_4> 
0.0573 
 
>  <open_babel_can_smiles> 
COc1ccccc1C1SCCS1 
 
>  <mulliken_charges> 
25 
1   -0.215039 
2   -0.134205 
3   -0.133996 
4   -0.156264 
5   -0.192651 
6   -0.412306 
7   -0.416234 
8   0.105831 
9   0.338699 
10   -0.489995 
11   -0.513723 
12   0.105173 
13   0.129024 
14   0.171685 
15   0.154781 
16   0.155088 
17   0.12887 
18   0.13097 
19   0.151799 
20   0.132292 
21   0.18001 
22   0.187205 
23   0.181589 
24   0.184785 
25   0.226613 
 
>  <lowdin_charges> 
25 
1   -0.274096 
2   -0.17694 
3   -0.142334 
4   -0.131899 
5   -0.213426 
6   -0.375316 
7   -0.380009 
8   -0.046673 
9   0.09972 
10   -0.311695 
11   -0.200964 
12   0.078945 
13   0.115223 
14   0.165339 
15   0.146189 
16   0.144826 
17   0.159702 
18   0.158888 
19   0.170705 
20   0.162374 
21   0.168068 
22   0.163462 
23   0.174092 
24   0.163667 
25   0.182152 
 
$$$$ 
 
