PCCDB-ID:  66740 
public computational chemistry database (PCCDB) project, http://pccdb.org 
 
 19 20  0  0  0  0  0  0  0  0999 V2000 
    2.0972    0.7777    0.0632 C   0  0  0  0  0  0  0  0  0  0  0  0 
    0.8546    1.4104    0.0955 C   0  0  0  0  0  0  0  0  0  0  0  0 
    1.0349   -1.4050   -0.0285 C   0  0  0  0  0  0  0  0  0  0  0  0 
    2.2011   -0.6207    0.0115 C   0  0  0  0  0  0  0  0  0  0  0  0 
   -0.2956    0.6225    0.0786 C   0  0  0  0  0  0  0  0  0  0  0  0 
   -0.2011   -0.7835    0.0150 C   0  0  0  0  0  0  0  0  0  0  0  0 
    3.5097   -1.3443   -0.0455 C   0  0  0  0  0  0  0  0  0  0  0  0 
   -2.6073    0.0822    0.0752 C   0  0  0  0  0  0  0  0  0  0  0  0 
   -3.8725    0.1909    0.0913 N   0  0  0  0  0  0  0  0  0  0  0  0 
   -1.6086    1.0589    0.1117 N   0  0  0  0  0  0  0  0  0  0  0  0 
    3.6249   -2.4789   -0.4455 O   0  0  0  0  0  0  0  0  0  0  0  0 
    4.6096   -0.6628    0.3824 O   0  0  0  0  0  0  0  0  0  0  0  0 
   -1.8070   -1.5282   -0.0021 S   0  0  0  0  0  0  0  0  0  0  0  0 
    2.9875    1.4008    0.0340 H   0  0  0  0  0  0  0  0  0  0  0  0 
    0.7854    2.4940    0.1237 H   0  0  0  0  0  0  0  0  0  0  0  0 
    1.1332   -2.4832   -0.0942 H   0  0  0  0  0  0  0  0  0  0  0  0 
   -4.1804    1.1649    0.1380 H   0  0  0  0  0  0  0  0  0  0  0  0 
   -1.8557    2.0385    0.1497 H   0  0  0  0  0  0  0  0  0  0  0  0 
    4.3415    0.1530    0.8348 H   0  0  0  0  0  0  0  0  0  0  0  0 
  1  2  1  0  0  0  0 
  2 15  1  0  0  0  0 
  3  4  1  0  0  0  0 
  3  6  2  0  0  0  0 
  4  1  2  0  0  0  0 
  5  2  2  0  0  0  0 
  5 10  1  0  0  0  0 
  6  5  1  0  0  0  0 
  7  4  1  0  0  0  0 
  7 12  1  0  0  0  0 
  8  9  2  0  0  0  0 
  8 10  1  0  0  0  0 
  9 17  1  0  0  0  0 
 10 18  1  0  0  0  0 
 11  7  2  0  0  0  0 
 12 19  1  0  0  0  0 
 13  6  1  0  0  0  0 
 13  8  1  0  0  0  0 
 14  1  1  0  0  0  0 
 16  3  1  0  0  0  0 
M  END 
>  <HBA> 
5 
 
>  <HBD> 
2 
 
>  <TPSA> 
104.45 
 
>  <cid> 
66740 
 
>  <dipole> 
6.87 
 
>  <excitation_energy_1> 
4.079 
 
>  <excitation_energy_2> 
4.387 
 
>  <excitation_energy_3> 
4.595 
 
>  <excitation_energy_4> 
4.782 
 
>  <homo_energy> 
-6.074 
 
>  <homo_lumo_gap> 
4.656 
 
>  <logP> 
2.158 
 
>  <lumo_energy> 
-1.418 
 
>  <melting_point> 
204.87 
 
>  <molecular_refractivity> 
50.98 
 
>  <oscillator_strength_1> 
0.1276 
 
>  <oscillator_strength_2> 
0.0242 
 
>  <oscillator_strength_3> 
0.0001 
 
>  <oscillator_strength_4> 
0.0293 
 
>  <open_babel_can_smiles> 
OC(=O)c1ccc2c(c1)sc(=N)[nH]2 
 
>  <mulliken_charges> 
19 
1   -0.21739 
2   -0.163792 
3   -0.2177 
4   0.066113 
5   0.396358 
6   -0.147572 
7   0.552061 
8   0.326366 
9   -0.624705 
10   -0.699993 
11   -0.44708 
12   -0.576779 
13   0.262217 
14   0.137711 
15   0.14129 
16   0.18448 
17   0.283914 
18   0.335166 
19   0.409337 
 
>  <lowdin_charges> 
19 
1   -0.16028 
2   -0.1854 
3   -0.127755 
4   -0.067186 
5   0.058327 
6   -0.145697 
7   0.190517 
8   -0.011095 
9   -0.414232 
10   -0.236277 
11   -0.240484 
12   -0.356509 
13   0.27424 
14   0.160865 
15   0.163962 
16   0.187589 
17   0.257877 
18   0.294882 
19   0.356655 
 
$$$$ 
 
