PCCDB-ID:  68415 
public computational chemistry database (PCCDB) project, http://pccdb.org 
 
 35 35  0  0  1  0  0  0  0  0999 V2000 
    1.8403    0.8641   -0.4450 C   0  0  0  0  0  0  0  0  0  0  0  0 
    8.1798   -1.2606    3.0864 C   0  0  0  0  0  0  0  0  0  0  0  0 
    5.4098    0.1294    3.2939 C   0  0  0  0  0  0  0  0  0  0  0  0 
    5.3116   -2.3021    2.7236 C   0  0  0  0  0  0  0  0  0  0  0  0 
    2.6115   -0.2054   -0.2520 C   0  0  0  0  0  0  0  0  0  0  0  0 
    7.2600   -0.9045    1.9093 C   0  0  0  0  0  0  0  0  0  0  0  0 
    3.3768   -0.4826    1.0185 C   0  0  0  0  0  0  0  0  0  0  0  0 
    5.4289    0.7809    0.2428 C   0  0  0  0  0  0  0  0  0  0  0  0 
    5.2439   -1.6017   -0.2638 C   0  0  0  0  0  0  0  0  0  0  0  0 
    6.7668   -0.2373   -1.3427 C   0  0  0  0  0  0  0  0  0  0  0  0 
    5.7286   -0.9104    2.1961 C   0  0  0  0  0  0  0  0  0  0  0  0 
    4.9343   -0.5574    0.8230 C   0  0  2  0  0  0  0  0  0  0  0  0 
    6.2464    0.9227   -0.7222 N   0  0  0  0  0  0  0  0  0  0  0  0 
    6.0588   -1.4605   -1.2299 N   0  0  0  0  0  0  0  0  0  0  0  0 
    4.9837    1.9216    0.8168 O   0  0  0  0  0  0  0  0  0  0  0  0 
    4.5824   -2.7840   -0.2129 O   0  0  0  0  0  0  0  0  0  0  0  0 
    7.7848   -0.1808   -1.9947 O   0  0  0  0  0  0  0  0  0  0  0  0 
    1.3065    1.0189   -1.3778 H   0  0  0  0  0  0  0  0  0  0  0  0 
    1.7109    1.6298    0.3177 H   0  0  0  0  0  0  0  0  0  0  0  0 
    9.2219   -1.1999    2.7559 H   0  0  0  0  0  0  0  0  0  0  0  0 
    8.0174   -2.2791    3.4543 H   0  0  0  0  0  0  0  0  0  0  0  0 
    8.0688   -0.5722    3.9309 H   0  0  0  0  0  0  0  0  0  0  0  0 
    5.8976   -0.1638    4.2277 H   0  0  0  0  0  0  0  0  0  0  0  0 
    4.3385    0.1919    3.5166 H   0  0  0  0  0  0  0  0  0  0  0  0 
    5.7797    1.1273    3.0397 H   0  0  0  0  0  0  0  0  0  0  0  0 
    5.7933   -2.4888    3.6874 H   0  0  0  0  0  0  0  0  0  0  0  0 
    5.6164   -3.1104    2.0516 H   0  0  0  0  0  0  0  0  0  0  0  0 
    4.2329   -2.3781    2.9065 H   0  0  0  0  0  0  0  0  0  0  0  0 
    2.7127   -0.9437   -1.0461 H   0  0  0  0  0  0  0  0  0  0  0  0 
    7.4710   -1.6037    1.0922 H   0  0  0  0  0  0  0  0  0  0  0  0 
    7.5465    0.0880    1.5439 H   0  0  0  0  0  0  0  0  0  0  0  0 
    3.0183   -1.4194    1.4648 H   0  0  0  0  0  0  0  0  0  0  0  0 
    3.1179    0.2757    1.7655 H   0  0  0  0  0  0  0  0  0  0  0  0 
    4.3381    1.7200    1.5093 H   0  0  0  0  0  0  0  0  0  0  0  0 
    4.0219   -2.8257    0.5758 H   0  0  0  0  0  0  0  0  0  0  0  0 
  1  5  2  0  0  0  0 
  1 19  1  0  0  0  0 
  2 21  1  0  0  0  0 
  2 22  1  0  0  0  0 
  3 24  1  0  0  0  0 
  3 23  1  0  0  0  0 
  4 28  1  0  0  0  0 
  4 26  1  0  0  0  0 
  5  7  1  0  0  0  0 
  6 11  1  0  0  0  0 
  6  2  1  0  0  0  0 
  7 32  1  0  0  0  0 
  7 33  1  0  0  0  0 
  8 15  1  0  0  0  0 
  8 12  1  0  0  0  0 
  9 16  1  0  0  0  0 
  9 12  1  0  0  0  0 
 10 14  1  0  0  0  0 
 10 13  2  0  0  0  0 
 11  4  1  0  0  0  0 
 11  3  1  0  0  0  0 
 12  7  1  1  0  0  0 
 12 11  1  0  0  0  0 
 13  8  2  0  0  0  0 
 14  9  2  0  0  0  0 
 15 34  1  0  0  0  0 
 16 35  1  0  0  0  0 
 17 10  2  0  0  0  0 
 18  1  1  0  0  0  0 
 20  2  1  0  0  0  0 
 25  3  1  0  0  0  0 
 27  4  1  0  0  0  0 
 29  5  1  0  0  0  0 
 30  6  1  0  0  0  0 
 31  6  1  0  0  0  0 
M  END 
>  <HBA> 
5 
 
>  <HBD> 
2 
 
>  <TPSA> 
75.27 
 
>  <cid> 
68415 
 
>  <dipole> 
9.7 
 
>  <excitation_energy_1> 
3.957 
 
>  <excitation_energy_2> 
4.23 
 
>  <excitation_energy_3> 
5.228 
 
>  <excitation_energy_4> 
5.388 
 
>  <homo_energy> 
-6.819 
 
>  <homo_lumo_gap> 
5.325 
 
>  <logP> 
2.009 
 
>  <lumo_energy> 
-1.494 
 
>  <melting_point> 
137.67 
 
>  <molecular_refractivity> 
71.11 
 
>  <oscillator_strength_1> 
0.0007 
 
>  <oscillator_strength_2> 
0.0004 
 
>  <oscillator_strength_3> 
0.0091 
 
>  <oscillator_strength_4> 
0.0134 
 
>  <open_babel_can_smiles> 
C=CC[C@]1(C(=N[C](=[N]=C1O)=O)O)C(CC)(C)C 
 
>  <mulliken_charges> 
35 
1   -0.330535 
2   -0.462007 
3   -0.505546 
4   -0.509741 
5   -0.041714 
6   -0.295778 
7   -0.392096 
8   0.530997 
9   0.514864 
10   0.614886 
11   0.119819 
12   -0.1136 
13   -0.458174 
14   -0.456001 
15   -0.573042 
16   -0.579958 
17   -0.433906 
18   0.163103 
19   0.139035 
20   0.165486 
21   0.14924 
22   0.148211 
23   0.168723 
24   0.142786 
25   0.169665 
26   0.170787 
27   0.172842 
28   0.139671 
29   0.16556 
30   0.168953 
31   0.169855 
32   0.152809 
33   0.145199 
34   0.418674 
35   0.420933 
 
>  <lowdin_charges> 
35 
1   -0.315786 
2   -0.446175 
3   -0.460493 
4   -0.461969 
5   -0.164347 
6   -0.288055 
7   -0.282922 
8   0.149397 
9   0.14382 
10   0.168514 
11   0.021233 
12   -0.061054 
13   -0.18128 
14   -0.1803 
15   -0.327077 
16   -0.334205 
17   -0.213571 
18   0.171422 
19   0.155736 
20   0.162839 
21   0.148581 
22   0.149207 
23   0.164755 
24   0.14469 
25   0.15962 
26   0.16564 
27   0.162146 
28   0.142779 
29   0.169356 
30   0.160615 
31   0.15982 
32   0.152754 
33   0.150793 
34   0.356453 
35   0.357064 
 
$$$$ 
 
