PCCDB-ID:  7094 
public computational chemistry database (PCCDB) project, http://pccdb.org 
 
 34 35  0  0  0  0  0  0  0  0999 V2000 
    0.9052    1.2109   -1.3371 C   0  0  0  0  0  0  0  0  0  0  0  0 
   -1.9643    0.7125    3.9132 C   0  0  0  0  0  0  0  0  0  0  0  0 
    1.4686   -0.1161   -0.8091 C   0  0  0  0  0  0  0  0  0  0  0  0 
   -0.2095    1.7444   -0.4247 C   0  0  0  0  0  0  0  0  0  0  0  0 
   -2.6738   -0.3639    3.0796 C   0  0  0  0  0  0  0  0  0  0  0  0 
   -0.7829    1.3234    3.1445 C   0  0  0  0  0  0  0  0  0  0  0  0 
    0.3477   -1.1511   -0.6332 C   0  0  0  0  0  0  0  0  0  0  0  0 
   -1.3089    0.6926   -0.1852 C   0  0  0  0  0  0  0  0  0  0  0  0 
   -1.6805   -1.4459    2.6295 C   0  0  0  0  0  0  0  0  0  0  0  0 
    0.1882    0.2435    2.6313 C   0  0  0  0  0  0  0  0  0  0  0  0 
   -0.8037   -0.6929    0.3006 C   0  0  0  0  0  0  0  0  0  0  0  0 
   -0.4697   -0.9064    1.8224 C   0  0  0  0  0  0  0  0  0  0  0  0 
    0.5000    1.0478   -2.3473 H   0  0  0  0  0  0  0  0  0  0  0  0 
    1.7033    1.9576   -1.4390 H   0  0  0  0  0  0  0  0  0  0  0  0 
   -1.5938    0.2553    4.8431 H   0  0  0  0  0  0  0  0  0  0  0  0 
   -2.6700    1.4983    4.2125 H   0  0  0  0  0  0  0  0  0  0  0  0 
    1.9828    0.0537    0.1469 H   0  0  0  0  0  0  0  0  0  0  0  0 
    2.2272   -0.5068   -1.5000 H   0  0  0  0  0  0  0  0  0  0  0  0 
   -0.6609    2.6418   -0.8688 H   0  0  0  0  0  0  0  0  0  0  0  0 
    0.2292    2.0651    0.5276 H   0  0  0  0  0  0  0  0  0  0  0  0 
   -3.1527    0.0994    2.2058 H   0  0  0  0  0  0  0  0  0  0  0  0 
   -3.4816   -0.8238    3.6639 H   0  0  0  0  0  0  0  0  0  0  0  0 
   -0.2354    2.0220    3.7911 H   0  0  0  0  0  0  0  0  0  0  0  0 
   -1.1692    1.9204    2.3102 H   0  0  0  0  0  0  0  0  0  0  0  0 
    0.7591   -2.1046   -0.2769 H   0  0  0  0  0  0  0  0  0  0  0  0 
   -0.0809   -1.3549   -1.6262 H   0  0  0  0  0  0  0  0  0  0  0  0 
   -1.8197    0.5259   -1.1456 H   0  0  0  0  0  0  0  0  0  0  0  0 
   -2.0727    1.0912    0.4907 H   0  0  0  0  0  0  0  0  0  0  0  0 
   -2.1972   -2.2230    2.0510 H   0  0  0  0  0  0  0  0  0  0  0  0 
   -1.2931   -1.9430    3.5318 H   0  0  0  0  0  0  0  0  0  0  0  0 
    0.6625   -0.2174    3.5109 H   0  0  0  0  0  0  0  0  0  0  0  0 
    1.0034    0.7059    2.0652 H   0  0  0  0  0  0  0  0  0  0  0  0 
   -1.6292   -1.3928    0.1074 H   0  0  0  0  0  0  0  0  0  0  0  0 
    0.2646   -1.7247    1.8219 H   0  0  0  0  0  0  0  0  0  0  0  0 
  1  3  1  0  0  0  0 
  1  4  1  0  0  0  0 
  2 16  1  0  0  0  0 
  2 15  1  0  0  0  0 
  3  7  1  0  0  0  0 
  3 17  1  0  0  0  0 
  4  8  1  0  0  0  0 
  4 20  1  0  0  0  0 
  5 22  1  0  0  0  0 
  5  2  1  0  0  0  0 
  6 23  1  0  0  0  0 
  6  2  1  0  0  0  0 
  7 25  1  0  0  0  0 
  7 11  1  0  0  0  0 
  8 11  1  0  0  0  0 
  8 28  1  0  0  0  0 
  9  5  1  0  0  0  0 
  9 30  1  0  0  0  0 
 10  6  1  0  0  0  0 
 10 31  1  0  0  0  0 
 11 12  1  0  0  0  0 
 12  9  1  0  0  0  0 
 12 10  1  0  0  0  0 
 13  1  1  0  0  0  0 
 14  1  1  0  0  0  0 
 18  3  1  0  0  0  0 
 19  4  1  0  0  0  0 
 21  5  1  0  0  0  0 
 24  6  1  0  0  0  0 
 26  7  1  0  0  0  0 
 27  8  1  0  0  0  0 
 29  9  1  0  0  0  0 
 32 10  1  0  0  0  0 
 33 11  1  0  0  0  0 
 34 12  1  0  0  0  0 
M  END 
>  <HBA> 
0 
 
>  <HBD> 
0 
 
>  <TPSA> 
0.0 
 
>  <cid> 
7094 
 
>  <dipole> 
0.02 
 
>  <excitation_energy_1> 
6.904 
 
>  <excitation_energy_2> 
7.094 
 
>  <excitation_energy_3> 
7.128 
 
>  <excitation_energy_4> 
7.18 
 
>  <homo_energy> 
-7.491 
 
>  <homo_lumo_gap> 
9.44 
 
>  <logP> 
4.147 
 
>  <lumo_energy> 
1.948 
 
>  <melting_point> 
14.61 
 
>  <molecular_refractivity> 
55.57 
 
>  <oscillator_strength_1> 
0.002 
 
>  <oscillator_strength_2> 
0.0023 
 
>  <oscillator_strength_3> 
0.0007 
 
>  <oscillator_strength_4> 
0.0134 
 
>  <open_babel_can_smiles> 
C1CCC(CC1)C1CCCCC1 
 
>  <mulliken_charges> 
34 
1   -0.256372 
2   -0.256083 
3   -0.258487 
4   -0.263744 
5   -0.258683 
6   -0.263772 
7   -0.274031 
8   -0.275746 
9   -0.274229 
10   -0.275878 
11   -0.07796 
12   -0.078127 
13   0.12489 
14   0.127073 
15   0.124851 
16   0.127045 
17   0.134224 
18   0.12767 
19   0.12711 
20   0.139508 
21   0.134129 
22   0.127781 
23   0.127166 
24   0.13945 
25   0.126315 
26   0.123227 
27   0.124435 
28   0.135773 
29   0.126412 
30   0.123253 
31   0.124449 
32   0.135887 
33   0.116201 
34   0.116267 
 
>  <lowdin_charges> 
34 
1   -0.277563 
2   -0.278805 
3   -0.281797 
4   -0.283921 
5   -0.282713 
6   -0.285831 
7   -0.278811 
8   -0.285417 
9   -0.281189 
10   -0.286143 
11   -0.133733 
12   -0.133834 
13   0.134799 
14   0.142265 
15   0.135805 
16   0.142568 
17   0.138294 
18   0.143196 
19   0.142551 
20   0.14212 
21   0.13913 
22   0.143227 
23   0.143537 
24   0.142991 
25   0.139228 
26   0.136261 
27   0.13943 
28   0.142845 
29   0.140578 
30   0.137266 
31   0.140355 
32   0.142833 
33   0.1403 
34   0.140179 
 
$$$$ 
 
