PCCDB-ID:  44302 
public computational chemistry database (PCCDB) project, http://pccdb.org 
 
 31 32  0  0  0  0  0  0  0  0999 V2000 
    1.2529    0.0429    0.2825 C   0  0  0  0  0  0  0  0  0  0  0  0 
    3.5360   -0.1829    1.1077 C   0  0  0  0  0  0  0  0  0  0  0  0 
    5.5887    1.3712   -7.8397 C   0  0  0  0  0  0  0  0  0  0  0  0 
    6.0753    2.0663   -6.7313 C   0  0  0  0  0  0  0  0  0  0  0  0 
    4.6146    0.3874   -7.6591 C   0  0  0  0  0  0  0  0  0  0  0  0 
    5.5924    1.7800   -5.4552 C   0  0  0  0  0  0  0  0  0  0  0  0 
    4.1308    0.1032   -6.3829 C   0  0  0  0  0  0  0  0  0  0  0  0 
    3.7992   -0.8275   -3.5114 C   0  0  0  0  0  0  0  0  0  0  0  0 
    3.3184   -1.0927   -2.2299 C   0  0  0  0  0  0  0  0  0  0  0  0 
    3.8868    1.5141   -2.9637 C   0  0  0  0  0  0  0  0  0  0  0  0 
    4.6106    0.7942   -5.2573 C   0  0  0  0  0  0  0  0  0  0  0  0 
    4.0938    0.4879   -3.8989 C   0  0  0  0  0  0  0  0  0  0  0  0 
    3.1080   -0.0809   -1.2899 C   0  0  0  0  0  0  0  0  0  0  0  0 
    3.4028    1.2419   -1.6835 C   0  0  0  0  0  0  0  0  0  0  0  0 
    2.6074   -0.4339    0.0064 N   0  0  0  0  0  0  0  0  0  0  0  0 
    3.1874    2.2419   -0.7701 O   0  0  0  0  0  0  0  0  0  0  0  0 
    0.8828   -0.4519    1.1889 H   0  0  0  0  0  0  0  0  0  0  0  0 
    0.5953   -0.2354   -0.5470 H   0  0  0  0  0  0  0  0  0  0  0  0 
    1.1854    1.1330    0.4317 H   0  0  0  0  0  0  0  0  0  0  0  0 
    3.1547   -0.6785    2.0089 H   0  0  0  0  0  0  0  0  0  0  0  0 
    3.6806    0.8856    1.3353 H   0  0  0  0  0  0  0  0  0  0  0  0 
    4.5093   -0.6220    0.8671 H   0  0  0  0  0  0  0  0  0  0  0  0 
    5.9652    1.5934   -8.8345 H   0  0  0  0  0  0  0  0  0  0  0  0 
    6.8413    2.8270   -6.8581 H   0  0  0  0  0  0  0  0  0  0  0  0 
    4.2220   -0.1547   -8.5155 H   0  0  0  0  0  0  0  0  0  0  0  0 
    6.0010    2.3056   -4.5964 H   0  0  0  0  0  0  0  0  0  0  0  0 
    3.3529   -0.6445   -6.2565 H   0  0  0  0  0  0  0  0  0  0  0  0 
    3.9775   -1.6467   -4.2011 H   0  0  0  0  0  0  0  0  0  0  0  0 
    3.0996   -2.1104   -1.9203 H   0  0  0  0  0  0  0  0  0  0  0  0 
    4.0758    2.5477   -3.2494 H   0  0  0  0  0  0  0  0  0  0  0  0 
    3.4254    3.0901   -1.1761 H   0  0  0  0  0  0  0  0  0  0  0  0 
  1 19  1  0  0  0  0 
  1 17  1  0  0  0  0 
  2 21  1  0  0  0  0 
  2 20  1  0  0  0  0 
  3  5  2  0  0  0  0 
  3  4  1  0  0  0  0 
  4  6  2  0  0  0  0 
  5  7  1  0  0  0  0 
  6 11  1  0  0  0  0 
  6 26  1  0  0  0  0 
  7 27  1  0  0  0  0 
  7 11  2  0  0  0  0 
  8  9  1  0  0  0  0 
  9 29  1  0  0  0  0 
  9 13  2  0  0  0  0 
 10 14  2  0  0  0  0 
 11 12  1  0  0  0  0 
 12  8  2  0  0  0  0 
 12 10  1  0  0  0  0 
 13 15  1  0  0  0  0 
 14 13  1  0  0  0  0 
 14 16  1  0  0  0  0 
 15  1  1  0  0  0  0 
 15  2  1  0  0  0  0 
 18  1  1  0  0  0  0 
 22  2  1  0  0  0  0 
 23  3  1  0  0  0  0 
 24  4  1  0  0  0  0 
 25  5  1  0  0  0  0 
 28  8  1  0  0  0  0 
 30 10  1  0  0  0  0 
 31 16  1  0  0  0  0 
M  END 
>  <HBA> 
2 
 
>  <HBD> 
1 
 
>  <TPSA> 
23.47 
 
>  <cid> 
44302 
 
>  <dipole> 
1.78 
 
>  <excitation_energy_1> 
3.98 
 
>  <excitation_energy_2> 
4.507 
 
>  <excitation_energy_3> 
4.699 
 
>  <excitation_energy_4> 
4.844 
 
>  <homo_energy> 
-5.54 
 
>  <homo_lumo_gap> 
4.846 
 
>  <logP> 
3.125 
 
>  <lumo_energy> 
-0.694 
 
>  <melting_point> 
91.91 
 
>  <molecular_refractivity> 
68.11 
 
>  <oscillator_strength_1> 
0.0001 
 
>  <oscillator_strength_2> 
0.2341 
 
>  <oscillator_strength_3> 
0.0005 
 
>  <oscillator_strength_4> 
0.05 
 
>  <open_babel_can_smiles> 
CN(c1ccc(cc1O)c1ccccc1)C 
 
>  <mulliken_charges> 
31 
1   -0.297901 
2   -0.298514 
3   -0.126764 
4   -0.134216 
5   -0.133773 
6   -0.172582 
7   -0.172737 
8   -0.192374 
9   -0.161835 
10   -0.262411 
11   0.083128 
12   0.099836 
13   0.217953 
14   0.334243 
15   -0.448784 
16   -0.646491 
17   0.141774 
18   0.149639 
19   0.142512 
20   0.14158 
21   0.14325 
22   0.149681 
23   0.129528 
24   0.129621 
25   0.130727 
26   0.128281 
27   0.134213 
28   0.129664 
29   0.135479 
30   0.119011 
31   0.408262 
 
>  <lowdin_charges> 
31 
1   -0.352244 
2   -0.353228 
3   -0.158018 
4   -0.154349 
5   -0.155517 
6   -0.164868 
7   -0.159822 
8   -0.185294 
9   -0.147596 
10   -0.21866 
11   -0.000759 
12   0.007066 
13   0.011623 
14   0.089365 
15   -0.170401 
16   -0.376764 
17   0.146508 
18   0.152199 
19   0.131324 
20   0.146492 
21   0.132289 
22   0.151068 
23   0.157444 
24   0.157906 
25   0.159122 
26   0.158279 
27   0.16065 
28   0.160688 
29   0.164883 
30   0.152436 
31   0.358176 
 
$$$$ 
 
