PCCDB-ID:  17586 
public computational chemistry database (PCCDB) project, http://pccdb.org 
 
 21 20  0  0  1  0  0  0  0  0999 V2000 
    2.8470    0.3553    1.6883 C   0  0  0  0  0  0  0  0  0  0  0  0 
    4.1856    4.2104   -0.8755 C   0  0  0  0  0  0  0  0  0  0  0  0 
    0.9324    1.2555   -1.6097 C   0  0  0  0  0  0  0  0  0  0  0  0 
    1.6814    0.5735    0.7205 C   0  0  0  0  0  0  0  0  0  0  0  0 
    3.5574    2.9205   -1.3802 C   0  0  0  0  0  0  0  0  0  0  0  0 
    2.1082    1.1494   -0.6333 C   0  0  2  0  0  0  0  0  0  0  0  0 
    2.6875    2.4297   -0.3741 O   0  0  0  0  0  0  0  0  0  0  0  0 
    2.4941   -0.0305    2.6513 H   0  0  0  0  0  0  0  0  0  0  0  0 
    3.3770    1.2951    1.8678 H   0  0  0  0  0  0  0  0  0  0  0  0 
    3.5678   -0.3669    1.2844 H   0  0  0  0  0  0  0  0  0  0  0  0 
    4.8697    4.6235   -1.6252 H   0  0  0  0  0  0  0  0  0  0  0  0 
    4.7469    4.0285    0.0468 H   0  0  0  0  0  0  0  0  0  0  0  0 
    3.4121    4.9557   -0.6631 H   0  0  0  0  0  0  0  0  0  0  0  0 
    0.5021    0.2667   -1.8071 H   0  0  0  0  0  0  0  0  0  0  0  0 
    1.2414    1.6805   -2.5705 H   0  0  0  0  0  0  0  0  0  0  0  0 
    0.1490    1.8965   -1.1897 H   0  0  0  0  0  0  0  0  0  0  0  0 
    0.9484    1.2601    1.1652 H   0  0  0  0  0  0  0  0  0  0  0  0 
    1.1563   -0.3741    0.5408 H   0  0  0  0  0  0  0  0  0  0  0  0 
    4.3374    2.1723   -1.6030 H   0  0  0  0  0  0  0  0  0  0  0  0 
    3.0123    3.1090   -2.3192 H   0  0  0  0  0  0  0  0  0  0  0  0 
    2.8823    0.4928   -1.0697 H   0  0  0  0  0  0  0  0  0  0  0  0 
  1  9  1  0  0  0  0 
  1  8  1  0  0  0  0 
  2 13  1  0  0  0  0 
  2 12  1  0  0  0  0 
  3 16  1  0  0  0  0 
  3  6  1  0  0  0  0 
  4 17  1  0  0  0  0 
  4  1  1  0  0  0  0 
  5  2  1  0  0  0  0 
  5  7  1  0  0  0  0 
  6 21  1  6  0  0  0 
  6  7  1  0  0  0  0 
  6  4  1  0  0  0  0 
 10  1  1  0  0  0  0 
 11  2  1  0  0  0  0 
 14  3  1  0  0  0  0 
 15  3  1  0  0  0  0 
 18  4  1  0  0  0  0 
 19  5  1  0  0  0  0 
 20  5  1  0  0  0  0 
M  END 
>  <HBA> 
1 
 
>  <HBD> 
0 
 
>  <TPSA> 
9.23 
 
>  <cid> 
17586 
 
>  <dipole> 
1.02 
 
>  <excitation_energy_1> 
6.405 
 
>  <excitation_energy_2> 
6.77 
 
>  <excitation_energy_3> 
6.872 
 
>  <excitation_energy_4> 
6.927 
 
>  <homo_energy> 
-6.686 
 
>  <homo_lumo_gap> 
9.086 
 
>  <logP> 
1.821 
 
>  <lumo_energy> 
2.4 
 
>  <melting_point> 
-35.51 
 
>  <molecular_refractivity> 
32.04 
 
>  <oscillator_strength_1> 
0.0093 
 
>  <oscillator_strength_2> 
0.01 
 
>  <oscillator_strength_3> 
0.0044 
 
>  <oscillator_strength_4> 
0.0203 
 
>  <open_babel_can_smiles> 
CCO[C@@H](CC)C 
 
>  <mulliken_charges> 
21 
1   -0.446237 
2   -0.45247 
3   -0.458489 
4   -0.256001 
5   -0.004554 
6   0.167383 
7   -0.482999 
8   0.138843 
9   0.162966 
10   0.134448 
11   0.14032 
12   0.155923 
13   0.157263 
14   0.139992 
15   0.144881 
16   0.151575 
17   0.140349 
18   0.127835 
19   0.11659 
20   0.119061 
21   0.103321 
 
>  <lowdin_charges> 
21 
1   -0.447565 
2   -0.450382 
3   -0.459058 
4   -0.279542 
5   -0.126396 
6   0.005471 
7   -0.277295 
8   0.148325 
9   0.157177 
10   0.144387 
11   0.15352 
12   0.155485 
13   0.157111 
14   0.151329 
15   0.150495 
16   0.155034 
17   0.148156 
18   0.142993 
19   0.124595 
20   0.124092 
21   0.122067 
 
$$$$ 
 
