PCCDB-ID:  6442 
public computational chemistry database (PCCDB) project, http://pccdb.org 
 
 17 16  0  0  0  0  0  0  0  0999 V2000 
    0.9959   -0.0214   -0.1140 C   0  0  0  0  0  0  0  0  0  0  0  0 
    3.2006    1.2495   -0.1139 C   0  0  0  0  0  0  0  0  0  0  0  0 
    3.0441   -1.0656    0.9404 C   0  0  0  0  0  0  0  0  0  0  0  0 
    2.5228   -0.1248   -0.1635 C   0  0  0  0  0  0  0  0  0  0  0  0 
    2.8878   -0.7288   -1.5422 N   0  0  0  0  0  0  0  0  0  0  0  0 
    4.4487   -1.1463    1.0270 O   0  0  0  0  0  0  0  0  0  0  0  0 
    3.6666   -1.6863   -1.5774 O   0  0  0  0  0  0  0  0  0  0  0  0 
    2.3978   -0.2074   -2.5346 O   0  0  0  0  0  0  0  0  0  0  0  0 
    0.7001    0.4465    0.8305 H   0  0  0  0  0  0  0  0  0  0  0  0 
    0.5261   -1.0098   -0.1682 H   0  0  0  0  0  0  0  0  0  0  0  0 
    0.6218    0.5881   -0.9388 H   0  0  0  0  0  0  0  0  0  0  0  0 
    2.9202    1.7477    0.8199 H   0  0  0  0  0  0  0  0  0  0  0  0 
    2.8790    1.8706   -0.9536 H   0  0  0  0  0  0  0  0  0  0  0  0 
    4.2879    1.1430   -0.1266 H   0  0  0  0  0  0  0  0  0  0  0  0 
    2.5828   -2.0563    0.8143 H   0  0  0  0  0  0  0  0  0  0  0  0 
    2.6964   -0.6579    1.8956 H   0  0  0  0  0  0  0  0  0  0  0  0 
    4.7291   -1.6014    0.2144 H   0  0  0  0  0  0  0  0  0  0  0  0 
  1  9  1  0  0  0  0 
  2 12  1  0  0  0  0 
  3  6  1  0  0  0  0 
  3 16  1  0  0  0  0 
  4  1  1  0  0  0  0 
  4  2  1  0  0  0  0 
  4  3  1  0  0  0  0 
  5  4  1  0  0  0  0 
  7  5  2  0  0  0  0 
  8  5  2  0  0  0  0 
 10  1  1  0  0  0  0 
 11  1  1  0  0  0  0 
 13  2  1  0  0  0  0 
 14  2  1  0  0  0  0 
 15  3  1  0  0  0  0 
 17  6  1  0  0  0  0 
M  END 
>  <HBA> 
1 
 
>  <HBD> 
1 
 
>  <TPSA> 
66.05 
 
>  <cid> 
6442 
 
>  <dipole> 
2.75 
 
>  <excitation_energy_1> 
4.15 
 
>  <excitation_energy_2> 
4.268 
 
>  <excitation_energy_3> 
4.608 
 
>  <excitation_energy_4> 
6.102 
 
>  <homo_energy> 
-7.557 
 
>  <homo_lumo_gap> 
5.483 
 
>  <logP> 
0.557 
 
>  <lumo_energy> 
-2.074 
 
>  <melting_point> 
35.16 
 
>  <molecular_refractivity> 
30.65 
 
>  <oscillator_strength_1> 
0.0 
 
>  <oscillator_strength_2> 
0.0001 
 
>  <oscillator_strength_3> 
0.0006 
 
>  <oscillator_strength_4> 
0.0074 
 
>  <open_babel_can_smiles> 
OCC(N(=O)=O)(C)C 
 
>  <mulliken_charges> 
17 
1   -0.459602 
2   -0.44687 
3   -0.026426 
4   0.100091 
5   0.469779 
6   -0.623321 
7   -0.39751 
8   -0.359993 
9   0.16298 
10   0.163846 
11   0.188643 
12   0.162558 
13   0.17556 
14   0.182897 
15   0.141114 
16   0.152861 
17   0.413392 
 
>  <lowdin_charges> 
17 
1   -0.445874 
2   -0.442421 
3   -0.144152 
4   0.031978 
5   0.2967 
6   -0.462537 
7   -0.254826 
8   -0.227348 
9   0.164427 
10   0.160723 
11   0.175748 
12   0.165307 
13   0.168054 
14   0.169395 
15   0.141138 
16   0.157148 
17   0.346539 
 
$$$$ 
 
