PCCDB-ID:  11601 
public computational chemistry database (PCCDB) project, http://pccdb.org 
 
 18 17  0  0  0  0  0  0  0  0999 V2000 
    1.7644   -0.2917    1.3761 C   0  0  0  0  0  0  0  0  0  0  0  0 
    5.5962   -3.5091   -1.0324 C   0  0  0  0  0  0  0  0  0  0  0  0 
    2.6171    0.1672    0.1805 C   0  0  0  0  0  0  0  0  0  0  0  0 
    4.7607   -2.4741   -1.8054 C   0  0  0  0  0  0  0  0  0  0  0  0 
    3.0557   -0.9745   -0.6966 C   0  0  0  0  0  0  0  0  0  0  0  0 
    4.3220   -1.3193   -0.9458 C   0  0  0  0  0  0  0  0  0  0  0  0 
    1.4363    0.5634    1.9784 H   0  0  0  0  0  0  0  0  0  0  0  0 
    2.3318   -0.9688    2.0242 H   0  0  0  0  0  0  0  0  0  0  0  0 
    0.8680   -0.8269    1.0402 H   0  0  0  0  0  0  0  0  0  0  0  0 
    5.9244   -4.3225   -1.6898 H   0  0  0  0  0  0  0  0  0  0  0  0 
    5.0161   -3.9457   -0.2118 H   0  0  0  0  0  0  0  0  0  0  0  0 
    6.4921   -3.0492   -0.5977 H   0  0  0  0  0  0  0  0  0  0  0  0 
    3.4973    0.7144    0.5418 H   0  0  0  0  0  0  0  0  0  0  0  0 
    2.0295    0.8822   -0.4153 H   0  0  0  0  0  0  0  0  0  0  0  0 
    3.8812   -2.9616   -2.2455 H   0  0  0  0  0  0  0  0  0  0  0  0 
    5.3611   -2.0971   -2.6473 H   0  0  0  0  0  0  0  0  0  0  0  0 
    2.2524   -1.5638   -1.1463 H   0  0  0  0  0  0  0  0  0  0  0  0 
    5.1251   -0.7354   -0.4885 H   0  0  0  0  0  0  0  0  0  0  0  0 
  1  7  1  0  0  0  0 
  1  8  1  0  0  0  0 
  2 12  1  0  0  0  0 
  2 11  1  0  0  0  0 
  3 13  1  0  0  0  0 
  3  1  1  0  0  0  0 
  4  2  1  0  0  0  0 
  4  6  1  0  0  0  0 
  5  3  1  0  0  0  0 
  6  5  2  0  0  0  0 
  6 18  1  0  0  0  0 
  9  1  1  0  0  0  0 
 10  2  1  0  0  0  0 
 14  3  1  0  0  0  0 
 15  4  1  0  0  0  0 
 16  4  1  0  0  0  0 
 17  5  1  0  0  0  0 
M  END 
>  <HBA> 
0 
 
>  <HBD> 
0 
 
>  <TPSA> 
0.0 
 
>  <cid> 
11601 
 
>  <dipole> 
0.01 
 
>  <excitation_energy_1> 
6.172 
 
>  <excitation_energy_2> 
6.311 
 
>  <excitation_energy_3> 
6.492 
 
>  <excitation_energy_4> 
6.814 
 
>  <homo_energy> 
-6.411 
 
>  <homo_lumo_gap> 
7.257 
 
>  <logP> 
2.363 
 
>  <lumo_energy> 
0.846 
 
>  <melting_point> 
-16.77 
 
>  <molecular_refractivity> 
30.48 
 
>  <oscillator_strength_1> 
0.0162 
 
>  <oscillator_strength_2> 
0.2064 
 
>  <oscillator_strength_3> 
0.0006 
 
>  <oscillator_strength_4> 
0.019 
 
>  <open_babel_can_smiles> 
CC/C=C/CC 
 
>  <mulliken_charges> 
18 
1   -0.438766 
2   -0.438742 
3   -0.29491 
4   -0.294986 
5   -0.089401 
6   -0.089243 
7   0.141892 
8   0.14899 
9   0.142479 
10   0.141879 
11   0.148997 
12   0.142457 
13   0.137276 
14   0.140305 
15   0.137308 
16   0.140344 
17   0.112058 
18   0.112063 
 
>  <lowdin_charges> 
18 
1   -0.445523 
2   -0.445233 
3   -0.270416 
4   -0.269917 
5   -0.17077 
6   -0.170764 
7   0.149658 
8   0.151431 
9   0.147389 
10   0.149725 
11   0.151024 
12   0.147461 
13   0.145679 
14   0.148042 
15   0.145783 
16   0.14747 
17   0.144482 
18   0.144479 
 
$$$$ 
 
