PCCDB-ID:  15146 
public computational chemistry database (PCCDB) project, http://pccdb.org 
 
 18 17  0  0  1  0  0  0  0  0999 V2000 
    0.8372    0.2627    0.5224 C   0  0  0  0  0  0  0  0  0  0  0  0 
    2.1779   -4.8220   -0.0816 C   0  0  0  0  0  0  0  0  0  0  0  0 
    2.6613   -1.1846   -0.5331 C   0  0  0  0  0  0  0  0  0  0  0  0 
    2.3355    0.0691    0.2939 C   0  0  1  0  0  0  0  0  0  0  0  0 
    2.3704   -2.4870    0.1852 C   0  0  0  0  0  0  0  0  0  0  0  0 
    2.9250    1.2186   -0.3171 O   0  0  0  0  0  0  0  0  0  0  0  0 
    2.1624   -2.6072    1.3743 O   0  0  0  0  0  0  0  0  0  0  0  0 
    2.3956   -3.5303   -0.6741 O   0  0  0  0  0  0  0  0  0  0  0  0 
    0.4138   -0.5807    1.0762 H   0  0  0  0  0  0  0  0  0  0  0  0 
    0.3043    0.3468   -0.4358 H   0  0  0  0  0  0  0  0  0  0  0  0 
    0.6608    1.1797    1.0930 H   0  0  0  0  0  0  0  0  0  0  0  0 
    2.2340   -5.5344   -0.9052 H   0  0  0  0  0  0  0  0  0  0  0  0 
    1.1961   -4.8646    0.3974 H   0  0  0  0  0  0  0  0  0  0  0  0 
    2.9461   -5.0371    0.6659 H   0  0  0  0  0  0  0  0  0  0  0  0 
    3.7300   -1.1715   -0.7834 H   0  0  0  0  0  0  0  0  0  0  0  0 
    2.1229   -1.1793   -1.4900 H   0  0  0  0  0  0  0  0  0  0  0  0 
    2.8369   -0.0205    1.2620 H   0  0  0  0  0  0  0  0  0  0  0  0 
    2.4336    1.3972   -1.1353 H   0  0  0  0  0  0  0  0  0  0  0  0 
  1  9  1  0  0  0  0 
  1 11  1  0  0  0  0 
  2 13  1  0  0  0  0 
  2 14  1  0  0  0  0 
  3  5  1  0  0  0  0 
  3  4  1  0  0  0  0 
  4  1  1  0  0  0  0 
  4 17  1  1  0  0  0 
  5  7  2  0  0  0  0 
  6  4  1  0  0  0  0 
  8  2  1  0  0  0  0 
  8  5  1  0  0  0  0 
 10  1  1  0  0  0  0 
 12  2  1  0  0  0  0 
 15  3  1  0  0  0  0 
 16  3  1  0  0  0  0 
 18  6  1  0  0  0  0 
M  END 
>  <HBA> 
3 
 
>  <HBD> 
1 
 
>  <TPSA> 
46.53 
 
>  <cid> 
15146 
 
>  <dipole> 
2.66 
 
>  <excitation_energy_1> 
5.815 
 
>  <excitation_energy_2> 
6.603 
 
>  <excitation_energy_3> 
6.698 
 
>  <excitation_energy_4> 
7.035 
 
>  <homo_energy> 
-7.257 
 
>  <homo_lumo_gap> 
7.502 
 
>  <logP> 
-0.07 
 
>  <lumo_energy> 
0.245 
 
>  <melting_point> 
5.16 
 
>  <molecular_refractivity> 
28.6 
 
>  <oscillator_strength_1> 
0.0007 
 
>  <oscillator_strength_2> 
0.0225 
 
>  <oscillator_strength_3> 
0.0023 
 
>  <oscillator_strength_4> 
0.0187 
 
>  <open_babel_can_smiles> 
COC(=O)C[C@@H](O)C 
 
>  <mulliken_charges> 
18 
1   -0.470984 
2   -0.219317 
3   -0.381422 
4   0.149547 
5   0.626773 
6   -0.622921 
7   -0.48188 
8   -0.451924 
9   0.169922 
10   0.125339 
11   0.161667 
12   0.165475 
13   0.170666 
14   0.1714 
15   0.189789 
16   0.155763 
17   0.160655 
18   0.381452 
 
>  <lowdin_charges> 
18 
1   -0.465364 
2   -0.279179 
3   -0.317463 
4   0.005977 
5   0.194311 
6   -0.461714 
7   -0.266162 
8   -0.19264 
9   0.167001 
10   0.139565 
11   0.160766 
12   0.161847 
13   0.159037 
14   0.160672 
15   0.179084 
16   0.160856 
17   0.155595 
18   0.337811 
 
$$$$ 
 
