PCCDB-ID:  11887 
public computational chemistry database (PCCDB) project, http://pccdb.org 
 
 23 23  0  0  0  0  0  0  0  0999 V2000 
    2.3616   -2.0182    0.5890 C   0  0  0  0  0  0  0  0  0  0  0  0 
    3.7600   -2.5979    0.4952 C   0  0  0  0  0  0  0  0  0  0  0  0 
    7.9211   -3.1726   -0.0061 C   0  0  0  0  0  0  0  0  0  0  0  0 
    6.5578   -3.0005    0.1855 C   0  0  0  0  0  0  0  0  0  0  0  0 
    8.1758   -0.7943   -0.4031 C   0  0  0  0  0  0  0  0  0  0  0  0 
    8.7192   -2.0688   -0.3013 C   0  0  0  0  0  0  0  0  0  0  0  0 
    6.8162   -0.6233   -0.1852 C   0  0  0  0  0  0  0  0  0  0  0  0 
    5.9669   -1.7236    0.1036 C   0  0  0  0  0  0  0  0  0  0  0  0 
   10.1568   -2.2586   -0.5110 N   0  0  0  0  0  0  0  0  0  0  0  0 
    6.3042    0.7547   -0.2601 N   0  0  0  0  0  0  0  0  0  0  0  0 
   10.5940   -3.4058   -0.4165 O   0  0  0  0  0  0  0  0  0  0  0  0 
   10.8353   -1.2648   -0.7673 O   0  0  0  0  0  0  0  0  0  0  0  0 
    6.9050    1.5283   -1.0064 O   0  0  0  0  0  0  0  0  0  0  0  0 
    5.3419    1.0530    0.4400 O   0  0  0  0  0  0  0  0  0  0  0  0 
    4.6561   -1.4995    0.2416 O   0  0  0  0  0  0  0  0  0  0  0  0 
    1.6427   -2.8196    0.7892 H   0  0  0  0  0  0  0  0  0  0  0  0 
    2.0833   -1.5253   -0.3470 H   0  0  0  0  0  0  0  0  0  0  0  0 
    2.3030   -1.2840    1.3976 H   0  0  0  0  0  0  0  0  0  0  0  0 
    3.8388   -3.3267   -0.3218 H   0  0  0  0  0  0  0  0  0  0  0  0 
    4.0512   -3.0902    1.4317 H   0  0  0  0  0  0  0  0  0  0  0  0 
    8.3759   -4.1534    0.0631 H   0  0  0  0  0  0  0  0  0  0  0  0 
    5.9436   -3.8654    0.4002 H   0  0  0  0  0  0  0  0  0  0  0  0 
    8.7980    0.0562   -0.6476 H   0  0  0  0  0  0  0  0  0  0  0  0 
  1 16  1  0  0  0  0 
  1 18  1  0  0  0  0 
  2  1  1  0  0  0  0 
  2 20  1  0  0  0  0 
  3 21  1  0  0  0  0 
  3  4  2  0  0  0  0 
  4 22  1  0  0  0  0 
  5  6  2  0  0  0  0 
  5  7  1  0  0  0  0 
  6  3  1  0  0  0  0 
  7  8  2  0  0  0  0 
  8  4  1  0  0  0  0 
  8 15  1  0  0  0  0 
  9 11  2  0  0  0  0 
  9  6  1  0  0  0  0 
 10  7  1  0  0  0  0 
 10 14  2  0  0  0  0 
 12  9  2  0  0  0  0 
 13 10  2  0  0  0  0 
 15  2  1  0  0  0  0 
 17  1  1  0  0  0  0 
 19  2  1  0  0  0  0 
 23  5  1  0  0  0  0 
M  END 
>  <HBA> 
1 
 
>  <HBD> 
0 
 
>  <TPSA> 
100.87 
 
>  <cid> 
11887 
 
>  <dipole> 
6.88 
 
>  <excitation_energy_1> 
3.709 
 
>  <excitation_energy_2> 
3.781 
 
>  <excitation_energy_3> 
3.977 
 
>  <excitation_energy_4> 
4.206 
 
>  <homo_energy> 
-7.372 
 
>  <homo_lumo_gap> 
4.686 
 
>  <logP> 
2.948 
 
>  <lumo_energy> 
-2.686 
 
>  <melting_point> 
87.35 
 
>  <molecular_refractivity> 
55.38 
 
>  <oscillator_strength_1> 
0.0141 
 
>  <oscillator_strength_2> 
0.0 
 
>  <oscillator_strength_3> 
0.0367 
 
>  <oscillator_strength_4> 
0.188 
 
>  <open_babel_can_smiles> 
CCOc1ccc(cc1N(=O)=O)N(=O)=O 
 
>  <mulliken_charges> 
23 
1   -0.459413 
2   -0.050769 
3   -0.135967 
4   -0.217946 
5   -0.176693 
6   0.269189 
7   0.220563 
8   0.411088 
9   0.378501 
10   0.361986 
11   -0.395733 
12   -0.389704 
13   -0.379766 
14   -0.367526 
15   -0.483848 
16   0.158176 
17   0.175769 
18   0.18133 
19   0.156639 
20   0.158804 
21   0.195469 
22   0.164958 
23   0.224891 
 
>  <lowdin_charges> 
23 
1   -0.446735 
2   -0.122981 
3   -0.109873 
4   -0.202486 
5   -0.111137 
6   -0.014487 
7   -0.017041 
8   0.132582 
9   0.310313 
10   0.310135 
11   -0.247153 
12   -0.241513 
13   -0.243556 
14   -0.224586 
15   -0.156114 
16   0.163929 
17   0.16722 
18   0.170363 
19   0.148042 
20   0.148703 
21   0.194311 
22   0.179446 
23   0.212619 
 
$$$$ 
 
