PCCDB-ID:  36127 
public computational chemistry database (PCCDB) project, http://pccdb.org 
 
 33 33  0  0  1  0  0  0  0  0999 V2000 
    2.6288   -0.6705   -1.3315 C   0  0  0  0  0  0  0  0  0  0  0  0 
    2.5890   -0.7267    1.2112 C   0  0  0  0  0  0  0  0  0  0  0  0 
    3.2300    3.8626    0.3645 C   0  0  0  0  0  0  0  0  0  0  0  0 
    1.2259    2.5375    1.0042 C   0  0  0  0  0  0  0  0  0  0  0  0 
    5.3315    1.9113   -1.3272 C   0  0  0  0  0  0  0  0  0  0  0  0 
    6.6169    2.3405    2.6217 C   0  0  0  0  0  0  0  0  0  0  0  0 
    2.4141    0.1458   -0.0465 C   0  0  0  0  0  0  0  0  0  0  0  0 
    2.7547    2.4819    0.8533 C   0  0  0  0  0  0  0  0  0  0  0  0 
    4.6674    1.1761   -0.1473 C   0  0  1  0  0  0  0  0  0  0  0  0 
    5.4393    1.3726    1.1378 C   0  0  0  0  0  0  0  0  0  0  0  0 
    6.4479    1.1338    3.0442 N   0  0  0  0  0  0  0  0  0  0  0  0 
    5.6763    0.4958    2.0637 N   0  0  0  0  0  0  0  0  0  0  0  0 
    3.2041    1.4047   -0.0645 N   0  0  0  0  0  0  0  0  0  0  0  0 
    6.0183    2.5816    1.4268 O   0  0  0  0  0  0  0  0  0  0  0  0 
    1.8828   -1.4717   -1.3831 H   0  0  0  0  0  0  0  0  0  0  0  0 
    3.6125   -1.1524   -1.3781 H   0  0  0  0  0  0  0  0  0  0  0  0 
    2.5142   -0.0337   -2.2147 H   0  0  0  0  0  0  0  0  0  0  0  0 
    1.9157   -1.5915    1.1684 H   0  0  0  0  0  0  0  0  0  0  0  0 
    2.3556   -0.1656    2.1229 H   0  0  0  0  0  0  0  0  0  0  0  0 
    3.6133   -1.0985    1.3157 H   0  0  0  0  0  0  0  0  0  0  0  0 
    2.8347    4.6433    1.0246 H   0  0  0  0  0  0  0  0  0  0  0  0 
    2.8626    4.0495   -0.6510 H   0  0  0  0  0  0  0  0  0  0  0  0 
    4.3159    3.9634    0.3655 H   0  0  0  0  0  0  0  0  0  0  0  0 
    0.9647    3.4192    1.5986 H   0  0  0  0  0  0  0  0  0  0  0  0 
    0.8112    1.6673    1.5205 H   0  0  0  0  0  0  0  0  0  0  0  0 
    0.7352    2.6348    0.0286 H   0  0  0  0  0  0  0  0  0  0  0  0 
    6.3779    1.6003   -1.4331 H   0  0  0  0  0  0  0  0  0  0  0  0 
    5.3095    2.9965   -1.2156 H   0  0  0  0  0  0  0  0  0  0  0  0 
    4.7960    1.6541   -2.2449 H   0  0  0  0  0  0  0  0  0  0  0  0 
    7.1601    3.1486    3.0879 H   0  0  0  0  0  0  0  0  0  0  0  0 
    1.3708    0.4638   -0.0860 H   0  0  0  0  0  0  0  0  0  0  0  0 
    3.1665    2.3240    1.8677 H   0  0  0  0  0  0  0  0  0  0  0  0 
    4.7994    0.1100   -0.3393 H   0  0  0  0  0  0  0  0  0  0  0  0 
  1  7  1  0  0  0  0 
  2 20  1  0  0  0  0 
  2 19  1  0  0  0  0 
  3 23  1  0  0  0  0 
  3  8  1  0  0  0  0 
  3 21  1  0  0  0  0 
  4 25  1  0  0  0  0 
  4 24  1  0  0  0  0 
  5 28  1  0  0  0  0 
  5  9  1  0  0  0  0 
  6 11  2  0  0  0  0 
  6 30  1  0  0  0  0 
  7  2  1  0  0  0  0 
  8  4  1  0  0  0  0 
  8 32  1  0  0  0  0 
  9 33  1  6  0  0  0 
  9 13  1  0  0  0  0 
  9 10  1  0  0  0  0 
 10 14  1  0  0  0  0 
 10 12  2  0  0  0  0 
 12 11  1  0  0  0  0 
 13  7  1  0  0  0  0 
 13  8  1  0  0  0  0 
 14  6  1  0  0  0  0 
 15  1  1  0  0  0  0 
 16  1  1  0  0  0  0 
 17  1  1  0  0  0  0 
 18  2  1  0  0  0  0 
 22  3  1  0  0  0  0 
 26  4  1  0  0  0  0 
 27  5  1  0  0  0  0 
 29  5  1  0  0  0  0 
 31  7  1  0  0  0  0 
M  END 
>  <HBA> 
4 
 
>  <HBD> 
0 
 
>  <TPSA> 
42.16 
 
>  <cid> 
36127 
 
>  <dipole> 
2.73 
 
>  <excitation_energy_1> 
4.371 
 
>  <excitation_energy_2> 
5.213 
 
>  <excitation_energy_3> 
5.359 
 
>  <excitation_energy_4> 
5.554 
 
>  <homo_energy> 
-5.685 
 
>  <homo_lumo_gap> 
5.328 
 
>  <logP> 
2.249 
 
>  <lumo_energy> 
-0.356 
 
>  <melting_point> 
35.38 
 
>  <molecular_refractivity> 
55.81 
 
>  <oscillator_strength_1> 
0.0188 
 
>  <oscillator_strength_2> 
0.0124 
 
>  <oscillator_strength_3> 
0.0045 
 
>  <oscillator_strength_4> 
0.0111 
 
>  <open_babel_can_smiles> 
C[C@@H](c1ocnn1)N(C(C)C)C(C)C 
 
>  <mulliken_charges> 
33 
1   -0.453526 
2   -0.457562 
3   -0.456879 
4   -0.473746 
5   -0.446877 
6   0.251454 
7   0.030352 
8   0.067305 
9   -0.041509 
10   0.518752 
11   -0.270679 
12   -0.335279 
13   -0.405875 
14   -0.416248 
15   0.145868 
16   0.144531 
17   0.151692 
18   0.135242 
19   0.147816 
20   0.172831 
21   0.137411 
22   0.147748 
23   0.159126 
24   0.146704 
25   0.156251 
26   0.153793 
27   0.143906 
28   0.163109 
29   0.160199 
30   0.188777 
31   0.14138 
32   0.118944 
33   0.17499 
 
>  <lowdin_charges> 
33 
1   -0.452453 
2   -0.466605 
3   -0.454999 
4   -0.452518 
5   -0.4448 
6   -0.038993 
7   -0.06026 
8   -0.051353 
9   -0.06049 
10   0.091144 
11   -0.115609 
12   -0.135483 
13   -0.189552 
14   -0.097638 
15   0.154797 
16   0.145282 
17   0.154334 
18   0.149133 
19   0.151456 
20   0.160716 
21   0.150223 
22   0.15059 
23   0.151097 
24   0.155875 
25   0.154217 
26   0.152324 
27   0.150039 
28   0.157395 
29   0.161201 
30   0.188891 
31   0.149318 
32   0.119936 
33   0.172787 
 
$$$$ 
 
