PCCDB-ID:  62120 
public computational chemistry database (PCCDB) project, http://pccdb.org 
 
 25 26  0  0  1  0  0  0  0  0999 V2000 
   -1.5077   -0.3154    0.5395 C   0  0  0  0  0  0  0  0  0  0  0  0 
    1.0513   -0.4774    0.9895 C   0  0  0  0  0  0  0  0  0  0  0  0 
    0.0966   -1.0206   -1.3234 C   0  0  0  0  0  0  0  0  0  0  0  0 
   -1.2192    1.8474    0.0666 C   0  0  0  0  0  0  0  0  0  0  0  0 
    1.2211    1.6891    0.4686 C   0  0  0  0  0  0  0  0  0  0  0  0 
    0.0743   -3.2896   -2.0368 C   0  0  0  0  0  0  0  0  0  0  0  0 
   -0.0727   -0.1988   -0.0528 C   0  0  1  0  0  0  0  0  0  0  0  0 
    0.0661    1.2642   -0.3238 N   0  0  1  0  0  0  0  0  0  0  0  0 
   -0.9713   -3.1890   -2.9708 O   0  0  0  0  0  0  0  0  0  0  0  0 
   -1.8178    0.9835    1.0191 O   0  0  0  0  0  0  0  0  0  0  0  0 
    1.3588    0.7879    1.5547 O   0  0  0  0  0  0  0  0  0  0  0  0 
   -0.0461   -2.3943   -0.9587 O   0  0  0  0  0  0  0  0  0  0  0  0 
   -1.5807   -1.0182    1.3716 H   0  0  0  0  0  0  0  0  0  0  0  0 
   -2.2189   -0.6214   -0.2458 H   0  0  0  0  0  0  0  0  0  0  0  0 
    1.9348   -0.9071    0.4894 H   0  0  0  0  0  0  0  0  0  0  0  0 
    0.7437   -1.1490    1.7931 H   0  0  0  0  0  0  0  0  0  0  0  0 
    1.0908   -0.8457   -1.7634 H   0  0  0  0  0  0  0  0  0  0  0  0 
   -0.6556   -0.7364   -2.0691 H   0  0  0  0  0  0  0  0  0  0  0  0 
   -1.8623    1.9237   -0.8251 H   0  0  0  0  0  0  0  0  0  0  0  0 
   -1.0995    2.8386    0.5114 H   0  0  0  0  0  0  0  0  0  0  0  0 
    1.0965    2.7019    0.8604 H   0  0  0  0  0  0  0  0  0  0  0  0 
    2.1220    1.6532   -0.1654 H   0  0  0  0  0  0  0  0  0  0  0  0 
    0.9916   -3.0975   -2.6088 H   0  0  0  0  0  0  0  0  0  0  0  0 
    0.1213   -4.2838   -1.5748 H   0  0  0  0  0  0  0  0  0  0  0  0 
   -1.7920   -3.4357   -2.5141 H   0  0  0  0  0  0  0  0  0  0  0  0 
  1 10  1  0  0  0  0 
  1 13  1  0  0  0  0 
  2 11  1  0  0  0  0 
  2 16  1  0  0  0  0 
  3 12  1  0  0  0  0 
  4 20  1  0  0  0  0 
  4 10  1  0  0  0  0 
  5 21  1  0  0  0  0 
  5 11  1  0  0  0  0 
  6 24  1  0  0  0  0 
  6 12  1  0  0  0  0 
  7  3  1  6  0  0  0 
  7  1  1  0  0  0  0 
  7  2  1  0  0  0  0 
  8  7  1  0  0  0  0 
  8  4  1  1  0  0  0 
  8  5  1  0  0  0  0 
  9 25  1  0  0  0  0 
  9  6  1  0  0  0  0 
 14  1  1  0  0  0  0 
 15  2  1  0  0  0  0 
 17  3  1  0  0  0  0 
 18  3  1  0  0  0  0 
 19  4  1  0  0  0  0 
 22  5  1  0  0  0  0 
 23  6  1  0  0  0  0 
M  END 
>  <HBA> 
5 
 
>  <HBD> 
1 
 
>  <TPSA> 
51.16 
 
>  <cid> 
62120 
 
>  <dipole> 
1.48 
 
>  <excitation_energy_1> 
6.163 
 
>  <excitation_energy_2> 
6.324 
 
>  <excitation_energy_3> 
6.336 
 
>  <excitation_energy_4> 
6.526 
 
>  <homo_energy> 
-6.593 
 
>  <homo_lumo_gap> 
8.449 
 
>  <logP> 
-1.093 
 
>  <lumo_energy> 
1.856 
 
>  <melting_point> 
23.36 
 
>  <molecular_refractivity> 
42.8 
 
>  <oscillator_strength_1> 
0.0072 
 
>  <oscillator_strength_2> 
0.0127 
 
>  <oscillator_strength_3> 
0.0069 
 
>  <oscillator_strength_4> 
0.0141 
 
>  <open_babel_can_smiles> 
OCOC[C@]12COCN2COC1 
 
>  <mulliken_charges> 
25 
1   -0.04698 
2   -0.046802 
3   -0.029777 
4   0.087894 
5   0.086736 
6   0.162305 
7   0.144972 
8   -0.450458 
9   -0.595651 
10   -0.463087 
11   -0.463304 
12   -0.484812 
13   0.159145 
14   0.126867 
15   0.131039 
16   0.158954 
17   0.129945 
18   0.149941 
19   0.13566 
20   0.150642 
21   0.150526 
22   0.134905 
23   0.139078 
24   0.13893 
25   0.393334 
 
>  <lowdin_charges> 
25 
1   -0.141551 
2   -0.142163 
3   -0.137953 
4   -0.078052 
5   -0.077958 
6   -0.03015 
7   0.026848 
8   -0.197832 
9   -0.450636 
10   -0.267097 
11   -0.267541 
12   -0.279706 
13   0.159072 
14   0.132704 
15   0.134766 
16   0.159461 
17   0.134453 
18   0.145475 
19   0.130289 
20   0.150407 
21   0.149956 
22   0.129702 
23   0.135881 
24   0.135611 
25   0.346013 
 
$$$$ 
 
