PCCDB-ID:  16747 
public computational chemistry database (PCCDB) project, http://pccdb.org 
 
 28 28  0  0  1  0  0  0  0  0999 V2000 
    3.5016   -1.7249   -0.2225 C   0  0  0  0  0  0  0  0  0  0  0  0 
    1.3957   -0.2842   -0.1774 C   0  0  0  0  0  0  0  0  0  0  0  0 
    7.0328    2.3619    1.1416 C   0  0  0  0  0  0  0  0  0  0  0  0 
    4.8808    2.6694    2.4570 C   0  0  0  0  0  0  0  0  0  0  0  0 
    3.5870    0.6775    0.5129 C   0  0  0  0  0  0  0  0  0  0  0  0 
    2.8802   -0.3829    0.0719 C   0  0  0  0  0  0  0  0  0  0  0  0 
    5.0714    0.7223    0.7070 C   0  0  2  0  0  0  0  0  0  0  0  0 
    5.7951    0.2464    1.9792 C   0  0  2  0  0  0  0  0  0  0  0  0 
    5.1545   -0.3166    3.2178 C   0  0  0  0  0  0  0  0  0  0  0  0 
    5.7332    1.7316    1.6163 C   0  0  0  0  0  0  0  0  0  0  0  0 
    5.8195   -0.7279    4.1402 O   0  0  0  0  0  0  0  0  0  0  0  0 
    3.7997   -0.3365    3.2870 O   0  0  0  0  0  0  0  0  0  0  0  0 
    2.9913   -2.5199    0.3369 H   0  0  0  0  0  0  0  0  0  0  0  0 
    4.5642   -1.7608    0.0280 H   0  0  0  0  0  0  0  0  0  0  0  0 
    3.3909   -1.9731   -1.2870 H   0  0  0  0  0  0  0  0  0  0  0  0 
    0.8455   -1.0276    0.4148 H   0  0  0  0  0  0  0  0  0  0  0  0 
    1.1647   -0.4932   -1.2309 H   0  0  0  0  0  0  0  0  0  0  0  0 
    1.0033    0.7079    0.0657 H   0  0  0  0  0  0  0  0  0  0  0  0 
    6.8319    3.2547    0.5357 H   0  0  0  0  0  0  0  0  0  0  0  0 
    7.6201    1.6675    0.5308 H   0  0  0  0  0  0  0  0  0  0  0  0 
    7.6530    2.6673    1.9930 H   0  0  0  0  0  0  0  0  0  0  0  0 
    4.5605    3.5354    1.8638 H   0  0  0  0  0  0  0  0  0  0  0  0 
    5.4634    3.0452    3.3061 H   0  0  0  0  0  0  0  0  0  0  0  0 
    3.9894    2.1864    2.8641 H   0  0  0  0  0  0  0  0  0  0  0  0 
    3.0484    1.6103    0.6818 H   0  0  0  0  0  0  0  0  0  0  0  0 
    5.6354    0.4872   -0.1960 H   0  0  0  0  0  0  0  0  0  0  0  0 
    6.7665   -0.2150    1.8257 H   0  0  0  0  0  0  0  0  0  0  0  0 
    3.4192   -0.1231    2.4092 H   0  0  0  0  0  0  0  0  0  0  0  0 
  1 14  1  0  0  0  0 
  1  6  1  0  0  0  0 
  1 13  1  0  0  0  0 
  2 18  1  0  0  0  0 
  2  6  1  0  0  0  0 
  2 16  1  0  0  0  0 
  3 10  1  0  0  0  0 
  3 21  1  0  0  0  0 
  4 24  1  0  0  0  0 
  4 23  1  0  0  0  0 
  5 25  1  0  0  0  0 
  5  7  1  0  0  0  0 
  6  5  2  0  0  0  0 
  7 26  1  6  0  0  0 
  7 10  1  0  0  0  0 
  7  8  1  0  0  0  0 
  8 27  1  6  0  0  0 
  8  9  1  0  0  0  0 
  9 12  1  0  0  0  0 
  9 11  2  0  0  0  0 
 10  8  1  0  0  0  0 
 10  4  1  0  0  0  0 
 15  1  1  0  0  0  0 
 17  2  1  0  0  0  0 
 19  3  1  0  0  0  0 
 20  3  1  0  0  0  0 
 22  4  1  0  0  0  0 
 28 12  1  0  0  0  0 
M  END 
>  <HBA> 
2 
 
>  <HBD> 
1 
 
>  <TPSA> 
37.3 
 
>  <cid> 
16747 
 
>  <dipole> 
5.43 
 
>  <excitation_energy_1> 
5.425 
 
>  <excitation_energy_2> 
5.911 
 
>  <excitation_energy_3> 
6.015 
 
>  <excitation_energy_4> 
6.047 
 
>  <homo_energy> 
-6.743 
 
>  <homo_lumo_gap> 
6.436 
 
>  <logP> 
2.309 
 
>  <lumo_energy> 
-0.307 
 
>  <melting_point> 
102.41 
 
>  <molecular_refractivity> 
49.11 
 
>  <oscillator_strength_1> 
0.0166 
 
>  <oscillator_strength_2> 
0.0901 
 
>  <oscillator_strength_3> 
0.05 
 
>  <oscillator_strength_4> 
0.0887 
 
>  <open_babel_can_smiles> 
CC(=C[C@@H]1[C@@H](C1(C)C)C(=O)O)C 
 
>  <mulliken_charges> 
28 
1   -0.515408 
2   -0.508639 
3   -0.462139 
4   -0.47533 
5   -0.262825 
6   0.195772 
7   -0.164581 
8   -0.238861 
9   0.597906 
10   0.109659 
11   -0.460402 
12   -0.599249 
13   0.168373 
14   0.169884 
15   0.163334 
16   0.163882 
17   0.161917 
18   0.159867 
19   0.149324 
20   0.144423 
21   0.158559 
22   0.147959 
23   0.163674 
24   0.153819 
25   0.140314 
26   0.158537 
27   0.164929 
28   0.415303 
 
>  <lowdin_charges> 
28 
1   -0.446118 
2   -0.441105 
3   -0.434841 
4   -0.445673 
5   -0.219175 
6   0.011492 
7   -0.164864 
8   -0.20156 
9   0.196278 
10   0.012324 
11   -0.255198 
12   -0.372832 
13   0.166405 
14   0.163882 
15   0.162081 
16   0.162622 
17   0.159986 
18   0.158634 
19   0.153134 
20   0.152988 
21   0.157999 
22   0.153638 
23   0.163269 
24   0.158539 
25   0.158221 
26   0.165875 
27   0.175377 
28   0.348621 
 
$$$$ 
 
