PCCDB-ID:  27850 
public computational chemistry database (PCCDB) project, http://pccdb.org 
 
 25 24  0  0  0  0  0  0  0  0999 V2000 
   -0.3507    2.3268    0.7809 C   0  0  0  0  0  0  0  0  0  0  0  0 
    8.5368    2.7991    0.0714 C   0  0  0  0  0  0  0  0  0  0  0  0 
    1.0186    1.6903    0.5224 C   0  0  0  0  0  0  0  0  0  0  0  0 
    2.1786    2.6882    0.6323 C   0  0  0  0  0  0  0  0  0  0  0  0 
    3.5496    2.0495    0.3786 C   0  0  0  0  0  0  0  0  0  0  0  0 
    4.6922    3.0627    0.4913 C   0  0  0  0  0  0  0  0  0  0  0  0 
    6.0487    2.4295    0.2322 C   0  0  0  0  0  0  0  0  0  0  0  0 
    6.9548    4.6027    0.5781 N   0  0  0  0  0  0  0  0  0  0  0  0 
    7.1786    3.2895    0.2920 N   0  0  0  0  0  0  0  0  0  0  0  0 
    6.2124    1.2520   -0.0168 O   0  0  0  0  0  0  0  0  0  0  0  0 
    7.9693    5.2760    0.6219 O   0  0  0  0  0  0  0  0  0  0  0  0 
   -1.1570    1.5904    0.6894 H   0  0  0  0  0  0  0  0  0  0  0  0 
   -0.5541    3.1339    0.0663 H   0  0  0  0  0  0  0  0  0  0  0  0 
   -0.4048    2.7565    1.7888 H   0  0  0  0  0  0  0  0  0  0  0  0 
    8.4641    1.7382   -0.1575 H   0  0  0  0  0  0  0  0  0  0  0  0 
    9.1387    2.9630    0.9693 H   0  0  0  0  0  0  0  0  0  0  0  0 
    8.9946    3.3471   -0.7562 H   0  0  0  0  0  0  0  0  0  0  0  0 
    1.0282    1.2340   -0.4775 H   0  0  0  0  0  0  0  0  0  0  0  0 
    1.1812    0.8677    1.2330 H   0  0  0  0  0  0  0  0  0  0  0  0 
    2.1661    3.1489    1.6316 H   0  0  0  0  0  0  0  0  0  0  0  0 
    2.0180    3.5100   -0.0814 H   0  0  0  0  0  0  0  0  0  0  0  0 
    3.5690    1.5897   -0.6171 H   0  0  0  0  0  0  0  0  0  0  0  0 
    3.7182    1.2312    1.0892 H   0  0  0  0  0  0  0  0  0  0  0  0 
    4.7092    3.5295    1.4843 H   0  0  0  0  0  0  0  0  0  0  0  0 
    4.5532    3.8956   -0.2088 H   0  0  0  0  0  0  0  0  0  0  0  0 
  1 14  1  0  0  0  0 
  2  9  1  0  0  0  0 
  2 16  1  0  0  0  0 
  3  4  1  0  0  0  0 
  3  1  1  0  0  0  0 
  3 19  1  0  0  0  0 
  4 20  1  0  0  0  0 
  5  6  1  0  0  0  0 
  5  4  1  0  0  0  0 
  5 23  1  0  0  0  0 
  6 24  1  0  0  0  0 
  7  9  1  0  0  0  0 
  7  6  1  0  0  0  0 
  8 11  1  0  0  0  0 
  9  8  1  0  0  0  0 
 10  7  2  0  0  0  0 
 12  1  1  0  0  0  0 
 13  1  1  0  0  0  0 
 15  2  1  0  0  0  0 
 17  2  1  0  0  0  0 
 18  3  1  0  0  0  0 
 21  4  1  0  0  0  0 
 22  5  1  0  0  0  0 
 25  6  1  0  0  0  0 
M  RAD  2   8   2  11   2 
M  END 
>  <HBA> 
4 
 
>  <HBD> 
0 
 
>  <TPSA> 
49.74 
 
>  <cid> 
27850 
 
>  <dipole> 
0.81 
 
>  <excitation_energy_1> 
2.943 
 
>  <excitation_energy_2> 
4.412 
 
>  <excitation_energy_3> 
5.579 
 
>  <excitation_energy_4> 
5.902 
 
>  <homo_energy> 
-6.773 
 
>  <homo_lumo_gap> 
4.713 
 
>  <logP> 
1.706 
 
>  <lumo_energy> 
-2.06 
 
>  <melting_point> 
15.85 
 
>  <molecular_refractivity> 
43.6 
 
>  <oscillator_strength_1> 
0.0009 
 
>  <oscillator_strength_2> 
0.0 
 
>  <oscillator_strength_3> 
0.2281 
 
>  <oscillator_strength_4> 
0.0002 
 
>  <open_babel_can_smiles> 
CN(C(=O)CCCCC)[N][O] 
 
>  <mulliken_charges> 
25 
1   -0.44197 
2   -0.333435 
3   -0.24824 
4   -0.252063 
5   -0.251432 
6   -0.358705 
7   0.611104 
8   0.177555 
9   -0.30022 
10   -0.461401 
11   -0.337915 
12   0.144073 
13   0.14217 
14   0.142223 
15   0.207974 
16   0.186852 
17   0.187372 
18   0.133602 
19   0.133619 
20   0.128868 
21   0.128913 
22   0.149512 
23   0.149944 
24   0.180692 
25   0.180909 
 
>  <lowdin_charges> 
25 
1   -0.444825 
2   -0.370479 
3   -0.271452 
4   -0.274924 
5   -0.271013 
6   -0.304208 
7   0.179478 
8   0.07329 
9   -0.041411 
10   -0.243048 
11   -0.215229 
12   0.151189 
13   0.147381 
14   0.146061 
15   0.187263 
16   0.172737 
17   0.173777 
18   0.140052 
19   0.141243 
20   0.137674 
21   0.138826 
22   0.150322 
23   0.151734 
24   0.172308 
25   0.173258 
 
$$$$ 
 
