PCCDB-ID:  7741 
public computational chemistry database (PCCDB) project, http://pccdb.org 
 
 17 17  0  0  0  0  0  0  0  0999 V2000 
    1.2833   -0.4721    0.3038 C   0  0  0  0  0  0  0  0  0  0  0  0 
    3.7069   -0.9356   -0.6071 C   0  0  0  0  0  0  0  0  0  0  0  0 
    0.4195   -1.6208   -0.2415 C   0  0  0  0  0  0  0  0  0  0  0  0 
    4.8654   -1.3329    0.0282 C   0  0  0  0  0  0  0  0  0  0  0  0 
    2.7351   -0.8358    0.4236 C   0  0  0  0  0  0  0  0  0  0  0  0 
   -0.9742   -1.1825   -0.3807 N   0  0  0  0  0  0  0  0  0  0  0  0 
    4.5501   -1.4524    1.3438 N   0  0  0  0  0  0  0  0  0  0  0  0 
    3.2595   -1.1529    1.6112 N   0  0  0  0  0  0  0  0  0  0  0  0 
    0.9172   -0.1836    1.2969 H   0  0  0  0  0  0  0  0  0  0  0  0 
    1.1560    0.3958   -0.3540 H   0  0  0  0  0  0  0  0  0  0  0  0 
    3.5763   -0.7359   -1.6612 H   0  0  0  0  0  0  0  0  0  0  0  0 
    0.5572   -2.5042    0.4069 H   0  0  0  0  0  0  0  0  0  0  0  0 
    0.7819   -1.9035   -1.2378 H   0  0  0  0  0  0  0  0  0  0  0  0 
    5.8613   -1.5333   -0.3414 H   0  0  0  0  0  0  0  0  0  0  0  0 
   -1.3664   -1.0067    0.5443 H   0  0  0  0  0  0  0  0  0  0  0  0 
   -1.5324   -1.9359   -0.7797 H   0  0  0  0  0  0  0  0  0  0  0  0 
    5.1584   -1.7064    2.1070 H   0  0  0  0  0  0  0  0  0  0  0  0 
  1  5  1  0  0  0  0 
  1  9  1  0  0  0  0 
  2  4  2  0  0  0  0 
  2  5  1  0  0  0  0 
  3  1  1  0  0  0  0 
  3 12  1  0  0  0  0 
  4  7  1  0  0  0  0 
  5  8  2  0  0  0  0 
  6  3  1  0  0  0  0 
  6 15  1  0  0  0  0 
  7  8  1  0  0  0  0 
  7 17  1  0  0  0  0 
 10  1  1  0  0  0  0 
 11  2  1  0  0  0  0 
 13  3  1  0  0  0  0 
 14  4  1  0  0  0  0 
 16  6  1  0  0  0  0 
M  END 
>  <HBA> 
2 
 
>  <HBD> 
2 
 
>  <TPSA> 
54.7 
 
>  <cid> 
7741 
 
>  <dipole> 
2.31 
 
>  <excitation_energy_1> 
5.646 
 
>  <excitation_energy_2> 
5.965 
 
>  <excitation_energy_3> 
5.976 
 
>  <excitation_energy_4> 
6.182 
 
>  <homo_energy> 
-6.196 
 
>  <homo_lumo_gap> 
6.931 
 
>  <logP> 
0.611 
 
>  <lumo_energy> 
0.735 
 
>  <melting_point> 
123.52 
 
>  <molecular_refractivity> 
31.07 
 
>  <oscillator_strength_1> 
0.0136 
 
>  <oscillator_strength_2> 
0.0074 
 
>  <oscillator_strength_3> 
0.001 
 
>  <oscillator_strength_4> 
0.0098 
 
>  <open_babel_can_smiles> 
NCCc1cc[nH]n1 
 
>  <mulliken_charges> 
17 
1   -0.324429 
2   -0.260698 
3   -0.133056 
4   0.079035 
5   0.309211 
6   -0.716841 
7   -0.396126 
8   -0.339589 
9   0.148518 
10   0.155632 
11   0.131504 
12   0.12479 
13   0.138581 
14   0.154521 
15   0.292542 
16   0.29471 
17   0.341696 
 
>  <lowdin_charges> 
17 
1   -0.27761 
2   -0.240029 
3   -0.201796 
4   -0.136992 
5   0.003746 
6   -0.56111 
7   -0.126488 
8   -0.171198 
9   0.154847 
10   0.15829 
11   0.164808 
12   0.123123 
13   0.140752 
14   0.168697 
15   0.250652 
16   0.25515 
17   0.295158 
 
$$$$ 
 
