PCCDB-ID:  60586 
public computational chemistry database (PCCDB) project, http://pccdb.org 
 
 12 11  0  0  0  0  0  0  0  0999 V2000 
    0.5032    0.2929   -0.4202 C   0  0  0  0  0  0  0  0  0  0  0  0 
   -1.1453    1.2320    1.1750 C   0  0  0  0  0  0  0  0  0  0  0  0 
    0.1455    0.6032    0.9532 N   0  0  0  0  0  0  0  0  0  0  0  0 
    1.5994   -0.5931   -0.4549 O   0  0  0  0  0  0  0  0  0  0  0  0 
   -1.4955    1.1684    2.5392 O   0  0  0  0  0  0  0  0  0  0  0  0 
    0.8246    1.1617   -1.0142 H   0  0  0  0  0  0  0  0  0  0  0  0 
   -0.3933   -0.1312   -0.9025 H   0  0  0  0  0  0  0  0  0  0  0  0 
   -1.8750    0.7136    0.5309 H   0  0  0  0  0  0  0  0  0  0  0  0 
   -1.1787    2.3032    0.9256 H   0  0  0  0  0  0  0  0  0  0  0  0 
    0.8851    1.1437    1.3990 H   0  0  0  0  0  0  0  0  0  0  0  0 
    1.3755   -1.3163    0.1546 H   0  0  0  0  0  0  0  0  0  0  0  0 
   -1.3635    0.2426    2.8039 H   0  0  0  0  0  0  0  0  0  0  0  0 
  1  3  1  0  0  0  0 
  2  5  1  0  0  0  0 
  3  2  1  0  0  0  0 
  3 10  1  0  0  0  0 
  4  1  1  0  0  0  0 
  4 11  1  0  0  0  0 
  5 12  1  0  0  0  0 
  6  1  1  0  0  0  0 
  7  1  1  0  0  0  0 
  8  2  1  0  0  0  0 
  9  2  1  0  0  0  0 
M  END 
>  <HBA> 
3 
 
>  <HBD> 
3 
 
>  <TPSA> 
52.49 
 
>  <cid> 
60586 
 
>  <dipole> 
0.82 
 
>  <excitation_energy_1> 
6.09 
 
>  <excitation_energy_2> 
6.564 
 
>  <excitation_energy_3> 
6.638 
 
>  <excitation_energy_4> 
6.641 
 
>  <homo_energy> 
-6.68 
 
>  <homo_lumo_gap> 
8.964 
 
>  <logP> 
-1.133 
 
>  <lumo_energy> 
2.283 
 
>  <melting_point> 
40.51 
 
>  <molecular_refractivity> 
16.85 
 
>  <oscillator_strength_1> 
0.0128 
 
>  <oscillator_strength_2> 
0.0549 
 
>  <oscillator_strength_3> 
0.007 
 
>  <oscillator_strength_4> 
0.0972 
 
>  <open_babel_can_smiles> 
OCNCO 
 
>  <mulliken_charges> 
12 
1   0.095336 
2   0.095305 
3   -0.585565 
4   -0.605826 
5   -0.605825 
6   0.13791 
7   0.124731 
8   0.124718 
9   0.137921 
10   0.310283 
11   0.385523 
12   0.385489 
 
>  <lowdin_charges> 
12 
1   -0.077505 
2   -0.07435 
3   -0.386068 
4   -0.458817 
5   -0.457679 
6   0.130726 
7   0.125689 
8   0.126725 
9   0.128033 
10   0.264628 
11   0.340588 
12   0.338029 
 
$$$$ 
 
