PCCDB-ID:  31630 
public computational chemistry database (PCCDB) project, http://pccdb.org 
 
 26 28  0  0  0  0  0  0  0  0999 V2000 
   -3.6812   -0.6604   -0.0761 C   0  0  0  0  0  0  0  0  0  0  0  0 
   -3.6350    0.7395    0.0211 C   0  0  0  0  0  0  0  0  0  0  0  0 
   -2.4997   -1.3847   -0.0982 C   0  0  0  0  0  0  0  0  0  0  0  0 
   -2.4186    1.3986    0.0771 C   0  0  0  0  0  0  0  0  0  0  0  0 
    3.6751   -0.6813   -0.0870 C   0  0  0  0  0  0  0  0  0  0  0  0 
    2.5244   -1.3971   -0.0809 C   0  0  0  0  0  0  0  0  0  0  0  0 
    2.3866    1.4191    0.0155 C   0  0  0  0  0  0  0  0  0  0  0  0 
    3.6931    0.7938   -0.0346 C   0  0  0  0  0  0  0  0  0  0  0  0 
   -1.2429   -0.7490   -0.0188 C   0  0  0  0  0  0  0  0  0  0  0  0 
    1.2281   -0.7645   -0.0306 C   0  0  0  0  0  0  0  0  0  0  0  0 
   -1.2155    0.6676    0.0473 C   0  0  0  0  0  0  0  0  0  0  0  0 
    1.2281    0.6860    0.0134 C   0  0  0  0  0  0  0  0  0  0  0  0 
    0.0241   -1.4646   -0.0129 C   0  0  0  0  0  0  0  0  0  0  0  0 
   -0.0186   -2.8415   -0.0397 N   0  0  0  0  0  0  0  0  0  0  0  0 
   -0.0081    1.3135    0.0780 N   0  0  0  0  0  0  0  0  0  0  0  0 
    4.7585    1.4272   -0.0331 O   0  0  0  0  0  0  0  0  0  0  0  0 
   -4.6352   -1.1736   -0.1432 H   0  0  0  0  0  0  0  0  0  0  0  0 
   -4.5565    1.3142    0.0421 H   0  0  0  0  0  0  0  0  0  0  0  0 
   -2.5536   -2.4629   -0.2123 H   0  0  0  0  0  0  0  0  0  0  0  0 
   -2.3789    2.4835    0.1367 H   0  0  0  0  0  0  0  0  0  0  0  0 
    4.6434   -1.1713   -0.1335 H   0  0  0  0  0  0  0  0  0  0  0  0 
    2.5860   -2.4814   -0.1414 H   0  0  0  0  0  0  0  0  0  0  0  0 
    2.3570    2.5051    0.0591 H   0  0  0  0  0  0  0  0  0  0  0  0 
   -0.8276   -3.2773    0.3793 H   0  0  0  0  0  0  0  0  0  0  0  0 
    0.8389   -3.3266    0.1812 H   0  0  0  0  0  0  0  0  0  0  0  0 
   -0.0088    2.3242    0.1220 H   0  0  0  0  0  0  0  0  0  0  0  0 
  1  2  2  0  0  0  0 
  2 18  1  0  0  0  0 
  2  4  1  0  0  0  0 
  3  1  1  0  0  0  0 
  3  9  2  0  0  0  0 
  4 20  1  0  0  0  0 
  5  6  2  0  0  0  0 
  5  8  1  0  0  0  0 
  6 10  1  0  0  0  0 
  7 23  1  0  0  0  0 
  8 16  2  0  0  0  0 
  8  7  1  0  0  0  0 
  9 13  1  0  0  0  0 
  9 11  1  0  0  0  0 
 10 13  2  0  0  0  0 
 10 12  1  0  0  0  0 
 11  4  2  0  0  0  0 
 11 15  1  0  0  0  0 
 12  7  2  0  0  0  0 
 12 15  1  0  0  0  0 
 14 13  1  0  0  0  0 
 14 25  1  0  0  0  0 
 14 24  1  0  0  0  0 
 15 26  1  0  0  0  0 
 17  1  1  0  0  0  0 
 19  3  1  0  0  0  0 
 21  5  1  0  0  0  0 
 22  6  1  0  0  0  0 
M  END 
>  <HBA> 
2 
 
>  <HBD> 
2 
 
>  <TPSA> 
58.88 
 
>  <cid> 
31630 
 
>  <dipole> 
8.52 
 
>  <excitation_energy_1> 
2.727 
 
>  <excitation_energy_2> 
2.829 
 
>  <excitation_energy_3> 
3.611 
 
>  <excitation_energy_4> 
4.096 
 
>  <homo_energy> 
-5.037 
 
>  <homo_lumo_gap> 
3.113 
 
>  <logP> 
2.845 
 
>  <lumo_energy> 
-1.924 
 
>  <melting_point> 
225.86 
 
>  <molecular_refractivity> 
66.48 
 
>  <oscillator_strength_1> 
0.1713 
 
>  <oscillator_strength_2> 
0.0007 
 
>  <oscillator_strength_3> 
0.0666 
 
>  <oscillator_strength_4> 
0.1698 
 
>  <open_babel_can_smiles> 
O=c1ccc2c(c1)[nH]c1c(c2N)cccc1 
 
>  <mulliken_charges> 
26 
1   -0.134892 
2   -0.131473 
3   -0.217115 
4   -0.181365 
5   -0.191548 
6   -0.192639 
7   -0.318444 
8   0.444601 
9   0.108075 
10   0.090876 
11   0.362105 
12   0.397497 
13   0.227022 
14   -0.793646 
15   -0.839629 
16   -0.561957 
17   0.136951 
18   0.142542 
19   0.132373 
20   0.136786 
21   0.136188 
22   0.117607 
23   0.116143 
24   0.336889 
25   0.344109 
26   0.332943 
 
>  <lowdin_charges> 
26 
1   -0.173954 
2   -0.13432 
3   -0.149298 
4   -0.187541 
5   -0.172766 
6   -0.158926 
7   -0.269609 
8   0.122363 
9   -0.049902 
10   -0.068402 
11   0.072596 
12   0.07068 
13   0.08484 
14   -0.457216 
15   -0.18785 
16   -0.322165 
17   0.163269 
18   0.165783 
19   0.156938 
20   0.159531 
21   0.166766 
22   0.148029 
23   0.156135 
24   0.286238 
25   0.286652 
26   0.292129 
 
$$$$ 
 
