PCCDB-ID:  61799 
public computational chemistry database (PCCDB) project, http://pccdb.org 
 
 15 14  0  0  0  0  0  0  0  0999 V2000 
    3.2029    0.2557   -1.5729 C   0  0  0  0  0  0  0  0  0  0  0  0 
    1.2607   -3.5032    0.6861 C   0  0  0  0  0  0  0  0  0  0  0  0 
    2.2850   -2.6938    0.3975 C   0  0  0  0  0  0  0  0  0  0  0  0 
    1.4346   -4.6507    1.6260 C   0  0  0  0  0  0  0  0  0  0  0  0 
    2.1054   -1.5521   -0.5376 C   0  0  0  0  0  0  0  0  0  0  0  0 
    2.4753   -4.9258    2.1735 O   0  0  0  0  0  0  0  0  0  0  0  0 
    0.3233   -5.4018    1.8463 O   0  0  0  0  0  0  0  0  0  0  0  0 
    1.0663   -1.2604   -1.0957 O   0  0  0  0  0  0  0  0  0  0  0  0 
    3.2613   -0.8746   -0.6858 O   0  0  0  0  0  0  0  0  0  0  0  0 
    2.4743    0.9863   -1.2118 H   0  0  0  0  0  0  0  0  0  0  0  0 
    2.9181   -0.0637   -2.5788 H   0  0  0  0  0  0  0  0  0  0  0  0 
    4.2071    0.6790   -1.5722 H   0  0  0  0  0  0  0  0  0  0  0  0 
    0.2928   -3.3124    0.2253 H   0  0  0  0  0  0  0  0  0  0  0  0 
    3.2629   -2.8570    0.8394 H   0  0  0  0  0  0  0  0  0  0  0  0 
   -0.4288   -5.0567    1.3378 H   0  0  0  0  0  0  0  0  0  0  0  0 
  1 12  1  0  0  0  0 
  1 10  1  0  0  0  0 
  1  9  1  0  0  0  0 
  2  4  1  0  0  0  0 
  3  2  2  0  0  0  0 
  3 14  1  0  0  0  0 
  4  7  1  0  0  0  0 
  4  6  2  0  0  0  0 
  5  3  1  0  0  0  0 
  8  5  2  0  0  0  0 
  9  5  1  0  0  0  0 
 11  1  1  0  0  0  0 
 13  2  1  0  0  0  0 
 15  7  1  0  0  0  0 
M  END 
>  <HBA> 
4 
 
>  <HBD> 
1 
 
>  <TPSA> 
63.6 
 
>  <cid> 
61799 
 
>  <dipole> 
3.39 
 
>  <excitation_energy_1> 
4.007 
 
>  <excitation_energy_2> 
4.241 
 
>  <excitation_energy_3> 
5.416 
 
>  <excitation_energy_4> 
5.549 
 
>  <homo_energy> 
-7.734 
 
>  <homo_lumo_gap> 
5.255 
 
>  <logP> 
-0.2 
 
>  <lumo_energy> 
-2.479 
 
>  <melting_point> 
73.49 
 
>  <molecular_refractivity> 
28.73 
 
>  <oscillator_strength_1> 
0.0001 
 
>  <oscillator_strength_2> 
0.0 
 
>  <oscillator_strength_3> 
0.236 
 
>  <oscillator_strength_4> 
0.0943 
 
>  <open_babel_can_smiles> 
COC(=O)/C=C/C(=O)O 
 
>  <mulliken_charges> 
15 
1   -0.222324 
2   -0.201125 
3   -0.152243 
4   0.609466 
5   0.617111 
6   -0.441257 
7   -0.573561 
8   -0.484179 
9   -0.455192 
10   0.176196 
11   0.176113 
12   0.172635 
13   0.168616 
14   0.195476 
15   0.414269 
 
>  <lowdin_charges> 
15 
1   -0.276661 
2   -0.173059 
3   -0.131682 
4   0.194295 
5   0.190094 
6   -0.232642 
7   -0.349106 
8   -0.262561 
9   -0.178406 
10   0.164022 
11   0.162099 
12   0.164491 
13   0.174215 
14   0.19284 
15   0.362059 
 
$$$$ 
 
