PCCDB-ID:  70746 
public computational chemistry database (PCCDB) project, http://pccdb.org 
 
 14 15  0  0  1  0  0  0  0  0999 V2000 
    1.9927    0.6404    0.0057 C   0  0  0  0  0  0  0  0  0  0  0  0 
   -0.3038   -0.6921   -0.0314 C   0  0  0  0  0  0  0  0  0  0  0  0 
    0.9204   -1.4046   -0.0521 C   0  0  1  0  0  0  0  0  0  0  0  0 
   -0.2102    0.7015    0.0092 C   0  0  0  0  0  0  0  0  0  0  0  0 
    0.9752   -2.7511   -0.0952 N   0  0  0  0  0  0  0  0  0  0  0  0 
    2.0653   -0.7038   -0.0313 N   0  0  0  0  0  0  0  0  0  0  0  0 
    0.9167    1.4305    0.0285 N   0  0  0  0  0  0  0  0  0  0  0  0 
   -1.6239   -1.0685   -0.0392 N   0  0  0  0  0  0  0  0  0  0  0  0 
   -1.5127    1.0905    0.0230 N   0  0  0  0  0  0  0  0  0  0  0  0 
   -2.3483    0.0058   -0.0064 N   0  0  0  0  0  0  0  0  0  0  0  0 
    2.9535    1.1506    0.0201 H   0  0  0  0  0  0  0  0  0  0  0  0 
    0.1308   -3.3020   -0.0850 H   0  0  0  0  0  0  0  0  0  0  0  0 
    1.8765   -3.2046   -0.0825 H   0  0  0  0  0  0  0  0  0  0  0  0 
   -1.9030    2.0222    0.0488 H   0  0  0  0  0  0  0  0  0  0  0  0 
  1 11  1  0  0  0  0 
  1  7  1  0  0  0  0 
  2  4  2  0  0  0  0 
  3  5  1  6  0  0  0 
  3  2  1  0  0  0  0 
  3  6  1  0  0  0  0 
  4  9  1  0  0  0  0 
  4  7  1  0  0  0  0 
  5 12  1  0  0  0  0 
  5 13  1  0  0  0  0 
  6  1  2  0  0  0  0 
  8  2  1  0  0  0  0 
  8 10  2  0  0  0  0 
  9 14  1  0  0  0  0 
 10  9  1  0  0  0  0 
M  RAD  2   3   2   7   2 
M  END 
>  <HBA> 
5 
 
>  <HBD> 
2 
 
>  <TPSA> 
93.37 
 
>  <cid> 
70746 
 
>  <dipole> 
1.18 
 
>  <excitation_energy_1> 
4.64 
 
>  <excitation_energy_2> 
4.823 
 
>  <excitation_energy_3> 
5.11 
 
>  <excitation_energy_4> 
5.371 
 
>  <homo_energy> 
-6.566 
 
>  <homo_lumo_gap> 
5.26 
 
>  <logP> 
-0.089 
 
>  <lumo_energy> 
-1.306 
 
>  <melting_point> 
207.11 
 
>  <molecular_refractivity> 
33.88 
 
>  <oscillator_strength_1> 
0.0 
 
>  <oscillator_strength_2> 
0.1731 
 
>  <oscillator_strength_3> 
0.005 
 
>  <oscillator_strength_4> 
0.026 
 
>  <open_babel_can_smiles> 
N[C]1N=C[N]c2c1nn[nH]2 
 
>  <mulliken_charges> 
14 
1   0.170129 
2   0.219752 
3   0.543011 
4   0.567859 
5   -0.780566 
6   -0.512169 
7   -0.493897 
8   -0.391004 
9   -0.530134 
10   -0.024179 
11   0.155511 
12   0.364833 
13   0.354556 
14   0.356298 
 
>  <lowdin_charges> 
14 
1   -0.02059 
2   -0.083924 
3   0.135338 
4   0.063631 
5   -0.427278 
6   -0.222209 
7   -0.201679 
8   -0.125838 
9   -0.136929 
10   -0.060696 
11   0.163369 
12   0.30634 
13   0.301904 
14   0.30856 
 
$$$$ 
 
