PCCDB-ID:  61665 
public computational chemistry database (PCCDB) project, http://pccdb.org 
 
 27 27  0  0  1  0  0  0  0  0999 V2000 
    1.7395   -1.7085    0.8121 C   0  0  0  0  0  0  0  0  0  0  0  0 
    4.8540   -2.3313   -4.4040 C   0  0  0  0  0  0  0  0  0  0  0  0 
    6.0069   -3.2054   -2.3811 C   0  0  0  0  0  0  0  0  0  0  0  0 
    4.1353    0.4644   -0.6868 C   0  0  0  0  0  0  0  0  0  0  0  0 
    2.0243   -0.6681    0.0312 C   0  0  0  0  0  0  0  0  0  0  0  0 
    2.2985   -1.9356   -2.8641 C   0  0  0  0  0  0  0  0  0  0  0  0 
    2.5087   -0.4792   -2.4396 C   0  0  0  0  0  0  0  0  0  0  0  0 
    4.7963   -2.6836   -3.1161 C   0  0  0  0  0  0  0  0  0  0  0  0 
    3.5303   -2.6299   -2.2672 C   0  0  1  0  0  0  0  0  0  0  0  0 
    3.1163   -0.6321   -1.0230 C   0  0  1  0  0  0  0  0  0  0  0  0 
    3.8124   -1.8960   -1.0522 O   0  0  0  0  0  0  0  0  0  0  0  0 
    0.9458   -1.6616    1.5528 H   0  0  0  0  0  0  0  0  0  0  0  0 
    2.3041   -2.6328    0.7381 H   0  0  0  0  0  0  0  0  0  0  0  0 
    5.7830   -2.4077   -4.9641 H   0  0  0  0  0  0  0  0  0  0  0  0 
    3.9969   -1.9596   -4.9569 H   0  0  0  0  0  0  0  0  0  0  0  0 
    6.8936   -3.2158   -3.0220 H   0  0  0  0  0  0  0  0  0  0  0  0 
    5.8340   -4.2286   -2.0187 H   0  0  0  0  0  0  0  0  0  0  0  0 
    6.2122   -2.5916   -1.4978 H   0  0  0  0  0  0  0  0  0  0  0  0 
    3.6537    1.4488   -0.6501 H   0  0  0  0  0  0  0  0  0  0  0  0 
    4.9237    0.4904   -1.4462 H   0  0  0  0  0  0  0  0  0  0  0  0 
    4.5929    0.2704    0.2883 H   0  0  0  0  0  0  0  0  0  0  0  0 
    1.4581    0.2595    0.1309 H   0  0  0  0  0  0  0  0  0  0  0  0 
    2.1932   -2.0709   -3.9425 H   0  0  0  0  0  0  0  0  0  0  0  0 
    1.3979   -2.3374   -2.3882 H   0  0  0  0  0  0  0  0  0  0  0  0 
    1.5862    0.1094   -2.4373 H   0  0  0  0  0  0  0  0  0  0  0  0 
    3.2279    0.0143   -3.1030 H   0  0  0  0  0  0  0  0  0  0  0  0 
    3.2924   -3.6581   -1.9578 H   0  0  0  0  0  0  0  0  0  0  0  0 
  1 12  1  0  0  0  0 
  2  8  2  0  0  0  0 
  3 17  1  0  0  0  0 
  3 18  1  0  0  0  0 
  4 19  1  0  0  0  0 
  4 21  1  0  0  0  0 
  5 22  1  0  0  0  0 
  5  1  2  0  0  0  0 
  6  7  1  0  0  0  0 
  6 24  1  0  0  0  0 
  6  9  1  0  0  0  0 
  7 25  1  0  0  0  0 
  7 10  1  0  0  0  0 
  8  3  1  0  0  0  0 
  8  9  1  0  0  0  0 
  9 27  1  1  0  0  0 
  9 11  1  0  0  0  0 
 10  4  1  0  0  0  0 
 10  5  1  1  0  0  0 
 11 10  1  0  0  0  0 
 13  1  1  0  0  0  0 
 14  2  1  0  0  0  0 
 15  2  1  0  0  0  0 
 16  3  1  0  0  0  0 
 20  4  1  0  0  0  0 
 23  6  1  0  0  0  0 
 26  7  1  0  0  0  0 
M  END 
>  <HBA> 
1 
 
>  <HBD> 
0 
 
>  <TPSA> 
9.23 
 
>  <cid> 
61665 
 
>  <dipole> 
1.18 
 
>  <excitation_energy_1> 
5.856 
 
>  <excitation_energy_2> 
6.086 
 
>  <excitation_energy_3> 
6.206 
 
>  <excitation_energy_4> 
6.279 
 
>  <homo_energy> 
-6.648 
 
>  <homo_lumo_gap> 
7.211 
 
>  <logP> 
2.686 
 
>  <lumo_energy> 
0.563 
 
>  <melting_point> 
-42.34 
 
>  <molecular_refractivity> 
48.24 
 
>  <oscillator_strength_1> 
0.006 
 
>  <oscillator_strength_2> 
0.0021 
 
>  <oscillator_strength_3> 
0.0502 
 
>  <oscillator_strength_4> 
0.0091 
 
>  <open_babel_can_smiles> 
C=C[C@]1(C)CC[C@H](O1)C(=C)C 
 
>  <mulliken_charges> 
27 
1   -0.33962 
2   -0.404579 
3   -0.507597 
4   -0.457865 
5   -0.080623 
6   -0.309582 
7   -0.312036 
8   0.211284 
9   0.089511 
10   0.324704 
11   -0.538211 
12   0.134581 
13   0.153848 
14   0.133718 
15   0.13362 
16   0.146059 
17   0.148862 
18   0.178117 
19   0.137437 
20   0.151565 
21   0.159708 
22   0.120647 
23   0.148604 
24   0.152722 
25   0.143679 
26   0.148199 
27   0.13325 
 
>  <lowdin_charges> 
27 
1   -0.339576 
2   -0.366368 
3   -0.441819 
4   -0.445459 
5   -0.165271 
6   -0.288794 
7   -0.289332 
8   -0.003385 
9   0.006568 
10   0.129285 
11   -0.277002 
12   0.157364 
13   0.165238 
14   0.156246 
15   0.154683 
16   0.153793 
17   0.153846 
18   0.16878 
19   0.149602 
20   0.155765 
21   0.159469 
22   0.149984 
23   0.153359 
24   0.156049 
25   0.152979 
26   0.151938 
27   0.142058 
 
$$$$ 
 
