PCCDB-ID:  12841 
public computational chemistry database (PCCDB) project, http://pccdb.org 
 
 32 32  0  0  0  0  0  0  0  0999 V2000 
    1.0214   -0.9862   -0.5975 C   0  0  0  0  0  0  0  0  0  0  0  0 
    3.3716   -0.7558   -1.4864 C   0  0  0  0  0  0  0  0  0  0  0  0 
    1.9180    1.2606   -1.2263 C   0  0  0  0  0  0  0  0  0  0  0  0 
    3.2004   -1.0851    1.5681 C   0  0  0  0  0  0  0  0  0  0  0  0 
    2.9465    1.2872    1.4878 C   0  0  0  0  0  0  0  0  0  0  0  0 
    3.6854   -1.0082    2.8747 C   0  0  0  0  0  0  0  0  0  0  0  0 
    3.4270    1.3877    2.7905 C   0  0  0  0  0  0  0  0  0  0  0  0 
    5.0121   -0.1539    6.9239 C   0  0  0  0  0  0  0  0  0  0  0  0 
    4.6248   -0.6989    5.5581 C   0  0  0  0  0  0  0  0  0  0  0  0 
    2.8177    0.0490    0.8383 C   0  0  0  0  0  0  0  0  0  0  0  0 
    3.8010    0.2397    3.4952 C   0  0  0  0  0  0  0  0  0  0  0  0 
    2.2880   -0.0974   -0.5996 C   0  0  0  0  0  0  0  0  0  0  0  0 
    3.9322    0.5194    7.5443 O   0  0  0  0  0  0  0  0  0  0  0  0 
    4.2688    0.4356    4.7683 O   0  0  0  0  0  0  0  0  0  0  0  0 
    0.6375   -1.1085   -1.6179 H   0  0  0  0  0  0  0  0  0  0  0  0 
    0.2293   -0.5377    0.0128 H   0  0  0  0  0  0  0  0  0  0  0  0 
    1.2255   -1.9850   -0.1972 H   0  0  0  0  0  0  0  0  0  0  0  0 
    3.0074   -0.8713   -2.5148 H   0  0  0  0  0  0  0  0  0  0  0  0 
    3.6505   -1.7491   -1.1189 H   0  0  0  0  0  0  0  0  0  0  0  0 
    4.2801   -0.1433   -1.5139 H   0  0  0  0  0  0  0  0  0  0  0  0 
    1.5470    1.1081   -2.2461 H   0  0  0  0  0  0  0  0  0  0  0  0 
    2.7828    1.9312   -1.2873 H   0  0  0  0  0  0  0  0  0  0  0  0 
    1.1290    1.7696   -0.6609 H   0  0  0  0  0  0  0  0  0  0  0  0 
    3.1217   -2.0699    1.1154 H   0  0  0  0  0  0  0  0  0  0  0  0 
    2.6678    2.2028    0.9777 H   0  0  0  0  0  0  0  0  0  0  0  0 
    3.9662   -1.9190    3.3914 H   0  0  0  0  0  0  0  0  0  0  0  0 
    3.5202    2.3537    3.2779 H   0  0  0  0  0  0  0  0  0  0  0  0 
    5.8905    0.5022    6.8141 H   0  0  0  0  0  0  0  0  0  0  0  0 
    5.2904   -0.9837    7.5819 H   0  0  0  0  0  0  0  0  0  0  0  0 
    3.7668   -1.3781    5.6513 H   0  0  0  0  0  0  0  0  0  0  0  0 
    5.4627   -1.2425    5.0980 H   0  0  0  0  0  0  0  0  0  0  0  0 
    3.6307    1.1850    6.9044 H   0  0  0  0  0  0  0  0  0  0  0  0 
  1 17  1  0  0  0  0 
  1 16  1  0  0  0  0 
  2 19  1  0  0  0  0 
  2 12  1  0  0  0  0 
  3 23  1  0  0  0  0 
  3 12  1  0  0  0  0 
  4  6  2  0  0  0  0 
  5  7  1  0  0  0  0 
  6 26  1  0  0  0  0 
  6 11  1  0  0  0  0 
  7 27  1  0  0  0  0 
  7 11  2  0  0  0  0 
  8 13  1  0  0  0  0 
  8 29  1  0  0  0  0 
  9 30  1  0  0  0  0 
  9  8  1  0  0  0  0 
 10  5  2  0  0  0  0 
 10  4  1  0  0  0  0 
 11 14  1  0  0  0  0 
 12  1  1  0  0  0  0 
 12 10  1  0  0  0  0 
 14  9  1  0  0  0  0 
 15  1  1  0  0  0  0 
 18  2  1  0  0  0  0 
 20  2  1  0  0  0  0 
 21  3  1  0  0  0  0 
 22  3  1  0  0  0  0 
 24  4  1  0  0  0  0 
 25  5  1  0  0  0  0 
 28  8  1  0  0  0  0 
 31  9  1  0  0  0  0 
 32 13  1  0  0  0  0 
M  END 
>  <HBA> 
2 
 
>  <HBD> 
1 
 
>  <TPSA> 
29.46 
 
>  <cid> 
12841 
 
>  <dipole> 
1.85 
 
>  <excitation_energy_1> 
4.973 
 
>  <excitation_energy_2> 
5.377 
 
>  <excitation_energy_3> 
5.643 
 
>  <excitation_energy_4> 
5.715 
 
>  <homo_energy> 
-5.848 
 
>  <homo_lumo_gap> 
5.831 
 
>  <logP> 
2.355 
 
>  <lumo_energy> 
-0.016 
 
>  <melting_point> 
36.17 
 
>  <molecular_refractivity> 
58.17 
 
>  <oscillator_strength_1> 
0.03 
 
>  <oscillator_strength_2> 
0.0001 
 
>  <oscillator_strength_3> 
0.14 
 
>  <oscillator_strength_4> 
0.0138 
 
>  <open_babel_can_smiles> 
OCCOc1ccc(cc1)C(C)(C)C 
 
>  <mulliken_charges> 
32 
1   -0.437362 
2   -0.437492 
3   -0.457287 
4   -0.199231 
5   -0.19888 
6   -0.193051 
7   -0.179408 
8   -0.040313 
9   -0.051107 
10   0.180442 
11   0.382713 
12   0.017874 
13   -0.617027 
14   -0.543764 
15   0.137141 
16   0.146832 
17   0.140916 
18   0.137235 
19   0.14079 
20   0.146544 
21   0.140981 
22   0.144893 
23   0.14511 
24   0.125844 
25   0.127882 
26   0.132639 
27   0.13077 
28   0.134927 
29   0.149548 
30   0.151628 
31   0.13831 
32   0.401901 
 
>  <lowdin_charges> 
32 
1   -0.439005 
2   -0.43799 
3   -0.444857 
4   -0.153873 
5   -0.162149 
6   -0.211336 
7   -0.185653 
8   -0.140051 
9   -0.149179 
10   -0.016119 
11   0.100179 
12   0.017576 
13   -0.465302 
14   -0.215863 
15   0.145253 
16   0.152391 
17   0.1469 
18   0.145008 
19   0.146951 
20   0.151344 
21   0.149483 
22   0.149622 
23   0.150416 
24   0.154509 
25   0.161128 
26   0.162293 
27   0.162847 
28   0.135213 
29   0.15373 
30   0.146359 
31   0.143116 
32   0.34706 
 
$$$$ 
 
