PCCDB-ID:  65726 
public computational chemistry database (PCCDB) project, http://pccdb.org 
 
 14 14  0  0  0  0  0  0  0  0999 V2000 
   -0.3516    1.2530   -0.0021 C   0  0  0  0  0  0  0  0  0  0  0  0 
   -1.2686    0.0075   -0.0226 C   0  0  0  0  0  0  0  0  0  0  0  0 
    1.0281    0.6621   -0.0411 C   0  0  0  0  0  0  0  0  0  0  0  0 
   -0.3270   -1.2094   -0.0651 C   0  0  0  0  0  0  0  0  0  0  0  0 
    1.0459   -0.6890   -0.0743 C   0  0  0  0  0  0  0  0  0  0  0  0 
    2.1720    1.4008   -0.0379 O   0  0  0  0  0  0  0  0  0  0  0  0 
   -0.6771   -2.3745   -0.0873 O   0  0  0  0  0  0  0  0  0  0  0  0 
    2.1204   -1.5176   -0.1125 O   0  0  0  0  0  0  0  0  0  0  0  0 
   -0.4980    1.8636    0.9007 H   0  0  0  0  0  0  0  0  0  0  0  0 
   -0.5272    1.9144   -0.8632 H   0  0  0  0  0  0  0  0  0  0  0  0 
   -1.9279   -0.0131   -0.8963 H   0  0  0  0  0  0  0  0  0  0  0  0 
   -1.9084   -0.0575    0.8632 H   0  0  0  0  0  0  0  0  0  0  0  0 
    1.9536    2.3450   -0.0199 H   0  0  0  0  0  0  0  0  0  0  0  0 
    2.9230   -0.9700   -0.1055 H   0  0  0  0  0  0  0  0  0  0  0  0 
  1  9  1  0  0  0  0 
  2  1  1  0  0  0  0 
  2 12  1  0  0  0  0 
  3  6  1  0  0  0  0 
  3  1  1  0  0  0  0 
  4  2  1  0  0  0  0 
  5  4  1  0  0  0  0 
  5  3  2  0  0  0  0 
  6 13  1  0  0  0  0 
  7  4  2  0  0  0  0 
  8 14  1  0  0  0  0 
  8  5  1  0  0  0  0 
 10  1  1  0  0  0  0 
 11  2  1  0  0  0  0 
M  END 
>  <HBA> 
3 
 
>  <HBD> 
2 
 
>  <TPSA> 
57.53 
 
>  <cid> 
65726 
 
>  <dipole> 
6.15 
 
>  <excitation_energy_1> 
4.139 
 
>  <excitation_energy_2> 
4.583 
 
>  <excitation_energy_3> 
5.051 
 
>  <excitation_energy_4> 
5.456 
 
>  <homo_energy> 
-5.883 
 
>  <homo_lumo_gap> 
5.222 
 
>  <logP> 
0.677 
 
>  <lumo_energy> 
-0.661 
 
>  <melting_point> 
57.28 
 
>  <molecular_refractivity> 
26.9 
 
>  <oscillator_strength_1> 
0.0002 
 
>  <oscillator_strength_2> 
0.0007 
 
>  <oscillator_strength_3> 
0.1773 
 
>  <oscillator_strength_4> 
0.105 
 
>  <open_babel_can_smiles> 
OC1=C(O)CCC1=O 
 
>  <mulliken_charges> 
14 
1   -0.362187 
2   -0.368782 
3   0.284432 
4   0.413128 
5   0.251007 
6   -0.631657 
7   -0.473813 
8   -0.627216 
9   0.160814 
10   0.160172 
11   0.178314 
12   0.178207 
13   0.420269 
14   0.417312 
 
>  <lowdin_charges> 
14 
1   -0.289149 
2   -0.300535 
3   0.046353 
4   0.131341 
5   0.004294 
6   -0.372595 
7   -0.246004 
8   -0.36058 
9   0.155087 
10   0.155007 
11   0.171748 
12   0.17166 
13   0.366906 
14   0.366467 
 
$$$$ 
 
