PCCDB-ID:  21100 
public computational chemistry database (PCCDB) project, http://pccdb.org 
 
 29 29  0  0  1  0  0  0  0  0999 V2000 
    5.6920   -2.8348   -1.8094 C   0  0  0  0  0  0  0  0  0  0  0  0 
    8.0786    2.8340    3.8075 C   0  0  0  0  0  0  0  0  0  0  0  0 
    4.0573    1.8051    1.0025 C   0  0  0  0  0  0  0  0  0  0  0  0 
    4.3948    3.0723    1.4796 C   0  0  0  0  0  0  0  0  0  0  0  0 
    5.6043    0.8267    2.5619 C   0  0  0  0  0  0  0  0  0  0  0  0 
    5.3925   -1.1842   -0.0147 C   0  0  0  0  0  0  0  0  0  0  0  0 
    4.6564    0.6660    1.5437 C   0  0  0  0  0  0  0  0  0  0  0  0 
    5.3348    3.2272    2.4995 C   0  0  0  0  0  0  0  0  0  0  0  0 
    4.3380   -0.7155    1.0097 C   0  0  1  0  0  0  0  0  0  0  0  0 
    5.9564    2.0859    3.0425 C   0  0  0  0  0  0  0  0  0  0  0  0 
    4.9399   -2.4393   -0.6203 N   0  0  0  0  0  0  0  0  0  0  0  0 
    5.6752    4.4510    3.0171 O   0  0  0  0  0  0  0  0  0  0  0  0 
    3.0660   -0.7238    0.3861 O   0  0  0  0  0  0  0  0  0  0  0  0 
    6.8453    2.1689    4.0882 O   0  0  0  0  0  0  0  0  0  0  0  0 
    5.3127   -3.7934   -2.1780 H   0  0  0  0  0  0  0  0  0  0  0  0 
    6.7786   -2.9335   -1.6411 H   0  0  0  0  0  0  0  0  0  0  0  0 
    5.5416   -2.0877   -2.5963 H   0  0  0  0  0  0  0  0  0  0  0  0 
    8.6765    2.7554    4.7186 H   0  0  0  0  0  0  0  0  0  0  0  0 
    7.9217    3.8885    3.5615 H   0  0  0  0  0  0  0  0  0  0  0  0 
    8.6096    2.3402    2.9821 H   0  0  0  0  0  0  0  0  0  0  0  0 
    3.3111    1.6906    0.2245 H   0  0  0  0  0  0  0  0  0  0  0  0 
    3.9106    3.9561    1.0656 H   0  0  0  0  0  0  0  0  0  0  0  0 
    6.0838   -0.0344    3.0211 H   0  0  0  0  0  0  0  0  0  0  0  0 
    6.3880   -1.2505    0.4572 H   0  0  0  0  0  0  0  0  0  0  0  0 
    5.4553   -0.4326   -0.8110 H   0  0  0  0  0  0  0  0  0  0  0  0 
    4.3488   -1.4279    1.8567 H   0  0  0  0  0  0  0  0  0  0  0  0 
    4.9968   -3.1830    0.0750 H   0  0  0  0  0  0  0  0  0  0  0  0 
    5.1462    5.1296    2.5694 H   0  0  0  0  0  0  0  0  0  0  0  0 
    3.1215   -1.4687   -0.2466 H   0  0  0  0  0  0  0  0  0  0  0  0 
  1 16  1  0  0  0  0 
  1 11  1  0  0  0  0 
  2 14  1  0  0  0  0 
  2 18  1  0  0  0  0 
  3  4  2  0  0  0  0 
  3  7  1  0  0  0  0 
  4  8  1  0  0  0  0 
  5 23  1  0  0  0  0 
  5 10  1  0  0  0  0 
  6 24  1  0  0  0  0 
  6  9  1  0  0  0  0 
  7  5  2  0  0  0  0 
  8 12  1  0  0  0  0 
  8 10  2  0  0  0  0 
  9  7  1  0  0  0  0 
  9 26  1  1  0  0  0 
 10 14  1  0  0  0  0 
 11  6  1  0  0  0  0 
 11 27  1  0  0  0  0 
 13  9  1  0  0  0  0 
 15  1  1  0  0  0  0 
 17  1  1  0  0  0  0 
 19  2  1  0  0  0  0 
 20  2  1  0  0  0  0 
 21  3  1  0  0  0  0 
 22  4  1  0  0  0  0 
 25  6  1  0  0  0  0 
 28 12  1  0  0  0  0 
 29 13  1  0  0  0  0 
M  END 
>  <HBA> 
4 
 
>  <HBD> 
3 
 
>  <TPSA> 
61.72 
 
>  <cid> 
21100 
 
>  <dipole> 
3.12 
 
>  <excitation_energy_1> 
4.893 
 
>  <excitation_energy_2> 
4.969 
 
>  <excitation_energy_3> 
5.306 
 
>  <excitation_energy_4> 
5.504 
 
>  <homo_energy> 
-5.611 
 
>  <homo_lumo_gap> 
5.818 
 
>  <logP> 
1.044 
 
>  <lumo_energy> 
0.207 
 
>  <melting_point> 
98.7 
 
>  <molecular_refractivity> 
53.5 
 
>  <oscillator_strength_1> 
0.0477 
 
>  <oscillator_strength_2> 
0.0009 
 
>  <oscillator_strength_3> 
0.0036 
 
>  <oscillator_strength_4> 
0.0437 
 
>  <open_babel_can_smiles> 
CNC[C@@H](c1ccc(c(c1)OC)O)O 
 
>  <mulliken_charges> 
29 
1   -0.299497 
2   -0.212347 
3   -0.175824 
4   -0.203917 
5   -0.236916 
6   -0.148565 
7   0.130884 
8   0.314959 
9   0.085924 
10   0.329987 
11   -0.571498 
12   -0.644678 
13   -0.651318 
14   -0.521966 
15   0.15429 
16   0.130827 
17   0.160262 
18   0.156645 
19   0.168379 
20   0.134706 
21   0.150002 
22   0.117451 
23   0.125376 
24   0.125681 
25   0.15189 
26   0.111251 
27   0.304017 
28   0.408499 
29   0.405494 
 
>  <lowdin_charges> 
29 
1   -0.356336 
2   -0.275539 
3   -0.157456 
4   -0.209601 
5   -0.181743 
6   -0.224117 
7   -0.025344 
8   0.074968 
9   -0.001402 
10   0.067798 
11   -0.364794 
12   -0.381019 
13   -0.469126 
14   -0.224445 
15   0.153475 
16   0.126252 
17   0.153905 
18   0.155419 
19   0.15057 
20   0.137382 
21   0.17133 
22   0.152844 
23   0.162504 
24   0.129522 
25   0.151429 
26   0.124589 
27   0.257588 
28   0.360161 
29   0.341182 
 
$$$$ 
 
