PCCDB-ID:  73236 
public computational chemistry database (PCCDB) project, http://pccdb.org 
 
 16 16  0  0  0  0  0  0  0  0999 V2000 
    0.7779    0.0531   -0.1059 C   0  0  0  0  0  0  0  0  0  0  0  0 
   -0.9656    1.7582   -0.8640 C   0  0  0  0  0  0  0  0  0  0  0  0 
    0.2375    1.4271   -0.3578 C   0  0  0  0  0  0  0  0  0  0  0  0 
    0.4874    3.7844   -0.3311 C   0  0  0  0  0  0  0  0  0  0  0  0 
    0.9427    4.9599   -0.1352 N   0  0  0  0  0  0  0  0  0  0  0  0 
    2.1188    0.5594    1.7527 N   0  0  0  0  0  0  0  0  0  0  0  0 
    1.0509    2.5331   -0.1040 N   0  0  0  0  0  0  0  0  0  0  0  0 
    1.0149   -0.2439    1.2764 O   0  0  0  0  0  0  0  0  0  0  0  0 
   -1.1501    3.5060   -1.0311 S   0  0  0  0  0  0  0  0  0  0  0  0 
    1.7050   -0.1059   -0.6756 H   0  0  0  0  0  0  0  0  0  0  0  0 
    0.0431   -0.6934   -0.4182 H   0  0  0  0  0  0  0  0  0  0  0  0 
   -1.7509    1.0824   -1.1705 H   0  0  0  0  0  0  0  0  0  0  0  0 
    1.8924    4.9336    0.2442 H   0  0  0  0  0  0  0  0  0  0  0  0 
    2.8478   -0.1278    1.9625 H   0  0  0  0  0  0  0  0  0  0  0  0 
    1.7812    0.8842    2.6607 H   0  0  0  0  0  0  0  0  0  0  0  0 
    1.8811    2.4103    0.4663 H   0  0  0  0  0  0  0  0  0  0  0  0 
  1  8  1  0  0  0  0 
  2  3  2  0  0  0  0 
  3  1  1  0  0  0  0 
  3  7  1  0  0  0  0 
  4  5  2  0  0  0  0 
  4  7  1  0  0  0  0 
  5 13  1  0  0  0  0 
  6 14  1  0  0  0  0 
  6 15  1  0  0  0  0 
  7 16  1  0  0  0  0 
  8  6  1  0  0  0  0 
  9  2  1  0  0  0  0 
  9  4  1  0  0  0  0 
 10  1  1  0  0  0  0 
 11  1  1  0  0  0  0 
 12  2  1  0  0  0  0 
M  END 
>  <HBA> 
5 
 
>  <HBD> 
2 
 
>  <TPSA> 
102.4 
 
>  <cid> 
73236 
 
>  <dipole> 
5.49 
 
>  <excitation_energy_1> 
4.317 
 
>  <excitation_energy_2> 
4.588 
 
>  <excitation_energy_3> 
4.703 
 
>  <excitation_energy_4> 
5.034 
 
>  <homo_energy> 
-5.14 
 
>  <homo_lumo_gap> 
5.404 
 
>  <logP> 
1.397 
 
>  <lumo_energy> 
0.264 
 
>  <melting_point> 
119.69 
 
>  <molecular_refractivity> 
35.28 
 
>  <oscillator_strength_1> 
0.0042 
 
>  <oscillator_strength_2> 
0.0152 
 
>  <oscillator_strength_3> 
0.0694 
 
>  <oscillator_strength_4> 
0.0226 
 
>  <open_babel_can_smiles> 
NOCc1csc(=N)[nH]1 
 
>  <mulliken_charges> 
16 
1   -0.091522 
2   -0.422731 
3   0.384795 
4   0.299604 
5   -0.635457 
6   -0.501863 
7   -0.632158 
8   -0.397824 
9   0.224346 
10   0.148883 
11   0.166905 
12   0.171188 
13   0.273498 
14   0.327797 
15   0.334685 
16   0.349853 
 
>  <lowdin_charges> 
16 
1   -0.133506 
2   -0.350312 
3   0.012213 
4   -0.014632 
5   -0.445445 
6   -0.404806 
7   -0.250516 
8   -0.241927 
9   0.247253 
10   0.146768 
11   0.168097 
12   0.186582 
13   0.251784 
14   0.265494 
15   0.268649 
16   0.294305 
 
$$$$ 
 
