PCCDB-ID:  26889 
public computational chemistry database (PCCDB) project, http://pccdb.org 
 
 19 20  0  0  0  0  0  0  0  0999 V2000 
    0.9806   -0.1471   -0.0306 C   0  0  0  0  0  0  0  0  0  0  0  0 
    3.1465    1.1696   -0.0574 C   0  0  0  0  0  0  0  0  0  0  0  0 
    4.5431    1.2571   -0.0627 C   0  0  0  0  0  0  0  0  0  0  0  0 
    3.2540   -1.2442    0.0097 C   0  0  0  0  0  0  0  0  0  0  0  0 
    2.4899   -0.0670   -0.0231 C   0  0  0  0  0  0  0  0  0  0  0  0 
    4.6429   -1.1605    0.0054 C   0  0  0  0  0  0  0  0  0  0  0  0 
    5.2906    0.0875   -0.0314 C   0  0  0  0  0  0  0  0  0  0  0  0 
    6.9019   -1.9016    0.0219 C   0  0  0  0  0  0  0  0  0  0  0  0 
    7.9319   -2.6490    0.0373 N   0  0  0  0  0  0  0  0  0  0  0  0 
    5.5463   -2.2188    0.0360 N   0  0  0  0  0  0  0  0  0  0  0  0 
    7.0522   -0.1080   -0.0282 S   0  0  0  0  0  0  0  0  0  0  0  0 
    0.5290    0.8462    0.0505 H   0  0  0  0  0  0  0  0  0  0  0  0 
    0.6059   -0.7546    0.8022 H   0  0  0  0  0  0  0  0  0  0  0  0 
    0.6086   -0.6061   -0.9557 H   0  0  0  0  0  0  0  0  0  0  0  0 
    2.5591    2.0835   -0.0803 H   0  0  0  0  0  0  0  0  0  0  0  0 
    5.0323    2.2263   -0.0892 H   0  0  0  0  0  0  0  0  0  0  0  0 
    2.7636   -2.2148    0.0385 H   0  0  0  0  0  0  0  0  0  0  0  0 
    7.6847   -3.6412    0.0659 H   0  0  0  0  0  0  0  0  0  0  0  0 
    5.2500   -3.1846    0.0613 H   0  0  0  0  0  0  0  0  0  0  0  0 
  1  5  1  0  0  0  0 
  1 12  1  0  0  0  0 
  1 13  1  0  0  0  0 
  2  5  2  0  0  0  0 
  3  2  1  0  0  0  0 
  3  7  2  0  0  0  0 
  4 17  1  0  0  0  0 
  5  4  1  0  0  0  0 
  6  4  2  0  0  0  0 
  6 10  1  0  0  0  0 
  7 11  1  0  0  0  0 
  7  6  1  0  0  0  0 
  8 10  1  0  0  0  0 
  8  9  2  0  0  0  0 
  9 18  1  0  0  0  0 
 10 19  1  0  0  0  0 
 11  8  1  0  0  0  0 
 14  1  1  0  0  0  0 
 15  2  1  0  0  0  0 
 16  3  1  0  0  0  0 
M  END 
>  <HBA> 
3 
 
>  <HBD> 
1 
 
>  <TPSA> 
67.15 
 
>  <cid> 
26889 
 
>  <dipole> 
4.29 
 
>  <excitation_energy_1> 
4.371 
 
>  <excitation_energy_2> 
4.38 
 
>  <excitation_energy_3> 
4.737 
 
>  <excitation_energy_4> 
4.877 
 
>  <homo_energy> 
-5.478 
 
>  <homo_lumo_gap> 
5.162 
 
>  <logP> 
2.768 
 
>  <lumo_energy> 
-0.316 
 
>  <melting_point> 
117.38 
 
>  <molecular_refractivity> 
48.99 
 
>  <oscillator_strength_1> 
0.0002 
 
>  <oscillator_strength_2> 
0.1166 
 
>  <oscillator_strength_3> 
0.0006 
 
>  <oscillator_strength_4> 
0.0605 
 
>  <open_babel_can_smiles> 
Cc1ccc2c(c1)[nH]c(=N)s2 
 
>  <mulliken_charges> 
19 
1   -0.530637 
2   -0.17296 
3   -0.187819 
4   -0.213127 
5   0.160931 
6   0.387905 
7   -0.14869 
8   0.325835 
9   -0.634748 
10   -0.700895 
11   0.232951 
12   0.158561 
13   0.161448 
14   0.164644 
15   0.125202 
16   0.144258 
17   0.120993 
18   0.277288 
19   0.32886 
 
>  <lowdin_charges> 
19 
1   -0.442047 
2   -0.180824 
3   -0.15716 
4   -0.199946 
5   0.007505 
6   0.045748 
7   -0.151993 
8   -0.006705 
9   -0.431221 
10   -0.244964 
11   0.252869 
12   0.15857 
13   0.160937 
14   0.161736 
15   0.158642 
16   0.166918 
17   0.156498 
18   0.253985 
19   0.291452 
 
$$$$ 
 
