PCCDB-ID:  10975 
public computational chemistry database (PCCDB) project, http://pccdb.org 
 
 29 28  0  0  0  0  0  0  0  0999 V2000 
    2.9271    1.9150    2.2812 C   0  0  0  0  0  0  0  0  0  0  0  0 
    2.2483    0.8997   -1.2032 C   0  0  0  0  0  0  0  0  0  0  0  0 
    8.8687    3.8056   -0.4578 C   0  0  0  0  0  0  0  0  0  0  0  0 
    6.8867    4.9075   -1.5648 C   0  0  0  0  0  0  0  0  0  0  0  0 
    2.3341    1.6123    1.1179 C   0  0  0  0  0  0  0  0  0  0  0  0 
    5.1141    2.6558   -0.3604 C   0  0  0  0  0  0  0  0  0  0  0  0 
    4.5116    1.2424   -0.2199 C   0  0  0  0  0  0  0  0  0  0  0  0 
    6.6460    2.6215   -0.4409 C   0  0  0  0  0  0  0  0  0  0  0  0 
    2.9981    1.2343   -0.1380 C   0  0  0  0  0  0  0  0  0  0  0  0 
    7.3440    3.9949   -0.4158 C   0  0  0  0  0  0  0  0  0  0  0  0 
    6.9737    4.5826    0.8453 O   0  0  0  0  0  0  0  0  0  0  0  0 
    2.3399    2.1699    3.1585 H   0  0  0  0  0  0  0  0  0  0  0  0 
    4.0059    1.9231    2.4067 H   0  0  0  0  0  0  0  0  0  0  0  0 
    1.1616    0.9134   -1.1639 H   0  0  0  0  0  0  0  0  0  0  0  0 
    2.6955    0.6002   -2.1473 H   0  0  0  0  0  0  0  0  0  0  0  0 
    9.1891    3.3181   -1.3860 H   0  0  0  0  0  0  0  0  0  0  0  0 
    9.1991    3.1944    0.3884 H   0  0  0  0  0  0  0  0  0  0  0  0 
    9.3815    4.7748   -0.3990 H   0  0  0  0  0  0  0  0  0  0  0  0 
    7.0827    4.4515   -2.5424 H   0  0  0  0  0  0  0  0  0  0  0  0 
    7.4278    5.8626   -1.5329 H   0  0  0  0  0  0  0  0  0  0  0  0 
    5.8175    5.1242   -1.4903 H   0  0  0  0  0  0  0  0  0  0  0  0 
    1.2448    1.6281    1.0729 H   0  0  0  0  0  0  0  0  0  0  0  0 
    4.8129    3.2800    0.4865 H   0  0  0  0  0  0  0  0  0  0  0  0 
    4.6933    3.1215   -1.2604 H   0  0  0  0  0  0  0  0  0  0  0  0 
    4.9345    0.7579    0.6709 H   0  0  0  0  0  0  0  0  0  0  0  0 
    4.8243    0.6338   -1.0778 H   0  0  0  0  0  0  0  0  0  0  0  0 
    6.9608    2.0888   -1.3491 H   0  0  0  0  0  0  0  0  0  0  0  0 
    7.0351    2.0461    0.4103 H   0  0  0  0  0  0  0  0  0  0  0  0 
    7.3900    5.4581    0.8904 H   0  0  0  0  0  0  0  0  0  0  0  0 
  1 13  1  0  0  0  0 
  1 12  1  0  0  0  0 
  2 14  1  0  0  0  0 
  2  9  2  0  0  0  0 
  3 10  1  0  0  0  0 
  3 18  1  0  0  0  0 
  3 17  1  0  0  0  0 
  4 20  1  0  0  0  0 
  4 21  1  0  0  0  0 
  4 10  1  0  0  0  0 
  5  1  2  0  0  0  0 
  6  7  1  0  0  0  0 
  6 23  1  0  0  0  0 
  7  9  1  0  0  0  0 
  7 25  1  0  0  0  0 
  8 10  1  0  0  0  0 
  8  6  1  0  0  0  0 
  8 28  1  0  0  0  0 
  9  5  1  0  0  0  0 
 10 11  1  0  0  0  0 
 11 29  1  0  0  0  0 
 15  2  1  0  0  0  0 
 16  3  1  0  0  0  0 
 19  4  1  0  0  0  0 
 22  5  1  0  0  0  0 
 24  6  1  0  0  0  0 
 26  7  1  0  0  0  0 
 27  8  1  0  0  0  0 
M  END 
>  <HBA> 
1 
 
>  <HBD> 
1 
 
>  <TPSA> 
20.23 
 
>  <cid> 
10975 
 
>  <dipole> 
1.7 
 
>  <excitation_energy_1> 
5.397 
 
>  <excitation_energy_2> 
5.669 
 
>  <excitation_energy_3> 
5.881 
 
>  <excitation_energy_4> 
6.063 
 
>  <homo_energy> 
-6.014 
 
>  <homo_lumo_gap> 
5.57 
 
>  <logP> 
2.67 
 
>  <lumo_energy> 
-0.444 
 
>  <melting_point> 
-37.36 
 
>  <molecular_refractivity> 
50.44 
 
>  <oscillator_strength_1> 
0.4432 
 
>  <oscillator_strength_2> 
0.0015 
 
>  <oscillator_strength_3> 
0.0043 
 
>  <oscillator_strength_4> 
0.0035 
 
>  <open_babel_can_smiles> 
C=CC(=C)CCCC(O)(C)C 
 
>  <mulliken_charges> 
29 
1   -0.354803 
2   -0.416933 
3   -0.453415 
4   -0.462814 
5   -0.103521 
6   -0.266469 
7   -0.354568 
8   -0.252091 
9   0.234623 
10   0.305711 
11   -0.637397 
12   0.141613 
13   0.148856 
14   0.138411 
15   0.136643 
16   0.140374 
17   0.153563 
18   0.127648 
19   0.141426 
20   0.128058 
21   0.162389 
22   0.122677 
23   0.168481 
24   0.133604 
25   0.140492 
26   0.134637 
27   0.123876 
28   0.135924 
29   0.383004 
 
>  <lowdin_charges> 
29 
1   -0.337154 
2   -0.346225 
3   -0.457308 
4   -0.45776 
5   -0.144179 
6   -0.278784 
7   -0.274098 
8   -0.279292 
9   0.008952 
10   0.125001 
11   -0.465582 
12   0.161646 
13   0.159218 
14   0.153611 
15   0.15585 
16   0.151302 
17   0.156426 
18   0.142593 
19   0.151748 
20   0.143143 
21   0.157201 
22   0.150812 
23   0.158944 
24   0.142339 
25   0.147822 
26   0.147244 
27   0.141171 
28   0.147432 
29   0.337927 
 
$$$$ 
 
