PCCDB-ID:  68084 
public computational chemistry database (PCCDB) project, http://pccdb.org 
 
 30 32  0  0  0  0  0  0  0  0999 V2000 
    0.9107   -0.0803    0.0662 C   0  0  0  0  0  0  0  0  0  0  0  0 
    9.5857    2.5329    0.0393 C   0  0  0  0  0  0  0  0  0  0  0  0 
    8.8960   -1.2150    0.0422 C   0  0  0  0  0  0  0  0  0  0  0  0 
    9.5564    0.0256    0.0394 C   0  0  0  0  0  0  0  0  0  0  0  0 
    7.5169   -1.2700    0.0468 C   0  0  0  0  0  0  0  0  0  0  0  0 
    3.1466   -1.2958    0.0582 C   0  0  0  0  0  0  0  0  0  0  0  0 
    5.2793    2.3510    0.0546 C   0  0  0  0  0  0  0  0  0  0  0  0 
    4.5295   -1.3112    0.0539 C   0  0  0  0  0  0  0  0  0  0  0  0 
    6.6397    2.3780    0.0495 C   0  0  0  0  0  0  0  0  0  0  0  0 
    3.1458    1.0978    0.0606 C   0  0  0  0  0  0  0  0  0  0  0  0 
    2.4224   -0.0844    0.0620 C   0  0  0  0  0  0  0  0  0  0  0  0 
    8.8455    1.2146    0.0418 C   0  0  0  0  0  0  0  0  0  0  0  0 
    4.5581    1.1126    0.0562 C   0  0  0  0  0  0  0  0  0  0  0  0 
    7.4186    1.1703    0.0465 C   0  0  0  0  0  0  0  0  0  0  0  0 
    5.2829   -0.1155    0.0529 C   0  0  0  0  0  0  0  0  0  0  0  0 
    6.7407   -0.0876    0.0487 C   0  0  0  0  0  0  0  0  0  0  0  0 
    0.5094   -1.0986    0.0664 H   0  0  0  0  0  0  0  0  0  0  0  0 
    0.5084    0.4357   -0.8143 H   0  0  0  0  0  0  0  0  0  0  0  0 
    0.5132    0.4341    0.9499 H   0  0  0  0  0  0  0  0  0  0  0  0 
   10.6671    2.3670    0.0376 H   0  0  0  0  0  0  0  0  0  0  0  0 
    9.3455    3.1401    0.9212 H   0  0  0  0  0  0  0  0  0  0  0  0 
    9.3425    3.1383   -0.8430 H   0  0  0  0  0  0  0  0  0  0  0  0 
    9.4753   -2.1345    0.0405 H   0  0  0  0  0  0  0  0  0  0  0  0 
   10.6434    0.0544    0.0362 H   0  0  0  0  0  0  0  0  0  0  0  0 
    7.0315   -2.2397    0.0499 H   0  0  0  0  0  0  0  0  0  0  0  0 
    2.6034   -2.2381    0.0592 H   0  0  0  0  0  0  0  0  0  0  0  0 
    4.7122    3.2790    0.0574 H   0  0  0  0  0  0  0  0  0  0  0  0 
    5.0328   -2.2719    0.0499 H   0  0  0  0  0  0  0  0  0  0  0  0 
    7.1530    3.3336    0.0479 H   0  0  0  0  0  0  0  0  0  0  0  0 
    2.6213    2.0520    0.0625 H   0  0  0  0  0  0  0  0  0  0  0  0 
  1 17  1  0  0  0  0 
  1 19  1  0  0  0  0 
  2 12  1  0  0  0  0 
  2 21  1  0  0  0  0 
  3  5  2  0  0  0  0 
  4 12  2  0  0  0  0 
  4  3  1  0  0  0  0 
  5 16  1  0  0  0  0 
  5 25  1  0  0  0  0 
  6 26  1  0  0  0  0 
  6 11  2  0  0  0  0 
  7 13  1  0  0  0  0 
  7 27  1  0  0  0  0 
  8  6  1  0  0  0  0 
  9  7  2  0  0  0  0 
 10 11  1  0  0  0  0 
 10 30  1  0  0  0  0 
 11  1  1  0  0  0  0 
 12 14  1  0  0  0  0 
 13 10  2  0  0  0  0 
 14 16  2  0  0  0  0 
 14  9  1  0  0  0  0 
 15  8  2  0  0  0  0 
 15 13  1  0  0  0  0 
 16 15  1  0  0  0  0 
 18  1  1  0  0  0  0 
 20  2  1  0  0  0  0 
 22  2  1  0  0  0  0 
 23  3  1  0  0  0  0 
 24  4  1  0  0  0  0 
 28  8  1  0  0  0  0 
 29  9  1  0  0  0  0 
M  END 
>  <HBA> 
0 
 
>  <HBD> 
0 
 
>  <TPSA> 
0.0 
 
>  <cid> 
68084 
 
>  <dipole> 
0.36 
 
>  <excitation_energy_1> 
3.881 
 
>  <excitation_energy_2> 
4.101 
 
>  <excitation_energy_3> 
4.589 
 
>  <excitation_energy_4> 
4.754 
 
>  <homo_energy> 
-5.595 
 
>  <homo_lumo_gap> 
4.626 
 
>  <logP> 
4.61 
 
>  <lumo_energy> 
-0.969 
 
>  <melting_point> 
102.67 
 
>  <molecular_refractivity> 
71.39 
 
>  <oscillator_strength_1> 
0.0025 
 
>  <oscillator_strength_2> 
0.0848 
 
>  <oscillator_strength_3> 
0.1456 
 
>  <oscillator_strength_4> 
0.6654 
 
>  <open_babel_can_smiles> 
Cc1ccc2c(c1)ccc1c2cccc1C 
 
>  <mulliken_charges> 
30 
1   -0.532883 
2   -0.535916 
3   -0.132622 
4   -0.194746 
5   -0.190695 
6   -0.192603 
7   -0.193017 
8   -0.186512 
9   -0.201235 
10   -0.272911 
11   0.188942 
12   0.120402 
13   0.157531 
14   0.081036 
15   0.053271 
16   0.063906 
17   0.154965 
18   0.16386 
19   0.163841 
20   0.155722 
21   0.162786 
22   0.162821 
23   0.126751 
24   0.119942 
25   0.130257 
26   0.120914 
27   0.126633 
28   0.132216 
29   0.127581 
30   0.119763 
 
>  <lowdin_charges> 
30 
1   -0.443317 
2   -0.442985 
3   -0.157421 
4   -0.168326 
5   -0.163186 
6   -0.167728 
7   -0.158348 
8   -0.15654 
9   -0.164036 
10   -0.168887 
11   0.000996 
12   -3.4e-05 
13   0.000491 
14   -0.012097 
15   -0.005548 
16   0.000523 
17   0.155855 
18   0.162217 
19   0.162185 
20   0.156089 
21   0.160075 
22   0.160094 
23   0.157617 
24   0.151971 
25   0.156813 
26   0.154822 
27   0.157128 
28   0.157658 
29   0.160675 
30   0.153245 
 
$$$$ 
 
