PCCDB-ID:  7854 
public computational chemistry database (PCCDB) project, http://pccdb.org 
 
  9  8  0  0  0  0  0  0  0  0999 V2000 
    0.9333   -0.1408    0.0452 C   0  0  0  0  0  0  0  0  0  0  0  0 
    2.4716   -0.0980    0.0083 C   0  0  0  0  0  0  0  0  0  0  0  0 
    2.9859    0.9320   -0.9010 C   0  0  0  0  0  0  0  0  0  0  0  0 
    3.3774    1.7513   -1.6240 N   0  0  0  0  0  0  0  0  0  0  0  0 
    0.6021   -0.9265    0.7312 H   0  0  0  0  0  0  0  0  0  0  0  0 
    0.5234   -0.3525   -0.9466 H   0  0  0  0  0  0  0  0  0  0  0  0 
    0.5231    0.8134    0.3884 H   0  0  0  0  0  0  0  0  0  0  0  0 
    2.8747   -1.0677   -0.3085 H   0  0  0  0  0  0  0  0  0  0  0  0 
    2.8737    0.0971    1.0099 H   0  0  0  0  0  0  0  0  0  0  0  0 
  1  7  1  0  0  0  0 
  1  5  1  0  0  0  0 
  2  1  1  0  0  0  0 
  2  9  1  0  0  0  0 
  3  2  1  0  0  0  0 
  4  3  3  0  0  0  0 
  6  1  1  0  0  0  0 
  8  2  1  0  0  0  0 
M  END 
>  <HBA> 
1 
 
>  <HBD> 
0 
 
>  <TPSA> 
23.79 
 
>  <cid> 
7854 
 
>  <dipole> 
3.91 
 
>  <excitation_energy_1> 
7.521 
 
>  <excitation_energy_2> 
7.776 
 
>  <excitation_energy_3> 
7.889 
 
>  <excitation_energy_4> 
8.147 
 
>  <homo_energy> 
-8.749 
 
>  <homo_lumo_gap> 
9.647 
 
>  <logP> 
0.92 
 
>  <lumo_energy> 
0.898 
 
>  <melting_point> 
9.33 
 
>  <molecular_refractivity> 
16.28 
 
>  <oscillator_strength_1> 
0.0001 
 
>  <oscillator_strength_2> 
0.0282 
 
>  <oscillator_strength_3> 
0.0001 
 
>  <oscillator_strength_4> 
0.0095 
 
>  <open_babel_can_smiles> 
CCC#N 
 
>  <mulliken_charges> 
9 
1   -0.443548 
2   -0.339562 
3   0.349176 
4   -0.465438 
5   0.162098 
6   0.17318 
7   0.173108 
8   0.19548 
9   0.195505 
 
>  <lowdin_charges> 
9 
1   -0.432715 
2   -0.272151 
3   -0.016963 
4   -0.128984 
5   0.161247 
6   0.163767 
7   0.16415 
8   0.181017 
9   0.180632 
 
$$$$ 
 
