PCCDB-ID:  29098 
public computational chemistry database (PCCDB) project, http://pccdb.org 
 
 24 23  0  0  1  0  0  0  0  0999 V2000 
    3.0486    1.0983   -1.2031 C   0  0  0  0  0  0  0  0  0  0  0  0 
    2.5777   -4.7613    3.0483 C   0  0  0  0  0  0  0  0  0  0  0  0 
    1.6849   -2.7179    4.2640 C   0  0  0  0  0  0  0  0  0  0  0  0 
    2.2025   -2.0568    0.8501 C   0  0  0  0  0  0  0  0  0  0  0  0 
    2.5120   -1.2197   -0.3075 C   0  0  0  0  0  0  0  0  0  0  0  0 
    1.9101   -2.7368    1.8058 C   0  0  0  0  0  0  0  0  0  0  0  0 
    2.8301    0.2513    0.0518 C   0  0  1  0  0  0  0  0  0  0  0  0 
    1.6048   -3.5678    2.9814 C   0  0  0  0  0  0  0  0  0  0  0  0 
    3.9363    0.3459    0.9434 O   0  0  0  0  0  0  0  0  0  0  0  0 
    0.2595   -4.0500    2.8014 O   0  0  0  0  0  0  0  0  0  0  0  0 
    2.1581    1.1047   -1.8420 H   0  0  0  0  0  0  0  0  0  0  0  0 
    3.8851    0.7071   -1.7986 H   0  0  0  0  0  0  0  0  0  0  0  0 
    3.2838    2.1293   -0.9223 H   0  0  0  0  0  0  0  0  0  0  0  0 
    3.6153   -4.4225    3.1341 H   0  0  0  0  0  0  0  0  0  0  0  0 
    2.4801   -5.3741    2.1479 H   0  0  0  0  0  0  0  0  0  0  0  0 
    2.3490   -5.3846    3.9229 H   0  0  0  0  0  0  0  0  0  0  0  0 
    2.6869   -2.2986    4.3997 H   0  0  0  0  0  0  0  0  0  0  0  0 
    1.4527   -3.3395    5.1392 H   0  0  0  0  0  0  0  0  0  0  0  0 
    0.9647   -1.8967    4.2161 H   0  0  0  0  0  0  0  0  0  0  0  0 
    1.6656   -1.2393   -1.0085 H   0  0  0  0  0  0  0  0  0  0  0  0 
    3.3688   -1.6370   -0.8607 H   0  0  0  0  0  0  0  0  0  0  0  0 
    1.9867    0.6541    0.6229 H   0  0  0  0  0  0  0  0  0  0  0  0 
    4.7137   -0.0129    0.4847 H   0  0  0  0  0  0  0  0  0  0  0  0 
    0.0541   -4.5887    3.5835 H   0  0  0  0  0  0  0  0  0  0  0  0 
  1 13  1  0  0  0  0 
  1  7  1  0  0  0  0 
  2 14  1  0  0  0  0 
  2 16  1  0  0  0  0 
  3 17  1  0  0  0  0 
  3 18  1  0  0  0  0 
  4  6  3  0  0  0  0 
  5  7  1  0  0  0  0 
  5  4  1  0  0  0  0 
  6  8  1  0  0  0  0 
  7 22  1  1  0  0  0 
  7  9  1  0  0  0  0 
  8  2  1  0  0  0  0 
  8  3  1  0  0  0  0 
 10  8  1  0  0  0  0 
 10 24  1  0  0  0  0 
 11  1  1  0  0  0  0 
 12  1  1  0  0  0  0 
 15  2  1  0  0  0  0 
 19  3  1  0  0  0  0 
 20  5  1  0  0  0  0 
 21  5  1  0  0  0  0 
 23  9  1  0  0  0  0 
M  END 
>  <HBA> 
2 
 
>  <HBD> 
2 
 
>  <TPSA> 
40.46 
 
>  <cid> 
29098 
 
>  <dipole> 
1.36 
 
>  <excitation_energy_1> 
5.972 
 
>  <excitation_energy_2> 
6.231 
 
>  <excitation_energy_3> 
6.261 
 
>  <excitation_energy_4> 
6.344 
 
>  <homo_energy> 
-6.534 
 
>  <homo_lumo_gap> 
7.799 
 
>  <logP> 
0.532 
 
>  <lumo_energy> 
1.265 
 
>  <melting_point> 
37.72 
 
>  <molecular_refractivity> 
41.09 
 
>  <oscillator_strength_1> 
0.0148 
 
>  <oscillator_strength_2> 
0.0059 
 
>  <oscillator_strength_3> 
0.011 
 
>  <oscillator_strength_4> 
0.011 
 
>  <open_babel_can_smiles> 
C[C@@H](CC#CC(O)(C)C)O 
 
>  <mulliken_charges> 
24 
1   -0.454451 
2   -0.447739 
3   -0.448433 
4   0.067848 
5   -0.428973 
6   0.068978 
7   0.139186 
8   0.162635 
9   -0.60991 
10   -0.628565 
11   0.14571 
12   0.132136 
13   0.163937 
14   0.15215 
15   0.165134 
16   0.130149 
17   0.157546 
18   0.12875 
19   0.166986 
20   0.169591 
21   0.149223 
22   0.151456 
23   0.381167 
24   0.385489 
 
>  <lowdin_charges> 
24 
1   -0.46177 
2   -0.447724 
3   -0.448004 
4   -0.071111 
5   -0.278975 
6   -0.074292 
7   0.005283 
8   0.140231 
9   -0.456682 
10   -0.455842 
11   0.154782 
12   0.144765 
13   0.160846 
14   0.15702 
15   0.163043 
16   0.14392 
17   0.160352 
18   0.143143 
19   0.164388 
20   0.17083 
21   0.15669 
22   0.151599 
23   0.338772 
24   0.338738 
 
$$$$ 
 
