PCCDB-ID:  44929 
public computational chemistry database (PCCDB) project, http://pccdb.org 
 
 18 18  0  0  1  0  0  0  0  0999 V2000 
    0.9489   -0.3965    0.1071 C   0  0  0  0  0  0  0  0  0  0  0  0 
    2.8813   -0.1067    1.8618 C   0  0  0  0  0  0  0  0  0  0  0  0 
    2.4188   -0.4254    0.4678 C   0  0  2  0  0  0  0  0  0  0  0  0 
    3.1770    0.8723    0.7431 C   0  0  2  0  0  0  0  0  0  0  0  0 
    4.5501    1.1004    0.2057 C   0  0  0  0  0  0  0  0  0  0  0  0 
    3.7291    2.3496   -1.5095 N   0  0  0  0  0  0  0  0  0  0  0  0 
    4.8314    1.7923   -0.8287 N   0  0  0  0  0  0  0  0  0  0  0  0 
    5.6081    0.4977    0.8388 O   0  0  0  0  0  0  0  0  0  0  0  0 
    0.4550   -1.3326    0.3951 H   0  0  0  0  0  0  0  0  0  0  0  0 
    0.8021   -0.2604   -0.9714 H   0  0  0  0  0  0  0  0  0  0  0  0 
    0.4326    0.4235    0.6199 H   0  0  0  0  0  0  0  0  0  0  0  0 
    3.6901   -0.7080    2.2707 H   0  0  0  0  0  0  0  0  0  0  0  0 
    2.1397    0.1923    2.5981 H   0  0  0  0  0  0  0  0  0  0  0  0 
    3.0016   -1.1913   -0.0417 H   0  0  0  0  0  0  0  0  0  0  0  0 
    2.5642    1.7723    0.7146 H   0  0  0  0  0  0  0  0  0  0  0  0 
    4.0815    2.6529   -2.4127 H   0  0  0  0  0  0  0  0  0  0  0  0 
    3.0011    1.6533   -1.6833 H   0  0  0  0  0  0  0  0  0  0  0  0 
    5.3827    0.4158    1.7783 H   0  0  0  0  0  0  0  0  0  0  0  0 
  1  9  1  0  0  0  0 
  1  3  1  0  0  0  0 
  1 11  1  0  0  0  0 
  2 12  1  0  0  0  0 
  2 13  1  0  0  0  0 
  3 14  1  6  0  0  0 
  3  4  1  0  0  0  0 
  3  2  1  0  0  0  0 
  4 15  1  1  0  0  0 
  4  2  1  0  0  0  0 
  5  4  1  0  0  0  0 
  5  8  1  0  0  0  0 
  6  7  1  0  0  0  0 
  7  5  2  0  0  0  0 
  8 18  1  0  0  0  0 
 10  1  1  0  0  0  0 
 16  6  1  0  0  0  0 
 17  6  1  0  0  0  0 
M  END 
>  <HBA> 
3 
 
>  <HBD> 
2 
 
>  <TPSA> 
55.12 
 
>  <cid> 
44929 
 
>  <dipole> 
3.61 
 
>  <excitation_energy_1> 
4.973 
 
>  <excitation_energy_2> 
5.006 
 
>  <excitation_energy_3> 
5.609 
 
>  <excitation_energy_4> 
5.669 
 
>  <homo_energy> 
-5.464 
 
>  <homo_lumo_gap> 
6.191 
 
>  <logP> 
0.724 
 
>  <lumo_energy> 
0.727 
 
>  <melting_point> 
99.5 
 
>  <molecular_refractivity> 
29.74 
 
>  <oscillator_strength_1> 
0.0161 
 
>  <oscillator_strength_2> 
0.0032 
 
>  <oscillator_strength_3> 
0.0283 
 
>  <oscillator_strength_4> 
0.0266 
 
>  <open_babel_can_smiles> 
C[C@@H]1C[C@H]1/C(=N\N)/O 
 
>  <mulliken_charges> 
18 
1   -0.45261 
2   -0.344639 
3   -0.082001 
4   -0.221853 
5   0.483885 
6   -0.583404 
7   -0.328075 
8   -0.599678 
9   0.155843 
10   0.149984 
11   0.148545 
12   0.148795 
13   0.160095 
14   0.157832 
15   0.177681 
16   0.324551 
17   0.301449 
18   0.403601 
 
>  <lowdin_charges> 
18 
1   -0.434776 
2   -0.321075 
3   -0.138909 
4   -0.194329 
5   0.085816 
6   -0.458055 
7   -0.151538 
8   -0.377546 
9   0.156527 
10   0.150652 
11   0.154042 
12   0.15844 
13   0.165538 
14   0.161921 
15   0.173986 
16   0.267149 
17   0.250165 
18   0.351991 
 
$$$$ 
 
