PCCDB-ID:  18828 
public computational chemistry database (PCCDB) project, http://pccdb.org 
 
 16 16  0  0  0  0  0  0  0  0999 V2000 
    0.9818   -0.0310   -0.0187 C   0  0  0  0  0  0  0  0  0  0  0  0 
    2.4803   -0.0384   -0.1091 C   0  0  0  0  0  0  0  0  0  0  0  0 
    4.7222    0.6649   -1.1730 C   0  0  0  0  0  0  0  0  0  0  0  0 
    4.9300    1.6008   -2.3741 C   0  0  0  0  0  0  0  0  0  0  0  0 
    3.2116    0.6191   -1.0072 C   0  0  0  0  0  0  0  0  0  0  0  0 
    3.5265    2.0056   -2.8086 C   0  0  0  0  0  0  0  0  0  0  0  0 
    3.1996    2.7257   -3.7116 O   0  0  0  0  0  0  0  0  0  0  0  0 
    2.6057    1.4075   -1.9845 O   0  0  0  0  0  0  0  0  0  0  0  0 
    0.6475    0.3448    0.9575 H   0  0  0  0  0  0  0  0  0  0  0  0 
    0.5754   -1.0457   -0.1236 H   0  0  0  0  0  0  0  0  0  0  0  0 
    0.5382    0.5963   -0.7955 H   0  0  0  0  0  0  0  0  0  0  0  0 
    3.0289   -0.6313    0.6204 H   0  0  0  0  0  0  0  0  0  0  0  0 
    5.2041    1.0438   -0.2661 H   0  0  0  0  0  0  0  0  0  0  0  0 
    5.1251   -0.3363   -1.3570 H   0  0  0  0  0  0  0  0  0  0  0  0 
    5.4339    1.1265   -3.2216 H   0  0  0  0  0  0  0  0  0  0  0  0 
    5.4939    2.5074   -2.1345 H   0  0  0  0  0  0  0  0  0  0  0  0 
  1  9  1  0  0  0  0 
  2  1  1  0  0  0  0 
  2 12  1  0  0  0  0 
  3  5  1  0  0  0  0 
  3 13  1  0  0  0  0 
  4 16  1  0  0  0  0 
  4  3  1  0  0  0  0 
  5  2  2  0  0  0  0 
  6  4  1  0  0  0  0 
  6  8  1  0  0  0  0 
  7  6  2  0  0  0  0 
  8  5  1  0  0  0  0 
 10  1  1  0  0  0  0 
 11  1  1  0  0  0  0 
 14  3  1  0  0  0  0 
 15  4  1  0  0  0  0 
M  END 
>  <HBA> 
2 
 
>  <HBD> 
0 
 
>  <TPSA> 
26.3 
 
>  <cid> 
18828 
 
>  <dipole> 
3.93 
 
>  <excitation_energy_1> 
5.518 
 
>  <excitation_energy_2> 
5.573 
 
>  <excitation_energy_3> 
5.687 
 
>  <excitation_energy_4> 
6.189 
 
>  <homo_energy> 
-6.291 
 
>  <homo_lumo_gap> 
6.335 
 
>  <logP> 
1.227 
 
>  <lumo_energy> 
0.044 
 
>  <melting_point> 
21.67 
 
>  <molecular_refractivity> 
29.65 
 
>  <oscillator_strength_1> 
0.1046 
 
>  <oscillator_strength_2> 
0.0036 
 
>  <oscillator_strength_3> 
0.0006 
 
>  <oscillator_strength_4> 
0.0006 
 
>  <open_babel_can_smiles> 
C/C=C\1/CCC(=O)O1 
 
>  <mulliken_charges> 
16 
1   -0.488372 
2   -0.204674 
3   -0.349062 
4   -0.395109 
5   0.377043 
6   0.61039 
7   -0.444713 
8   -0.468514 
9   0.156387 
10   0.156491 
11   0.179165 
12   0.128329 
13   0.177545 
14   0.177779 
15   0.193599 
16   0.193714 
 
>  <lowdin_charges> 
16 
1   -0.436805 
2   -0.210453 
3   -0.289115 
4   -0.313312 
5   0.075195 
6   0.196354 
7   -0.223251 
8   -0.143336 
9   0.157726 
10   0.157322 
11   0.169785 
12   0.160794 
13   0.168784 
14   0.167769 
15   0.181538 
16   0.181005 
 
$$$$ 
 
