PCCDB-ID:  28430 
public computational chemistry database (PCCDB) project, http://pccdb.org 
 
 18 18  0  0  1  0  0  0  0  0999 V2000 
    2.0849    1.1713   -0.9915 C   0  0  0  0  0  0  0  0  0  0  0  0 
    3.0505    1.3511    4.3505 C   0  0  0  0  0  0  0  0  0  0  0  0 
    3.1216    0.3123   -0.2567 C   0  0  0  0  0  0  0  0  0  0  0  0 
    3.5158    2.1946    3.1824 C   0  0  0  0  0  0  0  0  0  0  0  0 
    3.0692    0.5058    1.2414 C   0  0  2  0  0  0  0  0  0  0  0  0 
    3.9504    1.4811    1.9294 C   0  0  2  0  0  0  0  0  0  0  0  0 
    3.5645    3.4108    3.2165 O   0  0  0  0  0  0  0  0  0  0  0  0 
    4.1918    0.0662    2.0058 O   0  0  0  0  0  0  0  0  0  0  0  0 
    2.1306    0.9962   -2.0712 H   0  0  0  0  0  0  0  0  0  0  0  0 
    2.2572    2.2391   -0.8153 H   0  0  0  0  0  0  0  0  0  0  0  0 
    1.0658    0.9384   -0.6606 H   0  0  0  0  0  0  0  0  0  0  0  0 
    3.8784    0.7278    4.7080 H   0  0  0  0  0  0  0  0  0  0  0  0 
    2.2495    0.6628    4.0574 H   0  0  0  0  0  0  0  0  0  0  0  0 
    2.7028    2.0055    5.1518 H   0  0  0  0  0  0  0  0  0  0  0  0 
    4.1346    0.5439   -0.6064 H   0  0  0  0  0  0  0  0  0  0  0  0 
    2.9507   -0.7507   -0.4743 H   0  0  0  0  0  0  0  0  0  0  0  0 
    2.1051    0.2843    1.7073 H   0  0  0  0  0  0  0  0  0  0  0  0 
    4.6541    2.0487    1.3196 H   0  0  0  0  0  0  0  0  0  0  0  0 
  1 10  1  0  0  0  0 
  1 11  1  0  0  0  0 
  1  3  1  0  0  0  0 
  2 12  1  0  0  0  0 
  2 14  1  0  0  0  0 
  3  5  1  0  0  0  0 
  4  7  2  0  0  0  0 
  4  2  1  0  0  0  0 
  5 17  1  1  0  0  0 
  5  6  1  0  0  0  0 
  5  8  1  0  0  0  0 
  6 18  1  6  0  0  0 
  6  8  1  0  0  0  0 
  6  4  1  0  0  0  0 
  9  1  1  0  0  0  0 
 13  2  1  0  0  0  0 
 15  3  1  0  0  0  0 
 16  3  1  0  0  0  0 
M  END 
>  <HBA> 
2 
 
>  <HBD> 
0 
 
>  <TPSA> 
29.6 
 
>  <cid> 
28430 
 
>  <dipole> 
2.46 
 
>  <excitation_energy_1> 
4.253 
 
>  <excitation_energy_2> 
5.95 
 
>  <excitation_energy_3> 
6.412 
 
>  <excitation_energy_4> 
6.679 
 
>  <homo_energy> 
-6.754 
 
>  <homo_lumo_gap> 
6.041 
 
>  <logP> 
0.753 
 
>  <lumo_energy> 
-0.713 
 
>  <melting_point> 
8.46 
 
>  <molecular_refractivity> 
30.13 
 
>  <oscillator_strength_1> 
0.0001 
 
>  <oscillator_strength_2> 
0.0081 
 
>  <oscillator_strength_3> 
0.0355 
 
>  <oscillator_strength_4> 
0.0542 
 
>  <open_babel_can_smiles> 
CC[C@H]1O[C@@H]1C(=O)C 
 
>  <mulliken_charges> 
18 
1   -0.453362 
2   -0.529592 
3   -0.281362 
4   0.440763 
5   0.104109 
6   0.00385 
7   -0.444527 
8   -0.454845 
9   0.155895 
10   0.158932 
11   0.149264 
12   0.189561 
13   0.169848 
14   0.178336 
15   0.153485 
16   0.154465 
17   0.142736 
18   0.162441 
 
>  <lowdin_charges> 
18 
1   -0.440108 
2   -0.473643 
3   -0.273191 
4   0.152684 
5   -0.013067 
6   -0.05899 
7   -0.23125 
8   -0.272553 
9   0.15596 
10   0.153528 
11   0.149799 
12   0.183159 
13   0.171255 
14   0.173877 
15   0.154668 
16   0.153452 
17   0.146565 
18   0.167855 
 
$$$$ 
 
