PCCDB-ID:  33529 
public computational chemistry database (PCCDB) project, http://pccdb.org 
 
 27 27  0  0  0  0  0  0  0  0999 V2000 
    0.9729    0.0459    0.0003 C   0  0  0  0  0  0  0  0  0  0  0  0 
    2.9185    0.1225   -1.5775 C   0  0  0  0  0  0  0  0  0  0  0  0 
    4.5435    1.4280    0.7843 C   0  0  0  0  0  0  0  0  0  0  0  0 
    5.1003    0.1525    1.4547 C   0  0  0  0  0  0  0  0  0  0  0  0 
    5.3891   -2.0729    0.2444 C   0  0  0  0  0  0  0  0  0  0  0  0 
    3.0164    1.3727    0.6399 C   0  0  0  0  0  0  0  0  0  0  0  0 
    6.8522   -2.1478    0.3015 C   0  0  0  0  0  0  0  0  0  0  0  0 
    3.1067   -1.1466    0.6123 C   0  0  0  0  0  0  0  0  0  0  0  0 
    4.6101   -1.0886    0.7449 C   0  0  0  0  0  0  0  0  0  0  0  0 
    2.5070    0.1067   -0.0924 C   0  0  0  0  0  0  0  0  0  0  0  0 
    7.4921   -3.0699   -0.1786 O   0  0  0  0  0  0  0  0  0  0  0  0 
    0.5168    0.9160   -0.4875 H   0  0  0  0  0  0  0  0  0  0  0  0 
    0.6369    0.0329    1.0444 H   0  0  0  0  0  0  0  0  0  0  0  0 
    0.5818   -0.8539   -0.4903 H   0  0  0  0  0  0  0  0  0  0  0  0 
    2.5246    1.0143   -2.0799 H   0  0  0  0  0  0  0  0  0  0  0  0 
    2.5188   -0.7562   -2.0983 H   0  0  0  0  0  0  0  0  0  0  0  0 
    4.0048    0.1120   -1.7102 H   0  0  0  0  0  0  0  0  0  0  0  0 
    5.0145    1.5526   -0.1985 H   0  0  0  0  0  0  0  0  0  0  0  0 
    4.8312    2.3027    1.3800 H   0  0  0  0  0  0  0  0  0  0  0  0 
    4.7309    0.1173    2.4917 H   0  0  0  0  0  0  0  0  0  0  0  0 
    6.1903    0.2005    1.5106 H   0  0  0  0  0  0  0  0  0  0  0  0 
    4.9247   -2.9204   -0.2578 H   0  0  0  0  0  0  0  0  0  0  0  0 
    2.6566    2.2679    0.1153 H   0  0  0  0  0  0  0  0  0  0  0  0 
    2.5661    1.3993    1.6434 H   0  0  0  0  0  0  0  0  0  0  0  0 
    7.3804   -1.3151    0.8111 H   0  0  0  0  0  0  0  0  0  0  0  0 
    2.6733   -1.2050    1.6236 H   0  0  0  0  0  0  0  0  0  0  0  0 
    2.8020   -2.0563    0.0816 H   0  0  0  0  0  0  0  0  0  0  0  0 
  1 13  1  0  0  0  0 
  2 10  1  0  0  0  0 
  3 19  1  0  0  0  0 
  3  4  1  0  0  0  0 
  4 21  1  0  0  0  0 
  4 20  1  0  0  0  0 
  5  7  1  0  0  0  0 
  5  9  2  0  0  0  0 
  6  3  1  0  0  0  0 
  6 24  1  0  0  0  0 
  7 25  1  0  0  0  0 
  8  9  1  0  0  0  0 
  8 26  1  0  0  0  0 
  9  4  1  0  0  0  0 
 10  1  1  0  0  0  0 
 10  8  1  0  0  0  0 
 10  6  1  0  0  0  0 
 11  7  2  0  0  0  0 
 12  1  1  0  0  0  0 
 14  1  1  0  0  0  0 
 15  2  1  0  0  0  0 
 16  2  1  0  0  0  0 
 17  2  1  0  0  0  0 
 18  3  1  0  0  0  0 
 22  5  1  0  0  0  0 
 23  6  1  0  0  0  0 
 27  8  1  0  0  0  0 
M  END 
>  <HBA> 
1 
 
>  <HBD> 
0 
 
>  <TPSA> 
17.07 
 
>  <cid> 
33529 
 
>  <dipole> 
4.49 
 
>  <excitation_energy_1> 
3.598 
 
>  <excitation_energy_2> 
5.399 
 
>  <excitation_energy_3> 
6.014 
 
>  <excitation_energy_4> 
6.13 
 
>  <homo_energy> 
-6.525 
 
>  <homo_lumo_gap> 
5.14 
 
>  <logP> 
2.712 
 
>  <lumo_energy> 
-1.385 
 
>  <melting_point> 
56.98 
 
>  <molecular_refractivity> 
47.54 
 
>  <oscillator_strength_1> 
0.0004 
 
>  <oscillator_strength_2> 
0.5228 
 
>  <oscillator_strength_3> 
0.001 
 
>  <oscillator_strength_4> 
0.0384 
 
>  <open_babel_can_smiles> 
O=C/C=C/1\CCCC(C1)(C)C 
 
>  <mulliken_charges> 
27 
1   -0.446291 
2   -0.453151 
3   -0.270899 
4   -0.339836 
5   -0.253025 
6   -0.260597 
7   0.23336 
8   -0.334886 
9   0.207687 
10   0.092438 
11   -0.42292 
12   0.143482 
13   0.139186 
14   0.14274 
15   0.141948 
16   0.143531 
17   0.152207 
18   0.147055 
19   0.141967 
20   0.151814 
21   0.152644 
22   0.14033 
23   0.134785 
24   0.127359 
25   0.098129 
26   0.144897 
27   0.146046 
 
>  <lowdin_charges> 
27 
1   -0.441381 
2   -0.446401 
3   -0.276094 
4   -0.27785 
5   -0.228626 
6   -0.278524 
7   0.0366 
8   -0.274685 
9   0.041101 
10   0.01242 
11   -0.24035 
12   0.151039 
13   0.145808 
14   0.150004 
15   0.150031 
16   0.151344 
17   0.150665 
18   0.146246 
19   0.150887 
20   0.153967 
21   0.152192 
22   0.165191 
23   0.147091 
24   0.138925 
25   0.115486 
26   0.152435 
27   0.15248 
 
$$$$ 
 
