PCCDB-ID:  12112 
public computational chemistry database (PCCDB) project, http://pccdb.org 
 
 24 25  0  0  0  0  0  0  0  0999 V2000 
   -2.2175   -1.4230   -0.7463 C   0  0  0  0  0  0  0  0  0  0  0  0 
   -1.6362   -0.3972   -0.0021 C   0  0  0  0  0  0  0  0  0  0  0  0 
   -1.4077   -2.4240   -1.2899 C   0  0  0  0  0  0  0  0  0  0  0  0 
    2.7297   -4.1035    2.4098 C   0  0  0  0  0  0  0  0  0  0  0  0 
   -0.2532   -0.3732    0.1964 C   0  0  0  0  0  0  0  0  0  0  0  0 
   -0.0290   -2.3971   -1.0883 C   0  0  0  0  0  0  0  0  0  0  0  0 
    2.1538   -2.9914    1.8027 C   0  0  0  0  0  0  0  0  0  0  0  0 
    3.7785   -4.7538    1.7552 C   0  0  0  0  0  0  0  0  0  0  0  0 
    2.0741   -1.3353   -0.1388 C   0  0  0  0  0  0  0  0  0  0  0  0 
    3.6933   -3.2897    0.0049 C   0  0  0  0  0  0  0  0  0  0  0  0 
    0.5680   -1.3693   -0.3434 C   0  0  0  0  0  0  0  0  0  0  0  0 
    2.6409   -2.5557    0.5643 C   0  0  0  0  0  0  0  0  0  0  0  0 
    4.2595   -4.3628    0.5705 N   0  0  0  0  0  0  0  0  0  0  0  0 
   -3.2927   -1.4447   -0.9025 H   0  0  0  0  0  0  0  0  0  0  0  0 
   -2.2561    0.3862    0.4261 H   0  0  0  0  0  0  0  0  0  0  0  0 
   -1.8519   -3.2277   -1.8714 H   0  0  0  0  0  0  0  0  0  0  0  0 
    2.3738   -4.4648    3.3704 H   0  0  0  0  0  0  0  0  0  0  0  0 
    0.1939    0.4331    0.7741 H   0  0  0  0  0  0  0  0  0  0  0  0 
    0.5938   -3.1830   -1.5096 H   0  0  0  0  0  0  0  0  0  0  0  0 
    1.3282   -2.4668    2.2778 H   0  0  0  0  0  0  0  0  0  0  0  0 
    4.2504   -5.6283    2.2006 H   0  0  0  0  0  0  0  0  0  0  0  0 
    2.3326   -0.4349    0.4340 H   0  0  0  0  0  0  0  0  0  0  0  0 
    2.5757   -1.2286   -1.1098 H   0  0  0  0  0  0  0  0  0  0  0  0 
    4.1032   -2.9913   -0.9607 H   0  0  0  0  0  0  0  0  0  0  0  0 
  1  2  2  0  0  0  0 
  2  5  1  0  0  0  0 
  2 15  1  0  0  0  0 
  3  6  2  0  0  0  0 
  3  1  1  0  0  0  0 
  4 17  1  0  0  0  0 
  5 18  1  0  0  0  0 
  6 11  1  0  0  0  0 
  7 20  1  0  0  0  0 
  7  4  2  0  0  0  0 
  8 21  1  0  0  0  0 
  8  4  1  0  0  0  0 
  9 22  1  0  0  0  0 
  9 12  1  0  0  0  0 
 10 12  2  0  0  0  0 
 10 13  1  0  0  0  0 
 11  9  1  0  0  0  0 
 11  5  2  0  0  0  0 
 12  7  1  0  0  0  0 
 13  8  2  0  0  0  0 
 14  1  1  0  0  0  0 
 16  3  1  0  0  0  0 
 19  6  1  0  0  0  0 
 23  9  1  0  0  0  0 
 24 10  1  0  0  0  0 
M  END 
>  <HBA> 
1 
 
>  <HBD> 
0 
 
>  <TPSA> 
12.89 
 
>  <cid> 
12112 
 
>  <dipole> 
2.33 
 
>  <excitation_energy_1> 
4.781 
 
>  <excitation_energy_2> 
5.129 
 
>  <excitation_energy_3> 
5.153 
 
>  <excitation_energy_4> 
5.265 
 
>  <homo_energy> 
-6.547 
 
>  <homo_lumo_gap> 
5.938 
 
>  <logP> 
2.672 
 
>  <lumo_energy> 
-0.61 
 
>  <melting_point> 
53.05 
 
>  <molecular_refractivity> 
53.69 
 
>  <oscillator_strength_1> 
0.0044 
 
>  <oscillator_strength_2> 
0.0057 
 
>  <oscillator_strength_3> 
0.0116 
 
>  <oscillator_strength_4> 
0.0069 
 
>  <open_babel_can_smiles> 
c1ccc(cc1)Cc1cccnc1 
 
>  <mulliken_charges> 
24 
1   -0.130983 
2   -0.125625 
3   -0.128481 
4   -0.139826 
5   -0.197046 
6   -0.174421 
7   -0.141944 
8   0.03766 
9   -0.444464 
10   -0.025069 
11   0.180512 
12   0.168336 
13   -0.407901 
14   0.130105 
15   0.130028 
16   0.13176 
17   0.137084 
18   0.123695 
19   0.132479 
20   0.145672 
21   0.140211 
22   0.160931 
23   0.162851 
24   0.134436 
 
>  <lowdin_charges> 
24 
1   -0.157278 
2   -0.156218 
3   -0.153324 
4   -0.172845 
5   -0.172939 
6   -0.162232 
7   -0.133486 
8   -0.093953 
9   -0.270889 
10   -0.106673 
11   -0.003973 
12   -0.01996 
13   -0.146517 
14   0.156166 
15   0.159094 
16   0.159524 
17   0.163548 
18   0.155083 
19   0.160445 
20   0.165747 
21   0.156498 
22   0.160818 
23   0.161264 
24   0.152101 
 
$$$$ 
 
