PCCDB-ID:  19309 
public computational chemistry database (PCCDB) project, http://pccdb.org 
 
 17 17  0  0  1  0  0  0  0  0999 V2000 
    1.0869   -0.0148    0.2907 C   0  0  0  0  0  0  0  0  0  0  0  0 
    3.6227   -1.5833   -3.2874 C   0  0  0  0  0  0  0  0  0  0  0  0 
    2.5402   -0.0296   -0.1541 C   0  0  2  0  0  0  0  0  0  0  0  0 
    3.3021   -0.5919   -2.2237 C   0  0  0  0  0  0  0  0  0  0  0  0 
    2.9620    1.2411   -0.9061 C   0  0  0  0  0  0  0  0  0  0  0  0 
    3.4438    0.7592   -2.1961 C   0  0  0  0  0  0  0  0  0  0  0  0 
    2.8818    2.3787   -0.4743 O   0  0  0  0  0  0  0  0  0  0  0  0 
    3.9097    1.6210   -3.1437 O   0  0  0  0  0  0  0  0  0  0  0  0 
    2.7793   -1.1224   -1.0771 O   0  0  0  0  0  0  0  0  0  0  0  0 
    0.9236    0.8580    0.9307 H   0  0  0  0  0  0  0  0  0  0  0  0 
    0.8369   -0.9221    0.8486 H   0  0  0  0  0  0  0  0  0  0  0  0 
    0.4223    0.0614   -0.5758 H   0  0  0  0  0  0  0  0  0  0  0  0 
    3.9903   -1.0984   -4.1976 H   0  0  0  0  0  0  0  0  0  0  0  0 
    2.7323   -2.1685   -3.5457 H   0  0  0  0  0  0  0  0  0  0  0  0 
    4.3889   -2.2870   -2.9404 H   0  0  0  0  0  0  0  0  0  0  0  0 
    3.2106   -0.1840    0.6999 H   0  0  0  0  0  0  0  0  0  0  0  0 
    4.1734    1.1222   -3.9325 H   0  0  0  0  0  0  0  0  0  0  0  0 
  1 11  1  0  0  0  0 
  1 10  1  0  0  0  0 
  2 15  1  0  0  0  0 
  2  4  1  0  0  0  0 
  3  1  1  0  0  0  0 
  3 16  1  1  0  0  0 
  4  6  2  0  0  0  0 
  4  9  1  0  0  0  0 
  5  7  2  0  0  0  0 
  5  3  1  0  0  0  0 
  6  5  1  0  0  0  0 
  8  6  1  0  0  0  0 
  9  3  1  0  0  0  0 
 12  1  1  0  0  0  0 
 13  2  1  0  0  0  0 
 14  2  1  0  0  0  0 
 17  8  1  0  0  0  0 
M  END 
>  <HBA> 
3 
 
>  <HBD> 
1 
 
>  <TPSA> 
46.53 
 
>  <cid> 
19309 
 
>  <dipole> 
4.48 
 
>  <excitation_energy_1> 
3.982 
 
>  <excitation_energy_2> 
4.529 
 
>  <excitation_energy_3> 
4.7 
 
>  <excitation_energy_4> 
5.63 
 
>  <homo_energy> 
-5.807 
 
>  <homo_lumo_gap> 
4.83 
 
>  <logP> 
0.764 
 
>  <lumo_energy> 
-0.977 
 
>  <melting_point> 
36.38 
 
>  <molecular_refractivity> 
31.22 
 
>  <oscillator_strength_1> 
0.0005 
 
>  <oscillator_strength_2> 
0.171 
 
>  <oscillator_strength_3> 
0.0087 
 
>  <oscillator_strength_4> 
0.0016 
 
>  <open_babel_can_smiles> 
C[C@H]1OC(=C(C1=O)O)C 
 
>  <mulliken_charges> 
17 
1   -0.447503 
2   -0.528959 
3   0.048079 
4   0.349326 
5   0.397725 
6   0.192051 
7   -0.486435 
8   -0.632812 
9   -0.505503 
10   0.178353 
11   0.16092 
12   0.160631 
13   0.149106 
14   0.190153 
15   0.19042 
16   0.178255 
17   0.406191 
 
>  <lowdin_charges> 
17 
1   -0.440179 
2   -0.445023 
3   -0.016349 
4   0.076802 
5   0.116463 
6   -0.014208 
7   -0.250577 
8   -0.36598 
9   -0.201968 
10   0.173519 
11   0.161244 
12   0.161355 
13   0.158131 
14   0.179505 
15   0.179665 
16   0.169049 
17   0.35855 
 
$$$$ 
 
