PCCDB-ID:  37168 
public computational chemistry database (PCCDB) project, http://pccdb.org 
 
 30 29  0  0  1  0  0  0  0  0999 V2000 
    1.0738   -0.3083   -0.6766 C   0  0  0  0  0  0  0  0  0  0  0  0 
    3.0943    0.9191    0.2384 C   0  0  0  0  0  0  0  0  0  0  0  0 
    4.7948   -4.6849    4.4507 C   0  0  0  0  0  0  0  0  0  0  0  0 
    4.3560   -3.3159    6.5455 C   0  0  0  0  0  0  0  0  0  0  0  0 
    2.5589   -0.3998   -0.3198 C   0  0  0  0  0  0  0  0  0  0  0  0 
    3.9615   -3.5652    5.0872 C   0  0  0  0  0  0  0  0  0  0  0  0 
    4.4298   -2.1937    1.9886 C   0  0  3  0  0  0  0  0  0  0  0  0 
    2.7291   -1.4694    0.6827 N   0  0  0  0  0  0  0  0  0  0  0  0 
    4.0238   -2.2609    4.3921 N   0  0  0  0  0  0  0  0  0  0  0  0 
    4.1295   -1.8179    0.7916 N   0  0  0  0  0  0  0  0  0  0  0  0 
    3.5694   -2.3294    3.0463 N   0  0  0  0  0  0  0  0  0  0  0  0 
    5.7176   -2.5127    2.2656 O   0  0  0  0  0  0  0  0  0  0  0  0 
    0.9022    0.4898   -1.4064 H   0  0  0  0  0  0  0  0  0  0  0  0 
    0.4742   -0.0939    0.2157 H   0  0  0  0  0  0  0  0  0  0  0  0 
    0.7071   -1.2450   -1.1161 H   0  0  0  0  0  0  0  0  0  0  0  0 
    3.0184    1.7155   -0.5108 H   0  0  0  0  0  0  0  0  0  0  0  0 
    4.1453    0.8140    0.5229 H   0  0  0  0  0  0  0  0  0  0  0  0 
    2.5243    1.2201    1.1258 H   0  0  0  0  0  0  0  0  0  0  0  0 
    4.6297   -5.6324    4.9779 H   0  0  0  0  0  0  0  0  0  0  0  0 
    5.8659   -4.4533    4.4941 H   0  0  0  0  0  0  0  0  0  0  0  0 
    4.5218   -4.8282    3.4014 H   0  0  0  0  0  0  0  0  0  0  0  0 
    4.2467   -4.2314    7.1363 H   0  0  0  0  0  0  0  0  0  0  0  0 
    3.7330   -2.5333    6.9894 H   0  0  0  0  0  0  0  0  0  0  0  0 
    5.4053   -2.9998    6.6195 H   0  0  0  0  0  0  0  0  0  0  0  0 
    3.1330   -0.6494   -1.2282 H   0  0  0  0  0  0  0  0  0  0  0  0 
    2.9043   -3.8593    5.0569 H   0  0  0  0  0  0  0  0  0  0  0  0 
    2.2616   -2.3030    0.3177 H   0  0  0  0  0  0  0  0  0  0  0  0 
    4.9862   -1.9231    4.3864 H   0  0  0  0  0  0  0  0  0  0  0  0 
    2.7266   -1.7844    2.8713 H   0  0  0  0  0  0  0  0  0  0  0  0 
    6.1945   -2.3579    1.4296 H   0  0  0  0  0  0  0  0  0  0  0  0 
  1  5  1  0  0  0  0 
  1 14  1  0  0  0  0 
  2 17  1  0  0  0  0 
  2 18  1  0  0  0  0 
  3 20  1  0  0  0  0 
  3 19  1  0  0  0  0 
  3  6  1  0  0  0  0 
  4 24  1  0  0  0  0 
  4 23  1  0  0  0  0 
  4 22  1  0  0  0  0 
  5  2  1  0  0  0  0 
  5  8  1  0  0  0  0 
  6  4  1  0  0  0  0 
  7 12  1  0  0  0  0 
  7 11  1  0  0  0  0 
  8 10  1  0  0  0  0 
  9  6  1  0  0  0  0 
 10  7  1  0  0  0  0 
 11  9  1  0  0  0  0 
 13  1  1  0  0  0  0 
 15  1  1  0  0  0  0 
 16  2  1  0  0  0  0 
 21  3  1  0  0  0  0 
 25  5  1  0  0  0  0 
 26  6  1  0  0  0  0 
 27  8  1  0  0  0  0 
 28  9  1  0  0  0  0 
 29 11  1  0  0  0  0 
 30 12  1  0  0  0  0 
M  RAD  2   7   2  10   2 
M  END 
>  <HBA> 
5 
 
>  <HBD> 
4 
 
>  <TPSA> 
65.19 
 
>  <cid> 
37168 
 
>  <dipole> 
0.49 
 
>  <excitation_energy_1> 
5.044 
 
>  <excitation_energy_2> 
5.28 
 
>  <excitation_energy_3> 
5.464 
 
>  <excitation_energy_4> 
5.666 
 
>  <homo_energy> 
-5.461 
 
>  <homo_lumo_gap> 
6.928 
 
>  <logP> 
1.675 
 
>  <lumo_energy> 
1.467 
 
>  <melting_point> 
113.21 
 
>  <molecular_refractivity> 
47.56 
 
>  <oscillator_strength_1> 
0.0146 
 
>  <oscillator_strength_2> 
0.0054 
 
>  <oscillator_strength_3> 
0.0043 
 
>  <oscillator_strength_4> 
0.0038 
 
>  <open_babel_can_smiles> 
O[C]([N]NC(C)C)NNC(C)C 
 
>  <mulliken_charges> 
30 
1   -0.462286 
2   -0.43503 
3   -0.442101 
4   -0.451354 
5   0.082132 
6   0.06065 
7   0.713927 
8   -0.485248 
9   -0.442047 
10   -0.434032 
11   -0.484334 
12   -0.614527 
13   0.148773 
14   0.151417 
15   0.136024 
16   0.134755 
17   0.156783 
18   0.139618 
19   0.135808 
20   0.140238 
21   0.157832 
22   0.147304 
23   0.15858 
24   0.13741 
25   0.119867 
26   0.136404 
27   0.307454 
28   0.315202 
29   0.352176 
30   0.418606 
 
>  <lowdin_charges> 
30 
1   -0.452153 
2   -0.449988 
3   -0.45781 
4   -0.448806 
5   -0.058285 
6   -0.059355 
7   0.138533 
8   -0.29687 
9   -0.286402 
10   -0.268308 
11   -0.236264 
12   -0.371326 
13   0.156082 
14   0.152706 
15   0.145459 
16   0.148145 
17   0.155717 
18   0.147673 
19   0.148398 
20   0.146097 
21   0.156036 
22   0.15469 
23   0.158929 
24   0.144218 
25   0.12677 
26   0.139788 
27   0.253697 
28   0.25659 
29   0.288345 
30   0.367694 
 
$$$$ 
 
