PCCDB-ID:  33411 
public computational chemistry database (PCCDB) project, http://pccdb.org 
 
 40 40  0  0  1  0  0  0  0  0999 V2000 
    2.5852    0.7064    0.9265 C   0  0  0  0  0  0  0  0  0  0  0  0 
    5.8391   -5.0328   -2.1458 C   0  0  0  0  0  0  0  0  0  0  0  0 
    5.8862   -4.8841    0.3829 C   0  0  0  0  0  0  0  0  0  0  0  0 
    9.6353    2.4186   -2.3942 C   0  0  0  0  0  0  0  0  0  0  0  0 
    9.4200    1.5097   -0.0367 C   0  0  0  0  0  0  0  0  0  0  0  0 
    2.1520   -0.1089   -0.2953 C   0  0  0  0  0  0  0  0  0  0  0  0 
    2.9599    0.2087   -1.5690 C   0  0  0  0  0  0  0  0  0  0  0  0 
    5.6066   -4.1307   -0.9248 C   0  0  0  0  0  0  0  0  0  0  0  0 
    8.9581    1.3761   -1.4977 C   0  0  0  0  0  0  0  0  0  0  0  0 
    4.4110   -0.2025   -1.4569 C   0  0  2  0  0  0  0  0  0  0  0  0 
    6.0499   -1.8125   -1.1645 C   0  0  0  0  0  0  0  0  0  0  0  0 
    6.7266    0.5622   -1.4595 C   0  0  0  0  0  0  0  0  0  0  0  0 
    6.5147   -2.9900   -1.0069 N   0  0  0  0  0  0  0  0  0  0  0  0 
    7.5119    1.5600   -1.5901 N   0  0  0  0  0  0  0  0  0  0  0  0 
    4.7065   -1.4501   -1.2727 N   0  0  0  0  0  0  0  0  0  0  0  0 
    5.3442    0.7930   -1.5522 N   0  0  0  0  0  0  0  0  0  0  0  0 
    7.0041   -0.7664   -1.2259 N   0  0  0  0  0  0  0  0  0  0  0  0 
    1.9743    0.4545    1.8001 H   0  0  0  0  0  0  0  0  0  0  0  0 
    2.4795    1.7840    0.7475 H   0  0  0  0  0  0  0  0  0  0  0  0 
    3.6314    0.5109    1.1891 H   0  0  0  0  0  0  0  0  0  0  0  0 
    5.2035   -5.9253   -2.0961 H   0  0  0  0  0  0  0  0  0  0  0  0 
    6.8862   -5.3541   -2.1915 H   0  0  0  0  0  0  0  0  0  0  0  0 
    5.6074   -4.4984   -3.0737 H   0  0  0  0  0  0  0  0  0  0  0  0 
    5.2374   -5.7639    0.4705 H   0  0  0  0  0  0  0  0  0  0  0  0 
    5.7074   -4.2387    1.2500 H   0  0  0  0  0  0  0  0  0  0  0  0 
    6.9302   -5.2165    0.4187 H   0  0  0  0  0  0  0  0  0  0  0  0 
   10.7261    2.3158   -2.3610 H   0  0  0  0  0  0  0  0  0  0  0  0 
    9.3688    3.4290   -2.0645 H   0  0  0  0  0  0  0  0  0  0  0  0 
    9.3076    2.3056   -3.4328 H   0  0  0  0  0  0  0  0  0  0  0  0 
   10.5089    1.4083    0.0407 H   0  0  0  0  0  0  0  0  0  0  0  0 
    8.9595    0.7451    0.5992 H   0  0  0  0  0  0  0  0  0  0  0  0 
    9.1345    2.4913    0.3574 H   0  0  0  0  0  0  0  0  0  0  0  0 
    1.0924    0.0784   -0.5096 H   0  0  0  0  0  0  0  0  0  0  0  0 
    2.2526   -1.1794   -0.0867 H   0  0  0  0  0  0  0  0  0  0  0  0 
    2.8871    1.2783   -1.8045 H   0  0  0  0  0  0  0  0  0  0  0  0 
    2.5297   -0.3401   -2.4146 H   0  0  0  0  0  0  0  0  0  0  0  0 
    4.5581   -3.8043   -0.9274 H   0  0  0  0  0  0  0  0  0  0  0  0 
    9.2646    0.3797   -1.8669 H   0  0  0  0  0  0  0  0  0  0  0  0 
    5.0840    1.7558   -1.7168 H   0  0  0  0  0  0  0  0  0  0  0  0 
    7.9658   -1.0672   -1.1499 H   0  0  0  0  0  0  0  0  0  0  0  0 
  1 20  1  0  0  0  0 
  1 18  1  0  0  0  0 
  2 21  1  0  0  0  0 
  2  8  1  0  0  0  0 
  3 26  1  0  0  0  0 
  3 24  1  0  0  0  0 
  3 25  1  0  0  0  0 
  4 27  1  0  0  0  0 
  4 28  1  0  0  0  0 
  4  9  1  0  0  0  0 
  5 30  1  0  0  0  0 
  5 32  1  0  0  0  0 
  5 31  1  0  0  0  0 
  6 34  1  0  0  0  0 
  6  1  1  0  0  0  0 
  7  6  1  0  0  0  0 
  8  3  1  0  0  0  0 
  9  5  1  0  0  0  0 
 10  7  1  1  0  0  0 
 10 15  1  0  0  0  0 
 11 13  1  0  0  0  0 
 12 17  1  0  0  0  0 
 13  8  1  0  0  0  0 
 14  9  1  0  0  0  0 
 14 12  2  0  0  0  0 
 15 11  2  0  0  0  0 
 16 12  1  0  0  0  0 
 16 10  1  0  0  0  0 
 17 11  1  0  0  0  0 
 17 40  1  0  0  0  0 
 19  1  1  0  0  0  0 
 22  2  1  0  0  0  0 
 23  2  1  0  0  0  0 
 29  4  1  0  0  0  0 
 33  6  1  0  0  0  0 
 35  7  1  0  0  0  0 
 36  7  1  0  0  0  0 
 37  8  1  0  0  0  0 
 38  9  1  0  0  0  0 
 39 16  1  0  0  0  0 
M  RAD  2  10   2  13   2 
M  END 
>  <HBA> 
5 
 
>  <HBD> 
2 
 
>  <TPSA> 
62.73 
 
>  <cid> 
33411 
 
>  <dipole> 
2.81 
 
>  <excitation_energy_1> 
4.646 
 
>  <excitation_energy_2> 
4.778 
 
>  <excitation_energy_3> 
4.84 
 
>  <excitation_energy_4> 
5.387 
 
>  <homo_energy> 
-5.962 
 
>  <homo_lumo_gap> 
5.304 
 
>  <logP> 
2.611 
 
>  <lumo_energy> 
-0.659 
 
>  <melting_point> 
120.8 
 
>  <molecular_refractivity> 
72.25 
 
>  <oscillator_strength_1> 
0.064 
 
>  <oscillator_strength_2> 
0.0296 
 
>  <oscillator_strength_3> 
0.0851 
 
>  <oscillator_strength_4> 
0.0102 
 
>  <open_babel_can_smiles> 
CCC[C]1N/C(=N/C(C)C)/NC(=N1)[N]C(C)C 
 
>  <mulliken_charges> 
40 
1   -0.451904 
2   -0.430073 
3   -0.429298 
4   -0.428382 
5   -0.434852 
6   -0.251338 
7   -0.335917 
8   0.028229 
9   0.014634 
10   0.536096 
11   0.656341 
12   0.752221 
13   -0.505481 
14   -0.504513 
15   -0.523382 
16   -0.686791 
17   -0.718046 
18   0.153575 
19   0.13917 
20   0.156764 
21   0.131417 
22   0.144291 
23   0.14009 
24   0.130555 
25   0.139135 
26   0.143808 
27   0.134113 
28   0.148773 
29   0.146381 
30   0.141344 
31   0.142108 
32   0.153705 
33   0.140453 
34   0.172129 
35   0.136019 
36   0.179016 
37   0.138988 
38   0.104215 
39   0.347606 
40   0.348802 
 
>  <lowdin_charges> 
40 
1   -0.445965 
2   -0.44419 
3   -0.444668 
4   -0.438923 
5   -0.448997 
6   -0.263187 
7   -0.27937 
8   -0.052827 
9   -0.052437 
10   0.120891 
11   0.11649 
12   0.13558 
13   -0.237415 
14   -0.268012 
15   -0.231261 
16   -0.222946 
17   -0.254947 
18   0.156659 
19   0.143268 
20   0.151825 
21   0.145126 
22   0.148017 
23   0.148588 
24   0.144655 
25   0.148566 
26   0.148001 
27   0.144056 
28   0.151908 
29   0.151415 
30   0.148142 
31   0.149411 
32   0.154349 
33   0.145439 
34   0.158919 
35   0.143916 
36   0.17547 
37   0.135999 
38   0.116352 
39   0.302385 
40   0.299716 
 
$$$$ 
 
