PCCDB-ID:  20143 
public computational chemistry database (PCCDB) project, http://pccdb.org 
 
 25 26  0  0  1  0  0  0  0  0999 V2000 
    0.9898    0.1319    0.1392 C   0  0  0  0  0  0  0  0  0  0  0  0 
    3.3181   -1.2449    3.4943 C   0  0  0  0  0  0  0  0  0  0  0  0 
    3.5949    3.5376    1.6011 C   0  0  0  0  0  0  0  0  0  0  0  0 
    4.3532    3.0903    2.6881 C   0  0  0  0  0  0  0  0  0  0  0  0 
    2.9724    2.6201    0.7517 C   0  0  0  0  0  0  0  0  0  0  0  0 
    4.4937    1.7224    2.9334 C   0  0  0  0  0  0  0  0  0  0  0  0 
    3.0885   -1.1701    0.9168 C   0  0  0  0  0  0  0  0  0  0  0  0 
    2.5264    0.1008    0.2026 C   0  0  2  0  0  0  0  0  0  0  0  0 
    3.8957   -0.7093    2.1729 C   0  0  1  0  0  0  0  0  0  0  0  0 
    3.1129    1.2528    0.9975 C   0  0  0  0  0  0  0  0  0  0  0  0 
    3.8705    0.8055    2.0846 C   0  0  0  0  0  0  0  0  0  0  0  0 
    0.6061   -0.7205   -0.4342 H   0  0  0  0  0  0  0  0  0  0  0  0 
    0.6276    1.0483   -0.3412 H   0  0  0  0  0  0  0  0  0  0  0  0 
    0.5562    0.0880    1.1453 H   0  0  0  0  0  0  0  0  0  0  0  0 
    3.3376   -2.3412    3.5121 H   0  0  0  0  0  0  0  0  0  0  0  0 
    2.2788   -0.9209    3.6260 H   0  0  0  0  0  0  0  0  0  0  0  0 
    3.8918   -0.8861    4.3568 H   0  0  0  0  0  0  0  0  0  0  0  0 
    3.4937    4.6036    1.4140 H   0  0  0  0  0  0  0  0  0  0  0  0 
    4.8386    3.8102    3.3421 H   0  0  0  0  0  0  0  0  0  0  0  0 
    2.3878    2.9724   -0.0956 H   0  0  0  0  0  0  0  0  0  0  0  0 
    5.0882    1.3796    3.7777 H   0  0  0  0  0  0  0  0  0  0  0  0 
    3.7280   -1.7423    0.2368 H   0  0  0  0  0  0  0  0  0  0  0  0 
    2.2711   -1.8392    1.2109 H   0  0  0  0  0  0  0  0  0  0  0  0 
    2.9002    0.1409   -0.8304 H   0  0  0  0  0  0  0  0  0  0  0  0 
    4.9334   -1.0643    2.0981 H   0  0  0  0  0  0  0  0  0  0  0  0 
  1  8  1  0  0  0  0 
  1 14  1  0  0  0  0 
  2 15  1  0  0  0  0 
  2 16  1  0  0  0  0 
  2 17  1  0  0  0  0 
  3  4  2  0  0  0  0 
  4  6  1  0  0  0  0 
  4 19  1  0  0  0  0 
  5 10  2  0  0  0  0 
  5  3  1  0  0  0  0 
  6 21  1  0  0  0  0 
  7 23  1  0  0  0  0 
  7  9  1  0  0  0  0 
  8 24  1  6  0  0  0 
  8  7  1  0  0  0  0 
  8 10  1  0  0  0  0 
  9 25  1  6  0  0  0 
  9  2  1  0  0  0  0 
 10 11  1  0  0  0  0 
 11  9  1  0  0  0  0 
 11  6  2  0  0  0  0 
 12  1  1  0  0  0  0 
 13  1  1  0  0  0  0 
 18  3  1  0  0  0  0 
 20  5  1  0  0  0  0 
 22  7  1  0  0  0  0 
M  END 
>  <HBA> 
0 
 
>  <HBD> 
0 
 
>  <TPSA> 
0.0 
 
>  <cid> 
20143 
 
>  <dipole> 
0.47 
 
>  <excitation_energy_1> 
5.137 
 
>  <excitation_energy_2> 
5.725 
 
>  <excitation_energy_3> 
5.838 
 
>  <excitation_energy_4> 
6.098 
 
>  <homo_energy> 
-6.202 
 
>  <homo_lumo_gap> 
6.264 
 
>  <logP> 
3.297 
 
>  <lumo_energy> 
0.063 
 
>  <melting_point> 
32.58 
 
>  <molecular_refractivity> 
48.68 
 
>  <oscillator_strength_1> 
0.0234 
 
>  <oscillator_strength_2> 
0.0108 
 
>  <oscillator_strength_3> 
0.0242 
 
>  <oscillator_strength_4> 
0.0463 
 
>  <open_babel_can_smiles> 
C[C@@H]1C[C@@H](c2c1cccc2)C 
 
>  <mulliken_charges> 
25 
1   -0.444345 
2   -0.444537 
3   -0.133125 
4   -0.133223 
5   -0.190079 
6   -0.190107 
7   -0.305367 
8   -0.154604 
9   -0.154217 
10   0.120278 
11   0.120138 
12   0.141979 
13   0.143245 
14   0.146587 
15   0.141968 
16   0.146642 
17   0.143224 
18   0.124013 
19   0.124023 
20   0.121201 
21   0.121209 
22   0.139892 
23   0.140947 
24   0.137221 
25   0.137037 
 
>  <lowdin_charges> 
25 
1   -0.442726 
2   -0.439458 
3   -0.15838 
4   -0.161764 
5   -0.165791 
6   -0.165678 
7   -0.283426 
8   -0.123052 
9   -0.123057 
10   -0.015039 
11   -0.015364 
12   0.148854 
13   0.148912 
14   0.148224 
15   0.145935 
16   0.147688 
17   0.149156 
18   0.153502 
19   0.156601 
20   0.154189 
21   0.154196 
22   0.150118 
23   0.147896 
24   0.144313 
25   0.144153 
 
$$$$ 
 
