PCCDB-ID:  61990 
public computational chemistry database (PCCDB) project, http://pccdb.org 
 
 36 36  0  0  1  0  0  0  0  0999 V2000 
    7.5066   -2.3736   -0.0022 C   0  0  0  0  0  0  0  0  0  0  0  0 
    3.3550    6.2950    4.3978 C   0  0  0  0  0  0  0  0  0  0  0  0 
    6.7124   -1.5440    1.0125 C   0  0  0  0  0  0  0  0  0  0  0  0 
    7.6077   -0.8512    2.0492 C   0  0  0  0  0  0  0  0  0  0  0  0 
    6.8489   -0.0841    3.1469 C   0  0  0  0  0  0  0  0  0  0  0  0 
    5.9815    1.0972    2.6732 C   0  0  0  0  0  0  0  0  0  0  0  0 
    6.7748    2.2360    2.0152 C   0  0  0  0  0  0  0  0  0  0  0  0 
    5.9152    3.4262    1.5530 C   0  0  0  0  0  0  0  0  0  0  0  0 
    4.2740    5.3305    2.1854 C   0  0  0  0  0  0  0  0  0  0  0  0 
    4.3677    6.4254    3.2658 C   0  0  2  0  0  0  0  0  0  0  0  0 
    5.2665    4.2623    2.6701 C   0  0  2  0  0  0  0  0  0  0  0  0 
    6.2599    5.0871    3.4939 C   0  0  0  0  0  0  0  0  0  0  0  0 
    7.3681    4.7831    3.8595 O   0  0  0  0  0  0  0  0  0  0  0  0 
    5.7115    6.2966    3.8016 O   0  0  0  0  0  0  0  0  0  0  0  0 
    6.8461   -2.8532   -0.7338 H   0  0  0  0  0  0  0  0  0  0  0  0 
    8.0821   -3.1637    0.4958 H   0  0  0  0  0  0  0  0  0  0  0  0 
    8.2177   -1.7478   -0.5558 H   0  0  0  0  0  0  0  0  0  0  0  0 
    2.3438    6.4949    4.0252 H   0  0  0  0  0  0  0  0  0  0  0  0 
    3.5787    7.0115    5.1940 H   0  0  0  0  0  0  0  0  0  0  0  0 
    3.3690    5.2880    4.8302 H   0  0  0  0  0  0  0  0  0  0  0  0 
    5.9927   -2.1928    1.5327 H   0  0  0  0  0  0  0  0  0  0  0  0 
    6.1129   -0.7966    0.4754 H   0  0  0  0  0  0  0  0  0  0  0  0 
    8.3049   -0.1772    1.5323 H   0  0  0  0  0  0  0  0  0  0  0  0 
    8.2361   -1.6115    2.5349 H   0  0  0  0  0  0  0  0  0  0  0  0 
    7.5763    0.2897    3.8808 H   0  0  0  0  0  0  0  0  0  0  0  0 
    6.2065   -0.7930    3.6887 H   0  0  0  0  0  0  0  0  0  0  0  0 
    5.4406    1.4821    3.5489 H   0  0  0  0  0  0  0  0  0  0  0  0 
    5.2089    0.7387    1.9774 H   0  0  0  0  0  0  0  0  0  0  0  0 
    7.2991    1.8487    1.1321 H   0  0  0  0  0  0  0  0  0  0  0  0 
    7.5456    2.5990    2.7039 H   0  0  0  0  0  0  0  0  0  0  0  0 
    5.1104    3.0595    0.8996 H   0  0  0  0  0  0  0  0  0  0  0  0 
    6.5286    4.0966    0.9362 H   0  0  0  0  0  0  0  0  0  0  0  0 
    4.6008    5.7276    1.2166 H   0  0  0  0  0  0  0  0  0  0  0  0 
    3.2543    4.9527    2.0656 H   0  0  0  0  0  0  0  0  0  0  0  0 
    4.3146    7.4302    2.8362 H   0  0  0  0  0  0  0  0  0  0  0  0 
    4.7644    3.5909    3.3807 H   0  0  0  0  0  0  0  0  0  0  0  0 
  1 16  1  0  0  0  0 
  1  3  1  0  0  0  0 
  2 20  1  0  0  0  0 
  2 19  1  0  0  0  0 
  3 21  1  0  0  0  0 
  3  4  1  0  0  0  0 
  4 24  1  0  0  0  0 
  4  5  1  0  0  0  0 
  5 26  1  0  0  0  0 
  5 25  1  0  0  0  0 
  6  5  1  0  0  0  0 
  6 27  1  0  0  0  0 
  7  6  1  0  0  0  0 
  7 30  1  0  0  0  0 
  8  7  1  0  0  0  0 
  8 11  1  0  0  0  0 
  9 11  1  0  0  0  0 
  9 10  1  0  0  0  0 
 10 35  1  6  0  0  0 
 10 14  1  0  0  0  0 
 10  2  1  0  0  0  0 
 11 36  1  1  0  0  0 
 11 12  1  0  0  0  0 
 12 14  1  0  0  0  0 
 12 13  2  0  0  0  0 
 15  1  1  0  0  0  0 
 17  1  1  0  0  0  0 
 18  2  1  0  0  0  0 
 22  3  1  0  0  0  0 
 23  4  1  0  0  0  0 
 28  6  1  0  0  0  0 
 29  7  1  0  0  0  0 
 31  8  1  0  0  0  0 
 32  8  1  0  0  0  0 
 33  9  1  0  0  0  0 
 34  9  1  0  0  0  0 
M  END 
>  <HBA> 
2 
 
>  <HBD> 
0 
 
>  <TPSA> 
26.3 
 
>  <cid> 
61990 
 
>  <dipole> 
4.16 
 
>  <excitation_energy_1> 
5.525 
 
>  <excitation_energy_2> 
6.596 
 
>  <excitation_energy_3> 
6.86 
 
>  <excitation_energy_4> 
6.949 
 
>  <homo_energy> 
-7.023 
 
>  <homo_lumo_gap> 
7.388 
 
>  <logP> 
3.299 
 
>  <lumo_energy> 
0.365 
 
>  <melting_point> 
4.47 
 
>  <molecular_refractivity> 
58.97 
 
>  <oscillator_strength_1> 
0.0005 
 
>  <oscillator_strength_2> 
0.0025 
 
>  <oscillator_strength_3> 
0.0012 
 
>  <oscillator_strength_4> 
0.0024 
 
>  <open_babel_can_smiles> 
CCCCCCC[C@@H]1C[C@H](OC1=O)C 
 
>  <mulliken_charges> 
36 
1   -0.441299 
2   -0.454959 
3   -0.248086 
4   -0.250526 
5   -0.258428 
6   -0.26234 
7   -0.270358 
8   -0.264413 
9   -0.312576 
10   0.127235 
11   -0.209643 
12   0.624586 
13   -0.46172 
14   -0.457278 
15   0.139942 
16   0.141705 
17   0.14124 
18   0.150279 
19   0.170718 
20   0.152891 
21   0.128346 
22   0.13198 
23   0.133426 
24   0.127596 
25   0.13526 
26   0.124586 
27   0.126949 
28   0.12649 
29   0.131957 
30   0.174993 
31   0.133183 
32   0.139461 
33   0.15548 
34   0.153155 
35   0.149999 
36   0.17017 
 
>  <lowdin_charges> 
36 
1   -0.447625 
2   -0.453443 
3   -0.277605 
4   -0.281367 
5   -0.278334 
6   -0.282132 
7   -0.28729 
8   -0.269026 
9   -0.290634 
10   0.009488 
11   -0.16688 
12   0.188872 
13   -0.241071 
14   -0.190929 
15   0.149448 
16   0.147341 
17   0.147552 
18   0.156568 
19   0.166321 
20   0.153579 
21   0.139126 
22   0.139706 
23   0.140684 
24   0.142283 
25   0.145562 
26   0.140574 
27   0.138705 
28   0.136042 
29   0.143857 
30   0.162585 
31   0.143556 
32   0.149472 
33   0.154196 
34   0.15597 
35   0.149535 
36   0.165313 
 
$$$$ 
 
