PCCDB-ID:  57179 
public computational chemistry database (PCCDB) project, http://pccdb.org 
 
 28 28  0  0  0  0  0  0  0  0999 V2000 
    0.0575   -0.5098    0.4934 C   0  0  0  0  0  0  0  0  0  0  0  0 
    0.9138    2.2663   -0.0914 C   0  0  0  0  0  0  0  0  0  0  0  0 
    2.4548   -1.2125    0.1267 C   0  0  0  0  0  0  0  0  0  0  0  0 
    3.7902   -0.9489   -0.1775 C   0  0  0  0  0  0  0  0  0  0  0  0 
    5.6617    0.6642   -0.7498 C   0  0  0  0  0  0  0  0  0  0  0  0 
    6.4504    1.0459    0.5127 C   0  0  0  0  0  0  0  0  0  0  0  0 
    3.2491    1.3738   -0.4175 C   0  0  0  0  0  0  0  0  0  0  0  0 
    1.4976   -0.1940    0.1650 C   0  0  0  0  0  0  0  0  0  0  0  0 
    1.9067    1.1277   -0.1143 C   0  0  0  0  0  0  0  0  0  0  0  0 
    4.2096    0.3551   -0.4550 C   0  0  0  0  0  0  0  0  0  0  0  0 
    8.5345    1.8159    1.3781 N   0  0  0  0  0  0  0  0  0  0  0  0 
    7.8642    1.2501    0.1842 N   0  0  0  0  0  0  0  0  0  0  0  0 
   -0.0804   -1.5807    0.6718 H   0  0  0  0  0  0  0  0  0  0  0  0 
   -0.6201   -0.2177   -0.3198 H   0  0  0  0  0  0  0  0  0  0  0  0 
   -0.2827    0.0238    1.3908 H   0  0  0  0  0  0  0  0  0  0  0  0 
    1.3996    3.2190   -0.3233 H   0  0  0  0  0  0  0  0  0  0  0  0 
    0.4335    2.3673    0.8907 H   0  0  0  0  0  0  0  0  0  0  0  0 
    0.1064    2.1174   -0.8205 H   0  0  0  0  0  0  0  0  0  0  0  0 
    2.1465   -2.2350    0.3349 H   0  0  0  0  0  0  0  0  0  0  0  0 
    4.5095   -1.7648   -0.2035 H   0  0  0  0  0  0  0  0  0  0  0  0 
    6.1500   -0.2006   -1.2137 H   0  0  0  0  0  0  0  0  0  0  0  0 
    5.7250    1.4901   -1.4724 H   0  0  0  0  0  0  0  0  0  0  0  0 
    6.3876    0.2207    1.2363 H   0  0  0  0  0  0  0  0  0  0  0  0 
    5.9993    1.9295    0.9960 H   0  0  0  0  0  0  0  0  0  0  0  0 
    3.5562    2.3955   -0.6361 H   0  0  0  0  0  0  0  0  0  0  0  0 
    9.5299    1.7382    1.1516 H   0  0  0  0  0  0  0  0  0  0  0  0 
    8.4092    1.0914    2.0910 H   0  0  0  0  0  0  0  0  0  0  0  0 
    7.8890    2.0305   -0.4765 H   0  0  0  0  0  0  0  0  0  0  0  0 
  1 13  1  0  0  0  0 
  1 15  1  0  0  0  0 
  2 17  1  0  0  0  0 
  3  8  1  0  0  0  0 
  3 19  1  0  0  0  0 
  4  3  2  0  0  0  0 
  5 10  1  0  0  0  0 
  5  6  1  0  0  0  0 
  6 24  1  0  0  0  0 
  6 23  1  0  0  0  0 
  7  9  1  0  0  0  0 
  8  1  1  0  0  0  0 
  9  2  1  0  0  0  0 
  9  8  2  0  0  0  0 
 10  7  2  0  0  0  0 
 10  4  1  0  0  0  0 
 11 27  1  0  0  0  0 
 12  6  1  0  0  0  0 
 12 11  1  0  0  0  0 
 14  1  1  0  0  0  0 
 16  2  1  0  0  0  0 
 18  2  1  0  0  0  0 
 20  4  1  0  0  0  0 
 21  5  1  0  0  0  0 
 22  5  1  0  0  0  0 
 25  7  1  0  0  0  0 
 26 11  1  0  0  0  0 
 28 12  1  0  0  0  0 
M  END 
>  <HBA> 
2 
 
>  <HBD> 
2 
 
>  <TPSA> 
38.05 
 
>  <cid> 
57179 
 
>  <dipole> 
0.47 
 
>  <excitation_energy_1> 
4.758 
 
>  <excitation_energy_2> 
4.935 
 
>  <excitation_energy_3> 
4.976 
 
>  <excitation_energy_4> 
5.166 
 
>  <homo_energy> 
-5.279 
 
>  <homo_lumo_gap> 
5.453 
 
>  <logP> 
2.4 
 
>  <lumo_energy> 
0.174 
 
>  <melting_point> 
97.59 
 
>  <molecular_refractivity> 
51.66 
 
>  <oscillator_strength_1> 
0.0016 
 
>  <oscillator_strength_2> 
0.0026 
 
>  <oscillator_strength_3> 
0.0056 
 
>  <oscillator_strength_4> 
0.0032 
 
>  <open_babel_can_smiles> 
NNCCc1ccc(c(c1)C)C 
 
>  <mulliken_charges> 
28 
1   -0.532212 
2   -0.532774 
3   -0.184918 
4   -0.185083 
5   -0.362875 
6   -0.110677 
7   -0.243626 
8   0.130387 
9   0.13732 
10   0.179031 
11   -0.595707 
12   -0.468425 
13   0.153668 
14   0.157927 
15   0.158085 
16   0.154376 
17   0.158639 
18   0.158389 
19   0.118699 
20   0.120468 
21   0.155824 
22   0.137113 
23   0.137639 
24   0.134358 
25   0.113019 
26   0.30416 
27   0.301891 
28   0.305306 
 
>  <lowdin_charges> 
28 
1   -0.441287 
2   -0.441083 
3   -0.165122 
4   -0.173735 
5   -0.276823 
6   -0.209558 
7   -0.176348 
8   -0.011118 
9   -0.007456 
10   -0.004365 
11   -0.496312 
12   -0.323869 
13   0.154946 
14   0.158191 
15   0.157916 
16   0.156548 
17   0.157639 
18   0.158285 
19   0.151636 
20   0.154585 
21   0.156749 
22   0.146005 
23   0.139373 
24   0.1304 
25   0.148906 
26   0.25168 
27   0.252699 
28   0.251518 
 
$$$$ 
 
