PCCDB-ID:  18598 
public computational chemistry database (PCCDB) project, http://pccdb.org 
 
 25 25  0  0  0  0  0  0  0  0999 V2000 
    3.6821   -0.0996    1.0782 C   0  0  0  0  0  0  0  0  0  0  0  0 
    1.1726    0.2244    0.7895 C   0  0  0  0  0  0  0  0  0  0  0  0 
    3.3017    4.9814   -1.0968 C   0  0  0  0  0  0  0  0  0  0  0  0 
    3.1297    1.8460   -3.2694 C   0  0  0  0  0  0  0  0  0  0  0  0 
    3.2604    3.1755   -2.8775 C   0  0  0  0  0  0  0  0  0  0  0  0 
    2.8956    0.8686   -2.3026 C   0  0  0  0  0  0  0  0  0  0  0  0 
    2.5276    0.0695    0.0705 C   0  0  0  0  0  0  0  0  0  0  0  0 
    3.1599    3.5401   -1.5314 C   0  0  0  0  0  0  0  0  0  0  0  0 
    2.7861    1.1794   -0.9423 C   0  0  0  0  0  0  0  0  0  0  0  0 
    2.9230    2.5325   -0.5787 C   0  0  0  0  0  0  0  0  0  0  0  0 
    2.8160    2.8446    0.7578 O   0  0  0  0  0  0  0  0  0  0  0  0 
    3.4950   -0.9653    1.7253 H   0  0  0  0  0  0  0  0  0  0  0  0 
    3.7863    0.7849    1.7123 H   0  0  0  0  0  0  0  0  0  0  0  0 
    4.6341   -0.2639    0.5606 H   0  0  0  0  0  0  0  0  0  0  0  0 
    0.9861   -0.6418    1.4361 H   0  0  0  0  0  0  0  0  0  0  0  0 
    0.3506    0.2906    0.0676 H   0  0  0  0  0  0  0  0  0  0  0  0 
    1.1545    1.1241    1.4106 H   0  0  0  0  0  0  0  0  0  0  0  0 
    3.4839    5.6294   -1.9587 H   0  0  0  0  0  0  0  0  0  0  0  0 
    4.1438    5.1281   -0.4043 H   0  0  0  0  0  0  0  0  0  0  0  0 
    2.3960    5.3596   -0.5998 H   0  0  0  0  0  0  0  0  0  0  0  0 
    3.2093    1.5724   -4.3176 H   0  0  0  0  0  0  0  0  0  0  0  0 
    3.4431    3.9493   -3.6196 H   0  0  0  0  0  0  0  0  0  0  0  0 
    2.7932   -0.1712   -2.6053 H   0  0  0  0  0  0  0  0  0  0  0  0 
    2.4746   -0.8606   -0.5121 H   0  0  0  0  0  0  0  0  0  0  0  0 
    2.9284    3.8001    0.8697 H   0  0  0  0  0  0  0  0  0  0  0  0 
  1 13  1  0  0  0  0 
  1 12  1  0  0  0  0 
  2 17  1  0  0  0  0 
  2 15  1  0  0  0  0 
  3 20  1  0  0  0  0 
  3 19  1  0  0  0  0 
  4  5  2  0  0  0  0 
  4  6  1  0  0  0  0 
  5  8  1  0  0  0  0 
  6  9  2  0  0  0  0 
  7  2  1  0  0  0  0 
  7  1  1  0  0  0  0 
  8  3  1  0  0  0  0 
  8 10  2  0  0  0  0 
  9 10  1  0  0  0  0 
  9  7  1  0  0  0  0 
 10 11  1  0  0  0  0 
 11 25  1  0  0  0  0 
 14  1  1  0  0  0  0 
 16  2  1  0  0  0  0 
 18  3  1  0  0  0  0 
 21  4  1  0  0  0  0 
 22  5  1  0  0  0  0 
 23  6  1  0  0  0  0 
 24  7  1  0  0  0  0 
M  END 
>  <HBA> 
1 
 
>  <HBD> 
1 
 
>  <TPSA> 
20.23 
 
>  <cid> 
18598 
 
>  <dipole> 
1.67 
 
>  <excitation_energy_1> 
5.03 
 
>  <excitation_energy_2> 
5.059 
 
>  <excitation_energy_3> 
5.625 
 
>  <excitation_energy_4> 
5.67 
 
>  <homo_energy> 
-5.755 
 
>  <homo_lumo_gap> 
5.984 
 
>  <logP> 
2.824 
 
>  <lumo_energy> 
0.229 
 
>  <melting_point> 
51.64 
 
>  <molecular_refractivity> 
48.01 
 
>  <oscillator_strength_1> 
0.0381 
 
>  <oscillator_strength_2> 
0.0018 
 
>  <oscillator_strength_3> 
0.0029 
 
>  <oscillator_strength_4> 
0.0075 
 
>  <open_babel_can_smiles> 
CC(c1cccc(c1O)C)C 
 
>  <mulliken_charges> 
25 
1   -0.446793 
2   -0.446545 
3   -0.583411 
4   -0.121138 
5   -0.201663 
6   -0.213529 
7   -0.142027 
8   0.172695 
9   0.159032 
10   0.200857 
11   -0.650267 
12   0.133887 
13   0.165885 
14   0.139864 
15   0.133994 
16   0.139952 
17   0.165458 
18   0.171349 
19   0.16109 
20   0.161166 
21   0.121875 
22   0.118473 
23   0.121412 
24   0.123871 
25   0.414512 
 
>  <lowdin_charges> 
25 
1   -0.447704 
2   -0.448144 
3   -0.455791 
4   -0.176766 
5   -0.16515 
6   -0.161444 
7   -0.112092 
8   -0.050627 
9   -0.027964 
10   0.088921 
11   -0.383895 
12   0.145448 
13   0.158311 
14   0.147763 
15   0.145517 
16   0.148441 
17   0.15795 
18   0.168567 
19   0.155497 
20   0.15555 
21   0.154425 
22   0.154234 
23   0.152814 
24   0.140753 
25   0.355388 
 
$$$$ 
 
