PCCDB-ID:  19665 
public computational chemistry database (PCCDB) project, http://pccdb.org 
 
 30 29  0  0  0  0  0  0  0  0999 V2000 
    8.2034    1.1156    4.4849 C   0  0  0  0  0  0  0  0  0  0  0  0 
    6.9845    0.4814    3.8073 C   0  0  0  0  0  0  0  0  0  0  0  0 
    6.7607    0.9986    2.3813 C   0  0  0  0  0  0  0  0  0  0  0  0 
    3.7129    2.8301    3.5052 C   0  0  0  0  0  0  0  0  0  0  0  0 
    3.0078    4.1955    3.4334 C   0  0  0  0  0  0  0  0  0  0  0  0 
    5.5452    0.3810    1.6742 C   0  0  0  0  0  0  0  0  0  0  0  0 
    3.6567    2.0346    2.1893 C   0  0  0  0  0  0  0  0  0  0  0  0 
    3.7665    5.2905    2.6913 C   0  0  0  0  0  0  0  0  0  0  0  0 
    3.5903   -0.3293    2.8167 N   0  0  0  0  0  0  0  0  0  0  0  0 
    4.2616    0.7033    2.2895 N   0  0  0  0  0  0  0  0  0  0  0  0 
    3.8743    4.9419    1.3107 O   0  0  0  0  0  0  0  0  0  0  0  0 
    2.4820   -0.0493    3.2741 O   0  0  0  0  0  0  0  0  0  0  0  0 
    8.3422    0.7251    5.4992 H   0  0  0  0  0  0  0  0  0  0  0  0 
    8.0945    2.2049    4.5601 H   0  0  0  0  0  0  0  0  0  0  0  0 
    9.1231    0.9142    3.9216 H   0  0  0  0  0  0  0  0  0  0  0  0 
    6.0878    0.6705    4.4106 H   0  0  0  0  0  0  0  0  0  0  0  0 
    7.1050   -0.6104    3.7789 H   0  0  0  0  0  0  0  0  0  0  0  0 
    7.6447    0.7769    1.7666 H   0  0  0  0  0  0  0  0  0  0  0  0 
    6.6648    2.0935    2.3893 H   0  0  0  0  0  0  0  0  0  0  0  0 
    3.2360    2.2232    4.2810 H   0  0  0  0  0  0  0  0  0  0  0  0 
    4.7593    2.9732    3.8076 H   0  0  0  0  0  0  0  0  0  0  0  0 
    2.8390    4.5578    4.4561 H   0  0  0  0  0  0  0  0  0  0  0  0 
    2.0157    4.0816    2.9765 H   0  0  0  0  0  0  0  0  0  0  0  0 
    5.6122   -0.7113    1.6857 H   0  0  0  0  0  0  0  0  0  0  0  0 
    5.5180    0.7062    0.6256 H   0  0  0  0  0  0  0  0  0  0  0  0 
    4.1615    2.5740    1.3866 H   0  0  0  0  0  0  0  0  0  0  0  0 
    2.6091    1.8852    1.9054 H   0  0  0  0  0  0  0  0  0  0  0  0 
    4.7656    5.4176    3.1416 H   0  0  0  0  0  0  0  0  0  0  0  0 
    3.2294    6.2454    2.8078 H   0  0  0  0  0  0  0  0  0  0  0  0 
    4.3470    5.6564    0.8578 H   0  0  0  0  0  0  0  0  0  0  0  0 
  1 14  1  0  0  0  0 
  1 13  1  0  0  0  0 
  2 16  1  0  0  0  0 
  2  1  1  0  0  0  0 
  3 19  1  0  0  0  0 
  3  2  1  0  0  0  0 
  4 21  1  0  0  0  0 
  4 20  1  0  0  0  0 
  5  4  1  0  0  0  0 
  5 22  1  0  0  0  0 
  6 24  1  0  0  0  0 
  6 10  1  0  0  0  0 
  6  3  1  0  0  0  0 
  7 10  1  0  0  0  0 
  7  4  1  0  0  0  0 
  8 29  1  0  0  0  0 
  8 28  1  0  0  0  0 
  8  5  1  0  0  0  0 
  9 12  1  0  0  0  0 
 10  9  1  0  0  0  0 
 11  8  1  0  0  0  0 
 15  1  1  0  0  0  0 
 17  2  1  0  0  0  0 
 18  3  1  0  0  0  0 
 23  5  1  0  0  0  0 
 25  6  1  0  0  0  0 
 26  7  1  0  0  0  0 
 27  7  1  0  0  0  0 
 30 11  1  0  0  0  0 
M  RAD  2   9   2  12   2 
M  END 
>  <HBA> 
4 
 
>  <HBD> 
1 
 
>  <TPSA> 
52.9 
 
>  <cid> 
19665 
 
>  <dipole> 
5.3 
 
>  <excitation_energy_1> 
3.37 
 
>  <excitation_energy_2> 
5.342 
 
>  <excitation_energy_3> 
5.685 
 
>  <excitation_energy_4> 
5.709 
 
>  <homo_energy> 
-5.747 
 
>  <homo_lumo_gap> 
5.214 
 
>  <logP> 
1.542 
 
>  <lumo_energy> 
-0.533 
 
>  <melting_point> 
12.41 
 
>  <molecular_refractivity> 
49.37 
 
>  <oscillator_strength_1> 
0.0013 
 
>  <oscillator_strength_2> 
0.0006 
 
>  <oscillator_strength_3> 
0.1098 
 
>  <oscillator_strength_4> 
0.0156 
 
>  <open_babel_can_smiles> 
CCCCN(CCCCO)[N][O] 
 
>  <mulliken_charges> 
30 
1   -0.443324 
2   -0.251387 
3   -0.26085 
4   -0.26607 
5   -0.276009 
6   -0.143594 
7   -0.148801 
8   -0.032475 
9   0.142071 
10   -0.21505 
11   -0.614623 
12   -0.39197 
13   0.147888 
14   0.139559 
15   0.141996 
16   0.15082 
17   0.139122 
18   0.137371 
19   0.139649 
20   0.169797 
21   0.132902 
22   0.140097 
23   0.153625 
24   0.171404 
25   0.15031 
26   0.17883 
27   0.17244 
28   0.117504 
29   0.124535 
30   0.394232 
 
>  <lowdin_charges> 
30 
1   -0.440936 
2   -0.274271 
3   -0.283775 
4   -0.281894 
5   -0.280005 
6   -0.197338 
7   -0.219946 
8   -0.132087 
9   0.042985 
10   -0.037481 
11   -0.477091 
12   -0.283686 
13   0.151749 
14   0.14329 
15   0.146424 
16   0.147992 
17   0.142061 
18   0.147793 
19   0.140699 
20   0.162509 
21   0.138666 
22   0.152284 
23   0.15251 
24   0.161636 
25   0.147496 
26   0.167298 
27   0.163677 
28   0.123077 
29   0.12943 
30   0.346934 
 
$$$$ 
 
