PCCDB-ID:  12077 
public computational chemistry database (PCCDB) project, http://pccdb.org 
 
 17 17  0  0  0  0  0  0  0  0999 V2000 
   -0.7887    1.1596    0.0766 C   0  0  0  0  0  0  0  0  0  0  0  0 
   -1.4633   -0.0615    0.0246 C   0  0  0  0  0  0  0  0  0  0  0  0 
    0.5999    1.1877   -0.0176 C   0  0  0  0  0  0  0  0  0  0  0  0 
    0.6519   -1.2195   -0.2212 C   0  0  0  0  0  0  0  0  0  0  0  0 
   -1.4534   -2.5556   -0.1615 C   0  0  0  0  0  0  0  0  0  0  0  0 
   -0.7455   -1.2537   -0.1191 C   0  0  0  0  0  0  0  0  0  0  0  0 
    1.3312   -0.0020   -0.1810 C   0  0  0  0  0  0  0  0  0  0  0  0 
    2.8276    0.1154   -0.2675 C   0  0  0  0  0  0  0  0  0  0  0  0 
   -0.8997   -3.6309   -0.2837 O   0  0  0  0  0  0  0  0  0  0  0  0 
    3.4276    1.1033    0.0839 O   0  0  0  0  0  0  0  0  0  0  0  0 
    3.5044   -0.9509   -0.7646 O   0  0  0  0  0  0  0  0  0  0  0  0 
   -1.3431    2.0856    0.1954 H   0  0  0  0  0  0  0  0  0  0  0  0 
   -2.5480   -0.0945    0.1001 H   0  0  0  0  0  0  0  0  0  0  0  0 
    1.1478    2.1227    0.0328 H   0  0  0  0  0  0  0  0  0  0  0  0 
    1.1623   -2.1769   -0.2973 H   0  0  0  0  0  0  0  0  0  0  0  0 
   -2.5596   -2.4895   -0.0747 H   0  0  0  0  0  0  0  0  0  0  0  0 
    2.8898   -1.6132   -1.1199 H   0  0  0  0  0  0  0  0  0  0  0  0 
  1 12  1  0  0  0  0 
  2  1  1  0  0  0  0 
  2 13  1  0  0  0  0 
  3 14  1  0  0  0  0 
  3  1  2  0  0  0  0 
  4  7  2  0  0  0  0 
  4  6  1  0  0  0  0 
  5  6  1  0  0  0  0 
  5 16  1  0  0  0  0 
  6  2  2  0  0  0  0 
  7  3  1  0  0  0  0 
  8  7  1  0  0  0  0 
  8 10  2  0  0  0  0 
  9  5  2  0  0  0  0 
 11  8  1  0  0  0  0 
 15  4  1  0  0  0  0 
 17 11  1  0  0  0  0 
M  END 
>  <HBA> 
3 
 
>  <HBD> 
1 
 
>  <TPSA> 
54.37 
 
>  <cid> 
12077 
 
>  <dipole> 
4.26 
 
>  <excitation_energy_1> 
3.664 
 
>  <excitation_energy_2> 
4.577 
 
>  <excitation_energy_3> 
4.604 
 
>  <excitation_energy_4> 
4.824 
 
>  <homo_energy> 
-7.421 
 
>  <homo_lumo_gap> 
5.143 
 
>  <logP> 
1.197 
 
>  <lumo_energy> 
-2.278 
 
>  <melting_point> 
129.42 
 
>  <molecular_refractivity> 
38.79 
 
>  <oscillator_strength_1> 
0.0001 
 
>  <oscillator_strength_2> 
0.0025 
 
>  <oscillator_strength_3> 
0.004 
 
>  <oscillator_strength_4> 
0.0119 
 
>  <open_babel_can_smiles> 
O=Cc1cccc(c1)C(=O)O 
 
>  <mulliken_charges> 
17 
1   -0.13521 
2   -0.16958 
3   -0.138816 
4   -0.234212 
5   0.199725 
6   0.090571 
7   0.055303 
8   0.561977 
9   -0.400956 
10   -0.443663 
11   -0.571132 
12   0.154688 
13   0.152598 
14   0.181385 
15   0.164157 
16   0.114081 
17   0.419084 
 
>  <lowdin_charges> 
17 
1   -0.148778 
2   -0.123387 
3   -0.108374 
4   -0.135403 
5   0.052538 
6   -0.052347 
7   -0.052715 
8   0.195942 
9   -0.221285 
10   -0.236506 
11   -0.349101 
12   0.170486 
13   0.166152 
14   0.186162 
15   0.172988 
16   0.121289 
17   0.362337 
 
$$$$ 
 
