PCCDB-ID:  66088 
public computational chemistry database (PCCDB) project, http://pccdb.org 
 
 22 22  0  0  0  0  0  0  0  0999 V2000 
    1.0029   -0.0788   -0.0340 C   0  0  0  0  0  0  0  0  0  0  0  0 
    5.4758   -2.4441   -0.2227 C   0  0  0  0  0  0  0  0  0  0  0  0 
    2.2766   -3.1870    0.7443 C   0  0  0  0  0  0  0  0  0  0  0  0 
    4.5680    1.2032    0.4635 C   0  0  0  0  0  0  0  0  0  0  0  0 
    3.1776    1.1654    0.3672 C   0  0  0  0  0  0  0  0  0  0  0  0 
    5.3091    0.0376    0.2765 C   0  0  0  0  0  0  0  0  0  0  0  0 
    2.5066   -0.0328    0.0984 C   0  0  0  0  0  0  0  0  0  0  0  0 
    4.6780   -1.1823    0.0060 C   0  0  0  0  0  0  0  0  0  0  0  0 
    3.2753   -1.1972   -0.0650 C   0  0  0  0  0  0  0  0  0  0  0  0 
    2.6290   -2.3849   -0.3797 O   0  0  0  0  0  0  0  0  0  0  0  0 
    0.5919    0.9301   -0.1388 H   0  0  0  0  0  0  0  0  0  0  0  0 
    0.5274   -0.5366    0.8434 H   0  0  0  0  0  0  0  0  0  0  0  0 
    0.7015   -0.6710   -0.9037 H   0  0  0  0  0  0  0  0  0  0  0  0 
    6.5178   -2.2071   -0.4594 H   0  0  0  0  0  0  0  0  0  0  0  0 
    5.0550   -3.0318   -1.0442 H   0  0  0  0  0  0  0  0  0  0  0  0 
    5.4827   -3.0916    0.6643 H   0  0  0  0  0  0  0  0  0  0  0  0 
    1.7690   -4.0702    0.3484 H   0  0  0  0  0  0  0  0  0  0  0  0 
    1.5979   -2.6549    1.4238 H   0  0  0  0  0  0  0  0  0  0  0  0 
    3.1629   -3.5038    1.3096 H   0  0  0  0  0  0  0  0  0  0  0  0 
    5.0741    2.1431    0.6670 H   0  0  0  0  0  0  0  0  0  0  0  0 
    2.5994    2.0782    0.4921 H   0  0  0  0  0  0  0  0  0  0  0  0 
    6.3950    0.0699    0.3297 H   0  0  0  0  0  0  0  0  0  0  0  0 
  1  7  1  0  0  0  0 
  1 12  1  0  0  0  0 
  2  8  1  0  0  0  0 
  2 16  1  0  0  0  0 
  3 19  1  0  0  0  0 
  3 18  1  0  0  0  0 
  4 20  1  0  0  0  0 
  5  4  1  0  0  0  0 
  5 21  1  0  0  0  0 
  6 22  1  0  0  0  0 
  6  4  2  0  0  0  0 
  7  5  2  0  0  0  0 
  8  6  1  0  0  0  0 
  9  8  2  0  0  0  0 
  9  7  1  0  0  0  0 
 10  9  1  0  0  0  0 
 10  3  1  0  0  0  0 
 11  1  1  0  0  0  0 
 13  1  1  0  0  0  0 
 14  2  1  0  0  0  0 
 15  2  1  0  0  0  0 
 17  3  1  0  0  0  0 
M  END 
>  <HBA> 
1 
 
>  <HBD> 
0 
 
>  <TPSA> 
9.23 
 
>  <cid> 
66088 
 
>  <dipole> 
1.22 
 
>  <excitation_energy_1> 
5.166 
 
>  <excitation_energy_2> 
5.695 
 
>  <excitation_energy_3> 
5.919 
 
>  <excitation_energy_4> 
5.995 
 
>  <homo_energy> 
-6.177 
 
>  <homo_lumo_gap> 
6.406 
 
>  <logP> 
2.312 
 
>  <lumo_energy> 
0.229 
 
>  <melting_point> 
18.1 
 
>  <molecular_refractivity> 
42.87 
 
>  <oscillator_strength_1> 
0.0015 
 
>  <oscillator_strength_2> 
0.0119 
 
>  <oscillator_strength_3> 
0.0141 
 
>  <oscillator_strength_4> 
0.009 
 
>  <open_babel_can_smiles> 
COc1c(C)cccc1C 
 
>  <mulliken_charges> 
22 
1   -0.525914 
2   -0.528893 
3   -0.205305 
4   -0.114094 
5   -0.207078 
6   -0.20701 
7   0.165466 
8   0.167574 
9   0.205932 
10   -0.522677 
11   0.15047 
12   0.155883 
13   0.173909 
14   0.151579 
15   0.17428 
16   0.156393 
17   0.159875 
18   0.142787 
19   0.142791 
20   0.123871 
21   0.120099 
22   0.120062 
 
>  <lowdin_charges> 
22 
1   -0.441101 
2   -0.441339 
3   -0.274441 
4   -0.163262 
5   -0.17059 
6   -0.16715 
7   -0.017275 
8   -0.01827 
9   0.072539 
10   -0.237908 
11   0.154968 
12   0.156809 
13   0.167789 
14   0.1551 
15   0.168156 
16   0.156432 
17   0.156653 
18   0.140634 
19   0.140106 
20   0.156358 
21   0.154168 
22   0.151625 
 
$$$$ 
 
