PCCDB-ID:  12278 
public computational chemistry database (PCCDB) project, http://pccdb.org 
 
 23 22  0  0  1  0  0  0  0  0999 V2000 
    1.1714   -0.4118    0.4517 C   0  0  0  0  0  0  0  0  0  0  0  0 
    5.8792    0.8495   -1.0846 C   0  0  0  0  0  0  0  0  0  0  0  0 
    3.8432    4.7533   -1.5695 C   0  0  0  0  0  0  0  0  0  0  0  0 
    2.2589    0.6669    0.4385 C   0  0  0  0  0  0  0  0  0  0  0  0 
    3.5077    0.2482   -0.3482 C   0  0  0  0  0  0  0  0  0  0  0  0 
    4.6085    1.3068   -0.3763 C   0  0  2  0  0  0  0  0  0  0  0  0 
    4.5454    3.6783   -0.7702 C   0  0  0  0  0  0  0  0  0  0  0  0 
    5.4203    3.8748    0.0455 O   0  0  0  0  0  0  0  0  0  0  0  0 
    4.0522    2.4576   -1.0809 O   0  0  0  0  0  0  0  0  0  0  0  0 
    0.2919   -0.0815    1.0161 H   0  0  0  0  0  0  0  0  0  0  0  0 
    1.5331   -1.3393    0.9124 H   0  0  0  0  0  0  0  0  0  0  0  0 
    0.8418   -0.6552   -0.5659 H   0  0  0  0  0  0  0  0  0  0  0  0 
    6.3119   -0.0110   -0.5619 H   0  0  0  0  0  0  0  0  0  0  0  0 
    6.6221    1.6519   -1.0935 H   0  0  0  0  0  0  0  0  0  0  0  0 
    5.6642    0.5531   -2.1175 H   0  0  0  0  0  0  0  0  0  0  0  0 
    2.7891    4.8064   -1.2753 H   0  0  0  0  0  0  0  0  0  0  0  0 
    3.8722    4.5151   -2.6372 H   0  0  0  0  0  0  0  0  0  0  0  0 
    4.3221    5.7156   -1.3854 H   0  0  0  0  0  0  0  0  0  0  0  0 
    2.5472    0.9096    1.4711 H   0  0  0  0  0  0  0  0  0  0  0  0 
    1.8582    1.5905    0.0042 H   0  0  0  0  0  0  0  0  0  0  0  0 
    3.2318   -0.0040   -1.3817 H   0  0  0  0  0  0  0  0  0  0  0  0 
    3.9322   -0.6646    0.0924 H   0  0  0  0  0  0  0  0  0  0  0  0 
    4.8517    1.6337    0.6398 H   0  0  0  0  0  0  0  0  0  0  0  0 
  1 11  1  0  0  0  0 
  1 10  1  0  0  0  0 
  2 13  1  0  0  0  0 
  2  6  1  0  0  0  0 
  3 18  1  0  0  0  0 
  3 16  1  0  0  0  0 
  3  7  1  0  0  0  0 
  4  1  1  0  0  0  0 
  4 19  1  0  0  0  0 
  5 22  1  0  0  0  0 
  5  4  1  0  0  0  0 
  6  5  1  0  0  0  0 
  6 23  1  1  0  0  0 
  7  8  2  0  0  0  0 
  9  7  1  0  0  0  0 
  9  6  1  0  0  0  0 
 12  1  1  0  0  0  0 
 14  2  1  0  0  0  0 
 15  2  1  0  0  0  0 
 17  3  1  0  0  0  0 
 20  4  1  0  0  0  0 
 21  5  1  0  0  0  0 
M  END 
>  <HBA> 
2 
 
>  <HBD> 
0 
 
>  <TPSA> 
26.3 
 
>  <cid> 
12278 
 
>  <dipole> 
1.9 
 
>  <excitation_energy_1> 
5.797 
 
>  <excitation_energy_2> 
6.976 
 
>  <excitation_energy_3> 
7.444 
 
>  <excitation_energy_4> 
7.54 
 
>  <homo_energy> 
-7.225 
 
>  <homo_lumo_gap> 
7.693 
 
>  <logP> 
1.738 
 
>  <lumo_energy> 
0.468 
 
>  <melting_point> 
-14.79 
 
>  <molecular_refractivity> 
37.05 
 
>  <oscillator_strength_1> 
0.0012 
 
>  <oscillator_strength_2> 
0.0376 
 
>  <oscillator_strength_3> 
0.0185 
 
>  <oscillator_strength_4> 
0.0071 
 
>  <open_babel_can_smiles> 
CCC[C@H](OC(=O)C)C 
 
>  <mulliken_charges> 
23 
1   -0.443275 
2   -0.462919 
3   -0.524224 
4   -0.25442 
5   -0.260966 
6   0.127614 
7   0.606662 
8   -0.471597 
9   -0.465661 
10   0.144591 
11   0.141541 
12   0.143225 
13   0.147543 
14   0.172056 
15   0.149523 
16   0.180676 
17   0.178684 
18   0.181108 
19   0.132822 
20   0.14594 
21   0.138811 
22   0.134532 
23   0.157733 
 
>  <lowdin_charges> 
23 
1   -0.443717 
2   -0.453392 
3   -0.462173 
4   -0.274025 
5   -0.280575 
6   0.009887 
7   0.199499 
8   -0.269268 
9   -0.2015 
10   0.151413 
11   0.146292 
12   0.146526 
13   0.157396 
14   0.166272 
15   0.152072 
16   0.175974 
17   0.174107 
18   0.174557 
19   0.139591 
20   0.146609 
21   0.145184 
22   0.147542 
23   0.151728 
 
$$$$ 
 
