PCCDB-ID:  9333 
public computational chemistry database (PCCDB) project, http://pccdb.org 
 
 21 20  0  0  1  0  0  0  0  0999 V2000 
    1.0574   -0.0248    0.0620 C   0  0  0  0  0  0  0  0  0  0  0  0 
    3.8961    0.8913    2.4502 C   0  0  0  0  0  0  0  0  0  0  0  0 
    4.1873    0.2872   -1.4360 C   0  0  0  0  0  0  0  0  0  0  0  0 
    2.2639   -0.0241    0.0597 C   0  0  0  0  0  0  0  0  0  0  0  0 
    4.2622    1.1172    0.9815 C   0  0  0  0  0  0  0  0  0  0  0  0 
    5.4145   -1.6853    0.5295 C   0  0  0  0  0  0  0  0  0  0  0  0 
    3.7351    0.0322    0.0121 C   0  0  2  0  0  0  0  0  0  0  0  0 
    6.4187   -0.9452    0.2653 N   0  0  0  0  0  0  0  0  0  0  0  0 
    5.4060   -2.9822    0.9465 O   0  0  0  0  0  0  0  0  0  0  0  0 
    4.1337   -1.3150    0.4464 O   0  0  0  0  0  0  0  0  0  0  0  0 
   -0.0090   -0.0343    0.0613 H   0  0  0  0  0  0  0  0  0  0  0  0 
    4.2962    1.7035    3.0669 H   0  0  0  0  0  0  0  0  0  0  0  0 
    4.3126   -0.0494    2.8240 H   0  0  0  0  0  0  0  0  0  0  0  0 
    2.8108    0.8586    2.5918 H   0  0  0  0  0  0  0  0  0  0  0  0 
    3.7586    1.2317   -1.7844 H   0  0  0  0  0  0  0  0  0  0  0  0 
    3.8267   -0.5147   -2.0869 H   0  0  0  0  0  0  0  0  0  0  0  0 
    5.2755    0.3393   -1.4858 H   0  0  0  0  0  0  0  0  0  0  0  0 
    5.3468    1.1675    0.8606 H   0  0  0  0  0  0  0  0  0  0  0  0 
    3.8445    2.0706    0.6347 H   0  0  0  0  0  0  0  0  0  0  0  0 
    7.3026   -1.4369    0.3966 H   0  0  0  0  0  0  0  0  0  0  0  0 
    6.3244   -3.2844    1.0182 H   0  0  0  0  0  0  0  0  0  0  0  0 
  2 14  1  0  0  0  0 
  2 13  1  0  0  0  0 
  2 12  1  0  0  0  0 
  3  7  1  0  0  0  0 
  4  1  3  0  0  0  0 
  5  2  1  0  0  0  0 
  6  9  1  0  0  0  0 
  7  4  1  1  0  0  0 
  7 10  1  0  0  0  0 
  7  5  1  0  0  0  0 
  8 20  1  0  0  0  0 
  8  6  2  0  0  0  0 
  9 21  1  0  0  0  0 
 10  6  1  0  0  0  0 
 11  1  1  0  0  0  0 
 15  3  1  0  0  0  0 
 16  3  1  0  0  0  0 
 17  3  1  0  0  0  0 
 18  5  1  0  0  0  0 
 19  5  1  0  0  0  0 
M  END 
>  <HBA> 
3 
 
>  <HBD> 
1 
 
>  <TPSA> 
52.32 
 
>  <cid> 
9333 
 
>  <dipole> 
1.44 
 
>  <excitation_energy_1> 
5.891 
 
>  <excitation_energy_2> 
6.224 
 
>  <excitation_energy_3> 
6.374 
 
>  <excitation_energy_4> 
6.583 
 
>  <homo_energy> 
-7.026 
 
>  <homo_lumo_gap> 
7.864 
 
>  <logP> 
1.584 
 
>  <lumo_energy> 
0.838 
 
>  <melting_point> 
78.17 
 
>  <molecular_refractivity> 
38.34 
 
>  <oscillator_strength_1> 
0.0032 
 
>  <oscillator_strength_2> 
0.0004 
 
>  <oscillator_strength_3> 
0.0425 
 
>  <oscillator_strength_4> 
0.0176 
 
>  <open_babel_can_smiles> 
C[C@@](C#C)(OC(=N)O)CC 
 
>  <mulliken_charges> 
21 
1   -0.535835 
2   -0.453548 
3   -0.467468 
4   0.375055 
5   -0.27694 
6   0.665755 
7   0.206907 
8   -0.631624 
9   -0.567221 
10   -0.481691 
11   0.195047 
12   0.142785 
13   0.155181 
14   0.15744 
15   0.154568 
16   0.160356 
17   0.193086 
18   0.183996 
19   0.14213 
20   0.275657 
21   0.406362 
 
>  <lowdin_charges> 
21 
1   -0.23954 
2   -0.44638 
3   -0.447219 
4   -0.033023 
5   -0.280662 
6   0.197514 
7   0.158808 
8   -0.474595 
9   -0.362823 
10   -0.173824 
11   0.20532 
12   0.152847 
13   0.153832 
14   0.154337 
15   0.161884 
16   0.163023 
17   0.174621 
18   0.168196 
19   0.153094 
20   0.256562 
21   0.358028 
 
$$$$ 
 
