PCCDB-ID:  65275 
public computational chemistry database (PCCDB) project, http://pccdb.org 
 
 19 20  0  0  0  0  0  0  0  0999 V2000 
    1.6134   -0.0668    0.7691 C   0  0  0  0  0  0  0  0  0  0  0  0 
    6.1659   -0.4854   -2.5257 C   0  0  0  0  0  0  0  0  0  0  0  0 
    4.4710   -1.0008   -1.3405 C   0  0  0  0  0  0  0  0  0  0  0  0 
    4.9850   -2.2000   -1.7979 C   0  0  0  0  0  0  0  0  0  0  0  0 
    3.3028   -1.1074   -0.5111 C   0  0  0  0  0  0  0  0  0  0  0  0 
    3.2688   -3.4614   -0.6511 C   0  0  0  0  0  0  0  0  0  0  0  0 
    2.7037   -4.5641   -0.3181 N   0  0  0  0  0  0  0  0  0  0  0  0 
    5.2251    0.0616   -1.8081 N   0  0  0  0  0  0  0  0  0  0  0  0 
    6.0725   -1.8799   -2.5593 N   0  0  0  0  0  0  0  0  0  0  0  0 
    4.4354   -3.4066   -1.4905 N   0  0  0  0  0  0  0  0  0  0  0  0 
    2.7630   -2.2515   -0.2058 N   0  0  0  0  0  0  0  0  0  0  0  0 
    2.7818    0.0370   -0.0597 O   0  0  0  0  0  0  0  0  0  0  0  0 
    1.3600    0.9615    1.0295 H   0  0  0  0  0  0  0  0  0  0  0  0 
    1.8272   -0.6547    1.6653 H   0  0  0  0  0  0  0  0  0  0  0  0 
    0.7949   -0.5436    0.2237 H   0  0  0  0  0  0  0  0  0  0  0  0 
    6.9520    0.0340   -3.0560 H   0  0  0  0  0  0  0  0  0  0  0  0 
    3.1922   -5.3673   -0.7225 H   0  0  0  0  0  0  0  0  0  0  0  0 
    6.6897   -2.5137   -3.0462 H   0  0  0  0  0  0  0  0  0  0  0  0 
    4.8216   -4.2744   -1.8353 H   0  0  0  0  0  0  0  0  0  0  0  0 
  1 13  1  0  0  0  0 
  1 14  1  0  0  0  0 
  2  8  2  0  0  0  0 
  3  5  1  0  0  0  0 
  4 10  1  0  0  0  0 
  4  3  2  0  0  0  0 
  5 11  2  0  0  0  0 
  5 12  1  0  0  0  0 
  6  7  1  0  0  0  0 
  6 11  2  0  0  0  0 
  8  3  1  0  0  0  0 
  9  2  1  0  0  0  0 
  9  4  1  0  0  0  0 
 10  6  1  0  0  0  0 
 12  1  1  0  0  0  0 
 15  1  1  0  0  0  0 
 16  2  1  0  0  0  0 
 17  7  1  0  0  0  0 
 18  9  1  0  0  0  0 
 19 10  1  0  0  0  0 
M  RAD  1   7   2 
M  END 
>  <HBA> 
5 
 
>  <HBD> 
2 
 
>  <TPSA> 
89.71 
 
>  <cid> 
65275 
 
>  <dipole> 
6.16 
 
>  <excitation_energy_1> 
4.061 
 
>  <excitation_energy_2> 
4.264 
 
>  <excitation_energy_3> 
4.844 
 
>  <excitation_energy_4> 
5.189 
 
>  <homo_energy> 
-5.38 
 
>  <homo_lumo_gap> 
4.925 
 
>  <logP> 
0.525 
 
>  <lumo_energy> 
-0.454 
 
>  <melting_point> 
197.71 
 
>  <molecular_refractivity> 
42.58 
 
>  <oscillator_strength_1> 
0.0001 
 
>  <oscillator_strength_2> 
0.12 
 
>  <oscillator_strength_3> 
0.0046 
 
>  <oscillator_strength_4> 
0.1977 
 
>  <open_babel_can_smiles> 
COC1=[N]=C([NH])Nc2c1nc[nH]2 
 
>  <mulliken_charges> 
19 
1   -0.210874 
2   0.21208 
3   0.152839 
4   0.63738 
5   0.566889 
6   0.60214 
7   -0.62448 
8   -0.472617 
9   -0.67036 
10   -0.754132 
11   -0.559458 
12   -0.470853 
13   0.16229 
14   0.175 
15   0.17451 
16   0.167419 
17   0.253253 
18   0.336606 
19   0.32237 
 
>  <lowdin_charges> 
19 
1   -0.274078 
2   -0.082898 
3   -0.07959 
4   0.084307 
5   0.160341 
6   0.134329 
7   -0.437258 
8   -0.146866 
9   -0.208219 
10   -0.257523 
11   -0.220854 
12   -0.159916 
13   0.158134 
14   0.162597 
15   0.163149 
16   0.174985 
17   0.239049 
18   0.300636 
19   0.289675 
 
$$$$ 
 
