PCCDB-ID:  71824 
public computational chemistry database (PCCDB) project, http://pccdb.org 
 
 25 25  0  0  0  0  0  0  0  0999 V2000 
    1.0437    1.2389   -1.3418 C   0  0  0  0  0  0  0  0  0  0  0  0 
    1.6905    0.1774   -0.4384 C   0  0  0  0  0  0  0  0  0  0  0  0 
   -0.3844    1.5710   -0.8820 C   0  0  0  0  0  0  0  0  0  0  0  0 
    0.8169   -1.0850   -0.3423 C   0  0  0  0  0  0  0  0  0  0  0  0 
   -1.2563    0.3079   -0.7873 C   0  0  0  0  0  0  0  0  0  0  0  0 
   -0.7062   -0.4590    1.6073 C   0  0  0  0  0  0  0  0  0  0  0  0 
   -0.6316   -0.7882    0.1057 C   0  0  0  0  0  0  0  0  0  0  0  0 
   -2.1120   -0.2133    3.5200 N   0  0  0  0  0  0  0  0  0  0  0  0 
   -2.0994   -0.3095    2.0427 N   0  0  0  0  0  0  0  0  0  0  0  0 
    1.0100    0.8589   -2.3742 H   0  0  0  0  0  0  0  0  0  0  0  0 
    1.6604    2.1467   -1.3649 H   0  0  0  0  0  0  0  0  0  0  0  0 
    1.8506    0.6004    0.5634 H   0  0  0  0  0  0  0  0  0  0  0  0 
    2.6849   -0.0904   -0.8183 H   0  0  0  0  0  0  0  0  0  0  0  0 
   -0.8478    2.2878   -1.5721 H   0  0  0  0  0  0  0  0  0  0  0  0 
   -0.3457    2.0716    0.0957 H   0  0  0  0  0  0  0  0  0  0  0  0 
    1.2782   -1.8161    0.3351 H   0  0  0  0  0  0  0  0  0  0  0  0 
    0.7805   -1.5602   -1.3331 H   0  0  0  0  0  0  0  0  0  0  0  0 
   -1.3880   -0.1044   -1.7984 H   0  0  0  0  0  0  0  0  0  0  0  0 
   -2.2522    0.5616   -0.4097 H   0  0  0  0  0  0  0  0  0  0  0  0 
   -0.1962    0.4905    1.8208 H   0  0  0  0  0  0  0  0  0  0  0  0 
   -0.1790   -1.2377    2.1866 H   0  0  0  0  0  0  0  0  0  0  0  0 
   -1.2151   -1.7115   -0.0390 H   0  0  0  0  0  0  0  0  0  0  0  0 
   -3.0658    0.0931    3.7316 H   0  0  0  0  0  0  0  0  0  0  0  0 
   -1.5577    0.6258    3.7132 H   0  0  0  0  0  0  0  0  0  0  0  0 
   -2.5440   -1.2148    1.8731 H   0  0  0  0  0  0  0  0  0  0  0  0 
  1  3  1  0  0  0  0 
  1  2  1  0  0  0  0 
  2  4  1  0  0  0  0 
  2 12  1  0  0  0  0 
  3  5  1  0  0  0  0 
  3 15  1  0  0  0  0 
  4  7  1  0  0  0  0 
  4 16  1  0  0  0  0 
  5 19  1  0  0  0  0 
  5  7  1  0  0  0  0 
  6 20  1  0  0  0  0 
  6  9  1  0  0  0  0 
  6 21  1  0  0  0  0 
  7  6  1  0  0  0  0 
  8 24  1  0  0  0  0 
  8 23  1  0  0  0  0 
  9  8  1  0  0  0  0 
 10  1  1  0  0  0  0 
 11  1  1  0  0  0  0 
 13  2  1  0  0  0  0 
 14  3  1  0  0  0  0 
 17  4  1  0  0  0  0 
 18  5  1  0  0  0  0 
 22  7  1  0  0  0  0 
 25  9  1  0  0  0  0 
M  END 
>  <HBA> 
2 
 
>  <HBD> 
2 
 
>  <TPSA> 
38.05 
 
>  <cid> 
71824 
 
>  <dipole> 
0.41 
 
>  <excitation_energy_1> 
4.725 
 
>  <excitation_energy_2> 
5.088 
 
>  <excitation_energy_3> 
5.362 
 
>  <excitation_energy_4> 
5.658 
 
>  <homo_energy> 
-5.26 
 
>  <homo_lumo_gap> 
7.385 
 
>  <logP> 
2.121 
 
>  <lumo_energy> 
2.125 
 
>  <melting_point> 
76.78 
 
>  <molecular_refractivity> 
39.16 
 
>  <oscillator_strength_1> 
0.0051 
 
>  <oscillator_strength_2> 
0.0046 
 
>  <oscillator_strength_3> 
0.0032 
 
>  <oscillator_strength_4> 
0.0208 
 
>  <open_babel_can_smiles> 
NNCC1CCCCC1 
 
>  <mulliken_charges> 
25 
1   -0.253955 
2   -0.260608 
3   -0.262432 
4   -0.265307 
5   -0.257189 
6   -0.1186 
7   -0.099826 
8   -0.593196 
9   -0.473343 
10   0.125431 
11   0.127517 
12   0.130382 
13   0.129928 
14   0.129245 
15   0.13115 
16   0.128144 
17   0.12819 
18   0.120583 
19   0.151465 
20   0.132422 
21   0.126805 
22   0.112786 
23   0.304019 
24   0.301122 
25   0.305267 
 
>  <lowdin_charges> 
25 
1   -0.277455 
2   -0.278689 
3   -0.280208 
4   -0.279416 
5   -0.281818 
6   -0.216977 
7   -0.132615 
8   -0.495904 
9   -0.319697 
10   0.135014 
11   0.141918 
12   0.136676 
13   0.142856 
14   0.144754 
15   0.137584 
16   0.142903 
17   0.139912 
18   0.135749 
19   0.152749 
20   0.134682 
21   0.128729 
22   0.134982 
23   0.252633 
24   0.251484 
25   0.250153 
 
$$$$ 
 
