PCCDB-ID:  38335 
public computational chemistry database (PCCDB) project, http://pccdb.org 
 
 37 37  0  0  1  0  0  0  0  0999 V2000 
    5.5515   -4.6892   -2.9042 C   0  0  0  0  0  0  0  0  0  0  0  0 
    9.1964   -2.4125   -3.1600 C   0  0  0  0  0  0  0  0  0  0  0  0 
    5.7220    1.1591    0.3819 C   0  0  0  0  0  0  0  0  0  0  0  0 
    7.2339    1.5749   -1.5934 C   0  0  0  0  0  0  0  0  0  0  0  0 
    8.6309   -2.5305    0.8158 C   0  0  0  0  0  0  0  0  0  0  0  0 
    6.7747   -4.3165   -2.0615 C   0  0  0  0  0  0  0  0  0  0  0  0 
    7.6723   -2.2470   -3.1330 C   0  0  0  0  0  0  0  0  0  0  0  0 
    7.9299   -0.1439    0.1569 C   0  0  0  0  0  0  0  0  0  0  0  0 
    6.7502    0.5465   -0.5734 C   0  0  0  0  0  0  0  0  0  0  0  0 
    7.4800   -1.5422    0.6227 C   0  0  2  0  0  0  0  0  0  0  0  0 
    7.0218   -2.8621   -1.9692 N   0  0  0  0  0  0  0  0  0  0  0  0 
    6.6965   -1.4738    1.8185 O   0  0  0  0  0  0  0  0  0  0  0  0 
    5.0440   -2.7451   -0.2424 O   0  0  0  0  0  0  0  0  0  0  0  0 
    6.0911   -0.5190   -1.3398 O   0  0  0  0  0  0  0  0  0  0  0  0 
    6.2515   -2.0290   -0.7282 P   0  0  1  0  0  0  0  0  0  0  0  0 
    5.4550   -5.7801   -2.9668 H   0  0  0  0  0  0  0  0  0  0  0  0 
    5.6266   -4.3032   -3.9274 H   0  0  0  0  0  0  0  0  0  0  0  0 
    4.6479   -4.2839   -2.4419 H   0  0  0  0  0  0  0  0  0  0  0  0 
    9.6059   -2.0008   -4.0906 H   0  0  0  0  0  0  0  0  0  0  0  0 
    9.4883   -3.4671   -3.1066 H   0  0  0  0  0  0  0  0  0  0  0  0 
    9.6707   -1.8892   -2.3221 H   0  0  0  0  0  0  0  0  0  0  0  0 
    6.1609    2.0083    0.9197 H   0  0  0  0  0  0  0  0  0  0  0  0 
    5.3825    0.4219    1.1122 H   0  0  0  0  0  0  0  0  0  0  0  0 
    4.8598    1.5195   -0.1879 H   0  0  0  0  0  0  0  0  0  0  0  0 
    7.7619    2.3900   -1.0855 H   0  0  0  0  0  0  0  0  0  0  0  0 
    6.3872    2.0027   -2.1398 H   0  0  0  0  0  0  0  0  0  0  0  0 
    7.9182    1.1204   -2.3171 H   0  0  0  0  0  0  0  0  0  0  0  0 
    9.3199   -2.1565    1.5864 H   0  0  0  0  0  0  0  0  0  0  0  0 
    9.2041   -2.6859   -0.1017 H   0  0  0  0  0  0  0  0  0  0  0  0 
    8.2416   -3.4966    1.1527 H   0  0  0  0  0  0  0  0  0  0  0  0 
    7.6809   -4.7821   -2.4696 H   0  0  0  0  0  0  0  0  0  0  0  0 
    6.6461   -4.7130   -1.0511 H   0  0  0  0  0  0  0  0  0  0  0  0 
    7.2452   -2.6920   -4.0417 H   0  0  0  0  0  0  0  0  0  0  0  0 
    7.4073   -1.1888   -3.1590 H   0  0  0  0  0  0  0  0  0  0  0  0 
    8.2853    0.4589    1.0027 H   0  0  0  0  0  0  0  0  0  0  0  0 
    8.7689   -0.2451   -0.5433 H   0  0  0  0  0  0  0  0  0  0  0  0 
    7.2954   -1.2053    2.5360 H   0  0  0  0  0  0  0  0  0  0  0  0 
  1 18  1  0  0  0  0 
  1  6  1  0  0  0  0 
  2  7  1  0  0  0  0 
  2 20  1  0  0  0  0 
  2 21  1  0  0  0  0 
  3 22  1  0  0  0  0 
  3 23  1  0  0  0  0 
  4 25  1  0  0  0  0 
  4  9  1  0  0  0  0 
  5 30  1  0  0  0  0 
  5 28  1  0  0  0  0 
  6 11  1  0  0  0  0 
  6 32  1  0  0  0  0 
  7 11  1  0  0  0  0 
  8 10  1  0  0  0  0 
  8 35  1  0  0  0  0 
  9  8  1  0  0  0  0 
  9  3  1  0  0  0  0 
 10  5  1  0  0  0  0 
 10 12  1  1  0  0  0 
 11 15  1  0  0  0  0 
 12 37  1  0  0  0  0 
 14 15  1  0  0  0  0 
 14  9  1  0  0  0  0 
 15 13  2  1  0  0  0 
 15 10  1  0  0  0  0 
 16  1  1  0  0  0  0 
 17  1  1  0  0  0  0 
 19  2  1  0  0  0  0 
 24  3  1  0  0  0  0 
 26  4  1  0  0  0  0 
 27  4  1  0  0  0  0 
 29  5  1  0  0  0  0 
 31  6  1  0  0  0  0 
 33  7  1  0  0  0  0 
 34  7  1  0  0  0  0 
 36  8  1  0  0  0  0 
M  END 
>  <HBA> 
4 
 
>  <HBD> 
1 
 
>  <TPSA> 
59.58 
 
>  <cid> 
38335 
 
>  <dipole> 
5.61 
 
>  <excitation_energy_1> 
5.447 
 
>  <excitation_energy_2> 
5.871 
 
>  <excitation_energy_3> 
5.933 
 
>  <excitation_energy_4> 
6.197 
 
>  <homo_energy> 
-6.207 
 
>  <homo_lumo_gap> 
7.48 
 
>  <logP> 
2.429 
 
>  <lumo_energy> 
1.274 
 
>  <melting_point> 
40.79 
 
>  <molecular_refractivity> 
61.95 
 
>  <oscillator_strength_1> 
0.0129 
 
>  <oscillator_strength_2> 
0.0182 
 
>  <oscillator_strength_3> 
0.0079 
 
>  <oscillator_strength_4> 
0.0036 
 
>  <open_babel_can_smiles> 
CCN([P@]1(=O)OC(C[C@@]1(C)O)(C)C)CC 
 
>  <mulliken_charges> 
37 
1   -0.447247 
2   -0.446137 
3   -0.459021 
4   -0.455405 
5   -0.482145 
6   -0.137399 
7   -0.147962 
8   -0.318245 
9   0.302691 
10   0.086679 
11   -0.520243 
12   -0.611501 
13   -0.545564 
14   -0.587966 
15   1.141799 
16   0.137587 
17   0.139396 
18   0.194436 
19   0.14476 
20   0.151783 
21   0.146078 
22   0.132482 
23   0.198133 
24   0.157755 
25   0.145852 
26   0.163003 
27   0.149217 
28   0.134307 
29   0.162053 
30   0.175266 
31   0.13518 
32   0.169772 
33   0.147452 
34   0.173164 
35   0.138781 
36   0.146768 
37   0.38444 
 
>  <lowdin_charges> 
37 
1   -0.453857 
2   -0.456908 
3   -0.4589 
4   -0.448549 
5   -0.457426 
6   -0.187923 
7   -0.193924 
8   -0.305086 
9   0.139373 
10   -0.033726 
11   -0.339563 
12   -0.436238 
13   -0.582234 
14   -0.406124 
15   1.013938 
16   0.148055 
17   0.144056 
18   0.173911 
19   0.15321 
20   0.149896 
21   0.145903 
22   0.149267 
23   0.178719 
24   0.160754 
25   0.156461 
26   0.162886 
27   0.153694 
28   0.146309 
29   0.161813 
30   0.166958 
31   0.139864 
32   0.162608 
33   0.144449 
34   0.160543 
35   0.152634 
36   0.154272 
37   0.340883 
 
$$$$ 
 
