PCCDB-ID:  10327 
public computational chemistry database (PCCDB) project, http://pccdb.org 
 
 17 18  0  0  0  0  0  0  0  0999 V2000 
    2.0298    1.0951    0.0041 C   0  0  0  0  0  0  0  0  0  0  0  0 
    2.2766   -0.2822    0.0024 C   0  0  0  0  0  0  0  0  0  0  0  0 
    0.7197    1.5823   -0.0017 C   0  0  0  0  0  0  0  0  0  0  0  0 
    1.2170   -1.1938   -0.0036 C   0  0  0  0  0  0  0  0  0  0  0  0 
   -1.8220    0.8947   -0.0184 C   0  0  0  0  0  0  0  0  0  0  0  0 
   -1.4054   -1.4310   -0.0151 C   0  0  0  0  0  0  0  0  0  0  0  0 
   -0.3324    0.6695   -0.0087 C   0  0  0  0  0  0  0  0  0  0  0  0 
   -0.0866   -0.7028   -0.0089 C   0  0  0  0  0  0  0  0  0  0  0  0 
   -2.4091   -0.4106   -0.0189 O   0  0  0  0  0  0  0  0  0  0  0  0 
    2.8637    1.7918    0.0096 H   0  0  0  0  0  0  0  0  0  0  0  0 
    3.3005   -0.6461    0.0057 H   0  0  0  0  0  0  0  0  0  0  0  0 
    0.5324    2.6534   -0.0006 H   0  0  0  0  0  0  0  0  0  0  0  0 
    1.4131   -2.2633   -0.0039 H   0  0  0  0  0  0  0  0  0  0  0  0 
   -2.1583    1.4470   -0.9093 H   0  0  0  0  0  0  0  0  0  0  0  0 
   -2.1704    1.4516    0.8649 H   0  0  0  0  0  0  0  0  0  0  0  0 
   -1.5379   -2.0698    0.8715 H   0  0  0  0  0  0  0  0  0  0  0  0 
   -1.5301   -2.0700   -0.9028 H   0  0  0  0  0  0  0  0  0  0  0  0 
  1 10  1  0  0  0  0 
  2  1  1  0  0  0  0 
  2 11  1  0  0  0  0 
  3 12  1  0  0  0  0 
  3  1  2  0  0  0  0 
  4  2  2  0  0  0  0 
  5  7  1  0  0  0  0 
  5 15  1  0  0  0  0 
  6  8  1  0  0  0  0 
  6 16  1  0  0  0  0 
  7  3  1  0  0  0  0 
  8  7  2  0  0  0  0 
  8  4  1  0  0  0  0 
  9  5  1  0  0  0  0 
  9  6  1  0  0  0  0 
 13  4  1  0  0  0  0 
 14  5  1  0  0  0  0 
 17  6  1  0  0  0  0 
M  END 
>  <HBA> 
1 
 
>  <HBD> 
0 
 
>  <TPSA> 
9.23 
 
>  <cid> 
10327 
 
>  <dipole> 
1.6 
 
>  <excitation_energy_1> 
5.051 
 
>  <excitation_energy_2> 
5.576 
 
>  <excitation_energy_3> 
5.762 
 
>  <excitation_energy_4> 
5.911 
 
>  <homo_energy> 
-6.267 
 
>  <homo_lumo_gap> 
6.055 
 
>  <logP> 
1.717 
 
>  <lumo_energy> 
-0.212 
 
>  <melting_point> 
25.62 
 
>  <molecular_refractivity> 
35.34 
 
>  <oscillator_strength_1> 
0.0278 
 
>  <oscillator_strength_2> 
0.0341 
 
>  <oscillator_strength_3> 
0.0121 
 
>  <oscillator_strength_4> 
0.0134 
 
>  <open_babel_can_smiles> 
O1Cc2c(C1)cccc2 
 
>  <mulliken_charges> 
17 
1   -0.131474 
2   -0.131785 
3   -0.191581 
4   -0.191774 
5   -0.064408 
6   -0.06435 
7   0.084625 
8   0.085053 
9   -0.505462 
10   0.130869 
11   0.130911 
12   0.130366 
13   0.130387 
14   0.147129 
15   0.147179 
16   0.147225 
17   0.14709 
 
>  <lowdin_charges> 
17 
1   -0.156737 
2   -0.154591 
3   -0.159144 
4   -0.158917 
5   -0.122699 
6   -0.122641 
7   -0.025357 
8   -0.026263 
9   -0.285502 
10   0.159525 
11   0.157785 
12   0.156761 
13   0.156779 
14   0.145278 
15   0.145462 
16   0.145182 
17   0.145079 
 
$$$$ 
 
