PCCDB-ID:  41696 
public computational chemistry database (PCCDB) project, http://pccdb.org 
 
 22 21  0  0  0  0  0  0  0  0999 V2000 
    0.6890   -0.5590   -2.1272 C   0  0  0  0  0  0  0  0  0  0  0  0 
    8.9477   -0.9657   -1.9771 C   0  0  0  0  0  0  0  0  0  0  0  0 
    2.1583   -0.2655   -1.8099 C   0  0  0  0  0  0  0  0  0  0  0  0 
    2.9168   -1.5011   -1.2880 C   0  0  0  0  0  0  0  0  0  0  0  0 
    4.3477   -1.2053   -0.9326 C   0  0  0  0  0  0  0  0  0  0  0  0 
    5.4171   -1.7861   -1.4813 C   0  0  0  0  0  0  0  0  0  0  0  0 
    6.8344   -1.4972   -1.0884 C   0  0  0  0  0  0  0  0  0  0  0  0 
    7.5783   -1.1612   -2.2512 O   0  0  0  0  0  0  0  0  0  0  0  0 
    0.1745    0.3354   -2.4963 H   0  0  0  0  0  0  0  0  0  0  0  0 
    0.1526   -0.9088   -1.2364 H   0  0  0  0  0  0  0  0  0  0  0  0 
    0.5966   -1.3367   -2.8953 H   0  0  0  0  0  0  0  0  0  0  0  0 
    9.4376   -0.7338   -2.9267 H   0  0  0  0  0  0  0  0  0  0  0  0 
    9.4127   -1.8682   -1.5461 H   0  0  0  0  0  0  0  0  0  0  0  0 
    9.1120   -0.1286   -1.2783 H   0  0  0  0  0  0  0  0  0  0  0  0 
    2.2204    0.5382   -1.0628 H   0  0  0  0  0  0  0  0  0  0  0  0 
    2.6669    0.1115   -2.7067 H   0  0  0  0  0  0  0  0  0  0  0  0 
    2.8785   -2.3015   -2.0389 H   0  0  0  0  0  0  0  0  0  0  0  0 
    2.3901   -1.8822   -0.3987 H   0  0  0  0  0  0  0  0  0  0  0  0 
    4.5002   -0.4442   -0.1635 H   0  0  0  0  0  0  0  0  0  0  0  0 
    5.2917   -2.5385   -2.2606 H   0  0  0  0  0  0  0  0  0  0  0  0 
    7.2872   -2.3862   -0.6097 H   0  0  0  0  0  0  0  0  0  0  0  0 
    6.8736   -0.6788   -0.3490 H   0  0  0  0  0  0  0  0  0  0  0  0 
  1  3  1  0  0  0  0 
  1 10  1  0  0  0  0 
  2 13  1  0  0  0  0 
  2 14  1  0  0  0  0 
  3  4  1  0  0  0  0 
  3 15  1  0  0  0  0 
  4  5  1  0  0  0  0 
  4 18  1  0  0  0  0 
  5 19  1  0  0  0  0 
  6  7  1  0  0  0  0 
  6  5  2  0  0  0  0 
  7 21  1  0  0  0  0 
  7 22  1  0  0  0  0 
  8  2  1  0  0  0  0 
  8  7  1  0  0  0  0 
  9  1  1  0  0  0  0 
 11  1  1  0  0  0  0 
 12  2  1  0  0  0  0 
 16  3  1  0  0  0  0 
 17  4  1  0  0  0  0 
 20  6  1  0  0  0  0 
M  END 
>  <HBA> 
1 
 
>  <HBD> 
0 
 
>  <TPSA> 
9.23 
 
>  <cid> 
41696 
 
>  <dipole> 
1.06 
 
>  <excitation_energy_1> 
6.249 
 
>  <excitation_energy_2> 
6.366 
 
>  <excitation_energy_3> 
6.546 
 
>  <excitation_energy_4> 
6.633 
 
>  <homo_energy> 
-6.58 
 
>  <homo_lumo_gap> 
7.157 
 
>  <logP> 
1.989 
 
>  <lumo_energy> 
0.577 
 
>  <melting_point> 
-26.39 
 
>  <molecular_refractivity> 
36.37 
 
>  <oscillator_strength_1> 
0.0508 
 
>  <oscillator_strength_2> 
0.0068 
 
>  <oscillator_strength_3> 
0.0273 
 
>  <oscillator_strength_4> 
0.0021 
 
>  <open_babel_can_smiles> 
CCC/C=C/COC 
 
>  <mulliken_charges> 
22 
1   -0.442237 
2   -0.188944 
3   -0.248011 
4   -0.295972 
5   -0.091225 
6   -0.1012 
7   -0.059045 
8   -0.457712 
9   0.144381 
10   0.141261 
11   0.143361 
12   0.157402 
13   0.126338 
14   0.127316 
15   0.131905 
16   0.14379 
17   0.137922 
18   0.138469 
19   0.118365 
20   0.129955 
21   0.121829 
22   0.122053 
 
>  <lowdin_charges> 
22 
1   -0.446563 
2   -0.280913 
3   -0.271942 
4   -0.272007 
5   -0.155266 
6   -0.174061 
7   -0.126718 
8   -0.273043 
9   0.151396 
10   0.146768 
11   0.147853 
12   0.154907 
13   0.130114 
14   0.130273 
15   0.14024 
16   0.146215 
17   0.146281 
18   0.147207 
19   0.146181 
20   0.154277 
21   0.129472 
22   0.12933 
 
$$$$ 
 
