PCCDB-ID:  32272 
public computational chemistry database (PCCDB) project, http://pccdb.org 
 
 28 30  0  0  1  0  0  0  0  0999 V2000 
    1.9453    0.1054   -0.0518 C   0  0  0  0  0  0  0  0  0  0  0  0 
    0.2816   -1.6466    0.7054 C   0  0  0  0  0  0  0  0  0  0  0  0 
    0.2425   -0.7265   -1.6703 C   0  0  0  0  0  0  0  0  0  0  0  0 
    0.2988    0.7323    1.7093 C   0  0  0  0  0  0  0  0  0  0  0  0 
    0.0206    1.6350   -0.6576 C   0  0  0  0  0  0  0  0  0  0  0  0 
   -1.9141   -0.6842   -0.3002 C   0  0  0  0  0  0  0  0  0  0  0  0 
    1.1317   -0.4292    1.1421 C   0  0  2  0  0  0  0  0  0  0  0  0 
    0.9741    0.5296   -1.1694 C   0  0  1  0  0  0  0  0  0  0  0  0 
   -0.5778   -1.4174   -0.5616 C   0  0  2  0  0  0  0  0  0  0  0  0 
   -0.6899    1.3312    0.6803 C   0  0  1  0  0  0  0  0  0  0  0  0 
   -1.9163    0.5382    0.5139 N   0  0  0  0  0  0  0  0  0  0  0  0 
    2.6327   -0.6653   -0.4274 H   0  0  0  0  0  0  0  0  0  0  0  0 
    2.5643    0.9549    0.2689 H   0  0  0  0  0  0  0  0  0  0  0  0 
   -0.3595   -1.9722    1.5370 H   0  0  0  0  0  0  0  0  0  0  0  0 
    0.9699   -2.4798    0.5049 H   0  0  0  0  0  0  0  0  0  0  0  0 
    0.9929   -1.4298   -2.0597 H   0  0  0  0  0  0  0  0  0  0  0  0 
   -0.4185   -0.4782   -2.5121 H   0  0  0  0  0  0  0  0  0  0  0  0 
    0.9869    1.5220    2.0474 H   0  0  0  0  0  0  0  0  0  0  0  0 
   -0.2633    0.4117    2.5987 H   0  0  0  0  0  0  0  0  0  0  0  0 
   -0.7344    1.8763   -1.4169 H   0  0  0  0  0  0  0  0  0  0  0  0 
    0.6160    2.5462   -0.5098 H   0  0  0  0  0  0  0  0  0  0  0  0 
   -2.6085   -1.3838    0.1822 H   0  0  0  0  0  0  0  0  0  0  0  0 
   -2.3545   -0.4618   -1.2851 H   0  0  0  0  0  0  0  0  0  0  0  0 
    1.8211   -0.7709    1.9267 H   0  0  0  0  0  0  0  0  0  0  0  0 
    1.5472    0.9497   -2.0075 H   0  0  0  0  0  0  0  0  0  0  0  0 
   -0.8695   -2.4062   -0.9460 H   0  0  0  0  0  0  0  0  0  0  0  0 
   -1.0319    2.2952    1.0835 H   0  0  0  0  0  0  0  0  0  0  0  0 
   -2.2736    0.3242    1.4403 H   0  0  0  0  0  0  0  0  0  0  0  0 
  1 13  1  0  0  0  0 
  1  7  1  0  0  0  0 
  2  7  1  0  0  0  0 
  2 14  1  0  0  0  0 
  3  8  1  0  0  0  0 
  3  9  1  0  0  0  0 
  4 18  1  0  0  0  0 
  4 19  1  0  0  0  0 
  5 21  1  0  0  0  0 
  5 10  1  0  0  0  0 
  6 22  1  0  0  0  0 
  6 11  1  0  0  0  0 
  7  4  1  0  0  0  0 
  7 24  1  1  0  0  0 
  8 25  1  6  0  0  0 
  8  5  1  0  0  0  0 
  8  1  1  0  0  0  0 
  9 26  1  6  0  0  0 
  9  6  1  0  0  0  0 
  9  2  1  0  0  0  0 
 10 27  1  1  0  0  0 
 10  4  1  0  0  0  0 
 11 10  1  0  0  0  0 
 11 28  1  0  0  0  0 
 12  1  1  0  0  0  0 
 15  2  1  0  0  0  0 
 16  3  1  0  0  0  0 
 17  3  1  0  0  0  0 
 20  5  1  0  0  0  0 
 23  6  1  0  0  0  0 
M  END 
>  <HBA> 
1 
 
>  <HBD> 
1 
 
>  <TPSA> 
12.03 
 
>  <cid> 
32272 
 
>  <dipole> 
1.04 
 
>  <excitation_energy_1> 
4.713 
 
>  <excitation_energy_2> 
5.329 
 
>  <excitation_energy_3> 
5.394 
 
>  <excitation_energy_4> 
5.571 
 
>  <homo_energy> 
-5.429 
 
>  <homo_lumo_gap> 
7.042 
 
>  <logP> 
2.113 
 
>  <lumo_energy> 
1.614 
 
>  <melting_point> 
65.69 
 
>  <molecular_refractivity> 
50.56 
 
>  <oscillator_strength_1> 
0.0033 
 
>  <oscillator_strength_2> 
0.0045 
 
>  <oscillator_strength_3> 
0.0264 
 
>  <oscillator_strength_4> 
0.0054 
 
>  <open_babel_can_smiles> 
C1N[C@@H]2C[C@@H]3C[C@H]1C[C@H](C2)C3 
 
>  <mulliken_charges> 
28 
1   -0.265932 
2   -0.270619 
3   -0.267742 
4   -0.269134 
5   -0.279435 
6   -0.137529 
7   -0.080387 
8   -0.083198 
9   -0.088655 
10   0.035397 
11   -0.55619 
12   0.123155 
13   0.122743 
14   0.120709 
15   0.127209 
16   0.123062 
17   0.125887 
18   0.121016 
19   0.114381 
20   0.141997 
21   0.130037 
22   0.124463 
23   0.130226 
24   0.114914 
25   0.115336 
26   0.117173 
27   0.122394 
28   0.28872 
 
>  <lowdin_charges> 
28 
1   -0.283228 
2   -0.283449 
3   -0.284149 
4   -0.297241 
5   -0.286739 
6   -0.210733 
7   -0.132911 
8   -0.133824 
9   -0.146345 
10   -0.06895 
11   -0.371987 
12   0.139563 
13   0.139073 
14   0.139202 
15   0.142923 
16   0.139811 
17   0.140101 
18   0.139885 
19   0.134489 
20   0.150634 
21   0.146348 
22   0.141588 
23   0.132927 
24   0.139955 
25   0.140257 
26   0.142488 
27   0.139681 
28   0.250631 
 
$$$$ 
 
