PCCDB-ID:  14138 
public computational chemistry database (PCCDB) project, http://pccdb.org 
 
 37 37  0  0  0  0  0  0  0  0999 V2000 
    0.5850    0.0368    0.3614 C   0  0  0  0  0  0  0  0  0  0  0  0 
    2.1133    0.0984    0.2752 C   0  0  0  0  0  0  0  0  0  0  0  0 
    2.7017    1.3967    0.8423 C   0  0  0  0  0  0  0  0  0  0  0  0 
    4.2325    1.4595    0.7659 C   0  0  0  0  0  0  0  0  0  0  0  0 
    4.8235    2.7585    1.3283 C   0  0  0  0  0  0  0  0  0  0  0  0 
    6.3536    2.8100    1.2379 C   0  0  0  0  0  0  0  0  0  0  0  0 
    5.4965    7.4898   -0.1554 C   0  0  0  0  0  0  0  0  0  0  0  0 
    7.1993    7.2990   -1.8622 C   0  0  0  0  0  0  0  0  0  0  0  0 
    4.9849    8.6167   -0.7895 C   0  0  0  0  0  0  0  0  0  0  0  0 
    6.6953    8.4216   -2.5027 C   0  0  0  0  0  0  0  0  0  0  0  0 
    6.9690    4.0911    1.7938 C   0  0  0  0  0  0  0  0  0  0  0  0 
    6.6081    6.8183   -0.6821 C   0  0  0  0  0  0  0  0  0  0  0  0 
    5.5831    9.0856   -1.9662 C   0  0  0  0  0  0  0  0  0  0  0  0 
    7.1833    5.6109   -0.0360 C   0  0  0  0  0  0  0  0  0  0  0  0 
    5.1295   10.1821   -2.6360 O   0  0  0  0  0  0  0  0  0  0  0  0 
    8.1489    4.9989   -0.4523 O   0  0  0  0  0  0  0  0  0  0  0  0 
    6.5022    5.2627    1.0853 O   0  0  0  0  0  0  0  0  0  0  0  0 
    0.1975   -0.9006   -0.0540 H   0  0  0  0  0  0  0  0  0  0  0  0 
    0.1227    0.8627   -0.1934 H   0  0  0  0  0  0  0  0  0  0  0  0 
    0.2421    0.1063    1.4013 H   0  0  0  0  0  0  0  0  0  0  0  0 
    2.4248   -0.0122   -0.7732 H   0  0  0  0  0  0  0  0  0  0  0  0 
    2.5454   -0.7584    0.8118 H   0  0  0  0  0  0  0  0  0  0  0  0 
    2.3841    1.5114    1.8897 H   0  0  0  0  0  0  0  0  0  0  0  0 
    2.2742    2.2542    0.3014 H   0  0  0  0  0  0  0  0  0  0  0  0 
    4.5484    1.3425   -0.2813 H   0  0  0  0  0  0  0  0  0  0  0  0 
    4.6585    0.6021    1.3083 H   0  0  0  0  0  0  0  0  0  0  0  0 
    4.5172    2.8748    2.3789 H   0  0  0  0  0  0  0  0  0  0  0  0 
    4.4002    3.6169    0.7901 H   0  0  0  0  0  0  0  0  0  0  0  0 
    6.6793    2.6910    0.1972 H   0  0  0  0  0  0  0  0  0  0  0  0 
    6.7883    1.9686    1.7972 H   0  0  0  0  0  0  0  0  0  0  0  0 
    5.0351    7.1252    0.7553 H   0  0  0  0  0  0  0  0  0  0  0  0 
    8.0602    6.7737   -2.2631 H   0  0  0  0  0  0  0  0  0  0  0  0 
    4.1216    9.1333   -0.3736 H   0  0  0  0  0  0  0  0  0  0  0  0 
    7.1422    8.8038   -3.4148 H   0  0  0  0  0  0  0  0  0  0  0  0 
    8.0597    4.0571    1.7372 H   0  0  0  0  0  0  0  0  0  0  0  0 
    6.6628    4.2629    2.8302 H   0  0  0  0  0  0  0  0  0  0  0  0 
    4.3634   10.5483   -2.1665 H   0  0  0  0  0  0  0  0  0  0  0  0 
  1 20  1  0  0  0  0 
  2  1  1  0  0  0  0 
  2 22  1  0  0  0  0 
  2  3  1  0  0  0  0 
  3 23  1  0  0  0  0 
  4  3  1  0  0  0  0 
  4 26  1  0  0  0  0 
  4  5  1  0  0  0  0 
  5 27  1  0  0  0  0 
  6  5  1  0  0  0  0 
  6 11  1  0  0  0  0 
  6 30  1  0  0  0  0 
  7 31  1  0  0  0  0 
  8 12  2  0  0  0  0 
  9 33  1  0  0  0  0 
  9  7  2  0  0  0  0 
 10 13  2  0  0  0  0 
 10  8  1  0  0  0  0 
 11 36  1  0  0  0  0 
 12  7  1  0  0  0  0 
 12 14  1  0  0  0  0 
 13  9  1  0  0  0  0 
 14 17  1  0  0  0  0 
 15 37  1  0  0  0  0 
 15 13  1  0  0  0  0 
 16 14  2  0  0  0  0 
 17 11  1  0  0  0  0 
 18  1  1  0  0  0  0 
 19  1  1  0  0  0  0 
 21  2  1  0  0  0  0 
 24  3  1  0  0  0  0 
 25  4  1  0  0  0  0 
 28  5  1  0  0  0  0 
 29  6  1  0  0  0  0 
 32  8  1  0  0  0  0 
 34 10  1  0  0  0  0 
 35 11  1  0  0  0  0 
M  END 
>  <HBA> 
3 
 
>  <HBD> 
1 
 
>  <TPSA> 
46.53 
 
>  <cid> 
14138 
 
>  <dipole> 
3.22 
 
>  <excitation_energy_1> 
4.934 
 
>  <excitation_energy_2> 
4.979 
 
>  <excitation_energy_3> 
5.026 
 
>  <excitation_energy_4> 
5.411 
 
>  <homo_energy> 
-6.302 
 
>  <homo_lumo_gap> 
5.393 
 
>  <logP> 
3.519 
 
>  <lumo_energy> 
-0.909 
 
>  <melting_point> 
66.25 
 
>  <molecular_refractivity> 
68.59 
 
>  <oscillator_strength_1> 
0.0119 
 
>  <oscillator_strength_2> 
0.0088 
 
>  <oscillator_strength_3> 
0.3439 
 
>  <oscillator_strength_4> 
0.0002 
 
>  <open_babel_can_smiles> 
CCCCCCCOC(=O)c1ccc(cc1)O 
 
>  <mulliken_charges> 
37 
1   -0.441629 
2   -0.246506 
3   -0.246012 
4   -0.252962 
5   -0.253195 
6   -0.282027 
7   -0.165043 
8   -0.160706 
9   -0.200851 
10   -0.167018 
11   -0.047976 
12   0.045031 
13   0.362681 
14   0.594229 
15   -0.633417 
16   -0.498757 
17   -0.485344 
18   0.141707 
19   0.140998 
20   0.14053 
21   0.13112 
22   0.129828 
23   0.125388 
24   0.127102 
25   0.130974 
26   0.126323 
27   0.123877 
28   0.142548 
29   0.162161 
30   0.134836 
31   0.159376 
32   0.164668 
33   0.124801 
34   0.147555 
35   0.169323 
36   0.145101 
37   0.411284 
 
>  <lowdin_charges> 
37 
1   -0.444768 
2   -0.271367 
3   -0.273913 
4   -0.273406 
5   -0.27612 
6   -0.287033 
7   -0.126917 
8   -0.118376 
9   -0.217073 
10   -0.186289 
11   -0.126755 
12   -0.067684 
13   0.116425 
14   0.19732 
15   -0.366987 
16   -0.279238 
17   -0.198982 
18   0.149423 
19   0.146998 
20   0.144705 
21   0.137986 
22   0.139386 
23   0.135393 
24   0.138358 
25   0.138387 
26   0.13777 
27   0.134944 
28   0.145373 
29   0.155293 
30   0.148977 
31   0.174172 
32   0.178983 
33   0.156604 
34   0.171398 
35   0.158265 
36   0.147579 
37   0.361171 
 
$$$$ 
 
