PCCDB-ID:  14498 
public computational chemistry database (PCCDB) project, http://pccdb.org 
 
 21 21  0  0  1  0  0  0  0  0999 V2000 
    3.3925   -0.0693    1.5986 C   0  0  0  0  0  0  0  0  0  0  0  0 
    3.5369   -2.4672   -0.2144 C   0  0  0  0  0  0  0  0  0  0  0  0 
    4.0068    1.0346   -1.7054 C   0  0  0  0  0  0  0  0  0  0  0  0 
    3.0780    1.3615   -0.5028 C   0  0  0  0  0  0  0  0  0  0  0  0 
    4.4876   -0.4045   -1.4553 C   0  0  0  0  0  0  0  0  0  0  0  0 
    2.7543    0.0058    0.2032 C   0  0  1  0  0  0  0  0  0  0  0  0 
    3.2713   -1.0761   -0.7932 C   0  0  2  0  0  0  0  0  0  0  0  0 
    3.0340    0.7568    2.2245 H   0  0  0  0  0  0  0  0  0  0  0  0 
    4.4862    0.0093    1.5522 H   0  0  0  0  0  0  0  0  0  0  0  0 
    3.1458   -1.0045    2.1132 H   0  0  0  0  0  0  0  0  0  0  0  0 
    3.8347   -3.1655   -1.0055 H   0  0  0  0  0  0  0  0  0  0  0  0 
    2.6431   -2.8796    0.2702 H   0  0  0  0  0  0  0  0  0  0  0  0 
    4.3421   -2.4510    0.5291 H   0  0  0  0  0  0  0  0  0  0  0  0 
    4.8312    1.7489   -1.8055 H   0  0  0  0  0  0  0  0  0  0  0  0 
    3.4393    1.0726   -2.6435 H   0  0  0  0  0  0  0  0  0  0  0  0 
    2.1653    1.8677   -0.8363 H   0  0  0  0  0  0  0  0  0  0  0  0 
    3.5706    2.0454    0.1986 H   0  0  0  0  0  0  0  0  0  0  0  0 
    5.3412   -0.4116   -0.7622 H   0  0  0  0  0  0  0  0  0  0  0  0 
    4.8117   -0.9159   -2.3695 H   0  0  0  0  0  0  0  0  0  0  0  0 
    1.6700   -0.1074    0.3314 H   0  0  0  0  0  0  0  0  0  0  0  0 
    2.5002   -1.1803   -1.5721 H   0  0  0  0  0  0  0  0  0  0  0  0 
  1 10  1  0  0  0  0 
  1  8  1  0  0  0  0 
  2 12  1  0  0  0  0 
  2 13  1  0  0  0  0 
  3  5  1  0  0  0  0 
  3  4  1  0  0  0  0 
  4 17  1  0  0  0  0 
  4  6  1  0  0  0  0 
  5  7  1  0  0  0  0 
  5 18  1  0  0  0  0 
  6 20  1  1  0  0  0 
  6  1  1  0  0  0  0 
  7 21  1  6  0  0  0 
  7  2  1  0  0  0  0 
  7  6  1  0  0  0  0 
  9  1  1  0  0  0  0 
 11  2  1  0  0  0  0 
 14  3  1  0  0  0  0 
 15  3  1  0  0  0  0 
 16  4  1  0  0  0  0 
 19  5  1  0  0  0  0 
M  END 
>  <HBA> 
0 
 
>  <HBD> 
0 
 
>  <TPSA> 
0.0 
 
>  <cid> 
14498 
 
>  <dipole> 
0.11 
 
>  <excitation_energy_1> 
7.54 
 
>  <excitation_energy_2> 
7.653 
 
>  <excitation_energy_3> 
7.819 
 
>  <excitation_energy_4> 
8.018 
 
>  <homo_energy> 
-8.076 
 
>  <homo_lumo_gap> 
10.226 
 
>  <logP> 
2.442 
 
>  <lumo_energy> 
2.15 
 
>  <melting_point> 
-4.65 
 
>  <molecular_refractivity> 
33.65 
 
>  <oscillator_strength_1> 
0.0117 
 
>  <oscillator_strength_2> 
0.0135 
 
>  <oscillator_strength_3> 
0.0077 
 
>  <oscillator_strength_4> 
0.0021 
 
>  <open_babel_can_smiles> 
C[C@@H]1CCC[C@@H]1C 
 
>  <mulliken_charges> 
21 
1   -0.457512 
2   -0.451852 
3   -0.269724 
4   -0.280416 
5   -0.266677 
6   -0.071446 
7   -0.07198 
8   0.140754 
9   0.140535 
10   0.142642 
11   0.139331 
12   0.139337 
13   0.143036 
14   0.131713 
15   0.132651 
16   0.132848 
17   0.134495 
18   0.128455 
19   0.129333 
20   0.117426 
21   0.117051 
 
>  <lowdin_charges> 
21 
1   -0.447473 
2   -0.447582 
3   -0.283691 
4   -0.288939 
5   -0.284611 
6   -0.12949 
7   -0.129072 
8   0.149285 
9   0.141959 
10   0.147945 
11   0.149854 
12   0.148052 
13   0.148108 
14   0.144365 
15   0.140534 
16   0.14483 
17   0.144975 
18   0.137487 
19   0.143091 
20   0.134763 
21   0.13561 
 
$$$$ 
 
