PCCDB-ID:  27536 
public computational chemistry database (PCCDB) project, http://pccdb.org 
 
 25 25  0  0  0  0  0  0  0  0999 V2000 
    4.1897   -3.2187    2.4823 C   0  0  0  0  0  0  0  0  0  0  0  0 
    3.0929    0.3497   -1.2741 C   0  0  0  0  0  0  0  0  0  0  0  0 
    6.1016    3.9111   -0.6549 C   0  0  0  0  0  0  0  0  0  0  0  0 
    5.6224   -2.9141    2.0737 C   0  0  0  0  0  0  0  0  0  0  0  0 
    4.1042    1.4725   -1.2753 C   0  0  0  0  0  0  0  0  0  0  0  0 
    6.0878    2.5170   -0.1377 C   0  0  0  0  0  0  0  0  0  0  0  0 
    5.2854    1.4197   -0.3739 C   0  0  0  0  0  0  0  0  0  0  0  0 
    5.8584    0.4155    0.4822 C   0  0  0  0  0  0  0  0  0  0  0  0 
    5.5244   -1.0378    0.6184 C   0  0  0  0  0  0  0  0  0  0  0  0 
    6.8937    0.8694    1.1555 N   0  0  0  0  0  0  0  0  0  0  0  0 
    3.9547    2.4560   -1.9909 O   0  0  0  0  0  0  0  0  0  0  0  0 
    5.0771   -1.7099   -0.2889 O   0  0  0  0  0  0  0  0  0  0  0  0 
    5.8127   -1.4923    1.8439 O   0  0  0  0  0  0  0  0  0  0  0  0 
    7.0334    2.1990    0.7613 O   0  0  0  0  0  0  0  0  0  0  0  0 
    4.0935   -4.2843    2.7195 H   0  0  0  0  0  0  0  0  0  0  0  0 
    3.4963   -2.9858    1.6693 H   0  0  0  0  0  0  0  0  0  0  0  0 
    3.9065   -2.6425    3.3689 H   0  0  0  0  0  0  0  0  0  0  0  0 
    3.5463   -0.5724   -1.6485 H   0  0  0  0  0  0  0  0  0  0  0  0 
    2.2502    0.6431   -1.9027 H   0  0  0  0  0  0  0  0  0  0  0  0 
    2.7419    0.1357   -0.2575 H   0  0  0  0  0  0  0  0  0  0  0  0 
    5.1003    4.3464   -0.6036 H   0  0  0  0  0  0  0  0  0  0  0  0 
    6.3902    3.9228   -1.7110 H   0  0  0  0  0  0  0  0  0  0  0  0 
    6.8070    4.5154   -0.0790 H   0  0  0  0  0  0  0  0  0  0  0  0 
    5.9051   -3.4565    1.1686 H   0  0  0  0  0  0  0  0  0  0  0  0 
    6.3281   -3.1457    2.8742 H   0  0  0  0  0  0  0  0  0  0  0  0 
  1 15  1  0  0  0  0 
  1 17  1  0  0  0  0 
  2 20  1  0  0  0  0 
  3 21  1  0  0  0  0 
  3  6  1  0  0  0  0 
  3 23  1  0  0  0  0 
  4  1  1  0  0  0  0 
  4 25  1  0  0  0  0 
  5  2  1  0  0  0  0 
  5  7  1  0  0  0  0 
  6 14  1  0  0  0  0 
  7  6  2  0  0  0  0 
  7  8  1  0  0  0  0 
  8  9  1  0  0  0  0 
  8 10  2  0  0  0  0 
  9 13  1  0  0  0  0 
 11  5  2  0  0  0  0 
 12  9  2  0  0  0  0 
 13  4  1  0  0  0  0 
 14 10  1  0  0  0  0 
 16  1  1  0  0  0  0 
 18  2  1  0  0  0  0 
 19  2  1  0  0  0  0 
 22  3  1  0  0  0  0 
 24  4  1  0  0  0  0 
M  END 
>  <HBA> 
5 
 
>  <HBD> 
0 
 
>  <TPSA> 
69.4 
 
>  <cid> 
27536 
 
>  <dipole> 
2.0 
 
>  <excitation_energy_1> 
3.956 
 
>  <excitation_energy_2> 
4.759 
 
>  <excitation_energy_3> 
5.031 
 
>  <excitation_energy_4> 
5.184 
 
>  <homo_energy> 
-6.947 
 
>  <homo_lumo_gap> 
5.412 
 
>  <logP> 
1.362 
 
>  <lumo_energy> 
-1.535 
 
>  <melting_point> 
84.07 
 
>  <molecular_refractivity> 
47.75 
 
>  <oscillator_strength_1> 
0.0004 
 
>  <oscillator_strength_2> 
0.0026 
 
>  <oscillator_strength_3> 
0.014 
 
>  <oscillator_strength_4> 
0.0682 
 
>  <open_babel_can_smiles> 
CCOC(=O)c1noc(c1C(=O)C)C 
 
>  <mulliken_charges> 
25 
1   -0.465228 
2   -0.542226 
3   -0.512133 
4   -0.047685 
5   0.406814 
6   0.403319 
7   -0.068293 
8   0.199887 
9   0.604638 
10   -0.197532 
11   -0.468681 
12   -0.482014 
13   -0.439479 
14   -0.354319 
15   0.156795 
16   0.174512 
17   0.16395 
18   0.213552 
19   0.174413 
20   0.161149 
21   0.200552 
22   0.200552 
23   0.176422 
24   0.174995 
25   0.166038 
 
>  <lowdin_charges> 
25 
1   -0.454047 
2   -0.476093 
3   -0.440791 
4   -0.12507 
5   0.172315 
6   0.134995 
7   -0.119918 
8   -0.008847 
9   0.199964 
10   -0.049984 
11   -0.251492 
12   -0.257715 
13   -0.164478 
14   -0.048403 
15   0.161052 
16   0.165201 
17   0.16003 
18   0.19246 
19   0.17234 
20   0.16594 
21   0.18847 
22   0.187156 
23   0.174497 
24   0.16193 
25   0.160489 
 
$$$$ 
 
