PCCDB-ID:  60397 
public computational chemistry database (PCCDB) project, http://pccdb.org 
 
 23 23  0  0  0  0  0  0  0  0999 V2000 
    0.6216    0.5125    0.3480 C   0  0  0  0  0  0  0  0  0  0  0  0 
    6.3526   -0.4104   -0.5263 C   0  0  0  0  0  0  0  0  0  0  0  0 
    2.9071    1.2638   -0.4647 C   0  0  0  0  0  0  0  0  0  0  0  0 
    4.2682    1.0395   -0.6747 C   0  0  0  0  0  0  0  0  0  0  0  0 
    2.7067   -0.9108    0.5222 C   0  0  0  0  0  0  0  0  0  0  0  0 
    2.1011    0.2909    0.1356 C   0  0  0  0  0  0  0  0  0  0  0  0 
    4.8843   -0.1589   -0.3000 C   0  0  0  0  0  0  0  0  0  0  0  0 
    4.0607   -1.1193    0.2973 C   0  0  0  0  0  0  0  0  0  0  0  0 
    4.8241   -3.3321   -0.0462 C   0  0  0  0  0  0  0  0  0  0  0  0 
    4.5663   -3.2838   -1.2889 N   0  0  0  0  0  0  0  0  0  0  0  0 
    5.3300   -4.3473    0.7029 O   0  0  0  0  0  0  0  0  0  0  0  0 
    4.6246   -2.3027    0.7994 O   0  0  0  0  0  0  0  0  0  0  0  0 
    0.3711    1.5782    0.3282 H   0  0  0  0  0  0  0  0  0  0  0  0 
    0.2878    0.1047    1.3087 H   0  0  0  0  0  0  0  0  0  0  0  0 
    0.0288    0.0216   -0.4353 H   0  0  0  0  0  0  0  0  0  0  0  0 
    6.8593    0.5052   -0.8460 H   0  0  0  0  0  0  0  0  0  0  0  0 
    6.5004   -1.1720   -1.3012 H   0  0  0  0  0  0  0  0  0  0  0  0 
    6.8421   -0.7734    0.3846 H   0  0  0  0  0  0  0  0  0  0  0  0 
    2.4681    2.2118   -0.7666 H   0  0  0  0  0  0  0  0  0  0  0  0 
    4.8734    1.8159   -1.1371 H   0  0  0  0  0  0  0  0  0  0  0  0 
    2.1313   -1.6948    1.0066 H   0  0  0  0  0  0  0  0  0  0  0  0 
    4.7772   -4.1618   -1.7625 H   0  0  0  0  0  0  0  0  0  0  0  0 
    5.4947   -5.1031    0.1186 H   0  0  0  0  0  0  0  0  0  0  0  0 
  1 14  1  0  0  0  0 
  2  7  1  0  0  0  0 
  2 18  1  0  0  0  0 
  3  6  1  0  0  0  0 
  4  3  2  0  0  0  0 
  4  7  1  0  0  0  0 
  5 21  1  0  0  0  0 
  6  1  1  0  0  0  0 
  6  5  2  0  0  0  0 
  7  8  2  0  0  0  0 
  8  5  1  0  0  0  0 
  8 12  1  0  0  0  0 
  9 11  1  0  0  0  0 
  9 12  1  0  0  0  0 
 10  9  2  0  0  0  0 
 13  1  1  0  0  0  0 
 15  1  1  0  0  0  0 
 16  2  1  0  0  0  0 
 17  2  1  0  0  0  0 
 19  3  1  0  0  0  0 
 20  4  1  0  0  0  0 
 22 10  1  0  0  0  0 
 23 11  1  0  0  0  0 
M  END 
>  <HBA> 
3 
 
>  <HBD> 
1 
 
>  <TPSA> 
52.32 
 
>  <cid> 
60397 
 
>  <dipole> 
1.65 
 
>  <excitation_energy_1> 
5.164 
 
>  <excitation_energy_2> 
5.27 
 
>  <excitation_energy_3> 
5.625 
 
>  <excitation_energy_4> 
5.798 
 
>  <homo_energy> 
-6.172 
 
>  <homo_lumo_gap> 
6.321 
 
>  <logP> 
2.461 
 
>  <lumo_energy> 
0.15 
 
>  <melting_point> 
104.07 
 
>  <molecular_refractivity> 
46.16 
 
>  <oscillator_strength_1> 
0.0091 
 
>  <oscillator_strength_2> 
0.0009 
 
>  <oscillator_strength_3> 
0.0026 
 
>  <oscillator_strength_4> 
0.0329 
 
>  <open_babel_can_smiles> 
Cc1ccc(cc1OC(=N)O)C 
 
>  <mulliken_charges> 
23 
1   -0.529679 
2   -0.539673 
3   -0.167076 
4   -0.203381 
5   -0.197283 
6   0.164191 
7   0.183499 
8   0.302669 
9   0.626887 
10   -0.602984 
11   -0.564942 
12   -0.50958 
13   0.155177 
14   0.15847 
15   0.166977 
16   0.150377 
17   0.178824 
18   0.166727 
19   0.119617 
20   0.123938 
21   0.130003 
22   0.276976 
23   0.410268 
 
>  <lowdin_charges> 
23 
1   -0.44112 
2   -0.444835 
3   -0.170813 
4   -0.161141 
5   -0.174651 
6   0.003076 
7   -0.008172 
8   0.103029 
9   0.189688 
10   -0.453396 
11   -0.360877 
12   -0.146696 
13   0.155755 
14   0.158759 
15   0.163529 
16   0.156589 
17   0.16949 
18   0.163752 
19   0.154611 
20   0.157199 
21   0.165186 
22   0.25773 
23   0.363309 
 
$$$$ 
 
