PCCDB-ID:  35024 
public computational chemistry database (PCCDB) project, http://pccdb.org 
 
 31 31  0  0  0  0  0  0  0  0999 V2000 
    2.4107   -0.8959   -1.6049 C   0  0  0  0  0  0  0  0  0  0  0  0 
    6.2447    6.6417   -0.6483 C   0  0  0  0  0  0  0  0  0  0  0  0 
    8.4706   -1.9910    1.5663 C   0  0  0  0  0  0  0  0  0  0  0  0 
    2.6534   -0.2770   -0.2222 C   0  0  0  0  0  0  0  0  0  0  0  0 
    5.4702    5.3403   -0.5697 C   0  0  0  0  0  0  0  0  0  0  0  0 
    7.1850   -1.3106    1.1375 C   0  0  0  0  0  0  0  0  0  0  0  0 
    4.3122    1.4025   -0.1041 C   0  0  0  0  0  0  0  0  0  0  0  0 
    5.9016    3.0796   -0.0166 C   0  0  0  0  0  0  0  0  0  0  0  0 
    6.4736    0.8725    0.5519 C   0  0  0  0  0  0  0  0  0  0  0  0 
    3.0971    1.1002   -0.3545 N   0  0  0  0  0  0  0  0  0  0  0  0 
    4.6918    2.7579   -0.2671 N   0  0  0  0  0  0  0  0  0  0  0  0 
    5.2857    0.4571    0.3233 N   0  0  0  0  0  0  0  0  0  0  0  0 
    6.8714    2.1862    0.4101 N   0  0  0  0  0  0  0  0  0  0  0  0 
    6.3986    4.3174   -0.1298 O   0  0  0  0  0  0  0  0  0  0  0  0 
    7.4860    0.0949    0.9544 O   0  0  0  0  0  0  0  0  0  0  0  0 
    1.9732   -1.8975   -1.5126 H   0  0  0  0  0  0  0  0  0  0  0  0 
    3.3519   -0.9828   -2.1600 H   0  0  0  0  0  0  0  0  0  0  0  0 
    1.7299   -0.2700   -2.1915 H   0  0  0  0  0  0  0  0  0  0  0  0 
    5.5770    7.4459   -0.9753 H   0  0  0  0  0  0  0  0  0  0  0  0 
    7.0688    6.5662   -1.3650 H   0  0  0  0  0  0  0  0  0  0  0  0 
    6.6580    6.9135    0.3283 H   0  0  0  0  0  0  0  0  0  0  0  0 
    8.2864   -3.0599    1.7178 H   0  0  0  0  0  0  0  0  0  0  0  0 
    8.8445   -1.5699    2.5050 H   0  0  0  0  0  0  0  0  0  0  0  0 
    9.2472   -1.8806    0.8027 H   0  0  0  0  0  0  0  0  0  0  0  0 
    3.3537   -0.9042    0.3456 H   0  0  0  0  0  0  0  0  0  0  0  0 
    1.7013   -0.2605    0.3264 H   0  0  0  0  0  0  0  0  0  0  0  0 
    5.0552    5.0418   -1.5366 H   0  0  0  0  0  0  0  0  0  0  0  0 
    4.6432    5.3896    0.1447 H   0  0  0  0  0  0  0  0  0  0  0  0 
    6.3953   -1.4023    1.8893 H   0  0  0  0  0  0  0  0  0  0  0  0 
    6.7966   -1.7097    0.1959 H   0  0  0  0  0  0  0  0  0  0  0  0 
    7.8221    2.4771    0.5894 H   0  0  0  0  0  0  0  0  0  0  0  0 
  1 16  1  0  0  0  0 
  1  4  1  0  0  0  0 
  2  5  1  0  0  0  0 
  2 21  1  0  0  0  0 
  3 22  1  0  0  0  0 
  3 23  1  0  0  0  0 
  4 26  1  0  0  0  0 
  4 25  1  0  0  0  0 
  5 14  1  0  0  0  0 
  5 28  1  0  0  0  0 
  6  3  1  0  0  0  0 
  6 29  1  0  0  0  0 
  7 12  2  0  0  0  0 
  8 13  1  0  0  0  0 
  9 15  1  0  0  0  0 
 10  4  1  0  0  0  0 
 10  7  1  0  0  0  0 
 11  7  2  0  0  0  0 
 11  8  2  0  0  0  0 
 12  9  2  0  0  0  0 
 13  9  1  0  0  0  0 
 13 31  1  0  0  0  0 
 14  8  1  0  0  0  0 
 15  6  1  0  0  0  0 
 17  1  1  0  0  0  0 
 18  1  1  0  0  0  0 
 19  2  1  0  0  0  0 
 20  2  1  0  0  0  0 
 24  3  1  0  0  0  0 
 27  5  1  0  0  0  0 
 30  6  1  0  0  0  0 
M  RAD  1  10   2 
M  END 
>  <HBA> 
6 
 
>  <HBD> 
1 
 
>  <TPSA> 
69.16 
 
>  <cid> 
35024 
 
>  <dipole> 
5.14 
 
>  <excitation_energy_1> 
4.868 
 
>  <excitation_energy_2> 
5.022 
 
>  <excitation_energy_3> 
5.104 
 
>  <excitation_energy_4> 
5.247 
 
>  <homo_energy> 
-5.616 
 
>  <homo_lumo_gap> 
5.812 
 
>  <logP> 
1.174 
 
>  <lumo_energy> 
0.196 
 
>  <melting_point> 
94.61 
 
>  <molecular_refractivity> 
56.54 
 
>  <oscillator_strength_1> 
0.0014 
 
>  <oscillator_strength_2> 
0.0027 
 
>  <oscillator_strength_3> 
0.0017 
 
>  <oscillator_strength_4> 
0.0001 
 
>  <open_babel_can_smiles> 
CCOC1=[N]=[C](=[N]=C(N1)OCC)[N]CC 
 
>  <mulliken_charges> 
31 
1   -0.434355 
2   -0.46285 
3   -0.463037 
4   -0.134932 
5   -0.029076 
6   -0.028936 
7   0.554903 
8   0.771844 
9   0.772729 
10   -0.459575 
11   -0.51127 
12   -0.535857 
13   -0.708868 
14   -0.509593 
15   -0.505613 
16   0.127657 
17   0.139262 
18   0.152616 
19   0.158384 
20   0.161023 
21   0.161112 
22   0.158667 
23   0.162953 
24   0.162897 
25   0.132706 
26   0.130057 
27   0.172753 
28   0.171509 
29   0.168691 
30   0.169742 
31   0.354458 
 
>  <lowdin_charges> 
31 
1   -0.446287 
2   -0.450581 
3   -0.448466 
4   -0.20338 
5   -0.115689 
6   -0.114277 
7   0.103957 
8   0.172416 
9   0.179829 
10   -0.209566 
11   -0.216367 
12   -0.246947 
13   -0.239697 
14   -0.192618 
15   -0.191382 
16   0.142414 
17   0.145457 
18   0.153769 
19   0.163569 
20   0.158991 
21   0.158339 
22   0.161402 
23   0.159665 
24   0.160143 
25   0.133766 
26   0.138564 
27   0.159103 
28   0.159226 
29   0.1574 
30   0.15781 
31   0.309435 
 
$$$$ 
 
