PCCDB-ID:  23194 
public computational chemistry database (PCCDB) project, http://pccdb.org 
 
 45 45  0  0  0  0  0  0  0  0999 V2000 
   -0.0487    4.7973   -2.1707 C   0  0  0  0  0  0  0  0  0  0  0  0 
    1.4478    4.6151   -2.4443 C   0  0  0  0  0  0  0  0  0  0  0  0 
    2.0060    3.3101   -1.8584 C   0  0  0  0  0  0  0  0  0  0  0  0 
    3.5205    3.1134   -2.0404 C   0  0  0  0  0  0  0  0  0  0  0  0 
    3.9663    2.9343   -3.5003 C   0  0  0  0  0  0  0  0  0  0  0  0 
    5.4499    2.5697   -3.6760 C   0  0  0  0  0  0  0  0  0  0  0  0 
    6.4430    3.6658   -3.2633 C   0  0  0  0  0  0  0  0  0  0  0  0 
    7.9028    3.2819   -3.5439 C   0  0  0  0  0  0  0  0  0  0  0  0 
    8.9007    4.3823   -3.1533 C   0  0  0  0  0  0  0  0  0  0  0  0 
   10.1208   -1.0801   -2.9784 C   0  0  0  0  0  0  0  0  0  0  0  0 
   10.3752    4.1115   -3.5057 C   0  0  0  0  0  0  0  0  0  0  0  0 
    9.9108   -0.4150   -1.7703 C   0  0  0  0  0  0  0  0  0  0  0  0 
   10.6599   -0.3817   -4.0615 C   0  0  0  0  0  0  0  0  0  0  0  0 
   11.1349    3.1201   -2.5938 C   0  0  0  0  0  0  0  0  0  0  0  0 
   10.2343    0.9385   -1.6505 C   0  0  0  0  0  0  0  0  0  0  0  0 
   10.9809    0.9694   -3.9355 C   0  0  0  0  0  0  0  0  0  0  0  0 
   10.7670    1.6550   -2.7300 C   0  0  0  0  0  0  0  0  0  0  0  0 
   -0.4234    5.7366   -2.5937 H   0  0  0  0  0  0  0  0  0  0  0  0 
   -0.2558    4.8102   -1.0934 H   0  0  0  0  0  0  0  0  0  0  0  0 
   -0.6335    3.9786   -2.6084 H   0  0  0  0  0  0  0  0  0  0  0  0 
    2.0042    5.4651   -2.0232 H   0  0  0  0  0  0  0  0  0  0  0  0 
    1.6221    4.6442   -3.5279 H   0  0  0  0  0  0  0  0  0  0  0  0 
    1.4745    2.4565   -2.3056 H   0  0  0  0  0  0  0  0  0  0  0  0 
    1.7737    3.2821   -0.7840 H   0  0  0  0  0  0  0  0  0  0  0  0 
    3.8303    2.2263   -1.4690 H   0  0  0  0  0  0  0  0  0  0  0  0 
    4.0473    3.9652   -1.5876 H   0  0  0  0  0  0  0  0  0  0  0  0 
    3.7538    3.8485   -4.0718 H   0  0  0  0  0  0  0  0  0  0  0  0 
    3.3552    2.1418   -3.9570 H   0  0  0  0  0  0  0  0  0  0  0  0 
    5.6256    2.3205   -4.7323 H   0  0  0  0  0  0  0  0  0  0  0  0 
    5.6667    1.6527   -3.1083 H   0  0  0  0  0  0  0  0  0  0  0  0 
    6.3296    3.8951   -2.1944 H   0  0  0  0  0  0  0  0  0  0  0  0 
    6.1999    4.5956   -3.8002 H   0  0  0  0  0  0  0  0  0  0  0  0 
    8.0157    3.0601   -4.6156 H   0  0  0  0  0  0  0  0  0  0  0  0 
    8.1401    2.3516   -3.0153 H   0  0  0  0  0  0  0  0  0  0  0  0 
    8.8185    4.5877   -2.0752 H   0  0  0  0  0  0  0  0  0  0  0  0 
    8.5994    5.3131   -3.6560 H   0  0  0  0  0  0  0  0  0  0  0  0 
    9.8719   -2.1336   -3.0744 H   0  0  0  0  0  0  0  0  0  0  0  0 
   10.9167    5.0662   -3.4595 H   0  0  0  0  0  0  0  0  0  0  0  0 
   10.4455    3.7760   -4.5499 H   0  0  0  0  0  0  0  0  0  0  0  0 
    9.4968   -0.9483   -0.9183 H   0  0  0  0  0  0  0  0  0  0  0  0 
   10.8347   -0.8917   -5.0055 H   0  0  0  0  0  0  0  0  0  0  0  0 
   11.0039    3.4293   -1.5483 H   0  0  0  0  0  0  0  0  0  0  0  0 
   12.2076    3.2299   -2.8077 H   0  0  0  0  0  0  0  0  0  0  0  0 
   10.0695    1.4487   -0.7037 H   0  0  0  0  0  0  0  0  0  0  0  0 
   11.4069    1.4997   -4.7848 H   0  0  0  0  0  0  0  0  0  0  0  0 
  1 19  1  0  0  0  0 
  2  1  1  0  0  0  0 
  2 21  1  0  0  0  0 
  2  3  1  0  0  0  0 
  3 24  1  0  0  0  0 
  4  3  1  0  0  0  0 
  4 26  1  0  0  0  0 
  4 25  1  0  0  0  0 
  5  4  1  0  0  0  0 
  6  5  1  0  0  0  0 
  6  7  1  0  0  0  0 
  6 30  1  0  0  0  0 
  7 31  1  0  0  0  0 
  8  7  1  0  0  0  0 
  8  9  1  0  0  0  0 
  8 34  1  0  0  0  0 
  9 35  1  0  0  0  0 
 10 12  2  0  0  0  0 
 11 38  1  0  0  0  0 
 11  9  1  0  0  0  0 
 11 14  1  0  0  0  0 
 12 15  1  0  0  0  0 
 12 40  1  0  0  0  0 
 13 16  2  0  0  0  0 
 13 10  1  0  0  0  0 
 14 42  1  0  0  0  0 
 15 44  1  0  0  0  0 
 16 17  1  0  0  0  0 
 17 14  1  0  0  0  0 
 17 15  2  0  0  0  0 
 18  1  1  0  0  0  0 
 20  1  1  0  0  0  0 
 22  2  1  0  0  0  0 
 23  3  1  0  0  0  0 
 27  5  1  0  0  0  0 
 28  5  1  0  0  0  0 
 29  6  1  0  0  0  0 
 32  7  1  0  0  0  0 
 33  8  1  0  0  0  0 
 36  9  1  0  0  0  0 
 37 10  1  0  0  0  0 
 39 11  1  0  0  0  0 
 41 13  1  0  0  0  0 
 43 14  1  0  0  0  0 
 45 16  1  0  0  0  0 
M  END 
>  <HBA> 
0 
 
>  <HBD> 
0 
 
>  <TPSA> 
0.0 
 
>  <cid> 
23194 
 
>  <dipole> 
0.3 
 
>  <excitation_energy_1> 
5.245 
 
>  <excitation_energy_2> 
5.76 
 
>  <excitation_energy_3> 
5.939 
 
>  <excitation_energy_4> 
6.176 
 
>  <homo_energy> 
-6.362 
 
>  <homo_lumo_gap> 
6.43 
 
>  <logP> 
5.76 
 
>  <lumo_energy> 
0.068 
 
>  <melting_point> 
0.51 
 
>  <molecular_refractivity> 
79.48 
 
>  <oscillator_strength_1> 
0.0022 
 
>  <oscillator_strength_2> 
0.0466 
 
>  <oscillator_strength_3> 
0.0037 
 
>  <oscillator_strength_4> 
0.0106 
 
>  <open_babel_can_smiles> 
CCCCCCCCCCCc1ccccc1 
 
>  <mulliken_charges> 
45 
1   -0.441221 
2   -0.247906 
3   -0.247574 
4   -0.255326 
5   -0.255091 
6   -0.255242 
7   -0.254127 
8   -0.257569 
9   -0.252455 
10   -0.13285 
11   -0.257323 
12   -0.125311 
13   -0.127204 
14   -0.349717 
15   -0.193161 
16   -0.18074 
17   0.185845 
18   0.140288 
19   0.140268 
20   0.140862 
21   0.128232 
22   0.135599 
23   0.124779 
24   0.124575 
25   0.125046 
26   0.130645 
27   0.130045 
28   0.124349 
29   0.125579 
30   0.128441 
31   0.129922 
32   0.122013 
33   0.123994 
34   0.150122 
35   0.123815 
36   0.126669 
37   0.126536 
38   0.129776 
39   0.133299 
40   0.126994 
41   0.126942 
42   0.137321 
43   0.146512 
44   0.121525 
45   0.122824 
 
>  <lowdin_charges> 
45 
1   -0.443836 
2   -0.273437 
3   -0.274223 
4   -0.279235 
5   -0.279122 
6   -0.2732 
7   -0.275131 
8   -0.278954 
9   -0.27344 
10   -0.160989 
11   -0.27224 
12   -0.157422 
13   -0.154647 
14   -0.272049 
15   -0.172345 
16   -0.168467 
17   0.000394 
18   0.14855 
19   0.143776 
20   0.14696 
21   0.138566 
22   0.138366 
23   0.137063 
24   0.137054 
25   0.139761 
26   0.139248 
27   0.13836 
28   0.139942 
29   0.138157 
30   0.138334 
31   0.136056 
32   0.134483 
33   0.134759 
34   0.15046 
35   0.134354 
36   0.139712 
37   0.154731 
38   0.14333 
39   0.139266 
40   0.15729 
41   0.156216 
42   0.14437 
43   0.151411 
44   0.153314 
45   0.154453 
 
$$$$ 
 
