PCCDB-ID:  44596 
public computational chemistry database (PCCDB) project, http://pccdb.org 
 
 28 27  0  0  1  0  0  0  0  0999 V2000 
    1.2712    0.1061    0.4845 C   0  0  0  0  0  0  0  0  0  0  0  0 
    3.2053   -1.4167   -0.0675 C   0  0  0  0  0  0  0  0  0  0  0  0 
    6.4135    2.4002   -2.5645 C   0  0  0  0  0  0  0  0  0  0  0  0 
    4.3074    2.3902   -4.8747 C   0  0  0  0  0  0  0  0  0  0  0  0 
    3.1070    0.9538   -1.0323 C   0  0  0  0  0  0  0  0  0  0  0  0 
    4.6042    1.1447   -1.3054 C   0  0  0  0  0  0  0  0  0  0  0  0 
    2.7720    0.0396    0.1631 C   0  0  0  0  0  0  0  0  0  0  0  0 
    4.9090    2.0779   -2.4917 C   0  0  2  0  0  0  0  0  0  0  0  0 
    4.3569    1.4964   -3.7237 N   0  0  0  0  0  0  0  0  0  0  0  0 
    1.0196   -0.5184    1.3502 H   0  0  0  0  0  0  0  0  0  0  0  0 
    0.6736   -0.2482   -0.3657 H   0  0  0  0  0  0  0  0  0  0  0  0 
    0.9553    1.1324    0.7068 H   0  0  0  0  0  0  0  0  0  0  0  0 
    2.9437   -2.0447    0.7926 H   0  0  0  0  0  0  0  0  0  0  0  0 
    4.2857   -1.5077   -0.2237 H   0  0  0  0  0  0  0  0  0  0  0  0 
    2.7038   -1.8364   -0.9497 H   0  0  0  0  0  0  0  0  0  0  0  0 
    6.7595    2.8910   -1.6469 H   0  0  0  0  0  0  0  0  0  0  0  0 
    6.6464    3.0655   -3.4030 H   0  0  0  0  0  0  0  0  0  0  0  0 
    7.0006    1.4805   -2.6911 H   0  0  0  0  0  0  0  0  0  0  0  0 
    3.8671    1.8566   -5.7241 H   0  0  0  0  0  0  0  0  0  0  0  0 
    5.2792    2.8016   -5.2023 H   0  0  0  0  0  0  0  0  0  0  0  0 
    3.6522    3.2384   -4.6426 H   0  0  0  0  0  0  0  0  0  0  0  0 
    2.6260    0.5680   -1.9400 H   0  0  0  0  0  0  0  0  0  0  0  0 
    2.6613    1.9432   -0.8494 H   0  0  0  0  0  0  0  0  0  0  0  0 
    5.0853    0.1746   -1.4996 H   0  0  0  0  0  0  0  0  0  0  0  0 
    5.0925    1.5503   -0.4077 H   0  0  0  0  0  0  0  0  0  0  0  0 
    3.3188    0.4179    1.0417 H   0  0  0  0  0  0  0  0  0  0  0  0 
    4.3633    3.0203   -2.3323 H   0  0  0  0  0  0  0  0  0  0  0  0 
    4.8912    0.6612   -3.9626 H   0  0  0  0  0  0  0  0  0  0  0  0 
  1 12  1  0  0  0  0 
  1 10  1  0  0  0  0 
  2  7  1  0  0  0  0 
  2 13  1  0  0  0  0 
  3  8  1  0  0  0  0 
  3 16  1  0  0  0  0 
  4 21  1  0  0  0  0 
  4  9  1  0  0  0  0 
  5 23  1  0  0  0  0 
  5  7  1  0  0  0  0 
  6  5  1  0  0  0  0 
  6 25  1  0  0  0  0 
  7  1  1  0  0  0  0 
  7 26  1  0  0  0  0 
  8 27  1  1  0  0  0 
  8  6  1  0  0  0  0 
  9  8  1  0  0  0  0 
 11  1  1  0  0  0  0 
 14  2  1  0  0  0  0 
 15  2  1  0  0  0  0 
 17  3  1  0  0  0  0 
 18  3  1  0  0  0  0 
 19  4  1  0  0  0  0 
 20  4  1  0  0  0  0 
 22  5  1  0  0  0  0 
 24  6  1  0  0  0  0 
 28  9  1  0  0  0  0 
M  END 
>  <HBA> 
1 
 
>  <HBD> 
1 
 
>  <TPSA> 
12.03 
 
>  <cid> 
44596 
 
>  <dipole> 
1.02 
 
>  <excitation_energy_1> 
5.307 
 
>  <excitation_energy_2> 
5.642 
 
>  <excitation_energy_3> 
5.8 
 
>  <excitation_energy_4> 
5.916 
 
>  <homo_energy> 
-5.744 
 
>  <homo_lumo_gap> 
8.008 
 
>  <logP> 
2.421 
 
>  <lumo_energy> 
2.264 
 
>  <melting_point> 
-0.71 
 
>  <molecular_refractivity> 
43.37 
 
>  <oscillator_strength_1> 
0.0029 
 
>  <oscillator_strength_2> 
0.0047 
 
>  <oscillator_strength_3> 
0.0043 
 
>  <oscillator_strength_4> 
0.0074 
 
>  <open_babel_can_smiles> 
CN[C@@H](CCC(C)C)C 
 
>  <mulliken_charges> 
28 
1   -0.441269 
2   -0.443992 
3   -0.454928 
4   -0.300233 
5   -0.242013 
6   -0.260006 
7   -0.064721 
8   0.04076 
9   -0.534402 
10   0.135948 
11   0.138634 
12   0.137482 
13   0.137104 
14   0.140746 
15   0.138211 
16   0.141298 
17   0.14534 
18   0.132869 
19   0.147245 
20   0.121111 
21   0.149906 
22   0.148462 
23   0.117186 
24   0.121713 
25   0.123953 
26   0.114417 
27   0.123479 
28   0.285701 
 
>  <lowdin_charges> 
28 
1   -0.444729 
2   -0.446523 
3   -0.464265 
4   -0.362797 
5   -0.276857 
6   -0.280367 
7   -0.120435 
8   -0.060942 
9   -0.359598 
10   0.146161 
11   0.146182 
12   0.145284 
13   0.14733 
14   0.14452 
15   0.145744 
16   0.150723 
17   0.150116 
18   0.143392 
19   0.150934 
20   0.120253 
21   0.148272 
22   0.150028 
23   0.135952 
24   0.135817 
25   0.140016 
26   0.131809 
27   0.135424 
28   0.248557 
 
$$$$ 
 
