PCCDB-ID:  32093 
public computational chemistry database (PCCDB) project, http://pccdb.org 
 
 18 18  0  0  0  0  0  0  0  0999 V2000 
    0.9884    0.4831    1.1824 C   0  0  0  0  0  0  0  0  0  0  0  0 
    1.9952   -3.1739   -1.4329 C   0  0  0  0  0  0  0  0  0  0  0  0 
    4.4455    0.9387    0.1109 C   0  0  0  0  0  0  0  0  0  0  0  0 
    4.7063   -0.1837   -0.6756 C   0  0  0  0  0  0  0  0  0  0  0  0 
    2.3029    0.2095    0.5047 C   0  0  0  0  0  0  0  0  0  0  0  0 
    1.5612   -2.0145   -0.5589 C   0  0  0  0  0  0  0  0  0  0  0  0 
    2.5753   -0.9305   -0.2965 C   0  0  0  0  0  0  0  0  0  0  0  0 
    3.2614    1.1347    0.6929 N   0  0  0  0  0  0  0  0  0  0  0  0 
    3.7735   -1.1121   -0.8758 N   0  0  0  0  0  0  0  0  0  0  0  0 
    0.4372   -1.9569   -0.0848 O   0  0  0  0  0  0  0  0  0  0  0  0 
    0.7200   -0.3214    1.8738 H   0  0  0  0  0  0  0  0  0  0  0  0 
    0.1702    0.5390    0.4580 H   0  0  0  0  0  0  0  0  0  0  0  0 
    1.0702    1.4276    1.7248 H   0  0  0  0  0  0  0  0  0  0  0  0 
    2.3129   -2.8195   -2.4191 H   0  0  0  0  0  0  0  0  0  0  0  0 
    1.1576   -3.8667   -1.5325 H   0  0  0  0  0  0  0  0  0  0  0  0 
    2.8603   -3.6854   -0.9980 H   0  0  0  0  0  0  0  0  0  0  0  0 
    5.2073    1.6986    0.2768 H   0  0  0  0  0  0  0  0  0  0  0  0 
    5.6748   -0.3355   -1.1476 H   0  0  0  0  0  0  0  0  0  0  0  0 
  1 13  1  0  0  0  0 
  1 11  1  0  0  0  0 
  2 16  1  0  0  0  0 
  2  6  1  0  0  0  0 
  3 17  1  0  0  0  0 
  3  8  2  0  0  0  0 
  4  3  1  0  0  0  0 
  5  8  1  0  0  0  0 
  5  1  1  0  0  0  0 
  6  7  1  0  0  0  0 
  6 10  2  0  0  0  0 
  7  5  2  0  0  0  0 
  9  4  2  0  0  0  0 
  9  7  1  0  0  0  0 
 12  1  1  0  0  0  0 
 14  2  1  0  0  0  0 
 15  2  1  0  0  0  0 
 18  4  1  0  0  0  0 
M  END 
>  <HBA> 
3 
 
>  <HBD> 
0 
 
>  <TPSA> 
42.85 
 
>  <cid> 
32093 
 
>  <dipole> 
2.36 
 
>  <excitation_energy_1> 
3.233 
 
>  <excitation_energy_2> 
3.904 
 
>  <excitation_energy_3> 
4.259 
 
>  <excitation_energy_4> 
4.843 
 
>  <homo_energy> 
-6.651 
 
>  <homo_lumo_gap> 
4.55 
 
>  <logP> 
0.988 
 
>  <lumo_energy> 
-2.101 
 
>  <melting_point> 
74.06 
 
>  <molecular_refractivity> 
37.19 
 
>  <oscillator_strength_1> 
0.0003 
 
>  <oscillator_strength_2> 
0.0019 
 
>  <oscillator_strength_3> 
0.0011 
 
>  <oscillator_strength_4> 
0.1818 
 
>  <open_babel_can_smiles> 
CC(=O)c1nccnc1C 
 
>  <mulliken_charges> 
18 
1   -0.492217 
2   -0.513095 
3   0.039929 
4   0.030707 
5   0.276486 
6   0.408889 
7   0.210405 
8   -0.426904 
9   -0.455865 
10   -0.448233 
11   0.180992 
12   0.180946 
13   0.166039 
14   0.179683 
15   0.171307 
16   0.179556 
17   0.15698 
18   0.154394 
 
>  <lowdin_charges> 
18 
1   -0.446638 
2   -0.468703 
3   -0.091365 
4   -0.112274 
5   0.073392 
6   0.158013 
7   -0.018121 
8   -0.128876 
9   -0.113599 
10   -0.229123 
11   0.177167 
12   0.176883 
13   0.165032 
14   0.177596 
15   0.169774 
16   0.178619 
17   0.167424 
18   0.1648 
 
$$$$ 
 
