PCCDB-ID:  70234 
public computational chemistry database (PCCDB) project, http://pccdb.org 
 
 17 16  0  0  0  0  0  0  0  0999 V2000 
    1.0126   -0.0749    0.0411 C   0  0  0  0  0  0  0  0  0  0  0  0 
    2.2202   -0.0637    0.0272 C   0  0  0  0  0  0  0  0  0  0  0  0 
    3.6831   -0.0349    0.0004 C   0  0  0  0  0  0  0  0  0  0  0  0 
    4.2533    0.5726   -1.2990 C   0  0  0  0  0  0  0  0  0  0  0  0 
    5.7855    0.5951   -1.3103 C   0  0  0  0  0  0  0  0  0  0  0  0 
    6.3670    1.2006   -2.5901 C   0  0  0  0  0  0  0  0  0  0  0  0 
    7.7887    1.1586   -2.6245 O   0  0  0  0  0  0  0  0  0  0  0  0 
   -0.0534   -0.0854    0.0509 H   0  0  0  0  0  0  0  0  0  0  0  0 
    4.0715   -1.0555    0.1253 H   0  0  0  0  0  0  0  0  0  0  0  0 
    4.0518    0.5376    0.8634 H   0  0  0  0  0  0  0  0  0  0  0  0 
    3.8578    1.5897   -1.4170 H   0  0  0  0  0  0  0  0  0  0  0  0 
    3.8813   -0.0067   -2.1537 H   0  0  0  0  0  0  0  0  0  0  0  0 
    6.1832   -0.4225   -1.2001 H   0  0  0  0  0  0  0  0  0  0  0  0 
    6.1505    1.1697   -0.4444 H   0  0  0  0  0  0  0  0  0  0  0  0 
    5.9951    2.2304   -2.7234 H   0  0  0  0  0  0  0  0  0  0  0  0 
    6.0385    0.6245   -3.4621 H   0  0  0  0  0  0  0  0  0  0  0  0 
    8.1143    1.7112   -1.8970 H   0  0  0  0  0  0  0  0  0  0  0  0 
  1  8  1  0  0  0  0 
  2  1  3  0  0  0  0 
  3  2  1  0  0  0  0 
  3  9  1  0  0  0  0 
  3 10  1  0  0  0  0 
  4  3  1  0  0  0  0 
  5  4  1  0  0  0  0 
  5 13  1  0  0  0  0 
  5 14  1  0  0  0  0 
  6  5  1  0  0  0  0 
  7  6  1  0  0  0  0 
  7 17  1  0  0  0  0 
 11  4  1  0  0  0  0 
 12  4  1  0  0  0  0 
 15  6  1  0  0  0  0 
 16  6  1  0  0  0  0 
M  END 
>  <HBA> 
1 
 
>  <HBD> 
1 
 
>  <TPSA> 
20.23 
 
>  <cid> 
70234 
 
>  <dipole> 
1.36 
 
>  <excitation_energy_1> 
6.455 
 
>  <excitation_energy_2> 
6.493 
 
>  <excitation_energy_3> 
6.642 
 
>  <excitation_energy_4> 
6.681 
 
>  <homo_energy> 
-7.015 
 
>  <homo_lumo_gap> 
8.487 
 
>  <logP> 
0.782 
 
>  <lumo_energy> 
1.472 
 
>  <melting_point> 
9.4 
 
>  <molecular_refractivity> 
30.28 
 
>  <oscillator_strength_1> 
0.0084 
 
>  <oscillator_strength_2> 
0.0006 
 
>  <oscillator_strength_3> 
0.0172 
 
>  <oscillator_strength_4> 
0.0001 
 
>  <open_babel_can_smiles> 
OCCCCC#C 
 
>  <mulliken_charges> 
17 
1   -0.522921 
2   0.361067 
3   -0.401441 
4   -0.264709 
5   -0.27568 
6   -0.0273 
7   -0.613711 
8   0.186146 
9   0.169739 
10   0.167256 
11   0.147563 
12   0.150726 
13   0.148142 
14   0.121394 
15   0.119701 
16   0.147958 
17   0.386069 
 
>  <lowdin_charges> 
17 
1   -0.262343 
2   -0.041128 
3   -0.258914 
4   -0.26828 
5   -0.294627 
6   -0.133492 
7   -0.468417 
8   0.20138 
9   0.165172 
10   0.165337 
11   0.147727 
12   0.151142 
13   0.148012 
14   0.135517 
15   0.124005 
16   0.147869 
17   0.34104 
 
$$$$ 
 
