PCCDB-ID:  8020 
public computational chemistry database (PCCDB) project, http://pccdb.org 
 
 13 12  0  0  0  0  0  0  0  0999 V2000 
    3.0860    1.7154    0.3284 C   0  0  0  0  0  0  0  0  0  0  0  0 
    5.0108   -1.1444   -0.9007 C   0  0  0  0  0  0  0  0  0  0  0  0 
    3.2454   -0.6261    0.5771 C   0  0  0  0  0  0  0  0  0  0  0  0 
    2.6786    0.4377   -0.1419 O   0  0  0  0  0  0  0  0  0  0  0  0 
    4.6332   -0.7560    0.4132 O   0  0  0  0  0  0  0  0  0  0  0  0 
    2.5533    2.4568   -0.2717 H   0  0  0  0  0  0  0  0  0  0  0  0 
    4.1671    1.8637    0.2180 H   0  0  0  0  0  0  0  0  0  0  0  0 
    2.8193    1.8510    1.3881 H   0  0  0  0  0  0  0  0  0  0  0  0 
    6.0986   -1.2463   -0.8990 H   0  0  0  0  0  0  0  0  0  0  0  0 
    4.7147   -0.3969   -1.6467 H   0  0  0  0  0  0  0  0  0  0  0  0 
    4.5591   -2.1109   -1.1732 H   0  0  0  0  0  0  0  0  0  0  0  0 
    2.7200   -1.5242    0.2221 H   0  0  0  0  0  0  0  0  0  0  0  0 
    3.0952   -0.4962    1.6584 H   0  0  0  0  0  0  0  0  0  0  0  0 
  1  8  1  0  0  0  0 
  2  9  1  0  0  0  0 
  2  5  1  0  0  0  0 
  3 13  1  0  0  0  0 
  4  1  1  0  0  0  0 
  4  3  1  0  0  0  0 
  5  3  1  0  0  0  0 
  6  1  1  0  0  0  0 
  7  1  1  0  0  0  0 
 10  2  1  0  0  0  0 
 11  2  1  0  0  0  0 
 12  3  1  0  0  0  0 
M  END 
>  <HBA> 
2 
 
>  <HBD> 
0 
 
>  <TPSA> 
18.46 
 
>  <cid> 
8020 
 
>  <dipole> 
0.28 
 
>  <excitation_energy_1> 
6.99 
 
>  <excitation_energy_2> 
7.119 
 
>  <excitation_energy_3> 
7.419 
 
>  <excitation_energy_4> 
7.511 
 
>  <homo_energy> 
-7.249 
 
>  <homo_lumo_gap> 
9.87 
 
>  <logP> 
0.237 
 
>  <lumo_energy> 
2.62 
 
>  <melting_point> 
-42.47 
 
>  <molecular_refractivity> 
18.7 
 
>  <oscillator_strength_1> 
0.0044 
 
>  <oscillator_strength_2> 
0.0232 
 
>  <oscillator_strength_3> 
0.0066 
 
>  <oscillator_strength_4> 
0.0154 
 
>  <open_babel_can_smiles> 
COCOC 
 
>  <mulliken_charges> 
13 
1   -0.207764 
2   -0.207939 
3   0.17913 
4   -0.454654 
5   -0.454815 
6   0.158155 
7   0.152725 
8   0.132283 
9   0.158202 
10   0.152817 
11   0.132374 
12   0.129725 
13   0.12976 
 
>  <lowdin_charges> 
13 
1   -0.281861 
2   -0.283232 
3   -0.025344 
4   -0.268382 
5   -0.269481 
6   0.157036 
7   0.141809 
8   0.132979 
9   0.153561 
10   0.144924 
11   0.134351 
12   0.133364 
13   0.130275 
 
$$$$ 
 
