PCCDB-ID:  33646 
public computational chemistry database (PCCDB) project, http://pccdb.org 
 
 15 14  0  0  0  0  0  0  0  0999 V2000 
    2.8659    0.5821    0.9170 C   0  0  0  0  0  0  0  0  0  0  0  0 
    3.3138   -0.1511   -1.4808 C   0  0  0  0  0  0  0  0  0  0  0  0 
    2.4175   -1.3228   -1.9153 C   0  0  0  0  0  0  0  0  0  0  0  0 
    1.8541    1.7224   -0.9018 N   0  0  0  0  0  0  0  0  0  0  0  0 
    2.6658    0.7282   -0.5126 N   0  0  0  0  0  0  0  0  0  0  0  0 
    3.0963   -2.1723   -2.8280 O   0  0  0  0  0  0  0  0  0  0  0  0 
    1.6872    1.8075   -2.1170 O   0  0  0  0  0  0  0  0  0  0  0  0 
    2.5304   -0.4023    1.2644 H   0  0  0  0  0  0  0  0  0  0  0  0 
    2.2770    1.3579    1.4101 H   0  0  0  0  0  0  0  0  0  0  0  0 
    3.9239    0.7050    1.1779 H   0  0  0  0  0  0  0  0  0  0  0  0 
    3.5636    0.4602   -2.3541 H   0  0  0  0  0  0  0  0  0  0  0  0 
    4.2366   -0.5348   -1.0362 H   0  0  0  0  0  0  0  0  0  0  0  0 
    1.4814   -0.9293   -2.3322 H   0  0  0  0  0  0  0  0  0  0  0  0 
    2.1660   -1.9457   -1.0507 H   0  0  0  0  0  0  0  0  0  0  0  0 
    3.1443   -1.7107   -3.6796 H   0  0  0  0  0  0  0  0  0  0  0  0 
  1 10  1  0  0  0  0 
  1  8  1  0  0  0  0 
  1  9  1  0  0  0  0 
  2 12  1  0  0  0  0 
  2  5  1  0  0  0  0 
  3  2  1  0  0  0  0 
  3 14  1  0  0  0  0 
  4  5  1  0  0  0  0 
  5  1  1  0  0  0  0 
  6  3  1  0  0  0  0 
  7  4  1  0  0  0  0 
 11  2  1  0  0  0  0 
 13  3  1  0  0  0  0 
 15  6  1  0  0  0  0 
M  RAD  2   4   2   7   2 
M  END 
>  <HBA> 
4 
 
>  <HBD> 
1 
 
>  <TPSA> 
52.9 
 
>  <cid> 
33646 
 
>  <dipole> 
2.56 
 
>  <excitation_energy_1> 
3.413 
 
>  <excitation_energy_2> 
5.541 
 
>  <excitation_energy_3> 
5.782 
 
>  <excitation_energy_4> 
5.91 
 
>  <homo_energy> 
-6.185 
 
>  <homo_lumo_gap> 
5.271 
 
>  <logP> 
-0.408 
 
>  <lumo_energy> 
-0.914 
 
>  <melting_point> 
15.73 
 
>  <molecular_refractivity> 
25.33 
 
>  <oscillator_strength_1> 
0.0013 
 
>  <oscillator_strength_2> 
0.1037 
 
>  <oscillator_strength_3> 
0.0004 
 
>  <oscillator_strength_4> 
0.0018 
 
>  <open_babel_can_smiles> 
OCCN([N][O])C 
 
>  <mulliken_charges> 
15 
1   -0.31237 
2   -0.172148 
3   -0.037203 
4   0.149081 
5   -0.206749 
6   -0.608084 
7   -0.385538 
8   0.168957 
9   0.193575 
10   0.168287 
11   0.17479 
12   0.163893 
13   0.15748 
14   0.149204 
15   0.396826 
 
>  <lowdin_charges> 
15 
1   -0.353293 
2   -0.237141 
3   -0.142405 
4   0.05032 
5   -0.041321 
6   -0.459191 
7   -0.27784 
8   0.156937 
9   0.179225 
10   0.156148 
11   0.166502 
12   0.160994 
13   0.145313 
14   0.148175 
15   0.347575 
 
$$$$ 
 
