PCCDB-ID:  67206 
public computational chemistry database (PCCDB) project, http://pccdb.org 
 
 29 31  0  0  0  0  0  0  0  0999 V2000 
   -1.4934   -0.1518    0.4373 C   0  0  0  0  0  0  0  0  0  0  0  0 
   -0.5834   -0.8618    1.2205 C   0  0  0  0  0  0  0  0  0  0  0  0 
   -1.0259    0.6887   -0.5763 C   0  0  0  0  0  0  0  0  0  0  0  0 
    3.6538    3.8054    0.3793 C   0  0  0  0  0  0  0  0  0  0  0  0 
    5.0249    3.7859    0.0430 C   0  0  0  0  0  0  0  0  0  0  0  0 
    0.7886   -0.7325    0.9917 C   0  0  0  0  0  0  0  0  0  0  0  0 
    0.3427    0.8161   -0.8091 C   0  0  0  0  0  0  0  0  0  0  0  0 
    2.8930    2.6581    0.2775 C   0  0  0  0  0  0  0  0  0  0  0  0 
    5.6174    2.6150   -0.3811 C   0  0  0  0  0  0  0  0  0  0  0  0 
    1.2715    0.1090   -0.0263 C   0  0  0  0  0  0  0  0  0  0  0  0 
    3.4701    1.4424   -0.1681 C   0  0  0  0  0  0  0  0  0  0  0  0 
    4.8645    1.4204   -0.4917 C   0  0  0  0  0  0  0  0  0  0  0  0 
    2.7356    0.2125   -0.2925 C   0  0  0  0  0  0  0  0  0  0  0  0 
    3.4305   -0.9043   -0.6963 C   0  0  0  0  0  0  0  0  0  0  0  0 
    4.8307   -0.8134   -0.9936 C   0  0  0  0  0  0  0  0  0  0  0  0 
    5.5156    0.2884   -0.9021 N   0  0  0  0  0  0  0  0  0  0  0  0 
    2.8910   -2.1521   -0.8808 O   0  0  0  0  0  0  0  0  0  0  0  0 
    5.4759   -1.9317   -1.4015 O   0  0  0  0  0  0  0  0  0  0  0  0 
   -2.5606   -0.2496    0.6159 H   0  0  0  0  0  0  0  0  0  0  0  0 
   -0.9373   -1.5114    2.0164 H   0  0  0  0  0  0  0  0  0  0  0  0 
   -1.7296    1.2429   -1.1915 H   0  0  0  0  0  0  0  0  0  0  0  0 
    3.1950    4.7278    0.7251 H   0  0  0  0  0  0  0  0  0  0  0  0 
    5.6141    4.6952    0.1253 H   0  0  0  0  0  0  0  0  0  0  0  0 
    1.4960   -1.2657    1.6222 H   0  0  0  0  0  0  0  0  0  0  0  0 
    0.7025    1.4621   -1.6047 H   0  0  0  0  0  0  0  0  0  0  0  0 
    1.8421    2.6779    0.5483 H   0  0  0  0  0  0  0  0  0  0  0  0 
    6.6711    2.5666   -0.6375 H   0  0  0  0  0  0  0  0  0  0  0  0 
    1.9347   -2.1136   -0.7027 H   0  0  0  0  0  0  0  0  0  0  0  0 
    4.8237   -2.6537   -1.4266 H   0  0  0  0  0  0  0  0  0  0  0  0 
  1 19  1  0  0  0  0 
  1  2  2  0  0  0  0 
  2 20  1  0  0  0  0 
  3  1  1  0  0  0  0 
  4 22  1  0  0  0  0 
  5 23  1  0  0  0  0 
  5  4  2  0  0  0  0 
  6  2  1  0  0  0  0 
  6 24  1  0  0  0  0 
  7  3  2  0  0  0  0 
  7 10  1  0  0  0  0 
  8  4  1  0  0  0  0 
  8 26  1  0  0  0  0 
  9  5  1  0  0  0  0 
 10  6  2  0  0  0  0 
 11  8  2  0  0  0  0 
 12  9  2  0  0  0  0 
 12 11  1  0  0  0  0 
 13 11  1  0  0  0  0 
 13 10  1  0  0  0  0 
 14 13  2  0  0  0  0 
 15 16  2  0  0  0  0 
 15 14  1  0  0  0  0 
 16 12  1  0  0  0  0 
 17 28  1  0  0  0  0 
 17 14  1  0  0  0  0 
 18 15  1  0  0  0  0 
 21  3  1  0  0  0  0 
 25  7  1  0  0  0  0 
 27  9  1  0  0  0  0 
 29 18  1  0  0  0  0 
M  END 
>  <HBA> 
2 
 
>  <HBD> 
2 
 
>  <TPSA> 
53.09 
 
>  <cid> 
67206 
 
>  <dipole> 
5.37 
 
>  <excitation_energy_1> 
4.126 
 
>  <excitation_energy_2> 
4.139 
 
>  <excitation_energy_3> 
4.533 
 
>  <excitation_energy_4> 
4.673 
 
>  <homo_energy> 
-5.916 
 
>  <homo_lumo_gap> 
4.699 
 
>  <logP> 
2.901 
 
>  <lumo_energy> 
-1.216 
 
>  <melting_point> 
209.62 
 
>  <molecular_refractivity> 
72.03 
 
>  <oscillator_strength_1> 
0.0881 
 
>  <oscillator_strength_2> 
0.0727 
 
>  <oscillator_strength_3> 
0.0047 
 
>  <oscillator_strength_4> 
0.0122 
 
>  <open_babel_can_smiles> 
Oc1nc2ccccc2c(c1O)c1ccccc1 
 
>  <mulliken_charges> 
29 
1   -0.123674 
2   -0.129375 
3   -0.133179 
4   -0.135406 
5   -0.137626 
6   -0.189805 
7   -0.150497 
8   -0.213413 
9   -0.151398 
10   0.009677 
11   0.116591 
12   0.228545 
13   0.036358 
14   0.211271 
15   0.501289 
16   -0.561661 
17   -0.684653 
18   -0.609757 
19   0.140095 
20   0.141786 
21   0.141964 
22   0.127506 
23   0.129614 
24   0.151447 
25   0.152071 
26   0.136952 
27   0.143116 
28   0.422115 
29   0.430048 
 
>  <lowdin_charges> 
29 
1   -0.149475 
2   -0.152792 
3   -0.151752 
4   -0.162954 
5   -0.158719 
6   -0.175859 
7   -0.153671 
8   -0.166643 
9   -0.154276 
10   -0.013786 
11   -0.023861 
12   0.042525 
13   -0.038488 
14   0.044266 
15   0.118206 
16   -0.160647 
17   -0.392908 
18   -0.352471 
19   0.161291 
20   0.164197 
21   0.165126 
22   0.157791 
23   0.159211 
24   0.167935 
25   0.169667 
26   0.16085 
27   0.167589 
28   0.363347 
29   0.366302 
 
$$$$ 
 
