PCCDB-ID:  70605 
public computational chemistry database (PCCDB) project, http://pccdb.org 
 
 21 20  0  0  0  0  0  0  0  0999 V2000 
    1.7058   -1.4948   -0.8942 C   0  0  0  0  0  0  0  0  0  0  0  0 
    7.9402   -0.5441   -0.0492 C   0  0  0  0  0  0  0  0  0  0  0  0 
    3.1013   -1.1608   -1.3879 C   0  0  0  0  0  0  0  0  0  0  0  0 
    6.6438    0.2435   -0.0044 C   0  0  0  0  0  0  0  0  0  0  0  0 
    4.6574    0.7550   -3.2674 N   0  0  0  0  0  0  0  0  0  0  0  0 
    4.7532    2.3569   -1.0351 O   0  0  0  0  0  0  0  0  0  0  0  0 
    3.3560    0.2304   -1.0826 O   0  0  0  0  0  0  0  0  0  0  0  0 
    5.9434    0.0261   -1.2558 O   0  0  0  0  0  0  0  0  0  0  0  0 
    4.6835    0.9880   -1.5945 P   0  0  0  0  0  0  0  0  0  0  0  0 
    1.4805   -2.5480   -1.0970 H   0  0  0  0  0  0  0  0  0  0  0  0 
    0.9579   -0.8761   -1.4001 H   0  0  0  0  0  0  0  0  0  0  0  0 
    1.6226   -1.3225    0.1834 H   0  0  0  0  0  0  0  0  0  0  0  0 
    8.4883   -0.4142    0.8907 H   0  0  0  0  0  0  0  0  0  0  0  0 
    8.5757   -0.1975   -0.8705 H   0  0  0  0  0  0  0  0  0  0  0  0 
    7.7449   -1.6121   -0.1903 H   0  0  0  0  0  0  0  0  0  0  0  0 
    3.1953   -1.3123   -2.4682 H   0  0  0  0  0  0  0  0  0  0  0  0 
    3.8592   -1.7758   -0.8893 H   0  0  0  0  0  0  0  0  0  0  0  0 
    6.8221    1.3153    0.1209 H   0  0  0  0  0  0  0  0  0  0  0  0 
    6.0043   -0.0955    0.8195 H   0  0  0  0  0  0  0  0  0  0  0  0 
    5.5743    0.8658   -3.6901 H   0  0  0  0  0  0  0  0  0  0  0  0 
    3.9847    1.3597   -3.7314 H   0  0  0  0  0  0  0  0  0  0  0  0 
  1 12  1  0  0  0  0 
  2  4  1  0  0  0  0 
  2 13  1  0  0  0  0 
  3  7  1  0  0  0  0 
  3  1  1  0  0  0  0 
  3 17  1  0  0  0  0 
  4 18  1  0  0  0  0 
  4 19  1  0  0  0  0 
  5  9  1  0  0  0  0 
  8  4  1  0  0  0  0 
  9  8  1  0  0  0  0 
  9  7  1  0  0  0  0 
  9  6  2  0  0  0  0 
 10  1  1  0  0  0  0 
 11  1  1  0  0  0  0 
 14  2  1  0  0  0  0 
 15  2  1  0  0  0  0 
 16  3  1  0  0  0  0 
 20  5  1  0  0  0  0 
 21  5  1  0  0  0  0 
M  END 
>  <HBA> 
4 
 
>  <HBD> 
1 
 
>  <TPSA> 
71.36 
 
>  <cid> 
70605 
 
>  <dipole> 
3.32 
 
>  <excitation_energy_1> 
6.306 
 
>  <excitation_energy_2> 
6.905 
 
>  <excitation_energy_3> 
7.118 
 
>  <excitation_energy_4> 
7.316 
 
>  <homo_energy> 
-7.132 
 
>  <homo_lumo_gap> 
8.599 
 
>  <logP> 
1.827 
 
>  <lumo_energy> 
1.467 
 
>  <melting_point> 
26.55 
 
>  <molecular_refractivity> 
34.88 
 
>  <oscillator_strength_1> 
0.0265 
 
>  <oscillator_strength_2> 
0.0146 
 
>  <oscillator_strength_3> 
0.0028 
 
>  <oscillator_strength_4> 
0.0003 
 
>  <open_babel_can_smiles> 
CCOP(=O)(OCC)N 
 
>  <mulliken_charges> 
21 
1   -0.453901 
2   -0.454474 
3   -0.037276 
4   -0.038613 
5   -0.837296 
6   -0.541302 
7   -0.518015 
8   -0.560897 
9   1.163703 
10   0.146777 
11   0.162538 
12   0.164578 
13   0.151894 
14   0.160388 
15   0.159372 
16   0.1622 
17   0.148778 
18   0.179681 
19   0.151917 
20   0.34502 
21   0.344928 
 
>  <lowdin_charges> 
21 
1   -0.445814 
2   -0.447235 
3   -0.116073 
4   -0.116447 
5   -0.70385 
6   -0.588049 
7   -0.397867 
8   -0.413858 
9   1.079769 
10   0.155266 
11   0.160587 
12   0.158601 
13   0.159205 
14   0.159031 
15   0.155869 
16   0.150626 
17   0.146932 
18   0.161623 
19   0.147775 
20   0.297057 
21   0.296851 
 
$$$$ 
 
