PCCDB-ID:  34178 
public computational chemistry database (PCCDB) project, http://pccdb.org 
 
 28 28  0  0  0  0  0  0  0  0999 V2000 
    3.5155   -3.3627    2.8201 C   0  0  0  0  0  0  0  0  0  0  0  0 
    1.5727   -2.5338    1.5450 C   0  0  0  0  0  0  0  0  0  0  0  0 
   -1.0149    3.0420    0.3044 C   0  0  0  0  0  0  0  0  0  0  0  0 
   -1.3989   -0.4559    3.5655 C   0  0  0  0  0  0  0  0  0  0  0  0 
   -0.0141   -0.6275    3.6173 C   0  0  0  0  0  0  0  0  0  0  0  0 
   -1.9784    0.4864    2.7231 C   0  0  0  0  0  0  0  0  0  0  0  0 
    0.2370    1.1273    1.9613 C   0  0  0  0  0  0  0  0  0  0  0  0 
    0.8195    0.1600    2.8041 C   0  0  0  0  0  0  0  0  0  0  0  0 
   -1.1501    1.2838    1.9187 C   0  0  0  0  0  0  0  0  0  0  0  0 
    2.9248   -0.9685    2.8906 C   0  0  0  0  0  0  0  0  0  0  0  0 
    2.2165    0.1055    2.8703 N   0  0  0  0  0  0  0  0  0  0  0  0 
    2.6299   -2.2477    2.5057 N   0  0  0  0  0  0  0  0  0  0  0  0 
    4.2131   -0.8565    3.3240 O   0  0  0  0  0  0  0  0  0  0  0  0 
   -1.7968    2.1908    1.1240 O   0  0  0  0  0  0  0  0  0  0  0  0 
    2.9076   -4.2524    3.0219 H   0  0  0  0  0  0  0  0  0  0  0  0 
    4.1099   -3.1345    3.7033 H   0  0  0  0  0  0  0  0  0  0  0  0 
    4.1967   -3.5906    1.9875 H   0  0  0  0  0  0  0  0  0  0  0  0 
    1.9715   -3.1967    0.7668 H   0  0  0  0  0  0  0  0  0  0  0  0 
    1.2285   -1.6150    1.0724 H   0  0  0  0  0  0  0  0  0  0  0  0 
    0.7108   -3.0212    2.0174 H   0  0  0  0  0  0  0  0  0  0  0  0 
   -1.7237    3.6768   -0.2314 H   0  0  0  0  0  0  0  0  0  0  0  0 
   -0.4194    2.4718   -0.4216 H   0  0  0  0  0  0  0  0  0  0  0  0 
   -0.3418    3.6729    0.9002 H   0  0  0  0  0  0  0  0  0  0  0  0 
   -2.0367   -1.0663    4.2003 H   0  0  0  0  0  0  0  0  0  0  0  0 
    0.4285   -1.3530    4.2933 H   0  0  0  0  0  0  0  0  0  0  0  0 
   -3.0527    0.6314    2.6767 H   0  0  0  0  0  0  0  0  0  0  0  0 
    0.8998    1.7394    1.3616 H   0  0  0  0  0  0  0  0  0  0  0  0 
    4.2707    0.0580    3.6541 H   0  0  0  0  0  0  0  0  0  0  0  0 
  1 15  1  0  0  0  0 
  1 16  1  0  0  0  0 
  2 20  1  0  0  0  0 
  2 12  1  0  0  0  0 
  3 23  1  0  0  0  0 
  3 14  1  0  0  0  0 
  4  5  1  0  0  0  0 
  4 24  1  0  0  0  0 
  5 25  1  0  0  0  0 
  6  4  2  0  0  0  0 
  7  8  1  0  0  0  0 
  8 11  1  0  0  0  0 
  8  5  2  0  0  0  0 
  9  7  2  0  0  0  0 
  9  6  1  0  0  0  0 
 10 13  1  0  0  0  0 
 11 10  2  0  0  0  0 
 12  1  1  0  0  0  0 
 12 10  1  0  0  0  0 
 13 28  1  0  0  0  0 
 14  9  1  0  0  0  0 
 17  1  1  0  0  0  0 
 18  2  1  0  0  0  0 
 19  2  1  0  0  0  0 
 21  3  1  0  0  0  0 
 22  3  1  0  0  0  0 
 26  6  1  0  0  0  0 
 27  7  1  0  0  0  0 
M  END 
>  <HBA> 
4 
 
>  <HBD> 
1 
 
>  <TPSA> 
41.57 
 
>  <cid> 
34178 
 
>  <dipole> 
2.5 
 
>  <excitation_energy_1> 
4.638 
 
>  <excitation_energy_2> 
4.752 
 
>  <excitation_energy_3> 
4.897 
 
>  <excitation_energy_4> 
5.187 
 
>  <homo_energy> 
-5.187 
 
>  <homo_lumo_gap> 
5.421 
 
>  <logP> 
1.862 
 
>  <lumo_energy> 
0.234 
 
>  <melting_point> 
77.01 
 
>  <molecular_refractivity> 
55.34 
 
>  <oscillator_strength_1> 
0.1449 
 
>  <oscillator_strength_2> 
0.0615 
 
>  <oscillator_strength_3> 
0.0588 
 
>  <oscillator_strength_4> 
0.0024 
 
>  <open_babel_can_smiles> 
COc1cccc(c1)/N=C(\N(C)C)/O 
 
>  <mulliken_charges> 
28 
1   -0.307811 
2   -0.320385 
3   -0.210059 
4   -0.14325 
5   -0.167404 
6   -0.178696 
7   -0.244208 
8   0.248514 
9   0.377209 
10   0.666472 
11   -0.57509 
12   -0.414903 
13   -0.605925 
14   -0.51177 
15   0.15585 
16   0.189358 
17   0.156326 
18   0.152855 
19   0.194327 
20   0.16572 
21   0.164357 
22   0.147633 
23   0.152285 
24   0.122773 
25   0.115964 
26   0.127459 
27   0.126242 
28   0.416157 
 
>  <lowdin_charges> 
28 
1   -0.35033 
2   -0.349799 
3   -0.282604 
4   -0.148208 
5   -0.215925 
6   -0.20519 
7   -0.243295 
8   0.059188 
9   0.104824 
10   0.175805 
11   -0.272446 
12   -0.112007 
13   -0.374893 
14   -0.201118 
15   0.153485 
16   0.175096 
17   0.148518 
18   0.15172 
19   0.17905 
20   0.155109 
21   0.161359 
22   0.144206 
23   0.146741 
24   0.156434 
25   0.154818 
26   0.160819 
27   0.165528 
28   0.363114 
 
$$$$ 
 
