PCCDB-ID:  66747 
public computational chemistry database (PCCDB) project, http://pccdb.org 
 
 22 22  0  0  0  0  0  0  0  0999 V2000 
   -2.4488   -0.2248    0.1149 C   0  0  0  0  0  0  0  0  0  0  0  0 
   -1.9011    1.0542   -0.0160 C   0  0  0  0  0  0  0  0  0  0  0  0 
   -1.6130   -1.3431    0.1643 C   0  0  0  0  0  0  0  0  0  0  0  0 
   -0.5205    1.2148   -0.0964 C   0  0  0  0  0  0  0  0  0  0  0  0 
   -0.2303   -1.1870    0.0857 C   0  0  0  0  0  0  0  0  0  0  0  0 
    4.5338   -0.5344    1.2829 C   0  0  0  0  0  0  0  0  0  0  0  0 
    3.9454   -0.7076   -0.1100 C   0  0  0  0  0  0  0  0  0  0  0  0 
    0.3218    0.0953   -0.0450 C   0  0  0  0  0  0  0  0  0  0  0  0 
    1.7904    0.3293   -0.1325 C   0  0  0  0  0  0  0  0  0  0  0  0 
    4.2462   -1.6373    2.1273 O   0  0  0  0  0  0  0  0  0  0  0  0 
    2.3038    1.4205   -0.2818 O   0  0  0  0  0  0  0  0  0  0  0  0 
    2.5040   -0.8234   -0.0254 O   0  0  0  0  0  0  0  0  0  0  0  0 
   -3.5265   -0.3501    0.1781 H   0  0  0  0  0  0  0  0  0  0  0  0 
   -2.5507    1.9241   -0.0556 H   0  0  0  0  0  0  0  0  0  0  0  0 
   -2.0391   -2.3376    0.2640 H   0  0  0  0  0  0  0  0  0  0  0  0 
   -0.0728    2.1977   -0.1993 H   0  0  0  0  0  0  0  0  0  0  0  0 
    0.4231   -2.0516    0.1190 H   0  0  0  0  0  0  0  0  0  0  0  0 
    4.1774    0.4136    1.7132 H   0  0  0  0  0  0  0  0  0  0  0  0 
    5.6249   -0.4776    1.2054 H   0  0  0  0  0  0  0  0  0  0  0  0 
    4.2748   -1.6513   -0.5509 H   0  0  0  0  0  0  0  0  0  0  0  0 
    4.2053    0.1312   -0.7599 H   0  0  0  0  0  0  0  0  0  0  0  0 
    3.2795   -1.7185    2.1574 H   0  0  0  0  0  0  0  0  0  0  0  0 
  1  3  1  0  0  0  0 
  1 13  1  0  0  0  0 
  2  1  2  0  0  0  0 
  3 15  1  0  0  0  0 
  4  8  2  0  0  0  0 
  4  2  1  0  0  0  0 
  5 17  1  0  0  0  0 
  5  3  2  0  0  0  0 
  6 18  1  0  0  0  0 
  6 10  1  0  0  0  0 
  7 12  1  0  0  0  0 
  7  6  1  0  0  0  0 
  8  5  1  0  0  0  0 
  9  8  1  0  0  0  0 
  9 12  1  0  0  0  0 
 10 22  1  0  0  0  0 
 11  9  2  0  0  0  0 
 14  2  1  0  0  0  0 
 16  4  1  0  0  0  0 
 19  6  1  0  0  0  0 
 20  7  1  0  0  0  0 
 21  7  1  0  0  0  0 
M  END 
>  <HBA> 
3 
 
>  <HBD> 
1 
 
>  <TPSA> 
46.53 
 
>  <cid> 
66747 
 
>  <dipole> 
2.28 
 
>  <excitation_energy_1> 
4.852 
 
>  <excitation_energy_2> 
4.893 
 
>  <excitation_energy_3> 
5.302 
 
>  <excitation_energy_4> 
5.454 
 
>  <homo_energy> 
-7.146 
 
>  <homo_lumo_gap> 
5.766 
 
>  <logP> 
0.836 
 
>  <lumo_energy> 
-1.38 
 
>  <melting_point> 
47.22 
 
>  <molecular_refractivity> 
43.69 
 
>  <oscillator_strength_1> 
0.0019 
 
>  <oscillator_strength_2> 
0.0186 
 
>  <oscillator_strength_3> 
0.1981 
 
>  <oscillator_strength_4> 
0.0776 
 
>  <open_babel_can_smiles> 
OCCOC(=O)c1ccccc1 
 
>  <mulliken_charges> 
22 
1   -0.116259 
2   -0.138217 
3   -0.136142 
4   -0.150774 
5   -0.161337 
6   -0.050572 
7   -0.069039 
8   0.049069 
9   0.59098 
10   -0.613014 
11   -0.486462 
12   -0.492861 
13   0.139585 
14   0.140508 
15   0.138971 
16   0.165332 
17   0.155136 
18   0.14901 
19   0.153256 
20   0.163717 
21   0.173478 
22   0.395636 
 
>  <lowdin_charges> 
22 
1   -0.135594 
2   -0.155808 
3   -0.155722 
4   -0.129005 
5   -0.142183 
6   -0.142343 
7   -0.149982 
8   -0.046661 
9   0.197128 
10   -0.463049 
11   -0.268622 
12   -0.205066 
13   0.160502 
14   0.163697 
15   0.161736 
16   0.177496 
17   0.171868 
18   0.141257 
19   0.153265 
20   0.159593 
21   0.166504 
22   0.340988 
 
$$$$ 
 
