PCCDB-ID:  14919 
public computational chemistry database (PCCDB) project, http://pccdb.org 
 
 25 24  0  0  0  0  0  0  0  0999 V2000 
    0.9537   -0.0795   -0.0760 C   0  0  0  0  0  0  0  0  0  0  0  0 
    3.0227   -0.5004   -1.4716 C   0  0  0  0  0  0  0  0  0  0  0  0 
    5.3060    2.2521   -0.3230 C   0  0  0  0  0  0  0  0  0  0  0  0 
    4.4777    1.4997    0.4126 C   0  0  0  0  0  0  0  0  0  0  0  0 
    6.7895    2.3783   -0.0988 C   0  0  0  0  0  0  0  0  0  0  0  0 
    2.9872    1.4005    0.2315 C   0  0  0  0  0  0  0  0  0  0  0  0 
    7.1482    3.7256    0.5552 C   0  0  0  0  0  0  0  0  0  0  0  0 
    2.4872   -0.0236   -0.1149 C   0  0  0  0  0  0  0  0  0  0  0  0 
    6.5770    3.8638    1.8454 O   0  0  0  0  0  0  0  0  0  0  0  0 
    0.5889   -1.0909   -0.2906 H   0  0  0  0  0  0  0  0  0  0  0  0 
    0.5176    0.5955   -0.8241 H   0  0  0  0  0  0  0  0  0  0  0  0 
    0.5654    0.2159    0.9061 H   0  0  0  0  0  0  0  0  0  0  0  0 
    2.6997   -1.5264   -1.6833 H   0  0  0  0  0  0  0  0  0  0  0  0 
    4.1169   -0.4743   -1.5042 H   0  0  0  0  0  0  0  0  0  0  0  0 
    2.6501    0.1394   -2.2828 H   0  0  0  0  0  0  0  0  0  0  0  0 
    4.8849    2.8712   -1.1189 H   0  0  0  0  0  0  0  0  0  0  0  0 
    4.9037    0.8802    1.2059 H   0  0  0  0  0  0  0  0  0  0  0  0 
    7.3276    2.2952   -1.0538 H   0  0  0  0  0  0  0  0  0  0  0  0 
    7.1445    1.5709    0.5533 H   0  0  0  0  0  0  0  0  0  0  0  0 
    2.6592    2.1008   -0.5499 H   0  0  0  0  0  0  0  0  0  0  0  0 
    2.4919    1.7173    1.1621 H   0  0  0  0  0  0  0  0  0  0  0  0 
    6.8422    4.5526   -0.1089 H   0  0  0  0  0  0  0  0  0  0  0  0 
    8.2321    3.8000    0.6921 H   0  0  0  0  0  0  0  0  0  0  0  0 
    2.8698   -0.7052    0.6606 H   0  0  0  0  0  0  0  0  0  0  0  0 
    5.6355    3.6387    1.7547 H   0  0  0  0  0  0  0  0  0  0  0  0 
  1 12  1  0  0  0  0 
  2  8  1  0  0  0  0 
  3  5  1  0  0  0  0 
  3  4  2  0  0  0  0 
  4 17  1  0  0  0  0 
  5 19  1  0  0  0  0 
  5  7  1  0  0  0  0 
  6  4  1  0  0  0  0 
  6 21  1  0  0  0  0 
  7 23  1  0  0  0  0 
  7  9  1  0  0  0  0 
  8  1  1  0  0  0  0 
  8  6  1  0  0  0  0 
  8 24  1  0  0  0  0 
 10  1  1  0  0  0  0 
 11  1  1  0  0  0  0 
 13  2  1  0  0  0  0 
 14  2  1  0  0  0  0 
 15  2  1  0  0  0  0 
 16  3  1  0  0  0  0 
 18  5  1  0  0  0  0 
 20  6  1  0  0  0  0 
 22  7  1  0  0  0  0 
 25  9  1  0  0  0  0 
M  END 
>  <HBA> 
1 
 
>  <HBD> 
1 
 
>  <TPSA> 
20.23 
 
>  <cid> 
14919 
 
>  <dipole> 
1.95 
 
>  <excitation_energy_1> 
6.177 
 
>  <excitation_energy_2> 
6.368 
 
>  <excitation_energy_3> 
6.498 
 
>  <excitation_energy_4> 
6.636 
 
>  <homo_energy> 
-6.678 
 
>  <homo_lumo_gap> 
7.089 
 
>  <logP> 
1.971 
 
>  <lumo_energy> 
0.411 
 
>  <melting_point> 
0.52 
 
>  <molecular_refractivity> 
41.26 
 
>  <oscillator_strength_1> 
0.091 
 
>  <oscillator_strength_2> 
0.0544 
 
>  <oscillator_strength_3> 
0.0015 
 
>  <oscillator_strength_4> 
0.01 
 
>  <open_babel_can_smiles> 
OCC/C=C/CC(C)C 
 
>  <mulliken_charges> 
25 
1   -0.441717 
2   -0.440497 
3   -0.126315 
4   -0.095317 
5   -0.319877 
6   -0.297243 
7   -0.020737 
8   -0.070461 
9   -0.619178 
10   0.142878 
11   0.139741 
12   0.140048 
13   0.140392 
14   0.150333 
15   0.136163 
16   0.122924 
17   0.126876 
18   0.138574 
19   0.150809 
20   0.133405 
21   0.138676 
22   0.116164 
23   0.144844 
24   0.123623 
25   0.385893 
 
>  <lowdin_charges> 
25 
1   -0.4449 
2   -0.445094 
3   -0.18013 
4   -0.16895 
5   -0.293217 
6   -0.275209 
7   -0.130828 
8   -0.119259 
9   -0.469878 
10   0.149043 
11   0.147185 
12   0.147127 
13   0.147578 
14   0.151373 
15   0.145408 
16   0.148431 
17   0.150268 
18   0.152216 
19   0.153729 
20   0.144859 
21   0.149199 
22   0.123251 
23   0.144635 
24   0.136844 
25   0.336318 
 
$$$$ 
 
