PCCDB-ID:  21973 
public computational chemistry database (PCCDB) project, http://pccdb.org 
 
 38 38  0  0  1  0  0  0  0  0999 V2000 
    9.3194   -2.1098    1.8493 C   0  0  0  0  0  0  0  0  0  0  0  0 
    8.1812   -1.2816   -0.2594 C   0  0  0  0  0  0  0  0  0  0  0  0 
    4.1644   -8.9585    0.5828 C   0  0  0  0  0  0  0  0  0  0  0  0 
    2.4657   -4.6059   -2.1677 C   0  0  0  0  0  0  0  0  0  0  0  0 
    4.7465   -5.1285    2.2927 C   0  0  0  0  0  0  0  0  0  0  0  0 
    4.5731   -6.4121    1.7538 C   0  0  0  0  0  0  0  0  0  0  0  0 
    3.7105   -4.1785    0.3392 C   0  0  0  0  0  0  0  0  0  0  0  0 
    5.5680   -1.7965    1.3342 C   0  0  0  0  0  0  0  0  0  0  0  0 
    8.0477   -1.4927    1.2589 C   0  0  0  0  0  0  0  0  0  0  0  0 
    4.3256   -4.0045    1.5944 C   0  0  0  0  0  0  0  0  0  0  0  0 
    4.5253   -2.5954    2.1532 C   0  0  1  0  0  0  0  0  0  0  0  0 
    3.9731   -6.5865    0.5109 C   0  0  0  0  0  0  0  0  0  0  0  0 
    3.5301   -5.4451   -0.2075 C   0  0  0  0  0  0  0  0  0  0  0  0 
    6.8970   -2.3217    1.6501 N   0  0  0  0  0  0  0  0  0  0  0  0 
    4.9300   -2.5964    3.5100 O   0  0  0  0  0  0  0  0  0  0  0  0 
    3.7579   -7.7870   -0.1014 O   0  0  0  0  0  0  0  0  0  0  0  0 
    2.9426   -5.7038   -1.4118 O   0  0  0  0  0  0  0  0  0  0  0  0 
   10.1938   -1.4846    1.6377 H   0  0  0  0  0  0  0  0  0  0  0  0 
    9.5088   -3.1012    1.4165 H   0  0  0  0  0  0  0  0  0  0  0  0 
    9.2247   -2.2261    2.9334 H   0  0  0  0  0  0  0  0  0  0  0  0 
    9.0372   -0.6372   -0.4922 H   0  0  0  0  0  0  0  0  0  0  0  0 
    7.2866   -0.8127   -0.6833 H   0  0  0  0  0  0  0  0  0  0  0  0 
    8.3356   -2.2405   -0.7717 H   0  0  0  0  0  0  0  0  0  0  0  0 
    3.9023   -9.7925   -0.0712 H   0  0  0  0  0  0  0  0  0  0  0  0 
    3.6402   -9.0706    1.5417 H   0  0  0  0  0  0  0  0  0  0  0  0 
    5.2478   -8.9674    0.7651 H   0  0  0  0  0  0  0  0  0  0  0  0 
    3.2772   -3.9164   -2.4390 H   0  0  0  0  0  0  0  0  0  0  0  0 
    1.6883   -4.0473   -1.6285 H   0  0  0  0  0  0  0  0  0  0  0  0 
    2.0374   -5.0325   -3.0768 H   0  0  0  0  0  0  0  0  0  0  0  0 
    5.1879   -5.0062    3.2757 H   0  0  0  0  0  0  0  0  0  0  0  0 
    4.9067   -7.2733    2.3221 H   0  0  0  0  0  0  0  0  0  0  0  0 
    3.3626   -3.3060   -0.2053 H   0  0  0  0  0  0  0  0  0  0  0  0 
    5.5382   -0.7502    1.6623 H   0  0  0  0  0  0  0  0  0  0  0  0 
    5.3128   -1.8194    0.2629 H   0  0  0  0  0  0  0  0  0  0  0  0 
    7.8894   -0.5127    1.7307 H   0  0  0  0  0  0  0  0  0  0  0  0 
    3.5678   -2.0592    2.1017 H   0  0  0  0  0  0  0  0  0  0  0  0 
    6.9936   -3.2544    1.2468 H   0  0  0  0  0  0  0  0  0  0  0  0 
    5.9087   -2.5982    3.4544 H   0  0  0  0  0  0  0  0  0  0  0  0 
  1 20  1  0  0  0  0 
  2  9  1  0  0  0  0 
  3 26  1  0  0  0  0 
  3 25  1  0  0  0  0 
  4 28  1  0  0  0  0 
  4 17  1  0  0  0  0 
  5 30  1  0  0  0  0 
  6  5  1  0  0  0  0 
  6 31  1  0  0  0  0 
  7 10  1  0  0  0  0 
  8 14  1  0  0  0  0 
  8 33  1  0  0  0  0 
  8 11  1  0  0  0  0 
  9 14  1  0  0  0  0 
  9 35  1  0  0  0  0 
  9  1  1  0  0  0  0 
 10 11  1  0  0  0  0 
 10  5  2  0  0  0  0 
 11 36  1  6  0  0  0 
 11 15  1  0  0  0  0 
 12  6  2  0  0  0  0 
 13  7  2  0  0  0  0 
 13 12  1  0  0  0  0 
 16 12  1  0  0  0  0 
 16  3  1  0  0  0  0 
 17 13  1  0  0  0  0 
 18  1  1  0  0  0  0 
 19  1  1  0  0  0  0 
 21  2  1  0  0  0  0 
 22  2  1  0  0  0  0 
 23  2  1  0  0  0  0 
 24  3  1  0  0  0  0 
 27  4  1  0  0  0  0 
 29  4  1  0  0  0  0 
 32  7  1  0  0  0  0 
 34  8  1  0  0  0  0 
 37 14  1  0  0  0  0 
 38 15  1  0  0  0  0 
M  END 
>  <HBA> 
4 
 
>  <HBD> 
2 
 
>  <TPSA> 
50.72 
 
>  <cid> 
21973 
 
>  <dipole> 
2.71 
 
>  <excitation_energy_1> 
4.837 
 
>  <excitation_energy_2> 
4.921 
 
>  <excitation_energy_3> 
5.146 
 
>  <excitation_energy_4> 
5.314 
 
>  <homo_energy> 
-5.32 
 
>  <homo_lumo_gap> 
5.665 
 
>  <logP> 
2.126 
 
>  <lumo_energy> 
0.346 
 
>  <melting_point> 
62.51 
 
>  <molecular_refractivity> 
67.58 
 
>  <oscillator_strength_1> 
0.0743 
 
>  <oscillator_strength_2> 
0.0049 
 
>  <oscillator_strength_3> 
0.0126 
 
>  <oscillator_strength_4> 
0.0291 
 
>  <open_babel_can_smiles> 
COc1cc(ccc1OC)[C@H](CNC(C)C)O 
 
>  <mulliken_charges> 
38 
1   -0.443466 
2   -0.45026 
3   -0.212579 
4   -0.211312 
5   -0.203334 
6   -0.204877 
7   -0.266504 
8   -0.14657 
9   0.052637 
10   0.127489 
11   0.073439 
12   0.337032 
13   0.338404 
14   -0.584894 
15   -0.644498 
16   -0.500336 
17   -0.500275 
18   0.144504 
19   0.138154 
20   0.155048 
21   0.144794 
22   0.148364 
23   0.139103 
24   0.168157 
25   0.150776 
26   0.147585 
27   0.145563 
28   0.150225 
29   0.169194 
30   0.134797 
31   0.129768 
32   0.122546 
33   0.147239 
34   0.126983 
35   0.13433 
36   0.136237 
37   0.304651 
38   0.401886 
 
>  <lowdin_charges> 
38 
1   -0.44566 
2   -0.46301 
3   -0.274648 
4   -0.279769 
5   -0.1781 
6   -0.210998 
7   -0.225641 
8   -0.217741 
9   -0.056042 
10   -0.0369 
11   -0.005452 
12   0.075568 
13   0.081754 
14   -0.358243 
15   -0.462466 
16   -0.190346 
17   -0.188915 
18   0.152662 
19   0.145633 
20   0.154476 
21   0.153371 
22   0.151514 
23   0.146622 
24   0.162606 
25   0.143908 
26   0.140486 
27   0.142499 
28   0.145091 
29   0.162783 
30   0.16346 
31   0.162445 
32   0.158164 
33   0.146353 
34   0.127418 
35   0.139318 
36   0.14555 
37   0.25774 
38   0.334507 
 
$$$$ 
 
