PCCDB-ID:  25029 
public computational chemistry database (PCCDB) project, http://pccdb.org 
 
 44 47  0  0  1  0  0  0  0  0999 V2000 
   -0.7620   -1.0224   -1.4703 C   0  0  0  0  0  0  0  0  0  0  0  0 
    4.3546    7.6769   -0.3507 C   0  0  0  0  0  0  0  0  0  0  0  0 
   -0.1104   -1.4391   -0.1096 C   0  0  0  0  0  0  0  0  0  0  0  0 
    3.0191    6.9636   -0.7495 C   0  0  0  0  0  0  0  0  0  0  0  0 
    1.6116   -1.1761   -1.7453 C   0  0  0  0  0  0  0  0  0  0  0  0 
    4.8561    5.7025   -1.6095 C   0  0  0  0  0  0  0  0  0  0  0  0 
    0.6984    1.0240   -1.5548 C   0  0  0  0  0  0  0  0  0  0  0  0 
    5.1618    5.5681    0.7551 C   0  0  0  0  0  0  0  0  0  0  0  0 
    2.6901    1.2488    0.0915 C   0  0  0  0  0  0  0  0  0  0  0  0 
    3.9129    3.3452    0.3844 C   0  0  0  0  0  0  0  0  0  0  0  0 
    0.4052   -0.3393   -2.2224 C   0  0  2  0  0  0  0  0  0  0  0  0 
    5.3969    6.5352   -0.4280 C   0  0  2  0  0  0  0  0  0  0  0  0 
    1.3420   -0.9223   -0.2442 C   0  0  1  0  0  0  0  0  0  0  0  0 
    3.4585    5.4986   -0.9826 C   0  0  1  0  0  0  0  0  0  0  0  0 
    1.3124    0.6296   -0.1684 C   0  0  2  0  0  0  0  0  0  0  0  0 
    3.8035    4.8739    0.3972 C   0  0  2  0  0  0  0  0  0  0  0  0 
    2.6313    2.7088    0.0911 N   0  0  0  0  0  0  0  0  0  0  0  0 
   -1.6177   -0.3500   -1.3415 H   0  0  0  0  0  0  0  0  0  0  0  0 
   -1.1201   -1.9005   -2.0205 H   0  0  0  0  0  0  0  0  0  0  0  0 
    4.3131    8.1291    0.6470 H   0  0  0  0  0  0  0  0  0  0  0  0 
    4.6022    8.4771   -1.0579 H   0  0  0  0  0  0  0  0  0  0  0  0 
   -0.1242   -2.5279    0.0167 H   0  0  0  0  0  0  0  0  0  0  0  0 
   -0.6227   -1.0056    0.7567 H   0  0  0  0  0  0  0  0  0  0  0  0 
    2.6018    7.3948   -1.6666 H   0  0  0  0  0  0  0  0  0  0  0  0 
    2.2484    7.0441    0.0257 H   0  0  0  0  0  0  0  0  0  0  0  0 
    2.5748   -0.7875   -2.0947 H   0  0  0  0  0  0  0  0  0  0  0  0 
    1.5432   -2.2361   -2.0182 H   0  0  0  0  0  0  0  0  0  0  0  0 
    5.4089    4.7703   -1.7731 H   0  0  0  0  0  0  0  0  0  0  0  0 
    4.8250    6.2575   -2.5547 H   0  0  0  0  0  0  0  0  0  0  0  0 
   -0.2021    1.6405   -1.4576 H   0  0  0  0  0  0  0  0  0  0  0  0 
    1.4225    1.6057   -2.1359 H   0  0  0  0  0  0  0  0  0  0  0  0 
    5.1308    6.0880    1.7193 H   0  0  0  0  0  0  0  0  0  0  0  0 
    5.9707    4.8276    0.8135 H   0  0  0  0  0  0  0  0  0  0  0  0 
    3.3906    0.9462   -0.6994 H   0  0  0  0  0  0  0  0  0  0  0  0 
    3.0975    0.8403    1.0385 H   0  0  0  0  0  0  0  0  0  0  0  0 
    4.3436    3.0088    1.3499 H   0  0  0  0  0  0  0  0  0  0  0  0 
    4.6266    3.0297   -0.3896 H   0  0  0  0  0  0  0  0  0  0  0  0 
    0.2573   -0.2769   -3.3051 H   0  0  0  0  0  0  0  0  0  0  0  0 
    6.4309    6.8845   -0.5109 H   0  0  0  0  0  0  0  0  0  0  0  0 
    2.0415   -1.3842    0.4605 H   0  0  0  0  0  0  0  0  0  0  0  0 
    2.7460    4.8995   -1.5543 H   0  0  0  0  0  0  0  0  0  0  0  0 
    0.6509    0.9435    0.6524 H   0  0  0  0  0  0  0  0  0  0  0  0 
    3.0304    5.1444    1.1315 H   0  0  0  0  0  0  0  0  0  0  0  0 
    1.9480    3.0110    0.7863 H   0  0  0  0  0  0  0  0  0  0  0  0 
  1 18  1  0  0  0  0 
  1  3  1  0  0  0  0 
  2 20  1  0  0  0  0 
  3 22  1  0  0  0  0 
  3 23  1  0  0  0  0 
  4  2  1  0  0  0  0 
  4 25  1  0  0  0  0 
  5 13  1  0  0  0  0 
  6 14  1  0  0  0  0 
  6 12  1  0  0  0  0 
  7 30  1  0  0  0  0 
  7 15  1  0  0  0  0 
  8 33  1  0  0  0  0 
  8 32  1  0  0  0  0 
  9 35  1  0  0  0  0 
 10 16  1  0  0  0  0 
 10 36  1  0  0  0  0 
 11 38  1  6  0  0  0 
 11  5  1  0  0  0  0 
 11  7  1  0  0  0  0 
 11  1  1  0  0  0  0 
 12 39  1  6  0  0  0 
 12  2  1  0  0  0  0 
 12  8  1  0  0  0  0 
 13 15  1  0  0  0  0 
 13  3  1  0  0  0  0 
 13 40  1  1  0  0  0 
 14 41  1  6  0  0  0 
 14  4  1  0  0  0  0 
 14 16  1  0  0  0  0 
 15  9  1  0  0  0  0 
 15 42  1  1  0  0  0 
 16  8  1  0  0  0  0 
 16 43  1  1  0  0  0 
 17  9  1  0  0  0  0 
 17 10  1  0  0  0  0 
 17 44  1  0  0  0  0 
 19  1  1  0  0  0  0 
 21  2  1  0  0  0  0 
 24  4  1  0  0  0  0 
 26  5  1  0  0  0  0 
 27  5  1  0  0  0  0 
 28  6  1  0  0  0  0 
 29  6  1  0  0  0  0 
 31  7  1  0  0  0  0 
 34  9  1  0  0  0  0 
 37 10  1  0  0  0  0 
M  END 
>  <HBA> 
1 
 
>  <HBD> 
1 
 
>  <TPSA> 
12.03 
 
>  <cid> 
25029 
 
>  <dipole> 
0.75 
 
>  <excitation_energy_1> 
5.283 
 
>  <excitation_energy_2> 
5.565 
 
>  <excitation_energy_3> 
5.727 
 
>  <excitation_energy_4> 
5.84 
 
>  <homo_energy> 
-5.848 
 
>  <homo_lumo_gap> 
8.025 
 
>  <logP> 
3.839 
 
>  <lumo_energy> 
2.177 
 
>  <melting_point> 
84.29 
 
>  <molecular_refractivity> 
73.37 
 
>  <oscillator_strength_1> 
0.0045 
 
>  <oscillator_strength_2> 
0.0029 
 
>  <oscillator_strength_3> 
0.0077 
 
>  <oscillator_strength_4> 
0.0421 
 
>  <open_babel_can_smiles> 
N(C[C@H]1C[C@H]2C[C@@H]1CC2)C[C@H]1C[C@H]2C[C@@H]1CC2 
 
>  <mulliken_charges> 
44 
1   -0.268793 
2   -0.269661 
3   -0.271876 
4   -0.273513 
5   -0.274859 
6   -0.276194 
7   -0.265498 
8   -0.282619 
9   -0.117746 
10   -0.120918 
11   -0.100843 
12   -0.09849 
13   -0.104454 
14   -0.094342 
15   -0.093271 
16   -0.090402 
17   -0.561209 
18   0.130579 
19   0.132341 
20   0.129175 
21   0.132672 
22   0.132248 
23   0.129932 
24   0.132303 
25   0.128345 
26   0.132683 
27   0.128733 
28   0.130688 
29   0.129045 
30   0.126527 
31   0.148542 
32   0.129941 
33   0.131397 
34   0.134385 
35   0.106046 
36   0.107347 
37   0.134239 
38   0.113076 
39   0.112607 
40   0.110335 
41   0.135046 
42   0.110263 
43   0.109556 
44   0.286636 
 
>  <lowdin_charges> 
44 
1   -0.286807 
2   -0.286513 
3   -0.283691 
4   -0.286419 
5   -0.285801 
6   -0.287557 
7   -0.285296 
8   -0.284889 
9   -0.203216 
10   -0.205014 
11   -0.131726 
12   -0.131838 
13   -0.136914 
14   -0.137628 
15   -0.137005 
16   -0.136668 
17   -0.361655 
18   0.142068 
19   0.143388 
20   0.140132 
21   0.143785 
22   0.140835 
23   0.141526 
24   0.143419 
25   0.140711 
26   0.141669 
27   0.140377 
28   0.140933 
29   0.142182 
30   0.142069 
31   0.15306 
32   0.141977 
33   0.14306 
34   0.138509 
35   0.11488 
36   0.115446 
37   0.139495 
38   0.137172 
39   0.13757 
40   0.139411 
41   0.151458 
42   0.132586 
43   0.13262 
44   0.248297 
 
$$$$ 
 
