PCCDB-ID:  61265 
public computational chemistry database (PCCDB) project, http://pccdb.org 
 
 21 20  0  0  0  0  0  0  0  0999 V2000 
    1.2281   -2.4179    0.8251 C   0  0  0  0  0  0  0  0  0  0  0  0 
    6.7406   -2.2484   -1.4706 C   0  0  0  0  0  0  0  0  0  0  0  0 
    2.6179   -2.2213    0.2118 C   0  0  0  0  0  0  0  0  0  0  0  0 
    2.7563   -0.8976   -0.5483 C   0  0  0  0  0  0  0  0  0  0  0  0 
    4.1443   -0.6874   -1.1712 C   0  0  0  0  0  0  0  0  0  0  0  0 
    5.4791   -2.3092   -2.3101 C   0  0  0  0  0  0  0  0  0  0  0  0 
    4.3944   -1.6691   -2.2066 N   0  0  0  0  0  0  0  0  0  0  0  0 
    5.5558   -3.2007   -3.3527 O   0  0  0  0  0  0  0  0  0  0  0  0 
    1.1564   -3.3733    1.3578 H   0  0  0  0  0  0  0  0  0  0  0  0 
    0.4507   -2.4095    0.0512 H   0  0  0  0  0  0  0  0  0  0  0  0 
    0.9907   -1.6197    1.5398 H   0  0  0  0  0  0  0  0  0  0  0  0 
    6.6449   -1.5697   -0.6227 H   0  0  0  0  0  0  0  0  0  0  0  0 
    7.5849   -1.9079   -2.0834 H   0  0  0  0  0  0  0  0  0  0  0  0 
    6.9889   -3.2447   -1.0831 H   0  0  0  0  0  0  0  0  0  0  0  0 
    2.8398   -3.0475   -0.4750 H   0  0  0  0  0  0  0  0  0  0  0  0 
    3.3779   -2.2640    1.0067 H   0  0  0  0  0  0  0  0  0  0  0  0 
    2.5493   -0.0572    0.1300 H   0  0  0  0  0  0  0  0  0  0  0  0 
    2.0069   -0.8548   -1.3494 H   0  0  0  0  0  0  0  0  0  0  0  0 
    4.8992   -0.6771   -0.3660 H   0  0  0  0  0  0  0  0  0  0  0  0 
    4.1701    0.3077   -1.6381 H   0  0  0  0  0  0  0  0  0  0  0  0 
    6.4221   -3.6350   -3.3352 H   0  0  0  0  0  0  0  0  0  0  0  0 
  1  9  1  0  0  0  0 
  1 11  1  0  0  0  0 
  2 14  1  0  0  0  0 
  2 12  1  0  0  0  0 
  3  1  1  0  0  0  0 
  3 16  1  0  0  0  0 
  4 17  1  0  0  0  0 
  4  3  1  0  0  0  0 
  5  4  1  0  0  0  0 
  5 19  1  0  0  0  0 
  6  7  2  0  0  0  0 
  6  2  1  0  0  0  0 
  7  5  1  0  0  0  0 
  8 21  1  0  0  0  0 
  8  6  1  0  0  0  0 
 10  1  1  0  0  0  0 
 13  2  1  0  0  0  0 
 15  3  1  0  0  0  0 
 18  4  1  0  0  0  0 
 20  5  1  0  0  0  0 
M  END 
>  <HBA> 
2 
 
>  <HBD> 
1 
 
>  <TPSA> 
29.1 
 
>  <cid> 
61265 
 
>  <dipole> 
3.45 
 
>  <excitation_energy_1> 
5.693 
 
>  <excitation_energy_2> 
5.784 
 
>  <excitation_energy_3> 
5.846 
 
>  <excitation_energy_4> 
6.47 
 
>  <homo_energy> 
-6.539 
 
>  <homo_lumo_gap> 
7.328 
 
>  <logP> 
1.313 
 
>  <lumo_energy> 
0.789 
 
>  <melting_point> 
22.01 
 
>  <molecular_refractivity> 
33.96 
 
>  <oscillator_strength_1> 
0.002 
 
>  <oscillator_strength_2> 
0.0026 
 
>  <oscillator_strength_3> 
0.0059 
 
>  <oscillator_strength_4> 
0.0157 
 
>  <open_babel_can_smiles> 
CCCC/N=C(/O)\C 
 
>  <mulliken_charges> 
21 
1   -0.440992 
2   -0.557326 
3   -0.24902 
4   -0.241831 
5   -0.150923 
6   0.490101 
7   -0.401737 
8   -0.579757 
9   0.138943 
10   0.144471 
11   0.137487 
12   0.18227 
13   0.174265 
14   0.169406 
15   0.150483 
16   0.117405 
17   0.120545 
18   0.144299 
19   0.10805 
20   0.142863 
21   0.400998 
 
>  <lowdin_charges> 
21 
1   -0.444838 
2   -0.485129 
3   -0.277043 
4   -0.279155 
5   -0.198239 
6   0.127381 
7   -0.20034 
8   -0.375869 
9   0.147602 
10   0.148384 
11   0.144621 
12   0.173105 
13   0.16939 
14   0.165523 
15   0.149247 
16   0.133047 
17   0.138253 
18   0.148671 
19   0.118487 
20   0.146422 
21   0.35048 
 
$$$$ 
 
