PCCDB-ID:  26320 
public computational chemistry database (PCCDB) project, http://pccdb.org 
 
 21 21  0  0  0  0  0  0  0  0999 V2000 
    1.2825   -0.5989   -0.1190 C   0  0  0  0  0  0  0  0  0  0  0  0 
    4.5188   -4.9758    2.6927 C   0  0  0  0  0  0  0  0  0  0  0  0 
    4.5850   -0.9901    3.0613 C   0  0  0  0  0  0  0  0  0  0  0  0 
    2.9799   -0.8020    1.5185 C   0  0  0  0  0  0  0  0  0  0  0  0 
    3.7344   -2.8240    2.0958 C   0  0  0  0  0  0  0  0  0  0  0  0 
    5.6572    0.9391    4.0993 N   0  0  0  0  0  0  0  0  0  0  0  0 
    3.7997   -0.1621    2.3620 N   0  0  0  0  0  0  0  0  0  0  0  0 
    4.6071   -2.3417    2.9710 N   0  0  0  0  0  0  0  0  0  0  0  0 
    2.8858   -2.1171    1.3320 N   0  0  0  0  0  0  0  0  0  0  0  0 
    5.4466   -0.4409    3.9541 N   0  0  0  0  0  0  0  0  0  0  0  0 
    2.1909    0.0100    0.8089 O   0  0  0  0  0  0  0  0  0  0  0  0 
    3.6495   -4.1455    1.9134 O   0  0  0  0  0  0  0  0  0  0  0  0 
    0.7506    0.2343   -0.5804 H   0  0  0  0  0  0  0  0  0  0  0  0 
    0.5838   -1.2623    0.3974 H   0  0  0  0  0  0  0  0  0  0  0  0 
    1.8237   -1.1750   -0.8741 H   0  0  0  0  0  0  0  0  0  0  0  0 
    4.2780   -5.9970    2.3941 H   0  0  0  0  0  0  0  0  0  0  0  0 
    4.3373   -4.8367    3.7620 H   0  0  0  0  0  0  0  0  0  0  0  0 
    5.5678   -4.7525    2.4790 H   0  0  0  0  0  0  0  0  0  0  0  0 
    4.8021    1.3432    4.4832 H   0  0  0  0  0  0  0  0  0  0  0  0 
    5.7472    1.3409    3.1645 H   0  0  0  0  0  0  0  0  0  0  0  0 
    6.1218   -1.0474    4.3956 H   0  0  0  0  0  0  0  0  0  0  0  0 
  1 14  1  0  0  0  0 
  1 11  1  0  0  0  0 
  2 17  1  0  0  0  0 
  3 10  1  0  0  0  0 
  4  7  2  0  0  0  0 
  5  8  2  0  0  0  0 
  6 19  1  0  0  0  0 
  7  3  2  0  0  0  0 
  8  3  1  0  0  0  0 
  9  4  2  0  0  0  0 
  9  5  2  0  0  0  0 
 10  6  1  0  0  0  0 
 10 21  1  0  0  0  0 
 11  4  1  0  0  0  0 
 12  5  1  0  0  0  0 
 12  2  1  0  0  0  0 
 13  1  1  0  0  0  0 
 15  1  1  0  0  0  0 
 16  2  1  0  0  0  0 
 18  2  1  0  0  0  0 
 20  6  1  0  0  0  0 
M  END 
>  <HBA> 
7 
 
>  <HBD> 
2 
 
>  <TPSA> 
95.18 
 
>  <cid> 
26320 
 
>  <dipole> 
0.99 
 
>  <excitation_energy_1> 
5.503 
 
>  <excitation_energy_2> 
5.725 
 
>  <excitation_energy_3> 
5.91 
 
>  <excitation_energy_4> 
5.925 
 
>  <homo_energy> 
-6.618 
 
>  <homo_lumo_gap> 
6.531 
 
>  <logP> 
-0.052 
 
>  <lumo_energy> 
-0.087 
 
>  <melting_point> 
151.52 
 
>  <molecular_refractivity> 
40.02 
 
>  <oscillator_strength_1> 
0.0147 
 
>  <oscillator_strength_2> 
0.0002 
 
>  <oscillator_strength_3> 
0.0045 
 
>  <oscillator_strength_4> 
0.004 
 
>  <open_babel_can_smiles> 
NNC1=[N]=[C](=[N]=[C](=N1)OC)OC 
 
>  <mulliken_charges> 
21 
1   -0.208576 
2   -0.207393 
3   0.685931 
4   0.680045 
5   0.684861 
6   -0.551907 
7   -0.538275 
8   -0.560667 
9   -0.533225 
10   -0.532912 
11   -0.464551 
12   -0.462903 
13   0.164162 
14   0.171202 
15   0.171054 
16   0.166858 
17   0.167477 
18   0.166247 
19   0.32891 
20   0.328198 
21   0.345464 
 
>  <lowdin_charges> 
21 
1   -0.27835 
2   -0.270586 
3   0.137712 
4   0.176106 
5   0.178962 
6   -0.447116 
7   -0.247925 
8   -0.258843 
9   -0.239797 
10   -0.21214 
11   -0.160801 
12   -0.161365 
13   0.160837 
14   0.161176 
15   0.16104 
16   0.159934 
17   0.155748 
18   0.155439 
19   0.268161 
20   0.266226 
21   0.29558 
 
$$$$ 
 
