PCCDB-ID:  65946 
public computational chemistry database (PCCDB) project, http://pccdb.org 
 
 24 24  0  0  1  0  0  0  0  0999 V2000 
    1.1806    1.5495    0.9807 C   0  0  0  0  0  0  0  0  0  0  0  0 
    1.6575    0.7458   -0.2177 C   0  0  0  0  0  0  0  0  0  0  0  0 
    7.1121    0.1097   -1.0582 C   0  0  0  0  0  0  0  0  0  0  0  0 
    5.9527   -1.1628    0.8139 C   0  0  0  0  0  0  0  0  0  0  0  0 
    5.6972    0.6814   -0.8206 C   0  0  2  0  0  0  0  0  0  0  0  0 
    5.7833    2.2003   -0.5982 C   0  0  0  0  0  0  0  0  0  0  0  0 
    3.7391   -0.2076    0.4353 C   0  0  0  0  0  0  0  0  0  0  0  0 
    5.1208   -0.0518    0.3292 N   0  0  0  0  0  0  0  0  0  0  0  0 
    6.0405    2.9564   -1.5013 O   0  0  0  0  0  0  0  0  0  0  0  0 
    5.6162    2.6158    0.6719 O   0  0  0  0  0  0  0  0  0  0  0  0 
    3.1954   -1.0469    1.1259 O   0  0  0  0  0  0  0  0  0  0  0  0 
    3.1078    0.7331   -0.2975 O   0  0  0  0  0  0  0  0  0  0  0  0 
    7.0045   -1.6623   -0.6052 S   0  0  0  0  0  0  0  0  0  0  0  0 
    0.0872    1.6204    0.9652 H   0  0  0  0  0  0  0  0  0  0  0  0 
    1.5920    2.5637    0.9575 H   0  0  0  0  0  0  0  0  0  0  0  0 
    1.4782    1.0635    1.9144 H   0  0  0  0  0  0  0  0  0  0  0  0 
    1.3478    1.2019   -1.1604 H   0  0  0  0  0  0  0  0  0  0  0  0 
    1.3039   -0.2866   -0.1769 H   0  0  0  0  0  0  0  0  0  0  0  0 
    7.8552    0.6114   -0.4296 H   0  0  0  0  0  0  0  0  0  0  0  0 
    7.4067    0.2202   -2.1023 H   0  0  0  0  0  0  0  0  0  0  0  0 
    5.3140   -1.9826    1.1404 H   0  0  0  0  0  0  0  0  0  0  0  0 
    6.5831   -0.8352    1.6465 H   0  0  0  0  0  0  0  0  0  0  0  0 
    5.0822    0.5244   -1.7091 H   0  0  0  0  0  0  0  0  0  0  0  0 
    5.3757    1.8315    1.2048 H   0  0  0  0  0  0  0  0  0  0  0  0 
  1 16  1  0  0  0  0 
  2 18  1  0  0  0  0 
  2  1  1  0  0  0  0 
  3  5  1  0  0  0  0 
  3 13  1  0  0  0  0 
  3 19  1  0  0  0  0 
  4 21  1  0  0  0  0 
  4 22  1  0  0  0  0 
  5 23  1  6  0  0  0 
  5  6  1  0  0  0  0 
  5  8  1  0  0  0  0 
  6 10  1  0  0  0  0 
  7 11  2  0  0  0  0 
  8  7  1  0  0  0  0 
  8  4  1  0  0  0  0 
  9  6  2  0  0  0  0 
 10 24  1  0  0  0  0 
 12  2  1  0  0  0  0 
 12  7  1  0  0  0  0 
 13  4  1  0  0  0  0 
 14  1  1  0  0  0  0 
 15  1  1  0  0  0  0 
 17  2  1  0  0  0  0 
 20  3  1  0  0  0  0 
M  END 
>  <HBA> 
6 
 
>  <HBD> 
1 
 
>  <TPSA> 
92.14 
 
>  <cid> 
65946 
 
>  <dipole> 
2.02 
 
>  <excitation_energy_1> 
4.945 
 
>  <excitation_energy_2> 
5.493 
 
>  <excitation_energy_3> 
5.693 
 
>  <excitation_energy_4> 
6.045 
 
>  <homo_energy> 
-6.754 
 
>  <homo_lumo_gap> 
6.392 
 
>  <logP> 
0.54 
 
>  <lumo_energy> 
-0.362 
 
>  <melting_point> 
106.89 
 
>  <molecular_refractivity> 
51.5 
 
>  <oscillator_strength_1> 
0.0005 
 
>  <oscillator_strength_2> 
0.0029 
 
>  <oscillator_strength_3> 
0.0071 
 
>  <oscillator_strength_4> 
0.0171 
 
>  <open_babel_can_smiles> 
CCOC(=O)N1CSC[C@@H]1C(=O)O 
 
>  <mulliken_charges> 
24 
1   -0.467853 
2   -0.043291 
3   -0.453893 
4   -0.290003 
5   -0.043393 
6   0.608738 
7   0.794269 
8   -0.524256 
9   -0.449812 
10   -0.568149 
11   -0.505043 
12   -0.481117 
13   0.128164 
14   0.157403 
15   0.168048 
16   0.175892 
17   0.163931 
18   0.178295 
19   0.193499 
20   0.213757 
21   0.226883 
22   0.187623 
23   0.205352 
24   0.424956 
 
>  <lowdin_charges> 
24 
1   -0.453505 
2   -0.118495 
3   -0.37182 
4   -0.296924 
5   -0.101418 
6   0.186525 
7   0.207372 
8   -0.152267 
9   -0.243121 
10   -0.347239 
11   -0.294109 
12   -0.200091 
13   0.119604 
14   0.161286 
15   0.160752 
16   0.165511 
17   0.158581 
18   0.16198 
19   0.168513 
20   0.18945 
21   0.196486 
22   0.160334 
23   0.182786 
24   0.35981 
 
$$$$ 
 
