PCCDB-ID:  21445 
public computational chemistry database (PCCDB) project, http://pccdb.org 
 
 26 26  0  0  0  0  0  0  0  0999 V2000 
   -0.2004    0.3981   -3.1206 C   0  0  0  0  0  0  0  0  0  0  0  0 
    1.0536   -0.3093   -2.5826 C   0  0  0  0  0  0  0  0  0  0  0  0 
   -0.8184    1.3234   -2.0609 C   0  0  0  0  0  0  0  0  0  0  0  0 
    0.7522   -1.0756   -1.2850 C   0  0  0  0  0  0  0  0  0  0  0  0 
   -1.1201    0.5684   -0.7566 C   0  0  0  0  0  0  0  0  0  0  0  0 
    2.7216    1.7486    1.5967 C   0  0  0  0  0  0  0  0  0  0  0  0 
    0.7161    3.6224    1.6384 C   0  0  0  0  0  0  0  0  0  0  0  0 
    0.0976   -0.1869   -0.2230 C   0  0  0  0  0  0  0  0  0  0  0  0 
    1.8862    0.5336    1.2191 C   0  0  0  0  0  0  0  0  0  0  0  0 
   -0.0580    4.1531    0.9461 N   0  0  0  0  0  0  0  0  0  0  0  0 
    1.9678   -0.5372    1.7789 O   0  0  0  0  0  0  0  0  0  0  0  0 
    1.0577    0.8374    0.2120 O   0  0  0  0  0  0  0  0  0  0  0  0 
    1.8143    2.9082    2.7247 S   0  0  0  0  0  0  0  0  0  0  0  0 
   -0.9409   -0.3593   -3.4205 H   0  0  0  0  0  0  0  0  0  0  0  0 
    0.0449    0.9682   -4.0252 H   0  0  0  0  0  0  0  0  0  0  0  0 
    1.8366    0.4365   -2.3893 H   0  0  0  0  0  0  0  0  0  0  0  0 
    1.4573   -0.9999   -3.3331 H   0  0  0  0  0  0  0  0  0  0  0  0 
   -1.7407    1.7783   -2.4416 H   0  0  0  0  0  0  0  0  0  0  0  0 
   -0.1306    2.1500   -1.8427 H   0  0  0  0  0  0  0  0  0  0  0  0 
    1.6569   -1.5322   -0.8688 H   0  0  0  0  0  0  0  0  0  0  0  0 
    0.0538   -1.8979   -1.4958 H   0  0  0  0  0  0  0  0  0  0  0  0 
   -1.9109   -0.1749   -0.9304 H   0  0  0  0  0  0  0  0  0  0  0  0 
   -1.4875    1.2571    0.0122 H   0  0  0  0  0  0  0  0  0  0  0  0 
    3.0570    2.3041    0.7193 H   0  0  0  0  0  0  0  0  0  0  0  0 
    3.5776    1.4215    2.1899 H   0  0  0  0  0  0  0  0  0  0  0  0 
   -0.1572   -0.7777    0.6606 H   0  0  0  0  0  0  0  0  0  0  0  0 
  1  2  1  0  0  0  0 
  1  3  1  0  0  0  0 
  2 16  1  0  0  0  0 
  2  4  1  0  0  0  0 
  3 19  1  0  0  0  0 
  3  5  1  0  0  0  0 
  4 20  1  0  0  0  0 
  4  8  1  0  0  0  0 
  5  8  1  0  0  0  0 
  5 23  1  0  0  0  0 
  6 25  1  0  0  0  0 
  6 13  1  0  0  0  0 
  7 13  1  0  0  0  0 
  8 12  1  0  0  0  0 
  8 26  1  0  0  0  0 
  9  6  1  0  0  0  0 
  9 11  2  0  0  0  0 
 10  7  3  0  0  0  0 
 12  9  1  0  0  0  0 
 14  1  1  0  0  0  0 
 15  1  1  0  0  0  0 
 17  2  1  0  0  0  0 
 18  3  1  0  0  0  0 
 21  4  1  0  0  0  0 
 22  5  1  0  0  0  0 
 24  6  1  0  0  0  0 
M  END 
>  <HBA> 
4 
 
>  <HBD> 
0 
 
>  <TPSA> 
75.39 
 
>  <cid> 
21445 
 
>  <dipole> 
2.29 
 
>  <excitation_energy_1> 
4.594 
 
>  <excitation_energy_2> 
5.286 
 
>  <excitation_energy_3> 
5.868 
 
>  <excitation_energy_4> 
5.978 
 
>  <homo_energy> 
-7.309 
 
>  <homo_lumo_gap> 
5.919 
 
>  <logP> 
2.077 
 
>  <lumo_energy> 
-1.391 
 
>  <melting_point> 
49.34 
 
>  <molecular_refractivity> 
51.89 
 
>  <oscillator_strength_1> 
0.0036 
 
>  <oscillator_strength_2> 
0.0085 
 
>  <oscillator_strength_3> 
0.0036 
 
>  <oscillator_strength_4> 
0.0194 
 
>  <open_babel_can_smiles> 
N#CSCC(=O)OC1CCCCC1 
 
>  <mulliken_charges> 
26 
1   -0.261853 
2   -0.260667 
3   -0.264486 
4   -0.282029 
5   -0.280366 
6   -0.526572 
7   0.137433 
8   0.107281 
9   0.634563 
10   -0.383139 
11   -0.459025 
12   -0.453148 
13   0.251075 
14   0.12688 
15   0.135866 
16   0.137171 
17   0.135813 
18   0.138383 
19   0.157299 
20   0.156543 
21   0.140538 
22   0.137416 
23   0.16261 
24   0.226178 
25   0.223183 
26   0.163054 
 
>  <lowdin_charges> 
26 
1   -0.280035 
2   -0.282112 
3   -0.280799 
4   -0.28907 
5   -0.286011 
6   -0.385768 
7   -0.165402 
8   0.005214 
9   0.185073 
10   -0.112714 
11   -0.253428 
12   -0.182068 
13   0.281106 
14   0.137577 
15   0.146766 
16   0.142682 
17   0.148005 
18   0.14917 
19   0.152503 
20   0.157418 
21   0.150972 
22   0.148813 
23   0.161956 
24   0.193543 
25   0.197321 
26   0.159287 
 
$$$$ 
 
