PCCDB-ID:  20513 
public computational chemistry database (PCCDB) project, http://pccdb.org 
 
 28 27  0  0  0  0  0  0  0  0999 V2000 
    8.3088    0.5587   -0.8216 C   0  0  0  0  0  0  0  0  0  0  0  0 
    5.0782   -0.3259   -6.4600 C   0  0  0  0  0  0  0  0  0  0  0  0 
    6.4515   -4.2333   -4.4257 C   0  0  0  0  0  0  0  0  0  0  0  0 
    8.2914    0.1004   -2.2835 C   0  0  0  0  0  0  0  0  0  0  0  0 
    5.5379   -1.7065   -5.9823 C   0  0  0  0  0  0  0  0  0  0  0  0 
    5.5246   -3.0930   -3.9639 C   0  0  0  0  0  0  0  0  0  0  0  0 
    7.0207   -0.6752   -2.6557 C   0  0  0  0  0  0  0  0  0  0  0  0 
    7.0186   -1.1382   -4.1182 C   0  0  0  0  0  0  0  0  0  0  0  0 
    5.7601   -1.7627   -4.5341 N   0  0  0  0  0  0  0  0  0  0  0  0 
    9.2265    1.1094   -0.5852 H   0  0  0  0  0  0  0  0  0  0  0  0 
    8.2480   -0.2967   -0.1374 H   0  0  0  0  0  0  0  0  0  0  0  0 
    7.4589    1.2167   -0.6031 H   0  0  0  0  0  0  0  0  0  0  0  0 
    4.8768   -0.3438   -7.5377 H   0  0  0  0  0  0  0  0  0  0  0  0 
    5.8337    0.4469   -6.2811 H   0  0  0  0  0  0  0  0  0  0  0  0 
    4.1634   -0.0288   -5.9370 H   0  0  0  0  0  0  0  0  0  0  0  0 
    6.1653   -5.1706   -3.9339 H   0  0  0  0  0  0  0  0  0  0  0  0 
    7.5003   -4.0380   -4.1765 H   0  0  0  0  0  0  0  0  0  0  0  0 
    6.3880   -4.3932   -5.5080 H   0  0  0  0  0  0  0  0  0  0  0  0 
    9.1728   -0.5267   -2.4801 H   0  0  0  0  0  0  0  0  0  0  0  0 
    8.3893    0.9757   -2.9416 H   0  0  0  0  0  0  0  0  0  0  0  0 
    6.4296   -2.0195   -6.5586 H   0  0  0  0  0  0  0  0  0  0  0  0 
    4.7508   -2.4321   -6.2212 H   0  0  0  0  0  0  0  0  0  0  0  0 
    5.5777   -3.0081   -2.8726 H   0  0  0  0  0  0  0  0  0  0  0  0 
    4.4862   -3.3642   -4.1947 H   0  0  0  0  0  0  0  0  0  0  0  0 
    6.1342   -0.0489   -2.4892 H   0  0  0  0  0  0  0  0  0  0  0  0 
    6.9230   -1.5366   -1.9810 H   0  0  0  0  0  0  0  0  0  0  0  0 
    7.8931   -1.7936   -4.2987 H   0  0  0  0  0  0  0  0  0  0  0  0 
    7.1734   -0.2567   -4.7503 H   0  0  0  0  0  0  0  0  0  0  0  0 
  1 12  1  0  0  0  0 
  1 10  1  0  0  0  0 
  1 11  1  0  0  0  0 
  2 14  1  0  0  0  0 
  2  5  1  0  0  0  0 
  2 15  1  0  0  0  0 
  3 17  1  0  0  0  0 
  3  6  1  0  0  0  0 
  3 16  1  0  0  0  0 
  4  1  1  0  0  0  0 
  5  9  1  0  0  0  0 
  6 23  1  0  0  0  0 
  7 25  1  0  0  0  0 
  7  4  1  0  0  0  0 
  7 26  1  0  0  0  0 
  8  7  1  0  0  0  0 
  9  8  1  0  0  0  0 
  9  6  1  0  0  0  0 
 13  2  1  0  0  0  0 
 18  3  1  0  0  0  0 
 19  4  1  0  0  0  0 
 20  4  1  0  0  0  0 
 21  5  1  0  0  0  0 
 22  5  1  0  0  0  0 
 24  6  1  0  0  0  0 
 27  8  1  0  0  0  0 
 28  8  1  0  0  0  0 
M  END 
>  <HBA> 
1 
 
>  <HBD> 
0 
 
>  <TPSA> 
3.24 
 
>  <cid> 
20513 
 
>  <dipole> 
0.54 
 
>  <excitation_energy_1> 
5.01 
 
>  <excitation_energy_2> 
5.358 
 
>  <excitation_energy_3> 
5.406 
 
>  <excitation_energy_4> 
5.493 
 
>  <homo_energy> 
-5.372 
 
>  <homo_lumo_gap> 
7.617 
 
>  <logP> 
2.128 
 
>  <lumo_energy> 
2.245 
 
>  <melting_point> 
-25.25 
 
>  <molecular_refractivity> 
43.47 
 
>  <oscillator_strength_1> 
0.0238 
 
>  <oscillator_strength_2> 
0.0124 
 
>  <oscillator_strength_3> 
0.0145 
 
>  <oscillator_strength_4> 
0.0065 
 
>  <open_babel_can_smiles> 
CCCCN(CC)CC 
 
>  <mulliken_charges> 
28 
1   -0.440443 
2   -0.438927 
3   -0.456646 
4   -0.25174 
5   -0.116549 
6   -0.135619 
7   -0.252941 
8   -0.121223 
9   -0.377024 
10   0.141066 
11   0.140982 
12   0.14289 
13   0.136367 
14   0.144776 
15   0.152493 
16   0.14069 
17   0.148026 
18   0.147138 
19   0.130261 
20   0.130023 
21   0.113578 
22   0.132899 
23   0.139804 
24   0.136272 
25   0.139887 
26   0.129958 
27   0.110377 
28   0.133626 
 
>  <lowdin_charges> 
28 
1   -0.444993 
2   -0.449078 
3   -0.463446 
4   -0.273023 
5   -0.197385 
6   -0.200119 
7   -0.281839 
8   -0.202659 
9   -0.191357 
10   0.149127 
11   0.146485 
12   0.147644 
13   0.146762 
14   0.147498 
15   0.153457 
16   0.151885 
17   0.147346 
18   0.147085 
19   0.138829 
20   0.138682 
21   0.119439 
22   0.143704 
23   0.140705 
24   0.140104 
25   0.145648 
26   0.138427 
27   0.117024 
28   0.144047 
 
$$$$ 
 
