PCCDB-ID:  38007 
public computational chemistry database (PCCDB) project, http://pccdb.org 
 
 31 33  0  0  0  0  0  0  0  0999 V2000 
    0.8619   -0.0649    0.0072 C   0  0  0  0  0  0  0  0  0  0  0  0 
    5.2033    3.6863   -0.0531 C   0  0  0  0  0  0  0  0  0  0  0  0 
    3.0956   -1.2581   -0.0406 C   0  0  0  0  0  0  0  0  0  0  0  0 
    4.4849   -1.2939   -0.0762 C   0  0  0  0  0  0  0  0  0  0  0  0 
    8.0933    2.1359   -0.1402 C   0  0  0  0  0  0  0  0  0  0  0  0 
    9.0964    1.0960    0.3760 C   0  0  0  0  0  0  0  0  0  0  0  0 
    3.0720    1.1647   -0.0358 C   0  0  0  0  0  0  0  0  0  0  0  0 
    7.5861   -0.7599    0.0711 C   0  0  0  0  0  0  0  0  0  0  0  0 
    2.3742   -0.0410   -0.0222 C   0  0  0  0  0  0  0  0  0  0  0  0 
    5.4703    2.2108   -0.0607 C   0  0  0  0  0  0  0  0  0  0  0  0 
    4.4768    1.1675   -0.0631 C   0  0  0  0  0  0  0  0  0  0  0  0 
    6.6964    1.5861   -0.0941 C   0  0  0  0  0  0  0  0  0  0  0  0 
    5.1665   -0.0728   -0.0955 C   0  0  0  0  0  0  0  0  0  0  0  0 
    8.8500   -0.1634   -0.3338 N   0  0  0  0  0  0  0  0  0  0  0  0 
    6.5199    0.2036   -0.1418 N   0  0  0  0  0  0  0  0  0  0  0  0 
    0.4827   -0.6167    0.8771 H   0  0  0  0  0  0  0  0  0  0  0  0 
    0.4468   -0.5516   -0.8851 H   0  0  0  0  0  0  0  0  0  0  0  0 
    0.4491    0.9482    0.0527 H   0  0  0  0  0  0  0  0  0  0  0  0 
    4.5149    3.9648    0.7555 H   0  0  0  0  0  0  0  0  0  0  0  0 
    4.7454    4.0268   -0.9921 H   0  0  0  0  0  0  0  0  0  0  0  0 
    6.1238    4.2631    0.0865 H   0  0  0  0  0  0  0  0  0  0  0  0 
    2.5439   -2.1956   -0.0283 H   0  0  0  0  0  0  0  0  0  0  0  0 
    5.0129   -2.2437   -0.0905 H   0  0  0  0  0  0  0  0  0  0  0  0 
    8.3635    2.3914   -1.1742 H   0  0  0  0  0  0  0  0  0  0  0  0 
    8.1597    3.0570    0.4499 H   0  0  0  0  0  0  0  0  0  0  0  0 
    8.9961    0.9920    1.4736 H   0  0  0  0  0  0  0  0  0  0  0  0 
   10.1201    1.4202    0.1644 H   0  0  0  0  0  0  0  0  0  0  0  0 
    2.5243    2.1048   -0.0200 H   0  0  0  0  0  0  0  0  0  0  0  0 
    7.5774   -1.0744    1.1353 H   0  0  0  0  0  0  0  0  0  0  0  0 
    7.3946   -1.6463   -0.5444 H   0  0  0  0  0  0  0  0  0  0  0  0 
    9.5979   -0.8284   -0.1523 H   0  0  0  0  0  0  0  0  0  0  0  0 
  1 18  1  0  0  0  0 
  1 16  1  0  0  0  0 
  2 21  1  0  0  0  0 
  2 19  1  0  0  0  0 
  3 22  1  0  0  0  0 
  3  9  2  0  0  0  0 
  4  3  1  0  0  0  0 
  5 12  1  0  0  0  0 
  5  6  1  0  0  0  0 
  5 25  1  0  0  0  0 
  6 26  1  0  0  0  0 
  7  9  1  0  0  0  0 
  7 28  1  0  0  0  0 
  8 29  1  0  0  0  0 
  9  1  1  0  0  0  0 
 10  2  1  0  0  0  0 
 11 10  1  0  0  0  0 
 11  7  2  0  0  0  0 
 12 10  2  0  0  0  0 
 13  4  2  0  0  0  0 
 13 11  1  0  0  0  0 
 14 31  1  0  0  0  0 
 14  8  1  0  0  0  0 
 14  6  1  0  0  0  0 
 15 13  1  0  0  0  0 
 15 12  1  0  0  0  0 
 15  8  1  0  0  0  0 
 17  1  1  0  0  0  0 
 20  2  1  0  0  0  0 
 23  4  1  0  0  0  0 
 24  5  1  0  0  0  0 
 27  6  1  0  0  0  0 
 30  8  1  0  0  0  0 
M  END 
>  <HBA> 
2 
 
>  <HBD> 
1 
 
>  <TPSA> 
16.96 
 
>  <cid> 
38007 
 
>  <dipole> 
2.83 
 
>  <excitation_energy_1> 
4.315 
 
>  <excitation_energy_2> 
4.472 
 
>  <excitation_energy_3> 
4.598 
 
>  <excitation_energy_4> 
4.868 
 
>  <homo_energy> 
-4.977 
 
>  <homo_lumo_gap> 
5.075 
 
>  <logP> 
2.69 
 
>  <lumo_energy> 
0.098 
 
>  <melting_point> 
114.43 
 
>  <molecular_refractivity> 
67.51 
 
>  <oscillator_strength_1> 
0.1016 
 
>  <oscillator_strength_2> 
0.0164 
 
>  <oscillator_strength_3> 
0.0296 
 
>  <oscillator_strength_4> 
0.0035 
 
>  <open_babel_can_smiles> 
Cc1ccc2c(c1)c(C)c1n2CNCC1 
 
>  <mulliken_charges> 
31 
1   -0.53101 
2   -0.53373 
3   -0.20338 
4   -0.171154 
5   -0.311942 
6   -0.159523 
7   -0.281398 
8   0.019002 
9   0.180426 
10   0.029215 
11   0.083102 
12   0.278005 
13   0.308528 
14   -0.55908 
15   -0.588005 
16   0.153353 
17   0.154817 
18   0.14964 
19   0.154138 
20   0.156749 
21   0.145608 
22   0.111263 
23   0.11894 
24   0.167624 
25   0.150238 
26   0.124733 
27   0.14538 
28   0.111646 
29   0.131238 
30   0.158532 
31   0.307045 
 
>  <lowdin_charges> 
31 
1   -0.44209 
2   -0.439057 
3   -0.176628 
4   -0.190117 
5   -0.27734 
6   -0.199525 
7   -0.179723 
8   -0.117995 
9   -0.014999 
10   -0.07363 
11   -0.029523 
12   0.014689 
13   0.025017 
14   -0.362931 
15   -0.046147 
16   0.155442 
17   0.155894 
18   0.152738 
19   0.156044 
20   0.15574 
21   0.153596 
22   0.150871 
23   0.153551 
24   0.160723 
25   0.157639 
26   0.120083 
27   0.14987 
28   0.151062 
29   0.118199 
30   0.154591 
31   0.263957 
 
$$$$ 
 
