PCCDB-ID:  39216 
public computational chemistry database (PCCDB) project, http://pccdb.org 
 
 26 27  0  0  0  0  0  0  0  0999 V2000 
    2.7441   -3.2146   -3.4113 C   0  0  0  0  0  0  0  0  0  0  0  0 
   -4.4065   -0.6758   -0.9682 C   0  0  0  0  0  0  0  0  0  0  0  0 
   -4.2856    0.6434   -1.4218 C   0  0  0  0  0  0  0  0  0  0  0  0 
   -3.2929   -1.5252   -0.9043 C   0  0  0  0  0  0  0  0  0  0  0  0 
   -3.0469    1.1590   -1.8274 C   0  0  0  0  0  0  0  0  0  0  0  0 
    1.5864   -0.8267   -2.0011 C   0  0  0  0  0  0  0  0  0  0  0  0 
   -2.0719   -1.0059   -1.3061 C   0  0  0  0  0  0  0  0  0  0  0  0 
   -1.9516    0.3114   -1.7583 C   0  0  0  0  0  0  0  0  0  0  0  0 
    2.0473   -0.9335   -3.4592 C   0  0  0  0  0  0  0  0  0  0  0  0 
   -0.7227   -1.6413   -1.3494 C   0  0  0  0  0  0  0  0  0  0  0  0 
   -0.5273    0.5465   -2.1195 C   0  0  0  0  0  0  0  0  0  0  0  0 
    2.5590   -1.9292   -4.0481 N   0  0  0  0  0  0  0  0  0  0  0  0 
    0.1437   -0.6461   -1.8555 N   0  0  0  0  0  0  0  0  0  0  0  0 
    1.9134    0.2203   -4.1654 O   0  0  0  0  0  0  0  0  0  0  0  0 
   -0.3825   -2.7571   -1.0191 O   0  0  0  0  0  0  0  0  0  0  0  0 
   -0.0011    1.5579   -2.5632 O   0  0  0  0  0  0  0  0  0  0  0  0 
    2.4242   -3.9964   -4.1100 H   0  0  0  0  0  0  0  0  0  0  0  0 
    2.1965   -3.3730   -2.4702 H   0  0  0  0  0  0  0  0  0  0  0  0 
    3.8130   -3.3814   -3.2225 H   0  0  0  0  0  0  0  0  0  0  0  0 
   -5.3802   -1.0465   -0.6613 H   0  0  0  0  0  0  0  0  0  0  0  0 
   -5.1672    1.2766   -1.4606 H   0  0  0  0  0  0  0  0  0  0  0  0 
   -3.3767   -2.5495   -0.5551 H   0  0  0  0  0  0  0  0  0  0  0  0 
   -2.9434    2.1794   -2.1827 H   0  0  0  0  0  0  0  0  0  0  0  0 
    2.0844    0.0330   -1.5376 H   0  0  0  0  0  0  0  0  0  0  0  0 
    1.8426   -1.7203   -1.4343 H   0  0  0  0  0  0  0  0  0  0  0  0 
    1.4317    0.8877   -3.6354 H   0  0  0  0  0  0  0  0  0  0  0  0 
  1 19  1  0  0  0  0 
  1 18  1  0  0  0  0 
  2  4  1  0  0  0  0 
  2 20  1  0  0  0  0 
  3  2  2  0  0  0  0 
  4 22  1  0  0  0  0 
  5  8  2  0  0  0  0 
  5  3  1  0  0  0  0 
  6 13  1  0  0  0  0 
  6 24  1  0  0  0  0 
  6 25  1  0  0  0  0 
  7  4  2  0  0  0  0 
  8  7  1  0  0  0  0 
  9  6  1  0  0  0  0 
 10  7  1  0  0  0  0 
 10 15  2  0  0  0  0 
 11 13  1  0  0  0  0 
 11  8  1  0  0  0  0 
 12  9  2  0  0  0  0 
 12  1  1  0  0  0  0 
 13 10  1  0  0  0  0 
 14 26  1  0  0  0  0 
 14  9  1  0  0  0  0 
 16 11  2  0  0  0  0 
 17  1  1  0  0  0  0 
 21  3  1  0  0  0  0 
 23  5  1  0  0  0  0 
M  END 
>  <HBA> 
5 
 
>  <HBD> 
1 
 
>  <TPSA> 
66.48 
 
>  <cid> 
39216 
 
>  <dipole> 
6.26 
 
>  <excitation_energy_1> 
3.099 
 
>  <excitation_energy_2> 
3.36 
 
>  <excitation_energy_3> 
3.904 
 
>  <excitation_energy_4> 
4.213 
 
>  <homo_energy> 
-6.395 
 
>  <homo_lumo_gap> 
3.69 
 
>  <logP> 
0.357 
 
>  <lumo_energy> 
-2.705 
 
>  <melting_point> 
147.23 
 
>  <molecular_refractivity> 
59.34 
 
>  <oscillator_strength_1> 
0.0014 
 
>  <oscillator_strength_2> 
0.0004 
 
>  <oscillator_strength_3> 
0.0002 
 
>  <oscillator_strength_4> 
0.0029 
 
>  <open_babel_can_smiles> 
C/N=C(\CN1C(=O)c2c(C1=O)cccc2)/O 
 
>  <mulliken_charges> 
26 
1   -0.33605 
2   -0.126501 
3   -0.127838 
4   -0.177529 
5   -0.176757 
6   -0.2718 
7   0.046943 
8   0.055639 
9   0.504986 
10   0.582447 
11   0.58961 
12   -0.40012 
13   -0.520603 
14   -0.607132 
15   -0.465638 
16   -0.512562 
17   0.163328 
18   0.141452 
19   0.156041 
20   0.15479 
21   0.154864 
22   0.172034 
23   0.172245 
24   0.191874 
25   0.202751 
26   0.433527 
 
>  <lowdin_charges> 
26 
1   -0.35897 
2   -0.133582 
3   -0.135631 
4   -0.123003 
5   -0.122867 
6   -0.230104 
7   -0.034988 
8   -0.03526 
9   0.114015 
10   0.175617 
11   0.180129 
12   -0.195604 
13   -0.085341 
14   -0.37996 
15   -0.230557 
16   -0.264437 
17   0.158092 
18   0.133998 
19   0.151267 
20   0.170113 
21   0.170944 
22   0.179614 
23   0.179767 
24   0.174986 
25   0.18647 
26   0.355293 
 
$$$$ 
 
