PCCDB-ID:  41074 
public computational chemistry database (PCCDB) project, http://pccdb.org 
 
 30 30  0  0  0  0  0  0  0  0999 V2000 
    2.9263    1.1069    1.0173 C   0  0  0  0  0  0  0  0  0  0  0  0 
    3.3098   -2.6143   -2.5408 C   0  0  0  0  0  0  0  0  0  0  0  0 
    5.7537   -1.7220    0.6236 C   0  0  0  0  0  0  0  0  0  0  0  0 
    2.4083    0.4727   -0.2771 C   0  0  0  0  0  0  0  0  0  0  0  0 
    2.6002   -1.3549   -2.0334 C   0  0  0  0  0  0  0  0  0  0  0  0 
    7.2718    0.7461   -1.8518 C   0  0  0  0  0  0  0  0  0  0  0  0 
    6.1481    1.2294   -2.5197 C   0  0  0  0  0  0  0  0  0  0  0  0 
    7.1103   -0.2031   -0.8444 C   0  0  0  0  0  0  0  0  0  0  0  0 
    4.8855    0.7546   -2.1690 C   0  0  0  0  0  0  0  0  0  0  0  0 
    5.8461   -0.6903   -0.4821 C   0  0  0  0  0  0  0  0  0  0  0  0 
    3.2905   -0.6754   -0.8265 C   0  0  0  0  0  0  0  0  0  0  0  0 
    4.7055   -0.2026   -1.1589 C   0  0  0  0  0  0  0  0  0  0  0  0 
    2.2520    1.8986    1.3633 H   0  0  0  0  0  0  0  0  0  0  0  0 
    3.9185    1.5489    0.8766 H   0  0  0  0  0  0  0  0  0  0  0  0 
    3.0015    0.3635    1.8209 H   0  0  0  0  0  0  0  0  0  0  0  0 
    2.7680   -3.0569   -3.3846 H   0  0  0  0  0  0  0  0  0  0  0  0 
    3.3747   -3.3767   -1.7542 H   0  0  0  0  0  0  0  0  0  0  0  0 
    4.3286   -2.3921   -2.8760 H   0  0  0  0  0  0  0  0  0  0  0  0 
    6.7497   -1.9591    1.0104 H   0  0  0  0  0  0  0  0  0  0  0  0 
    5.3047   -2.6606    0.2764 H   0  0  0  0  0  0  0  0  0  0  0  0 
    5.1489   -1.3702    1.4681 H   0  0  0  0  0  0  0  0  0  0  0  0 
    2.3017    1.2490   -1.0473 H   0  0  0  0  0  0  0  0  0  0  0  0 
    1.3986    0.0742   -0.1066 H   0  0  0  0  0  0  0  0  0  0  0  0 
    1.5739   -1.6120   -1.7369 H   0  0  0  0  0  0  0  0  0  0  0  0 
    2.5055   -0.6313   -2.8543 H   0  0  0  0  0  0  0  0  0  0  0  0 
    8.2653    1.1027   -2.1107 H   0  0  0  0  0  0  0  0  0  0  0  0 
    6.2505    1.9711   -3.3077 H   0  0  0  0  0  0  0  0  0  0  0  0 
    7.9860   -0.5805   -0.3208 H   0  0  0  0  0  0  0  0  0  0  0  0 
    4.0155    1.1404   -2.6952 H   0  0  0  0  0  0  0  0  0  0  0  0 
    3.3556   -1.4314   -0.0346 H   0  0  0  0  0  0  0  0  0  0  0  0 
  1 13  1  0  0  0  0 
  1 15  1  0  0  0  0 
  2  5  1  0  0  0  0 
  2 17  1  0  0  0  0 
  3 19  1  0  0  0  0 
  3 21  1  0  0  0  0 
  4 23  1  0  0  0  0 
  4  1  1  0  0  0  0 
  5 24  1  0  0  0  0 
  5 11  1  0  0  0  0 
  6  8  2  0  0  0  0 
  7  9  2  0  0  0  0 
  7  6  1  0  0  0  0 
  8 10  1  0  0  0  0 
  8 28  1  0  0  0  0 
  9 12  1  0  0  0  0 
 10  3  1  0  0  0  0 
 11  4  1  0  0  0  0 
 11 30  1  0  0  0  0 
 12 11  1  0  0  0  0 
 12 10  2  0  0  0  0 
 14  1  1  0  0  0  0 
 16  2  1  0  0  0  0 
 18  2  1  0  0  0  0 
 20  3  1  0  0  0  0 
 22  4  1  0  0  0  0 
 25  5  1  0  0  0  0 
 26  6  1  0  0  0  0 
 27  7  1  0  0  0  0 
 29  9  1  0  0  0  0 
M  END 
>  <HBA> 
0 
 
>  <HBD> 
0 
 
>  <TPSA> 
0.0 
 
>  <cid> 
41074 
 
>  <dipole> 
0.4 
 
>  <excitation_energy_1> 
5.2 
 
>  <excitation_energy_2> 
5.771 
 
>  <excitation_energy_3> 
5.87 
 
>  <excitation_energy_4> 
6.074 
 
>  <homo_energy> 
-6.248 
 
>  <homo_lumo_gap> 
6.365 
 
>  <logP> 
3.899 
 
>  <lumo_energy> 
0.117 
 
>  <melting_point> 
9.33 
 
>  <molecular_refractivity> 
55.6 
 
>  <oscillator_strength_1> 
0.0021 
 
>  <oscillator_strength_2> 
0.0339 
 
>  <oscillator_strength_3> 
0.0031 
 
>  <oscillator_strength_4> 
0.0001 
 
>  <open_babel_can_smiles> 
CCC(c1ccccc1C)CC 
 
>  <mulliken_charges> 
30 
1   -0.449243 
2   -0.449032 
3   -0.540662 
4   -0.248807 
5   -0.249246 
6   -0.127001 
7   -0.131972 
8   -0.184113 
9   -0.18949 
10   0.122806 
11   -0.158584 
12   0.11954 
13   0.141045 
14   0.157686 
15   0.137745 
16   0.141093 
17   0.137587 
18   0.157406 
19   0.15273 
20   0.16267 
21   0.163131 
22   0.131503 
23   0.128758 
24   0.128714 
25   0.13157 
26   0.124586 
27   0.124302 
28   0.118439 
29   0.124688 
30   0.122149 
 
>  <lowdin_charges> 
30 
1   -0.4492 
2   -0.448767 
3   -0.447219 
4   -0.269505 
5   -0.269406 
6   -0.161365 
7   -0.160888 
8   -0.169545 
9   -0.167441 
10   -0.009405 
11   -0.129827 
12   -0.00998 
13   0.150684 
14   0.154398 
15   0.144299 
16   0.150577 
17   0.144437 
18   0.153885 
19   0.155429 
20   0.158608 
21   0.159333 
22   0.140313 
23   0.139344 
24   0.13923 
25   0.140212 
26   0.155182 
27   0.155394 
28   0.153013 
29   0.153838 
30   0.144372 
 
$$$$ 
 
