PCCDB-ID:  69297 
public computational chemistry database (PCCDB) project, http://pccdb.org 
 
 31 32  0  0  0  0  0  0  0  0999 V2000 
    3.1139    1.5175    4.0109 C   0  0  0  0  0  0  0  0  0  0  0  0 
    4.6046   -5.6726   -2.1759 C   0  0  0  0  0  0  0  0  0  0  0  0 
    3.7127    2.3278    3.0465 C   0  0  0  0  0  0  0  0  0  0  0  0 
    2.5361    0.3032    3.6300 C   0  0  0  0  0  0  0  0  0  0  0  0 
    3.4687   -5.3236   -1.4400 C   0  0  0  0  0  0  0  0  0  0  0  0 
    5.3824   -4.6731   -2.7606 C   0  0  0  0  0  0  0  0  0  0  0  0 
    3.7341    1.9247    1.7093 C   0  0  0  0  0  0  0  0  0  0  0  0 
    2.5539   -0.0927    2.2932 C   0  0  0  0  0  0  0  0  0  0  0  0 
    3.1143   -3.9829   -1.2960 C   0  0  0  0  0  0  0  0  0  0  0  0 
    5.0250   -3.3312   -2.6110 C   0  0  0  0  0  0  0  0  0  0  0  0 
    3.1416    0.3006   -0.1396 C   0  0  0  0  0  0  0  0  0  0  0  0 
    3.4932   -1.5198   -1.7211 C   0  0  0  0  0  0  0  0  0  0  0  0 
    3.1535    0.7151    1.3173 C   0  0  0  0  0  0  0  0  0  0  0  0 
    3.8872   -2.9716   -1.8825 C   0  0  0  0  0  0  0  0  0  0  0  0 
    3.6086   -1.0778   -0.3238 N   0  0  0  0  0  0  0  0  0  0  0  0 
    5.0264   -1.0550   -0.0302 O   0  0  0  0  0  0  0  0  0  0  0  0 
    3.0984    1.8271    5.0526 H   0  0  0  0  0  0  0  0  0  0  0  0 
    4.8796   -6.7176   -2.2922 H   0  0  0  0  0  0  0  0  0  0  0  0 
    4.1707    3.2709    3.3332 H   0  0  0  0  0  0  0  0  0  0  0  0 
    2.0691   -0.3348    4.3763 H   0  0  0  0  0  0  0  0  0  0  0  0 
    2.8580   -6.0971   -0.9814 H   0  0  0  0  0  0  0  0  0  0  0  0 
    6.2705   -4.9354   -3.3298 H   0  0  0  0  0  0  0  0  0  0  0  0 
    4.2116    2.5551    0.9625 H   0  0  0  0  0  0  0  0  0  0  0  0 
    2.1126   -1.0403    1.9956 H   0  0  0  0  0  0  0  0  0  0  0  0 
    2.2345   -3.7115   -0.7174 H   0  0  0  0  0  0  0  0  0  0  0  0 
    5.6381   -2.5532   -3.0594 H   0  0  0  0  0  0  0  0  0  0  0  0 
    3.7421    1.0057   -0.7377 H   0  0  0  0  0  0  0  0  0  0  0  0 
    2.1146    0.3318   -0.5288 H   0  0  0  0  0  0  0  0  0  0  0  0 
    2.4410   -1.3814   -2.0008 H   0  0  0  0  0  0  0  0  0  0  0  0 
    4.1023   -0.8841   -2.3844 H   0  0  0  0  0  0  0  0  0  0  0  0 
    5.1007   -1.6875    0.7016 H   0  0  0  0  0  0  0  0  0  0  0  0 
  1 17  1  0  0  0  0 
  2  5  2  0  0  0  0 
  3 19  1  0  0  0  0 
  3  1  2  0  0  0  0 
  4  1  1  0  0  0  0 
  4 20  1  0  0  0  0 
  5  9  1  0  0  0  0 
  5 21  1  0  0  0  0 
  6 10  2  0  0  0  0 
  6  2  1  0  0  0  0 
  7  3  1  0  0  0  0 
  8  4  2  0  0  0  0 
  9 25  1  0  0  0  0 
 10 14  1  0  0  0  0 
 11 13  1  0  0  0  0 
 12 15  1  0  0  0  0 
 13  7  2  0  0  0  0 
 13  8  1  0  0  0  0 
 14 12  1  0  0  0  0 
 14  9  2  0  0  0  0 
 15 11  1  0  0  0  0 
 15 16  1  0  0  0  0 
 16 31  1  0  0  0  0 
 18  2  1  0  0  0  0 
 22  6  1  0  0  0  0 
 23  7  1  0  0  0  0 
 24  8  1  0  0  0  0 
 26 10  1  0  0  0  0 
 27 11  1  0  0  0  0 
 28 11  1  0  0  0  0 
 29 12  1  0  0  0  0 
 30 12  1  0  0  0  0 
M  END 
>  <HBA> 
2 
 
>  <HBD> 
1 
 
>  <TPSA> 
23.47 
 
>  <cid> 
69297 
 
>  <dipole> 
0.65 
 
>  <excitation_energy_1> 
5.176 
 
>  <excitation_energy_2> 
5.279 
 
>  <excitation_energy_3> 
5.311 
 
>  <excitation_energy_4> 
5.523 
 
>  <homo_energy> 
-6.27 
 
>  <homo_lumo_gap> 
6.123 
 
>  <logP> 
3.078 
 
>  <lumo_energy> 
-0.147 
 
>  <melting_point> 
93.42 
 
>  <molecular_refractivity> 
64.33 
 
>  <oscillator_strength_1> 
0.0011 
 
>  <oscillator_strength_2> 
0.0005 
 
>  <oscillator_strength_3> 
0.0006 
 
>  <oscillator_strength_4> 
0.0154 
 
>  <open_babel_can_smiles> 
ON(Cc1ccccc1)Cc1ccccc1 
 
>  <mulliken_charges> 
31 
1   -0.129205 
2   -0.12894 
3   -0.129487 
4   -0.131227 
5   -0.131621 
6   -0.13161 
7   -0.181911 
8   -0.174919 
9   -0.169841 
10   -0.173846 
11   -0.179202 
12   -0.184985 
13   0.165898 
14   0.163709 
15   -0.225007 
16   -0.525144 
17   0.127145 
18   0.127857 
19   0.128046 
20   0.127296 
21   0.127924 
22   0.128747 
23   0.125671 
24   0.132667 
25   0.127995 
26   0.129986 
27   0.135216 
28   0.151173 
29   0.148616 
30   0.134165 
31   0.414834 
 
>  <lowdin_charges> 
31 
1   -0.158632 
2   -0.157226 
3   -0.155546 
4   -0.158388 
5   -0.159537 
6   -0.157115 
7   -0.163932 
8   -0.161731 
9   -0.15838 
10   -0.160487 
11   -0.205023 
12   -0.204328 
13   -0.00755 
14   -0.009508 
15   -0.073586 
16   -0.41728 
17   0.155252 
18   0.15555 
19   0.156748 
20   0.157559 
21   0.157902 
22   0.157403 
23   0.157243 
24   0.159261 
25   0.157469 
26   0.159448 
27   0.137248 
28   0.153159 
29   0.15203 
30   0.136954 
31   0.355022 
 
$$$$ 
 
