PCCDB-ID:  18610 
public computational chemistry database (PCCDB) project, http://pccdb.org 
 
 20 19  0  0  0  0  0  0  0  0999 V2000 
    6.1518    0.0145   -2.9454 C   0  0  0  0  0  0  0  0  0  0  0  0 
   -0.8684    0.4832    0.4550 C   0  0  0  0  0  0  0  0  0  0  0  0 
    5.3623    0.9770   -2.0569 C   0  0  0  0  0  0  0  0  0  0  0  0 
    0.5477    0.0179    0.7977 C   0  0  0  0  0  0  0  0  0  0  0  0 
    4.2848    0.2640   -1.2624 C   0  0  0  0  0  0  0  0  0  0  0  0 
    1.5905    0.6960   -0.0696 C   0  0  0  0  0  0  0  0  0  0  0  0 
    3.8326   -0.8307   -1.4544 O   0  0  0  0  0  0  0  0  0  0  0  0 
    1.4206    1.2691   -1.1101 O   0  0  0  0  0  0  0  0  0  0  0  0 
    3.8751    1.1170   -0.2532 O   0  0  0  0  0  0  0  0  0  0  0  0 
    2.8218    0.5264    0.5379 O   0  0  0  0  0  0  0  0  0  0  0  0 
    6.8823    0.5693   -3.5423 H   0  0  0  0  0  0  0  0  0  0  0  0 
    5.4844   -0.5259   -3.6220 H   0  0  0  0  0  0  0  0  0  0  0  0 
    6.6892   -0.7267   -2.3457 H   0  0  0  0  0  0  0  0  0  0  0  0 
   -1.6004   -0.0666    1.0546 H   0  0  0  0  0  0  0  0  0  0  0  0 
   -1.0853    0.3153   -0.6032 H   0  0  0  0  0  0  0  0  0  0  0  0 
   -0.9933    1.5518    0.6555 H   0  0  0  0  0  0  0  0  0  0  0  0 
    4.8533    1.7409   -2.6596 H   0  0  0  0  0  0  0  0  0  0  0  0 
    6.0142    1.5206   -1.3639 H   0  0  0  0  0  0  0  0  0  0  0  0 
    0.6572   -1.0622    0.6325 H   0  0  0  0  0  0  0  0  0  0  0  0 
    0.7912    0.1904    1.8518 H   0  0  0  0  0  0  0  0  0  0  0  0 
  1 13  1  0  0  0  0 
  1  3  1  0  0  0  0 
  2 16  1  0  0  0  0 
  2  4  1  0  0  0  0 
  2 14  1  0  0  0  0 
  3 18  1  0  0  0  0 
  3  5  1  0  0  0  0 
  4 20  1  0  0  0  0 
  5  9  1  0  0  0  0 
  6 10  1  0  0  0  0 
  6  4  1  0  0  0  0 
  7  5  2  0  0  0  0 
  8  6  2  0  0  0  0 
  9 10  1  0  0  0  0 
 11  1  1  0  0  0  0 
 12  1  1  0  0  0  0 
 15  2  1  0  0  0  0 
 17  3  1  0  0  0  0 
 19  4  1  0  0  0  0 
M  END 
>  <HBA> 
4 
 
>  <HBD> 
0 
 
>  <TPSA> 
52.6 
 
>  <cid> 
18610 
 
>  <dipole> 
0.98 
 
>  <excitation_energy_1> 
5.894 
 
>  <excitation_energy_2> 
5.918 
 
>  <excitation_energy_3> 
6.05 
 
>  <excitation_energy_4> 
6.156 
 
>  <homo_energy> 
-7.761 
 
>  <homo_lumo_gap> 
7.407 
 
>  <logP> 
0.808 
 
>  <lumo_energy> 
-0.354 
 
>  <melting_point> 
3.01 
 
>  <molecular_refractivity> 
33.53 
 
>  <oscillator_strength_1> 
0.0007 
 
>  <oscillator_strength_2> 
0.0008 
 
>  <oscillator_strength_3> 
0.001 
 
>  <oscillator_strength_4> 
0.0159 
 
>  <open_babel_can_smiles> 
CCC(=O)OOC(=O)CC 
 
>  <mulliken_charges> 
20 
1   -0.440827 
2   -0.441512 
3   -0.366293 
4   -0.366589 
5   0.651229 
6   0.651648 
7   -0.444624 
8   -0.444631 
9   -0.265439 
10   -0.26524 
11   0.151457 
12   0.174984 
13   0.162297 
14   0.151564 
15   0.175583 
16   0.162188 
17   0.196772 
18   0.18034 
19   0.196999 
20   0.180095 
 
>  <lowdin_charges> 
20 
1   -0.440942 
2   -0.435412 
3   -0.301212 
4   -0.295699 
5   0.201904 
6   0.202788 
7   -0.223821 
8   -0.2242 
9   -0.07801 
10   -0.078108 
11   0.158081 
12   0.167229 
13   0.160379 
14   0.158013 
15   0.164825 
16   0.157428 
17   0.1828 
18   0.173419 
19   0.180007 
20   0.17053 
 
$$$$ 
 
