PCCDB-ID:  10974 
public computational chemistry database (PCCDB) project, http://pccdb.org 
 
 17 16  0  0  0  0  0  0  0  0999 V2000 
    0.7999   -0.0898    0.0567 C   0  0  0  0  0  0  0  0  0  0  0  0 
    2.4867    0.3201   -1.7979 C   0  0  0  0  0  0  0  0  0  0  0  0 
    3.0556    0.9716    0.5419 C   0  0  0  0  0  0  0  0  0  0  0  0 
    2.2880   -0.0347   -0.3162 C   0  0  0  0  0  0  0  0  0  0  0  0 
    3.6027    1.3446    2.8502 N   0  0  0  0  0  0  0  0  0  0  0  0 
    3.4981    0.9428    3.9843 O   0  0  0  0  0  0  0  0  0  0  0  0 
    4.1727    2.3317    2.4278 O   0  0  0  0  0  0  0  0  0  0  0  0 
    2.9530    0.5128    1.9127 O   0  0  0  0  0  0  0  0  0  0  0  0 
    0.2786   -0.8367   -0.5519 H   0  0  0  0  0  0  0  0  0  0  0  0 
    0.3165    0.8801   -0.1187 H   0  0  0  0  0  0  0  0  0  0  0  0 
    0.6606   -0.3517    1.1096 H   0  0  0  0  0  0  0  0  0  0  0  0 
    1.9705   -0.4050   -2.4359 H   0  0  0  0  0  0  0  0  0  0  0  0 
    3.5463    0.3198   -2.0787 H   0  0  0  0  0  0  0  0  0  0  0  0 
    2.0768    1.3123   -2.0256 H   0  0  0  0  0  0  0  0  0  0  0  0 
    2.6264    1.9765    0.4652 H   0  0  0  0  0  0  0  0  0  0  0  0 
    4.1123    1.0210    0.2615 H   0  0  0  0  0  0  0  0  0  0  0  0 
    2.7307   -1.0237   -0.1349 H   0  0  0  0  0  0  0  0  0  0  0  0 
  1 11  1  0  0  0  0 
  2  4  1  0  0  0  0 
  3  8  1  0  0  0  0 
  4 17  1  0  0  0  0 
  4  1  1  0  0  0  0 
  4  3  1  0  0  0  0 
  5  6  2  0  0  0  0 
  7  5  2  0  0  0  0 
  8  5  1  0  0  0  0 
  9  1  1  0  0  0  0 
 10  1  1  0  0  0  0 
 12  2  1  0  0  0  0 
 13  2  1  0  0  0  0 
 14  2  1  0  0  0  0 
 15  3  1  0  0  0  0 
 16  3  1  0  0  0  0 
M  END 
>  <HBA> 
0 
 
>  <HBD> 
0 
 
>  <TPSA> 
55.05 
 
>  <cid> 
10974 
 
>  <dipole> 
3.52 
 
>  <excitation_energy_1> 
4.7 
 
>  <excitation_energy_2> 
5.62 
 
>  <excitation_energy_3> 
6.141 
 
>  <excitation_energy_4> 
6.733 
 
>  <homo_energy> 
-8.43 
 
>  <homo_lumo_gap> 
6.757 
 
>  <logP> 
1.374 
 
>  <lumo_energy> 
-1.674 
 
>  <melting_point> 
-1.08 
 
>  <molecular_refractivity> 
30.53 
 
>  <oscillator_strength_1> 
0.0 
 
>  <oscillator_strength_2> 
0.0004 
 
>  <oscillator_strength_3> 
0.0735 
 
>  <oscillator_strength_4> 
0.0021 
 
>  <open_babel_can_smiles> 
CC(CON(=O)=O)C 
 
>  <mulliken_charges> 
17 
1   -0.448317 
2   -0.452261 
3   -0.023105 
4   -0.107109 
5   0.752224 
6   -0.358605 
7   -0.371704 
8   -0.388203 
9   0.149514 
10   0.142314 
11   0.170256 
12   0.157126 
13   0.149645 
14   0.148795 
15   0.163705 
16   0.165755 
17   0.14997 
 
>  <lowdin_charges> 
17 
1   -0.447226 
2   -0.442509 
3   -0.134526 
4   -0.126945 
5   0.371888 
6   -0.197018 
7   -0.222278 
8   -0.183811 
9   0.155365 
10   0.147966 
11   0.160682 
12   0.159648 
13   0.151143 
14   0.150263 
15   0.153049 
16   0.15455 
17   0.149758 
 
$$$$ 
 
