PCCDB-ID:  7302 
public computational chemistry database (PCCDB) project, http://pccdb.org 
 
 12 12  0  0  0  0  0  0  0  0999 V2000 
   -0.7843   -1.0657   -0.0486 C   0  0  0  0  0  0  0  0  0  0  0  0 
    0.7514   -1.0584   -0.0357 C   0  0  0  0  0  0  0  0  0  0  0  0 
   -1.1729    0.4178    0.1900 C   0  0  0  0  0  0  0  0  0  0  0  0 
    1.1556    0.3949    0.1963 C   0  0  0  0  0  0  0  0  0  0  0  0 
    2.2678    0.8469    0.2713 O   0  0  0  0  0  0  0  0  0  0  0  0 
    0.0441    1.1719    0.3175 O   0  0  0  0  0  0  0  0  0  0  0  0 
   -1.1953   -1.7069    0.7356 H   0  0  0  0  0  0  0  0  0  0  0  0 
   -1.1815   -1.4237   -1.0021 H   0  0  0  0  0  0  0  0  0  0  0  0 
    1.2008   -1.3967   -0.9743 H   0  0  0  0  0  0  0  0  0  0  0  0 
    1.1865   -1.6688    0.7617 H   0  0  0  0  0  0  0  0  0  0  0  0 
   -1.7491    0.5609    1.1090 H   0  0  0  0  0  0  0  0  0  0  0  0 
   -1.7409    0.8443   -0.6423 H   0  0  0  0  0  0  0  0  0  0  0  0 
  1  2  1  0  0  0  0 
  1  3  1  0  0  0  0 
  1  7  1  0  0  0  0 
  2  4  1  0  0  0  0 
  2 10  1  0  0  0  0 
  3  6  1  0  0  0  0 
  3 11  1  0  0  0  0 
  4  5  2  0  0  0  0 
  4  6  1  0  0  0  0 
  8  1  1  0  0  0  0 
  9  2  1  0  0  0  0 
 12  3  1  0  0  0  0 
M  END 
>  <HBA> 
2 
 
>  <HBD> 
0 
 
>  <TPSA> 
26.3 
 
>  <cid> 
7302 
 
>  <dipole> 
4.51 
 
>  <excitation_energy_1> 
5.741 
 
>  <excitation_energy_2> 
6.712 
 
>  <excitation_energy_3> 
7.225 
 
>  <excitation_energy_4> 
7.315 
 
>  <homo_energy> 
-7.214 
 
>  <homo_lumo_gap> 
7.611 
 
>  <logP> 
0.323 
 
>  <lumo_energy> 
0.397 
 
>  <melting_point> 
9.78 
 
>  <molecular_refractivity> 
20.51 
 
>  <oscillator_strength_1> 
0.0003 
 
>  <oscillator_strength_2> 
0.0102 
 
>  <oscillator_strength_3> 
0.0137 
 
>  <oscillator_strength_4> 
0.0042 
 
>  <open_babel_can_smiles> 
O=C1CCCO1 
 
>  <mulliken_charges> 
12 
1   -0.321236 
2   -0.384341 
3   -0.038403 
4   0.602486 
5   -0.449449 
6   -0.438945 
7   0.164202 
8   0.1643 
9   0.189491 
10   0.189498 
11   0.161157 
12   0.161239 
 
>  <lowdin_charges> 
12 
1   -0.299704 
2   -0.31701 
3   -0.129795 
4   0.190134 
5   -0.239566 
6   -0.187431 
7   0.16049 
8   0.159421 
9   0.178405 
10   0.179229 
11   0.152512 
12   0.153313 
 
$$$$ 
 
