PCCDB-ID:  7275 
public computational chemistry database (PCCDB) project, http://pccdb.org 
 
 28 30  0  0  1  0  0  0  0  0999 V2000 
    0.6212    0.6675   -0.5929 C   0  0  0  0  0  0  0  0  0  0  0  0 
    7.2851   -1.7671   -1.8347 C   0  0  0  0  0  0  0  0  0  0  0  0 
    5.0257    1.3484   -1.6275 C   0  0  0  0  0  0  0  0  0  0  0  0 
    5.4043   -0.0297   -2.2007 C   0  0  0  0  0  0  0  0  0  0  0  0 
    5.5955    0.7054    0.7507 C   0  0  0  0  0  0  0  0  0  0  0  0 
    1.9039    1.3339   -0.1604 C   0  0  2  0  0  0  0  0  0  0  0  0 
    4.5145    1.3107   -0.1732 C   0  0  2  0  0  0  0  0  0  0  0  0 
    6.2447   -0.5476    0.2036 C   0  0  2  0  0  0  0  0  0  0  0  0 
    3.1757    0.6067   -0.0272 C   0  0  1  0  0  0  0  0  0  0  0  0 
    6.1969   -0.9050   -1.2307 C   0  0  2  0  0  0  0  0  0  0  0  0 
    2.4079    0.9768    1.1377 O   0  0  0  0  0  0  0  0  0  0  0  0 
    5.3754   -1.5962   -0.2588 O   0  0  0  0  0  0  0  0  0  0  0  0 
    0.4588    0.8028   -1.6693 H   0  0  0  0  0  0  0  0  0  0  0  0 
   -0.2366    1.1005   -0.0651 H   0  0  0  0  0  0  0  0  0  0  0  0 
    0.6483   -0.4048   -0.3756 H   0  0  0  0  0  0  0  0  0  0  0  0 
    8.0688   -1.1481   -2.2881 H   0  0  0  0  0  0  0  0  0  0  0  0 
    6.8739   -2.4147   -2.6190 H   0  0  0  0  0  0  0  0  0  0  0  0 
    7.7400   -2.4049   -1.0709 H   0  0  0  0  0  0  0  0  0  0  0  0 
    4.2804    1.8247   -2.2766 H   0  0  0  0  0  0  0  0  0  0  0  0 
    5.9147    1.9936   -1.6502 H   0  0  0  0  0  0  0  0  0  0  0  0 
    5.9871    0.1147   -3.1191 H   0  0  0  0  0  0  0  0  0  0  0  0 
    4.5068   -0.5898   -2.4926 H   0  0  0  0  0  0  0  0  0  0  0  0 
    5.1681    0.4991    1.7401 H   0  0  0  0  0  0  0  0  0  0  0  0 
    6.3927    1.4468    0.9034 H   0  0  0  0  0  0  0  0  0  0  0  0 
    1.9622    2.4066   -0.3667 H   0  0  0  0  0  0  0  0  0  0  0  0 
    4.3476    2.3449    0.1543 H   0  0  0  0  0  0  0  0  0  0  0  0 
    7.0940   -0.9143    0.7868 H   0  0  0  0  0  0  0  0  0  0  0  0 
    3.1759   -0.4655   -0.2194 H   0  0  0  0  0  0  0  0  0  0  0  0 
  1 15  1  0  0  0  0 
  1  6  1  0  0  0  0 
  1 14  1  0  0  0  0 
  2 18  1  0  0  0  0 
  3  7  1  0  0  0  0 
  4  3  1  0  0  0  0 
  4 10  1  0  0  0  0 
  5 24  1  0  0  0  0 
  5 23  1  0  0  0  0 
  6 25  1  6  0  0  0 
  6  9  1  0  0  0  0 
  6 11  1  0  0  0  0 
  7  9  1  0  0  0  0 
  7 26  1  1  0  0  0 
  7  5  1  0  0  0  0 
  8  5  1  0  0  0  0 
  8 27  1  1  0  0  0 
  9 28  1  6  0  0  0 
  9 11  1  0  0  0  0 
 10  2  1  6  0  0  0 
 10 12  1  0  0  0  0 
 10  8  1  0  0  0  0 
 12  8  1  0  0  0  0 
 13  1  1  0  0  0  0 
 16  2  1  0  0  0  0 
 17  2  1  0  0  0  0 
 19  3  1  0  0  0  0 
 20  3  1  0  0  0  0 
 21  4  1  0  0  0  0 
 22  4  1  0  0  0  0 
M  END 
>  <HBA> 
2 
 
>  <HBD> 
0 
 
>  <TPSA> 
25.06 
 
>  <cid> 
7275 
 
>  <dipole> 
3.11 
 
>  <excitation_energy_1> 
6.405 
 
>  <excitation_energy_2> 
6.552 
 
>  <excitation_energy_3> 
6.784 
 
>  <excitation_energy_4> 
6.894 
 
>  <homo_energy> 
-6.827 
 
>  <homo_lumo_gap> 
8.904 
 
>  <logP> 
1.731 
 
>  <lumo_energy> 
2.076 
 
>  <melting_point> 
31.64 
 
>  <molecular_refractivity> 
46.05 
 
>  <oscillator_strength_1> 
0.0052 
 
>  <oscillator_strength_2> 
0.0048 
 
>  <oscillator_strength_3> 
0.01 
 
>  <oscillator_strength_4> 
0.0057 
 
>  <open_babel_can_smiles> 
C[C@H]1O[C@@H]1[C@@H]1CC[C@]2([C@@H](C1)O2)C 
 
>  <mulliken_charges> 
28 
1   -0.46739 
2   -0.485749 
3   -0.276827 
4   -0.303471 
5   -0.293333 
6   0.096431 
7   -0.124693 
8   0.06382 
9   0.078392 
10   0.310054 
11   -0.473223 
12   -0.480522 
13   0.145727 
14   0.15803 
15   0.161573 
16   0.147311 
17   0.156102 
18   0.159159 
19   0.136575 
20   0.135479 
21   0.139431 
22   0.156878 
23   0.16797 
24   0.137152 
25   0.128268 
26   0.132411 
27   0.129882 
28   0.164562 
 
>  <lowdin_charges> 
28 
1   -0.444035 
2   -0.447744 
3   -0.277047 
4   -0.28663 
5   -0.283063 
6   -0.023068 
7   -0.132046 
8   -0.028335 
9   -0.035273 
10   0.099965 
11   -0.299404 
12   -0.299452 
13   0.153553 
14   0.159628 
15   0.159932 
16   0.155832 
17   0.158555 
18   0.162296 
19   0.147841 
20   0.143691 
21   0.151195 
22   0.156348 
23   0.162868 
24   0.151888 
25   0.138939 
26   0.150157 
27   0.145942 
28   0.157468 
 
$$$$ 
 
