PCCDB-ID:  11970 
public computational chemistry database (PCCDB) project, http://pccdb.org 
 
 19 19  0  0  0  0  0  0  0  0999 V2000 
   -1.5941   -0.5095   -0.0648 C   0  0  0  0  0  0  0  0  0  0  0  0 
   -0.8212   -1.6690   -0.1029 C   0  0  0  0  0  0  0  0  0  0  0  0 
   -0.9678    0.7379   -0.0390 C   0  0  0  0  0  0  0  0  0  0  0  0 
    0.5713   -1.5779   -0.1104 C   0  0  0  0  0  0  0  0  0  0  0  0 
    1.0981    2.2185   -0.0255 C   0  0  0  0  0  0  0  0  0  0  0  0 
    0.4252    0.8597   -0.0495 C   0  0  0  0  0  0  0  0  0  0  0  0 
    1.1785   -0.3242   -0.0791 C   0  0  0  0  0  0  0  0  0  0  0  0 
    1.6380    2.6259    1.3566 C   0  0  0  0  0  0  0  0  0  0  0  0 
    2.5575   -0.1823   -0.0761 O   0  0  0  0  0  0  0  0  0  0  0  0 
    1.2194    3.5726    1.9756 O   0  0  0  0  0  0  0  0  0  0  0  0 
    2.6348    1.8557    1.8456 O   0  0  0  0  0  0  0  0  0  0  0  0 
   -2.6779   -0.5726   -0.0567 H   0  0  0  0  0  0  0  0  0  0  0  0 
   -1.2940   -2.6465   -0.1257 H   0  0  0  0  0  0  0  0  0  0  0  0 
   -1.5675    1.6440   -0.0131 H   0  0  0  0  0  0  0  0  0  0  0  0 
    1.1836   -2.4775   -0.1380 H   0  0  0  0  0  0  0  0  0  0  0  0 
    0.3873    2.9925   -0.3194 H   0  0  0  0  0  0  0  0  0  0  0  0 
    1.9320    2.2352   -0.7395 H   0  0  0  0  0  0  0  0  0  0  0  0 
    2.9744   -1.0582   -0.0644 H   0  0  0  0  0  0  0  0  0  0  0  0 
    2.8392    1.1332    1.2168 H   0  0  0  0  0  0  0  0  0  0  0  0 
  1 12  1  0  0  0  0 
  1  3  2  0  0  0  0 
  2  1  1  0  0  0  0 
  3 14  1  0  0  0  0 
  4  2  2  0  0  0  0 
  4  7  1  0  0  0  0 
  5  8  1  0  0  0  0 
  6  3  1  0  0  0  0 
  6  5  1  0  0  0  0 
  7  9  1  0  0  0  0 
  7  6  2  0  0  0  0 
  8 11  1  0  0  0  0 
  8 10  2  0  0  0  0 
  9 18  1  0  0  0  0 
 13  2  1  0  0  0  0 
 15  4  1  0  0  0  0 
 16  5  1  0  0  0  0 
 17  5  1  0  0  0  0 
 19 11  1  0  0  0  0 
M  END 
>  <HBA> 
3 
 
>  <HBD> 
2 
 
>  <TPSA> 
57.53 
 
>  <cid> 
11970 
 
>  <dipole> 
6.03 
 
>  <excitation_energy_1> 
5.059 
 
>  <excitation_energy_2> 
5.305 
 
>  <excitation_energy_3> 
5.403 
 
>  <excitation_energy_4> 
5.793 
 
>  <homo_energy> 
-6.495 
 
>  <homo_lumo_gap> 
5.954 
 
>  <logP> 
1.019 
 
>  <lumo_energy> 
-0.542 
 
>  <melting_point> 
124.62 
 
>  <molecular_refractivity> 
40.01 
 
>  <oscillator_strength_1> 
0.0384 
 
>  <oscillator_strength_2> 
0.0048 
 
>  <oscillator_strength_3> 
0.0353 
 
>  <oscillator_strength_4> 
0.0077 
 
>  <open_babel_can_smiles> 
OC(=O)Cc1ccccc1O 
 
>  <mulliken_charges> 
19 
1   -0.123359 
2   -0.137621 
3   -0.189334 
4   -0.17507 
5   -0.467782 
6   0.139186 
7   0.291266 
8   0.593696 
9   -0.676765 
10   -0.442249 
11   -0.588394 
12   0.13757 
13   0.139716 
14   0.144602 
15   0.12694 
16   0.182049 
17   0.183152 
18   0.423357 
19   0.439041 
 
>  <lowdin_charges> 
19 
1   -0.163783 
2   -0.142929 
3   -0.145844 
4   -0.204082 
5   -0.313626 
6   -0.031136 
7   0.091817 
8   0.195303 
9   -0.393359 
10   -0.247198 
11   -0.369959 
12   0.161322 
13   0.163252 
14   0.166346 
15   0.15805 
16   0.178555 
17   0.173697 
18   0.366921 
19   0.356652 
 
$$$$ 
 
