PCCDB-ID:  69120 
public computational chemistry database (PCCDB) project, http://pccdb.org 
 
 22 22  0  0  0  0  0  0  0  0999 V2000 
    1.0805    0.0070    0.0513 C   0  0  0  0  0  0  0  0  0  0  0  0 
    2.5882   -2.5477   -0.0412 C   0  0  0  0  0  0  0  0  0  0  0  0 
    3.2848    1.2008   -0.1663 C   0  0  0  0  0  0  0  0  0  0  0  0 
    4.6914   -1.1836   -0.2634 C   0  0  0  0  0  0  0  0  0  0  0  0 
    2.5824   -0.0057   -0.0876 C   0  0  0  0  0  0  0  0  0  0  0  0 
    3.3001   -1.2210   -0.1284 C   0  0  0  0  0  0  0  0  0  0  0  0 
    4.6690    1.2237   -0.2898 C   0  0  0  0  0  0  0  0  0  0  0  0 
    5.3761    0.0227   -0.3517 C   0  0  0  0  0  0  0  0  0  0  0  0 
    5.3319    2.5371   -0.2292 N   0  0  0  0  0  0  0  0  0  0  0  0 
    6.8210   -0.0384   -0.6287 N   0  0  0  0  0  0  0  0  0  0  0  0 
    4.7640    3.4720   -0.7887 O   0  0  0  0  0  0  0  0  0  0  0  0 
    6.3685    2.6112    0.4213 O   0  0  0  0  0  0  0  0  0  0  0  0 
    7.4558   -0.9304   -0.0711 O   0  0  0  0  0  0  0  0  0  0  0  0 
    7.2703    0.7666   -1.4369 O   0  0  0  0  0  0  0  0  0  0  0  0 
    0.6906    1.0280    0.0423 H   0  0  0  0  0  0  0  0  0  0  0  0 
    0.7613   -0.4685    0.9873 H   0  0  0  0  0  0  0  0  0  0  0  0 
    0.5993   -0.5456   -0.7650 H   0  0  0  0  0  0  0  0  0  0  0  0 
    3.2966   -3.3799   -0.0593 H   0  0  0  0  0  0  0  0  0  0  0  0 
    1.8886   -2.6817   -0.8759 H   0  0  0  0  0  0  0  0  0  0  0  0 
    1.9997   -2.6252    0.8812 H   0  0  0  0  0  0  0  0  0  0  0  0 
    2.7604    2.1488   -0.1180 H   0  0  0  0  0  0  0  0  0  0  0  0 
    5.2658   -2.1019   -0.3161 H   0  0  0  0  0  0  0  0  0  0  0  0 
  1 16  1  0  0  0  0 
  2 20  1  0  0  0  0 
  3 21  1  0  0  0  0 
  3  5  2  0  0  0  0 
  4  6  2  0  0  0  0 
  5  1  1  0  0  0  0 
  6  5  1  0  0  0  0 
  6  2  1  0  0  0  0 
  7  9  1  0  0  0  0 
  7  3  1  0  0  0  0 
  8  7  2  0  0  0  0 
  8  4  1  0  0  0  0 
  9 12  2  0  0  0  0 
 10  8  1  0  0  0  0 
 10 13  2  0  0  0  0 
 11  9  2  0  0  0  0 
 14 10  2  0  0  0  0 
 15  1  1  0  0  0  0 
 17  1  1  0  0  0  0 
 18  2  1  0  0  0  0 
 19  2  1  0  0  0  0 
 22  4  1  0  0  0  0 
M  END 
>  <HBA> 
0 
 
>  <HBD> 
0 
 
>  <TPSA> 
91.64 
 
>  <cid> 
69120 
 
>  <dipole> 
7.89 
 
>  <excitation_energy_1> 
3.594 
 
>  <excitation_energy_2> 
3.769 
 
>  <excitation_energy_3> 
4.149 
 
>  <excitation_energy_4> 
4.214 
 
>  <homo_energy> 
-7.549 
 
>  <homo_lumo_gap> 
4.691 
 
>  <logP> 
3.166 
 
>  <lumo_energy> 
-2.857 
 
>  <melting_point> 
91.59 
 
>  <molecular_refractivity> 
54.02 
 
>  <oscillator_strength_1> 
0.0252 
 
>  <oscillator_strength_2> 
0.0333 
 
>  <oscillator_strength_3> 
0.0018 
 
>  <oscillator_strength_4> 
0.0005 
 
>  <open_babel_can_smiles> 
Cc1cc(N(=O)=O)c(cc1C)N(=O)=O 
 
>  <mulliken_charges> 
22 
1   -0.538201 
2   -0.538092 
3   -0.212281 
4   -0.212285 
5   0.139204 
6   0.139666 
7   0.279515 
8   0.278901 
9   0.362667 
10   0.362822 
11   -0.370757 
12   -0.368518 
13   -0.370527 
14   -0.368382 
15   0.174041 
16   0.176256 
17   0.175757 
18   0.173976 
19   0.176336 
20   0.175632 
21   0.182162 
22   0.182106 
 
>  <lowdin_charges> 
22 
1   -0.440691 
2   -0.441059 
3   -0.14269 
4   -0.144253 
5   0.014582 
6   0.014335 
7   0.018736 
8   0.021247 
9   0.309631 
10   0.3116 
11   -0.23278 
12   -0.220197 
13   -0.233081 
14   -0.221636 
15   0.166838 
16   0.16904 
17   0.16993 
18   0.168086 
19   0.169465 
20   0.169007 
21   0.186795 
22   0.187094 
 
$$$$ 
 
