PCCDB-ID:  24805 
public computational chemistry database (PCCDB) project, http://pccdb.org 
 
 37 36  0  0  1  0  0  0  0  0999 V2000 
    6.6550    1.6705    0.2411 C   0  0  0  0  0  0  0  0  0  0  0  0 
    2.1445   -2.0483   -1.4566 C   0  0  0  0  0  0  0  0  0  0  0  0 
    8.4972   -2.9311   -4.2584 C   0  0  0  0  0  0  0  0  0  0  0  0 
    6.0937    0.6455    1.2340 C   0  0  0  0  0  0  0  0  0  0  0  0 
    3.5379   -2.4502   -1.9564 C   0  0  0  0  0  0  0  0  0  0  0  0 
    5.9746   -0.7817    0.6725 C   0  0  0  0  0  0  0  0  0  0  0  0 
    4.9605   -0.9243   -0.4737 C   0  0  0  0  0  0  0  0  0  0  0  0 
    6.6632   -2.6226   -2.5444 C   0  0  0  0  0  0  0  0  0  0  0  0 
    5.9096   -3.1717   -1.3226 C   0  0  0  0  0  0  0  0  0  0  0  0 
    7.8454   -3.4971   -2.9942 C   0  0  2  0  0  0  0  0  0  0  0  0 
    4.6521   -2.3800   -0.8878 C   0  0  2  0  0  0  0  0  0  0  0  0 
    8.8616   -3.5488   -1.9292 N   0  0  0  0  0  0  0  0  0  0  0  0 
    6.7685    2.6541    0.7114 H   0  0  0  0  0  0  0  0  0  0  0  0 
    6.0007    1.7960   -0.6288 H   0  0  0  0  0  0  0  0  0  0  0  0 
    7.6412    1.3614   -0.1276 H   0  0  0  0  0  0  0  0  0  0  0  0 
    1.3960   -2.1681   -2.2484 H   0  0  0  0  0  0  0  0  0  0  0  0 
    2.1078   -1.0034   -1.1293 H   0  0  0  0  0  0  0  0  0  0  0  0 
    1.8342   -2.6724   -0.6091 H   0  0  0  0  0  0  0  0  0  0  0  0 
    7.7728   -2.8636   -5.0777 H   0  0  0  0  0  0  0  0  0  0  0  0 
    9.3247   -3.5680   -4.5966 H   0  0  0  0  0  0  0  0  0  0  0  0 
    8.9004   -1.9309   -4.0631 H   0  0  0  0  0  0  0  0  0  0  0  0 
    5.1070    0.9796    1.5862 H   0  0  0  0  0  0  0  0  0  0  0  0 
    6.7403    0.6201    2.1218 H   0  0  0  0  0  0  0  0  0  0  0  0 
    3.8078   -1.8211   -2.8159 H   0  0  0  0  0  0  0  0  0  0  0  0 
    3.4867   -3.4796   -2.3388 H   0  0  0  0  0  0  0  0  0  0  0  0 
    5.6825   -1.4578    1.4896 H   0  0  0  0  0  0  0  0  0  0  0  0 
    6.9679   -1.1135    0.3403 H   0  0  0  0  0  0  0  0  0  0  0  0 
    5.3076   -0.3653   -1.3532 H   0  0  0  0  0  0  0  0  0  0  0  0 
    4.0236   -0.4424   -0.1624 H   0  0  0  0  0  0  0  0  0  0  0  0 
    7.0519   -1.6187   -2.3301 H   0  0  0  0  0  0  0  0  0  0  0  0 
    5.9716   -2.5274   -3.3919 H   0  0  0  0  0  0  0  0  0  0  0  0 
    6.5975   -3.2235   -0.4693 H   0  0  0  0  0  0  0  0  0  0  0  0 
    5.6024   -4.2079   -1.5317 H   0  0  0  0  0  0  0  0  0  0  0  0 
    7.4442   -4.5001   -3.2404 H   0  0  0  0  0  0  0  0  0  0  0  0 
    4.2661   -2.8944    0.0079 H   0  0  0  0  0  0  0  0  0  0  0  0 
    8.4993   -4.0653   -1.1295 H   0  0  0  0  0  0  0  0  0  0  0  0 
    9.6675   -4.0801   -2.2581 H   0  0  0  0  0  0  0  0  0  0  0  0 
  1 13  1  0  0  0  0 
  1  4  1  0  0  0  0 
  2 17  1  0  0  0  0 
  2 18  1  0  0  0  0 
  3 21  1  0  0  0  0 
  3 10  1  0  0  0  0 
  4 22  1  0  0  0  0 
  4 23  1  0  0  0  0 
  5  2  1  0  0  0  0 
  5 11  1  0  0  0  0 
  6  4  1  0  0  0  0 
  6 26  1  0  0  0  0 
  7 29  1  0  0  0  0 
  7  6  1  0  0  0  0 
  8 30  1  0  0  0  0 
  8  9  1  0  0  0  0 
  9 11  1  0  0  0  0 
  9 32  1  0  0  0  0 
 10 34  1  6  0  0  0 
 10  8  1  0  0  0  0 
 10 12  1  0  0  0  0 
 11  7  1  0  0  0  0 
 11 35  1  1  0  0  0 
 12 36  1  0  0  0  0 
 14  1  1  0  0  0  0 
 15  1  1  0  0  0  0 
 16  2  1  0  0  0  0 
 19  3  1  0  0  0  0 
 20  3  1  0  0  0  0 
 24  5  1  0  0  0  0 
 25  5  1  0  0  0  0 
 27  6  1  0  0  0  0 
 28  7  1  0  0  0  0 
 31  8  1  0  0  0  0 
 33  9  1  0  0  0  0 
 37 12  1  0  0  0  0 
M  END 
>  <HBA> 
1 
 
>  <HBD> 
1 
 
>  <TPSA> 
26.02 
 
>  <cid> 
24805 
 
>  <dipole> 
1.27 
 
>  <excitation_energy_1> 
5.648 
 
>  <excitation_energy_2> 
6.283 
 
>  <excitation_energy_3> 
6.383 
 
>  <excitation_energy_4> 
6.425 
 
>  <homo_energy> 
-6.24 
 
>  <homo_lumo_gap> 
8.313 
 
>  <logP> 
4.03 
 
>  <lumo_energy> 
2.074 
 
>  <melting_point> 
24.37 
 
>  <molecular_refractivity> 
57.7 
 
>  <oscillator_strength_1> 
0.0084 
 
>  <oscillator_strength_2> 
0.0094 
 
>  <oscillator_strength_3> 
0.0256 
 
>  <oscillator_strength_4> 
0.0207 
 
>  <open_babel_can_smiles> 
CCCC[C@H](CC[C@H](N)C)CC 
 
>  <mulliken_charges> 
37 
1   -0.443825 
2   -0.449203 
3   -0.444788 
4   -0.249587 
5   -0.254375 
6   -0.261542 
7   -0.262962 
8   -0.24307 
9   -0.285965 
10   0.037108 
11   -0.067772 
12   -0.72277 
13   0.139934 
14   0.145022 
15   0.14427 
16   0.140845 
17   0.146869 
18   0.140345 
19   0.140269 
20   0.132041 
21   0.155316 
22   0.127111 
23   0.129109 
24   0.131709 
25   0.125721 
26   0.123384 
27   0.143428 
28   0.134094 
29   0.127814 
30   0.143039 
31   0.127121 
32   0.134206 
33   0.120125 
34   0.099723 
35   0.110342 
36   0.296346 
37   0.290568 
 
>  <lowdin_charges> 
37 
1   -0.447064 
2   -0.44679 
3   -0.448307 
4   -0.272212 
5   -0.27524 
6   -0.279922 
7   -0.282623 
8   -0.283479 
9   -0.282472 
10   -0.059917 
11   -0.125806 
12   -0.561348 
13   0.148149 
14   0.147124 
15   0.147145 
16   0.149941 
17   0.145998 
18   0.146137 
19   0.150363 
20   0.144781 
21   0.153965 
22   0.136397 
23   0.140988 
24   0.139751 
25   0.138096 
26   0.138853 
27   0.143152 
28   0.14056 
29   0.140304 
30   0.146361 
31   0.141711 
32   0.141766 
33   0.134674 
34   0.111157 
35   0.13331 
36   0.252202 
37   0.252296 
 
$$$$ 
 
