PCCDB-ID:  13872 
public computational chemistry database (PCCDB) project, http://pccdb.org 
 
 20 21  0  0  0  0  0  0  0  0999 V2000 
    2.1930   -0.2588    1.3455 C   0  0  0  0  0  0  0  0  0  0  0  0 
    3.9005   -0.4382   -1.8735 C   0  0  0  0  0  0  0  0  0  0  0  0 
    4.3498   -1.3287   -2.8339 C   0  0  0  0  0  0  0  0  0  0  0  0 
    3.4187   -4.5992   -1.5568 C   0  0  0  0  0  0  0  0  0  0  0  0 
    4.0282   -4.9404   -2.7377 C   0  0  0  0  0  0  0  0  0  0  0  0 
    3.0186   -2.2455   -0.4847 C   0  0  0  0  0  0  0  0  0  0  0  0 
    3.4689   -3.1682   -1.4520 C   0  0  0  0  0  0  0  0  0  0  0  0 
    3.2391   -0.8906   -0.7055 C   0  0  0  0  0  0  0  0  0  0  0  0 
    4.1294   -2.6940   -2.6154 C   0  0  0  0  0  0  0  0  0  0  0  0 
    4.4576   -3.7977   -3.3820 N   0  0  0  0  0  0  0  0  0  0  0  0 
    2.8538    0.1113    0.1506 O   0  0  0  0  0  0  0  0  0  0  0  0 
    1.9836    0.6722    1.8766 H   0  0  0  0  0  0  0  0  0  0  0  0 
    2.8234   -0.9016    1.9758 H   0  0  0  0  0  0  0  0  0  0  0  0 
    1.2471   -0.7800    1.1417 H   0  0  0  0  0  0  0  0  0  0  0  0 
    4.0448    0.6308   -1.9923 H   0  0  0  0  0  0  0  0  0  0  0  0 
    4.8554   -0.9705   -3.7270 H   0  0  0  0  0  0  0  0  0  0  0  0 
    2.9847   -5.2886   -0.8456 H   0  0  0  0  0  0  0  0  0  0  0  0 
    4.1936   -5.9133   -3.1795 H   0  0  0  0  0  0  0  0  0  0  0  0 
    2.5115   -2.6004    0.4054 H   0  0  0  0  0  0  0  0  0  0  0  0 
    4.9436   -3.7729   -4.2642 H   0  0  0  0  0  0  0  0  0  0  0  0 
  1 12  1  0  0  0  0 
  1 13  1  0  0  0  0 
  2  8  2  0  0  0  0 
  3  9  2  0  0  0  0 
  3  2  1  0  0  0  0 
  4  7  1  0  0  0  0 
  4 17  1  0  0  0  0 
  5  4  2  0  0  0  0 
  6 19  1  0  0  0  0 
  7  6  2  0  0  0  0 
  8  6  1  0  0  0  0 
  8 11  1  0  0  0  0 
  9  7  1  0  0  0  0 
 10  5  1  0  0  0  0 
 10  9  1  0  0  0  0 
 11  1  1  0  0  0  0 
 14  1  1  0  0  0  0 
 15  2  1  0  0  0  0 
 16  3  1  0  0  0  0 
 18  5  1  0  0  0  0 
 20 10  1  0  0  0  0 
M  END 
>  <HBA> 
1 
 
>  <HBD> 
1 
 
>  <TPSA> 
25.02 
 
>  <cid> 
13872 
 
>  <dipole> 
1.73 
 
>  <excitation_energy_1> 
4.484 
 
>  <excitation_energy_2> 
4.744 
 
>  <excitation_energy_3> 
4.808 
 
>  <excitation_energy_4> 
4.866 
 
>  <homo_energy> 
-5.211 
 
>  <homo_lumo_gap> 
5.181 
 
>  <logP> 
2.176 
 
>  <lumo_energy> 
-0.03 
 
>  <melting_point> 
101.03 
 
>  <molecular_refractivity> 
44.79 
 
>  <oscillator_strength_1> 
0.0516 
 
>  <oscillator_strength_2> 
0.0002 
 
>  <oscillator_strength_3> 
0.1304 
 
>  <oscillator_strength_4> 
0.0039 
 
>  <open_babel_can_smiles> 
COc1ccc2c(c1)cc[nH]2 
 
>  <mulliken_charges> 
20 
1   -0.207307 
2   -0.193749 
3   -0.162829 
4   -0.231327 
5   0.049814 
6   -0.28369 
7   0.116174 
8   0.371398 
9   0.305941 
10   -0.681318 
11   -0.515589 
12   0.163428 
13   0.146722 
14   0.146604 
15   0.132034 
16   0.121916 
17   0.12449 
18   0.146826 
19   0.124806 
20   0.325655 
 
>  <lowdin_charges> 
20 
1   -0.279115 
2   -0.185062 
3   -0.175709 
4   -0.231841 
5   -0.123672 
6   -0.223352 
7   -0.018916 
8   0.088193 
9   0.013074 
10   -0.197919 
11   -0.206955 
12   0.159666 
13   0.143463 
14   0.141521 
15   0.163047 
16   0.156488 
17   0.162712 
18   0.163694 
19   0.160921 
20   0.289762 
 
$$$$ 
 
