PCCDB-ID:  20594 
public computational chemistry database (PCCDB) project, http://pccdb.org 
 
 15 15  0  0  1  0  0  0  0  0999 V2000 
    1.0810   -0.1327    0.4833 C   0  0  0  0  0  0  0  0  0  0  0  0 
    4.2236    0.9647   -1.4499 C   0  0  0  0  0  0  0  0  0  0  0  0 
    2.5644   -0.0460    0.1297 C   0  0  2  0  0  0  0  0  0  0  0  0 
    3.0115    1.2498   -0.5599 C   0  0  0  0  0  0  0  0  0  0  0  0 
    4.1988   -0.5406   -1.6996 C   0  0  0  0  0  0  0  0  0  0  0  0 
    3.1022   -1.1561   -0.7720 C   0  0  0  0  0  0  0  0  0  0  0  0 
    2.4637    2.3218   -0.4452 O   0  0  0  0  0  0  0  0  0  0  0  0 
    4.8718   -1.1746   -2.4735 O   0  0  0  0  0  0  0  0  0  0  0  0 
    2.7442   -2.3073   -0.8120 O   0  0  0  0  0  0  0  0  0  0  0  0 
    0.8013    0.6901    1.1455 H   0  0  0  0  0  0  0  0  0  0  0  0 
    0.8661   -1.0846    0.9758 H   0  0  0  0  0  0  0  0  0  0  0  0 
    0.4644   -0.0669   -0.4184 H   0  0  0  0  0  0  0  0  0  0  0  0 
    5.1496    1.2278   -0.9170 H   0  0  0  0  0  0  0  0  0  0  0  0 
    4.2089    1.5533   -2.3726 H   0  0  0  0  0  0  0  0  0  0  0  0 
    3.1691   -0.1095    1.0543 H   0  0  0  0  0  0  0  0  0  0  0  0 
  1 11  1  0  0  0  0 
  1 10  1  0  0  0  0 
  2 13  1  0  0  0  0 
  2  4  1  0  0  0  0 
  3  1  1  0  0  0  0 
  3 15  1  1  0  0  0 
  4  7  2  0  0  0  0 
  4  3  1  0  0  0  0 
  5  2  1  0  0  0  0 
  5  6  1  0  0  0  0 
  6  3  1  0  0  0  0 
  8  5  2  0  0  0  0 
  9  6  2  0  0  0  0 
 12  1  1  0  0  0  0 
 14  2  1  0  0  0  0 
M  END 
>  <HBA> 
3 
 
>  <HBD> 
0 
 
>  <TPSA> 
51.21 
 
>  <cid> 
20594 
 
>  <dipole> 
2.29 
 
>  <excitation_energy_1> 
2.422 
 
>  <excitation_energy_2> 
3.257 
 
>  <excitation_energy_3> 
4.307 
 
>  <excitation_energy_4> 
4.531 
 
>  <homo_energy> 
-6.928 
 
>  <homo_lumo_gap> 
3.959 
 
>  <logP> 
-0.267 
 
>  <lumo_energy> 
-2.969 
 
>  <melting_point> 
60.19 
 
>  <molecular_refractivity> 
29.44 
 
>  <oscillator_strength_1> 
0.0002 
 
>  <oscillator_strength_2> 
0.001 
 
>  <oscillator_strength_3> 
0.0 
 
>  <oscillator_strength_4> 
0.0003 
 
>  <open_babel_can_smiles> 
O=C1CC(=O)[C@H](C1=O)C 
 
>  <mulliken_charges> 
15 
1   -0.436961 
2   -0.463036 
3   -0.285057 
4   0.448244 
5   0.404524 
6   0.399977 
7   -0.42997 
8   -0.395356 
9   -0.402515 
10   0.176348 
11   0.17405 
12   0.165567 
13   0.218691 
14   0.219378 
15   0.206117 
 
>  <lowdin_charges> 
15 
1   -0.431699 
2   -0.347105 
3   -0.195111 
4   0.15412 
5   0.125337 
6   0.120366 
7   -0.205441 
8   -0.15829 
9   -0.160332 
10   0.171099 
11   0.168917 
12   0.163211 
13   0.202735 
14   0.19905 
15   0.193143 
 
$$$$ 
 
