PCCDB-ID:  19474 
public computational chemistry database (PCCDB) project, http://pccdb.org 
 
 12 12  0  0  0  0  0  0  0  0999 V2000 
    0.3232    1.0612   -0.0138 C   0  0  0  0  0  0  0  0  0  0  0  0 
    1.0637   -0.3216    0.0183 C   0  0  0  0  0  0  0  0  0  0  0  0 
   -2.3292    0.6327   -0.0353 C   0  0  0  0  0  0  0  0  0  0  0  0 
   -0.7627   -2.2921    0.0349 C   0  0  0  0  0  0  0  0  0  0  0  0 
   -0.9647    0.2511   -0.0144 C   0  0  0  0  0  0  0  0  0  0  0  0 
   -0.3243   -0.9448    0.0148 C   0  0  0  0  0  0  0  0  0  0  0  0 
   -3.4388    0.9854   -0.0529 N   0  0  0  0  0  0  0  0  0  0  0  0 
   -1.0839   -3.4112    0.0525 N   0  0  0  0  0  0  0  0  0  0  0  0 
    0.4924    1.6601   -0.9141 H   0  0  0  0  0  0  0  0  0  0  0  0 
    0.4714    1.6897    0.8698 H   0  0  0  0  0  0  0  0  0  0  0  0 
    1.6540   -0.5138    0.9197 H   0  0  0  0  0  0  0  0  0  0  0  0 
    1.6713   -0.5452   -0.8642 H   0  0  0  0  0  0  0  0  0  0  0  0 
  1  2  1  0  0  0  0 
  1 10  1  0  0  0  0 
  2 11  1  0  0  0  0 
  3  5  1  0  0  0  0 
  4  8  3  0  0  0  0 
  5  1  1  0  0  0  0 
  5  6  2  0  0  0  0 
  6  2  1  0  0  0  0 
  6  4  1  0  0  0  0 
  7  3  3  0  0  0  0 
  9  1  1  0  0  0  0 
 12  2  1  0  0  0  0 
M  END 
>  <HBA> 
2 
 
>  <HBD> 
0 
 
>  <TPSA> 
47.58 
 
>  <cid> 
19474 
 
>  <dipole> 
5.39 
 
>  <excitation_energy_1> 
5.077 
 
>  <excitation_energy_2> 
5.323 
 
>  <excitation_energy_3> 
5.556 
 
>  <excitation_energy_4> 
6.199 
 
>  <homo_energy> 
-7.823 
 
>  <homo_lumo_gap> 
5.116 
 
>  <logP> 
1.124 
 
>  <lumo_energy> 
-2.708 
 
>  <melting_point> 
80.45 
 
>  <molecular_refractivity> 
27.87 
 
>  <oscillator_strength_1> 
0.3777 
 
>  <oscillator_strength_2> 
0.0 
 
>  <oscillator_strength_3> 
0.0015 
 
>  <oscillator_strength_4> 
0.0 
 
>  <open_babel_can_smiles> 
N#CC1=C(CC1)C#N 
 
>  <mulliken_charges> 
12 
1   -0.329251 
2   -0.329445 
3   0.248949 
4   0.248953 
5   0.171588 
6   0.171718 
7   -0.46098 
8   -0.460981 
9   0.184802 
10   0.184933 
11   0.18482 
12   0.184895 
 
>  <lowdin_charges> 
12 
1   -0.255619 
2   -0.256413 
3   -0.014835 
4   -0.014587 
5   0.004838 
6   0.003972 
7   -0.07658 
8   -0.076627 
9   0.171373 
10   0.171511 
11   0.1714 
12   0.171568 
 
$$$$ 
 
