PCCDB-ID:  69133 
public computational chemistry database (PCCDB) project, http://pccdb.org 
 
 21 21  0  0  0  0  0  0  0  0999 V2000 
    2.5701   -0.9807   -1.4831 C   0  0  0  0  0  0  0  0  0  0  0  0 
    1.6256    0.2189   -1.4340 C   0  0  0  0  0  0  0  0  0  0  0  0 
    1.5404    4.9952    0.2957 C   0  0  0  0  0  0  0  0  0  0  0  0 
    0.2382    5.2162   -0.1611 C   0  0  0  0  0  0  0  0  0  0  0  0 
    2.1320    3.7575    0.0809 C   0  0  0  0  0  0  0  0  0  0  0  0 
   -0.4478    4.2028   -0.8213 C   0  0  0  0  0  0  0  0  0  0  0  0 
    1.4678    2.7101   -0.5829 C   0  0  0  0  0  0  0  0  0  0  0  0 
    2.2413    1.4249   -0.7391 C   0  0  0  0  0  0  0  0  0  0  0  0 
    0.1533    2.9549   -1.0353 C   0  0  0  0  0  0  0  0  0  0  0  0 
    3.3804    1.3606   -0.2959 O   0  0  0  0  0  0  0  0  0  0  0  0 
   -0.5326    1.9674   -1.6869 O   0  0  0  0  0  0  0  0  0  0  0  0 
    2.0859   -1.8243   -1.9868 H   0  0  0  0  0  0  0  0  0  0  0  0 
    2.8593   -1.2975   -0.4767 H   0  0  0  0  0  0  0  0  0  0  0  0 
    3.4905   -0.7375   -2.0222 H   0  0  0  0  0  0  0  0  0  0  0  0 
    0.6873   -0.0333   -0.9235 H   0  0  0  0  0  0  0  0  0  0  0  0 
    1.3131    0.5220   -2.4415 H   0  0  0  0  0  0  0  0  0  0  0  0 
    2.0842    5.7805    0.8117 H   0  0  0  0  0  0  0  0  0  0  0  0 
   -0.2463    6.1763   -0.0052 H   0  0  0  0  0  0  0  0  0  0  0  0 
    3.1411    3.5528    0.4228 H   0  0  0  0  0  0  0  0  0  0  0  0 
   -1.4629    4.3711   -1.1783 H   0  0  0  0  0  0  0  0  0  0  0  0 
   -1.4119    2.3044   -1.9210 H   0  0  0  0  0  0  0  0  0  0  0  0 
  1  2  1  0  0  0  0 
  1 13  1  0  0  0  0 
  2 15  1  0  0  0  0 
  2  8  1  0  0  0  0 
  3 17  1  0  0  0  0 
  4 18  1  0  0  0  0 
  4  3  2  0  0  0  0 
  5  3  1  0  0  0  0 
  5 19  1  0  0  0  0 
  6  4  1  0  0  0  0 
  7  5  2  0  0  0  0 
  8  7  1  0  0  0  0 
  8 10  2  0  0  0  0 
  9  6  2  0  0  0  0 
  9  7  1  0  0  0  0 
 11  9  1  0  0  0  0 
 12  1  1  0  0  0  0 
 14  1  1  0  0  0  0 
 16  2  1  0  0  0  0 
 20  6  1  0  0  0  0 
 21 11  1  0  0  0  0 
M  END 
>  <HBA> 
2 
 
>  <HBD> 
1 
 
>  <TPSA> 
37.3 
 
>  <cid> 
69133 
 
>  <dipole> 
4.38 
 
>  <excitation_energy_1> 
3.817 
 
>  <excitation_energy_2> 
4.411 
 
>  <excitation_energy_3> 
5.226 
 
>  <excitation_energy_4> 
5.382 
 
>  <homo_energy> 
-6.376 
 
>  <homo_lumo_gap> 
5.102 
 
>  <logP> 
1.985 
 
>  <lumo_energy> 
-1.274 
 
>  <melting_point> 
78.52 
 
>  <molecular_refractivity> 
43.47 
 
>  <oscillator_strength_1> 
0.0 
 
>  <oscillator_strength_2> 
0.0764 
 
>  <oscillator_strength_3> 
0.1811 
 
>  <oscillator_strength_4> 
0.0 
 
>  <open_babel_can_smiles> 
CCC(=O)c1ccccc1O 
 
>  <mulliken_charges> 
21 
1   -0.433794 
2   -0.340194 
3   -0.132928 
4   -0.125535 
5   -0.172766 
6   -0.191966 
7   0.056092 
8   0.408746 
9   0.284138 
10   -0.469011 
11   -0.642121 
12   0.133805 
13   0.157122 
14   0.157023 
15   0.166937 
16   0.167276 
17   0.135373 
18   0.138557 
19   0.16868 
20   0.121464 
21   0.413101 
 
>  <lowdin_charges> 
21 
1   -0.441723 
2   -0.304931 
3   -0.178605 
4   -0.129803 
5   -0.115594 
6   -0.213722 
7   -0.082179 
8   0.162927 
9   0.109563 
10   -0.251219 
11   -0.365451 
12   0.147828 
13   0.156352 
14   0.157038 
15   0.165976 
16   0.165631 
17   0.162978 
18   0.162331 
19   0.179263 
20   0.153396 
21   0.359943 
 
$$$$ 
 
