PCCDB-ID:  7248 
public computational chemistry database (PCCDB) project, http://pccdb.org 
 
 20 20  0  0  0  0  0  0  0  0999 V2000 
    0.9055   -0.1331    0.1091 C   0  0  0  0  0  0  0  0  0  0  0  0 
    2.3953    2.4273   -0.0552 C   0  0  0  0  0  0  0  0  0  0  0  0 
    3.1437   -1.3032    0.0014 C   0  0  0  0  0  0  0  0  0  0  0  0 
    4.5339   -1.3212   -0.0856 C   0  0  0  0  0  0  0  0  0  0  0  0 
    4.5195    1.0847   -0.1496 C   0  0  0  0  0  0  0  0  0  0  0  0 
    2.4133   -0.1110    0.0153 C   0  0  0  0  0  0  0  0  0  0  0  0 
    3.1263    1.1046   -0.0624 C   0  0  0  0  0  0  0  0  0  0  0  0 
    5.2456   -0.1170   -0.1627 C   0  0  0  0  0  0  0  0  0  0  0  0 
    6.6477   -0.1051   -0.1883 N   0  0  0  0  0  0  0  0  0  0  0  0 
    0.5329   -1.1609    0.1648 H   0  0  0  0  0  0  0  0  0  0  0  0 
    0.4302    0.3435   -0.7590 H   0  0  0  0  0  0  0  0  0  0  0  0 
    0.5394    0.3990    0.9976 H   0  0  0  0  0  0  0  0  0  0  0  0 
    3.0937    3.2679   -0.1122 H   0  0  0  0  0  0  0  0  0  0  0  0 
    1.7953    2.5530    0.8556 H   0  0  0  0  0  0  0  0  0  0  0  0 
    1.7010    2.5116   -0.9016 H   0  0  0  0  0  0  0  0  0  0  0  0 
    2.6091   -2.2493    0.0585 H   0  0  0  0  0  0  0  0  0  0  0  0 
    5.0689   -2.2685   -0.0903 H   0  0  0  0  0  0  0  0  0  0  0  0 
    5.0604    2.0283   -0.2054 H   0  0  0  0  0  0  0  0  0  0  0  0 
    7.0641   -0.9462   -0.5698 H   0  0  0  0  0  0  0  0  0  0  0  0 
    7.0501    0.7205   -0.6160 H   0  0  0  0  0  0  0  0  0  0  0  0 
  1 10  1  0  0  0  0 
  1 12  1  0  0  0  0 
  2 14  1  0  0  0  0 
  3  6  1  0  0  0  0 
  3 16  1  0  0  0  0 
  4  3  2  0  0  0  0 
  5  7  1  0  0  0  0 
  6  1  1  0  0  0  0 
  7  2  1  0  0  0  0 
  7  6  2  0  0  0  0 
  8  5  2  0  0  0  0 
  8  4  1  0  0  0  0 
  9  8  1  0  0  0  0 
 11  1  1  0  0  0  0 
 13  2  1  0  0  0  0 
 15  2  1  0  0  0  0 
 17  4  1  0  0  0  0 
 18  5  1  0  0  0  0 
 19  9  1  0  0  0  0 
 20  9  1  0  0  0  0 
M  END 
>  <HBA> 
1 
 
>  <HBD> 
1 
 
>  <TPSA> 
26.02 
 
>  <cid> 
7248 
 
>  <dipole> 
1.45 
 
>  <excitation_energy_1> 
4.603 
 
>  <excitation_energy_2> 
4.632 
 
>  <excitation_energy_3> 
5.155 
 
>  <excitation_energy_4> 
5.231 
 
>  <homo_energy> 
-5.165 
 
>  <homo_lumo_gap> 
5.554 
 
>  <logP> 
2.467 
 
>  <lumo_energy> 
0.389 
 
>  <melting_point> 
62.15 
 
>  <molecular_refractivity> 
40.78 
 
>  <oscillator_strength_1> 
0.0086 
 
>  <oscillator_strength_2> 
0.0314 
 
>  <oscillator_strength_3> 
0.0068 
 
>  <oscillator_strength_4> 
0.0004 
 
>  <open_babel_can_smiles> 
Nc1ccc(c(c1)C)C 
 
>  <mulliken_charges> 
20 
1   -0.532175 
2   -0.532487 
3   -0.193815 
4   -0.173806 
5   -0.236789 
6   0.128892 
7   0.12941 
8   0.313871 
9   -0.789109 
10   0.15007 
11   0.152345 
12   0.153401 
13   0.150853 
14   0.158588 
15   0.157085 
16   0.11547 
17   0.110823 
18   0.105722 
19   0.315921 
20   0.315732 
 
>  <lowdin_charges> 
20 
1   -0.441218 
2   -0.441371 
3   -0.157102 
4   -0.207529 
5   -0.211379 
6   -0.0351 
7   0.001906 
8   0.057946 
9   -0.495758 
10   0.153832 
11   0.154086 
12   0.154476 
13   0.155123 
14   0.158199 
15   0.157579 
16   0.151541 
17   0.150504 
18   0.147486 
19   0.273421 
20   0.273358 
 
$$$$ 
 
