PCCDB-ID:  19876 
public computational chemistry database (PCCDB) project, http://pccdb.org 
 
 31 32  0  0  0  0  0  0  0  0999 V2000 
    0.9176    0.0611    0.0904 C   0  0  0  0  0  0  0  0  0  0  0  0 
    5.2521    2.5603   -0.5790 C   0  0  0  0  0  0  0  0  0  0  0  0 
    5.2994   -2.3726    0.6845 C   0  0  0  0  0  0  0  0  0  0  0  0 
    9.5695    0.1192   -0.0209 C   0  0  0  0  0  0  0  0  0  0  0  0 
    8.8504   -0.2243   -1.1670 C   0  0  0  0  0  0  0  0  0  0  0  0 
    8.8842    0.4544    1.1481 C   0  0  0  0  0  0  0  0  0  0  0  0 
    7.4547   -0.2334   -1.1425 C   0  0  0  0  0  0  0  0  0  0  0  0 
    7.4884    0.4451    1.1699 C   0  0  0  0  0  0  0  0  0  0  0  0 
    3.1375    1.2417   -0.2122 C   0  0  0  0  0  0  0  0  0  0  0  0 
    3.1599   -1.0778    0.3838 C   0  0  0  0  0  0  0  0  0  0  0  0 
    2.4288    0.0774    0.0948 C   0  0  0  0  0  0  0  0  0  0  0  0 
    4.5358    1.2710   -0.2417 C   0  0  0  0  0  0  0  0  0  0  0  0 
    4.5584   -1.0926    0.3649 C   0  0  0  0  0  0  0  0  0  0  0  0 
    6.7529    0.1015    0.0254 C   0  0  0  0  0  0  0  0  0  0  0  0 
    5.2541    0.0928    0.0488 C   0  0  0  0  0  0  0  0  0  0  0  0 
    0.5050    1.0456    0.3361 H   0  0  0  0  0  0  0  0  0  0  0  0 
    0.5221   -0.6617    0.8123 H   0  0  0  0  0  0  0  0  0  0  0  0 
    0.5240   -0.2185   -0.8963 H   0  0  0  0  0  0  0  0  0  0  0  0 
    4.5363    3.3554   -0.8096 H   0  0  0  0  0  0  0  0  0  0  0  0 
    5.9159    2.4404   -1.4431 H   0  0  0  0  0  0  0  0  0  0  0  0 
    5.8819    2.9034    0.2505 H   0  0  0  0  0  0  0  0  0  0  0  0 
    4.6006   -3.1712    0.9520 H   0  0  0  0  0  0  0  0  0  0  0  0 
    5.9983   -2.2395    1.5183 H   0  0  0  0  0  0  0  0  0  0  0  0 
    5.8961   -2.7184   -0.1682 H   0  0  0  0  0  0  0  0  0  0  0  0 
   10.6561    0.1263   -0.0389 H   0  0  0  0  0  0  0  0  0  0  0  0 
    9.3758   -0.4861   -2.0820 H   0  0  0  0  0  0  0  0  0  0  0  0 
    9.4360    0.7226    2.0454 H   0  0  0  0  0  0  0  0  0  0  0  0 
    6.8976   -0.5010   -2.0370 H   0  0  0  0  0  0  0  0  0  0  0  0 
    6.9577    0.7054    2.0824 H   0  0  0  0  0  0  0  0  0  0  0  0 
    2.5887    2.1550   -0.4352 H   0  0  0  0  0  0  0  0  0  0  0  0 
    2.6287   -1.9948    0.6325 H   0  0  0  0  0  0  0  0  0  0  0  0 
  1 11  1  0  0  0  0 
  1 16  1  0  0  0  0 
  1 17  1  0  0  0  0 
  2 12  1  0  0  0  0 
  2 21  1  0  0  0  0 
  3 22  1  0  0  0  0 
  3 23  1  0  0  0  0 
  4  6  2  0  0  0  0 
  5  7  2  0  0  0  0 
  5  4  1  0  0  0  0 
  6  8  1  0  0  0  0 
  6 27  1  0  0  0  0 
  7 14  1  0  0  0  0 
  8 29  1  0  0  0  0 
  9 11  1  0  0  0  0 
 10 31  1  0  0  0  0 
 11 10  2  0  0  0  0 
 12  9  2  0  0  0  0 
 12 15  1  0  0  0  0 
 13 10  1  0  0  0  0 
 13  3  1  0  0  0  0 
 14 15  1  0  0  0  0 
 14  8  2  0  0  0  0 
 15 13  2  0  0  0  0 
 18  1  1  0  0  0  0 
 19  2  1  0  0  0  0 
 20  2  1  0  0  0  0 
 24  3  1  0  0  0  0 
 25  4  1  0  0  0  0 
 26  5  1  0  0  0  0 
 28  7  1  0  0  0  0 
 30  9  1  0  0  0  0 
M  END 
>  <HBA> 
0 
 
>  <HBD> 
0 
 
>  <TPSA> 
0.0 
 
>  <cid> 
19876 
 
>  <dipole> 
0.13 
 
>  <excitation_energy_1> 
5.079 
 
>  <excitation_energy_2> 
5.144 
 
>  <excitation_energy_3> 
5.276 
 
>  <excitation_energy_4> 
5.329 
 
>  <homo_energy> 
-6.109 
 
>  <homo_lumo_gap> 
6.12 
 
>  <logP> 
4.279 
 
>  <lumo_energy> 
0.011 
 
>  <melting_point> 
55.1 
 
>  <molecular_refractivity> 
66.78 
 
>  <oscillator_strength_1> 
0.0001 
 
>  <oscillator_strength_2> 
0.0019 
 
>  <oscillator_strength_3> 
0.0022 
 
>  <oscillator_strength_4> 
0.0002 
 
>  <open_babel_can_smiles> 
Cc1cc(C)c(c(c1)C)c1ccccc1 
 
>  <mulliken_charges> 
31 
1   -0.531965 
2   -0.530537 
3   -0.530539 
4   -0.127044 
5   -0.131866 
6   -0.131891 
7   -0.158925 
8   -0.158995 
9   -0.263244 
10   -0.262745 
11   0.210582 
12   0.17583 
13   0.175737 
14   0.044549 
15   -0.0775 
16   0.154886 
17   0.155152 
18   0.163342 
19   0.149262 
20   0.163847 
21   0.163283 
22   0.149283 
23   0.163877 
24   0.163211 
25   0.128308 
26   0.129236 
27   0.12925 
28   0.131775 
29   0.131941 
30   0.110974 
31   0.110925 
 
>  <lowdin_charges> 
31 
1   -0.442516 
2   -0.445131 
3   -0.445194 
4   -0.156925 
5   -0.156687 
6   -0.156891 
7   -0.164051 
8   -0.163919 
9   -0.186086 
10   -0.185919 
11   0.003292 
12   0.002472 
13   0.00246 
14   0.004737 
15   -0.034094 
16   0.156524 
17   0.15807 
18   0.160249 
19   0.154439 
20   0.16267 
21   0.162621 
22   0.154501 
23   0.162781 
24   0.162515 
25   0.155059 
26   0.157785 
27   0.157948 
28   0.159549 
29   0.159458 
30   0.150161 
31   0.150122 
 
$$$$ 
 
