PCCDB-ID:  69148 
public computational chemistry database (PCCDB) project, http://pccdb.org 
 
 30 31  0  0  0  0  0  0  0  0999 V2000 
    0.7810   -0.0116    1.2988 C   0  0  0  0  0  0  0  0  0  0  0  0 
    9.0703    5.2247   -2.2052 C   0  0  0  0  0  0  0  0  0  0  0  0 
    3.2043   -0.7616    1.3223 C   0  0  0  0  0  0  0  0  0  0  0  0 
    2.5993    1.1105   -0.0606 C   0  0  0  0  0  0  0  0  0  0  0  0 
    8.6974    2.7156   -2.2536 C   0  0  0  0  0  0  0  0  0  0  0  0 
    7.2758    4.0573   -0.8527 C   0  0  0  0  0  0  0  0  0  0  0  0 
    4.5213   -0.6611    0.8878 C   0  0  0  0  0  0  0  0  0  0  0  0 
    3.9213    1.2302   -0.4841 C   0  0  0  0  0  0  0  0  0  0  0  0 
    8.0376    1.5676   -1.8291 C   0  0  0  0  0  0  0  0  0  0  0  0 
    6.5968    2.9132   -0.4390 C   0  0  0  0  0  0  0  0  0  0  0  0 
    2.2183    0.1196    0.8541 C   0  0  0  0  0  0  0  0  0  0  0  0 
    8.3314    3.9811   -1.7714 C   0  0  0  0  0  0  0  0  0  0  0  0 
    4.9040    0.3476   -0.0095 C   0  0  0  0  0  0  0  0  0  0  0  0 
    6.9655    1.6500   -0.9275 C   0  0  0  0  0  0  0  0  0  0  0  0 
    6.3293    0.3707   -0.4739 C   0  0  0  0  0  0  0  0  0  0  0  0 
    6.9820   -0.6688   -0.4828 O   0  0  0  0  0  0  0  0  0  0  0  0 
    0.6995   -0.5896    2.2248 H   0  0  0  0  0  0  0  0  0  0  0  0 
    0.1771   -0.5237    0.5379 H   0  0  0  0  0  0  0  0  0  0  0  0 
    0.3220    0.9687    1.4685 H   0  0  0  0  0  0  0  0  0  0  0  0 
    9.6364    5.0536   -3.1262 H   0  0  0  0  0  0  0  0  0  0  0  0 
    9.7840    5.5487   -1.4361 H   0  0  0  0  0  0  0  0  0  0  0  0 
    8.3829    6.0601   -2.3793 H   0  0  0  0  0  0  0  0  0  0  0  0 
    2.9305   -1.5391    2.0319 H   0  0  0  0  0  0  0  0  0  0  0  0 
    1.8500    1.7977   -0.4477 H   0  0  0  0  0  0  0  0  0  0  0  0 
    9.5149    2.6329   -2.9661 H   0  0  0  0  0  0  0  0  0  0  0  0 
    6.9820    5.0261   -0.4546 H   0  0  0  0  0  0  0  0  0  0  0  0 
    5.2772   -1.3577    1.2359 H   0  0  0  0  0  0  0  0  0  0  0  0 
    4.1832    1.9973   -1.2060 H   0  0  0  0  0  0  0  0  0  0  0  0 
    8.3375    0.5883   -2.1879 H   0  0  0  0  0  0  0  0  0  0  0  0 
    5.7945    3.0014    0.2865 H   0  0  0  0  0  0  0  0  0  0  0  0 
  1 19  1  0  0  0  0 
  1 17  1  0  0  0  0 
  2 12  1  0  0  0  0 
  2 21  1  0  0  0  0 
  3 23  1  0  0  0  0 
  4 11  1  0  0  0  0 
  5  9  2  0  0  0  0 
  5 12  1  0  0  0  0 
  6 26  1  0  0  0  0 
  6 10  1  0  0  0  0 
  7 27  1  0  0  0  0 
  7  3  1  0  0  0  0 
  8  4  2  0  0  0  0 
  8 13  1  0  0  0  0 
  9 14  1  0  0  0  0 
 10 30  1  0  0  0  0 
 11  1  1  0  0  0  0 
 11  3  2  0  0  0  0 
 12  6  2  0  0  0  0 
 13  7  2  0  0  0  0 
 14 15  1  0  0  0  0 
 14 10  2  0  0  0  0 
 15 13  1  0  0  0  0 
 16 15  2  0  0  0  0 
 18  1  1  0  0  0  0 
 20  2  1  0  0  0  0 
 22  2  1  0  0  0  0 
 24  4  1  0  0  0  0 
 25  5  1  0  0  0  0 
 28  8  1  0  0  0  0 
 29  9  1  0  0  0  0 
M  END 
>  <HBA> 
1 
 
>  <HBD> 
0 
 
>  <TPSA> 
17.07 
 
>  <cid> 
69148 
 
>  <dipole> 
3.38 
 
>  <excitation_energy_1> 
3.589 
 
>  <excitation_energy_2> 
4.462 
 
>  <excitation_energy_3> 
4.52 
 
>  <excitation_energy_4> 
4.595 
 
>  <homo_energy> 
-6.416 
 
>  <homo_lumo_gap> 
4.863 
 
>  <logP> 
3.534 
 
>  <lumo_energy> 
-1.554 
 
>  <melting_point> 
73.43 
 
>  <molecular_refractivity> 
66.25 
 
>  <oscillator_strength_1> 
0.0017 
 
>  <oscillator_strength_2> 
0.4078 
 
>  <oscillator_strength_3> 
0.0102 
 
>  <oscillator_strength_4> 
0.0078 
 
>  <open_babel_can_smiles> 
O=C(c1ccc(cc1)C)c1ccc(cc1)C 
 
>  <mulliken_charges> 
30 
1   -0.531333 
2   -0.531293 
3   -0.186306 
4   -0.186474 
5   -0.186264 
6   -0.186339 
7   -0.150013 
8   -0.176848 
9   -0.149907 
10   -0.176837 
11   0.184645 
12   0.184398 
13   0.071297 
14   0.071036 
15   0.317484 
16   -0.470341 
17   0.159746 
18   0.170889 
19   0.161471 
20   0.159698 
21   0.170817 
22   0.161655 
23   0.128625 
24   0.126401 
25   0.128641 
26   0.126398 
27   0.157379 
28   0.146917 
29   0.157462 
30   0.146995 
 
>  <lowdin_charges> 
30 
1   -0.443685 
2   -0.444075 
3   -0.167344 
4   -0.171324 
5   -0.166562 
6   -0.170096 
7   -0.129431 
8   -0.150225 
9   -0.128032 
10   -0.149375 
11   0.015004 
12   0.014564 
13   -0.049672 
14   -0.049917 
15   0.156948 
16   -0.252899 
17   0.159614 
18   0.166734 
19   0.160681 
20   0.159647 
21   0.166441 
22   0.161625 
23   0.158074 
24   0.157715 
25   0.157644 
26   0.156359 
27   0.175071 
28   0.166541 
29   0.173759 
30   0.166218 
 
$$$$ 
 
