PCCDB-ID:  8126 
public computational chemistry database (PCCDB) project, http://pccdb.org 
 
 24 23  0  0  0  0  0  0  0  0999 V2000 
    0.9915   -3.8077    0.7932 C   0  0  0  0  0  0  0  0  0  0  0  0 
    9.1146   -1.0604   -1.1277 C   0  0  0  0  0  0  0  0  0  0  0  0 
    2.0982   -2.8060    0.6227 C   0  0  0  0  0  0  0  0  0  0  0  0 
    7.9809   -2.0695   -0.9181 C   0  0  0  0  0  0  0  0  0  0  0  0 
    2.9472   -2.7604   -0.4074 C   0  0  0  0  0  0  0  0  0  0  0  0 
    6.5937   -1.4180   -0.8515 C   0  0  0  0  0  0  0  0  0  0  0  0 
    4.0635   -1.7655   -0.5757 C   0  0  0  0  0  0  0  0  0  0  0  0 
    5.4552   -2.4236   -0.6395 C   0  0  0  0  0  0  0  0  0  0  0  0 
    1.1105   -4.3807    1.7231 H   0  0  0  0  0  0  0  0  0  0  0  0 
    0.9596   -4.5192   -0.0395 H   0  0  0  0  0  0  0  0  0  0  0  0 
    0.0116   -3.3145    0.8539 H   0  0  0  0  0  0  0  0  0  0  0  0 
   10.0909   -1.5570   -1.1684 H   0  0  0  0  0  0  0  0  0  0  0  0 
    9.1485   -0.3262   -0.3130 H   0  0  0  0  0  0  0  0  0  0  0  0 
    8.9836   -0.5059   -2.0652 H   0  0  0  0  0  0  0  0  0  0  0  0 
    2.1969   -2.0610    1.4152 H   0  0  0  0  0  0  0  0  0  0  0  0 
    8.1598   -2.6337    0.0082 H   0  0  0  0  0  0  0  0  0  0  0  0 
    7.9941   -2.8090   -1.7317 H   0  0  0  0  0  0  0  0  0  0  0  0 
    2.8516   -3.5079   -1.1990 H   0  0  0  0  0  0  0  0  0  0  0  0 
    6.4128   -0.8539   -1.7789 H   0  0  0  0  0  0  0  0  0  0  0  0 
    6.5808   -0.6761   -0.0387 H   0  0  0  0  0  0  0  0  0  0  0  0 
    4.0392   -1.0377    0.2470 H   0  0  0  0  0  0  0  0  0  0  0  0 
    3.9076   -1.1908   -1.5025 H   0  0  0  0  0  0  0  0  0  0  0  0 
    5.6266   -2.9864    0.2886 H   0  0  0  0  0  0  0  0  0  0  0  0 
    5.4679   -3.1645   -1.4527 H   0  0  0  0  0  0  0  0  0  0  0  0 
  1 11  1  0  0  0  0 
  1  9  1  0  0  0  0 
  2  4  1  0  0  0  0 
  2 13  1  0  0  0  0 
  3  1  1  0  0  0  0 
  3 15  1  0  0  0  0 
  4  6  1  0  0  0  0 
  4 16  1  0  0  0  0 
  5  3  2  0  0  0  0 
  6  8  1  0  0  0  0 
  6 20  1  0  0  0  0 
  7  5  1  0  0  0  0 
  7 21  1  0  0  0  0 
  8  7  1  0  0  0  0 
  8 23  1  0  0  0  0 
 10  1  1  0  0  0  0 
 12  2  1  0  0  0  0 
 14  2  1  0  0  0  0 
 17  4  1  0  0  0  0 
 18  5  1  0  0  0  0 
 19  6  1  0  0  0  0 
 22  7  1  0  0  0  0 
 24  8  1  0  0  0  0 
M  END 
>  <HBA> 
0 
 
>  <HBD> 
0 
 
>  <TPSA> 
0.0 
 
>  <cid> 
8126 
 
>  <dipole> 
0.06 
 
>  <excitation_energy_1> 
6.123 
 
>  <excitation_energy_2> 
6.389 
 
>  <excitation_energy_3> 
6.473 
 
>  <excitation_energy_4> 
6.694 
 
>  <homo_energy> 
-6.37 
 
>  <homo_lumo_gap> 
7.312 
 
>  <logP> 
3.143 
 
>  <lumo_energy> 
0.942 
 
>  <melting_point> 
-18.1 
 
>  <molecular_refractivity> 
40.1 
 
>  <oscillator_strength_1> 
0.0118 
 
>  <oscillator_strength_2> 
0.0008 
 
>  <oscillator_strength_3> 
0.0072 
 
>  <oscillator_strength_4> 
0.0074 
 
>  <open_babel_can_smiles> 
CCCCC/C=C/C 
 
>  <mulliken_charges> 
24 
1   -0.485868 
2   -0.441187 
3   -0.092922 
4   -0.246449 
5   -0.085181 
6   -0.245377 
7   -0.301583 
8   -0.251977 
9   0.152438 
10   0.150363 
11   0.152625 
12   0.141325 
13   0.140989 
14   0.140898 
15   0.115233 
16   0.130641 
17   0.129789 
18   0.111502 
19   0.126088 
20   0.126682 
21   0.133548 
22   0.136152 
23   0.134732 
24   0.12754 
 
>  <lowdin_charges> 
24 
1   -0.439179 
2   -0.444518 
3   -0.169022 
4   -0.27254 
5   -0.169851 
6   -0.275596 
7   -0.270786 
8   -0.274025 
9   0.15499 
10   0.153868 
11   0.154621 
12   0.148628 
13   0.146527 
14   0.145997 
15   0.145033 
16   0.139228 
17   0.139107 
18   0.143663 
19   0.137126 
20   0.137783 
21   0.143923 
22   0.144971 
23   0.141678 
24   0.138374 
 
$$$$ 
 
