PCCDB-ID:  50449 
public computational chemistry database (PCCDB) project, http://pccdb.org 
 
 38 38  0  0  1  0  0  0  0  0999 V2000 
    5.2339    4.1150    0.3461 C   0  0  0  0  0  0  0  0  0  0  0  0 
    5.1082    2.7705    1.0708 C   0  0  0  0  0  0  0  0  0  0  0  0 
    5.7389    1.6112    0.2864 C   0  0  0  0  0  0  0  0  0  0  0  0 
    5.5839    0.2279    0.9403 C   0  0  0  0  0  0  0  0  0  0  0  0 
    8.0632   -5.9458    6.9717 C   0  0  0  0  0  0  0  0  0  0  0  0 
    8.8089   -5.7186    5.8117 C   0  0  0  0  0  0  0  0  0  0  0  0 
    7.5118   -4.8653    7.6606 C   0  0  0  0  0  0  0  0  0  0  0  0 
    6.3446    0.0694    2.2655 C   0  0  0  0  0  0  0  0  0  0  0  0 
    9.0046   -4.4191    5.3470 C   0  0  0  0  0  0  0  0  0  0  0  0 
    7.7066   -3.5642    7.1917 C   0  0  0  0  0  0  0  0  0  0  0  0 
    6.2127   -1.3402    2.8317 C   0  0  0  0  0  0  0  0  0  0  0  0 
    8.4555   -3.3267    6.0344 C   0  0  0  0  0  0  0  0  0  0  0  0 
    8.7039   -1.8930    5.5530 C   0  0  2  0  0  0  0  0  0  0  0  0 
    8.1667   -1.7438    4.1301 C   0  0  0  0  0  0  0  0  0  0  0  0 
   10.1041   -1.4634    5.5437 N   0  0  0  0  0  0  0  0  0  0  0  0 
    8.8404   -1.9175    3.1342 O   0  0  0  0  0  0  0  0  0  0  0  0 
    6.8561   -1.4487    4.1270 O   0  0  0  0  0  0  0  0  0  0  0  0 
    4.7751    4.9255    0.9237 H   0  0  0  0  0  0  0  0  0  0  0  0 
    4.7427    4.0842   -0.6344 H   0  0  0  0  0  0  0  0  0  0  0  0 
    6.2858    4.3782    0.1802 H   0  0  0  0  0  0  0  0  0  0  0  0 
    4.0459    2.5488    1.2491 H   0  0  0  0  0  0  0  0  0  0  0  0 
    5.5744    2.8512    2.0615 H   0  0  0  0  0  0  0  0  0  0  0  0 
    6.8076    1.8176    0.1282 H   0  0  0  0  0  0  0  0  0  0  0  0 
    5.2849    1.5768   -0.7140 H   0  0  0  0  0  0  0  0  0  0  0  0 
    5.9389   -0.5359    0.2343 H   0  0  0  0  0  0  0  0  0  0  0  0 
    4.5151    0.0225    1.1028 H   0  0  0  0  0  0  0  0  0  0  0  0 
    7.9134   -6.9591    7.3347 H   0  0  0  0  0  0  0  0  0  0  0  0 
    9.2368   -6.5562    5.2669 H   0  0  0  0  0  0  0  0  0  0  0  0 
    6.9305   -5.0325    8.5636 H   0  0  0  0  0  0  0  0  0  0  0  0 
    5.9738    0.7808    3.0130 H   0  0  0  0  0  0  0  0  0  0  0  0 
    7.4085    0.2866    2.1105 H   0  0  0  0  0  0  0  0  0  0  0  0 
    9.5778   -4.2469    4.4395 H   0  0  0  0  0  0  0  0  0  0  0  0 
    7.2731   -2.7242    7.7301 H   0  0  0  0  0  0  0  0  0  0  0  0 
    6.6495   -2.0818    2.1577 H   0  0  0  0  0  0  0  0  0  0  0  0 
    5.1677   -1.5967    3.0262 H   0  0  0  0  0  0  0  0  0  0  0  0 
    8.1278   -1.2187    6.1961 H   0  0  0  0  0  0  0  0  0  0  0  0 
   10.5528   -1.8335    4.7071 H   0  0  0  0  0  0  0  0  0  0  0  0 
   10.5871   -1.8532    6.3502 H   0  0  0  0  0  0  0  0  0  0  0  0 
  1 18  1  0  0  0  0 
  1  2  1  0  0  0  0 
  2 21  1  0  0  0  0 
  2 22  1  0  0  0  0 
  3  4  1  0  0  0  0 
  3  2  1  0  0  0  0 
  4 26  1  0  0  0  0 
  4  8  1  0  0  0  0 
  5 27  1  0  0  0  0 
  5  7  2  0  0  0  0 
  6  5  1  0  0  0  0 
  7 29  1  0  0  0  0 
  8 11  1  0  0  0  0 
  8 30  1  0  0  0  0 
  9  6  2  0  0  0  0 
  9 12  1  0  0  0  0 
 10  7  1  0  0  0  0 
 10 33  1  0  0  0  0 
 11 35  1  0  0  0  0 
 11 17  1  0  0  0  0 
 12 10  2  0  0  0  0 
 13 12  1  0  0  0  0 
 13 36  1  1  0  0  0 
 14 13  1  0  0  0  0 
 15 13  1  0  0  0  0 
 15 38  1  0  0  0  0 
 16 14  2  0  0  0  0 
 17 14  1  0  0  0  0 
 19  1  1  0  0  0  0 
 20  1  1  0  0  0  0 
 23  3  1  0  0  0  0 
 24  3  1  0  0  0  0 
 25  4  1  0  0  0  0 
 28  6  1  0  0  0  0 
 31  8  1  0  0  0  0 
 32  9  1  0  0  0  0 
 34 11  1  0  0  0  0 
 37 15  1  0  0  0  0 
M  END 
>  <HBA> 
3 
 
>  <HBD> 
1 
 
>  <TPSA> 
52.32 
 
>  <cid> 
50449 
 
>  <dipole> 
1.83 
 
>  <excitation_energy_1> 
5.027 
 
>  <excitation_energy_2> 
5.157 
 
>  <excitation_energy_3> 
5.525 
 
>  <excitation_energy_4> 
5.576 
 
>  <homo_energy> 
-6.226 
 
>  <homo_lumo_gap> 
5.883 
 
>  <logP> 
3.51 
 
>  <lumo_energy> 
-0.343 
 
>  <melting_point> 
69.19 
 
>  <molecular_refractivity> 
69.05 
 
>  <oscillator_strength_1> 
0.0326 
 
>  <oscillator_strength_2> 
0.0084 
 
>  <oscillator_strength_3> 
0.0377 
 
>  <oscillator_strength_4> 
0.0239 
 
>  <open_babel_can_smiles> 
CCCCCCOC(=O)[C@@H](c1ccccc1)N 
 
>  <mulliken_charges> 
38 
1   -0.4419 
2   -0.250331 
3   -0.247656 
4   -0.266837 
5   -0.128699 
6   -0.129107 
7   -0.127933 
8   -0.280954 
9   -0.181249 
10   -0.187576 
11   -0.049824 
12   0.147615 
13   -0.137145 
14   0.649739 
15   -0.708221 
16   -0.4921 
17   -0.46642 
18   0.142642 
19   0.141473 
20   0.143671 
21   0.129181 
22   0.137572 
23   0.132649 
24   0.129506 
25   0.13629 
26   0.128803 
27   0.130914 
28   0.13249 
29   0.131339 
30   0.149129 
31   0.161913 
32   0.144172 
33   0.130347 
34   0.168461 
35   0.152074 
36   0.158302 
37   0.31786 
38   0.29981 
 
>  <lowdin_charges> 
38 
1   -0.44326 
2   -0.27277 
3   -0.271417 
4   -0.274452 
5   -0.156324 
6   -0.15488 
7   -0.153543 
8   -0.288311 
9   -0.162519 
10   -0.166676 
11   -0.130308 
12   -0.022721 
13   -0.086393 
14   0.204438 
15   -0.545813 
16   -0.276192 
17   -0.181145 
18   0.150772 
19   0.145708 
20   0.146278 
21   0.136653 
22   0.140491 
23   0.138989 
24   0.140924 
25   0.145416 
26   0.136604 
27   0.157639 
28   0.159825 
29   0.158498 
30   0.149717 
31   0.154799 
32   0.163709 
33   0.158328 
34   0.159247 
35   0.151109 
36   0.161212 
37   0.266802 
38   0.259565 
 
$$$$ 
 
