PCCDB-ID:  61180 
public computational chemistry database (PCCDB) project, http://pccdb.org 
 
 12 11  0  0  0  0  0  0  0  0999 V2000 
    1.0833    0.1254    0.0857 C   0  0  0  0  0  0  0  0  0  0  0  0 
   -0.3532    0.0574   -0.0257 C   0  0  0  0  0  0  0  0  0  0  0  0 
    2.2382    0.1796    0.1749 N   0  0  0  0  0  0  0  0  0  0  0  0 
   -0.8429   -1.4071   -0.2116 N   0  0  0  0  0  0  0  0  0  0  0  0 
   -1.0519    0.6215    1.2443 N   0  0  0  0  0  0  0  0  0  0  0  0 
   -0.8718    0.8771   -1.2415 N   0  0  0  0  0  0  0  0  0  0  0  0 
   -0.2946   -2.2094    0.5176 O   0  0  0  0  0  0  0  0  0  0  0  0 
   -1.7270   -1.5798   -1.0243 O   0  0  0  0  0  0  0  0  0  0  0  0 
   -0.5638    1.6527    1.6621 O   0  0  0  0  0  0  0  0  0  0  0  0 
   -2.0122    0.0011    1.6504 O   0  0  0  0  0  0  0  0  0  0  0  0 
   -1.8775    1.5310   -1.0594 O   0  0  0  0  0  0  0  0  0  0  0  0 
   -0.2154    0.7329   -2.2536 O   0  0  0  0  0  0  0  0  0  0  0  0 
  1  3  3  0  0  0  0 
  2  1  1  0  0  0  0 
  2  5  1  0  0  0  0 
  4  2  1  0  0  0  0 
  4  7  2  0  0  0  0 
  5 10  2  0  0  0  0 
  5  9  2  0  0  0  0 
  6 11  2  0  0  0  0 
  6  2  1  0  0  0  0 
  8  4  2  0  0  0  0 
 12  6  2  0  0  0  0 
M  END 
>  <HBA> 
1 
 
>  <HBD> 
0 
 
>  <TPSA> 
161.25 
 
>  <cid> 
61180 
 
>  <dipole> 
0.17 
 
>  <excitation_energy_1> 
4.15 
 
>  <excitation_energy_2> 
4.164 
 
>  <excitation_energy_3> 
4.164 
 
>  <excitation_energy_4> 
4.307 
 
>  <homo_energy> 
-9.861 
 
>  <homo_lumo_gap> 
5.818 
 
>  <logP> 
0.563 
 
>  <lumo_energy> 
-4.044 
 
>  <melting_point> 
113.29 
 
>  <molecular_refractivity> 
35.83 
 
>  <oscillator_strength_1> 
0.0001 
 
>  <oscillator_strength_2> 
0.0005 
 
>  <oscillator_strength_3> 
0.0005 
 
>  <oscillator_strength_4> 
0.001 
 
>  <open_babel_can_smiles> 
N#CC(N(=O)=O)(N(=O)=O)N(=O)=O 
 
>  <mulliken_charges> 
12 
1   0.427147 
2   0.265219 
3   -0.392446 
4   0.518474 
5   0.518491 
6   0.518354 
7   -0.313195 
8   -0.305204 
9   -0.313348 
10   -0.305034 
11   -0.305074 
12   -0.313385 
 
>  <lowdin_charges> 
12 
1   -0.023772 
2   0.095227 
3   0.004364 
4   0.300528 
5   0.297864 
6   0.29715 
7   -0.163393 
8   -0.162017 
9   -0.161338 
10   -0.161816 
11   -0.161045 
12   -0.161754 
 
$$$$ 
 
