PCCDB-ID:  41039 
public computational chemistry database (PCCDB) project, http://pccdb.org 
 
 25 25  0  0  1  0  0  0  0  0999 V2000 
    1.1430    0.3288    0.3768 C   0  0  0  0  0  0  0  0  0  0  0  0 
    2.6379    0.2235    0.0587 C   0  0  0  0  0  0  0  0  0  0  0  0 
    2.9995   -1.0424   -0.7292 C   0  0  0  0  0  0  0  0  0  0  0  0 
    4.4958   -1.1426   -1.0511 C   0  0  0  0  0  0  0  0  0  0  0  0 
    4.7452   -3.7491   -1.1426 C   0  0  0  0  0  0  0  0  0  0  0  0 
    6.8776   -3.7803   -2.4334 C   0  0  0  0  0  0  0  0  0  0  0  0 
    4.8758   -2.3895   -1.8579 C   0  0  2  0  0  0  0  0  0  0  0  0 
    5.8458   -4.6496   -1.7160 C   0  0  0  0  0  0  0  0  0  0  0  0 
    6.3319   -2.3561   -2.3614 C   0  0  0  0  0  0  0  0  0  0  0  0 
    5.8891   -5.8543   -1.6103 O   0  0  0  0  0  0  0  0  0  0  0  0 
    6.9453   -1.3514   -2.6456 O   0  0  0  0  0  0  0  0  0  0  0  0 
    0.9184    1.2405    0.9416 H   0  0  0  0  0  0  0  0  0  0  0  0 
    0.8033   -0.5258    0.9750 H   0  0  0  0  0  0  0  0  0  0  0  0 
    0.5428    0.3492   -0.5411 H   0  0  0  0  0  0  0  0  0  0  0  0 
    3.2145    0.2434    0.9943 H   0  0  0  0  0  0  0  0  0  0  0  0 
    2.9558    1.1069   -0.5125 H   0  0  0  0  0  0  0  0  0  0  0  0 
    2.4242   -1.0632   -1.6672 H   0  0  0  0  0  0  0  0  0  0  0  0 
    2.6793   -1.9256   -0.1572 H   0  0  0  0  0  0  0  0  0  0  0  0 
    5.0759   -1.1345   -0.1167 H   0  0  0  0  0  0  0  0  0  0  0  0 
    4.8183   -0.2604   -1.6170 H   0  0  0  0  0  0  0  0  0  0  0  0 
    3.7692   -4.2327   -1.2386 H   0  0  0  0  0  0  0  0  0  0  0  0 
    4.9417   -3.6386   -0.0650 H   0  0  0  0  0  0  0  0  0  0  0  0 
    6.9981   -4.1026   -3.4760 H   0  0  0  0  0  0  0  0  0  0  0  0 
    7.8680   -3.8567   -1.9692 H   0  0  0  0  0  0  0  0  0  0  0  0 
    4.2590   -2.4150   -2.7727 H   0  0  0  0  0  0  0  0  0  0  0  0 
  1 12  1  0  0  0  0 
  1 13  1  0  0  0  0 
  2  1  1  0  0  0  0 
  2 15  1  0  0  0  0 
  3 18  1  0  0  0  0 
  3  2  1  0  0  0  0 
  4  3  1  0  0  0  0 
  4 19  1  0  0  0  0 
  5 22  1  0  0  0  0 
  6  9  1  0  0  0  0 
  6 24  1  0  0  0  0 
  6  8  1  0  0  0  0 
  7 25  1  6  0  0  0 
  7  5  1  0  0  0  0 
  7  4  1  0  0  0  0 
  8 10  2  0  0  0  0 
  8  5  1  0  0  0  0 
  9  7  1  0  0  0  0 
 11  9  2  0  0  0  0 
 14  1  1  0  0  0  0 
 16  2  1  0  0  0  0 
 17  3  1  0  0  0  0 
 20  4  1  0  0  0  0 
 21  5  1  0  0  0  0 
 23  6  1  0  0  0  0 
M  END 
>  <HBA> 
2 
 
>  <HBD> 
0 
 
>  <TPSA> 
34.14 
 
>  <cid> 
41039 
 
>  <dipole> 
1.87 
 
>  <excitation_energy_1> 
3.862 
 
>  <excitation_energy_2> 
4.272 
 
>  <excitation_energy_3> 
5.152 
 
>  <excitation_energy_4> 
5.529 
 
>  <homo_energy> 
-6.558 
 
>  <homo_lumo_gap> 
5.366 
 
>  <logP> 
1.725 
 
>  <lumo_energy> 
-1.192 
 
>  <melting_point> 
36.8 
 
>  <molecular_refractivity> 
43.66 
 
>  <oscillator_strength_1> 
0.0002 
 
>  <oscillator_strength_2> 
0.0001 
 
>  <oscillator_strength_3> 
0.0016 
 
>  <oscillator_strength_4> 
0.001 
 
>  <open_babel_can_smiles> 
CCCC[C@@H]1CC(=O)CC1=O 
 
>  <mulliken_charges> 
25 
1   -0.442649 
2   -0.248256 
3   -0.256942 
4   -0.257956 
5   -0.373127 
6   -0.450651 
7   -0.187247 
8   0.446359 
9   0.448221 
10   -0.438924 
11   -0.446933 
12   0.145501 
13   0.142176 
14   0.142886 
15   0.133103 
16   0.13636 
17   0.129415 
18   0.132323 
19   0.133107 
20   0.162482 
21   0.182149 
22   0.180244 
23   0.210905 
24   0.210488 
25   0.166965 
 
>  <lowdin_charges> 
25 
1   -0.445535 
2   -0.272245 
3   -0.276841 
4   -0.27116 
5   -0.314497 
6   -0.345537 
7   -0.164985 
8   0.155819 
9   0.156868 
10   -0.21668 
11   -0.218649 
12   0.151716 
13   0.147421 
14   0.147314 
15   0.140469 
16   0.142475 
17   0.13863 
18   0.13887 
19   0.142483 
20   0.159228 
21   0.173954 
22   0.172275 
23   0.196962 
24   0.196103 
25   0.165542 
 
$$$$ 
 
