PCCDB-ID:  61035 
public computational chemistry database (PCCDB) project, http://pccdb.org 
 
 39 38  0  0  0  0  0  0  0  0999 V2000 
    6.7198    0.5526    4.1331 C   0  0  0  0  0  0  0  0  0  0  0  0 
    8.3368   -1.9653   -4.7682 C   0  0  0  0  0  0  0  0  0  0  0  0 
    7.0003    0.9023    2.8768 C   0  0  0  0  0  0  0  0  0  0  0  0 
    7.0844   -0.0506    1.7141 C   0  0  0  0  0  0  0  0  0  0  0  0 
    5.9925    0.1638    0.6407 C   0  0  0  0  0  0  0  0  0  0  0  0 
    5.9872    1.5377   -0.0515 C   0  0  0  0  0  0  0  0  0  0  0  0 
    7.2600    1.8665   -0.8455 C   0  0  0  0  0  0  0  0  0  0  0  0 
    7.1533    3.1906   -1.6157 C   0  0  0  0  0  0  0  0  0  0  0  0 
    8.4429    3.6230   -2.3366 C   0  0  0  0  0  0  0  0  0  0  0  0 
    8.9600    2.6695   -3.4277 C   0  0  0  0  0  0  0  0  0  0  0  0 
    8.0025    2.4893   -4.6135 C   0  0  0  0  0  0  0  0  0  0  0  0 
    8.5640    1.6128   -5.7292 C   0  0  0  0  0  0  0  0  0  0  0  0 
    7.8641   -0.6250   -5.2833 C   0  0  0  0  0  0  0  0  0  0  0  0 
    6.7393   -0.3768   -5.6601 O   0  0  0  0  0  0  0  0  0  0  0  0 
    8.8755    0.2759   -5.2654 O   0  0  0  0  0  0  0  0  0  0  0  0 
    6.6649    1.2842    4.9351 H   0  0  0  0  0  0  0  0  0  0  0  0 
    6.5361   -0.4842    4.4094 H   0  0  0  0  0  0  0  0  0  0  0  0 
    9.2291   -2.2901   -5.3122 H   0  0  0  0  0  0  0  0  0  0  0  0 
    7.5387   -2.6997   -4.8815 H   0  0  0  0  0  0  0  0  0  0  0  0 
    8.6115   -1.8820   -3.7109 H   0  0  0  0  0  0  0  0  0  0  0  0 
    7.1787    1.9553    2.6545 H   0  0  0  0  0  0  0  0  0  0  0  0 
    7.0098   -1.0800    2.0873 H   0  0  0  0  0  0  0  0  0  0  0  0 
    8.0747    0.0360    1.2436 H   0  0  0  0  0  0  0  0  0  0  0  0 
    5.0127    0.0007    1.1083 H   0  0  0  0  0  0  0  0  0  0  0  0 
    6.1051   -0.6182   -0.1238 H   0  0  0  0  0  0  0  0  0  0  0  0 
    5.8068    2.3283    0.6904 H   0  0  0  0  0  0  0  0  0  0  0  0 
    5.1279    1.5702   -0.7360 H   0  0  0  0  0  0  0  0  0  0  0  0 
    7.4666    1.0426   -1.5435 H   0  0  0  0  0  0  0  0  0  0  0  0 
    8.1254    1.9164   -0.1691 H   0  0  0  0  0  0  0  0  0  0  0  0 
    6.8719    3.9867   -0.9118 H   0  0  0  0  0  0  0  0  0  0  0  0 
    6.3248    3.1241   -2.3347 H   0  0  0  0  0  0  0  0  0  0  0  0 
    9.2364    3.7570   -1.5876 H   0  0  0  0  0  0  0  0  0  0  0  0 
    8.2790    4.6146   -2.7829 H   0  0  0  0  0  0  0  0  0  0  0  0 
    9.1883    1.6878   -2.9950 H   0  0  0  0  0  0  0  0  0  0  0  0 
    9.9169    3.0603   -3.8031 H   0  0  0  0  0  0  0  0  0  0  0  0 
    7.7700    3.4703   -5.0538 H   0  0  0  0  0  0  0  0  0  0  0  0 
    7.0471    2.0624   -4.2874 H   0  0  0  0  0  0  0  0  0  0  0  0 
    9.5199    1.9998   -6.0942 H   0  0  0  0  0  0  0  0  0  0  0  0 
    7.8586    1.5392   -6.5605 H   0  0  0  0  0  0  0  0  0  0  0  0 
  1 17  1  0  0  0  0 
  1 16  1  0  0  0  0 
  2 20  1  0  0  0  0 
  3  1  2  0  0  0  0 
  4 22  1  0  0  0  0 
  4  3  1  0  0  0  0 
  5 24  1  0  0  0  0 
  5  4  1  0  0  0  0 
  6  5  1  0  0  0  0 
  6 26  1  0  0  0  0 
  7 29  1  0  0  0  0 
  7  6  1  0  0  0  0 
  8 30  1  0  0  0  0 
  8  7  1  0  0  0  0 
  9  8  1  0  0  0  0 
  9 32  1  0  0  0  0 
 10 34  1  0  0  0  0 
 10  9  1  0  0  0  0 
 11 37  1  0  0  0  0 
 11 10  1  0  0  0  0 
 12 15  1  0  0  0  0 
 12 11  1  0  0  0  0 
 13 15  1  0  0  0  0 
 13  2  1  0  0  0  0 
 14 13  2  0  0  0  0 
 18  2  1  0  0  0  0 
 19  2  1  0  0  0  0 
 21  3  1  0  0  0  0 
 23  4  1  0  0  0  0 
 25  5  1  0  0  0  0 
 27  6  1  0  0  0  0 
 28  7  1  0  0  0  0 
 31  8  1  0  0  0  0 
 33  9  1  0  0  0  0 
 35 10  1  0  0  0  0 
 36 11  1  0  0  0  0 
 38 12  1  0  0  0  0 
 39 12  1  0  0  0  0 
M  END 
>  <HBA> 
2 
 
>  <HBD> 
0 
 
>  <TPSA> 
26.3 
 
>  <cid> 
61035 
 
>  <dipole> 
1.64 
 
>  <excitation_energy_1> 
5.797 
 
>  <excitation_energy_2> 
6.34 
 
>  <excitation_energy_3> 
6.521 
 
>  <excitation_energy_4> 
6.652 
 
>  <homo_energy> 
-6.787 
 
>  <homo_lumo_gap> 
7.181 
 
>  <logP> 
3.856 
 
>  <lumo_energy> 
0.395 
 
>  <melting_point> 
-39.37 
 
>  <molecular_refractivity> 
65.42 
 
>  <oscillator_strength_1> 
0.0013 
 
>  <oscillator_strength_2> 
0.0385 
 
>  <oscillator_strength_3> 
0.0292 
 
>  <oscillator_strength_4> 
0.0143 
 
>  <open_babel_can_smiles> 
C=CCCCCCCCCCOC(=O)C 
 
>  <mulliken_charges> 
39 
1   -0.342007 
2   -0.522917 
3   -0.040839 
4   -0.307543 
5   -0.255092 
6   -0.259306 
7   -0.256502 
8   -0.25896 
9   -0.259332 
10   -0.25569 
11   -0.283986 
12   -0.051303 
13   0.600706 
14   -0.46914 
15   -0.452262 
16   0.136521 
17   0.133274 
18   0.180781 
19   0.181926 
20   0.180826 
21   0.125243 
22   0.135912 
23   0.142335 
24   0.136927 
25   0.12809 
26   0.132483 
27   0.13304 
28   0.13038 
29   0.129717 
30   0.128764 
31   0.134811 
32   0.128512 
33   0.126782 
34   0.145196 
35   0.126288 
36   0.13557 
37   0.165368 
38   0.147126 
39   0.168301 
 
>  <lowdin_charges> 
39 
1   -0.343509 
2   -0.464637 
3   -0.145394 
4   -0.274573 
5   -0.273892 
6   -0.279522 
7   -0.280799 
8   -0.279486 
9   -0.276001 
10   -0.279956 
11   -0.289237 
12   -0.1306 
13   0.197561 
14   -0.267337 
15   -0.20094 
16   0.157527 
17   0.151562 
18   0.177254 
19   0.175888 
20   0.176026 
21   0.147122 
22   0.146848 
23   0.146831 
24   0.144981 
25   0.140694 
26   0.140043 
27   0.144142 
28   0.13861 
29   0.137777 
30   0.14246 
31   0.140422 
32   0.141557 
33   0.139183 
34   0.144481 
35   0.140419 
36   0.148351 
37   0.156161 
38   0.149987 
39   0.159995 
 
$$$$ 
 
