PCCDB-ID:  69845 
public computational chemistry database (PCCDB) project, http://pccdb.org 
 
 15 16  0  0  0  0  0  0  0  0999 V2000 
   -2.0735   -0.7423    0.0020 C   0  0  0  0  0  0  0  0  0  0  0  0 
   -2.1101    0.6834   -0.0402 C   0  0  0  0  0  0  0  0  0  0  0  0 
   -0.9068   -1.4663    0.0185 C   0  0  0  0  0  0  0  0  0  0  0  0 
   -0.9544    1.4405   -0.0723 C   0  0  0  0  0  0  0  0  0  0  0  0 
    0.3124   -0.7316   -0.0011 C   0  0  0  0  0  0  0  0  0  0  0  0 
    0.2901    0.7180   -0.0451 C   0  0  0  0  0  0  0  0  0  0  0  0 
   -0.9141    2.8157   -0.1747 N   0  0  0  0  0  0  0  0  0  0  0  0 
    1.5552   -1.2323    0.0269 N   0  0  0  0  0  0  0  0  0  0  0  0 
    1.4962    1.2889   -0.0440 N   0  0  0  0  0  0  0  0  0  0  0  0 
    2.5851    0.0516    0.0033 S   0  0  0  0  0  0  0  0  0  0  0  0 
   -3.0246   -1.2681    0.0223 H   0  0  0  0  0  0  0  0  0  0  0  0 
   -3.0751    1.1836   -0.0561 H   0  0  0  0  0  0  0  0  0  0  0  0 
   -0.8905   -2.5493    0.0505 H   0  0  0  0  0  0  0  0  0  0  0  0 
   -1.7311    3.3243    0.1342 H   0  0  0  0  0  0  0  0  0  0  0  0 
   -0.0327    3.2449    0.0759 H   0  0  0  0  0  0  0  0  0  0  0  0 
  1  3  2  0  0  0  0 
  1 11  1  0  0  0  0 
  2  1  1  0  0  0  0 
  3 13  1  0  0  0  0 
  4  6  1  0  0  0  0 
  4  2  2  0  0  0  0 
  5  3  1  0  0  0  0 
  5  8  2  0  0  0  0 
  6  9  2  0  0  0  0 
  6  5  1  0  0  0  0 
  7  4  1  0  0  0  0 
  7 15  1  0  0  0  0 
  7 14  1  0  0  0  0 
  9 10  1  0  0  0  0 
 10  8  1  0  0  0  0 
 12  2  1  0  0  0  0 
M  END 
>  <HBA> 
4 
 
>  <HBD> 
1 
 
>  <TPSA> 
80.04 
 
>  <cid> 
69845 
 
>  <dipole> 
2.86 
 
>  <excitation_energy_1> 
2.871 
 
>  <excitation_energy_2> 
4.47 
 
>  <excitation_energy_3> 
4.701 
 
>  <excitation_energy_4> 
4.777 
 
>  <homo_energy> 
-5.508 
 
>  <homo_lumo_gap> 
3.44 
 
>  <logP> 
1.855 
 
>  <lumo_energy> 
-2.068 
 
>  <melting_point> 
128.05 
 
>  <molecular_refractivity> 
41.82 
 
>  <oscillator_strength_1> 
0.0473 
 
>  <oscillator_strength_2> 
0.1085 
 
>  <oscillator_strength_3> 
0.0001 
 
>  <oscillator_strength_4> 
0.0078 
 
>  <open_babel_can_smiles> 
Nc1cccc2c1nsn2 
 
>  <mulliken_charges> 
15 
1   -0.14363 
2   -0.208726 
3   -0.148537 
4   0.345216 
5   0.256217 
6   0.20537 
7   -0.798795 
8   -0.560801 
9   -0.586524 
10   0.560782 
11   0.136023 
12   0.122286 
13   0.142931 
14   0.328922 
15   0.349267 
 
>  <lowdin_charges> 
15 
1   -0.133402 
2   -0.220414 
3   -0.193745 
4   0.062851 
5   0.011926 
6   -0.016473 
7   -0.466424 
8   -0.336934 
9   -0.345778 
10   0.572689 
11   0.162606 
12   0.157496 
13   0.168399 
14   0.284005 
15   0.293198 
 
$$$$ 
 
