PCCDB-ID:  11377 
public computational chemistry database (PCCDB) project, http://pccdb.org 
 
 19 20  0  0  0  0  0  0  0  0999 V2000 
    2.4124    0.7279    0.0368 C   0  0  0  0  0  0  0  0  0  0  0  0 
    1.2343    1.4395    0.0062 C   0  0  0  0  0  0  0  0  0  0  0  0 
   -1.2636    1.3833   -0.0473 C   0  0  0  0  0  0  0  0  0  0  0  0 
   -2.4245    0.6519   -0.0701 C   0  0  0  0  0  0  0  0  0  0  0  0 
    2.3434   -0.6869    0.0454 C   0  0  0  0  0  0  0  0  0  0  0  0 
   -1.1649   -1.4216   -0.0275 C   0  0  0  0  0  0  0  0  0  0  0  0 
    0.0036    0.7434   -0.0172 C   0  0  0  0  0  0  0  0  0  0  0  0 
   -2.3910   -0.7751   -0.0602 C   0  0  0  0  0  0  0  0  0  0  0  0 
    0.0450   -0.6897   -0.0084 C   0  0  0  0  0  0  0  0  0  0  0  0 
   -3.5903   -1.4809   -0.1411 N   0  0  0  0  0  0  0  0  0  0  0  0 
    1.2236   -1.3833    0.0246 N   0  0  0  0  0  0  0  0  0  0  0  0 
    3.3774    1.2251    0.0544 H   0  0  0  0  0  0  0  0  0  0  0  0 
    1.2333    2.5277   -0.0008 H   0  0  0  0  0  0  0  0  0  0  0  0 
   -1.3059    2.4702   -0.0532 H   0  0  0  0  0  0  0  0  0  0  0  0 
   -3.3879    1.1557   -0.1033 H   0  0  0  0  0  0  0  0  0  0  0  0 
    3.2666   -1.2665    0.0710 H   0  0  0  0  0  0  0  0  0  0  0  0 
   -1.0988   -2.5059   -0.0183 H   0  0  0  0  0  0  0  0  0  0  0  0 
   -4.4002   -1.0079    0.2395 H   0  0  0  0  0  0  0  0  0  0  0  0 
   -3.5427   -2.4470    0.1576 H   0  0  0  0  0  0  0  0  0  0  0  0 
  1  5  1  0  0  0  0 
  1 12  1  0  0  0  0 
  2  1  2  0  0  0  0 
  3  7  2  0  0  0  0 
  4  8  2  0  0  0  0 
  4  3  1  0  0  0  0 
  5 16  1  0  0  0  0 
  6 17  1  0  0  0  0 
  6  9  2  0  0  0  0 
  7  9  1  0  0  0  0 
  7  2  1  0  0  0  0 
  8  6  1  0  0  0  0 
  9 11  1  0  0  0  0 
 10  8  1  0  0  0  0 
 10 19  1  0  0  0  0 
 10 18  1  0  0  0  0 
 11  5  2  0  0  0  0 
 13  2  1  0  0  0  0 
 14  3  1  0  0  0  0 
 15  4  1  0  0  0  0 
M  END 
>  <HBA> 
2 
 
>  <HBD> 
1 
 
>  <TPSA> 
38.91 
 
>  <cid> 
11377 
 
>  <dipole> 
2.65 
 
>  <excitation_energy_1> 
3.786 
 
>  <excitation_energy_2> 
4.326 
 
>  <excitation_energy_3> 
4.459 
 
>  <excitation_energy_4> 
4.836 
 
>  <homo_energy> 
-5.472 
 
>  <homo_lumo_gap> 
4.362 
 
>  <logP> 
2.398 
 
>  <lumo_energy> 
-1.11 
 
>  <melting_point> 
113.31 
 
>  <molecular_refractivity> 
46.15 
 
>  <oscillator_strength_1> 
0.0711 
 
>  <oscillator_strength_2> 
0.0015 
 
>  <oscillator_strength_3> 
0.0014 
 
>  <oscillator_strength_4> 
0.0084 
 
>  <open_babel_can_smiles> 
Nc1ccc2c(c1)nccc2 
 
>  <mulliken_charges> 
19 
1   -0.160403 
2   -0.150861 
3   -0.204651 
4   -0.166238 
5   0.043966 
6   -0.212017 
7   0.155714 
8   0.3211 
9   0.238527 
10   -0.791576 
11   -0.507172 
12   0.131057 
13   0.135752 
14   0.131875 
15   0.123939 
16   0.134822 
17   0.128075 
18   0.321914 
19   0.326177 
 
>  <lowdin_charges> 
19 
1   -0.19627 
2   -0.124212 
3   -0.14441 
4   -0.185099 
5   -0.084445 
6   -0.208456 
7   -0.032697 
8   0.063327 
9   0.052077 
10   -0.480803 
11   -0.161819 
12   0.161654 
13   0.15742 
14   0.156602 
15   0.156076 
16   0.1535 
17   0.161824 
18   0.277842 
19   0.27789 
 
$$$$ 
 
