PCCDB-ID:  7684 
public computational chemistry database (PCCDB) project, http://pccdb.org 
 
 22 22  0  0  0  0  0  0  0  0999 V2000 
    0.7849    0.2758    0.2109 C   0  0  0  0  0  0  0  0  0  0  0  0 
    7.0966    1.9223    0.9595 C   0  0  0  0  0  0  0  0  0  0  0  0 
    3.0296   -0.8991    0.3747 C   0  0  0  0  0  0  0  0  0  0  0  0 
    2.9680    1.2969   -0.5821 C   0  0  0  0  0  0  0  0  0  0  0  0 
    4.4088   -0.9486    0.1949 C   0  0  0  0  0  0  0  0  0  0  0  0 
    4.3517    1.2661   -0.7555 C   0  0  0  0  0  0  0  0  0  0  0  0 
    2.2795    0.2228   -0.0066 C   0  0  0  0  0  0  0  0  0  0  0  0 
    7.3235    0.8230   -0.0561 C   0  0  0  0  0  0  0  0  0  0  0  0 
    5.0970    0.1445   -0.3565 C   0  0  0  0  0  0  0  0  0  0  0  0 
    6.4784    0.0387   -0.5839 N   0  0  0  0  0  0  0  0  0  0  0  0 
    8.6261    0.6426   -0.4242 O   0  0  0  0  0  0  0  0  0  0  0  0 
    0.3357   -0.7220    0.1559 H   0  0  0  0  0  0  0  0  0  0  0  0 
    0.2927    0.9068   -0.5373 H   0  0  0  0  0  0  0  0  0  0  0  0 
    0.5346    0.6891    1.1978 H   0  0  0  0  0  0  0  0  0  0  0  0 
    6.0507    1.9677    1.2644 H   0  0  0  0  0  0  0  0  0  0  0  0 
    7.3813    2.8981    0.5464 H   0  0  0  0  0  0  0  0  0  0  0  0 
    7.7157    1.7432    1.8482 H   0  0  0  0  0  0  0  0  0  0  0  0 
    2.5214   -1.7565    0.8115 H   0  0  0  0  0  0  0  0  0  0  0  0 
    2.4134    2.1750   -0.9075 H   0  0  0  0  0  0  0  0  0  0  0  0 
    4.9737   -1.8324    0.4765 H   0  0  0  0  0  0  0  0  0  0  0  0 
    4.8609    2.1005   -1.2307 H   0  0  0  0  0  0  0  0  0  0  0  0 
    9.1845    1.2659    0.0652 H   0  0  0  0  0  0  0  0  0  0  0  0 
  1 14  1  0  0  0  0 
  2 15  1  0  0  0  0 
  2 17  1  0  0  0  0 
  3 18  1  0  0  0  0 
  4  7  1  0  0  0  0 
  5  3  1  0  0  0  0 
  5 20  1  0  0  0  0 
  6  4  2  0  0  0  0 
  6  9  1  0  0  0  0 
  7  1  1  0  0  0  0 
  7  3  2  0  0  0  0 
  8  2  1  0  0  0  0 
  9  5  2  0  0  0  0 
 10  9  1  0  0  0  0 
 10  8  2  0  0  0  0 
 11  8  1  0  0  0  0 
 11 22  1  0  0  0  0 
 12  1  1  0  0  0  0 
 13  1  1  0  0  0  0 
 16  2  1  0  0  0  0 
 19  4  1  0  0  0  0 
 21  6  1  0  0  0  0 
M  END 
>  <HBA> 
2 
 
>  <HBD> 
1 
 
>  <TPSA> 
29.1 
 
>  <cid> 
7684 
 
>  <dipole> 
3.73 
 
>  <excitation_energy_1> 
4.648 
 
>  <excitation_energy_2> 
4.847 
 
>  <excitation_energy_3> 
4.858 
 
>  <excitation_energy_4> 
5.406 
 
>  <homo_energy> 
-5.573 
 
>  <homo_lumo_gap> 
5.543 
 
>  <logP> 
2.026 
 
>  <lumo_energy> 
-0.03 
 
>  <melting_point> 
63.43 
 
>  <molecular_refractivity> 
45.72 
 
>  <oscillator_strength_1> 
0.1062 
 
>  <oscillator_strength_2> 
0.0003 
 
>  <oscillator_strength_3> 
0.0688 
 
>  <oscillator_strength_4> 
0.0058 
 
>  <open_babel_can_smiles> 
Cc1ccc(cc1)/N=C(/O)\C 
 
>  <mulliken_charges> 
22 
1   -0.529672 
2   -0.555615 
3   -0.190041 
4   -0.19168 
5   -0.148425 
6   -0.155838 
7   0.180213 
8   0.482009 
9   0.233818 
10   -0.465423 
11   -0.570608 
12   0.155192 
13   0.154254 
14   0.160005 
15   0.198926 
16   0.174968 
17   0.169713 
18   0.119925 
19   0.118594 
20   0.130946 
21   0.121687 
22   0.40705 
 
>  <lowdin_charges> 
22 
1   -0.442307 
2   -0.48363 
3   -0.163428 
4   -0.165808 
5   -0.172936 
6   -0.189248 
7   -0.013141 
8   0.147846 
9   0.0436 
10   -0.172076 
11   -0.364827 
12   0.15637 
13   0.15757 
14   0.157655 
15   0.183444 
16   0.169394 
17   0.167529 
18   0.154385 
19   0.153419 
20   0.162663 
21   0.15626 
22   0.357266 
 
$$$$ 
 
