PCCDB-ID:  15402 
public computational chemistry database (PCCDB) project, http://pccdb.org 
 
 19 19  0  0  0  0  0  0  0  0999 V2000 
    3.1839   -0.9123   -0.9822 C   0  0  0  0  0  0  0  0  0  0  0  0 
    2.5031   -0.3999    1.2525 C   0  0  0  0  0  0  0  0  0  0  0  0 
    2.4589    2.4522    0.6268 C   0  0  0  0  0  0  0  0  0  0  0  0 
    3.1674    1.9227   -1.6805 C   0  0  0  0  0  0  0  0  0  0  0  0 
    3.1979    1.4063   -0.2295 C   0  0  0  0  0  0  0  0  0  0  0  0 
    2.5499    0.0905   -0.1255 N   0  0  0  0  0  0  0  0  0  0  0  0 
    3.1236    4.1268    0.2747 S   0  0  0  0  0  0  0  0  0  0  0  0 
    3.7465    3.6640   -1.7315 S   0  0  0  0  0  0  0  0  0  0  0  0 
    2.6812   -1.8729   -0.8345 H   0  0  0  0  0  0  0  0  0  0  0  0 
    4.2605   -1.0539   -0.7650 H   0  0  0  0  0  0  0  0  0  0  0  0 
    3.0768   -0.6483   -2.0371 H   0  0  0  0  0  0  0  0  0  0  0  0 
    2.0389   -1.3908    1.2602 H   0  0  0  0  0  0  0  0  0  0  0  0 
    1.8883    0.2520    1.8778 H   0  0  0  0  0  0  0  0  0  0  0  0 
    3.5039   -0.4880    1.7181 H   0  0  0  0  0  0  0  0  0  0  0  0 
    2.6123    2.2944    1.6967 H   0  0  0  0  0  0  0  0  0  0  0  0 
    1.3874    2.4113    0.4076 H   0  0  0  0  0  0  0  0  0  0  0  0 
    2.1494    1.8452   -2.0746 H   0  0  0  0  0  0  0  0  0  0  0  0 
    3.8473    1.3687   -2.3318 H   0  0  0  0  0  0  0  0  0  0  0  0 
    4.2530    1.3657    0.1032 H   0  0  0  0  0  0  0  0  0  0  0  0 
  1  9  1  0  0  0  0 
  1 10  1  0  0  0  0 
  1  6  1  0  0  0  0 
  2 12  1  0  0  0  0 
  2 14  1  0  0  0  0 
  2 13  1  0  0  0  0 
  3 15  1  0  0  0  0 
  4  5  1  0  0  0  0 
  5  6  1  0  0  0  0 
  5 19  1  0  0  0  0 
  5  3  1  0  0  0  0 
  6  2  1  0  0  0  0 
  7  3  1  0  0  0  0 
  8  4  1  0  0  0  0 
  8  7  1  0  0  0  0 
 11  1  1  0  0  0  0 
 16  3  1  0  0  0  0 
 17  4  1  0  0  0  0 
 18  4  1  0  0  0  0 
M  END 
>  <HBA> 
3 
 
>  <HBD> 
0 
 
>  <TPSA> 
53.84 
 
>  <cid> 
15402 
 
>  <dipole> 
3.6 
 
>  <excitation_energy_1> 
2.932 
 
>  <excitation_energy_2> 
4.166 
 
>  <excitation_energy_3> 
4.458 
 
>  <excitation_energy_4> 
4.825 
 
>  <homo_energy> 
-5.355 
 
>  <homo_lumo_gap> 
4.256 
 
>  <logP> 
1.312 
 
>  <lumo_energy> 
-1.099 
 
>  <melting_point> 
17.26 
 
>  <molecular_refractivity> 
42.11 
 
>  <oscillator_strength_1> 
0.0012 
 
>  <oscillator_strength_2> 
0.0 
 
>  <oscillator_strength_3> 
0.0001 
 
>  <oscillator_strength_4> 
0.0 
 
>  <open_babel_can_smiles> 
CN(C1CSSC1)C 
 
>  <mulliken_charges> 
19 
1   -0.305446 
2   -0.305414 
3   -0.441471 
4   -0.442146 
5   0.058261 
6   -0.38116 
7   0.016525 
8   0.016873 
9   0.155575 
10   0.126471 
11   0.157512 
12   0.155611 
13   0.157466 
14   0.126479 
15   0.191457 
16   0.191344 
17   0.191442 
18   0.191542 
19   0.139079 
 
>  <lowdin_charges> 
19 
1   -0.355229 
2   -0.359301 
3   -0.37767 
4   -0.381972 
5   -0.065211 
6   -0.185623 
7   0.022931 
8   0.023121 
9   0.154861 
10   0.1238 
11   0.151675 
12   0.154455 
13   0.154812 
14   0.125288 
15   0.174062 
16   0.164783 
17   0.165736 
18   0.177263 
19   0.132221 
 
$$$$ 
 
