PCCDB-ID:  31614 
public computational chemistry database (PCCDB) project, http://pccdb.org 
 
 29 30  0  0  0  0  0  0  0  0999 V2000 
    1.8056   -1.1980   -3.0999 C   0  0  0  0  0  0  0  0  0  0  0  0 
    3.2020   -0.6101   -2.9009 C   0  0  0  0  0  0  0  0  0  0  0  0 
   10.7354   -6.2733   -6.5329 C   0  0  0  0  0  0  0  0  0  0  0  0 
   11.8090   -5.4945   -6.0624 C   0  0  0  0  0  0  0  0  0  0  0  0 
    9.4172   -5.9697   -6.1999 C   0  0  0  0  0  0  0  0  0  0  0  0 
   11.5993   -4.3865   -5.2415 C   0  0  0  0  0  0  0  0  0  0  0  0 
    4.6678   -3.0509   -2.6669 C   0  0  0  0  0  0  0  0  0  0  0  0 
    5.6332   -2.8602   -3.8330 C   0  0  0  0  0  0  0  0  0  0  0  0 
    9.1849   -4.8616   -5.3784 C   0  0  0  0  0  0  0  0  0  0  0  0 
   10.2772   -4.0908   -4.9141 C   0  0  0  0  0  0  0  0  0  0  0  0 
    8.3316   -3.3064   -4.1763 C   0  0  0  0  0  0  0  0  0  0  0  0 
    7.9860   -4.3443   -4.8967 N   0  0  0  0  0  0  0  0  0  0  0  0 
    9.6939   -3.0952   -4.1418 N   0  0  0  0  0  0  0  0  0  0  0  0 
    4.2661   -1.5311   -1.7140 S   0  0  0  0  0  0  0  0  0  0  0  0 
    7.2707   -2.2193   -3.2702 S   0  0  0  0  0  0  0  0  0  0  0  0 
    1.2231   -0.5669   -3.7829 H   0  0  0  0  0  0  0  0  0  0  0  0 
    1.2687   -1.2631   -2.1486 H   0  0  0  0  0  0  0  0  0  0  0  0 
    1.8453   -2.2028   -3.5343 H   0  0  0  0  0  0  0  0  0  0  0  0 
    3.1376    0.3948   -2.4705 H   0  0  0  0  0  0  0  0  0  0  0  0 
    3.7301   -0.5082   -3.8554 H   0  0  0  0  0  0  0  0  0  0  0  0 
   10.9423   -7.1293   -7.1692 H   0  0  0  0  0  0  0  0  0  0  0  0 
   12.8241   -5.7611   -6.3431 H   0  0  0  0  0  0  0  0  0  0  0  0 
    8.5858   -6.5679   -6.5600 H   0  0  0  0  0  0  0  0  0  0  0  0 
   12.4296   -3.7865   -4.8796 H   0  0  0  0  0  0  0  0  0  0  0  0 
    5.0938   -3.7393   -1.9312 H   0  0  0  0  0  0  0  0  0  0  0  0 
    3.7408   -3.5029   -3.0384 H   0  0  0  0  0  0  0  0  0  0  0  0 
    5.2341   -2.1622   -4.5741 H   0  0  0  0  0  0  0  0  0  0  0  0 
    5.8400   -3.8116   -4.3320 H   0  0  0  0  0  0  0  0  0  0  0  0 
   10.1656   -2.3405   -3.6654 H   0  0  0  0  0  0  0  0  0  0  0  0 
  1  2  1  0  0  0  0 
  1 17  1  0  0  0  0 
  2 19  1  0  0  0  0 
  2 14  1  0  0  0  0 
  3  5  2  0  0  0  0 
  3  4  1  0  0  0  0 
  4  6  2  0  0  0  0 
  5  9  1  0  0  0  0 
  6 10  1  0  0  0  0 
  6 24  1  0  0  0  0 
  7 25  1  0  0  0  0 
  7 14  1  0  0  0  0 
  8 15  1  0  0  0  0 
  8  7  1  0  0  0  0 
  9 10  2  0  0  0  0 
  9 12  1  0  0  0  0 
 10 13  1  0  0  0  0 
 11 13  1  0  0  0  0 
 11 15  1  0  0  0  0 
 12 11  2  0  0  0  0 
 13 29  1  0  0  0  0 
 16  1  1  0  0  0  0 
 18  1  1  0  0  0  0 
 20  2  1  0  0  0  0 
 21  3  1  0  0  0  0 
 22  4  1  0  0  0  0 
 23  5  1  0  0  0  0 
 26  7  1  0  0  0  0 
 27  8  1  0  0  0  0 
 28  8  1  0  0  0  0 
M  END 
>  <HBA> 
3 
 
>  <HBD> 
1 
 
>  <TPSA> 
79.28 
 
>  <cid> 
31614 
 
>  <dipole> 
1.36 
 
>  <excitation_energy_1> 
4.654 
 
>  <excitation_energy_2> 
4.768 
 
>  <excitation_energy_3> 
5.087 
 
>  <excitation_energy_4> 
5.122 
 
>  <homo_energy> 
-5.606 
 
>  <homo_lumo_gap> 
5.342 
 
>  <logP> 
3.408 
 
>  <lumo_energy> 
-0.264 
 
>  <melting_point> 
131.23 
 
>  <molecular_refractivity> 
69.83 
 
>  <oscillator_strength_1> 
0.1688 
 
>  <oscillator_strength_2> 
0.1529 
 
>  <oscillator_strength_3> 
0.002 
 
>  <oscillator_strength_4> 
0.1036 
 
>  <open_babel_can_smiles> 
CCSCCSc1nc2c([nH]1)cccc2 
 
>  <mulliken_charges> 
29 
1   -0.436399 
2   -0.413721 
3   -0.144153 
4   -0.150223 
5   -0.174031 
6   -0.171635 
7   -0.423415 
8   -0.427915 
9   0.236336 
10   0.348126 
11   0.297945 
12   -0.547112 
13   -0.718318 
14   0.097047 
15   0.15554 
16   0.151204 
17   0.166442 
18   0.151389 
19   0.179954 
20   0.171273 
21   0.12499 
22   0.126207 
23   0.135648 
24   0.127519 
25   0.197018 
26   0.179969 
27   0.184682 
28   0.235272 
29   0.340362 
 
>  <lowdin_charges> 
29 
1   -0.448678 
2   -0.374722 
3   -0.16994 
4   -0.162455 
5   -0.163317 
6   -0.188781 
7   -0.382475 
8   -0.374431 
9   0.015017 
10   0.022486 
11   -0.038707 
12   -0.224162 
13   -0.21217 
14   0.097749 
15   0.166973 
16   0.155874 
17   0.160364 
18   0.149662 
19   0.169579 
20   0.155234 
21   0.157275 
22   0.156605 
23   0.165769 
24   0.159408 
25   0.180728 
26   0.163918 
27   0.165292 
28   0.196632 
29   0.301272 
 
$$$$ 
 
