PCCDB-ID:  34744 
public computational chemistry database (PCCDB) project, http://pccdb.org 
 
 20 20  0  0  1  0  0  0  0  0999 V2000 
    0.8723    0.2134   -0.3228 C   0  0  0  0  0  0  0  0  0  0  0  0 
    3.2497   -0.0331   -1.1384 C   0  0  0  0  0  0  0  0  0  0  0  0 
    2.4927   -1.3005    0.9753 C   0  0  0  0  0  0  0  0  0  0  0  0 
    2.6762    0.6510    2.2905 C   0  0  0  0  0  0  0  0  0  0  0  0 
    3.2030   -0.7824    2.2418 C   0  0  2  0  0  0  0  0  0  0  0  0 
    2.3301   -0.0301    0.0835 C   0  0  0  0  0  0  0  0  0  0  0  0 
    4.6216   -0.7983    2.1177 O   0  0  0  0  0  0  0  0  0  0  0  0 
    2.7683    1.0741    0.9302 O   0  0  0  0  0  0  0  0  0  0  0  0 
    0.4949   -0.6112   -0.9391 H   0  0  0  0  0  0  0  0  0  0  0  0 
    0.7838    1.1427   -0.8954 H   0  0  0  0  0  0  0  0  0  0  0  0 
    0.2298    0.2952    0.5612 H   0  0  0  0  0  0  0  0  0  0  0  0 
    2.9340   -0.7940   -1.8610 H   0  0  0  0  0  0  0  0  0  0  0  0 
    4.2837   -0.2498   -0.8483 H   0  0  0  0  0  0  0  0  0  0  0  0 
    3.2283    0.9436   -1.6338 H   0  0  0  0  0  0  0  0  0  0  0  0 
    1.5142   -1.7216    1.2342 H   0  0  0  0  0  0  0  0  0  0  0  0 
    3.0824   -2.0857    0.4944 H   0  0  0  0  0  0  0  0  0  0  0  0 
    3.2948    1.3175    2.8980 H   0  0  0  0  0  0  0  0  0  0  0  0 
    1.6379    0.6901    2.6588 H   0  0  0  0  0  0  0  0  0  0  0  0 
    2.9685   -1.3699    3.1337 H   0  0  0  0  0  0  0  0  0  0  0  0 
    4.8452   -0.0988    1.4807 H   0  0  0  0  0  0  0  0  0  0  0  0 
  1  6  1  0  0  0  0 
  1 11  1  0  0  0  0 
  2 13  1  0  0  0  0 
  2  6  1  0  0  0  0 
  3 15  1  0  0  0  0 
  3  5  1  0  0  0  0 
  4 18  1  0  0  0  0 
  4 17  1  0  0  0  0 
  5  4  1  0  0  0  0 
  5 19  1  1  0  0  0 
  6  8  1  0  0  0  0 
  6  3  1  0  0  0  0 
  7  5  1  0  0  0  0 
  8  4  1  0  0  0  0 
  9  1  1  0  0  0  0 
 10  1  1  0  0  0  0 
 12  2  1  0  0  0  0 
 14  2  1  0  0  0  0 
 16  3  1  0  0  0  0 
 20  7  1  0  0  0  0 
M  END 
>  <HBA> 
2 
 
>  <HBD> 
1 
 
>  <TPSA> 
29.46 
 
>  <cid> 
34744 
 
>  <dipole> 
1.57 
 
>  <excitation_energy_1> 
6.245 
 
>  <excitation_energy_2> 
6.623 
 
>  <excitation_energy_3> 
6.874 
 
>  <excitation_energy_4> 
6.996 
 
>  <homo_energy> 
-6.7 
 
>  <homo_lumo_gap> 
8.577 
 
>  <logP> 
0.546 
 
>  <lumo_energy> 
1.878 
 
>  <melting_point> 
16.71 
 
>  <molecular_refractivity> 
31.13 
 
>  <oscillator_strength_1> 
0.0127 
 
>  <oscillator_strength_2> 
0.0131 
 
>  <oscillator_strength_3> 
0.0068 
 
>  <oscillator_strength_4> 
0.0032 
 
>  <open_babel_can_smiles> 
O[C@H]1COC(C1)(C)C 
 
>  <mulliken_charges> 
20 
1   -0.455273 
2   -0.455975 
3   -0.336528 
4   -0.06143 
5   0.122984 
6   0.334956 
7   -0.631521 
8   -0.511926 
9   0.141441 
10   0.15334 
11   0.144287 
12   0.144671 
13   0.140773 
14   0.156479 
15   0.140177 
16   0.159817 
17   0.155502 
18   0.124148 
19   0.137434 
20   0.396645 
 
>  <lowdin_charges> 
20 
1   -0.452505 
2   -0.446492 
3   -0.313529 
4   -0.153295 
5   -0.014247 
6   0.125755 
7   -0.464472 
8   -0.2911 
9   0.152109 
10   0.156077 
11   0.151485 
12   0.15424 
13   0.147947 
14   0.157598 
15   0.151231 
16   0.16257 
17   0.156167 
18   0.129653 
19   0.148341 
20   0.342466 
 
$$$$ 
 
