PCCDB-ID:  19903 
public computational chemistry database (PCCDB) project, http://pccdb.org 
 
 15 14  0  0  0  0  0  0  0  0999 V2000 
    1.7048    0.0490    0.2290 C   0  0  0  0  0  0  0  0  0  0  0  0 
    0.5740   -1.0525   -1.3957 N   0  0  0  0  0  0  0  0  0  0  0  0 
    2.0881   -0.8041    2.4492 N   0  0  0  0  0  0  0  0  0  0  0  0 
    2.9251    2.0060   -0.5631 N   0  0  0  0  0  0  0  0  0  0  0  0 
    1.0684   -1.0472   -0.0326 N   0  0  0  0  0  0  0  0  0  0  0  0 
    2.3455    0.1901    1.4629 N   0  0  0  0  0  0  0  0  0  0  0  0 
    1.8056    1.1317   -0.6320 N   0  0  0  0  0  0  0  0  0  0  0  0 
   -0.3896   -0.7083   -1.3642 H   0  0  0  0  0  0  0  0  0  0  0  0 
    0.4881   -2.0392   -1.6346 H   0  0  0  0  0  0  0  0  0  0  0  0 
    2.7937   -1.5274    2.3124 H   0  0  0  0  0  0  0  0  0  0  0  0 
    1.2021   -1.2512    2.1934 H   0  0  0  0  0  0  0  0  0  0  0  0 
    3.7186    1.5168   -0.1461 H   0  0  0  0  0  0  0  0  0  0  0  0 
    2.6886    2.7835    0.0503 H   0  0  0  0  0  0  0  0  0  0  0  0 
    2.2342    1.1155    1.8646 H   0  0  0  0  0  0  0  0  0  0  0  0 
    1.6133    0.8270   -1.5849 H   0  0  0  0  0  0  0  0  0  0  0  0 
  1  6  1  0  0  0  0 
  2  8  1  0  0  0  0 
  2  5  1  0  0  0  0 
  4 12  1  0  0  0  0 
  4 13  1  0  0  0  0 
  5  1  1  0  0  0  0 
  6 14  1  0  0  0  0 
  6  3  1  0  0  0  0 
  7  4  1  0  0  0  0 
  7  1  1  0  0  0  0 
  9  2  1  0  0  0  0 
 10  3  1  0  0  0  0 
 11  3  1  0  0  0  0 
 15  7  1  0  0  0  0 
M  RAD  2   1   2   5   2 
M  END 
>  <HBA> 
6 
 
>  <HBD> 
5 
 
>  <TPSA> 
114.48 
 
>  <cid> 
19903 
 
>  <dipole> 
0.5 
 
>  <excitation_energy_1> 
5.02 
 
>  <excitation_energy_2> 
5.206 
 
>  <excitation_energy_3> 
5.686 
 
>  <excitation_energy_4> 
5.732 
 
>  <homo_energy> 
-5.548 
 
>  <homo_lumo_gap> 
6.765 
 
>  <logP> 
0.025 
 
>  <lumo_energy> 
1.216 
 
>  <melting_point> 
211.73 
 
>  <molecular_refractivity> 
24.33 
 
>  <oscillator_strength_1> 
0.0044 
 
>  <oscillator_strength_2> 
0.0039 
 
>  <oscillator_strength_3> 
0.0374 
 
>  <oscillator_strength_4> 
0.0115 
 
>  <open_babel_can_smiles> 
N[N][C](NN)NN 
 
>  <mulliken_charges> 
15 
1   0.678775 
2   -0.62039 
3   -0.575379 
4   -0.582854 
5   -0.458013 
6   -0.515772 
7   -0.517616 
8   0.310784 
9   0.32013 
10   0.321132 
11   0.31967 
12   0.318332 
13   0.315525 
14   0.32512 
15   0.360556 
 
>  <lowdin_charges> 
15 
1   0.087838 
2   -0.475161 
3   -0.469426 
4   -0.46806 
5   -0.271018 
6   -0.259577 
7   -0.262783 
8   0.253671 
9   0.260993 
10   0.264487 
11   0.259127 
12   0.259216 
13   0.259696 
14   0.272466 
15   0.28853 
 
$$$$ 
 
