PCCDB-ID:  29488 
public computational chemistry database (PCCDB) project, http://pccdb.org 
 
 30 30  0  0  0  0  0  0  0  0999 V2000 
    1.9616    1.1742    0.8749 C   0  0  0  0  0  0  0  0  0  0  0  0 
    3.5003    0.6875   -1.0880 C   0  0  0  0  0  0  0  0  0  0  0  0 
    6.9298   -2.3003    5.0564 C   0  0  0  0  0  0  0  0  0  0  0  0 
    3.5169   -3.6770    1.5719 C   0  0  0  0  0  0  0  0  0  0  0  0 
    2.5156   -3.6176    0.6044 C   0  0  0  0  0  0  0  0  0  0  0  0 
    3.7702   -1.2769    1.4080 C   0  0  0  0  0  0  0  0  0  0  0  0 
    2.3762    0.1393   -0.1870 C   0  0  0  0  0  0  0  0  0  0  0  0 
    4.1416   -2.4994    1.9610 C   0  0  0  0  0  0  0  0  0  0  0  0 
    2.7712   -1.1950    0.4340 C   0  0  0  0  0  0  0  0  0  0  0  0 
    2.1493   -2.3944    0.0354 C   0  0  0  0  0  0  0  0  0  0  0  0 
    6.4016   -2.3309    2.7609 C   0  0  0  0  0  0  0  0  0  0  0  0 
    7.2911   -2.2194    3.6512 N   0  0  0  0  0  0  0  0  0  0  0  0 
    1.1723   -2.3176   -0.9268 O   0  0  0  0  0  0  0  0  0  0  0  0 
    6.6997   -2.2501    1.4434 O   0  0  0  0  0  0  0  0  0  0  0  0 
    5.0823   -2.5568    2.9969 O   0  0  0  0  0  0  0  0  0  0  0  0 
    1.6128    2.0949    0.3924 H   0  0  0  0  0  0  0  0  0  0  0  0 
    2.7986    1.4437    1.5302 H   0  0  0  0  0  0  0  0  0  0  0  0 
    1.1514    0.7933    1.5062 H   0  0  0  0  0  0  0  0  0  0  0  0 
    3.1907    1.6270   -1.5614 H   0  0  0  0  0  0  0  0  0  0  0  0 
    3.7552   -0.0256   -1.8791 H   0  0  0  0  0  0  0  0  0  0  0  0 
    4.4115    0.8863   -0.5110 H   0  0  0  0  0  0  0  0  0  0  0  0 
    7.4641   -1.5170    5.6059 H   0  0  0  0  0  0  0  0  0  0  0  0 
    7.2569   -3.2632    5.4706 H   0  0  0  0  0  0  0  0  0  0  0  0 
    5.8549   -2.1929    5.2479 H   0  0  0  0  0  0  0  0  0  0  0  0 
    3.8100   -4.6199    2.0214 H   0  0  0  0  0  0  0  0  0  0  0  0 
    2.0166   -4.5315    0.2866 H   0  0  0  0  0  0  0  0  0  0  0  0 
    4.2738   -0.3764    1.7460 H   0  0  0  0  0  0  0  0  0  0  0  0 
    1.5059   -0.0456   -0.8235 H   0  0  0  0  0  0  0  0  0  0  0  0 
    0.8277   -3.2086   -1.0913 H   0  0  0  0  0  0  0  0  0  0  0  0 
    7.6608   -2.0966    1.4198 H   0  0  0  0  0  0  0  0  0  0  0  0 
  1 18  1  0  0  0  0 
  1 17  1  0  0  0  0 
  2 21  1  0  0  0  0 
  2  7  1  0  0  0  0 
  3 24  1  0  0  0  0 
  3 23  1  0  0  0  0 
  3 22  1  0  0  0  0 
  4  8  1  0  0  0  0 
  4 25  1  0  0  0  0 
  5  4  2  0  0  0  0 
  6 27  1  0  0  0  0 
  6  8  2  0  0  0  0 
  7  9  1  0  0  0  0 
  7  1  1  0  0  0  0 
  8 15  1  0  0  0  0 
  9  6  1  0  0  0  0 
 10  9  2  0  0  0  0 
 10  5  1  0  0  0  0 
 11 15  1  0  0  0  0 
 11 12  2  0  0  0  0 
 12  3  1  0  0  0  0 
 13 10  1  0  0  0  0 
 14 11  1  0  0  0  0 
 16  1  1  0  0  0  0 
 19  2  1  0  0  0  0 
 20  2  1  0  0  0  0 
 26  5  1  0  0  0  0 
 28  7  1  0  0  0  0 
 29 13  1  0  0  0  0 
 30 14  1  0  0  0  0 
M  END 
>  <HBA> 
4 
 
>  <HBD> 
2 
 
>  <TPSA> 
58.56 
 
>  <cid> 
29488 
 
>  <dipole> 
2.05 
 
>  <excitation_energy_1> 
4.855 
 
>  <excitation_energy_2> 
5.056 
 
>  <excitation_energy_3> 
5.53 
 
>  <excitation_energy_4> 
5.639 
 
>  <homo_energy> 
-5.861 
 
>  <homo_lumo_gap> 
5.676 
 
>  <logP> 
2.625 
 
>  <lumo_energy> 
-0.185 
 
>  <melting_point> 
111.15 
 
>  <molecular_refractivity> 
57.73 
 
>  <oscillator_strength_1> 
0.0545 
 
>  <oscillator_strength_2> 
0.0001 
 
>  <oscillator_strength_3> 
0.028 
 
>  <oscillator_strength_4> 
0.0001 
 
>  <open_babel_can_smiles> 
C/N=C(\Oc1ccc(c(c1)C(C)C)O)/O 
 
>  <mulliken_charges> 
30 
1   -0.441483 
2   -0.436315 
3   -0.323414 
4   -0.164414 
5   -0.201044 
6   -0.217332 
7   -0.157494 
8   0.358777 
9   0.136202 
10   0.290867 
11   0.702668 
12   -0.483921 
13   -0.648576 
14   -0.591552 
15   -0.54286 
16   0.142386 
17   0.141134 
18   0.150498 
19   0.14073 
20   0.151761 
21   0.142513 
22   0.151821 
23   0.152063 
24   0.153145 
25   0.142326 
26   0.122244 
27   0.137565 
28   0.160998 
29   0.408688 
30   0.422019 
 
>  <lowdin_charges> 
30 
1   -0.44272 
2   -0.440368 
3   -0.352285 
4   -0.163501 
5   -0.207125 
6   -0.165286 
7   -0.12184 
8   0.087299 
9   -0.02147 
10   0.091834 
11   0.192494 
12   -0.268747 
13   -0.383585 
14   -0.36117 
15   -0.165674 
16   0.14963 
17   0.145969 
18   0.153931 
19   0.148028 
20   0.154664 
21   0.146993 
22   0.151745 
23   0.149938 
24   0.14215 
25   0.16976 
26   0.155688 
27   0.166927 
28   0.159918 
29   0.35726 
30   0.369543 
 
$$$$ 
 
