PCCDB-ID:  7838 
public computational chemistry database (PCCDB) project, http://pccdb.org 
 
 18 18  0  0  1  0  0  0  0  0999 V2000 
    4.2183    1.8251    3.7591 C   0  0  0  0  0  0  0  0  0  0  0  0 
    5.4350    1.5390    3.2982 C   0  0  0  0  0  0  0  0  0  0  0  0 
    5.7040    0.6837    2.0963 C   0  0  0  0  0  0  0  0  0  0  0  0 
    7.0266   -1.1294    1.3538 C   0  0  0  0  0  0  0  0  0  0  0  0 
    9.4239   -2.0520    1.7554 C   0  0  0  0  0  0  0  0  0  0  0  0 
    7.9670   -2.1934    1.8659 C   0  0  2  0  0  0  0  0  0  0  0  0 
    6.6540   -0.3141    2.4477 O   0  0  0  0  0  0  0  0  0  0  0  0 
    8.6958   -2.9021    0.8574 O   0  0  0  0  0  0  0  0  0  0  0  0 
    4.0698    2.4775    4.6152 H   0  0  0  0  0  0  0  0  0  0  0  0 
    3.3206    1.4220    3.2946 H   0  0  0  0  0  0  0  0  0  0  0  0 
    6.3202    1.9463    3.7853 H   0  0  0  0  0  0  0  0  0  0  0  0 
    6.1082    1.3022    1.2736 H   0  0  0  0  0  0  0  0  0  0  0  0 
    4.7717    0.2237    1.7286 H   0  0  0  0  0  0  0  0  0  0  0  0 
    6.1400   -1.6056    0.9006 H   0  0  0  0  0  0  0  0  0  0  0  0 
    7.5241   -0.5437    0.5625 H   0  0  0  0  0  0  0  0  0  0  0  0 
   10.0735   -2.5686    2.4621 H   0  0  0  0  0  0  0  0  0  0  0  0 
    9.8437   -1.1499    1.3092 H   0  0  0  0  0  0  0  0  0  0  0  0 
    7.5642   -2.8164    2.6666 H   0  0  0  0  0  0  0  0  0  0  0  0 
  1  9  1  0  0  0  0 
  2  1  2  0  0  0  0 
  2 11  1  0  0  0  0 
  3  7  1  0  0  0  0 
  3  2  1  0  0  0  0 
  4  6  1  0  0  0  0 
  4  7  1  0  0  0  0 
  5  6  1  0  0  0  0 
  5 16  1  0  0  0  0 
  6 18  1  1  0  0  0 
  8  5  1  0  0  0  0 
  8  6  1  0  0  0  0 
 10  1  1  0  0  0  0 
 12  3  1  0  0  0  0 
 13  3  1  0  0  0  0 
 14  4  1  0  0  0  0 
 15  4  1  0  0  0  0 
 17  5  1  0  0  0  0 
M  END 
>  <HBA> 
2 
 
>  <HBD> 
0 
 
>  <TPSA> 
21.76 
 
>  <cid> 
7838 
 
>  <dipole> 
1.64 
 
>  <excitation_energy_1> 
6.185 
 
>  <excitation_energy_2> 
6.694 
 
>  <excitation_energy_3> 
6.793 
 
>  <excitation_energy_4> 
6.962 
 
>  <homo_energy> 
-7.012 
 
>  <homo_lumo_gap> 
7.263 
 
>  <logP> 
0.588 
 
>  <lumo_energy> 
0.25 
 
>  <melting_point> 
-42.48 
 
>  <molecular_refractivity> 
30.54 
 
>  <oscillator_strength_1> 
0.0233 
 
>  <oscillator_strength_2> 
0.008 
 
>  <oscillator_strength_3> 
0.0241 
 
>  <oscillator_strength_4> 
0.0447 
 
>  <open_babel_can_smiles> 
C=CCOC[C@@H]1CO1 
 
>  <mulliken_charges> 
18 
1   -0.33542 
2   -0.051735 
3   -0.053598 
4   -0.028072 
5   -0.103184 
6   0.092003 
7   -0.478544 
8   -0.447361 
9   0.146525 
10   0.141028 
11   0.141466 
12   0.130068 
13   0.128803 
14   0.131386 
15   0.127947 
16   0.15354 
17   0.151124 
18   0.154025 
 
>  <lowdin_charges> 
18 
1   -0.327587 
2   -0.149266 
3   -0.125162 
4   -0.135928 
5   -0.163869 
6   -0.025433 
7   -0.272836 
8   -0.284794 
9   0.162379 
10   0.157135 
11   0.160009 
12   0.134756 
13   0.133357 
14   0.135635 
15   0.135273 
16   0.157279 
17   0.15343 
18   0.155623 
 
$$$$ 
 
