PCCDB-ID:  17680 
public computational chemistry database (PCCDB) project, http://pccdb.org 
 
 32 32  0  0  0  0  0  0  0  0999 V2000 
    2.7319    0.1459   -1.2763 C   0  0  0  0  0  0  0  0  0  0  0  0 
    0.9644    0.7857    0.4314 C   0  0  0  0  0  0  0  0  0  0  0  0 
    4.0462   -4.1491    3.5798 C   0  0  0  0  0  0  0  0  0  0  0  0 
    0.7221   -6.6771    0.8092 C   0  0  0  0  0  0  0  0  0  0  0  0 
    4.2361   -1.7165    2.8558 C   0  0  0  0  0  0  0  0  0  0  0  0 
    3.8501   -0.6369    2.0595 C   0  0  0  0  0  0  0  0  0  0  0  0 
    2.2594   -2.0341    0.9388 C   0  0  0  0  0  0  0  0  0  0  0  0 
    2.4407    0.4040    0.2140 C   0  0  0  0  0  0  0  0  0  0  0  0 
    3.6470   -2.9771    2.7205 C   0  0  0  0  0  0  0  0  0  0  0  0 
    2.8556   -0.7740    1.0854 C   0  0  0  0  0  0  0  0  0  0  0  0 
    2.6494   -3.0953    1.7451 C   0  0  0  0  0  0  0  0  0  0  0  0 
    0.9936   -4.7837    2.1808 C   0  0  0  0  0  0  0  0  0  0  0  0 
    0.3378   -5.8333    1.9284 N   0  0  0  0  0  0  0  0  0  0  0  0 
    0.6634   -3.9677    3.2097 O   0  0  0  0  0  0  0  0  0  0  0  0 
    2.0839   -4.3555    1.4924 O   0  0  0  0  0  0  0  0  0  0  0  0 
    2.4824    1.0285   -1.8772 H   0  0  0  0  0  0  0  0  0  0  0  0 
    2.1391   -0.6940   -1.6579 H   0  0  0  0  0  0  0  0  0  0  0  0 
    3.7889   -0.0909   -1.4392 H   0  0  0  0  0  0  0  0  0  0  0  0 
    0.7021    1.6689   -0.1633 H   0  0  0  0  0  0  0  0  0  0  0  0 
    0.7638    1.0103    1.4845 H   0  0  0  0  0  0  0  0  0  0  0  0 
    0.2942   -0.0283    0.1306 H   0  0  0  0  0  0  0  0  0  0  0  0 
    4.9337   -3.9112    4.1738 H   0  0  0  0  0  0  0  0  0  0  0  0 
    4.2660   -5.0346    2.9732 H   0  0  0  0  0  0  0  0  0  0  0  0 
    3.2399   -4.4228    4.2712 H   0  0  0  0  0  0  0  0  0  0  0  0 
   -0.1838   -7.0550    0.3229 H   0  0  0  0  0  0  0  0  0  0  0  0 
    1.2839   -7.5490    1.1703 H   0  0  0  0  0  0  0  0  0  0  0  0 
    1.3375   -6.1653    0.0584 H   0  0  0  0  0  0  0  0  0  0  0  0 
    5.0166   -1.5801    3.6008 H   0  0  0  0  0  0  0  0  0  0  0  0 
    4.3363    0.3265    2.1947 H   0  0  0  0  0  0  0  0  0  0  0  0 
    1.4887   -2.2090    0.1939 H   0  0  0  0  0  0  0  0  0  0  0  0 
    3.0521    1.2619    0.5256 H   0  0  0  0  0  0  0  0  0  0  0  0 
   -0.1232   -4.3811    3.6078 H   0  0  0  0  0  0  0  0  0  0  0  0 
  1  8  1  0  0  0  0 
  2 20  1  0  0  0  0 
  3 22  1  0  0  0  0 
  3 24  1  0  0  0  0 
  4 26  1  0  0  0  0 
  4 13  1  0  0  0  0 
  5 28  1  0  0  0  0 
  6 29  1  0  0  0  0 
  6  5  2  0  0  0  0 
  7 10  2  0  0  0  0 
  7 11  1  0  0  0  0 
  8  2  1  0  0  0  0 
  8 31  1  0  0  0  0 
  8 10  1  0  0  0  0 
  9  5  1  0  0  0  0 
  9  3  1  0  0  0  0 
 10  6  1  0  0  0  0 
 11  9  2  0  0  0  0 
 12 14  1  0  0  0  0 
 13 12  2  0  0  0  0 
 14 32  1  0  0  0  0 
 15 11  1  0  0  0  0 
 15 12  1  0  0  0  0 
 16  1  1  0  0  0  0 
 17  1  1  0  0  0  0 
 18  1  1  0  0  0  0 
 19  2  1  0  0  0  0 
 21  2  1  0  0  0  0 
 23  3  1  0  0  0  0 
 25  4  1  0  0  0  0 
 27  4  1  0  0  0  0 
 30  7  1  0  0  0  0 
M  END 
>  <HBA> 
3 
 
>  <HBD> 
1 
 
>  <TPSA> 
38.33 
 
>  <cid> 
17680 
 
>  <dipole> 
1.31 
 
>  <excitation_energy_1> 
5.167 
 
>  <excitation_energy_2> 
5.736 
 
>  <excitation_energy_3> 
5.797 
 
>  <excitation_energy_4> 
5.812 
 
>  <homo_energy> 
-6.299 
 
>  <homo_lumo_gap> 
6.278 
 
>  <logP> 
3.228 
 
>  <lumo_energy> 
-0.022 
 
>  <melting_point> 
75.01 
 
>  <molecular_refractivity> 
60.68 
 
>  <oscillator_strength_1> 
0.0124 
 
>  <oscillator_strength_2> 
0.0097 
 
>  <oscillator_strength_3> 
0.0317 
 
>  <oscillator_strength_4> 
0.012 
 
>  <open_babel_can_smiles> 
C/N=C(\Oc1cc(ccc1C)C(C)C)/O 
 
>  <mulliken_charges> 
32 
1   -0.439187 
2   -0.438883 
3   -0.536978 
4   -0.322831 
5   -0.202071 
6   -0.184283 
7   -0.206869 
8   -0.160501 
9   0.174424 
10   0.173495 
11   0.288947 
12   0.710106 
13   -0.484692 
14   -0.593744 
15   -0.539575 
16   0.142167 
17   0.144785 
18   0.150277 
19   0.141815 
20   0.151039 
21   0.144868 
22   0.1529 
23   0.169442 
24   0.174241 
25   0.152509 
26   0.15223 
27   0.151938 
28   0.125916 
29   0.122875 
30   0.133378 
31   0.129516 
32   0.422746 
 
>  <lowdin_charges> 
32 
1   -0.44189 
2   -0.441859 
3   -0.443795 
4   -0.355683 
5   -0.160007 
6   -0.172636 
7   -0.175905 
8   -0.118217 
9   -0.012887 
10   0.002703 
11   0.094691 
12   0.190303 
13   -0.266927 
14   -0.363117 
15   -0.165492 
16   0.149506 
17   0.148855 
18   0.151823 
19   0.149265 
20   0.152339 
21   0.148971 
22   0.15783 
23   0.165452 
24   0.167238 
25   0.151645 
26   0.150478 
27   0.144819 
28   0.157124 
29   0.155207 
30   0.164294 
31   0.143253 
32   0.37262 
 
$$$$ 
 
