PCCDB-ID:  24272 
public computational chemistry database (PCCDB) project, http://pccdb.org 
 
 27 28  0  0  0  0  0  0  0  0999 V2000 
    1.6033   -0.5465    2.2639 C   0  0  0  0  0  0  0  0  0  0  0  0 
    2.3299    5.6753    0.2837 C   0  0  0  0  0  0  0  0  0  0  0  0 
    2.5904    4.3161    0.3806 C   0  0  0  0  0  0  0  0  0  0  0  0 
    1.9304    6.4343    1.4046 C   0  0  0  0  0  0  0  0  0  0  0  0 
    2.1986    2.3331    3.4321 C   0  0  0  0  0  0  0  0  0  0  0  0 
    2.6359    0.0745    1.3586 C   0  0  0  0  0  0  0  0  0  0  0  0 
    2.4187    3.6978    1.6315 C   0  0  0  0  0  0  0  0  0  0  0  0 
    1.7679    5.8498    2.6590 C   0  0  0  0  0  0  0  0  0  0  0  0 
    2.5389    2.3303    2.0930 C   0  0  0  0  0  0  0  0  0  0  0  0 
    2.0056    4.4675    2.7397 C   0  0  0  0  0  0  0  0  0  0  0  0 
    1.3359    6.5498    3.8106 N   0  0  0  0  0  0  0  0  0  0  0  0 
    1.9222    3.6313    3.8400 N   0  0  0  0  0  0  0  0  0  0  0  0 
    3.0051    1.3053    1.2744 N   0  0  0  0  0  0  0  0  0  0  0  0 
    3.3231   -0.8318    0.5607 N   0  0  0  0  0  0  0  0  0  0  0  0 
    4.1499   -0.2386   -0.4188 O   0  0  0  0  0  0  0  0  0  0  0  0 
    0.8058    0.1735    2.4665 H   0  0  0  0  0  0  0  0  0  0  0  0 
    2.0469   -0.8427    3.2216 H   0  0  0  0  0  0  0  0  0  0  0  0 
    1.1696   -1.4456    1.8122 H   0  0  0  0  0  0  0  0  0  0  0  0 
    2.4478    6.1805   -0.6712 H   0  0  0  0  0  0  0  0  0  0  0  0 
    2.9070    3.7377   -0.4815 H   0  0  0  0  0  0  0  0  0  0  0  0 
    1.7553    7.5026    1.2940 H   0  0  0  0  0  0  0  0  0  0  0  0 
    2.2100    1.5293    4.1535 H   0  0  0  0  0  0  0  0  0  0  0  0 
    1.2498    7.5470    3.6396 H   0  0  0  0  0  0  0  0  0  0  0  0 
    1.9609    6.4120    4.6019 H   0  0  0  0  0  0  0  0  0  0  0  0 
    1.3855    3.8568    4.6649 H   0  0  0  0  0  0  0  0  0  0  0  0 
    2.7351   -1.5193    0.0952 H   0  0  0  0  0  0  0  0  0  0  0  0 
    4.0683    0.7176   -0.1749 H   0  0  0  0  0  0  0  0  0  0  0  0 
  1 16  1  0  0  0  0 
  1 17  1  0  0  0  0 
  2  3  2  0  0  0  0 
  2  4  1  0  0  0  0 
  3  7  1  0  0  0  0 
  4  8  2  0  0  0  0 
  5 12  1  0  0  0  0 
  5 22  1  0  0  0  0 
  6  1  1  0  0  0  0 
  7  9  1  0  0  0  0 
  7 10  2  0  0  0  0 
  8 10  1  0  0  0  0 
  8 11  1  0  0  0  0 
  9  5  2  0  0  0  0 
 10 12  1  0  0  0  0 
 11 24  1  0  0  0  0 
 12 25  1  0  0  0  0 
 13  6  2  0  0  0  0 
 13  9  1  0  0  0  0 
 14  6  1  0  0  0  0 
 15 27  1  0  0  0  0 
 15 14  1  0  0  0  0 
 18  1  1  0  0  0  0 
 19  2  1  0  0  0  0 
 20  3  1  0  0  0  0 
 21  4  1  0  0  0  0 
 23 11  1  0  0  0  0 
 26 14  1  0  0  0  0 
M  END 
>  <HBA> 
4 
 
>  <HBD> 
4 
 
>  <TPSA> 
86.43 
 
>  <cid> 
24272 
 
>  <dipole> 
4.33 
 
>  <excitation_energy_1> 
4.023 
 
>  <excitation_energy_2> 
4.175 
 
>  <excitation_energy_3> 
4.393 
 
>  <excitation_energy_4> 
4.46 
 
>  <homo_energy> 
-4.795 
 
>  <homo_lumo_gap> 
4.61 
 
>  <logP> 
2.751 
 
>  <lumo_energy> 
-0.185 
 
>  <melting_point> 
251.75 
 
>  <molecular_refractivity> 
60.25 
 
>  <oscillator_strength_1> 
0.0925 
 
>  <oscillator_strength_2> 
0.1247 
 
>  <oscillator_strength_3> 
0.0106 
 
>  <oscillator_strength_4> 
0.0581 
 
>  <open_babel_can_smiles> 
C/C(=N\c1c[nH]c2c1cccc2N)/NO 
 
>  <mulliken_charges> 
27 
1   -0.521574 
2   -0.144149 
3   -0.206468 
4   -0.204481 
5   0.017756 
6   0.491706 
7   0.128627 
8   0.268132 
9   0.17395 
10   0.253831 
11   -0.804116 
12   -0.7062 
13   -0.620699 
14   -0.328177 
15   -0.537624 
16   0.187638 
17   0.184827 
18   0.155122 
19   0.118221 
20   0.124953 
21   0.107489 
22   0.142954 
23   0.317818 
24   0.312743 
25   0.330123 
26   0.332311 
27   0.425287 
 
>  <lowdin_charges> 
27 
1   -0.460545 
2   -0.167152 
3   -0.176643 
4   -0.206834 
5   -0.167243 
6   0.086231 
7   -0.030186 
8   0.026601 
9   -0.007112 
10   0.006707 
11   -0.505617 
12   -0.208335 
13   -0.219452 
14   -0.158221 
15   -0.410528 
16   0.178439 
17   0.174308 
18   0.162091 
19   0.153956 
20   0.159927 
21   0.147844 
22   0.164047 
23   0.26968 
24   0.269689 
25   0.290868 
26   0.281164 
27   0.346315 
 
$$$$ 
 
