PCCDB-ID:  11324 
public computational chemistry database (PCCDB) project, http://pccdb.org 
 
 26 27  0  0  0  0  0  0  0  0999 V2000 
    0.0519    1.8804   -3.4272 C   0  0  0  0  0  0  0  0  0  0  0  0 
    5.5765    3.7086    1.2150 C   0  0  0  0  0  0  0  0  0  0  0  0 
   -0.4474    1.0697   -2.4038 C   0  0  0  0  0  0  0  0  0  0  0  0 
    1.3414    2.4025   -3.3238 C   0  0  0  0  0  0  0  0  0  0  0  0 
    5.8754    2.3569    1.0305 C   0  0  0  0  0  0  0  0  0  0  0  0 
    4.2737    4.1637    1.0057 C   0  0  0  0  0  0  0  0  0  0  0  0 
    0.3343    0.7853   -1.2879 C   0  0  0  0  0  0  0  0  0  0  0  0 
    2.1271    2.1196   -2.2063 C   0  0  0  0  0  0  0  0  0  0  0  0 
    4.8777    1.4620    0.6478 C   0  0  0  0  0  0  0  0  0  0  0  0 
    3.2778    3.2726    0.6070 C   0  0  0  0  0  0  0  0  0  0  0  0 
    1.6360    1.3048   -1.1733 C   0  0  0  0  0  0  0  0  0  0  0  0 
    3.5659    1.9104    0.4292 C   0  0  0  0  0  0  0  0  0  0  0  0 
    2.4839    0.9729    0.0060 C   0  0  0  0  0  0  0  0  0  0  0  0 
    2.1956   -0.1414    0.5918 N   0  0  0  0  0  0  0  0  0  0  0  0 
    2.9785   -0.3905    1.7289 O   0  0  0  0  0  0  0  0  0  0  0  0 
   -0.5619    2.1063   -4.2951 H   0  0  0  0  0  0  0  0  0  0  0  0 
    6.3552    4.4031    1.5190 H   0  0  0  0  0  0  0  0  0  0  0  0 
   -1.4535    0.6644   -2.4722 H   0  0  0  0  0  0  0  0  0  0  0  0 
    1.7411    3.0309   -4.1153 H   0  0  0  0  0  0  0  0  0  0  0  0 
    6.8883    1.9965    1.1889 H   0  0  0  0  0  0  0  0  0  0  0  0 
    4.0320    5.2136    1.1474 H   0  0  0  0  0  0  0  0  0  0  0  0 
   -0.0517    0.1609   -0.4895 H   0  0  0  0  0  0  0  0  0  0  0  0 
    3.1317    2.5245   -2.1390 H   0  0  0  0  0  0  0  0  0  0  0  0 
    5.1101    0.4109    0.5180 H   0  0  0  0  0  0  0  0  0  0  0  0 
    2.2668    3.6311    0.4363 H   0  0  0  0  0  0  0  0  0  0  0  0 
    2.6239   -1.2428    2.0273 H   0  0  0  0  0  0  0  0  0  0  0  0 
  1  4  2  0  0  0  0 
  1  3  1  0  0  0  0 
  2 17  1  0  0  0  0 
  3  7  2  0  0  0  0 
  4  8  1  0  0  0  0 
  5 20  1  0  0  0  0 
  5  2  1  0  0  0  0 
  6 21  1  0  0  0  0 
  6  2  2  0  0  0  0 
  7 11  1  0  0  0  0 
  7 22  1  0  0  0  0 
  8 23  1  0  0  0  0 
  8 11  2  0  0  0  0 
  9  5  2  0  0  0  0 
 10  6  1  0  0  0  0 
 11 13  1  0  0  0  0 
 12 10  2  0  0  0  0 
 12  9  1  0  0  0  0 
 13 12  1  0  0  0  0 
 13 14  2  0  0  0  0 
 14 15  1  0  0  0  0 
 15 26  1  0  0  0  0 
 16  1  1  0  0  0  0 
 18  3  1  0  0  0  0 
 19  4  1  0  0  0  0 
 24  9  1  0  0  0  0 
 25 10  1  0  0  0  0 
M  END 
>  <HBA> 
2 
 
>  <HBD> 
1 
 
>  <TPSA> 
32.59 
 
>  <cid> 
11324 
 
>  <dipole> 
0.45 
 
>  <excitation_energy_1> 
4.526 
 
>  <excitation_energy_2> 
4.75 
 
>  <excitation_energy_3> 
4.827 
 
>  <excitation_energy_4> 
4.935 
 
>  <homo_energy> 
-5.962 
 
>  <homo_lumo_gap> 
4.901 
 
>  <logP> 
2.913 
 
>  <lumo_energy> 
-1.061 
 
>  <melting_point> 
109.31 
 
>  <molecular_refractivity> 
60.31 
 
>  <oscillator_strength_1> 
0.1319 
 
>  <oscillator_strength_2> 
0.003 
 
>  <oscillator_strength_3> 
0.0044 
 
>  <oscillator_strength_4> 
0.0154 
 
>  <open_babel_can_smiles> 
ON=C(c1ccccc1)c1ccccc1 
 
>  <mulliken_charges> 
26 
1   -0.124645 
2   -0.122606 
3   -0.134357 
4   -0.134277 
5   -0.13916 
6   -0.135325 
7   -0.16024 
8   -0.184041 
9   -0.135525 
10   -0.160961 
11   0.113935 
12   0.094977 
13   0.175473 
14   -0.24108 
15   -0.49888 
16   0.130266 
17   0.131678 
18   0.131143 
19   0.131132 
20   0.132272 
21   0.132651 
22   0.147735 
23   0.144198 
24   0.14523 
25   0.142837 
26   0.41757 
 
>  <lowdin_charges> 
26 
1   -0.154215 
2   -0.152587 
3   -0.155244 
4   -0.158317 
5   -0.156338 
6   -0.15644 
7   -0.146802 
8   -0.157291 
9   -0.138013 
10   -0.149768 
11   -0.011986 
12   -0.019152 
13   0.020773 
14   -0.067767 
15   -0.368776 
16   0.158703 
17   0.15996 
18   0.157501 
19   0.159385 
20   0.158354 
21   0.157813 
22   0.169688 
23   0.165128 
24   0.165975 
25   0.163943 
26   0.355473 
 
$$$$ 
 
