PCCDB-ID:  51009 
public computational chemistry database (PCCDB) project, http://pccdb.org 
 
 30 30  0  0  1  0  0  0  0  0999 V2000 
    4.9210   -0.7192   -0.3598 C   0  0  0  0  0  0  0  0  0  0  0  0 
    3.3694    1.0025   -9.1628 C   0  0  0  0  0  0  0  0  0  0  0  0 
    2.9639    2.1353   -5.7206 C   0  0  0  0  0  0  0  0  0  0  0  0 
    3.5943   -0.0473   -6.5365 C   0  0  0  0  0  0  0  0  0  0  0  0 
    3.0595    1.6837   -4.4059 C   0  0  0  0  0  0  0  0  0  0  0  0 
    3.6899   -0.4990   -5.2211 C   0  0  0  0  0  0  0  0  0  0  0  0 
    3.2832    0.6346   -1.7595 C   0  0  0  0  0  0  0  0  0  0  0  0 
    3.4764   -0.2143   -0.5051 C   0  0  1  0  0  0  0  0  0  0  0  0 
    3.2287    1.2801   -6.7947 C   0  0  0  0  0  0  0  0  0  0  0  0 
    3.4256    0.3560   -4.1474 C   0  0  0  0  0  0  0  0  0  0  0  0 
    2.4945   -2.0437    0.6859 N   0  0  0  0  0  0  0  0  0  0  0  0 
    2.4528   -1.2660   -0.5161 N   0  0  0  0  0  0  0  0  0  0  0  0 
    3.1039    1.8293   -8.0445 O   0  0  0  0  0  0  0  0  0  0  0  0 
    3.5536   -0.1880   -2.8953 O   0  0  0  0  0  0  0  0  0  0  0  0 
    5.6270    0.1178   -0.2962 H   0  0  0  0  0  0  0  0  0  0  0  0 
    5.2087   -1.3369   -1.2178 H   0  0  0  0  0  0  0  0  0  0  0  0 
    5.0212   -1.3100    0.5561 H   0  0  0  0  0  0  0  0  0  0  0  0 
    3.2185    1.6297  -10.0437 H   0  0  0  0  0  0  0  0  0  0  0  0 
    2.6823    0.1462   -9.2084 H   0  0  0  0  0  0  0  0  0  0  0  0 
    4.4035    0.6309   -9.1577 H   0  0  0  0  0  0  0  0  0  0  0  0 
    2.6808    3.1618   -5.9322 H   0  0  0  0  0  0  0  0  0  0  0  0 
    3.8064   -0.7366   -7.3460 H   0  0  0  0  0  0  0  0  0  0  0  0 
    2.8466    2.3718   -3.5961 H   0  0  0  0  0  0  0  0  0  0  0  0 
    3.9741   -1.5256   -5.0107 H   0  0  0  0  0  0  0  0  0  0  0  0 
    3.9690    1.4941   -1.7465 H   0  0  0  0  0  0  0  0  0  0  0  0 
    2.2499    1.0029   -1.8018 H   0  0  0  0  0  0  0  0  0  0  0  0 
    3.2413    0.4281    0.3529 H   0  0  0  0  0  0  0  0  0  0  0  0 
    3.0946   -2.8649    0.5825 H   0  0  0  0  0  0  0  0  0  0  0  0 
    1.5500   -2.3831    0.8519 H   0  0  0  0  0  0  0  0  0  0  0  0 
    2.5957   -1.8455   -1.3449 H   0  0  0  0  0  0  0  0  0  0  0  0 
  1 15  1  0  0  0  0 
  1 17  1  0  0  0  0 
  2 20  1  0  0  0  0 
  2 13  1  0  0  0  0 
  3  5  2  0  0  0  0 
  4  6  1  0  0  0  0 
  5 10  1  0  0  0  0 
  5 23  1  0  0  0  0 
  6 24  1  0  0  0  0 
  6 10  2  0  0  0  0 
  7 25  1  0  0  0  0 
  7  8  1  0  0  0  0 
  8  1  1  0  0  0  0 
  8 27  1  1  0  0  0 
  9  4  2  0  0  0  0 
  9  3  1  0  0  0  0 
 10 14  1  0  0  0  0 
 11 29  1  0  0  0  0 
 12  8  1  0  0  0  0 
 12 11  1  0  0  0  0 
 13  9  1  0  0  0  0 
 14  7  1  0  0  0  0 
 16  1  1  0  0  0  0 
 18  2  1  0  0  0  0 
 19  2  1  0  0  0  0 
 21  3  1  0  0  0  0 
 22  4  1  0  0  0  0 
 26  7  1  0  0  0  0 
 28 11  1  0  0  0  0 
 30 12  1  0  0  0  0 
M  END 
>  <HBA> 
4 
 
>  <HBD> 
2 
 
>  <TPSA> 
56.51 
 
>  <cid> 
51009 
 
>  <dipole> 
1.96 
 
>  <excitation_energy_1> 
4.603 
 
>  <excitation_energy_2> 
4.981 
 
>  <excitation_energy_3> 
5.24 
 
>  <excitation_energy_4> 
5.253 
 
>  <homo_energy> 
-5.306 
 
>  <homo_lumo_gap> 
5.342 
 
>  <logP> 
2.017 
 
>  <lumo_energy> 
0.035 
 
>  <melting_point> 
94.63 
 
>  <molecular_refractivity> 
54.55 
 
>  <oscillator_strength_1> 
0.0592 
 
>  <oscillator_strength_2> 
0.0005 
 
>  <oscillator_strength_3> 
0.0072 
 
>  <oscillator_strength_4> 
0.0002 
 
>  <open_babel_can_smiles> 
NN[C@H](COc1ccc(cc1)OC)C 
 
>  <mulliken_charges> 
30 
1   -0.467353 
2   -0.212104 
3   -0.183381 
4   -0.196433 
5   -0.194389 
6   -0.187709 
7   -0.039053 
8   0.052347 
9   0.372901 
10   0.382582 
11   -0.590711 
12   -0.46801 
13   -0.51216 
14   -0.543587 
15   0.139781 
16   0.150655 
17   0.15634 
18   0.167156 
19   0.148208 
20   0.148187 
21   0.138152 
22   0.131029 
23   0.13712 
24   0.131406 
25   0.135848 
26   0.151183 
27   0.145474 
28   0.290765 
29   0.315222 
30   0.300533 
 
>  <lowdin_charges> 
30 
1   -0.468523 
2   -0.277551 
3   -0.17172 
4   -0.204088 
5   -0.20139 
6   -0.17484 
7   -0.1315 
8   -0.070886 
9   0.086344 
10   0.087868 
11   -0.486594 
12   -0.312034 
13   -0.206176 
14   -0.216031 
15   0.15155 
16   0.151986 
17   0.156055 
18   0.161781 
19   0.142959 
20   0.141506 
21   0.165538 
22   0.163464 
23   0.165479 
24   0.162152 
25   0.139641 
26   0.145926 
27   0.152812 
28   0.241558 
29   0.25946 
30   0.245256 
 
$$$$ 
 
