PCCDB-ID:  20320 
public computational chemistry database (PCCDB) project, http://pccdb.org 
 
 14 14  0  0  1  0  0  0  0  0999 V2000 
    0.8028    1.1385    0.0491 C   0  0  0  0  0  0  0  0  0  0  0  0 
   -0.5067    1.3698   -0.1196 C   0  0  0  0  0  0  0  0  0  0  0  0 
    0.3649   -1.3442    0.0505 C   0  0  0  0  0  0  0  0  0  0  0  0 
   -0.9448   -1.1138   -0.1180 C   0  0  0  0  0  0  0  0  0  0  0  0 
    1.3937   -0.2457    0.1039 C   0  0  2  0  0  0  0  0  0  0  0  0 
   -1.4850    0.2619   -0.2457 C   0  0  0  0  0  0  0  0  0  0  0  0 
    2.2668   -0.3991    1.2307 O   0  0  0  0  0  0  0  0  0  0  0  0 
   -2.6795    0.4725   -0.4248 O   0  0  0  0  0  0  0  0  0  0  0  0 
    1.5139    1.9550    0.1574 H   0  0  0  0  0  0  0  0  0  0  0  0 
   -0.9183    2.3745   -0.1633 H   0  0  0  0  0  0  0  0  0  0  0  0 
    0.7538   -2.3546    0.1598 H   0  0  0  0  0  0  0  0  0  0  0  0 
   -1.6753   -1.9171   -0.1606 H   0  0  0  0  0  0  0  0  0  0  0  0 
    2.0653   -0.3645   -0.7605 H   0  0  0  0  0  0  0  0  0  0  0  0 
    1.7190   -0.3016    2.0272 H   0  0  0  0  0  0  0  0  0  0  0  0 
  1  5  1  0  0  0  0 
  1  9  1  0  0  0  0 
  2  1  2  0  0  0  0 
  3  5  1  0  0  0  0 
  3 11  1  0  0  0  0 
  4  3  2  0  0  0  0 
  5 13  1  6  0  0  0 
  5  7  1  0  0  0  0 
  6  2  1  0  0  0  0 
  6  4  1  0  0  0  0 
  7 14  1  0  0  0  0 
  8  6  2  0  0  0  0 
 10  2  1  0  0  0  0 
 12  4  1  0  0  0  0 
M  END 
>  <HBA> 
2 
 
>  <HBD> 
1 
 
>  <TPSA> 
37.3 
 
>  <cid> 
20320 
 
>  <dipole> 
2.33 
 
>  <excitation_energy_1> 
3.245 
 
>  <excitation_energy_2> 
4.48 
 
>  <excitation_energy_3> 
5.343 
 
>  <excitation_energy_4> 
5.38 
 
>  <homo_energy> 
-6.806 
 
>  <homo_lumo_gap> 
4.705 
 
>  <logP> 
0.042 
 
>  <lumo_energy> 
-2.101 
 
>  <melting_point> 
55.6 
 
>  <molecular_refractivity> 
29.26 
 
>  <oscillator_strength_1> 
0.0 
 
>  <oscillator_strength_2> 
0.0036 
 
>  <oscillator_strength_3> 
0.026 
 
>  <oscillator_strength_4> 
0.1653 
 
>  <open_babel_can_smiles> 
O[C@@H]1C=CC(=O)C=C1 
 
>  <mulliken_charges> 
14 
1   -0.14183 
2   -0.153013 
3   -0.141883 
4   -0.152944 
5   0.062012 
6   0.42215 
7   -0.61016 
8   -0.481468 
9   0.158898 
10   0.154368 
11   0.158908 
12   0.154365 
13   0.176346 
14   0.39425 
 
>  <lowdin_charges> 
14 
1   -0.147322 
2   -0.181287 
3   -0.145812 
4   -0.183088 
5   -0.002291 
6   0.140207 
7   -0.449032 
8   -0.239486 
9   0.171017 
10   0.17371 
11   0.169477 
12   0.17516 
13   0.171519 
14   0.347227 
 
$$$$ 
 
