PCCDB-ID:  20278 
public computational chemistry database (PCCDB) project, http://pccdb.org 
 
 25 26  0  0  0  0  0  0  0  0999 V2000 
   -1.4557    0.3100    0.3976 C   0  0  0  0  0  0  0  0  0  0  0  0 
   -0.7007    1.4580    0.6457 C   0  0  0  0  0  0  0  0  0  0  0  0 
   -0.8099   -0.8725    0.0346 C   0  0  0  0  0  0  0  0  0  0  0  0 
    0.6881    1.4272    0.5333 C   0  0  0  0  0  0  0  0  0  0  0  0 
    0.5790   -0.9042   -0.0811 C   0  0  0  0  0  0  0  0  0  0  0  0 
    5.6405    0.0151   -0.3831 C   0  0  0  0  0  0  0  0  0  0  0  0 
    5.1175    0.6845    0.7139 C   0  0  0  0  0  0  0  0  0  0  0  0 
    3.3733   -0.4790   -1.1105 C   0  0  0  0  0  0  0  0  0  0  0  0 
    1.3501    0.2442    0.1644 C   0  0  0  0  0  0  0  0  0  0  0  0 
    4.7531   -0.5632   -1.2877 C   0  0  0  0  0  0  0  0  0  0  0  0 
    2.8265    0.1904   -0.0122 C   0  0  0  0  0  0  0  0  0  0  0  0 
    3.7316    0.7764    0.9064 C   0  0  0  0  0  0  0  0  0  0  0  0 
    5.2823   -1.2692   -2.4550 N   0  0  0  0  0  0  0  0  0  0  0  0 
    3.2167    1.4167    1.9903 O   0  0  0  0  0  0  0  0  0  0  0  0 
    6.5070   -1.3180   -2.5886 O   0  0  0  0  0  0  0  0  0  0  0  0 
    4.4759   -1.7760   -3.2368 O   0  0  0  0  0  0  0  0  0  0  0  0 
   -2.5381    0.3368    0.4887 H   0  0  0  0  0  0  0  0  0  0  0  0 
   -1.1949    2.3847    0.9249 H   0  0  0  0  0  0  0  0  0  0  0  0 
   -1.3857   -1.7745   -0.1545 H   0  0  0  0  0  0  0  0  0  0  0  0 
    1.2630    2.3261    0.7252 H   0  0  0  0  0  0  0  0  0  0  0  0 
    1.0748   -1.8337   -0.3472 H   0  0  0  0  0  0  0  0  0  0  0  0 
    6.7077   -0.0636   -0.5471 H   0  0  0  0  0  0  0  0  0  0  0  0 
    5.7881    1.1395    1.4402 H   0  0  0  0  0  0  0  0  0  0  0  0 
    2.7240   -0.9285   -1.8513 H   0  0  0  0  0  0  0  0  0  0  0  0 
    3.9445    1.7357    2.5476 H   0  0  0  0  0  0  0  0  0  0  0  0 
  1 17  1  0  0  0  0 
  1  2  2  0  0  0  0 
  2 18  1  0  0  0  0 
  3  1  1  0  0  0  0 
  4  2  1  0  0  0  0 
  4 20  1  0  0  0  0 
  5  3  2  0  0  0  0 
  5  9  1  0  0  0  0 
  6  7  2  0  0  0  0 
  7 12  1  0  0  0  0 
  7 23  1  0  0  0  0 
  8 11  1  0  0  0  0 
  9  4  2  0  0  0  0 
 10  8  2  0  0  0  0 
 10  6  1  0  0  0  0 
 11  9  1  0  0  0  0 
 11 12  2  0  0  0  0 
 12 14  1  0  0  0  0 
 13 10  1  0  0  0  0 
 14 25  1  0  0  0  0 
 15 13  2  0  0  0  0 
 16 13  2  0  0  0  0 
 19  3  1  0  0  0  0 
 21  5  1  0  0  0  0 
 22  6  1  0  0  0  0 
 24  8  1  0  0  0  0 
M  END 
>  <HBA> 
1 
 
>  <HBD> 
1 
 
>  <TPSA> 
66.05 
 
>  <cid> 
20278 
 
>  <dipole> 
5.51 
 
>  <excitation_energy_1> 
3.538 
 
>  <excitation_energy_2> 
3.775 
 
>  <excitation_energy_3> 
4.034 
 
>  <excitation_energy_4> 
4.27 
 
>  <homo_energy> 
-6.395 
 
>  <homo_lumo_gap> 
4.199 
 
>  <logP> 
3.491 
 
>  <lumo_energy> 
-2.196 
 
>  <melting_point> 
121.36 
 
>  <molecular_refractivity> 
62.72 
 
>  <oscillator_strength_1> 
0.037 
 
>  <oscillator_strength_2> 
0.0005 
 
>  <oscillator_strength_3> 
0.0001 
 
>  <oscillator_strength_4> 
0.1666 
 
>  <open_babel_can_smiles> 
Oc1ccc(cc1c1ccccc1)N(=O)=O 
 
>  <mulliken_charges> 
25 
1   -0.123641 
2   -0.136877 
3   -0.135105 
4   -0.147812 
5   -0.167951 
6   -0.1548 
7   -0.203431 
8   -0.222293 
9   0.097961 
10   0.280461 
11   0.043496 
12   0.324136 
13   0.372806 
14   -0.627107 
15   -0.403468 
16   -0.401803 
17   0.133175 
18   0.132837 
19   0.135166 
20   0.140209 
21   0.138499 
22   0.184426 
23   0.136915 
24   0.187341 
25   0.416857 
 
>  <lowdin_charges> 
25 
1   -0.149667 
2   -0.155315 
3   -0.154888 
4   -0.149565 
5   -0.158665 
6   -0.126131 
7   -0.207028 
8   -0.133329 
9   -0.002553 
10   -0.018177 
11   -0.024449 
12   0.118808 
13   0.308972 
14   -0.3533 
15   -0.254075 
16   -0.254425 
17   0.157669 
18   0.159715 
19   0.161103 
20   0.164953 
21   0.162225 
22   0.187727 
23   0.163581 
24   0.192001 
25   0.364813 
 
$$$$ 
 
