PCCDB-ID:  43093 
public computational chemistry database (PCCDB) project, http://pccdb.org 
 
 33 33  0  0  0  0  0  0  0  0999 V2000 
    2.6329    3.6138   -0.6332 C   0  0  0  0  0  0  0  0  0  0  0  0 
    1.0707    2.1016    0.6991 C   0  0  0  0  0  0  0  0  0  0  0  0 
   11.2358   -3.4670    0.4470 C   0  0  0  0  0  0  0  0  0  0  0  0 
    6.5630   -2.5369   -1.1186 C   0  0  0  0  0  0  0  0  0  0  0  0 
    6.4367   -0.2258   -0.1094 C   0  0  0  0  0  0  0  0  0  0  0  0 
    7.3189   -3.6428   -1.4872 C   0  0  0  0  0  0  0  0  0  0  0  0 
    5.1185    0.0205   -0.2367 C   0  0  0  0  0  0  0  0  0  0  0  0 
    8.5595   -1.4705   -0.2947 C   0  0  0  0  0  0  0  0  0  0  0  0 
    2.5073    2.5346    0.4386 C   0  0  0  0  0  0  0  0  0  0  0  0 
    7.1705   -1.4200   -0.5178 C   0  0  0  0  0  0  0  0  0  0  0  0 
    8.7018   -3.6719   -1.2733 C   0  0  0  0  0  0  0  0  0  0  0  0 
    9.3294   -2.5699   -0.6586 C   0  0  0  0  0  0  0  0  0  0  0  0 
    4.5530    1.2965    0.2413 C   0  0  0  0  0  0  0  0  0  0  0  0 
    9.4837   -4.7278   -1.6457 O   0  0  0  0  0  0  0  0  0  0  0  0 
    5.1784    2.1968    0.7742 O   0  0  0  0  0  0  0  0  0  0  0  0 
   10.6873   -2.5174   -0.4723 O   0  0  0  0  0  0  0  0  0  0  0  0 
    3.2156    1.3386    0.0106 O   0  0  0  0  0  0  0  0  0  0  0  0 
    2.0852    4.5134   -0.3298 H   0  0  0  0  0  0  0  0  0  0  0  0 
    2.2185    3.2620   -1.5848 H   0  0  0  0  0  0  0  0  0  0  0  0 
    3.6817    3.8846   -0.7813 H   0  0  0  0  0  0  0  0  0  0  0  0 
    0.4792    2.9529    1.0532 H   0  0  0  0  0  0  0  0  0  0  0  0 
    1.0334    1.3146    1.4589 H   0  0  0  0  0  0  0  0  0  0  0  0 
    0.6076    1.7181   -0.2170 H   0  0  0  0  0  0  0  0  0  0  0  0 
   12.3010   -3.2356    0.5141 H   0  0  0  0  0  0  0  0  0  0  0  0 
   11.1049   -4.4937    0.0924 H   0  0  0  0  0  0  0  0  0  0  0  0 
   10.7777   -3.3574    1.4389 H   0  0  0  0  0  0  0  0  0  0  0  0 
    5.4937   -2.5443   -1.3044 H   0  0  0  0  0  0  0  0  0  0  0  0 
    7.0295    0.5617    0.3542 H   0  0  0  0  0  0  0  0  0  0  0  0 
    6.8373   -4.4974   -1.9601 H   0  0  0  0  0  0  0  0  0  0  0  0 
    4.4225   -0.6823   -0.6836 H   0  0  0  0  0  0  0  0  0  0  0  0 
    9.0711   -0.6309    0.1671 H   0  0  0  0  0  0  0  0  0  0  0  0 
    2.9792    2.8818    1.3626 H   0  0  0  0  0  0  0  0  0  0  0  0 
    8.9240   -5.3974   -2.0694 H   0  0  0  0  0  0  0  0  0  0  0  0 
  1 18  1  0  0  0  0 
  1  9  1  0  0  0  0 
  2 21  1  0  0  0  0 
  2 22  1  0  0  0  0 
  3 24  1  0  0  0  0 
  3 26  1  0  0  0  0 
  4 10  2  0  0  0  0 
  5 28  1  0  0  0  0 
  6 11  2  0  0  0  0 
  6  4  1  0  0  0  0 
  7  5  2  0  0  0  0 
  7 13  1  0  0  0  0 
  8 31  1  0  0  0  0 
  9  2  1  0  0  0  0 
  9 32  1  0  0  0  0 
 10  8  1  0  0  0  0 
 10  5  1  0  0  0  0 
 11 12  1  0  0  0  0 
 12 16  1  0  0  0  0 
 12  8  2  0  0  0  0 
 13 15  2  0  0  0  0 
 14 11  1  0  0  0  0 
 16  3  1  0  0  0  0 
 17 13  1  0  0  0  0 
 17  9  1  0  0  0  0 
 19  1  1  0  0  0  0 
 20  1  1  0  0  0  0 
 23  2  1  0  0  0  0 
 25  3  1  0  0  0  0 
 27  4  1  0  0  0  0 
 29  6  1  0  0  0  0 
 30  7  1  0  0  0  0 
 33 14  1  0  0  0  0 
M  END 
>  <HBA> 
4 
 
>  <HBD> 
1 
 
>  <TPSA> 
55.76 
 
>  <cid> 
43093 
 
>  <dipole> 
4.05 
 
>  <excitation_energy_1> 
4.026 
 
>  <excitation_energy_2> 
4.394 
 
>  <excitation_energy_3> 
4.46 
 
>  <excitation_energy_4> 
4.935 
 
>  <homo_energy> 
-5.818 
 
>  <homo_lumo_gap> 
4.308 
 
>  <logP> 
2.366 
 
>  <lumo_energy> 
-1.51 
 
>  <melting_point> 
83.71 
 
>  <molecular_refractivity> 
65.56 
 
>  <oscillator_strength_1> 
0.5519 
 
>  <oscillator_strength_2> 
0.0985 
 
>  <oscillator_strength_3> 
0.0003 
 
>  <oscillator_strength_4> 
0.0016 
 
>  <open_babel_can_smiles> 
COc1cc(/C=C/C(=O)OC(C)C)ccc1O 
 
>  <mulliken_charges> 
33 
1   -0.45831 
2   -0.451394 
3   -0.216517 
4   -0.177163 
5   -0.148251 
6   -0.200307 
7   -0.218803 
8   -0.249069 
9   0.134699 
10   0.168597 
11   0.321367 
12   0.335479 
13   0.630378 
14   -0.634611 
15   -0.508714 
16   -0.520154 
17   -0.496442 
18   0.144438 
19   0.148057 
20   0.174915 
21   0.146944 
22   0.155927 
23   0.15247 
24   0.162721 
25   0.168526 
26   0.142022 
27   0.136587 
28   0.166884 
29   0.126312 
30   0.14212 
31   0.147848 
32   0.160077 
33   0.41337 
 
>  <lowdin_charges> 
33 
1   -0.453761 
2   -0.449563 
3   -0.2725 
4   -0.143772 
5   -0.102265 
6   -0.20481 
7   -0.214533 
8   -0.161849 
9   0.01095 
10   -0.021453 
11   0.084911 
12   0.068406 
13   0.198226 
14   -0.36637 
15   -0.290187 
16   -0.22082 
17   -0.202041 
18   0.155514 
19   0.152248 
20   0.165608 
21   0.156332 
22   0.158296 
23   0.1549 
24   0.156696 
25   0.151219 
26   0.139585 
27   0.161145 
28   0.176696 
29   0.157447 
30   0.165247 
31   0.173002 
32   0.154017 
33   0.363481 
 
$$$$ 
 
