PCCDB-ID:  27689 
public computational chemistry database (PCCDB) project, http://pccdb.org 
 
 33 33  0  0  1  0  0  0  0  0999 V2000 
    2.7838   -3.4423    3.7792 C   0  0  0  0  0  0  0  0  0  0  0  0 
    5.0140   -0.9679   -0.1230 C   0  0  0  0  0  0  0  0  0  0  0  0 
    3.6123   -2.5634    2.8386 C   0  0  0  0  0  0  0  0  0  0  0  0 
    7.1155   -5.4065   -4.9417 C   0  0  0  0  0  0  0  0  0  0  0  0 
    6.2472   -6.4225   -4.5346 C   0  0  0  0  0  0  0  0  0  0  0  0 
    6.8086   -4.0803   -4.6342 C   0  0  0  0  0  0  0  0  0  0  0  0 
    5.0871   -6.1150   -3.8284 C   0  0  0  0  0  0  0  0  0  0  0  0 
    5.6550   -3.7651   -3.9156 C   0  0  0  0  0  0  0  0  0  0  0  0 
    4.2609   -2.2935   -0.0723 C   0  0  2  0  0  0  0  0  0  0  0  0 
    4.7833   -4.7848   -3.4944 C   0  0  0  0  0  0  0  0  0  0  0  0 
    4.8812   -3.2634    0.9424 C   0  0  0  0  0  0  0  0  0  0  0  0 
    3.4230   -3.7148   -1.8784 C   0  0  0  0  0  0  0  0  0  0  0  0 
    4.6268   -3.3639    2.1773 N   0  0  0  0  0  0  0  0  0  0  0  0 
    3.5705   -4.5583   -2.8137 N   0  0  0  0  0  0  0  0  0  0  0  0 
    5.8712   -4.0403    0.4267 O   0  0  0  0  0  0  0  0  0  0  0  0 
    2.2313   -3.5666   -1.2601 O   0  0  0  0  0  0  0  0  0  0  0  0 
    4.3757   -2.8783   -1.4055 O   0  0  0  0  0  0  0  0  0  0  0  0 
    2.0609   -2.8381    4.3393 H   0  0  0  0  0  0  0  0  0  0  0  0 
    3.4378   -3.9588    4.4884 H   0  0  0  0  0  0  0  0  0  0  0  0 
    2.2339   -4.2022    3.2135 H   0  0  0  0  0  0  0  0  0  0  0  0 
    4.9505   -0.4693    0.8489 H   0  0  0  0  0  0  0  0  0  0  0  0 
    4.5789   -0.3138   -0.8846 H   0  0  0  0  0  0  0  0  0  0  0  0 
    6.0704   -1.1320   -0.3571 H   0  0  0  0  0  0  0  0  0  0  0  0 
    4.1250   -1.7927    3.4326 H   0  0  0  0  0  0  0  0  0  0  0  0 
    2.9341   -2.0265    2.1541 H   0  0  0  0  0  0  0  0  0  0  0  0 
    8.0172   -5.6456   -5.4984 H   0  0  0  0  0  0  0  0  0  0  0  0 
    6.4704   -7.4589   -4.7739 H   0  0  0  0  0  0  0  0  0  0  0  0 
    7.4703   -3.2802   -4.9564 H   0  0  0  0  0  0  0  0  0  0  0  0 
    4.3988   -6.8953   -3.5179 H   0  0  0  0  0  0  0  0  0  0  0  0 
    5.4198   -2.7303   -3.6915 H   0  0  0  0  0  0  0  0  0  0  0  0 
    3.2077   -2.1329    0.1474 H   0  0  0  0  0  0  0  0  0  0  0  0 
    5.8739   -3.9308   -0.5412 H   0  0  0  0  0  0  0  0  0  0  0  0 
    1.6457   -4.2263   -1.6727 H   0  0  0  0  0  0  0  0  0  0  0  0 
  1 18  1  0  0  0  0 
  1 19  1  0  0  0  0 
  2  9  1  0  0  0  0 
  2 21  1  0  0  0  0 
  3 24  1  0  0  0  0 
  3  1  1  0  0  0  0 
  4  6  2  0  0  0  0 
  4  5  1  0  0  0  0 
  5  7  2  0  0  0  0 
  6  8  1  0  0  0  0 
  7 29  1  0  0  0  0 
  7 10  1  0  0  0  0 
  8 30  1  0  0  0  0 
  8 10  2  0  0  0  0 
  9 31  1  1  0  0  0 
  9 11  1  0  0  0  0 
 10 14  1  0  0  0  0 
 11 13  2  0  0  0  0 
 12 17  1  0  0  0  0 
 12 16  1  0  0  0  0 
 13  3  1  0  0  0  0 
 14 12  2  0  0  0  0 
 15 11  1  0  0  0  0 
 17  9  1  0  0  0  0 
 20  1  1  0  0  0  0 
 22  2  1  0  0  0  0 
 23  2  1  0  0  0  0 
 25  3  1  0  0  0  0 
 26  4  1  0  0  0  0 
 27  5  1  0  0  0  0 
 28  6  1  0  0  0  0 
 32 15  1  0  0  0  0 
 33 16  1  0  0  0  0 
M  END 
>  <HBA> 
5 
 
>  <HBD> 
2 
 
>  <TPSA> 
67.43 
 
>  <cid> 
27689 
 
>  <dipole> 
3.18 
 
>  <excitation_energy_1> 
4.967 
 
>  <excitation_energy_2> 
5.075 
 
>  <excitation_energy_3> 
5.229 
 
>  <excitation_energy_4> 
5.397 
 
>  <homo_energy> 
-5.981 
 
>  <homo_lumo_gap> 
5.652 
 
>  <logP> 
2.224 
 
>  <lumo_energy> 
-0.329 
 
>  <melting_point> 
105.89 
 
>  <molecular_refractivity> 
64.46 
 
>  <oscillator_strength_1> 
0.0305 
 
>  <oscillator_strength_2> 
0.3235 
 
>  <oscillator_strength_3> 
0.0042 
 
>  <oscillator_strength_4> 
0.0011 
 
>  <open_babel_can_smiles> 
CC/N=C(\[C@H](O/C(=N\c1ccccc1)/O)C)/O 
 
>  <mulliken_charges> 
33 
1   -0.430427 
2   -0.451119 
3   -0.149228 
4   -0.128039 
5   -0.135954 
6   -0.141972 
7   -0.148675 
8   -0.156516 
9   0.02092 
10   0.248485 
11   0.487474 
12   0.730027 
13   -0.411976 
14   -0.560009 
15   -0.594931 
16   -0.594124 
17   -0.514002 
18   0.135123 
19   0.163004 
20   0.148033 
21   0.172775 
22   0.16897 
23   0.170215 
24   0.147442 
25   0.114086 
26   0.127608 
27   0.130593 
28   0.128586 
29   0.132203 
30   0.134568 
31   0.197352 
32   0.42745 
33   0.43206 
 
>  <lowdin_charges> 
33 
1   -0.448799 
2   -0.441065 
3   -0.200203 
4   -0.166199 
5   -0.151567 
6   -0.156283 
7   -0.168185 
8   -0.185164 
9   -0.022021 
10   0.044737 
11   0.104239 
12   0.201047 
13   -0.196687 
14   -0.229036 
15   -0.360943 
16   -0.357542 
17   -0.200029 
18   0.148531 
19   0.160549 
20   0.152228 
21   0.169096 
22   0.165525 
23   0.163526 
24   0.147298 
25   0.121744 
26   0.157442 
27   0.157324 
28   0.158096 
29   0.164011 
30   0.159824 
31   0.17183 
32   0.357518 
33   0.379161 
 
$$$$ 
 
