PCCDB-ID:  9239 
public computational chemistry database (PCCDB) project, http://pccdb.org 
 
 20 22  0  0  1  0  0  0  0  0999 V2000 
   -0.7767    1.0161    1.2365 C   0  0  0  0  0  0  0  0  0  0  0  0 
   -0.9952    0.7385   -1.2762 C   0  0  0  0  0  0  0  0  0  0  0  0 
    1.2725    1.2189   -0.2453 C   0  0  0  0  0  0  0  0  0  0  0  0 
   -1.4828    0.2595    0.1003 C   0  0  1  0  0  0  0  0  0  0  0  0 
    0.7268    0.7271    1.1048 C   0  0  2  0  0  0  0  0  0  0  0  0 
    0.5138    0.4565   -1.3434 C   0  0  1  0  0  0  0  0  0  0  0  0 
    0.2268   -1.3491    0.1293 C   0  0  2  0  0  0  0  0  0  0  0  0 
   -1.1635   -1.1432    0.2279 O   0  0  0  0  0  0  0  0  0  0  0  0 
    0.9179   -0.7033    1.1729 O   0  0  0  0  0  0  0  0  0  0  0  0 
    0.7170   -0.9579   -1.1319 O   0  0  0  0  0  0  0  0  0  0  0  0 
   -1.1393    0.6513    2.2029 H   0  0  0  0  0  0  0  0  0  0  0  0 
   -0.9770    2.0933    1.1761 H   0  0  0  0  0  0  0  0  0  0  0  0 
   -1.2023    1.8069   -1.4169 H   0  0  0  0  0  0  0  0  0  0  0  0 
   -1.5102    0.1800   -2.0645 H   0  0  0  0  0  0  0  0  0  0  0  0 
    2.3422    0.9963   -0.3138 H   0  0  0  0  0  0  0  0  0  0  0  0 
    1.1362    2.3024   -0.3532 H   0  0  0  0  0  0  0  0  0  0  0  0 
   -2.5709    0.3208    0.1881 H   0  0  0  0  0  0  0  0  0  0  0  0 
    1.2935    1.1380    1.9448 H   0  0  0  0  0  0  0  0  0  0  0  0 
    0.9210    0.6651   -2.3364 H   0  0  0  0  0  0  0  0  0  0  0  0 
    0.4061   -2.4181    0.2318 H   0  0  0  0  0  0  0  0  0  0  0  0 
  1 11  1  0  0  0  0 
  2  4  1  0  0  0  0 
  3  5  1  0  0  0  0 
  4 17  1  1  0  0  0 
  4  8  1  0  0  0  0 
  4  1  1  0  0  0  0 
  5  9  1  0  0  0  0 
  5  1  1  0  0  0  0 
  5 18  1  1  0  0  0 
  6 19  1  6  0  0  0 
  6  2  1  0  0  0  0 
  6 10  1  0  0  0  0 
  6  3  1  0  0  0  0 
  7  8  1  0  0  0  0 
  7 20  1  1  0  0  0 
  7  9  1  0  0  0  0 
 10  7  1  0  0  0  0 
 12  1  1  0  0  0  0 
 13  2  1  0  0  0  0 
 14  2  1  0  0  0  0 
 15  3  1  0  0  0  0 
 16  3  1  0  0  0  0 
M  END 
>  <HBA> 
3 
 
>  <HBD> 
0 
 
>  <TPSA> 
27.69 
 
>  <cid> 
9239 
 
>  <dipole> 
3.16 
 
>  <excitation_energy_1> 
6.133 
 
>  <excitation_energy_2> 
6.565 
 
>  <excitation_energy_3> 
6.565 
 
>  <excitation_energy_4> 
6.903 
 
>  <homo_energy> 
-6.822 
 
>  <homo_lumo_gap> 
8.754 
 
>  <logP> 
0.637 
 
>  <lumo_energy> 
1.932 
 
>  <melting_point> 
13.66 
 
>  <molecular_refractivity> 
32.68 
 
>  <oscillator_strength_1> 
0.0 
 
>  <oscillator_strength_2> 
0.0016 
 
>  <oscillator_strength_3> 
0.0016 
 
>  <oscillator_strength_4> 
0.0 
 
>  <open_babel_can_smiles> 
C1[C@@H]2C[C@@H]3C[C@H]1O[C@H](O2)O3 
 
>  <mulliken_charges> 
20 
1   -0.268934 
2   -0.268975 
3   -0.268961 
4   0.083553 
5   0.083316 
6   0.083536 
7   0.5422 
8   -0.484377 
9   -0.484235 
10   -0.484222 
11   0.161306 
12   0.134662 
13   0.134649 
14   0.161298 
15   0.161319 
16   0.134651 
17   0.141756 
18   0.141852 
19   0.1418 
20   0.153807 
 
>  <lowdin_charges> 
20 
1   -0.30282 
2   -0.30434 
3   -0.301011 
4   0.001951 
5   -0.000747 
6   0.000565 
7   0.166545 
8   -0.265946 
9   -0.2651 
10   -0.265452 
11   0.160702 
12   0.147733 
13   0.147882 
14   0.162037 
15   0.159185 
16   0.147629 
17   0.149108 
18   0.152589 
19   0.150901 
20   0.158588 
 
$$$$ 
 
