PCCDB-ID:  11215 
public computational chemistry database (PCCDB) project, http://pccdb.org 
 
 26 25  0  0  0  0  0  0  0  0999 V2000 
    3.3364    0.7205    0.7886 C   0  0  0  0  0  0  0  0  0  0  0  0 
    5.5807   -1.6858   -0.7204 C   0  0  0  0  0  0  0  0  0  0  0  0 
    5.1713   -0.9160   -3.0717 C   0  0  0  0  0  0  0  0  0  0  0  0 
    2.6406   -2.1888   -1.7563 C   0  0  0  0  0  0  0  0  0  0  0  0 
    2.4889    0.2667   -2.2008 C   0  0  0  0  0  0  0  0  0  0  0  0 
    2.8613   -0.5876    0.1426 C   0  0  0  0  0  0  0  0  0  0  0  0 
    4.7579   -0.7265   -1.6002 C   0  0  0  0  0  0  0  0  0  0  0  0 
    3.2093   -0.8097   -1.3582 C   0  0  0  0  0  0  0  0  0  0  0  0 
    2.9794    0.7819    1.8233 H   0  0  0  0  0  0  0  0  0  0  0  0 
    2.9565    1.6022    0.2608 H   0  0  0  0  0  0  0  0  0  0  0  0 
    4.4291    0.7959    0.8177 H   0  0  0  0  0  0  0  0  0  0  0  0 
    6.6514   -1.5457   -0.9110 H   0  0  0  0  0  0  0  0  0  0  0  0 
    5.3487   -2.7353   -0.9377 H   0  0  0  0  0  0  0  0  0  0  0  0 
    5.4162   -1.5217    0.3492 H   0  0  0  0  0  0  0  0  0  0  0  0 
    6.2511   -0.7593   -3.1798 H   0  0  0  0  0  0  0  0  0  0  0  0 
    4.6713   -0.2111   -3.7429 H   0  0  0  0  0  0  0  0  0  0  0  0 
    4.9558   -1.9305   -3.4278 H   0  0  0  0  0  0  0  0  0  0  0  0 
    1.5578   -2.2171   -1.5822 H   0  0  0  0  0  0  0  0  0  0  0  0 
    3.0853   -3.0012   -1.1704 H   0  0  0  0  0  0  0  0  0  0  0  0 
    2.8047   -2.4097   -2.8166 H   0  0  0  0  0  0  0  0  0  0  0  0 
    1.4278    0.3208   -1.9277 H   0  0  0  0  0  0  0  0  0  0  0  0 
    2.5351    0.0429   -3.2715 H   0  0  0  0  0  0  0  0  0  0  0  0 
    2.9226    1.2624   -2.0523 H   0  0  0  0  0  0  0  0  0  0  0  0 
    1.7673   -0.6431    0.2342 H   0  0  0  0  0  0  0  0  0  0  0  0 
    3.2448   -1.4322    0.7291 H   0  0  0  0  0  0  0  0  0  0  0  0 
    5.0538    0.2960   -1.3234 H   0  0  0  0  0  0  0  0  0  0  0  0 
  1 11  1  0  0  0  0 
  1  9  1  0  0  0  0 
  2 14  1  0  0  0  0 
  3  7  1  0  0  0  0 
  4 18  1  0  0  0  0 
  4  8  1  0  0  0  0 
  4 19  1  0  0  0  0 
  5 23  1  0  0  0  0 
  5 21  1  0  0  0  0 
  5  8  1  0  0  0  0 
  6 24  1  0  0  0  0 
  6 25  1  0  0  0  0 
  6  1  1  0  0  0  0 
  7  8  1  0  0  0  0 
  7 26  1  0  0  0  0 
  7  2  1  0  0  0  0 
  8  6  1  0  0  0  0 
 10  1  1  0  0  0  0 
 12  2  1  0  0  0  0 
 13  2  1  0  0  0  0 
 15  3  1  0  0  0  0 
 16  3  1  0  0  0  0 
 17  3  1  0  0  0  0 
 20  4  1  0  0  0  0 
 22  5  1  0  0  0  0 
M  END 
>  <HBA> 
0 
 
>  <HBD> 
0 
 
>  <TPSA> 
0.0 
 
>  <cid> 
11215 
 
>  <dipole> 
0.07 
 
>  <excitation_energy_1> 
7.471 
 
>  <excitation_energy_2> 
7.596 
 
>  <excitation_energy_3> 
7.767 
 
>  <excitation_energy_4> 
7.873 
 
>  <homo_energy> 
-7.946 
 
>  <homo_lumo_gap> 
9.998 
 
>  <logP> 
3.079 
 
>  <lumo_energy> 
2.052 
 
>  <melting_point> 
-9.2 
 
>  <molecular_refractivity> 
40.31 
 
>  <oscillator_strength_1> 
0.0022 
 
>  <oscillator_strength_2> 
0.0007 
 
>  <oscillator_strength_3> 
0.0097 
 
>  <oscillator_strength_4> 
0.0044 
 
>  <open_babel_can_smiles> 
CCC(C(C)C)(C)C 
 
>  <mulliken_charges> 
26 
1   -0.456533 
2   -0.459045 
3   -0.456521 
4   -0.458505 
5   -0.459257 
6   -0.255341 
7   -0.065449 
8   0.115407 
9   0.14129 
10   0.1456 
11   0.146835 
12   0.138369 
13   0.142167 
14   0.145543 
15   0.137991 
16   0.14404 
17   0.141829 
18   0.136713 
19   0.140309 
20   0.140912 
21   0.135631 
22   0.142335 
23   0.139842 
24   0.124382 
25   0.130571 
26   0.120884 
 
>  <lowdin_charges> 
26 
1   -0.448195 
2   -0.444899 
3   -0.447545 
4   -0.444271 
5   -0.44229 
6   -0.274641 
7   -0.122395 
8   0.009816 
9   0.149457 
10   0.148597 
11   0.145329 
12   0.146729 
13   0.145135 
14   0.147301 
15   0.146172 
16   0.150354 
17   0.14515 
18   0.145537 
19   0.1476 
20   0.145873 
21   0.144858 
22   0.146465 
23   0.145719 
24   0.137079 
25   0.141132 
26   0.135932 
 
$$$$ 
 
