PCCDB-ID:  53242 
public computational chemistry database (PCCDB) project, http://pccdb.org 
 
 26 26  0  0  1  0  0  0  0  0999 V2000 
    0.9986    0.4172   -0.0013 C   0  0  0  0  0  0  0  0  0  0  0  0 
    3.8357   -3.5640    5.2707 C   0  0  0  0  0  0  0  0  0  0  0  0 
    2.7164   -1.9088    1.5392 C   0  0  0  0  0  0  0  0  0  0  0  0 
    3.5447    0.2086    2.3076 C   0  0  0  0  0  0  0  0  0  0  0  0 
    3.0737   -2.5013    2.7529 C   0  0  0  0  0  0  0  0  0  0  0  0 
    3.9017   -0.3617    3.5238 C   0  0  0  0  0  0  0  0  0  0  0  0 
    2.5020    0.1007   -0.0110 C   0  0  1  0  0  0  0  0  0  0  0  0 
    2.9412   -0.5506    1.2945 C   0  0  0  0  0  0  0  0  0  0  0  0 
    3.6679   -1.7244    3.7552 C   0  0  0  0  0  0  0  0  0  0  0  0 
    4.2353   -0.7764   -1.4216 N   0  0  0  0  0  0  0  0  0  0  0  0 
    2.7806   -0.7858   -1.1509 N   0  0  0  0  0  0  0  0  0  0  0  0 
    4.0596   -2.1953    4.9770 O   0  0  0  0  0  0  0  0  0  0  0  0 
    0.7509    1.0638    0.8461 H   0  0  0  0  0  0  0  0  0  0  0  0 
    0.4114   -0.5031    0.0853 H   0  0  0  0  0  0  0  0  0  0  0  0 
    0.6986    0.9349   -0.9215 H   0  0  0  0  0  0  0  0  0  0  0  0 
    4.2136   -3.7194    6.2832 H   0  0  0  0  0  0  0  0  0  0  0  0 
    4.3781   -4.2214    4.5779 H   0  0  0  0  0  0  0  0  0  0  0  0 
    2.7672   -3.8158    5.2406 H   0  0  0  0  0  0  0  0  0  0  0  0 
    2.2632   -2.5124    0.7580 H   0  0  0  0  0  0  0  0  0  0  0  0 
    3.7382    1.2662    2.1402 H   0  0  0  0  0  0  0  0  0  0  0  0 
    2.8882   -3.5590    2.9037 H   0  0  0  0  0  0  0  0  0  0  0  0 
    4.3684    0.2265    4.3079 H   0  0  0  0  0  0  0  0  0  0  0  0 
    3.0561    1.0513   -0.1152 H   0  0  0  0  0  0  0  0  0  0  0  0 
    4.3864   -1.6364   -1.9551 H   0  0  0  0  0  0  0  0  0  0  0  0 
    4.6534   -0.9936   -0.5131 H   0  0  0  0  0  0  0  0  0  0  0  0 
    2.3928   -0.3175   -1.9715 H   0  0  0  0  0  0  0  0  0  0  0  0 
  1 14  1  0  0  0  0 
  1 13  1  0  0  0  0 
  2 16  1  0  0  0  0 
  3  5  1  0  0  0  0 
  4  6  2  0  0  0  0 
  5 21  1  0  0  0  0 
  5  9  2  0  0  0  0 
  6  9  1  0  0  0  0 
  6 22  1  0  0  0  0 
  7 23  1  6  0  0  0 
  7  1  1  0  0  0  0 
  7  8  1  0  0  0  0 
  8  3  2  0  0  0  0 
  8  4  1  0  0  0  0 
  9 12  1  0  0  0  0 
 10 11  1  0  0  0  0 
 10 25  1  0  0  0  0 
 11  7  1  0  0  0  0 
 12  2  1  0  0  0  0 
 15  1  1  0  0  0  0 
 17  2  1  0  0  0  0 
 18  2  1  0  0  0  0 
 19  3  1  0  0  0  0 
 20  4  1  0  0  0  0 
 24 10  1  0  0  0  0 
 26 11  1  0  0  0  0 
M  END 
>  <HBA> 
3 
 
>  <HBD> 
2 
 
>  <TPSA> 
47.28 
 
>  <cid> 
53242 
 
>  <dipole> 
1.7 
 
>  <excitation_energy_1> 
4.576 
 
>  <excitation_energy_2> 
4.864 
 
>  <excitation_energy_3> 
4.954 
 
>  <excitation_energy_4> 
4.977 
 
>  <homo_energy> 
-5.306 
 
>  <homo_lumo_gap> 
5.353 
 
>  <logP> 
2.311 
 
>  <lumo_energy> 
0.046 
 
>  <melting_point> 
94.02 
 
>  <molecular_refractivity> 
48.22 
 
>  <oscillator_strength_1> 
0.0003 
 
>  <oscillator_strength_2> 
0.0007 
 
>  <oscillator_strength_3> 
0.0213 
 
>  <oscillator_strength_4> 
0.0104 
 
>  <open_babel_can_smiles> 
NN[C@H](c1ccc(cc1)OC)C 
 
>  <mulliken_charges> 
26 
1   -0.450269 
2   -0.213792 
3   -0.184181 
4   -0.191663 
5   -0.196044 
6   -0.172954 
7   -0.027754 
8   0.134489 
9   0.374976 
10   -0.602983 
11   -0.468643 
12   -0.507623 
13   0.154927 
14   0.158766 
15   0.138172 
16   0.168877 
17   0.150593 
18   0.151522 
19   0.146504 
20   0.127037 
21   0.129724 
22   0.136507 
23   0.122193 
24   0.30375 
25   0.309141 
26   0.308728 
 
>  <lowdin_charges> 
26 
1   -0.445468 
2   -0.275993 
3   -0.153964 
4   -0.156279 
5   -0.212671 
6   -0.184392 
7   -0.06635 
8   -0.039029 
9   0.100017 
10   -0.501061 
11   -0.318624 
12   -0.200973 
13   0.159478 
14   0.156872 
15   0.146375 
16   0.161435 
17   0.145692 
18   0.143208 
19   0.167447 
20   0.154988 
21   0.159465 
22   0.167119 
23   0.127882 
24   0.253031 
25   0.256271 
26   0.255527 
 
$$$$ 
 
