PCCDB-ID:  40631 
public computational chemistry database (PCCDB) project, http://pccdb.org 
 
 28 27  0  0  0  0  0  0  0  0999 V2000 
    2.8078    2.6792   -1.6131 C   0  0  0  0  0  0  0  0  0  0  0  0 
    7.7110   -4.8076   -2.5328 C   0  0  0  0  0  0  0  0  0  0  0  0 
    4.0507    1.9069   -2.0666 C   0  0  0  0  0  0  0  0  0  0  0  0 
    3.9902    0.4116   -1.7285 C   0  0  0  0  0  0  0  0  0  0  0  0 
    5.2306   -0.3682   -2.1821 C   0  0  0  0  0  0  0  0  0  0  0  0 
    5.1661   -1.8640   -1.8443 C   0  0  0  0  0  0  0  0  0  0  0  0 
    6.4134   -2.6249   -2.3059 C   0  0  0  0  0  0  0  0  0  0  0  0 
    5.4693   -4.7699   -1.4171 C   0  0  0  0  0  0  0  0  0  0  0  0 
    5.4881   -6.1734   -1.1562 C   0  0  0  0  0  0  0  0  0  0  0  0 
    6.4675   -4.1133   -2.0445 C   0  0  0  0  0  0  0  0  0  0  0  0 
    5.4832   -7.3169   -0.9343 N   0  0  0  0  0  0  0  0  0  0  0  0 
    2.8834    3.7426   -1.8667 H   0  0  0  0  0  0  0  0  0  0  0  0 
    2.6687    2.6050   -0.5275 H   0  0  0  0  0  0  0  0  0  0  0  0 
    1.9011    2.2869   -2.0898 H   0  0  0  0  0  0  0  0  0  0  0  0 
    8.6037   -4.3590   -2.0774 H   0  0  0  0  0  0  0  0  0  0  0  0 
    7.8172   -4.6828   -3.6186 H   0  0  0  0  0  0  0  0  0  0  0  0 
    7.7072   -5.8763   -2.3071 H   0  0  0  0  0  0  0  0  0  0  0  0 
    4.9451    2.3466   -1.6026 H   0  0  0  0  0  0  0  0  0  0  0  0 
    4.1816    2.0272   -3.1514 H   0  0  0  0  0  0  0  0  0  0  0  0 
    3.0942   -0.0282   -2.1913 H   0  0  0  0  0  0  0  0  0  0  0  0 
    3.8605    0.2907   -0.6428 H   0  0  0  0  0  0  0  0  0  0  0  0 
    6.1261    0.0714   -1.7185 H   0  0  0  0  0  0  0  0  0  0  0  0 
    5.3599   -0.2463   -3.2677 H   0  0  0  0  0  0  0  0  0  0  0  0 
    4.2729   -2.3013   -2.3114 H   0  0  0  0  0  0  0  0  0  0  0  0 
    5.0404   -1.9841   -0.7594 H   0  0  0  0  0  0  0  0  0  0  0  0 
    7.3064   -2.1737   -1.8451 H   0  0  0  0  0  0  0  0  0  0  0  0 
    6.5532   -2.4725   -3.3879 H   0  0  0  0  0  0  0  0  0  0  0  0 
    4.5825   -4.2459   -1.0746 H   0  0  0  0  0  0  0  0  0  0  0  0 
  1 13  1  0  0  0  0 
  2 17  1  0  0  0  0 
  2 15  1  0  0  0  0 
  2 10  1  0  0  0  0 
  3  4  1  0  0  0  0 
  3  1  1  0  0  0  0 
  3 18  1  0  0  0  0 
  4 21  1  0  0  0  0 
  5  6  1  0  0  0  0 
  5  4  1  0  0  0  0 
  5 22  1  0  0  0  0 
  6 25  1  0  0  0  0 
  7 10  1  0  0  0  0 
  7 26  1  0  0  0  0 
  7  6  1  0  0  0  0 
  8  9  1  0  0  0  0 
  8 28  1  0  0  0  0 
  9 11  3  0  0  0  0 
 10  8  2  0  0  0  0 
 12  1  1  0  0  0  0 
 14  1  1  0  0  0  0 
 16  2  1  0  0  0  0 
 19  3  1  0  0  0  0 
 20  4  1  0  0  0  0 
 23  5  1  0  0  0  0 
 24  6  1  0  0  0  0 
 27  7  1  0  0  0  0 
M  END 
>  <HBA> 
1 
 
>  <HBD> 
0 
 
>  <TPSA> 
23.79 
 
>  <cid> 
40631 
 
>  <dipole> 
5.03 
 
>  <excitation_energy_1> 
5.925 
 
>  <excitation_energy_2> 
6.272 
 
>  <excitation_energy_3> 
6.448 
 
>  <excitation_energy_4> 
6.619 
 
>  <homo_energy> 
-7.053 
 
>  <homo_lumo_gap> 
6.09 
 
>  <logP> 
3.427 
 
>  <lumo_energy> 
-0.963 
 
>  <melting_point> 
17.89 
 
>  <molecular_refractivity> 
49.46 
 
>  <oscillator_strength_1> 
0.4262 
 
>  <oscillator_strength_2> 
0.0001 
 
>  <oscillator_strength_3> 
0.0 
 
>  <oscillator_strength_4> 
0.0018 
 
>  <open_babel_can_smiles> 
CCCCCC/C(=C/C#N)/C 
 
>  <mulliken_charges> 
28 
1   -0.442152 
2   -0.52437 
3   -0.247899 
4   -0.248154 
5   -0.256702 
6   -0.267641 
7   -0.326855 
8   -0.210716 
9   0.313961 
10   0.197962 
11   -0.495603 
12   0.144011 
13   0.1428 
14   0.142832 
15   0.166833 
16   0.167433 
17   0.188237 
18   0.131458 
19   0.131422 
20   0.129636 
21   0.129593 
22   0.131177 
23   0.13115 
24   0.142573 
25   0.142477 
26   0.155756 
27   0.155327 
28   0.175453 
 
>  <lowdin_charges> 
28 
1   -0.441188 
2   -0.442235 
3   -0.270572 
4   -0.273224 
5   -0.27158 
6   -0.27667 
7   -0.272637 
8   -0.21664 
9   -0.016164 
10   0.052279 
11   -0.135179 
12   0.14905 
13   0.145203 
14   0.147423 
15   0.166274 
16   0.164355 
17   0.174441 
18   0.139873 
19   0.137408 
20   0.139345 
21   0.136886 
22   0.140062 
23   0.137611 
24   0.145358 
25   0.142832 
26   0.158035 
27   0.155475 
28   0.184181 
 
$$$$ 
 
