PCCDB-ID:  65105 
public computational chemistry database (PCCDB) project, http://pccdb.org 
 
 25 24  0  0  1  0  0  0  0  0999 V2000 
    1.9891   -1.5958   -0.4940 C   0  0  0  0  0  0  0  0  0  0  0  0 
    2.6489    0.0909    1.2832 C   0  0  0  0  0  0  0  0  0  0  0  0 
    6.1028   -1.9836   -0.3587 C   0  0  0  0  0  0  0  0  0  0  0  0 
    3.0337    0.6637   -1.1867 C   0  0  0  0  0  0  0  0  0  0  0  0 
    2.1675   -0.1051   -0.1637 C   0  0  0  0  0  0  0  0  0  0  0  0 
    4.5138    0.2598   -1.3283 C   0  0  1  0  0  0  0  0  0  0  0  0 
    4.6535   -1.0651   -2.0997 C   0  0  0  0  0  0  0  0  0  0  0  0 
    5.2168    1.3263   -2.0693 N   0  0  0  0  0  0  0  0  0  0  0  0 
    4.1404   -1.2135   -3.1860 O   0  0  0  0  0  0  0  0  0  0  0  0 
    5.4284   -2.0760   -1.6162 O   0  0  0  0  0  0  0  0  0  0  0  0 
    2.9251   -2.1568   -0.3819 H   0  0  0  0  0  0  0  0  0  0  0  0 
    1.2565   -2.0541    0.1808 H   0  0  0  0  0  0  0  0  0  0  0  0 
    1.6432   -1.7416   -1.5228 H   0  0  0  0  0  0  0  0  0  0  0  0 
    1.9349   -0.3430    1.9929 H   0  0  0  0  0  0  0  0  0  0  0  0 
    2.7619    1.1539    1.5272 H   0  0  0  0  0  0  0  0  0  0  0  0 
    3.6163   -0.3956    1.4641 H   0  0  0  0  0  0  0  0  0  0  0  0 
    6.8154   -1.1516   -0.3366 H   0  0  0  0  0  0  0  0  0  0  0  0 
    6.6506   -2.9220   -0.2559 H   0  0  0  0  0  0  0  0  0  0  0  0 
    5.3998   -1.8891    0.4757 H   0  0  0  0  0  0  0  0  0  0  0  0 
    3.0398    1.7264   -0.9169 H   0  0  0  0  0  0  0  0  0  0  0  0 
    2.5737    0.5856   -2.1797 H   0  0  0  0  0  0  0  0  0  0  0  0 
    1.1719    0.3579   -0.2317 H   0  0  0  0  0  0  0  0  0  0  0  0 
    4.9741    0.2072   -0.3396 H   0  0  0  0  0  0  0  0  0  0  0  0 
    4.8714    1.3201   -3.0301 H   0  0  0  0  0  0  0  0  0  0  0  0 
    6.2125    1.1118   -2.1320 H   0  0  0  0  0  0  0  0  0  0  0  0 
  1 11  1  0  0  0  0 
  1  5  1  0  0  0  0 
  1 12  1  0  0  0  0 
  2 16  1  0  0  0  0 
  2 15  1  0  0  0  0 
  2 14  1  0  0  0  0 
  3 17  1  0  0  0  0 
  3 18  1  0  0  0  0 
  3 19  1  0  0  0  0 
  4 20  1  0  0  0  0 
  4  5  1  0  0  0  0 
  5  2  1  0  0  0  0 
  6  4  1  0  0  0  0 
  6 23  1  1  0  0  0 
  7 10  1  0  0  0  0 
  7  6  1  0  0  0  0 
  8  6  1  0  0  0  0 
  9  7  2  0  0  0  0 
 10  3  1  0  0  0  0 
 13  1  1  0  0  0  0 
 21  4  1  0  0  0  0 
 22  5  1  0  0  0  0 
 24  8  1  0  0  0  0 
 25  8  1  0  0  0  0 
M  END 
>  <HBA> 
3 
 
>  <HBD> 
1 
 
>  <TPSA> 
52.32 
 
>  <cid> 
65105 
 
>  <dipole> 
3.26 
 
>  <excitation_energy_1> 
5.166 
 
>  <excitation_energy_2> 
5.847 
 
>  <excitation_energy_3> 
6.145 
 
>  <excitation_energy_4> 
6.405 
 
>  <homo_energy> 
-6.553 
 
>  <homo_lumo_gap> 
6.588 
 
>  <logP> 
1.233 
 
>  <lumo_energy> 
0.035 
 
>  <melting_point> 
39.46 
 
>  <molecular_refractivity> 
39.76 
 
>  <oscillator_strength_1> 
0.0159 
 
>  <oscillator_strength_2> 
0.0109 
 
>  <oscillator_strength_3> 
0.0228 
 
>  <oscillator_strength_4> 
0.005 
 
>  <open_babel_can_smiles> 
COC(=O)[C@H](CC(C)C)N 
 
>  <mulliken_charges> 
25 
1   -0.456778 
2   -0.45004 
3   -0.233737 
4   -0.262957 
5   -0.074062 
6   -0.0771 
7   0.610479 
8   -0.70279 
9   -0.467986 
10   -0.44563 
11   0.139718 
12   0.140913 
13   0.163259 
14   0.145316 
15   0.14629 
16   0.13277 
17   0.156832 
18   0.181668 
19   0.16679 
20   0.150159 
21   0.154046 
22   0.131258 
23   0.139883 
24   0.313387 
25   0.298313 
 
>  <lowdin_charges> 
25 
1   -0.452143 
2   -0.447927 
3   -0.284492 
4   -0.278223 
5   -0.120264 
6   -0.101602 
7   0.176045 
8   -0.527476 
9   -0.254183 
10   -0.189328 
11   0.145282 
12   0.150619 
13   0.1588 
14   0.152477 
15   0.149165 
16   0.137704 
17   0.148567 
18   0.169132 
19   0.150772 
20   0.154069 
21   0.154913 
22   0.142973 
23   0.149088 
24   0.26263 
25   0.253401 
 
$$$$ 
 
