PCCDB-ID:  23010 
public computational chemistry database (PCCDB) project, http://pccdb.org 
 
 11 11  0  0  1  0  0  0  0  0999 V2000 
    1.0477   -0.0235   -0.0922 C   0  0  0  0  0  0  0  0  0  0  0  0 
    0.5494    1.0201   -0.9952 C   0  0  0  0  0  0  0  0  0  0  0  0 
    3.3103   -0.6081    1.0450 C   0  0  0  0  0  0  0  0  0  0  0  0 
    2.5627   -0.1586   -0.1366 C   0  0  2  0  0  0  0  0  0  0  0  0 
    0.1629    1.8362   -1.7238 N   0  0  0  0  0  0  0  0  0  0  0  0 
    3.3022    0.7710    0.6521 O   0  0  0  0  0  0  0  0  0  0  0  0 
    0.5820   -0.9775   -0.3724 H   0  0  0  0  0  0  0  0  0  0  0  0 
    0.7327    0.2098    0.9313 H   0  0  0  0  0  0  0  0  0  0  0  0 
    4.2593   -1.1283    0.9176 H   0  0  0  0  0  0  0  0  0  0  0  0 
    2.7762   -0.8336    1.9686 H   0  0  0  0  0  0  0  0  0  0  0  0 
    2.9807   -0.3467   -1.1266 H   0  0  0  0  0  0  0  0  0  0  0  0 
  1  8  1  0  0  0  0 
  2  1  1  0  0  0  0 
  3 10  1  0  0  0  0 
  4 11  1  6  0  0  0 
  4  1  1  0  0  0  0 
  4  6  1  0  0  0  0 
  4  3  1  0  0  0  0 
  5  2  3  0  0  0  0 
  6  3  1  0  0  0  0 
  7  1  1  0  0  0  0 
  9  3  1  0  0  0  0 
M  END 
>  <HBA> 
2 
 
>  <HBD> 
0 
 
>  <TPSA> 
36.32 
 
>  <cid> 
23010 
 
>  <dipole> 
4.92 
 
>  <excitation_energy_1> 
7.009 
 
>  <excitation_energy_2> 
7.481 
 
>  <excitation_energy_3> 
7.515 
 
>  <excitation_energy_4> 
7.551 
 
>  <homo_energy> 
-7.848 
 
>  <homo_lumo_gap> 
8.515 
 
>  <logP> 
0.299 
 
>  <lumo_energy> 
0.667 
 
>  <melting_point> 
22.3 
 
>  <molecular_refractivity> 
20.06 
 
>  <oscillator_strength_1> 
0.0144 
 
>  <oscillator_strength_2> 
0.0055 
 
>  <oscillator_strength_3> 
0.0014 
 
>  <oscillator_strength_4> 
0.0056 
 
>  <open_babel_can_smiles> 
C(C#N)[C@@H]1CO1 
 
>  <mulliken_charges> 
11 
1   -0.366481 
2   0.357089 
3   -0.114063 
4   0.105792 
5   -0.457708 
6   -0.419506 
7   0.200626 
8   0.205301 
9   0.164328 
10   0.156344 
11   0.168278 
 
>  <lowdin_charges> 
11 
1   -0.277726 
2   -0.014491 
3   -0.16147 
4   -0.015461 
5   -0.115951 
6   -0.271372 
7   0.188172 
8   0.190013 
9   0.161515 
10   0.155939 
11   0.160832 
 
$$$$ 
 
