PCCDB-ID:  62583 
public computational chemistry database (PCCDB) project, http://pccdb.org 
 
 30 30  0  0  1  0  0  0  0  0999 V2000 
    8.3405   -2.6339   -1.4187 C   0  0  0  0  0  0  0  0  0  0  0  0 
    7.0474   -3.3089   -0.9463 C   0  0  0  0  0  0  0  0  0  0  0  0 
    5.9711   -2.3308   -0.4399 C   0  0  0  0  0  0  0  0  0  0  0  0 
    8.5516   -2.7208    2.8204 C   0  0  0  0  0  0  0  0  0  0  0  0 
    8.6878   -1.6122    3.8693 C   0  0  0  0  0  0  0  0  0  0  0  0 
    6.2824   -1.5299    0.8436 C   0  0  0  0  0  0  0  0  0  0  0  0 
    7.1282   -3.2658    2.6517 C   0  0  0  0  0  0  0  0  0  0  0  0 
    7.8554   -0.3500    3.5731 C   0  0  0  0  0  0  0  0  0  0  0  0 
    6.0442   -2.2917    2.1644 C   0  0  1  0  0  0  0  0  0  0  0  0 
    6.3673   -0.4755    3.8756 C   0  0  0  0  0  0  0  0  0  0  0  0 
    5.8261    0.2145    4.7088 O   0  0  0  0  0  0  0  0  0  0  0  0 
    5.6054   -1.3900    3.2198 O   0  0  0  0  0  0  0  0  0  0  0  0 
    9.0401   -3.3695   -1.8313 H   0  0  0  0  0  0  0  0  0  0  0  0 
    8.8575   -2.1141   -0.6037 H   0  0  0  0  0  0  0  0  0  0  0  0 
    8.1347   -1.8943   -2.2028 H   0  0  0  0  0  0  0  0  0  0  0  0 
    7.2829   -4.0564   -0.1776 H   0  0  0  0  0  0  0  0  0  0  0  0 
    6.6192   -3.8731   -1.7856 H   0  0  0  0  0  0  0  0  0  0  0  0 
    5.0282   -2.8765   -0.2933 H   0  0  0  0  0  0  0  0  0  0  0  0 
    5.7733   -1.6080   -1.2431 H   0  0  0  0  0  0  0  0  0  0  0  0 
    9.2068   -3.5557    3.1005 H   0  0  0  0  0  0  0  0  0  0  0  0 
    8.9296   -2.3549    1.8557 H   0  0  0  0  0  0  0  0  0  0  0  0 
    9.7414   -1.3141    3.9351 H   0  0  0  0  0  0  0  0  0  0  0  0 
    8.4160   -1.9994    4.8609 H   0  0  0  0  0  0  0  0  0  0  0  0 
    5.6046   -0.6692    0.8731 H   0  0  0  0  0  0  0  0  0  0  0  0 
    7.2969   -1.1213    0.7905 H   0  0  0  0  0  0  0  0  0  0  0  0 
    6.7793   -3.6793    3.6075 H   0  0  0  0  0  0  0  0  0  0  0  0 
    7.1507   -4.1071    1.9485 H   0  0  0  0  0  0  0  0  0  0  0  0 
    7.9994   -0.0454    2.5290 H   0  0  0  0  0  0  0  0  0  0  0  0 
    8.1963    0.4768    4.2004 H   0  0  0  0  0  0  0  0  0  0  0  0 
    5.1351   -2.8868    2.0245 H   0  0  0  0  0  0  0  0  0  0  0  0 
  1  2  1  0  0  0  0 
  1 14  1  0  0  0  0 
  2  3  1  0  0  0  0 
  2 16  1  0  0  0  0 
  3 18  1  0  0  0  0 
  3  6  1  0  0  0  0 
  4 20  1  0  0  0  0 
  4  5  1  0  0  0  0 
  5 22  1  0  0  0  0 
  5 23  1  0  0  0  0 
  6 24  1  0  0  0  0 
  6  9  1  0  0  0  0 
  7  4  1  0  0  0  0 
  7 26  1  0  0  0  0 
  8  5  1  0  0  0  0 
  8 10  1  0  0  0  0 
  8 29  1  0  0  0  0 
  9 30  1  6  0  0  0 
  9  7  1  0  0  0  0 
  9 12  1  0  0  0  0 
 10 11  2  0  0  0  0 
 12 10  1  0  0  0  0 
 13  1  1  0  0  0  0 
 15  1  1  0  0  0  0 
 17  2  1  0  0  0  0 
 19  3  1  0  0  0  0 
 21  4  1  0  0  0  0 
 25  6  1  0  0  0  0 
 27  7  1  0  0  0  0 
 28  8  1  0  0  0  0 
M  END 
>  <HBA> 
2 
 
>  <HBD> 
0 
 
>  <TPSA> 
26.3 
 
>  <cid> 
62583 
 
>  <dipole> 
4.88 
 
>  <excitation_energy_1> 
5.447 
 
>  <excitation_energy_2> 
6.507 
 
>  <excitation_energy_3> 
6.775 
 
>  <excitation_energy_4> 
6.896 
 
>  <homo_energy> 
-6.882 
 
>  <homo_lumo_gap> 
7.328 
 
>  <logP> 
2.662 
 
>  <lumo_energy> 
0.446 
 
>  <melting_point> 
5.8 
 
>  <molecular_refractivity> 
49.35 
 
>  <oscillator_strength_1> 
0.0012 
 
>  <oscillator_strength_2> 
0.002 
 
>  <oscillator_strength_3> 
0.004 
 
>  <oscillator_strength_4> 
0.0011 
 
>  <open_babel_can_smiles> 
CCCC[C@H]1CCCCC(=O)O1 
 
>  <mulliken_charges> 
30 
1   -0.448739 
2   -0.256369 
3   -0.266062 
4   -0.272382 
5   -0.268787 
6   -0.300947 
7   -0.292413 
8   -0.367658 
9   0.137888 
10   0.587105 
11   -0.448896 
12   -0.464285 
13   0.147418 
14   0.146514 
15   0.145479 
16   0.137056 
17   0.1386 
18   0.135661 
19   0.139326 
20   0.141899 
21   0.141164 
22   0.146752 
23   0.151749 
24   0.160085 
25   0.143416 
26   0.152727 
27   0.148325 
28   0.159318 
29   0.177271 
30   0.148783 
 
>  <lowdin_charges> 
30 
1   -0.450795 
2   -0.279297 
3   -0.276652 
4   -0.28243 
5   -0.270897 
6   -0.299304 
7   -0.294199 
8   -0.314717 
9   0.003506 
10   0.19354 
11   -0.250687 
12   -0.199155 
13   0.154026 
14   0.145363 
15   0.149058 
16   0.139781 
17   0.147061 
18   0.143595 
19   0.148021 
20   0.15163 
21   0.14091 
22   0.150905 
23   0.148714 
24   0.161453 
25   0.143652 
26   0.153965 
27   0.154379 
28   0.158108 
29   0.174846 
30   0.155621 
 
$$$$ 
 
