PCCDB-ID:  9958 
public computational chemistry database (PCCDB) project, http://pccdb.org 
 
 17 17  0  0  0  0  0  0  0  0999 V2000 
    0.9620    0.0181    0.1776 C   0  0  0  0  0  0  0  0  0  0  0  0 
    3.2044    1.1916    0.0018 C   0  0  0  0  0  0  0  0  0  0  0  0 
    4.5991    1.1615   -0.1117 C   0  0  0  0  0  0  0  0  0  0  0  0 
    3.1678   -1.2065   -0.0269 C   0  0  0  0  0  0  0  0  0  0  0  0 
    2.4675    0.0090    0.0464 C   0  0  0  0  0  0  0  0  0  0  0  0 
    5.2862   -0.0460   -0.1840 C   0  0  0  0  0  0  0  0  0  0  0  0 
    4.5543   -1.2500   -0.1395 C   0  0  0  0  0  0  0  0  0  0  0  0 
    6.6464   -0.1434   -0.2978 O   0  0  0  0  0  0  0  0  0  0  0  0 
    5.2675   -2.4145   -0.2129 O   0  0  0  0  0  0  0  0  0  0  0  0 
    0.5696    1.0396    0.1563 H   0  0  0  0  0  0  0  0  0  0  0  0 
    0.6352   -0.4427    1.1189 H   0  0  0  0  0  0  0  0  0  0  0  0 
    0.4812   -0.5400   -0.6356 H   0  0  0  0  0  0  0  0  0  0  0  0 
    2.6952    2.1501    0.0560 H   0  0  0  0  0  0  0  0  0  0  0  0 
    5.1615    2.0935   -0.1453 H   0  0  0  0  0  0  0  0  0  0  0  0 
    2.6172   -2.1470    0.0043 H   0  0  0  0  0  0  0  0  0  0  0  0 
    7.0141    0.7535   -0.3214 H   0  0  0  0  0  0  0  0  0  0  0  0 
    4.6443   -3.1562   -0.1713 H   0  0  0  0  0  0  0  0  0  0  0  0 
  1 11  1  0  0  0  0 
  2  5  1  0  0  0  0 
  2 13  1  0  0  0  0 
  3  2  2  0  0  0  0 
  4 15  1  0  0  0  0 
  4  5  2  0  0  0  0 
  5  1  1  0  0  0  0 
  6  7  2  0  0  0  0 
  6  3  1  0  0  0  0 
  7  4  1  0  0  0  0 
  8  6  1  0  0  0  0 
  9 17  1  0  0  0  0 
  9  7  1  0  0  0  0 
 10  1  1  0  0  0  0 
 12  1  1  0  0  0  0 
 14  3  1  0  0  0  0 
 16  8  1  0  0  0  0 
M  END 
>  <HBA> 
2 
 
>  <HBD> 
2 
 
>  <TPSA> 
40.46 
 
>  <cid> 
9958 
 
>  <dipole> 
1.41 
 
>  <excitation_energy_1> 
4.777 
 
>  <excitation_energy_2> 
4.792 
 
>  <excitation_energy_3> 
4.996 
 
>  <excitation_energy_4> 
5.413 
 
>  <homo_energy> 
-5.423 
 
>  <homo_lumo_gap> 
5.655 
 
>  <logP> 
1.406 
 
>  <lumo_energy> 
0.231 
 
>  <melting_point> 
89.1 
 
>  <molecular_refractivity> 
35.45 
 
>  <oscillator_strength_1> 
0.0676 
 
>  <oscillator_strength_2> 
0.0001 
 
>  <oscillator_strength_3> 
0.0 
 
>  <oscillator_strength_4> 
0.0003 
 
>  <open_babel_can_smiles> 
Cc1ccc(c(c1)O)O 
 
>  <mulliken_charges> 
17 
1   -0.531368 
2   -0.196482 
3   -0.195582 
4   -0.254026 
5   0.178586 
6   0.315593 
7   0.327093 
8   -0.634499 
9   -0.634541 
10   0.154296 
11   0.159003 
12   0.15722 
13   0.118322 
14   0.115925 
15   0.108713 
16   0.405693 
17   0.406055 
 
>  <lowdin_charges> 
17 
1   -0.441299 
2   -0.181534 
3   -0.207153 
4   -0.217053 
5   -0.007856 
6   0.07554 
7   0.079859 
8   -0.372889 
9   -0.371531 
10   0.155844 
11   0.157895 
12   0.158152 
13   0.154459 
14   0.153234 
15   0.150029 
16   0.356223 
17   0.35808 
 
$$$$ 
 
