PCCDB-ID:  28231 
public computational chemistry database (PCCDB) project, http://pccdb.org 
 
 25 26  0  0  1  0  0  0  0  0999 V2000 
    0.8890   -0.2379   -0.0947 C   0  0  0  0  0  0  0  0  0  0  0  0 
    5.0407    3.2946    1.2128 C   0  0  0  0  0  0  0  0  0  0  0  0 
    3.1845   -1.3182   -0.0950 C   0  0  0  0  0  0  0  0  0  0  0  0 
    6.7647    1.8577   -0.0754 C   0  0  0  0  0  0  0  0  0  0  0  0 
    4.5800   -1.2523   -0.0864 C   0  0  0  0  0  0  0  0  0  0  0  0 
    6.6872    0.3018   -0.0557 C   0  0  0  0  0  0  0  0  0  0  0  0 
    3.0454    1.0881   -0.0574 C   0  0  0  0  0  0  0  0  0  0  0  0 
    2.3991   -0.1568   -0.0817 C   0  0  0  0  0  0  0  0  0  0  0  0 
    5.3016    2.4087   -0.0169 C   0  0  1  0  0  0  0  0  0  0  0  0 
    5.2070   -0.0079   -0.0628 C   0  0  0  0  0  0  0  0  0  0  0  0 
    4.4373    1.1602   -0.0456 C   0  0  0  0  0  0  0  0  0  0  0  0 
    0.5447   -1.2769   -0.1117 H   0  0  0  0  0  0  0  0  0  0  0  0 
    0.4664    0.2664   -0.9730 H   0  0  0  0  0  0  0  0  0  0  0  0 
    0.4527    0.2422    0.7904 H   0  0  0  0  0  0  0  0  0  0  0  0 
    5.6873    4.1802    1.2004 H   0  0  0  0  0  0  0  0  0  0  0  0 
    5.2375    2.7426    2.1397 H   0  0  0  0  0  0  0  0  0  0  0  0 
    4.0006    3.6394    1.2442 H   0  0  0  0  0  0  0  0  0  0  0  0 
    2.6944   -2.2892   -0.1153 H   0  0  0  0  0  0  0  0  0  0  0  0 
    7.2731    2.2098   -0.9786 H   0  0  0  0  0  0  0  0  0  0  0  0 
    7.3475    2.2311    0.7737 H   0  0  0  0  0  0  0  0  0  0  0  0 
    5.1663   -2.1688   -0.0996 H   0  0  0  0  0  0  0  0  0  0  0  0 
    7.1798   -0.1179    0.8315 H   0  0  0  0  0  0  0  0  0  0  0  0 
    7.1955   -0.1407   -0.9221 H   0  0  0  0  0  0  0  0  0  0  0  0 
    2.4494    1.9997   -0.0483 H   0  0  0  0  0  0  0  0  0  0  0  0 
    5.0980    3.0152   -0.9110 H   0  0  0  0  0  0  0  0  0  0  0  0 
  1  8  1  0  0  0  0 
  1 14  1  0  0  0  0 
  2 17  1  0  0  0  0 
  2 16  1  0  0  0  0 
  3  5  2  0  0  0  0 
  3  8  1  0  0  0  0 
  4  6  1  0  0  0  0 
  4  9  1  0  0  0  0 
  4 20  1  0  0  0  0 
  5 10  1  0  0  0  0 
  6 22  1  0  0  0  0 
  7 24  1  0  0  0  0 
  7 11  1  0  0  0  0 
  8  7  2  0  0  0  0 
  9 25  1  6  0  0  0 
  9  2  1  0  0  0  0 
 10  6  1  0  0  0  0 
 10 11  2  0  0  0  0 
 11  9  1  0  0  0  0 
 12  1  1  0  0  0  0 
 13  1  1  0  0  0  0 
 15  2  1  0  0  0  0 
 18  3  1  0  0  0  0 
 19  4  1  0  0  0  0 
 21  5  1  0  0  0  0 
 23  6  1  0  0  0  0 
M  END 
>  <HBA> 
0 
 
>  <HBD> 
0 
 
>  <TPSA> 
0.0 
 
>  <cid> 
28231 
 
>  <dipole> 
0.3 
 
>  <excitation_energy_1> 
4.996 
 
>  <excitation_energy_2> 
5.6 
 
>  <excitation_energy_3> 
5.69 
 
>  <excitation_energy_4> 
5.97 
 
>  <homo_energy> 
-5.989 
 
>  <homo_lumo_gap> 
6.052 
 
>  <logP> 
3.045 
 
>  <lumo_energy> 
0.063 
 
>  <melting_point> 
38.08 
 
>  <molecular_refractivity> 
48.84 
 
>  <oscillator_strength_1> 
0.0416 
 
>  <oscillator_strength_2> 
0.0104 
 
>  <oscillator_strength_3> 
0.0094 
 
>  <oscillator_strength_4> 
0.0307 
 
>  <open_babel_can_smiles> 
Cc1ccc2c(c1)[C@@H](C)CC2 
 
>  <mulliken_charges> 
25 
1   -0.530216 
2   -0.443615 
3   -0.188708 
4   -0.295935 
5   -0.188382 
6   -0.3521 
7   -0.246093 
8   0.178805 
9   -0.154212 
10   0.117067 
11   0.133888 
12   0.152363 
13   0.15923 
14   0.159262 
15   0.141187 
16   0.146101 
17   0.143176 
18   0.116216 
19   0.141924 
20   0.141728 
21   0.119525 
22   0.149494 
23   0.149256 
24   0.113224 
25   0.136813 
 
>  <lowdin_charges> 
25 
1   -0.443069 
2   -0.440808 
3   -0.171729 
4   -0.282139 
5   -0.166017 
6   -0.281875 
7   -0.176074 
8   -0.000808 
9   -0.124889 
10   -0.017998 
11   -0.013439 
12   0.15417 
13   0.159214 
14   0.159196 
15   0.147873 
16   0.14906 
17   0.147213 
18   0.15169 
19   0.148555 
20   0.147975 
21   0.153971 
22   0.151627 
23   0.152226 
24   0.150746 
25   0.14533 
 
$$$$ 
 
