PCCDB-ID:  20077 
public computational chemistry database (PCCDB) project, http://pccdb.org 
 
 11 11  0  0  0  0  0  0  0  0999 V2000 
   -0.6458   -1.1729   -0.0156 C   0  0  0  0  0  0  0  0  0  0  0  0 
   -0.6750    1.0672    0.0907 C   0  0  0  0  0  0  0  0  0  0  0  0 
    1.4255    0.1085   -0.0437 C   0  0  0  0  0  0  0  0  0  0  0  0 
    2.6964    0.2137   -0.0917 N   0  0  0  0  0  0  0  0  0  0  0  0 
   -1.3967   -0.1181    0.0681 N   0  0  0  0  0  0  0  0  0  0  0  0 
    0.7074   -1.1292   -0.0728 N   0  0  0  0  0  0  0  0  0  0  0  0 
    0.6078    1.2343    0.0433 N   0  0  0  0  0  0  0  0  0  0  0  0 
   -1.0970   -2.1641   -0.0445 H   0  0  0  0  0  0  0  0  0  0  0  0 
   -1.2879    1.9648    0.1588 H   0  0  0  0  0  0  0  0  0  0  0  0 
    3.1481   -0.7025   -0.1533 H   0  0  0  0  0  0  0  0  0  0  0  0 
    1.2332   -1.9929   -0.1381 H   0  0  0  0  0  0  0  0  0  0  0  0 
  1  5  1  0  0  0  0 
  2  9  1  0  0  0  0 
  3  7  2  0  0  0  0 
  4  3  1  0  0  0  0 
  5  2  2  0  0  0  0 
  6  3  1  0  0  0  0 
  6  1  1  0  0  0  0 
  7  2  1  0  0  0  0 
  8  1  1  0  0  0  0 
 10  4  1  0  0  0  0 
 11  6  1  0  0  0  0 
M  RAD  1   4   2 
M  END 
>  <HBA> 
4 
 
>  <HBD> 
1 
 
>  <TPSA> 
64.69 
 
>  <cid> 
20077 
 
>  <dipole> 
5.05 
 
>  <excitation_energy_1> 
4.065 
 
>  <excitation_energy_2> 
4.109 
 
>  <excitation_energy_3> 
4.943 
 
>  <excitation_energy_4> 
5.249 
 
>  <homo_energy> 
-6.566 
 
>  <homo_lumo_gap> 
4.898 
 
>  <logP> 
0.035 
 
>  <lumo_energy> 
-1.668 
 
>  <melting_point> 
98.99 
 
>  <molecular_refractivity> 
24.23 
 
>  <oscillator_strength_1> 
0.0239 
 
>  <oscillator_strength_2> 
0.0027 
 
>  <oscillator_strength_3> 
0.0006 
 
>  <oscillator_strength_4> 
0.001 
 
>  <open_babel_can_smiles> 
[NH]C1=NC=NCN1 
 
>  <mulliken_charges> 
11 
1   0.267082 
2   0.164466 
3   0.591594 
4   -0.596406 
5   -0.411993 
6   -0.590306 
7   -0.378056 
8   0.178109 
9   0.168378 
10   0.265381 
11   0.341749 
 
>  <lowdin_charges> 
11 
1   0.010488 
2   -0.015383 
3   0.115634 
4   -0.401973 
5   -0.21125 
6   -0.225787 
7   -0.154566 
8   0.172005 
9   0.168778 
10   0.245262 
11   0.296793 
 
$$$$ 
 
