PCCDB-ID:  12660 
public computational chemistry database (PCCDB) project, http://pccdb.org 
 
 10  9  0  0  0  0  0  0  0  0999 V2000 
    0.8926    0.4327   -0.0224 C   0  0  0  0  0  0  0  0  0  0  0  0 
    0.8722   -0.8338    0.1298 N   0  0  0  0  0  0  0  0  0  0  0  0 
   -0.0875    1.2855   -0.4950 N   0  0  0  0  0  0  0  0  0  0  0  0 
    2.0507    1.2070    0.3469 N   0  0  0  0  0  0  0  0  0  0  0  0 
    3.1091    0.6691    0.0083 N   0  0  0  0  0  0  0  0  0  0  0  0 
    4.1678    1.4500    0.4544 O   0  0  0  0  0  0  0  0  0  0  0  0 
   -0.0434   -1.2144   -0.1266 H   0  0  0  0  0  0  0  0  0  0  0  0 
   -1.0388    0.9439   -0.4811 H   0  0  0  0  0  0  0  0  0  0  0  0 
    0.0159    2.2574   -0.2328 H   0  0  0  0  0  0  0  0  0  0  0  0 
    4.9373    0.9501    0.1302 H   0  0  0  0  0  0  0  0  0  0  0  0 
  1  2  1  0  0  0  0 
  1  4  1  0  0  0  0 
  3  8  1  0  0  0  0 
  3  9  1  0  0  0  0 
  3  1  2  0  0  0  0 
  5  4  1  0  0  0  0 
  5  6  1  0  0  0  0 
  7  2  1  0  0  0  0 
 10  6  1  0  0  0  0 
M  RAD  3   2   2   4   2   5   2 
M  END 
>  <HBA> 
5 
 
>  <HBD> 
2 
 
>  <TPSA> 
93.83 
 
>  <cid> 
12660 
 
>  <dipole> 
2.09 
 
>  <excitation_energy_1> 
4.131 
 
>  <excitation_energy_2> 
4.426 
 
>  <excitation_energy_3> 
4.764 
 
>  <excitation_energy_4> 
5.919 
 
>  <homo_energy> 
-6.778 
 
>  <homo_lumo_gap> 
5.298 
 
>  <logP> 
0.342 
 
>  <lumo_energy> 
-1.48 
 
>  <melting_point> 
122.17 
 
>  <molecular_refractivity> 
20.76 
 
>  <oscillator_strength_1> 
0.0037 
 
>  <oscillator_strength_2> 
0.0216 
 
>  <oscillator_strength_3> 
0.0076 
 
>  <oscillator_strength_4> 
0.002 
 
>  <open_babel_can_smiles> 
[NH]C(=[NH2])[N][N]O 
 
>  <mulliken_charges> 
10 
1   0.557752 
2   -0.580386 
3   -0.74016 
4   -0.221491 
5   0.06724 
6   -0.452613 
7   0.274195 
8   0.330153 
9   0.345588 
10   0.419722 
 
>  <lowdin_charges> 
10 
1   0.108978 
2   -0.413991 
3   -0.480345 
4   -0.116846 
5   0.058528 
6   -0.338842 
7   0.252333 
8   0.282533 
9   0.290738 
10   0.356914 
 
$$$$ 
 
