PCCDB-ID:  13222 
public computational chemistry database (PCCDB) project, http://pccdb.org 
 
 24 24  0  0  0  0  0  0  0  0999 V2000 
    1.1163   -0.0746    0.2580 C   0  0  0  0  0  0  0  0  0  0  0  0 
    3.0442    1.4668   -0.2119 C   0  0  0  0  0  0  0  0  0  0  0  0 
    4.7969   -2.1849    3.0461 C   0  0  0  0  0  0  0  0  0  0  0  0 
    4.9823   -0.8111    2.9085 C   0  0  0  0  0  0  0  0  0  0  0  0 
    3.9273   -2.8497    2.1776 C   0  0  0  0  0  0  0  0  0  0  0  0 
    4.3023   -0.1021    1.9133 C   0  0  0  0  0  0  0  0  0  0  0  0 
    3.2493   -2.1409    1.1889 C   0  0  0  0  0  0  0  0  0  0  0  0 
    3.4201   -0.7517    1.0386 C   0  0  0  0  0  0  0  0  0  0  0  0 
    2.8787   -0.6653   -1.4362 C   0  0  0  0  0  0  0  0  0  0  0  0 
    2.6262   -0.0151   -0.0517 C   0  0  0  0  0  0  0  0  0  0  0  0 
    2.0356   -0.7745   -2.2918 O   0  0  0  0  0  0  0  0  0  0  0  0 
    4.1572   -1.0488   -1.6869 O   0  0  0  0  0  0  0  0  0  0  0  0 
    0.9107    0.4332    1.2061 H   0  0  0  0  0  0  0  0  0  0  0  0 
    0.7635   -1.1066    0.3392 H   0  0  0  0  0  0  0  0  0  0  0  0 
    0.5481    0.4095   -0.5401 H   0  0  0  0  0  0  0  0  0  0  0  0 
    2.8261    2.0318    0.7004 H   0  0  0  0  0  0  0  0  0  0  0  0 
    2.4768    1.9186   -1.0310 H   0  0  0  0  0  0  0  0  0  0  0  0 
    4.1100    1.5754   -0.4399 H   0  0  0  0  0  0  0  0  0  0  0  0 
    5.3252   -2.7355    3.8195 H   0  0  0  0  0  0  0  0  0  0  0  0 
    5.6572   -0.2814    3.5756 H   0  0  0  0  0  0  0  0  0  0  0  0 
    3.7770   -3.9219    2.2697 H   0  0  0  0  0  0  0  0  0  0  0  0 
    4.4646    0.9672    1.8310 H   0  0  0  0  0  0  0  0  0  0  0  0 
    2.5795   -2.6738    0.5178 H   0  0  0  0  0  0  0  0  0  0  0  0 
    4.6777   -0.9843   -0.8662 H   0  0  0  0  0  0  0  0  0  0  0  0 
  1 14  1  0  0  0  0 
  1 13  1  0  0  0  0 
  2 10  1  0  0  0  0 
  2 16  1  0  0  0  0 
  3 19  1  0  0  0  0 
  4  3  1  0  0  0  0 
  4 20  1  0  0  0  0 
  5 21  1  0  0  0  0 
  5  3  2  0  0  0  0 
  6  4  2  0  0  0  0 
  7  5  1  0  0  0  0 
  8  7  2  0  0  0  0 
  8  6  1  0  0  0  0 
  9 10  1  0  0  0  0 
 10  1  1  0  0  0  0 
 10  8  1  0  0  0  0 
 11  9  2  0  0  0  0 
 12  9  1  0  0  0  0 
 12 24  1  0  0  0  0 
 15  1  1  0  0  0  0 
 17  2  1  0  0  0  0 
 18  2  1  0  0  0  0 
 22  6  1  0  0  0  0 
 23  7  1  0  0  0  0 
M  END 
>  <HBA> 
2 
 
>  <HBD> 
1 
 
>  <TPSA> 
37.3 
 
>  <cid> 
13222 
 
>  <dipole> 
4.45 
 
>  <excitation_energy_1> 
5.273 
 
>  <excitation_energy_2> 
5.515 
 
>  <excitation_energy_3> 
5.723 
 
>  <excitation_energy_4> 
6.117 
 
>  <homo_energy> 
-6.838 
 
>  <homo_lumo_gap> 
6.283 
 
>  <logP> 
2.049 
 
>  <lumo_energy> 
-0.555 
 
>  <melting_point> 
89.26 
 
>  <molecular_refractivity> 
47.48 
 
>  <oscillator_strength_1> 
0.0001 
 
>  <oscillator_strength_2> 
0.0142 
 
>  <oscillator_strength_3> 
0.057 
 
>  <oscillator_strength_4> 
0.0142 
 
>  <open_babel_can_smiles> 
OC(=O)C(c1ccccc1)(C)C 
 
>  <mulliken_charges> 
24 
1   -0.43337 
2   -0.467808 
3   -0.126404 
4   -0.128699 
5   -0.130613 
6   -0.18796 
7   -0.171996 
8   0.082658 
9   0.605362 
10   -0.082132 
11   -0.453247 
12   -0.575319 
13   0.144653 
14   0.155562 
15   0.171613 
16   0.160013 
17   0.17439 
18   0.150163 
19   0.13739 
20   0.136783 
21   0.140161 
22   0.135971 
23   0.148626 
24   0.414204 
 
>  <lowdin_charges> 
24 
1   -0.432397 
2   -0.439945 
3   -0.154003 
4   -0.154172 
5   -0.148581 
6   -0.172094 
7   -0.164098 
8   -0.028255 
9   0.194326 
10   -0.026691 
11   -0.24234 
12   -0.357003 
13   0.152402 
14   0.156145 
15   0.167065 
16   0.157629 
17   0.168318 
18   0.150591 
19   0.162855 
20   0.162351 
21   0.160964 
22   0.160967 
23   0.166006 
24   0.359957 
 
$$$$ 
 
