PCCDB-ID:  20436 
public computational chemistry database (PCCDB) project, http://pccdb.org 
 
 25 25  0  0  0  0  0  0  0  0999 V2000 
    3.3220   -0.7008    1.3578 C   0  0  0  0  0  0  0  0  0  0  0  0 
    3.1642    1.4788    0.0448 C   0  0  0  0  0  0  0  0  0  0  0  0 
   -2.3387   -0.8907   -0.8660 C   0  0  0  0  0  0  0  0  0  0  0  0 
   -1.7665   -0.0246   -1.8012 C   0  0  0  0  0  0  0  0  0  0  0  0 
   -1.5343   -1.8409   -0.2349 C   0  0  0  0  0  0  0  0  0  0  0  0 
   -0.4079   -0.1025   -2.1019 C   0  0  0  0  0  0  0  0  0  0  0  0 
   -0.1724   -1.9225   -0.5261 C   0  0  0  0  0  0  0  0  0  0  0  0 
    2.6178    0.0464    0.2090 C   0  0  0  0  0  0  0  0  0  0  0  0 
    0.4103   -1.0456   -1.4572 C   0  0  0  0  0  0  0  0  0  0  0  0 
    2.7092   -0.7243   -1.1047 C   0  0  0  0  0  0  0  0  0  0  0  0 
    1.7610   -1.1645   -1.8234 N   0  0  0  0  0  0  0  0  0  0  0  0 
    3.9698   -0.9425   -1.5790 O   0  0  0  0  0  0  0  0  0  0  0  0 
    3.1825   -0.1586    2.2994 H   0  0  0  0  0  0  0  0  0  0  0  0 
    4.4043   -0.7906    1.1948 H   0  0  0  0  0  0  0  0  0  0  0  0 
    2.9197   -1.7112    1.4830 H   0  0  0  0  0  0  0  0  0  0  0  0 
    3.0309    2.0408    0.9755 H   0  0  0  0  0  0  0  0  0  0  0  0 
    2.6422    2.0131   -0.7554 H   0  0  0  0  0  0  0  0  0  0  0  0 
    4.2363    1.4886   -0.1910 H   0  0  0  0  0  0  0  0  0  0  0  0 
   -3.3993   -0.8303   -0.6386 H   0  0  0  0  0  0  0  0  0  0  0  0 
   -2.3827    0.7167   -2.3041 H   0  0  0  0  0  0  0  0  0  0  0  0 
   -1.9672   -2.5271    0.4889 H   0  0  0  0  0  0  0  0  0  0  0  0 
    0.0370    0.5588   -2.8398 H   0  0  0  0  0  0  0  0  0  0  0  0 
    0.4506   -2.6746   -0.0495 H   0  0  0  0  0  0  0  0  0  0  0  0 
    1.5538    0.1152    0.4523 H   0  0  0  0  0  0  0  0  0  0  0  0 
    4.6145   -0.5594   -0.9647 H   0  0  0  0  0  0  0  0  0  0  0  0 
  1 15  1  0  0  0  0 
  1 13  1  0  0  0  0 
  2  8  1  0  0  0  0 
  2 16  1  0  0  0  0 
  3 19  1  0  0  0  0 
  3  5  2  0  0  0  0 
  4  3  1  0  0  0  0 
  5 21  1  0  0  0  0 
  6  4  2  0  0  0  0 
  6  9  1  0  0  0  0 
  7  5  1  0  0  0  0 
  7 23  1  0  0  0  0 
  8 24  1  0  0  0  0 
  8  1  1  0  0  0  0 
  9  7  2  0  0  0  0 
 10  8  1  0  0  0  0 
 11  9  1  0  0  0  0 
 11 10  2  0  0  0  0 
 12 10  1  0  0  0  0 
 12 25  1  0  0  0  0 
 14  1  1  0  0  0  0 
 17  2  1  0  0  0  0 
 18  2  1  0  0  0  0 
 20  4  1  0  0  0  0 
 22  6  1  0  0  0  0 
M  END 
>  <HBA> 
2 
 
>  <HBD> 
1 
 
>  <TPSA> 
29.1 
 
>  <cid> 
20436 
 
>  <dipole> 
3.99 
 
>  <excitation_energy_1> 
4.696 
 
>  <excitation_energy_2> 
5.04 
 
>  <excitation_energy_3> 
5.083 
 
>  <excitation_energy_4> 
5.51 
 
>  <homo_energy> 
-5.685 
 
>  <homo_lumo_gap> 
5.753 
 
>  <logP> 
2.354 
 
>  <lumo_energy> 
0.068 
 
>  <melting_point> 
57.27 
 
>  <molecular_refractivity> 
50.37 
 
>  <oscillator_strength_1> 
0.0255 
 
>  <oscillator_strength_2> 
0.0261 
 
>  <oscillator_strength_3> 
0.015 
 
>  <oscillator_strength_4> 
0.0213 
 
>  <open_babel_can_smiles> 
CC(/C(=N\c1ccccc1)/O)C 
 
>  <mulliken_charges> 
25 
1   -0.450861 
2   -0.449005 
3   -0.131912 
4   -0.137801 
5   -0.137645 
6   -0.152697 
7   -0.155141 
8   -0.181314 
9   0.23102 
10   0.497925 
11   -0.475873 
12   -0.584967 
13   0.159494 
14   0.132241 
15   0.167477 
16   0.158752 
17   0.169546 
18   0.133126 
19   0.122761 
20   0.126622 
21   0.126065 
22   0.127741 
23   0.123632 
24   0.170864 
25   0.409951 
 
>  <lowdin_charges> 
25 
1   -0.440021 
2   -0.441364 
3   -0.175265 
4   -0.152677 
5   -0.153045 
6   -0.182629 
7   -0.190917 
8   -0.156556 
9   0.05012 
10   0.145574 
11   -0.172722 
12   -0.361313 
13   0.158825 
14   0.139614 
15   0.160242 
16   0.158483 
17   0.163802 
18   0.140333 
19   0.153645 
20   0.157503 
21   0.156941 
22   0.160883 
23   0.157613 
24   0.16767 
25   0.355262 
 
$$$$ 
 
