PCCDB-ID:  36326 
public computational chemistry database (PCCDB) project, http://pccdb.org 
 
 26 26  0  0  0  0  0  0  0  0999 V2000 
    0.8157   -0.0321    0.1969 C   0  0  0  0  0  0  0  0  0  0  0  0 
    5.0537   -2.7486   -0.2879 C   0  0  0  0  0  0  0  0  0  0  0  0 
    9.6126    1.5364    0.2684 C   0  0  0  0  0  0  0  0  0  0  0  0 
    3.0945    1.0779    0.0507 C   0  0  0  0  0  0  0  0  0  0  0  0 
    4.4819    1.0231   -0.0693 C   0  0  0  0  0  0  0  0  0  0  0  0 
    2.9909   -1.3069   -0.0724 C   0  0  0  0  0  0  0  0  0  0  0  0 
    7.4659    0.6593    0.0759 C   0  0  0  0  0  0  0  0  0  0  0  0 
    2.3189   -0.0840    0.0527 C   0  0  0  0  0  0  0  0  0  0  0  0 
    4.3791   -1.4020   -0.1753 C   0  0  0  0  0  0  0  0  0  0  0  0 
    5.1410   -0.2103   -0.1651 C   0  0  0  0  0  0  0  0  0  0  0  0 
    8.7043    0.5006   -0.1790 N   0  0  0  0  0  0  0  0  0  0  0  0 
    6.5373   -0.2988   -0.2632 N   0  0  0  0  0  0  0  0  0  0  0  0 
    0.4277    0.9660   -0.0322 H   0  0  0  0  0  0  0  0  0  0  0  0 
    0.4985   -0.2782    1.2195 H   0  0  0  0  0  0  0  0  0  0  0  0 
    0.3210   -0.7451   -0.4728 H   0  0  0  0  0  0  0  0  0  0  0  0 
    4.3209   -3.5572   -0.2157 H   0  0  0  0  0  0  0  0  0  0  0  0 
    5.7966   -2.8990    0.5065 H   0  0  0  0  0  0  0  0  0  0  0  0 
    5.5766   -2.8747   -1.2474 H   0  0  0  0  0  0  0  0  0  0  0  0 
   10.3506    1.1119    0.9617 H   0  0  0  0  0  0  0  0  0  0  0  0 
    9.1165    2.3831    0.7745 H   0  0  0  0  0  0  0  0  0  0  0  0 
   10.1748    1.9321   -0.5875 H   0  0  0  0  0  0  0  0  0  0  0  0 
    2.6100    2.0488    0.1247 H   0  0  0  0  0  0  0  0  0  0  0  0 
    5.0471    1.9483   -0.1132 H   0  0  0  0  0  0  0  0  0  0  0  0 
    2.4115   -2.2287   -0.0822 H   0  0  0  0  0  0  0  0  0  0  0  0 
    7.0490    1.5312    0.5955 H   0  0  0  0  0  0  0  0  0  0  0  0 
    6.9382   -1.1437   -0.6486 H   0  0  0  0  0  0  0  0  0  0  0  0 
  1 14  1  0  0  0  0 
  2 16  1  0  0  0  0 
  2  9  1  0  0  0  0 
  2 17  1  0  0  0  0 
  3 20  1  0  0  0  0 
  3 19  1  0  0  0  0 
  4  8  1  0  0  0  0 
  4 22  1  0  0  0  0 
  5  4  2  0  0  0  0 
  6  8  2  0  0  0  0 
  7 25  1  0  0  0  0 
  8  1  1  0  0  0  0 
  9 10  2  0  0  0  0 
  9  6  1  0  0  0  0 
 10  5  1  0  0  0  0 
 11  7  2  0  0  0  0 
 11  3  1  0  0  0  0 
 12 10  1  0  0  0  0 
 12  7  1  0  0  0  0 
 13  1  1  0  0  0  0 
 15  1  1  0  0  0  0 
 18  2  1  0  0  0  0 
 21  3  1  0  0  0  0 
 23  5  1  0  0  0  0 
 24  6  1  0  0  0  0 
 26 12  1  0  0  0  0 
M  END 
>  <HBA> 
2 
 
>  <HBD> 
1 
 
>  <TPSA> 
24.39 
 
>  <cid> 
36326 
 
>  <dipole> 
1.32 
 
>  <excitation_energy_1> 
4.423 
 
>  <excitation_energy_2> 
4.763 
 
>  <excitation_energy_3> 
4.943 
 
>  <excitation_energy_4> 
5.071 
 
>  <homo_energy> 
-5.29 
 
>  <homo_lumo_gap> 
5.222 
 
>  <logP> 
2.446 
 
>  <lumo_energy> 
-0.068 
 
>  <melting_point> 
64.75 
 
>  <molecular_refractivity> 
54.17 
 
>  <oscillator_strength_1> 
0.1255 
 
>  <oscillator_strength_2> 
0.4176 
 
>  <oscillator_strength_3> 
0.0018 
 
>  <oscillator_strength_4> 
0.0009 
 
>  <open_babel_can_smiles> 
C/N=C/Nc1ccc(cc1C)C 
 
>  <mulliken_charges> 
26 
1   -0.531486 
2   -0.55597 
3   -0.309347 
4   -0.201979 
5   -0.166716 
6   -0.258456 
7   0.27182 
8   0.193842 
9   0.157242 
10   0.298483 
11   -0.42239 
12   -0.690793 
13   0.153648 
14   0.161757 
15   0.156148 
16   0.163696 
17   0.167416 
18   0.158392 
19   0.153287 
20   0.118663 
21   0.15347 
22   0.120638 
23   0.130756 
24   0.114583 
25   0.127238 
26   0.33606 
 
>  <lowdin_charges> 
26 
1   -0.441527 
2   -0.448165 
3   -0.354819 
4   -0.162122 
5   -0.194689 
6   -0.168785 
7   -0.038943 
8   -0.015315 
9   -0.027901 
10   0.046489 
11   -0.230091 
12   -0.234229 
13   0.155712 
14   0.15818 
15   0.158427 
16   0.163473 
17   0.161293 
18   0.154932 
19   0.150984 
20   0.125619 
21   0.150947 
22   0.154316 
23   0.158593 
24   0.152092 
25   0.133982 
26   0.291545 
 
$$$$ 
 
