PCCDB-ID:  32033 
public computational chemistry database (PCCDB) project, http://pccdb.org 
 
 15 15  0  0  1  0  0  0  0  0999 V2000 
    0.7954    0.0268   -0.2396 C   0  0  0  0  0  0  0  0  0  0  0  0 
    5.7232   -1.8094    1.1178 C   0  0  0  0  0  0  0  0  0  0  0  0 
    2.3202    0.1077   -0.2078 C   0  0  2  0  0  0  0  0  0  0  0  0 
    4.4868   -0.9397    1.3364 C   0  0  2  0  0  0  0  0  0  0  0  0 
    3.0649   -1.5235    0.2879 S   0  0  0  0  0  0  0  0  0  0  0  0 
    2.8667    1.4202    0.9657 S   0  0  0  0  0  0  0  0  0  0  0  0 
    4.8672    0.8207    0.9417 S   0  0  0  0  0  0  0  0  0  0  0  0 
    0.4739   -0.7571   -0.9334 H   0  0  0  0  0  0  0  0  0  0  0  0 
    0.3726    0.9754   -0.5889 H   0  0  0  0  0  0  0  0  0  0  0  0 
    0.3915   -0.2030    0.7503 H   0  0  0  0  0  0  0  0  0  0  0  0 
    5.4939   -2.8550    1.3488 H   0  0  0  0  0  0  0  0  0  0  0  0 
    6.5337   -1.4907    1.7828 H   0  0  0  0  0  0  0  0  0  0  0  0 
    6.0669   -1.7537    0.0811 H   0  0  0  0  0  0  0  0  0  0  0  0 
    2.7163    0.3606   -1.1936 H   0  0  0  0  0  0  0  0  0  0  0  0 
    4.1621   -0.9823    2.3783 H   0  0  0  0  0  0  0  0  0  0  0  0 
  1  3  1  0  0  0  0 
  1 10  1  0  0  0  0 
  2  4  1  0  0  0  0 
  2 11  1  0  0  0  0 
  2 12  1  0  0  0  0 
  3 14  1  6  0  0  0 
  3  5  1  0  0  0  0 
  3  6  1  0  0  0  0 
  4 15  1  1  0  0  0 
  5  4  1  0  0  0  0 
  7  6  1  0  0  0  0 
  7  4  1  0  0  0  0 
  8  1  1  0  0  0  0 
  9  1  1  0  0  0  0 
 13  2  1  0  0  0  0 
M  END 
>  <HBA> 
3 
 
>  <HBD> 
0 
 
>  <TPSA> 
75.9 
 
>  <cid> 
32033 
 
>  <dipole> 
0.92 
 
>  <excitation_energy_1> 
3.58 
 
>  <excitation_energy_2> 
3.994 
 
>  <excitation_energy_3> 
4.939 
 
>  <excitation_energy_4> 
5.173 
 
>  <homo_energy> 
-6.147 
 
>  <homo_lumo_gap> 
4.849 
 
>  <logP> 
2.807 
 
>  <lumo_energy> 
-1.298 
 
>  <melting_point> 
24.25 
 
>  <molecular_refractivity> 
42.0 
 
>  <oscillator_strength_1> 
0.0051 
 
>  <oscillator_strength_2> 
0.0021 
 
>  <oscillator_strength_3> 
0.0 
 
>  <oscillator_strength_4> 
0.0001 
 
>  <open_babel_can_smiles> 
C[C@H]1SS[C@@H](S1)C 
 
>  <mulliken_charges> 
15 
1   -0.458087 
2   -0.457705 
3   -0.403113 
4   -0.403487 
5   0.131043 
6   0.051544 
7   0.051377 
8   0.175601 
9   0.169647 
10   0.183465 
11   0.17551 
12   0.169515 
13   0.183411 
14   0.215663 
15   0.215617 
 
>  <lowdin_charges> 
15 
1   -0.445786 
2   -0.444607 
3   -0.322043 
4   -0.32057 
5   0.080328 
6   0.050451 
7   0.051185 
8   0.169036 
9   0.164155 
10   0.169674 
11   0.166945 
12   0.164795 
13   0.168991 
14   0.17416 
15   0.173286 
 
$$$$ 
 
