PCCDB-ID:  12735 
public computational chemistry database (PCCDB) project, http://pccdb.org 
 
 28 27  0  0  1  0  0  0  0  0999 V2000 
    1.0195    0.0622   -0.1776 C   0  0  0  0  0  0  0  0  0  0  0  0 
    8.8193    2.5969    3.5030 C   0  0  0  0  0  0  0  0  0  0  0  0 
    2.5505    0.0853   -0.1221 C   0  0  0  0  0  0  0  0  0  0  0  0 
    3.1028    0.9448    1.0224 C   0  0  0  0  0  0  0  0  0  0  0  0 
    4.6354    0.9803    1.0812 C   0  0  0  0  0  0  0  0  0  0  0  0 
    5.1829    1.8348    2.2315 C   0  0  0  0  0  0  0  0  0  0  0  0 
    6.7148    1.8763    2.2790 C   0  0  0  0  0  0  0  0  0  0  0  0 
    7.2912    2.7446    3.4095 C   0  0  2  0  0  0  0  0  0  0  0  0 
    6.8398    4.1367    3.2374 N   0  0  0  0  0  0  0  0  0  0  0  0 
    0.6569   -0.5619   -1.0026 H   0  0  0  0  0  0  0  0  0  0  0  0 
    0.6129    1.0711   -0.3198 H   0  0  0  0  0  0  0  0  0  0  0  0 
    0.5950   -0.3358    0.7525 H   0  0  0  0  0  0  0  0  0  0  0  0 
    9.1166    1.5581    3.6945 H   0  0  0  0  0  0  0  0  0  0  0  0 
    9.2250    3.2156    4.3132 H   0  0  0  0  0  0  0  0  0  0  0  0 
    9.2982    2.9147    2.5669 H   0  0  0  0  0  0  0  0  0  0  0  0 
    2.9455    0.4584   -1.0779 H   0  0  0  0  0  0  0  0  0  0  0  0 
    2.9285   -0.9419   -0.0180 H   0  0  0  0  0  0  0  0  0  0  0  0 
    2.7109    0.5682    1.9791 H   0  0  0  0  0  0  0  0  0  0  0  0 
    2.7200    1.9713    0.9223 H   0  0  0  0  0  0  0  0  0  0  0  0 
    5.0245    1.3634    0.1256 H   0  0  0  0  0  0  0  0  0  0  0  0 
    5.0179   -0.0478    1.1722 H   0  0  0  0  0  0  0  0  0  0  0  0 
    4.8049    1.4415    3.1872 H   0  0  0  0  0  0  0  0  0  0  0  0 
    4.8024    2.8600    2.1539 H   0  0  0  0  0  0  0  0  0  0  0  0 
    7.1033    2.2502    1.3177 H   0  0  0  0  0  0  0  0  0  0  0  0 
    7.1093    0.8558    2.3862 H   0  0  0  0  0  0  0  0  0  0  0  0 
    6.8547    2.3975    4.3575 H   0  0  0  0  0  0  0  0  0  0  0  0 
    7.2694    4.5227    2.3947 H   0  0  0  0  0  0  0  0  0  0  0  0 
    7.1871    4.7052    4.0095 H   0  0  0  0  0  0  0  0  0  0  0  0 
  1  3  1  0  0  0  0 
  1 12  1  0  0  0  0 
  2 13  1  0  0  0  0 
  2 14  1  0  0  0  0 
  3 17  1  0  0  0  0 
  3  4  1  0  0  0  0 
  4  5  1  0  0  0  0 
  4 18  1  0  0  0  0 
  5 21  1  0  0  0  0 
  5  6  1  0  0  0  0 
  6  7  1  0  0  0  0 
  6 22  1  0  0  0  0 
  7 25  1  0  0  0  0 
  7  8  1  0  0  0  0 
  8  2  1  0  0  0  0 
  8 26  1  1  0  0  0 
  9  8  1  0  0  0  0 
  9 28  1  0  0  0  0 
 10  1  1  0  0  0  0 
 11  1  1  0  0  0  0 
 15  2  1  0  0  0  0 
 16  3  1  0  0  0  0 
 19  4  1  0  0  0  0 
 20  5  1  0  0  0  0 
 23  6  1  0  0  0  0 
 24  7  1  0  0  0  0 
 27  9  1  0  0  0  0 
M  END 
>  <HBA> 
1 
 
>  <HBD> 
1 
 
>  <TPSA> 
26.02 
 
>  <cid> 
12735 
 
>  <dipole> 
1.41 
 
>  <excitation_energy_1> 
5.711 
 
>  <excitation_energy_2> 
6.346 
 
>  <excitation_energy_3> 
6.531 
 
>  <excitation_energy_4> 
6.731 
 
>  <homo_energy> 
-6.234 
 
>  <homo_lumo_gap> 
8.324 
 
>  <logP> 
3.004 
 
>  <lumo_energy> 
2.09 
 
>  <melting_point> 
26.36 
 
>  <molecular_refractivity> 
43.28 
 
>  <oscillator_strength_1> 
0.0414 
 
>  <oscillator_strength_2> 
0.0069 
 
>  <oscillator_strength_3> 
0.0079 
 
>  <oscillator_strength_4> 
0.0051 
 
>  <open_babel_can_smiles> 
CCCCCC[C@H](N)C 
 
>  <mulliken_charges> 
28 
1   -0.440795 
2   -0.446476 
3   -0.246089 
4   -0.24449 
5   -0.253437 
6   -0.248726 
7   -0.248631 
8   0.026945 
9   -0.705177 
10   0.139611 
11   0.140807 
12   0.14037 
13   0.139961 
14   0.133244 
15   0.133736 
16   0.128402 
17   0.12822 
18   0.125184 
19   0.12741 
20   0.123067 
21   0.121862 
22   0.121018 
23   0.15614 
24   0.116572 
25   0.125636 
26   0.128075 
27   0.285549 
28   0.292012 
 
>  <lowdin_charges> 
28 
1   -0.445226 
2   -0.46242 
3   -0.271023 
4   -0.273272 
5   -0.27338 
6   -0.274376 
7   -0.276786 
8   -0.062886 
9   -0.553303 
10   0.148931 
11   0.145318 
12   0.145993 
13   0.147926 
14   0.14518 
15   0.143585 
16   0.137795 
17   0.136751 
18   0.136667 
19   0.136903 
20   0.135333 
21   0.133424 
22   0.136093 
23   0.15162 
24   0.133516 
25   0.139225 
26   0.136571 
27   0.248579 
28   0.253265 
 
$$$$ 
 
