PCCDB-ID:  13402 
public computational chemistry database (PCCDB) project, http://pccdb.org 
 
 22 23  0  0  0  0  0  0  0  0999 V2000 
    1.0498   -0.0984   -0.1278 C   0  0  0  0  0  0  0  0  0  0  0  0 
    6.8871    1.9232   -0.3418 C   0  0  0  0  0  0  0  0  0  0  0  0 
    6.8454    0.4236    0.0480 C   0  0  0  0  0  0  0  0  0  0  0  0 
    5.5056    2.4872    0.0782 C   0  0  0  0  0  0  0  0  0  0  0  0 
    3.3365   -1.1949   -0.1014 C   0  0  0  0  0  0  0  0  0  0  0  0 
    4.7340   -1.1419   -0.0659 C   0  0  0  0  0  0  0  0  0  0  0  0 
    3.2131    1.2134   -0.0254 C   0  0  0  0  0  0  0  0  0  0  0  0 
    2.5599   -0.0289   -0.0821 C   0  0  0  0  0  0  0  0  0  0  0  0 
    5.3673    0.0960   -0.0144 C   0  0  0  0  0  0  0  0  0  0  0  0 
    4.6026    1.2721    0.0049 C   0  0  0  0  0  0  0  0  0  0  0  0 
    0.6981   -1.1347   -0.1519 H   0  0  0  0  0  0  0  0  0  0  0  0 
    0.6504    0.4088   -1.0152 H   0  0  0  0  0  0  0  0  0  0  0  0 
    0.5986    0.3860    0.7474 H   0  0  0  0  0  0  0  0  0  0  0  0 
    6.9970    2.0107   -1.4294 H   0  0  0  0  0  0  0  0  0  0  0  0 
    7.7242    2.4598    0.1160 H   0  0  0  0  0  0  0  0  0  0  0  0 
    7.2278    0.2752    1.0692 H   0  0  0  0  0  0  0  0  0  0  0  0 
    7.4582   -0.2032   -0.6102 H   0  0  0  0  0  0  0  0  0  0  0  0 
    5.1729    3.3136   -0.5605 H   0  0  0  0  0  0  0  0  0  0  0  0 
    5.5389    2.8777    1.1065 H   0  0  0  0  0  0  0  0  0  0  0  0 
    2.8393   -2.1612   -0.1510 H   0  0  0  0  0  0  0  0  0  0  0  0 
    5.3126   -2.0629   -0.0863 H   0  0  0  0  0  0  0  0  0  0  0  0 
    2.6244    2.1296   -0.0125 H   0  0  0  0  0  0  0  0  0  0  0  0 
  1  8  1  0  0  0  0 
  1 13  1  0  0  0  0 
  2  3  1  0  0  0  0 
  2  4  1  0  0  0  0 
  2 15  1  0  0  0  0 
  3 16  1  0  0  0  0 
  4 19  1  0  0  0  0 
  5  8  2  0  0  0  0 
  5  6  1  0  0  0  0 
  6  9  2  0  0  0  0 
  7 22  1  0  0  0  0 
  7 10  2  0  0  0  0 
  8  7  1  0  0  0  0 
  9 10  1  0  0  0  0 
  9  3  1  0  0  0  0 
 10  4  1  0  0  0  0 
 11  1  1  0  0  0  0 
 12  1  1  0  0  0  0 
 14  2  1  0  0  0  0 
 17  3  1  0  0  0  0 
 18  4  1  0  0  0  0 
 20  5  1  0  0  0  0 
 21  6  1  0  0  0  0 
M  END 
>  <HBA> 
0 
 
>  <HBD> 
0 
 
>  <TPSA> 
0.0 
 
>  <cid> 
13402 
 
>  <dipole> 
0.31 
 
>  <excitation_energy_1> 
5.016 
 
>  <excitation_energy_2> 
5.659 
 
>  <excitation_energy_3> 
5.755 
 
>  <excitation_energy_4> 
6.017 
 
>  <homo_energy> 
-5.992 
 
>  <homo_lumo_gap> 
6.087 
 
>  <logP> 
2.484 
 
>  <lumo_energy> 
0.095 
 
>  <melting_point> 
38.74 
 
>  <molecular_refractivity> 
44.03 
 
>  <oscillator_strength_1> 
0.0417 
 
>  <oscillator_strength_2> 
0.0132 
 
>  <oscillator_strength_3> 
0.0017 
 
>  <oscillator_strength_4> 
0.0078 
 
>  <open_babel_can_smiles> 
Cc1ccc2c(c1)CCC2 
 
>  <mulliken_charges> 
22 
1   -0.529954 
2   -0.280294 
3   -0.346845 
4   -0.34668 
5   -0.188498 
6   -0.196613 
7   -0.251219 
8   0.179043 
9   0.131667 
10   0.137895 
11   0.152445 
12   0.159522 
13   0.158994 
14   0.146229 
15   0.13505 
16   0.149093 
17   0.145063 
18   0.14535 
19   0.149647 
20   0.116216 
21   0.120284 
22   0.113605 
 
>  <lowdin_charges> 
22 
1   -0.44299 
2   -0.273688 
3   -0.280434 
4   -0.279318 
5   -0.172657 
6   -0.166123 
7   -0.176705 
8   -0.00033 
9   -0.018608 
10   -0.012151 
11   0.154267 
12   0.159254 
13   0.159178 
14   0.144716 
15   0.145932 
16   0.149152 
17   0.151968 
18   0.15155 
19   0.149581 
20   0.151759 
21   0.154207 
22   0.151439 
 
$$$$ 
 
