PCCDB-ID:  51363 
public computational chemistry database (PCCDB) project, http://pccdb.org 
 
 21 20  0  0  0  0  0  0  0  0999 V2000 
    4.1828   -1.6812    0.2524 C   0  0  0  0  0  0  0  0  0  0  0  0 
    3.9751   -1.8775    1.7566 C   0  0  0  0  0  0  0  0  0  0  0  0 
    4.8475   -0.9848    2.6474 C   0  0  0  0  0  0  0  0  0  0  0  0 
    7.1506   -0.2768    1.8765 C   0  0  0  0  0  0  0  0  0  0  0  0 
    6.6590    0.5362    1.0301 N   0  0  0  0  0  0  0  0  0  0  0  0 
    8.4611   -0.2117    2.4557 N   0  0  0  0  0  0  0  0  0  0  0  0 
    9.3357   -0.0292    1.6002 N   0  0  0  0  0  0  0  0  0  0  0  0 
    6.3002   -1.2041    2.5038 N   0  0  0  0  0  0  0  0  0  0  0  0 
    6.8230   -2.4058    2.9854 N   0  0  0  0  0  0  0  0  0  0  0  0 
   10.5473    0.1652    2.2303 O   0  0  0  0  0  0  0  0  0  0  0  0 
    6.0839   -3.0661    3.7084 O   0  0  0  0  0  0  0  0  0  0  0  0 
    7.9581   -2.7093    2.6340 O   0  0  0  0  0  0  0  0  0  0  0  0 
    3.5054   -2.3302   -0.3134 H   0  0  0  0  0  0  0  0  0  0  0  0 
    5.2073   -1.9258   -0.0475 H   0  0  0  0  0  0  0  0  0  0  0  0 
    3.9958   -0.6446   -0.0466 H   0  0  0  0  0  0  0  0  0  0  0  0 
    4.1378   -2.9250    2.0330 H   0  0  0  0  0  0  0  0  0  0  0  0 
    2.9336   -1.6506    2.0219 H   0  0  0  0  0  0  0  0  0  0  0  0 
    4.6031   -1.1403    3.7011 H   0  0  0  0  0  0  0  0  0  0  0  0 
    4.7035    0.0675    2.3999 H   0  0  0  0  0  0  0  0  0  0  0  0 
    7.3671    1.2179    0.7524 H   0  0  0  0  0  0  0  0  0  0  0  0 
   11.1641    0.2446    1.4811 H   0  0  0  0  0  0  0  0  0  0  0  0 
  1  2  1  0  0  0  0 
  2 17  1  0  0  0  0 
  2 16  1  0  0  0  0 
  2  3  1  0  0  0  0 
  3 18  1  0  0  0  0 
  4  6  1  0  0  0  0 
  4  8  1  0  0  0  0 
  5  4  2  0  0  0  0 
  7 10  1  0  0  0  0 
  7  6  1  0  0  0  0 
  8  3  1  0  0  0  0 
  8  9  1  0  0  0  0 
  9 11  2  0  0  0  0 
 12  9  2  0  0  0  0 
 13  1  1  0  0  0  0 
 14  1  1  0  0  0  0 
 15  1  1  0  0  0  0 
 19  3  1  0  0  0  0 
 20  5  1  0  0  0  0 
 21 10  1  0  0  0  0 
M  RAD  2   6   2   7   2 
M  END 
>  <HBA> 
5 
 
>  <HBD> 
1 
 
>  <TPSA> 
116.87 
 
>  <cid> 
51363 
 
>  <dipole> 
3.39 
 
>  <excitation_energy_1> 
3.918 
 
>  <excitation_energy_2> 
4.319 
 
>  <excitation_energy_3> 
4.513 
 
>  <excitation_energy_4> 
4.876 
 
>  <homo_energy> 
-7.51 
 
>  <homo_lumo_gap> 
5.29 
 
>  <logP> 
1.11 
 
>  <lumo_energy> 
-2.22 
 
>  <melting_point> 
99.32 
 
>  <molecular_refractivity> 
43.47 
 
>  <oscillator_strength_1> 
0.0003 
 
>  <oscillator_strength_2> 
0.0078 
 
>  <oscillator_strength_3> 
0.0157 
 
>  <oscillator_strength_4> 
0.0197 
 
>  <open_babel_can_smiles> 
CCCN(N(=O)=O)C(=N)[N][N]O 
 
>  <mulliken_charges> 
21 
1   -0.436644 
2   -0.273548 
3   -0.136159 
4   0.606785 
5   -0.580867 
6   -0.190559 
7   0.04741 
8   -0.328784 
9   0.652343 
10   -0.43942 
11   -0.404549 
12   -0.396539 
13   0.14506 
14   0.154664 
15   0.158045 
16   0.16597 
17   0.145715 
18   0.183898 
19   0.189343 
20   0.311966 
21   0.42587 
 
>  <lowdin_charges> 
21 
1   -0.445293 
2   -0.279683 
3   -0.192411 
4   0.114796 
5   -0.368908 
6   -0.095746 
7   0.036712 
8   -0.048334 
9   0.345518 
10   -0.320823 
11   -0.250847 
12   -0.240475 
13   0.15334 
14   0.152685 
15   0.154663 
16   0.154563 
17   0.151596 
18   0.168694 
19   0.177035 
20   0.271519 
21   0.3614 
 
$$$$ 
 
