PCCDB-ID:  67501 
public computational chemistry database (PCCDB) project, http://pccdb.org 
 
 13 14  0  0  0  0  0  0  0  0999 V2000 
   -2.0613   -0.7459   -0.0003 C   0  0  0  0  0  0  0  0  0  0  0  0 
   -2.0784    0.6949   -0.0004 C   0  0  0  0  0  0  0  0  0  0  0  0 
   -0.8962   -1.4631   -0.0006 C   0  0  0  0  0  0  0  0  0  0  0  0 
   -0.9307    1.4397    0.0010 C   0  0  0  0  0  0  0  0  0  0  0  0 
    0.3185   -0.7155   -0.0005 C   0  0  0  0  0  0  0  0  0  0  0  0 
    0.3014    0.7213    0.0013 C   0  0  0  0  0  0  0  0  0  0  0  0 
    1.5761   -1.1259   -0.0011 N   0  0  0  0  0  0  0  0  0  0  0  0 
    1.5489    1.1615    0.0017 N   0  0  0  0  0  0  0  0  0  0  0  0 
    2.3139    0.0267    0.0004 O   0  0  0  0  0  0  0  0  0  0  0  0 
   -3.0129   -1.2695    0.0008 H   0  0  0  0  0  0  0  0  0  0  0  0 
   -3.0422    1.1958   -0.0021 H   0  0  0  0  0  0  0  0  0  0  0  0 
   -0.8786   -2.5473   -0.0003 H   0  0  0  0  0  0  0  0  0  0  0  0 
   -0.9389    2.5240    0.0017 H   0  0  0  0  0  0  0  0  0  0  0  0 
  1 10  1  0  0  0  0 
  2  1  1  0  0  0  0 
  2  4  2  0  0  0  0 
  3  5  1  0  0  0  0 
  3  1  2  0  0  0  0 
  3 12  1  0  0  0  0 
  4  6  1  0  0  0  0 
  4 13  1  0  0  0  0 
  5  6  1  0  0  0  0 
  6  8  2  0  0  0  0 
  7  5  2  0  0  0  0 
  7  9  1  0  0  0  0 
  9  8  1  0  0  0  0 
 11  2  1  0  0  0  0 
M  END 
>  <HBA> 
3 
 
>  <HBD> 
0 
 
>  <TPSA> 
38.92 
 
>  <cid> 
67501 
 
>  <dipole> 
4.17 
 
>  <excitation_energy_1> 
4.038 
 
>  <excitation_energy_2> 
5.006 
 
>  <excitation_energy_3> 
5.01 
 
>  <excitation_energy_4> 
5.493 
 
>  <homo_energy> 
-6.86 
 
>  <homo_lumo_gap> 
4.416 
 
>  <logP> 
1.223 
 
>  <lumo_energy> 
-2.444 
 
>  <melting_point> 
77.89 
 
>  <molecular_refractivity> 
31.8 
 
>  <oscillator_strength_1> 
0.0743 
 
>  <oscillator_strength_2> 
0.0 
 
>  <oscillator_strength_3> 
0.0808 
 
>  <oscillator_strength_4> 
0.0032 
 
>  <open_babel_can_smiles> 
c1ccc2c(c1)non2 
 
>  <mulliken_charges> 
13 
1   -0.141917 
2   -0.142095 
3   -0.132562 
4   -0.132552 
5   0.27943 
6   0.279209 
7   -0.22768 
8   -0.227604 
9   -0.18443 
10   0.150575 
11   0.150567 
12   0.164524 
13   0.164535 
 
>  <lowdin_charges> 
13 
1   -0.142497 
2   -0.142356 
3   -0.14493 
4   -0.144884 
5   -0.006691 
6   -0.006733 
7   -0.050199 
8   -0.050237 
9   -0.001963 
10   0.16886 
11   0.168718 
12   0.176461 
13   0.176452 
 
$$$$ 
 
