PCCDB-ID:  14470 
public computational chemistry database (PCCDB) project, http://pccdb.org 
 
 15 14  0  0  0  0  0  0  0  0999 V2000 
    2.6160    0.3378    1.6028 C   0  0  0  0  0  0  0  0  0  0  0  0 
    0.8406   -2.5148   -0.5631 C   0  0  0  0  0  0  0  0  0  0  0  0 
    2.4351   -0.0226    0.1163 C   0  0  0  0  0  0  0  0  0  0  0  0 
    2.9267   -1.4246   -0.2093 C   0  0  0  0  0  0  0  0  0  0  0  0 
    2.2824   -2.4745   -0.4949 N   0  0  0  0  0  0  0  0  0  0  0  0 
    4.2935   -1.5615   -0.1463 O   0  0  0  0  0  0  0  0  0  0  0  0 
    2.2815    1.3625    1.7953 H   0  0  0  0  0  0  0  0  0  0  0  0 
    3.6637    0.2623    1.9151 H   0  0  0  0  0  0  0  0  0  0  0  0 
    2.0347   -0.3370    2.2394 H   0  0  0  0  0  0  0  0  0  0  0  0 
    0.4694   -3.2537    0.1586 H   0  0  0  0  0  0  0  0  0  0  0  0 
    0.5389   -2.8694   -1.5568 H   0  0  0  0  0  0  0  0  0  0  0  0 
    0.3147   -1.5665   -0.3697 H   0  0  0  0  0  0  0  0  0  0  0  0 
    2.9891    0.6922   -0.5096 H   0  0  0  0  0  0  0  0  0  0  0  0 
    1.3839    0.0825   -0.1620 H   0  0  0  0  0  0  0  0  0  0  0  0 
    4.6922   -0.6913    0.0052 H   0  0  0  0  0  0  0  0  0  0  0  0 
  1  7  1  0  0  0  0 
  1  8  1  0  0  0  0 
  1  9  1  0  0  0  0 
  2  5  1  0  0  0  0 
  2 12  1  0  0  0  0 
  2 10  1  0  0  0  0 
  3  1  1  0  0  0  0 
  4  6  1  0  0  0  0 
  4  3  1  0  0  0  0 
  5  4  2  0  0  0  0 
  6 15  1  0  0  0  0 
 11  2  1  0  0  0  0 
 13  3  1  0  0  0  0 
 14  3  1  0  0  0  0 
M  END 
>  <HBA> 
2 
 
>  <HBD> 
1 
 
>  <TPSA> 
29.1 
 
>  <cid> 
14470 
 
>  <dipole> 
3.62 
 
>  <excitation_energy_1> 
5.511 
 
>  <excitation_energy_2> 
5.894 
 
>  <excitation_energy_3> 
5.969 
 
>  <excitation_energy_4> 
6.332 
 
>  <homo_energy> 
-6.463 
 
>  <homo_lumo_gap> 
7.249 
 
>  <logP> 
0.533 
 
>  <lumo_energy> 
0.786 
 
>  <melting_point> 
23.34 
 
>  <molecular_refractivity> 
24.34 
 
>  <oscillator_strength_1> 
0.0001 
 
>  <oscillator_strength_2> 
0.0183 
 
>  <oscillator_strength_3> 
0.0018 
 
>  <oscillator_strength_4> 
0.0177 
 
>  <open_babel_can_smiles> 
CC/C(=N\C)/O 
 
>  <mulliken_charges> 
15 
1   -0.442039 
2   -0.322045 
3   -0.364139 
4   0.492862 
5   -0.402811 
6   -0.583408 
7   0.156409 
8   0.145562 
9   0.167011 
10   0.15871 
11   0.159199 
12   0.119526 
13   0.148948 
14   0.165183 
15   0.40103 
 
>  <lowdin_charges> 
15 
1   -0.439862 
2   -0.355637 
3   -0.310794 
4   0.12583 
5   -0.20207 
6   -0.377924 
7   0.155539 
8   0.146822 
9   0.161273 
10   0.155161 
11   0.153608 
12   0.123876 
13   0.153535 
14   0.160882 
15   0.349761 
 
$$$$ 
 
