PCCDB-ID:  61128 
public computational chemistry database (PCCDB) project, http://pccdb.org 
 
 25 25  0  0  0  0  0  0  0  0999 V2000 
    0.9251   -0.0888   -0.0272 C   0  0  0  0  0  0  0  0  0  0  0  0 
    3.1928   -1.2642    0.2391 C   0  0  0  0  0  0  0  0  0  0  0  0 
    2.4487    4.9092   -1.1657 C   0  0  0  0  0  0  0  0  0  0  0  0 
    5.4197    2.4161   -0.6209 C   0  0  0  0  0  0  0  0  0  0  0  0 
    4.5766    3.6241   -0.8784 C   0  0  0  0  0  0  0  0  0  0  0  0 
    4.6544    1.1056   -0.3156 C   0  0  0  0  0  0  0  0  0  0  0  0 
    2.4333    0.0122   -0.0568 C   0  0  0  0  0  0  0  0  0  0  0  0 
    3.2349    3.6551   -0.8885 C   0  0  0  0  0  0  0  0  0  0  0  0 
    3.1291    1.1526   -0.3270 C   0  0  0  0  0  0  0  0  0  0  0  0 
    2.4289    2.4288   -0.6241 C   0  0  0  0  0  0  0  0  0  0  0  0 
    1.1984    2.5207   -0.6608 O   0  0  0  0  0  0  0  0  0  0  0  0 
    0.6132   -1.1031    0.2406 H   0  0  0  0  0  0  0  0  0  0  0  0 
    0.4852    0.1731   -0.9950 H   0  0  0  0  0  0  0  0  0  0  0  0 
    0.4860    0.6185    0.6829 H   0  0  0  0  0  0  0  0  0  0  0  0 
    2.5169   -2.1021    0.4253 H   0  0  0  0  0  0  0  0  0  0  0  0 
    3.8415   -1.1556    1.1199 H   0  0  0  0  0  0  0  0  0  0  0  0 
    3.8547   -1.5452   -0.5919 H   0  0  0  0  0  0  0  0  0  0  0  0 
    3.1137    5.7585   -1.3510 H   0  0  0  0  0  0  0  0  0  0  0  0 
    1.7901    5.1520   -0.3243 H   0  0  0  0  0  0  0  0  0  0  0  0 
    1.7941    4.7755   -2.0342 H   0  0  0  0  0  0  0  0  0  0  0  0 
    6.1065    2.6492    0.2057 H   0  0  0  0  0  0  0  0  0  0  0  0 
    6.0781    2.2711   -1.4901 H   0  0  0  0  0  0  0  0  0  0  0  0 
    5.1249    4.5461   -1.0774 H   0  0  0  0  0  0  0  0  0  0  0  0 
    4.9841    0.7314    0.6630 H   0  0  0  0  0  0  0  0  0  0  0  0 
    4.9851    0.3381   -1.0285 H   0  0  0  0  0  0  0  0  0  0  0  0 
  1 12  1  0  0  0  0 
  1 14  1  0  0  0  0 
  2 15  1  0  0  0  0 
  2 16  1  0  0  0  0 
  3  8  1  0  0  0  0 
  3 19  1  0  0  0  0 
  4  6  1  0  0  0  0 
  4 21  1  0  0  0  0 
  5  4  1  0  0  0  0 
  6 24  1  0  0  0  0 
  7  1  1  0  0  0  0 
  7  2  1  0  0  0  0 
  8  5  2  0  0  0  0 
  8 10  1  0  0  0  0 
  9  6  1  0  0  0  0 
  9  7  2  0  0  0  0 
 10  9  1  0  0  0  0 
 11 10  2  0  0  0  0 
 13  1  1  0  0  0  0 
 17  2  1  0  0  0  0 
 18  3  1  0  0  0  0 
 20  3  1  0  0  0  0 
 22  4  1  0  0  0  0 
 23  5  1  0  0  0  0 
 25  6  1  0  0  0  0 
M  END 
>  <HBA> 
1 
 
>  <HBD> 
0 
 
>  <TPSA> 
17.07 
 
>  <cid> 
61128 
 
>  <dipole> 
3.18 
 
>  <excitation_energy_1> 
3.357 
 
>  <excitation_energy_2> 
4.325 
 
>  <excitation_energy_3> 
5.156 
 
>  <excitation_energy_4> 
5.487 
 
>  <homo_energy> 
-6.193 
 
>  <homo_lumo_gap> 
4.846 
 
>  <logP> 
2.632 
 
>  <lumo_energy> 
-1.347 
 
>  <melting_point> 
44.59 
 
>  <molecular_refractivity> 
47.32 
 
>  <oscillator_strength_1> 
0.0 
 
>  <oscillator_strength_2> 
0.2058 
 
>  <oscillator_strength_3> 
0.0909 
 
>  <oscillator_strength_4> 
0.0 
 
>  <open_babel_can_smiles> 
CC(=C1CCC=C(C1=O)C)C 
 
>  <mulliken_charges> 
25 
1   -0.478746 
2   -0.515183 
3   -0.502189 
4   -0.312026 
5   -0.170085 
6   -0.360742 
7   0.098122 
8   0.12686 
9   0.078237 
10   0.34549 
11   -0.509438 
12   0.127736 
13   0.181216 
14   0.182244 
15   0.155957 
16   0.164938 
17   0.164687 
18   0.138244 
19   0.167756 
20   0.168517 
21   0.15672 
22   0.157504 
23   0.127337 
24   0.153454 
25   0.15339 
 
>  <lowdin_charges> 
25 
1   -0.444132 
2   -0.447661 
3   -0.435992 
4   -0.27676 
5   -0.144277 
6   -0.278689 
7   0.039657 
8   -0.044445 
9   -0.078068 
10   0.139034 
11   -0.268524 
12   0.141763 
13   0.175093 
14   0.176795 
15   0.158188 
16   0.162509 
17   0.162706 
18   0.149865 
19   0.166472 
20   0.166651 
21   0.158293 
22   0.158268 
23   0.154667 
24   0.153668 
25   0.154921 
 
$$$$ 
 
