PCCDB-ID:  38620 
public computational chemistry database (PCCDB) project, http://pccdb.org 
 
 35 36  0  0  1  0  0  0  0  0999 V2000 
    2.7538   -0.9936   -3.7659 C   0  0  0  0  0  0  0  0  0  0  0  0 
    6.9869   -4.6687    1.8722 C   0  0  0  0  0  0  0  0  0  0  0  0 
    3.5169   -0.1488   -3.0737 C   0  0  0  0  0  0  0  0  0  0  0  0 
    7.5132   -3.5939    1.2819 C   0  0  0  0  0  0  0  0  0  0  0  0 
    7.1824    0.5744   -0.4541 C   0  0  0  0  0  0  0  0  0  0  0  0 
    3.5840   -0.0754   -1.5649 C   0  0  0  0  0  0  0  0  0  0  0  0 
    7.3364   -3.2366   -0.1777 C   0  0  0  0  0  0  0  0  0  0  0  0 
    5.8638    0.7776   -0.8586 C   0  0  0  0  0  0  0  0  0  0  0  0 
    7.6463   -0.7211   -0.2385 C   0  0  0  0  0  0  0  0  0  0  0  0 
    3.0568   -5.4956    0.8325 C   0  0  0  0  0  0  0  0  0  0  0  0 
    3.9578   -3.1639    0.1641 C   0  0  0  0  0  0  0  0  0  0  0  0 
    4.9926   -0.3015   -1.0414 C   0  0  0  0  0  0  0  0  0  0  0  0 
    6.8048   -1.8292   -0.3983 C   0  0  0  0  0  0  0  0  0  0  0  0 
    3.3113   -4.4737   -0.1918 C   0  0  1  0  0  0  0  0  0  0  0  0 
    5.4745   -1.5983   -0.7911 C   0  0  0  0  0  0  0  0  0  0  0  0 
    4.1308   -5.6491   -0.1039 O   0  0  0  0  0  0  0  0  0  0  0  0 
    4.6268   -2.6751   -1.0042 O   0  0  0  0  0  0  0  0  0  0  0  0 
    2.7471   -0.9985   -4.8527 H   0  0  0  0  0  0  0  0  0  0  0  0 
    2.1097   -1.7181   -3.2722 H   0  0  0  0  0  0  0  0  0  0  0  0 
    7.1683   -4.8847    2.9224 H   0  0  0  0  0  0  0  0  0  0  0  0 
    6.3580   -5.3667    1.3237 H   0  0  0  0  0  0  0  0  0  0  0  0 
    4.1610    0.5524   -3.6058 H   0  0  0  0  0  0  0  0  0  0  0  0 
    8.1314   -2.9099    1.8657 H   0  0  0  0  0  0  0  0  0  0  0  0 
    7.8487    1.4222   -0.3193 H   0  0  0  0  0  0  0  0  0  0  0  0 
    2.8870   -0.8030   -1.1389 H   0  0  0  0  0  0  0  0  0  0  0  0 
    3.2494    0.9197   -1.2388 H   0  0  0  0  0  0  0  0  0  0  0  0 
    6.6779   -3.9640   -0.6594 H   0  0  0  0  0  0  0  0  0  0  0  0 
    8.3155   -3.3088   -0.6743 H   0  0  0  0  0  0  0  0  0  0  0  0 
    5.5012    1.7868   -1.0417 H   0  0  0  0  0  0  0  0  0  0  0  0 
    8.6824   -0.8833    0.0516 H   0  0  0  0  0  0  0  0  0  0  0  0 
    2.2233   -6.1868    0.7093 H   0  0  0  0  0  0  0  0  0  0  0  0 
    3.3611   -5.3140    1.8638 H   0  0  0  0  0  0  0  0  0  0  0  0 
    4.6666   -3.3070    0.9876 H   0  0  0  0  0  0  0  0  0  0  0  0 
    3.1905   -2.4425    0.4876 H   0  0  0  0  0  0  0  0  0  0  0  0 
    2.6718   -4.4465   -1.0756 H   0  0  0  0  0  0  0  0  0  0  0  0 
  1 19  1  0  0  0  0 
  1  3  2  0  0  0  0 
  2 20  1  0  0  0  0 
  3  6  1  0  0  0  0 
  4 23  1  0  0  0  0 
  4  2  2  0  0  0  0 
  5 24  1  0  0  0  0 
  5  9  2  0  0  0  0 
  6 26  1  0  0  0  0 
  6 25  1  0  0  0  0 
  6 12  1  0  0  0  0 
  7  4  1  0  0  0  0 
  8  5  1  0  0  0  0 
  9 30  1  0  0  0  0 
 10 32  1  0  0  0  0 
 11 34  1  0  0  0  0 
 11 33  1  0  0  0  0 
 12  8  2  0  0  0  0 
 12 15  1  0  0  0  0 
 13  9  1  0  0  0  0 
 13  7  1  0  0  0  0 
 14 35  1  6  0  0  0 
 14 16  1  0  0  0  0 
 14 11  1  0  0  0  0 
 14 10  1  0  0  0  0 
 15 13  2  0  0  0  0 
 16 10  1  0  0  0  0 
 17 15  1  0  0  0  0 
 17 11  1  0  0  0  0 
 18  1  1  0  0  0  0 
 21  2  1  0  0  0  0 
 22  3  1  0  0  0  0 
 27  7  1  0  0  0  0 
 28  7  1  0  0  0  0 
 29  8  1  0  0  0  0 
 31 10  1  0  0  0  0 
M  END 
>  <HBA> 
2 
 
>  <HBD> 
0 
 
>  <TPSA> 
21.76 
 
>  <cid> 
38620 
 
>  <dipole> 
2.39 
 
>  <excitation_energy_1> 
5.062 
 
>  <excitation_energy_2> 
5.554 
 
>  <excitation_energy_3> 
5.755 
 
>  <excitation_energy_4> 
5.849 
 
>  <homo_energy> 
-6.283 
 
>  <homo_lumo_gap> 
6.133 
 
>  <logP> 
2.921 
 
>  <lumo_energy> 
-0.15 
 
>  <melting_point> 
-13.45 
 
>  <molecular_refractivity> 
69.73 
 
>  <oscillator_strength_1> 
0.0242 
 
>  <oscillator_strength_2> 
0.0279 
 
>  <oscillator_strength_3> 
0.1469 
 
>  <oscillator_strength_4> 
0.0475 
 
>  <open_babel_can_smiles> 
C=CCc1cccc(c1OC[C@@H]1CO1)CC=C 
 
>  <mulliken_charges> 
35 
1   -0.33121 
2   -0.360639 
3   -0.024926 
4   -0.041654 
5   -0.113861 
6   -0.38701 
7   -0.408641 
8   -0.208958 
9   -0.207912 
10   -0.117639 
11   -0.054618 
12   0.144099 
13   0.166931 
14   0.088675 
15   0.228464 
16   -0.43092 
17   -0.542889 
18   0.138334 
19   0.131626 
20   0.133596 
21   0.166491 
22   0.128796 
23   0.126456 
24   0.126672 
25   0.147566 
26   0.149414 
27   0.182881 
28   0.158091 
29   0.122881 
30   0.124094 
31   0.157 
32   0.155454 
33   0.161101 
34   0.13388 
35   0.158374 
 
>  <lowdin_charges> 
35 
1   -0.336997 
2   -0.352145 
3   -0.140397 
4   -0.144785 
5   -0.161994 
6   -0.26868 
7   -0.27644 
8   -0.168461 
9   -0.164572 
10   -0.162374 
11   -0.136593 
12   -0.01839 
13   -0.016862 
14   -0.025656 
15   0.078442 
16   -0.281186 
17   -0.233159 
18   0.156499 
19   0.153776 
20   0.154052 
21   0.167491 
22   0.152538 
23   0.149683 
24   0.158231 
25   0.156656 
26   0.154657 
27   0.172534 
28   0.160381 
29   0.153869 
30   0.153602 
31   0.157852 
32   0.153785 
33   0.157956 
34   0.139197 
35   0.157491 
 
$$$$ 
 
