PCCDB-ID:  7221 
public computational chemistry database (PCCDB) project, http://pccdb.org 
 
 15 16  0  0  0  0  0  0  0  0999 V2000 
    2.1472    0.7301   -0.0002 C   0  0  0  0  0  0  0  0  0  0  0  0 
    2.2031   -0.6757   -0.0002 C   0  0  0  0  0  0  0  0  0  0  0  0 
    0.9272    1.3918    0.0002 C   0  0  0  0  0  0  0  0  0  0  0  0 
    1.0379   -1.4348    0.0002 C   0  0  0  0  0  0  0  0  0  0  0  0 
   -1.6327    1.1127    0.0005 C   0  0  0  0  0  0  0  0  0  0  0  0 
   -2.5368    0.1002    0.0004 C   0  0  0  0  0  0  0  0  0  0  0  0 
   -0.2681    0.6489    0.0005 C   0  0  0  0  0  0  0  0  0  0  0  0 
   -0.1907   -0.7668    0.0005 C   0  0  0  0  0  0  0  0  0  0  0  0 
   -1.7948   -1.4869    0.0005 S   0  0  0  0  0  0  0  0  0  0  0  0 
    3.0707    1.3024   -0.0006 H   0  0  0  0  0  0  0  0  0  0  0  0 
    3.1675   -1.1760   -0.0005 H   0  0  0  0  0  0  0  0  0  0  0  0 
    0.8881    2.4781    0.0004 H   0  0  0  0  0  0  0  0  0  0  0  0 
    1.0826   -2.5201    0.0002 H   0  0  0  0  0  0  0  0  0  0  0  0 
   -1.9082    2.1621    0.0006 H   0  0  0  0  0  0  0  0  0  0  0  0 
   -3.6163    0.1769    0.0002 H   0  0  0  0  0  0  0  0  0  0  0  0 
  1  3  1  0  0  0  0 
  2  1  2  0  0  0  0 
  2  4  1  0  0  0  0 
  3 12  1  0  0  0  0 
  3  7  2  0  0  0  0 
  4 13  1  0  0  0  0 
  4  8  2  0  0  0  0 
  5  7  1  0  0  0  0 
  5 14  1  0  0  0  0 
  6  9  1  0  0  0  0 
  6  5  2  0  0  0  0 
  8  9  1  0  0  0  0 
  8  7  1  0  0  0  0 
 10  1  1  0  0  0  0 
 11  2  1  0  0  0  0 
 15  6  1  0  0  0  0 
M  END 
>  <HBA> 
1 
 
>  <HBD> 
0 
 
>  <TPSA> 
28.24 
 
>  <cid> 
7221 
 
>  <dipole> 
0.74 
 
>  <excitation_energy_1> 
4.623 
 
>  <excitation_energy_2> 
4.837 
 
>  <excitation_energy_3> 
5.058 
 
>  <excitation_energy_4> 
5.463 
 
>  <homo_energy> 
-5.883 
 
>  <homo_lumo_gap> 
5.238 
 
>  <logP> 
2.901 
 
>  <lumo_energy> 
-0.645 
 
>  <melting_point> 
46.88 
 
>  <molecular_refractivity> 
41.83 
 
>  <oscillator_strength_1> 
0.0644 
 
>  <oscillator_strength_2> 
0.0229 
 
>  <oscillator_strength_3> 
0.0 
 
>  <oscillator_strength_4> 
0.265 
 
>  <open_babel_can_smiles> 
c1ccc2c(c1)scc2 
 
>  <mulliken_charges> 
15 
1   -0.140947 
2   -0.123224 
3   -0.177841 
4   -0.164125 
5   -0.123732 
6   -0.350484 
7   0.149439 
8   -0.149486 
9   0.227939 
10   0.130539 
11   0.131438 
12   0.130984 
13   0.140698 
14   0.144124 
15   0.174678 
 
>  <lowdin_charges> 
15 
1   -0.16237 
2   -0.158891 
3   -0.155439 
4   -0.15771 
5   -0.182438 
6   -0.296806 
7   -0.017194 
8   -0.137254 
9   0.282286 
10   0.159179 
11   0.159768 
12   0.157586 
13   0.162284 
14   0.166232 
15   0.180766 
 
$$$$ 
 
