PCCDB-ID:  16278 
public computational chemistry database (PCCDB) project, http://pccdb.org 
 
 20 19  0  0  0  0  0  0  0  0999 V2000 
    3.7300    1.0911   -0.7869 C   0  0  0  0  0  0  0  0  0  0  0  0 
   -1.6441   -0.0822   -0.0603 C   0  0  0  0  0  0  0  0  0  0  0  0 
   -0.3474   -2.0125    0.7446 C   0  0  0  0  0  0  0  0  0  0  0  0 
    2.0828   -0.8947   -0.4261 C   0  0  0  0  0  0  0  0  0  0  0  0 
    3.1833   -0.2350   -1.2676 C   0  0  0  0  0  0  0  0  0  0  0  0 
    0.7484   -0.1405   -0.5232 C   0  0  0  0  0  0  0  0  0  0  0  0 
   -0.3421   -0.7239    0.0719 N   0  0  0  0  0  0  0  0  0  0  0  0 
    3.6019   -0.7964   -2.2601 O   0  0  0  0  0  0  0  0  0  0  0  0 
    0.6726    0.9358   -1.1112 O   0  0  0  0  0  0  0  0  0  0  0  0 
    4.1001    1.0059    0.2431 H   0  0  0  0  0  0  0  0  0  0  0  0 
    2.9217    1.8292   -0.7898 H   0  0  0  0  0  0  0  0  0  0  0  0 
    4.5405    1.4145   -1.4430 H   0  0  0  0  0  0  0  0  0  0  0  0 
   -2.0654    0.1334    0.9299 H   0  0  0  0  0  0  0  0  0  0  0  0 
   -2.3418   -0.7370   -0.5990 H   0  0  0  0  0  0  0  0  0  0  0  0 
   -1.5167    0.8466   -0.6138 H   0  0  0  0  0  0  0  0  0  0  0  0 
   -0.8952   -1.9301    1.6915 H   0  0  0  0  0  0  0  0  0  0  0  0 
    0.6633   -2.3484    0.9718 H   0  0  0  0  0  0  0  0  0  0  0  0 
   -0.8422   -2.7812    0.1336 H   0  0  0  0  0  0  0  0  0  0  0  0 
    2.4014   -0.9394    0.6250 H   0  0  0  0  0  0  0  0  0  0  0  0 
    1.9749   -1.9209   -0.7898 H   0  0  0  0  0  0  0  0  0  0  0  0 
  1 10  1  0  0  0  0 
  2  7  1  0  0  0  0 
  2 13  1  0  0  0  0 
  3 17  1  0  0  0  0 
  3 16  1  0  0  0  0 
  4 19  1  0  0  0  0 
  5  1  1  0  0  0  0 
  5  4  1  0  0  0  0 
  6  4  1  0  0  0  0 
  6  7  1  0  0  0  0 
  7  3  1  0  0  0  0 
  8  5  2  0  0  0  0 
  9  6  2  0  0  0  0 
 11  1  1  0  0  0  0 
 12  1  1  0  0  0  0 
 14  2  1  0  0  0  0 
 15  2  1  0  0  0  0 
 18  3  1  0  0  0  0 
 20  4  1  0  0  0  0 
M  END 
>  <HBA> 
3 
 
>  <HBD> 
0 
 
>  <TPSA> 
37.38 
 
>  <cid> 
16278 
 
>  <dipole> 
4.91 
 
>  <excitation_energy_1> 
4.408 
 
>  <excitation_energy_2> 
5.515 
 
>  <excitation_energy_3> 
5.614 
 
>  <excitation_energy_4> 
5.683 
 
>  <homo_energy> 
-6.588 
 
>  <homo_lumo_gap> 
6.327 
 
>  <logP> 
0.054 
 
>  <lumo_energy> 
-0.261 
 
>  <melting_point> 
18.85 
 
>  <molecular_refractivity> 
34.25 
 
>  <oscillator_strength_1> 
0.0001 
 
>  <oscillator_strength_2> 
0.0077 
 
>  <oscillator_strength_3> 
0.0029 
 
>  <oscillator_strength_4> 
0.0011 
 
>  <open_babel_can_smiles> 
CC(=O)CC(=O)N(C)C 
 
>  <mulliken_charges> 
20 
1   -0.537707 
2   -0.324087 
3   -0.317034 
4   -0.472571 
5   0.478823 
6   0.606324 
7   -0.406715 
8   -0.430854 
9   -0.514206 
10   0.1531 
11   0.209599 
12   0.174304 
13   0.153505 
14   0.155049 
15   0.20978 
16   0.163108 
17   0.175017 
18   0.164062 
19   0.172112 
20   0.188391 
 
>  <lowdin_charges> 
20 
1   -0.479603 
2   -0.356971 
3   -0.352228 
4   -0.339827 
5   0.181328 
6   0.162009 
7   -0.103906 
8   -0.22877 
9   -0.314612 
10   0.161126 
11   0.190856 
12   0.171509 
13   0.149774 
14   0.151604 
15   0.187099 
16   0.155632 
17   0.166104 
18   0.153105 
19   0.169092 
20   0.17668 
 
$$$$ 
 
