PCCDB-ID:  7048 
public computational chemistry database (PCCDB) project, http://pccdb.org 
 
 18 18  0  0  0  0  0  0  0  0999 V2000 
    3.3180    0.7890    1.0251 C   0  0  0  0  0  0  0  0  0  0  0  0 
    4.0521    0.7241   -3.9768 C   0  0  0  0  0  0  0  0  0  0  0  0 
    3.9978    1.7383   -3.0202 C   0  0  0  0  0  0  0  0  0  0  0  0 
    3.9098   -0.5970   -3.5674 C   0  0  0  0  0  0  0  0  0  0  0  0 
    3.8017    1.4424   -1.6726 C   0  0  0  0  0  0  0  0  0  0  0  0 
    3.7351   -0.9046   -2.2186 C   0  0  0  0  0  0  0  0  0  0  0  0 
    3.6690    0.1136   -1.2375 C   0  0  0  0  0  0  0  0  0  0  0  0 
    3.6310   -2.3278   -1.8725 N   0  0  0  0  0  0  0  0  0  0  0  0 
    3.2088   -3.0862   -2.7501 O   0  0  0  0  0  0  0  0  0  0  0  0 
    3.9902   -2.6884   -0.7550 O   0  0  0  0  0  0  0  0  0  0  0  0 
    3.4464   -0.2352    0.0456 O   0  0  0  0  0  0  0  0  0  0  0  0 
    3.1302    0.2675    1.9642 H   0  0  0  0  0  0  0  0  0  0  0  0 
    2.4763    1.4561    0.8008 H   0  0  0  0  0  0  0  0  0  0  0  0 
    4.2399    1.3768    1.1125 H   0  0  0  0  0  0  0  0  0  0  0  0 
    4.2034    0.9568   -5.0257 H   0  0  0  0  0  0  0  0  0  0  0  0 
    4.1039    2.7771   -3.3206 H   0  0  0  0  0  0  0  0  0  0  0  0 
    3.9340   -1.4165   -4.2754 H   0  0  0  0  0  0  0  0  0  0  0  0 
    3.7488    2.2511   -0.9541 H   0  0  0  0  0  0  0  0  0  0  0  0 
  1 14  1  0  0  0  0 
  1 12  1  0  0  0  0 
  2  4  2  0  0  0  0 
  2  3  1  0  0  0  0 
  3  5  2  0  0  0  0 
  4  6  1  0  0  0  0 
  5  7  1  0  0  0  0 
  5 18  1  0  0  0  0 
  6  8  1  0  0  0  0 
  6  7  2  0  0  0  0 
  7 11  1  0  0  0  0 
  8 10  2  0  0  0  0 
  9  8  2  0  0  0  0 
 11  1  1  0  0  0  0 
 13  1  1  0  0  0  0 
 15  2  1  0  0  0  0 
 16  3  1  0  0  0  0 
 17  4  1  0  0  0  0 
M  END 
>  <HBA> 
1 
 
>  <HBD> 
0 
 
>  <TPSA> 
55.05 
 
>  <cid> 
7048 
 
>  <dipole> 
5.61 
 
>  <excitation_energy_1> 
3.68 
 
>  <excitation_energy_2> 
3.805 
 
>  <excitation_energy_3> 
4.258 
 
>  <excitation_energy_4> 
4.853 
 
>  <homo_energy> 
-6.648 
 
>  <homo_lumo_gap> 
4.596 
 
>  <logP> 
2.127 
 
>  <lumo_energy> 
-2.052 
 
>  <melting_point> 
48.22 
 
>  <molecular_refractivity> 
41.76 
 
>  <oscillator_strength_1> 
0.0225 
 
>  <oscillator_strength_2> 
0.0569 
 
>  <oscillator_strength_3> 
0.0028 
 
>  <oscillator_strength_4> 
0.11 
 
>  <open_babel_can_smiles> 
COc1ccccc1N(=O)=O 
 
>  <mulliken_charges> 
18 
1   -0.224319 
2   -0.14454 
3   -0.115591 
4   -0.148548 
5   -0.210134 
6   0.232137 
7   0.380348 
8   0.355437 
9   -0.396422 
10   -0.374501 
11   -0.479598 
12   0.186774 
13   0.158736 
14   0.160883 
15   0.144759 
16   0.145484 
17   0.181747 
18   0.147345 
 
>  <lowdin_charges> 
18 
1   -0.277028 
2   -0.170494 
3   -0.123501 
4   -0.128958 
5   -0.210477 
6   -0.021317 
7   0.116954 
8   0.308691 
9   -0.260251 
10   -0.231427 
11   -0.165749 
12   0.172364 
13   0.150422 
14   0.151072 
15   0.165575 
16   0.164854 
17   0.188007 
18   0.171264 
 
$$$$ 
 
