PCCDB-ID:  12984 
public computational chemistry database (PCCDB) project, http://pccdb.org 
 
 21 20  0  0  0  0  0  0  0  0999 V2000 
    2.0730    1.0888   -0.0022 C   0  0  0  0  0  0  0  0  0  0  0  0 
    5.6566    0.9330   -0.9840 C   0  0  0  0  0  0  0  0  0  0  0  0 
    5.7452   -1.1442    0.4358 C   0  0  0  0  0  0  0  0  0  0  0  0 
    5.7845   -1.3319   -2.0657 C   0  0  0  0  0  0  0  0  0  0  0  0 
    2.9088    0.0625    0.1671 C   0  0  0  0  0  0  0  0  0  0  0  0 
    3.6579   -0.6337   -0.9374 C   0  0  0  0  0  0  0  0  0  0  0  0 
    5.2125   -0.5371   -0.8765 C   0  0  0  0  0  0  0  0  0  0  0  0 
    1.5495    1.5465    0.8333 H   0  0  0  0  0  0  0  0  0  0  0  0 
    1.8742    1.5076   -0.9870 H   0  0  0  0  0  0  0  0  0  0  0  0 
    6.7504    1.0127   -0.9598 H   0  0  0  0  0  0  0  0  0  0  0  0 
    5.2536    1.5326   -0.1609 H   0  0  0  0  0  0  0  0  0  0  0  0 
    5.3098    1.3818   -1.9233 H   0  0  0  0  0  0  0  0  0  0  0  0 
    6.8419   -1.1344    0.4477 H   0  0  0  0  0  0  0  0  0  0  0  0 
    5.4208   -2.1860    0.5535 H   0  0  0  0  0  0  0  0  0  0  0  0 
    5.4034   -0.5828    1.3125 H   0  0  0  0  0  0  0  0  0  0  0  0 
    6.8807   -1.2921   -2.0735 H   0  0  0  0  0  0  0  0  0  0  0  0 
    5.4289   -0.9273   -3.0214 H   0  0  0  0  0  0  0  0  0  0  0  0 
    5.4890   -2.3876   -2.0180 H   0  0  0  0  0  0  0  0  0  0  0  0 
    3.0656   -0.3206    1.1762 H   0  0  0  0  0  0  0  0  0  0  0  0 
    3.3205   -0.2359   -1.9041 H   0  0  0  0  0  0  0  0  0  0  0  0 
    3.3891   -1.7017   -0.9286 H   0  0  0  0  0  0  0  0  0  0  0  0 
  1  5  2  0  0  0  0 
  1  8  1  0  0  0  0 
  2 10  1  0  0  0  0 
  2  7  1  0  0  0  0 
  2 11  1  0  0  0  0 
  3 13  1  0  0  0  0 
  3 14  1  0  0  0  0 
  3 15  1  0  0  0  0 
  4 18  1  0  0  0  0 
  4  7  1  0  0  0  0 
  5 19  1  0  0  0  0 
  6 21  1  0  0  0  0 
  6  7  1  0  0  0  0 
  6  5  1  0  0  0  0 
  7  3  1  0  0  0  0 
  9  1  1  0  0  0  0 
 12  2  1  0  0  0  0 
 16  4  1  0  0  0  0 
 17  4  1  0  0  0  0 
 20  6  1  0  0  0  0 
M  END 
>  <HBA> 
0 
 
>  <HBD> 
0 
 
>  <TPSA> 
0.0 
 
>  <cid> 
12984 
 
>  <dipole> 
0.27 
 
>  <excitation_energy_1> 
6.384 
 
>  <excitation_energy_2> 
6.743 
 
>  <excitation_energy_3> 
6.862 
 
>  <excitation_energy_4> 
6.906 
 
>  <homo_energy> 
-6.765 
 
>  <homo_lumo_gap> 
7.388 
 
>  <logP> 
2.609 
 
>  <lumo_energy> 
0.623 
 
>  <melting_point> 
-29.14 
 
>  <molecular_refractivity> 
35.03 
 
>  <oscillator_strength_1> 
0.016 
 
>  <oscillator_strength_2> 
0.1213 
 
>  <oscillator_strength_3> 
0.091 
 
>  <oscillator_strength_4> 
0.1019 
 
>  <open_babel_can_smiles> 
C=CCC(C)(C)C 
 
>  <mulliken_charges> 
21 
1   -0.34236 
2   -0.43971 
3   -0.446828 
4   -0.439757 
5   -0.044259 
6   -0.298155 
7   0.098185 
8   0.136671 
9   0.134114 
10   0.135269 
11   0.149241 
12   0.134574 
13   0.139398 
14   0.136003 
15   0.143053 
16   0.138504 
17   0.137765 
18   0.136603 
19   0.125972 
20   0.131034 
21   0.134682 
 
>  <lowdin_charges> 
21 
1   -0.344381 
2   -0.443402 
3   -0.442628 
4   -0.438144 
5   -0.145274 
6   -0.271726 
7   0.017071 
8   0.157852 
9   0.152729 
10   0.143864 
11   0.153757 
12   0.145706 
13   0.146253 
14   0.144411 
15   0.148778 
16   0.145188 
17   0.1463 
18   0.144249 
19   0.148827 
20   0.144881 
21   0.145691 
 
$$$$ 
 
