PCCDB-ID:  61191 
public computational chemistry database (PCCDB) project, http://pccdb.org 
 
 16 16  0  0  0  0  0  0  0  0999 V2000 
   -1.7286    0.0501    0.0580 C   0  0  0  0  0  0  0  0  0  0  0  0 
   -0.9891    1.2228   -0.1006 C   0  0  0  0  0  0  0  0  0  0  0  0 
   -1.0683   -1.1791    0.1123 C   0  0  0  0  0  0  0  0  0  0  0  0 
    0.3981    1.1652   -0.2194 C   0  0  0  0  0  0  0  0  0  0  0  0 
    0.3206   -1.2502    0.0188 C   0  0  0  0  0  0  0  0  0  0  0  0 
    1.0536   -0.0712   -0.1623 C   0  0  0  0  0  0  0  0  0  0  0  0 
    2.4736   -0.0642   -0.2014 N   0  0  0  0  0  0  0  0  0  0  0  0 
    3.2211   -0.8913   -1.0405 N   0  0  0  0  0  0  0  0  0  0  0  0 
    4.3640   -0.4965   -1.2617 O   0  0  0  0  0  0  0  0  0  0  0  0 
    2.7127   -1.9336   -1.4311 O   0  0  0  0  0  0  0  0  0  0  0  0 
   -2.8106    0.0936    0.1402 H   0  0  0  0  0  0  0  0  0  0  0  0 
   -1.4897    2.1858   -0.1454 H   0  0  0  0  0  0  0  0  0  0  0  0 
   -1.6362   -2.0961    0.2411 H   0  0  0  0  0  0  0  0  0  0  0  0 
    0.9731    2.0776   -0.3601 H   0  0  0  0  0  0  0  0  0  0  0  0 
    0.8318   -2.2017    0.0737 H   0  0  0  0  0  0  0  0  0  0  0  0 
    2.9429    0.8328   -0.1542 H   0  0  0  0  0  0  0  0  0  0  0  0 
  1  3  1  0  0  0  0 
  1 11  1  0  0  0  0 
  2  1  2  0  0  0  0 
  3 13  1  0  0  0  0 
  4  6  2  0  0  0  0 
  4  2  1  0  0  0  0 
  5 15  1  0  0  0  0 
  5  3  2  0  0  0  0 
  6  5  1  0  0  0  0 
  7  6  1  0  0  0  0 
  7 16  1  0  0  0  0 
  8  7  1  0  0  0  0 
  9  8  2  0  0  0  0 
 10  8  2  0  0  0  0 
 12  2  1  0  0  0  0 
 14  4  1  0  0  0  0 
M  END 
>  <HBA> 
1 
 
>  <HBD> 
1 
 
>  <TPSA> 
57.85 
 
>  <cid> 
61191 
 
>  <dipole> 
4.08 
 
>  <excitation_energy_1> 
4.274 
 
>  <excitation_energy_2> 
4.598 
 
>  <excitation_energy_3> 
4.807 
 
>  <excitation_energy_4> 
5.29 
 
>  <homo_energy> 
-6.7 
 
>  <homo_lumo_gap> 
5.119 
 
>  <logP> 
1.886 
 
>  <lumo_energy> 
-1.581 
 
>  <melting_point> 
69.29 
 
>  <molecular_refractivity> 
39.05 
 
>  <oscillator_strength_1> 
0.1146 
 
>  <oscillator_strength_2> 
0.0544 
 
>  <oscillator_strength_3> 
0.0078 
 
>  <oscillator_strength_4> 
0.0139 
 
>  <open_babel_can_smiles> 
O=N(=O)Nc1ccccc1 
 
>  <mulliken_charges> 
16 
1   -0.121432 
2   -0.134473 
3   -0.142512 
4   -0.174791 
5   -0.128628 
6   0.315145 
7   -0.502208 
8   0.618402 
9   -0.407172 
10   -0.401831 
11   0.138699 
12   0.141085 
13   0.143467 
14   0.135556 
15   0.168681 
16   0.352011 
 
>  <lowdin_charges> 
16 
1   -0.153143 
2   -0.146728 
3   -0.145609 
4   -0.178279 
5   -0.158387 
6   0.042243 
7   -0.212384 
8   0.338042 
9   -0.266177 
10   -0.248185 
11   0.160981 
12   0.163901 
13   0.165316 
14   0.160566 
15   0.179805 
16   0.29804 
 
$$$$ 
 
