PCCDB-ID:  57544 
public computational chemistry database (PCCDB) project, http://pccdb.org 
 
 25 24  0  0  1  0  0  0  0  0999 V2000 
    4.7504    3.0772    5.5186 C   0  0  0  0  0  0  0  0  0  0  0  0 
    4.4934    2.8180    4.0315 C   0  0  0  0  0  0  0  0  0  0  0  0 
    4.2167    1.3300    3.7402 C   0  0  0  0  0  0  0  0  0  0  0  0 
    4.8810    1.1312    0.1029 C   0  0  0  0  0  0  0  0  0  0  0  0 
    4.8625   -0.4614   -1.8372 C   0  0  0  0  0  0  0  0  0  0  0  0 
    5.0401   -0.3384   -0.3151 C   0  0  1  0  0  0  0  0  0  0  0  0 
    3.9366    1.0514    2.2800 C   0  0  0  0  0  0  0  0  0  0  0  0 
    2.8938    0.6355    1.8236 O   0  0  0  0  0  0  0  0  0  0  0  0 
    5.0220    1.3443    1.5128 O   0  0  0  0  0  0  0  0  0  0  0  0 
    4.6622   -2.1728   -2.4690 S   0  0  0  0  0  0  0  0  0  0  0  0 
    6.6197   -1.0828    0.2893 S   0  0  0  0  0  0  0  0  0  0  0  0 
    4.9443    4.1393    5.7043 H   0  0  0  0  0  0  0  0  0  0  0  0 
    5.6193    2.5112    5.8755 H   0  0  0  0  0  0  0  0  0  0  0  0 
    3.8882    2.7833    6.1291 H   0  0  0  0  0  0  0  0  0  0  0  0 
    5.3553    3.1438    3.4385 H   0  0  0  0  0  0  0  0  0  0  0  0 
    3.6358    3.4158    3.6958 H   0  0  0  0  0  0  0  0  0  0  0  0 
    3.3498    0.9782    4.3068 H   0  0  0  0  0  0  0  0  0  0  0  0 
    5.0873    0.7332    4.0411 H   0  0  0  0  0  0  0  0  0  0  0  0 
    3.8951    1.4847   -0.2162 H   0  0  0  0  0  0  0  0  0  0  0  0 
    5.6546    1.7538   -0.3563 H   0  0  0  0  0  0  0  0  0  0  0  0 
    5.6851    0.0345   -2.3639 H   0  0  0  0  0  0  0  0  0  0  0  0 
    3.9352    0.0433   -2.1333 H   0  0  0  0  0  0  0  0  0  0  0  0 
    4.2640   -0.9258    0.1828 H   0  0  0  0  0  0  0  0  0  0  0  0 
    5.8284   -2.6417   -1.9732 H   0  0  0  0  0  0  0  0  0  0  0  0 
    7.4415   -0.1674   -0.2736 H   0  0  0  0  0  0  0  0  0  0  0  0 
  1 12  1  0  0  0  0 
  1 13  1  0  0  0  0 
  1 14  1  0  0  0  0 
  2  1  1  0  0  0  0 
  3  2  1  0  0  0  0 
  3 18  1  0  0  0  0 
  3 17  1  0  0  0  0 
  4  9  1  0  0  0  0 
  5  6  1  0  0  0  0 
  6  4  1  0  0  0  0 
  6 23  1  1  0  0  0 
  6 11  1  0  0  0  0 
  7  3  1  0  0  0  0 
  8  7  2  0  0  0  0 
  9  7  1  0  0  0  0 
 10 24  1  0  0  0  0 
 10  5  1  0  0  0  0 
 15  2  1  0  0  0  0 
 16  2  1  0  0  0  0 
 19  4  1  0  0  0  0 
 20  4  1  0  0  0  0 
 21  5  1  0  0  0  0 
 22  5  1  0  0  0  0 
 25 11  1  0  0  0  0 
M  END 
>  <HBA> 
4 
 
>  <HBD> 
2 
 
>  <TPSA> 
103.9 
 
>  <cid> 
57544 
 
>  <dipole> 
3.5 
 
>  <excitation_energy_1> 
5.286 
 
>  <excitation_energy_2> 
5.419 
 
>  <excitation_energy_3> 
5.7 
 
>  <excitation_energy_4> 
5.778 
 
>  <homo_energy> 
-6.52 
 
>  <homo_lumo_gap> 
6.615 
 
>  <logP> 
1.558 
 
>  <lumo_energy> 
0.095 
 
>  <melting_point> 
25.73 
 
>  <molecular_refractivity> 
52.91 
 
>  <oscillator_strength_1> 
0.0015 
 
>  <oscillator_strength_2> 
0.0124 
 
>  <oscillator_strength_3> 
0.0016 
 
>  <oscillator_strength_4> 
0.0112 
 
>  <open_babel_can_smiles> 
CCCC(=O)OC[C@@H](CS)S 
 
>  <mulliken_charges> 
25 
1   -0.443689 
2   -0.263036 
3   -0.333562 
4   -0.036368 
5   -0.413315 
6   -0.269308 
7   0.607332 
8   -0.475158 
9   -0.44652 
10   -0.072169 
11   -0.066533 
12   0.14977 
13   0.147563 
14   0.148509 
15   0.157388 
16   0.146514 
17   0.168045 
18   0.171986 
19   0.175456 
20   0.154455 
21   0.176661 
22   0.187791 
23   0.22009 
24   0.118314 
25   0.089786 
 
>  <lowdin_charges> 
25 
1   -0.443565 
2   -0.269584 
3   -0.296441 
4   -0.139274 
5   -0.380849 
6   -0.240639 
7   0.202829 
8   -0.264309 
9   -0.188208 
10   -0.078044 
11   -0.074206 
12   0.152712 
13   0.150247 
14   0.150647 
15   0.152753 
16   0.147493 
17   0.166793 
18   0.170188 
19   0.162455 
20   0.15521 
21   0.160252 
22   0.173803 
23   0.188893 
24   0.128726 
25   0.11212 
 
$$$$ 
 
