PCCDB-ID:  6385 
public computational chemistry database (PCCDB) project, http://pccdb.org 
 
 16 15  0  0  0  0  0  0  0  0999 V2000 
    0.9194   -0.0630   -0.0627 C   0  0  0  0  0  0  0  0  0  0  0  0 
    2.9930    0.6729   -1.2954 C   0  0  0  0  0  0  0  0  0  0  0  0 
    2.9929    0.5806    1.2204 C   0  0  0  0  0  0  0  0  0  0  0  0 
    2.4627   -0.0769   -0.0633 C   0  0  0  0  0  0  0  0  0  0  0  0 
    3.0154   -1.4480   -0.1135 N   0  0  0  0  0  0  0  0  0  0  0  0 
    0.5194    0.9582   -0.0251 H   0  0  0  0  0  0  0  0  0  0  0  0 
    0.5256   -0.6076    0.8051 H   0  0  0  0  0  0  0  0  0  0  0  0 
    0.5254   -0.5428   -0.9678 H   0  0  0  0  0  0  0  0  0  0  0  0 
    2.6570    1.7160   -1.2973 H   0  0  0  0  0  0  0  0  0  0  0  0 
    2.6349    0.2064   -2.2225 H   0  0  0  0  0  0  0  0  0  0  0  0 
    4.0874    0.6556   -1.3096 H   0  0  0  0  0  0  0  0  0  0  0  0 
    2.6563    1.6206    1.2991 H   0  0  0  0  0  0  0  0  0  0  0  0 
    4.0872    0.5627    1.2334 H   0  0  0  0  0  0  0  0  0  0  0  0 
    2.6349    0.0468    2.1105 H   0  0  0  0  0  0  0  0  0  0  0  0 
    2.6584   -1.9219   -0.9445 H   0  0  0  0  0  0  0  0  0  0  0  0 
    2.6582   -1.9817    0.6804 H   0  0  0  0  0  0  0  0  0  0  0  0 
  1  6  1  0  0  0  0 
  1  7  1  0  0  0  0 
  2  4  1  0  0  0  0 
  3 13  1  0  0  0  0 
  3 12  1  0  0  0  0 
  3 14  1  0  0  0  0 
  4  1  1  0  0  0  0 
  4  3  1  0  0  0  0 
  5  4  1  0  0  0  0 
  5 16  1  0  0  0  0 
  8  1  1  0  0  0  0 
  9  2  1  0  0  0  0 
 10  2  1  0  0  0  0 
 11  2  1  0  0  0  0 
 15  5  1  0  0  0  0 
M  END 
>  <HBA> 
1 
 
>  <HBD> 
1 
 
>  <TPSA> 
26.02 
 
>  <cid> 
6385 
 
>  <dipole> 
1.28 
 
>  <excitation_energy_1> 
5.668 
 
>  <excitation_energy_2> 
6.639 
 
>  <excitation_energy_3> 
6.709 
 
>  <excitation_energy_4> 
6.914 
 
>  <homo_energy> 
-6.245 
 
>  <homo_lumo_gap> 
8.106 
 
>  <logP> 
1.444 
 
>  <lumo_energy> 
1.861 
 
>  <melting_point> 
40.04 
 
>  <molecular_refractivity> 
24.09 
 
>  <oscillator_strength_1> 
0.0412 
 
>  <oscillator_strength_2> 
0.0013 
 
>  <oscillator_strength_3> 
0.0001 
 
>  <oscillator_strength_4> 
0.0042 
 
>  <open_babel_can_smiles> 
CC(N)(C)C 
 
>  <mulliken_charges> 
16 
1   -0.439386 
2   -0.430842 
3   -0.430844 
4   0.187316 
5   -0.706138 
6   0.138192 
7   0.131537 
8   0.131552 
9   0.137157 
10   0.130198 
11   0.155956 
12   0.137172 
13   0.155953 
14   0.130187 
15   0.286002 
16   0.285986 
 
>  <lowdin_charges> 
16 
1   -0.459488 
2   -0.441066 
3   -0.441432 
4   0.069037 
5   -0.551823 
6   0.147064 
7   0.144165 
8   0.143939 
9   0.146802 
10   0.143683 
11   0.154833 
12   0.146875 
13   0.154832 
14   0.143965 
15   0.249187 
16   0.249428 
 
$$$$ 
 
