PCCDB-ID:  66097 
public computational chemistry database (PCCDB) project, http://pccdb.org 
 
 26 26  0  0  0  0  0  0  0  0999 V2000 
    2.5158    1.2858   -0.4774 C   0  0  0  0  0  0  0  0  0  0  0  0 
    4.4484    2.7006   -3.7887 C   0  0  0  0  0  0  0  0  0  0  0  0 
    3.4414   -1.7339   -2.2057 C   0  0  0  0  0  0  0  0  0  0  0  0 
    4.2183   -0.0660   -4.2600 C   0  0  0  0  0  0  0  0  0  0  0  0 
    3.6524   -3.8473   -3.5393 C   0  0  0  0  0  0  0  0  0  0  0  0 
    3.7624   -2.3313   -3.4263 C   0  0  0  0  0  0  0  0  0  0  0  0 
    4.1473   -1.4516   -4.4551 C   0  0  0  0  0  0  0  0  0  0  0  0 
    3.4962   -0.3569   -1.9755 C   0  0  0  0  0  0  0  0  0  0  0  0 
    3.9181    0.4972   -3.0270 C   0  0  0  0  0  0  0  0  0  0  0  0 
    4.4912   -1.9153   -5.7968 N   0  0  0  0  0  0  0  0  0  0  0  0 
    4.9069   -4.4988   -3.5949 O   0  0  0  0  0  0  0  0  0  0  0  0 
    4.5946   -1.0787   -6.6948 O   0  0  0  0  0  0  0  0  0  0  0  0 
    4.6689   -3.1286   -5.9870 O   0  0  0  0  0  0  0  0  0  0  0  0 
    3.1926    0.0443   -0.7176 O   0  0  0  0  0  0  0  0  0  0  0  0 
    4.0231    1.8276   -2.7487 O   0  0  0  0  0  0  0  0  0  0  0  0 
    2.0864    1.1850    0.5216 H   0  0  0  0  0  0  0  0  0  0  0  0 
    1.7134    1.4439   -1.2057 H   0  0  0  0  0  0  0  0  0  0  0  0 
    3.2060    2.1303   -0.5060 H   0  0  0  0  0  0  0  0  0  0  0  0 
    4.4585    3.6995   -3.3502 H   0  0  0  0  0  0  0  0  0  0  0  0 
    3.7542    2.6805   -4.6380 H   0  0  0  0  0  0  0  0  0  0  0  0 
    5.4568    2.4440   -4.1364 H   0  0  0  0  0  0  0  0  0  0  0  0 
    3.1230   -2.3538   -1.3735 H   0  0  0  0  0  0  0  0  0  0  0  0 
    4.5325    0.5435   -5.0948 H   0  0  0  0  0  0  0  0  0  0  0  0 
    3.0213   -4.1126   -4.3982 H   0  0  0  0  0  0  0  0  0  0  0  0 
    3.1572   -4.2170   -2.6367 H   0  0  0  0  0  0  0  0  0  0  0  0 
    5.2487   -4.3056   -4.4851 H   0  0  0  0  0  0  0  0  0  0  0  0 
  1 16  1  0  0  0  0 
  2 19  1  0  0  0  0 
  2 15  1  0  0  0  0 
  3  8  1  0  0  0  0 
  3 22  1  0  0  0  0 
  4  9  1  0  0  0  0 
  5  6  1  0  0  0  0 
  5 25  1  0  0  0  0 
  6  3  2  0  0  0  0 
  7  4  2  0  0  0  0 
  7  6  1  0  0  0  0 
  8 14  1  0  0  0  0 
  9 15  1  0  0  0  0 
  9  8  2  0  0  0  0 
 10  7  1  0  0  0  0 
 11  5  1  0  0  0  0 
 12 10  2  0  0  0  0 
 13 10  2  0  0  0  0 
 14  1  1  0  0  0  0 
 17  1  1  0  0  0  0 
 18  1  1  0  0  0  0 
 20  2  1  0  0  0  0 
 21  2  1  0  0  0  0 
 23  4  1  0  0  0  0 
 24  5  1  0  0  0  0 
 26 11  1  0  0  0  0 
M  END 
>  <HBA> 
3 
 
>  <HBD> 
1 
 
>  <TPSA> 
84.51 
 
>  <cid> 
66097 
 
>  <dipole> 
6.06 
 
>  <excitation_energy_1> 
3.401 
 
>  <excitation_energy_2> 
3.695 
 
>  <excitation_energy_3> 
3.866 
 
>  <excitation_energy_4> 
3.998 
 
>  <homo_energy> 
-6.384 
 
>  <homo_lumo_gap> 
3.918 
 
>  <logP> 
1.627 
 
>  <lumo_energy> 
-2.465 
 
>  <melting_point> 
77.79 
 
>  <molecular_refractivity> 
54.38 
 
>  <oscillator_strength_1> 
0.1165 
 
>  <oscillator_strength_2> 
0.0129 
 
>  <oscillator_strength_3> 
0.0028 
 
>  <oscillator_strength_4> 
0.1399 
 
>  <open_babel_can_smiles> 
COc1cc(N(=O)=O)c(cc1OC)CO 
 
>  <mulliken_charges> 
26 
1   -0.207578 
2   -0.223416 
3   -0.263617 
4   -0.255163 
5   -0.100879 
6   0.158871 
7   0.220277 
8   0.367517 
9   0.358812 
10   0.370352 
11   -0.623071 
12   -0.39611 
13   -0.432184 
14   -0.511902 
15   -0.51931 
16   0.16763 
17   0.154939 
18   0.174856 
19   0.177005 
20   0.164529 
21   0.166013 
22   0.155544 
23   0.186612 
24   0.14555 
25   0.148357 
26   0.416368 
 
>  <lowdin_charges> 
26 
1   -0.27225 
2   -0.27655 
3   -0.174776 
4   -0.191925 
5   -0.133291 
6   -0.004543 
7   -0.014445 
8   0.101245 
9   0.071418 
10   0.31225 
11   -0.465396 
12   -0.249555 
13   -0.266789 
14   -0.19157 
15   -0.195302 
16   0.159692 
17   0.151224 
18   0.159162 
19   0.166342 
20   0.152782 
21   0.152761 
22   0.177208 
23   0.192567 
24   0.144788 
25   0.152001 
26   0.342954 
 
$$$$ 
 
