PCCDB-ID:  13880 
public computational chemistry database (PCCDB) project, http://pccdb.org 
 
 21 21  0  0  0  0  0  0  0  0999 V2000 
    4.7096   -1.5134   -1.1257 C   0  0  0  0  0  0  0  0  0  0  0  0 
   -2.1842   -1.4432   -2.3889 C   0  0  0  0  0  0  0  0  0  0  0  0 
   -1.3841   -1.0141   -3.4483 C   0  0  0  0  0  0  0  0  0  0  0  0 
   -1.5758   -1.8060   -1.1863 C   0  0  0  0  0  0  0  0  0  0  0  0 
    0.0037   -0.9448   -3.3277 C   0  0  0  0  0  0  0  0  0  0  0  0 
   -0.1928   -1.7316   -1.0477 C   0  0  0  0  0  0  0  0  0  0  0  0 
    0.6130   -1.2990   -2.1143 C   0  0  0  0  0  0  0  0  0  0  0  0 
    3.0402   -0.6440   -2.5382 C   0  0  0  0  0  0  0  0  0  0  0  0 
    4.2821   -0.6914   -2.2400 N   0  0  0  0  0  0  0  0  0  0  0  0 
    2.0084   -1.2958   -1.8975 N   0  0  0  0  0  0  0  0  0  0  0  0 
    2.6431    0.1203   -3.5863 O   0  0  0  0  0  0  0  0  0  0  0  0 
    5.7989   -1.4623   -1.0404 H   0  0  0  0  0  0  0  0  0  0  0  0 
    4.4423   -2.5770   -1.2484 H   0  0  0  0  0  0  0  0  0  0  0  0 
    4.2968   -1.1741   -0.1592 H   0  0  0  0  0  0  0  0  0  0  0  0 
   -3.2634   -1.4964   -2.4985 H   0  0  0  0  0  0  0  0  0  0  0  0 
   -1.8408   -0.7334   -4.3938 H   0  0  0  0  0  0  0  0  0  0  0  0 
   -2.1774   -2.1442   -0.3468 H   0  0  0  0  0  0  0  0  0  0  0  0 
    0.6086   -0.6187   -4.1618 H   0  0  0  0  0  0  0  0  0  0  0  0 
    0.2713   -2.0049   -0.1018 H   0  0  0  0  0  0  0  0  0  0  0  0 
    2.2990   -1.7714   -1.0553 H   0  0  0  0  0  0  0  0  0  0  0  0 
    3.4742    0.5057   -3.9190 H   0  0  0  0  0  0  0  0  0  0  0  0 
  1 12  1  0  0  0  0 
  1 14  1  0  0  0  0 
  2  4  2  0  0  0  0 
  3  5  2  0  0  0  0 
  3  2  1  0  0  0  0 
  4  6  1  0  0  0  0 
  4 17  1  0  0  0  0 
  5  7  1  0  0  0  0 
  6 19  1  0  0  0  0 
  7 10  1  0  0  0  0 
  7  6  2  0  0  0  0 
  8  9  2  0  0  0  0 
  8 10  1  0  0  0  0 
  9  1  1  0  0  0  0 
 10 20  1  0  0  0  0 
 11  8  1  0  0  0  0 
 13  1  1  0  0  0  0 
 15  2  1  0  0  0  0 
 16  3  1  0  0  0  0 
 18  5  1  0  0  0  0 
 21 11  1  0  0  0  0 
M  END 
>  <HBA> 
3 
 
>  <HBD> 
2 
 
>  <TPSA> 
41.13 
 
>  <cid> 
13880 
 
>  <dipole> 
1.29 
 
>  <excitation_energy_1> 
4.751 
 
>  <excitation_energy_2> 
4.953 
 
>  <excitation_energy_3> 
5.082 
 
>  <excitation_energy_4> 
5.541 
 
>  <homo_energy> 
-5.627 
 
>  <homo_lumo_gap> 
5.619 
 
>  <logP> 
1.902 
 
>  <lumo_energy> 
-0.008 
 
>  <melting_point> 
96.11 
 
>  <molecular_refractivity> 
43.95 
 
>  <oscillator_strength_1> 
0.0205 
 
>  <oscillator_strength_2> 
0.0286 
 
>  <oscillator_strength_3> 
0.4059 
 
>  <oscillator_strength_4> 
0.0048 
 
>  <open_babel_can_smiles> 
C/N=C(\Nc1ccccc1)/O 
 
>  <mulliken_charges> 
21 
1   -0.341292 
2   -0.130325 
3   -0.142242 
4   -0.131606 
5   -0.153562 
6   -0.199179 
7   0.361493 
8   0.708001 
9   -0.484372 
10   -0.752237 
11   -0.607013 
12   0.165709 
13   0.137596 
14   0.133963 
15   0.127077 
16   0.131345 
17   0.130303 
18   0.164807 
19   0.121006 
20   0.341763 
21   0.418766 
 
>  <lowdin_charges> 
21 
1   -0.359678 
2   -0.17196 
3   -0.146433 
4   -0.149284 
5   -0.184876 
6   -0.192774 
7   0.065089 
8   0.162422 
9   -0.293492 
10   -0.250923 
11   -0.365773 
12   0.157429 
13   0.133157 
14   0.132642 
15   0.155652 
16   0.158879 
17   0.159627 
18   0.17775 
19   0.152627 
20   0.292542 
21   0.367376 
 
$$$$ 
 
