PCCDB-ID:  14088 
public computational chemistry database (PCCDB) project, http://pccdb.org 
 
 19 19  0  0  0  0  0  0  0  0999 V2000 
    0.8629   -0.0891   -0.1607 C   0  0  0  0  0  0  0  0  0  0  0  0 
    3.2203   -0.8705   -0.7549 C   0  0  0  0  0  0  0  0  0  0  0  0 
    3.4347    3.7466   -0.4659 C   0  0  0  0  0  0  0  0  0  0  0  0 
    3.0366    3.4741   -1.7111 C   0  0  0  0  0  0  0  0  0  0  0  0 
    2.3676    0.1749   -0.0253 C   0  0  0  0  0  0  0  0  0  0  0  0 
    3.2388    2.5184    0.3771 C   0  0  0  0  0  0  0  0  0  0  0  0 
    2.5545    2.0500   -1.7631 C   0  0  0  0  0  0  0  0  0  0  0  0 
    2.7065    1.5382   -0.4712 N   0  0  0  0  0  0  0  0  0  0  0  0 
    3.4853    2.3796    1.5581 O   0  0  0  0  0  0  0  0  0  0  0  0 
    2.1188    1.4551   -2.7299 O   0  0  0  0  0  0  0  0  0  0  0  0 
    0.6233   -1.0802    0.2397 H   0  0  0  0  0  0  0  0  0  0  0  0 
    0.5535   -0.0558   -1.2091 H   0  0  0  0  0  0  0  0  0  0  0  0 
    0.2846    0.6531    0.3997 H   0  0  0  0  0  0  0  0  0  0  0  0 
    3.0139   -1.8661   -0.3473 H   0  0  0  0  0  0  0  0  0  0  0  0 
    4.2877   -0.6638   -0.6234 H   0  0  0  0  0  0  0  0  0  0  0  0 
    2.9948   -0.8811   -1.8250 H   0  0  0  0  0  0  0  0  0  0  0  0 
    3.8377    4.6626   -0.0531 H   0  0  0  0  0  0  0  0  0  0  0  0 
    3.0277    4.1082   -2.5884 H   0  0  0  0  0  0  0  0  0  0  0  0 
    2.6358    0.1770    1.0358 H   0  0  0  0  0  0  0  0  0  0  0  0 
  1  5  1  0  0  0  0 
  1 11  1  0  0  0  0 
  1 13  1  0  0  0  0 
  2 15  1  0  0  0  0 
  2 14  1  0  0  0  0 
  2  5  1  0  0  0  0 
  3 17  1  0  0  0  0 
  3  6  1  0  0  0  0 
  4  3  2  0  0  0  0 
  5 19  1  0  0  0  0 
  6  9  2  0  0  0  0 
  7  4  1  0  0  0  0 
  7  8  1  0  0  0  0 
  8  5  1  0  0  0  0 
  8  6  1  0  0  0  0 
 10  7  2  0  0  0  0 
 12  1  1  0  0  0  0 
 16  2  1  0  0  0  0 
 18  4  1  0  0  0  0 
M  END 
>  <HBA> 
3 
 
>  <HBD> 
0 
 
>  <TPSA> 
37.38 
 
>  <cid> 
14088 
 
>  <dipole> 
0.94 
 
>  <excitation_energy_1> 
3.436 
 
>  <excitation_energy_2> 
3.965 
 
>  <excitation_energy_3> 
4.011 
 
>  <excitation_energy_4> 
5.631 
 
>  <homo_energy> 
-7.334 
 
>  <homo_lumo_gap> 
4.754 
 
>  <logP> 
0.258 
 
>  <lumo_energy> 
-2.58 
 
>  <melting_point> 
50.56 
 
>  <molecular_refractivity> 
40.39 
 
>  <oscillator_strength_1> 
0.0 
 
>  <oscillator_strength_2> 
0.008 
 
>  <oscillator_strength_3> 
0.0 
 
>  <oscillator_strength_4> 
0.2476 
 
>  <open_babel_can_smiles> 
CC(N1C(=O)C=CC1=O)C 
 
>  <mulliken_charges> 
19 
1   -0.452919 
2   -0.452926 
3   -0.163494 
4   -0.162155 
5   0.025059 
6   0.592519 
7   0.598789 
8   -0.50962 
9   -0.474469 
10   -0.482279 
11   0.149787 
12   0.177779 
13   0.151942 
14   0.149733 
15   0.151823 
16   0.177909 
17   0.174429 
18   0.174354 
19   0.173739 
 
>  <lowdin_charges> 
19 
1   -0.451151 
2   -0.447819 
3   -0.154708 
4   -0.153974 
5   -0.043002 
6   0.164962 
7   0.172596 
8   -0.094618 
9   -0.235023 
10   -0.241796 
11   0.155782 
12   0.164453 
13   0.156306 
14   0.155659 
15   0.153451 
16   0.164075 
17   0.185121 
18   0.185212 
19   0.164474 
 
$$$$ 
 
