PCCDB-ID:  7993 
public computational chemistry database (PCCDB) project, http://pccdb.org 
 
 21 20  0  0  0  0  0  0  0  0999 V2000 
    1.0847    0.0711   -0.0317 C   0  0  0  0  0  0  0  0  0  0  0  0 
    3.0042    1.4150    0.4699 C   0  0  0  0  0  0  0  0  0  0  0  0 
    4.5359   -1.1864    0.8822 C   0  0  0  0  0  0  0  0  0  0  0  0 
    4.9783   -2.4459    1.6310 C   0  0  0  0  0  0  0  0  0  0  0  0 
    3.0208   -0.9701    0.9497 C   0  0  0  0  0  0  0  0  0  0  0  0 
    6.4416   -2.5643    1.6136 N   0  0  0  0  0  0  0  0  0  0  0  0 
    2.5376    0.0940    0.0686 N   0  0  0  0  0  0  0  0  0  0  0  0 
    0.7523    0.8345   -0.7441 H   0  0  0  0  0  0  0  0  0  0  0  0 
    0.5738    0.2630    0.9337 H   0  0  0  0  0  0  0  0  0  0  0  0 
    0.7529   -0.9055   -0.4013 H   0  0  0  0  0  0  0  0  0  0  0  0 
    2.6259    2.1634   -0.2348 H   0  0  0  0  0  0  0  0  0  0  0  0 
    4.0965    1.4594    0.4478 H   0  0  0  0  0  0  0  0  0  0  0  0 
    2.6693    1.7038    1.4873 H   0  0  0  0  0  0  0  0  0  0  0  0 
    4.8293   -1.2587   -0.1745 H   0  0  0  0  0  0  0  0  0  0  0  0 
    5.0807   -0.3361    1.3072 H   0  0  0  0  0  0  0  0  0  0  0  0 
    4.4529   -3.3231    1.2081 H   0  0  0  0  0  0  0  0  0  0  0  0 
    4.6659   -2.3734    2.6812 H   0  0  0  0  0  0  0  0  0  0  0  0 
    2.7197   -0.7912    2.0042 H   0  0  0  0  0  0  0  0  0  0  0  0 
    2.5202   -1.8966    0.6386 H   0  0  0  0  0  0  0  0  0  0  0  0 
    6.7556   -2.7173    0.6554 H   0  0  0  0  0  0  0  0  0  0  0  0 
    6.7260   -3.3922    2.1353 H   0  0  0  0  0  0  0  0  0  0  0  0 
  1  7  1  0  0  0  0 
  1  9  1  0  0  0  0 
  2 13  1  0  0  0  0 
  3  5  1  0  0  0  0 
  3 15  1  0  0  0  0 
  3  4  1  0  0  0  0 
  4 17  1  0  0  0  0 
  5 18  1  0  0  0  0 
  6  4  1  0  0  0  0 
  6 21  1  0  0  0  0 
  7  2  1  0  0  0  0 
  7  5  1  0  0  0  0 
  8  1  1  0  0  0  0 
 10  1  1  0  0  0  0 
 11  2  1  0  0  0  0 
 12  2  1  0  0  0  0 
 14  3  1  0  0  0  0 
 16  4  1  0  0  0  0 
 19  5  1  0  0  0  0 
 20  6  1  0  0  0  0 
M  END 
>  <HBA> 
2 
 
>  <HBD> 
1 
 
>  <TPSA> 
29.26 
 
>  <cid> 
7993 
 
>  <dipole> 
1.23 
 
>  <excitation_energy_1> 
5.344 
 
>  <excitation_energy_2> 
5.478 
 
>  <excitation_energy_3> 
5.614 
 
>  <excitation_energy_4> 
5.773 
 
>  <homo_energy> 
-5.63 
 
>  <homo_lumo_gap> 
7.921 
 
>  <logP> 
0.597 
 
>  <lumo_energy> 
2.291 
 
>  <melting_point> 
30.99 
 
>  <molecular_refractivity> 
31.75 
 
>  <oscillator_strength_1> 
0.0156 
 
>  <oscillator_strength_2> 
0.0151 
 
>  <oscillator_strength_3> 
0.0144 
 
>  <oscillator_strength_4> 
0.0091 
 
>  <open_babel_can_smiles> 
NCCCN(C)C 
 
>  <mulliken_charges> 
21 
1   -0.291939 
2   -0.30096 
3   -0.263122 
4   -0.136833 
5   -0.108078 
6   -0.715381 
7   -0.368269 
8   0.146216 
9   0.114932 
10   0.1462 
11   0.146166 
12   0.156542 
13   0.114566 
14   0.13716 
15   0.15287 
16   0.110526 
17   0.13855 
18   0.104897 
19   0.129822 
20   0.291705 
21   0.294431 
 
>  <lowdin_charges> 
21 
1   -0.356608 
2   -0.356953 
3   -0.285296 
4   -0.202499 
5   -0.197488 
6   -0.557832 
7   -0.183491 
8   0.14955 
9   0.11857 
10   0.147845 
11   0.150602 
12   0.150545 
13   0.117875 
14   0.142379 
15   0.15137 
16   0.115773 
17   0.139211 
18   0.11173 
19   0.140673 
20   0.250109 
21   0.253936 
 
$$$$ 
 
