PCCDB-ID:  35463 
public computational chemistry database (PCCDB) project, http://pccdb.org 
 
 23 26  0  0  0  0  0  0  0  0999 V2000 
    3.4255   -0.0139    0.0009 C   0  0  0  0  0  0  0  0  0  0  0  0 
   -3.4315    0.0022    0.0014 C   0  0  0  0  0  0  0  0  0  0  0  0 
    2.8565    1.2592   -0.0015 C   0  0  0  0  0  0  0  0  0  0  0  0 
   -2.8565    1.2726   -0.0009 C   0  0  0  0  0  0  0  0  0  0  0  0 
    2.6547   -1.1968    0.0021 C   0  0  0  0  0  0  0  0  0  0  0  0 
   -2.6663   -1.1843    0.0026 C   0  0  0  0  0  0  0  0  0  0  0  0 
    0.6896    2.6291   -0.0037 C   0  0  0  0  0  0  0  0  0  0  0  0 
   -0.6832    2.6323   -0.0036 C   0  0  0  0  0  0  0  0  0  0  0  0 
    1.4532    1.4037   -0.0022 C   0  0  0  0  0  0  0  0  0  0  0  0 
   -1.4526    1.4105   -0.0019 C   0  0  0  0  0  0  0  0  0  0  0  0 
    1.2723   -1.0729    0.0012 C   0  0  0  0  0  0  0  0  0  0  0  0 
   -1.2833   -1.0670    0.0015 C   0  0  0  0  0  0  0  0  0  0  0  0 
    0.7009    0.2135   -0.0012 C   0  0  0  0  0  0  0  0  0  0  0  0 
   -0.7059    0.2168   -0.0010 C   0  0  0  0  0  0  0  0  0  0  0  0 
   -0.0084   -2.3164    0.0031 S   0  0  0  0  0  0  0  0  0  0  0  0 
    4.5083   -0.1057    0.0011 H   0  0  0  0  0  0  0  0  0  0  0  0 
   -4.5148   -0.0845    0.0018 H   0  0  0  0  0  0  0  0  0  0  0  0 
    3.4961    2.1380   -0.0020 H   0  0  0  0  0  0  0  0  0  0  0  0 
   -3.4920    2.1544   -0.0015 H   0  0  0  0  0  0  0  0  0  0  0  0 
    3.1442   -2.1659    0.0039 H   0  0  0  0  0  0  0  0  0  0  0  0 
   -3.1603   -2.1511    0.0044 H   0  0  0  0  0  0  0  0  0  0  0  0 
    1.2260    3.5750   -0.0052 H   0  0  0  0  0  0  0  0  0  0  0  0 
   -1.2152    3.5807   -0.0048 H   0  0  0  0  0  0  0  0  0  0  0  0 
  1 16  1  0  0  0  0 
  1  5  2  0  0  0  0 
  2 17  1  0  0  0  0 
  2  6  1  0  0  0  0 
  3  1  1  0  0  0  0 
  4  2  2  0  0  0  0 
  5 20  1  0  0  0  0 
  6 21  1  0  0  0  0 
  7  8  2  0  0  0  0 
  7  9  1  0  0  0  0 
  8 10  1  0  0  0  0 
  9  3  2  0  0  0  0 
  9 13  1  0  0  0  0 
 10 14  2  0  0  0  0 
 10  4  1  0  0  0  0 
 11  5  1  0  0  0  0 
 11 15  1  0  0  0  0 
 12  6  2  0  0  0  0 
 12 15  1  0  0  0  0 
 13 14  1  0  0  0  0 
 13 11  2  0  0  0  0 
 14 12  1  0  0  0  0 
 18  3  1  0  0  0  0 
 19  4  1  0  0  0  0 
 22  7  1  0  0  0  0 
 23  8  1  0  0  0  0 
M  END 
>  <HBA> 
1 
 
>  <HBD> 
0 
 
>  <TPSA> 
28.24 
 
>  <cid> 
35463 
 
>  <dipole> 
1.0 
 
>  <excitation_energy_1> 
3.801 
 
>  <excitation_energy_2> 
3.879 
 
>  <excitation_energy_3> 
4.592 
 
>  <excitation_energy_4> 
4.695 
 
>  <homo_energy> 
-5.543 
 
>  <homo_lumo_gap> 
4.245 
 
>  <logP> 
4.646 
 
>  <lumo_energy> 
-1.298 
 
>  <melting_point> 
136.78 
 
>  <molecular_refractivity> 
68.02 
 
>  <oscillator_strength_1> 
0.1553 
 
>  <oscillator_strength_2> 
0.003 
 
>  <oscillator_strength_3> 
0.1904 
 
>  <oscillator_strength_4> 
0.0 
 
>  <open_babel_can_smiles> 
c1cc2ccc3c4c2c(c1)sc4ccc3 
 
>  <mulliken_charges> 
23 
1   -0.108431 
2   -0.108421 
3   -0.23274 
4   -0.232782 
5   -0.202083 
6   -0.202088 
7   -0.195865 
8   -0.195986 
9   0.198618 
10   0.198658 
11   -0.138989 
12   -0.139006 
13   0.031913 
14   0.031972 
15   0.213138 
16   0.132564 
17   0.132565 
18   0.132304 
19   0.132309 
20   0.14273 
21   0.142723 
22   0.133449 
23   0.133448 
 
>  <lowdin_charges> 
23 
1   -0.149077 
2   -0.149064 
3   -0.167865 
4   -0.167847 
5   -0.165828 
6   -0.165865 
7   -0.154423 
8   -0.154394 
9   0.001478 
10   0.001473 
11   -0.119136 
12   -0.11912 
13   -0.015997 
14   -0.016001 
15   0.24925 
16   0.159265 
17   0.159257 
18   0.16007 
19   0.160055 
20   0.165666 
21   0.165692 
22   0.161219 
23   0.161193 
 
$$$$ 
 
