PCCDB-ID:  11000 
public computational chemistry database (PCCDB) project, http://pccdb.org 
 
 15 15  0  0  0  0  0  0  0  0999 V2000 
   -1.3673    0.7649    0.2404 C   0  0  0  0  0  0  0  0  0  0  0  0 
   -0.2534    1.5546    0.2399 C   0  0  0  0  0  0  0  0  0  0  0  0 
   -1.4438   -0.5958   -0.2462 C   0  0  0  0  0  0  0  0  0  0  0  0 
    1.0558    1.1756   -0.2467 C   0  0  0  0  0  0  0  0  0  0  0  0 
   -0.4310   -1.4902   -0.2319 C   0  0  0  0  0  0  0  0  0  0  0  0 
    1.5647   -0.0759   -0.2314 C   0  0  0  0  0  0  0  0  0  0  0  0 
    0.8699   -1.2110    0.4804 C   0  0  0  0  0  0  0  0  0  0  0  0 
   -2.3114    1.2361    0.5116 H   0  0  0  0  0  0  0  0  0  0  0  0 
   -0.3849    2.6014    0.5111 H   0  0  0  0  0  0  0  0  0  0  0  0 
   -2.3968   -0.8981   -0.6802 H   0  0  0  0  0  0  0  0  0  0  0  0 
    1.6565    1.9746   -0.6810 H   0  0  0  0  0  0  0  0  0  0  0  0 
   -0.5532   -2.4470   -0.7363 H   0  0  0  0  0  0  0  0  0  0  0  0 
    2.5092   -0.2770   -0.7338 H   0  0  0  0  0  0  0  0  0  0  0  0 
    1.5021   -2.1032    0.5052 H   0  0  0  0  0  0  0  0  0  0  0  0 
    0.6631   -0.9198    1.5213 H   0  0  0  0  0  0  0  0  0  0  0  0 
  1  8  1  0  0  0  0 
  2  1  2  0  0  0  0 
  2  9  1  0  0  0  0 
  3  5  2  0  0  0  0 
  3  1  1  0  0  0  0 
  4  6  2  0  0  0  0 
  4  2  1  0  0  0  0 
  5  7  1  0  0  0  0 
  6  7  1  0  0  0  0 
  7 14  1  0  0  0  0 
  7 15  1  0  0  0  0 
 10  3  1  0  0  0  0 
 11  4  1  0  0  0  0 
 12  5  1  0  0  0  0 
 13  6  1  0  0  0  0 
M  END 
>  <HBA> 
0 
 
>  <HBD> 
0 
 
>  <TPSA> 
0.0 
 
>  <cid> 
11000 
 
>  <dipole> 
0.29 
 
>  <excitation_energy_1> 
4.413 
 
>  <excitation_energy_2> 
4.935 
 
>  <excitation_energy_3> 
5.411 
 
>  <excitation_energy_4> 
5.87 
 
>  <homo_energy> 
-5.788 
 
>  <homo_lumo_gap> 
5.021 
 
>  <logP> 
2.059 
 
>  <lumo_energy> 
-0.767 
 
>  <melting_point> 
24.72 
 
>  <molecular_refractivity> 
32.23 
 
>  <oscillator_strength_1> 
0.0995 
 
>  <oscillator_strength_2> 
0.0033 
 
>  <oscillator_strength_3> 
0.0018 
 
>  <oscillator_strength_4> 
0.0714 
 
>  <open_babel_can_smiles> 
C1=CC=CC=CC1 
 
>  <mulliken_charges> 
15 
1   -0.142942 
2   -0.143224 
3   -0.10519 
4   -0.104956 
5   -0.121404 
6   -0.121424 
7   -0.336526 
8   0.126569 
9   0.126646 
10   0.128667 
11   0.12862 
12   0.131833 
13   0.131838 
14   0.138573 
15   0.16292 
 
>  <lowdin_charges> 
15 
1   -0.163706 
2   -0.162237 
3   -0.171892 
4   -0.172921 
5   -0.150051 
6   -0.150299 
7   -0.274739 
8   0.155441 
9   0.153881 
10   0.157401 
11   0.158696 
12   0.154636 
13   0.154782 
14   0.153254 
15   0.157755 
 
$$$$ 
 
