PCCDB-ID:  13187 
public computational chemistry database (PCCDB) project, http://pccdb.org 
 
 28 27  0  0  0  0  0  0  0  0999 V2000 
    3.3546   -3.5680    2.0100 C   0  0  0  0  0  0  0  0  0  0  0  0 
    6.2020    0.2561   -1.8820 C   0  0  0  0  0  0  0  0  0  0  0  0 
    4.5166   -3.3673    2.9903 C   0  0  0  0  0  0  0  0  0  0  0  0 
    5.3536   -2.1023    2.7362 C   0  0  0  0  0  0  0  0  0  0  0  0 
    4.5962   -0.7854    2.9643 C   0  0  0  0  0  0  0  0  0  0  0  0 
    5.4742    0.4758    2.8801 C   0  0  0  0  0  0  0  0  0  0  0  0 
    6.1443    0.7453    1.5215 C   0  0  0  0  0  0  0  0  0  0  0  0 
    5.1454    1.0012    0.3708 C   0  0  0  0  0  0  0  0  0  0  0  0 
    5.8846    1.3790   -0.9086 C   0  0  0  0  0  0  0  0  0  0  0  0 
    6.2254    2.5276   -1.1216 O   0  0  0  0  0  0  0  0  0  0  0  0 
    2.8354   -4.5136    2.2031 H   0  0  0  0  0  0  0  0  0  0  0  0 
    3.7136   -3.5927    0.9730 H   0  0  0  0  0  0  0  0  0  0  0  0 
    2.6119   -2.7657    2.0846 H   0  0  0  0  0  0  0  0  0  0  0  0 
    6.6638   -0.5942   -1.3650 H   0  0  0  0  0  0  0  0  0  0  0  0 
    6.8654    0.6185   -2.6698 H   0  0  0  0  0  0  0  0  0  0  0  0 
    5.2725   -0.1149   -2.3340 H   0  0  0  0  0  0  0  0  0  0  0  0 
    5.1792   -4.2417    2.9393 H   0  0  0  0  0  0  0  0  0  0  0  0 
    4.1275   -3.3412    4.0183 H   0  0  0  0  0  0  0  0  0  0  0  0 
    5.7451   -2.1377    1.7090 H   0  0  0  0  0  0  0  0  0  0  0  0 
    6.2332   -2.1213    3.3961 H   0  0  0  0  0  0  0  0  0  0  0  0 
    4.1348   -0.8143    3.9619 H   0  0  0  0  0  0  0  0  0  0  0  0 
    3.7628   -0.7034    2.2544 H   0  0  0  0  0  0  0  0  0  0  0  0 
    6.2624    0.4079    3.6433 H   0  0  0  0  0  0  0  0  0  0  0  0 
    4.8646    1.3498    3.1486 H   0  0  0  0  0  0  0  0  0  0  0  0 
    6.8056   -0.0909    1.2574 H   0  0  0  0  0  0  0  0  0  0  0  0 
    6.7867    1.6295    1.6134 H   0  0  0  0  0  0  0  0  0  0  0  0 
    4.4925    1.8392    0.6405 H   0  0  0  0  0  0  0  0  0  0  0  0 
    4.5204    0.1157    0.2036 H   0  0  0  0  0  0  0  0  0  0  0  0 
  1 13  1  0  0  0  0 
  1 11  1  0  0  0  0 
  1  3  1  0  0  0  0 
  2 14  1  0  0  0  0 
  2  9  1  0  0  0  0 
  3 18  1  0  0  0  0 
  4  5  1  0  0  0  0 
  4  3  1  0  0  0  0 
  4 20  1  0  0  0  0 
  5 21  1  0  0  0  0 
  6  5  1  0  0  0  0 
  6 24  1  0  0  0  0 
  6 23  1  0  0  0  0 
  7 26  1  0  0  0  0 
  7  6  1  0  0  0  0 
  8 27  1  0  0  0  0 
  8  7  1  0  0  0  0 
  9  8  1  0  0  0  0 
 10  9  2  0  0  0  0 
 12  1  1  0  0  0  0 
 15  2  1  0  0  0  0 
 16  2  1  0  0  0  0 
 17  3  1  0  0  0  0 
 19  4  1  0  0  0  0 
 22  5  1  0  0  0  0 
 25  7  1  0  0  0  0 
 28  8  1  0  0  0  0 
M  END 
>  <HBA> 
1 
 
>  <HBD> 
0 
 
>  <TPSA> 
17.07 
 
>  <cid> 
13187 
 
>  <dipole> 
2.92 
 
>  <excitation_energy_1> 
4.342 
 
>  <excitation_energy_2> 
6.005 
 
>  <excitation_energy_3> 
6.504 
 
>  <excitation_energy_4> 
6.577 
 
>  <homo_energy> 
-6.495 
 
>  <homo_lumo_gap> 
6.229 
 
>  <logP> 
2.936 
 
>  <lumo_energy> 
-0.267 
 
>  <melting_point> 
-7.16 
 
>  <molecular_refractivity> 
45.58 
 
>  <oscillator_strength_1> 
0.0003 
 
>  <oscillator_strength_2> 
0.0272 
 
>  <oscillator_strength_3> 
0.0019 
 
>  <oscillator_strength_4> 
0.0031 
 
>  <open_babel_can_smiles> 
CCCCCCCC(=O)C 
 
>  <mulliken_charges> 
28 
1   -0.443796 
2   -0.532227 
3   -0.249567 
4   -0.250394 
5   -0.259632 
6   -0.259258 
7   -0.270071 
8   -0.333788 
9   0.448182 
10   -0.439339 
11   0.14443 
12   0.138027 
13   0.146541 
14   0.164548 
15   0.178479 
16   0.17061 
17   0.131627 
18   0.131495 
19   0.125407 
20   0.128715 
21   0.131009 
22   0.13637 
23   0.133233 
24   0.133677 
25   0.137962 
26   0.156321 
27   0.161081 
28   0.140358 
 
>  <lowdin_charges> 
28 
1   -0.446781 
2   -0.477682 
3   -0.271876 
4   -0.277362 
5   -0.280961 
6   -0.2759 
7   -0.273081 
8   -0.310147 
9   0.165823 
10   -0.23954 
11   0.150953 
12   0.143285 
13   0.147834 
14   0.166506 
15   0.172477 
16   0.171496 
17   0.142498 
18   0.13834 
19   0.134327 
20   0.140783 
21   0.142151 
22   0.139967 
23   0.144054 
24   0.144081 
25   0.141532 
26   0.155013 
27   0.163549 
28   0.148661 
 
$$$$ 
 
