PCCDB-ID:  11916 
public computational chemistry database (PCCDB) project, http://pccdb.org 
 
 22 22  0  0  0  0  0  0  0  0999 V2000 
    1.7639   -0.3371   -1.7895 C   0  0  0  0  0  0  0  0  0  0  0  0 
    3.9029   -0.8455   -0.6977 C   0  0  0  0  0  0  0  0  0  0  0  0 
    0.9409    4.7596   -2.4091 C   0  0  0  0  0  0  0  0  0  0  0  0 
    1.1959    4.6764   -1.0378 C   0  0  0  0  0  0  0  0  0  0  0  0 
    1.4013    3.7561   -3.2631 C   0  0  0  0  0  0  0  0  0  0  0  0 
    1.9066    3.5940   -0.5237 C   0  0  0  0  0  0  0  0  0  0  0  0 
    2.0952    2.6613   -2.7459 C   0  0  0  0  0  0  0  0  0  0  0  0 
    2.3439    2.5657   -1.3697 C   0  0  0  0  0  0  0  0  0  0  0  0 
    3.1802    1.4691   -0.7630 C   0  0  0  0  0  0  0  0  0  0  0  0 
    2.9963    0.1757   -1.2061 N   0  0  0  0  0  0  0  0  0  0  0  0 
    4.0375    1.7505    0.0721 O   0  0  0  0  0  0  0  0  0  0  0  0 
    1.2995   -1.0645   -1.1082 H   0  0  0  0  0  0  0  0  0  0  0  0 
    1.9620   -0.8456   -2.7423 H   0  0  0  0  0  0  0  0  0  0  0  0 
    1.0531    0.4688   -1.9638 H   0  0  0  0  0  0  0  0  0  0  0  0 
    4.0804   -1.5930   -1.4794 H   0  0  0  0  0  0  0  0  0  0  0  0 
    3.4832   -1.3545    0.1821 H   0  0  0  0  0  0  0  0  0  0  0  0 
    4.8426   -0.3760   -0.4102 H   0  0  0  0  0  0  0  0  0  0  0  0 
    0.3938    5.6081   -2.8115 H   0  0  0  0  0  0  0  0  0  0  0  0 
    0.8494    5.4612   -0.3707 H   0  0  0  0  0  0  0  0  0  0  0  0 
    1.2247    3.8266   -4.3331 H   0  0  0  0  0  0  0  0  0  0  0  0 
    2.1412    3.5336    0.5343 H   0  0  0  0  0  0  0  0  0  0  0  0 
    2.4659    1.8910   -3.4165 H   0  0  0  0  0  0  0  0  0  0  0  0 
  1 10  1  0  0  0  0 
  1 12  1  0  0  0  0 
  2 17  1  0  0  0  0 
  2 16  1  0  0  0  0 
  3  4  2  0  0  0  0 
  4  6  1  0  0  0  0 
  4 19  1  0  0  0  0 
  5  7  2  0  0  0  0 
  5  3  1  0  0  0  0 
  6 21  1  0  0  0  0 
  7  8  1  0  0  0  0 
  8  9  1  0  0  0  0 
  8  6  2  0  0  0  0 
  9 11  2  0  0  0  0 
 10  9  1  0  0  0  0 
 10  2  1  0  0  0  0 
 13  1  1  0  0  0  0 
 14  1  1  0  0  0  0 
 15  2  1  0  0  0  0 
 18  3  1  0  0  0  0 
 20  5  1  0  0  0  0 
 22  7  1  0  0  0  0 
M  END 
>  <HBA> 
2 
 
>  <HBD> 
0 
 
>  <TPSA> 
20.31 
 
>  <cid> 
11916 
 
>  <dipole> 
3.42 
 
>  <excitation_energy_1> 
4.629 
 
>  <excitation_energy_2> 
5.068 
 
>  <excitation_energy_3> 
5.124 
 
>  <excitation_energy_4> 
5.406 
 
>  <homo_energy> 
-6.319 
 
>  <homo_lumo_gap> 
5.622 
 
>  <logP> 
1.388 
 
>  <lumo_energy> 
-0.697 
 
>  <melting_point> 
40.18 
 
>  <molecular_refractivity> 
44.34 
 
>  <oscillator_strength_1> 
0.012 
 
>  <oscillator_strength_2> 
0.0657 
 
>  <oscillator_strength_3> 
0.0142 
 
>  <oscillator_strength_4> 
0.0023 
 
>  <open_babel_can_smiles> 
CN(C(=O)c1ccccc1)C 
 
>  <mulliken_charges> 
22 
1   -0.323612 
2   -0.312415 
3   -0.122352 
4   -0.137166 
5   -0.13384 
6   -0.149539 
7   -0.167251 
8   0.061778 
9   0.516173 
10   -0.40971 
11   -0.512274 
12   0.155767 
13   0.155412 
14   0.181842 
15   0.147896 
16   0.152724 
17   0.198607 
18   0.13389 
19   0.135669 
20   0.133317 
21   0.154512 
22   0.140569 
 
>  <lowdin_charges> 
22 
1   -0.357124 
2   -0.355112 
3   -0.149452 
4   -0.156431 
5   -0.156141 
6   -0.134209 
7   -0.159493 
8   -0.034007 
9   0.154994 
10   -0.110574 
11   -0.307025 
12   0.150178 
13   0.148429 
14   0.173004 
15   0.150474 
16   0.14775 
17   0.181099 
18   0.160458 
19   0.161729 
20   0.15764 
21   0.170749 
22   0.163062 
 
$$$$ 
 
