PCCDB-ID:  28544 
public computational chemistry database (PCCDB) project, http://pccdb.org 
 
 24 24  0  0  1  0  0  0  0  0999 V2000 
    0.8994   -0.3524    0.4676 C   0  0  0  0  0  0  0  0  0  0  0  0 
    4.0678    1.7509   -0.5275 C   0  0  0  0  0  0  0  0  0  0  0  0 
    1.9008    2.4308    0.5104 C   0  0  0  0  0  0  0  0  0  0  0  0 
    3.8509   -0.1646    2.2859 C   0  0  0  0  0  0  0  0  0  0  0  0 
    3.5211    1.0388    1.7885 C   0  0  0  0  0  0  0  0  0  0  0  0 
    3.2278   -1.2324    0.0613 C   0  0  0  0  0  0  0  0  0  0  0  0 
    2.2787   -0.0310   -0.1376 C   0  0  2  0  0  0  0  0  0  0  0  0 
    3.6846   -1.4086    1.5051 C   0  0  0  0  0  0  0  0  0  0  0  0 
    2.9279    1.2811    0.4141 C   0  0  0  0  0  0  0  0  0  0  0  0 
    3.9455   -2.5057    1.9771 O   0  0  0  0  0  0  0  0  0  0  0  0 
    0.5335   -1.3062    0.0714 H   0  0  0  0  0  0  0  0  0  0  0  0 
    0.1552    0.4110    0.2229 H   0  0  0  0  0  0  0  0  0  0  0  0 
    0.9426   -0.4436    1.5591 H   0  0  0  0  0  0  0  0  0  0  0  0 
    4.5631    2.6420   -0.1246 H   0  0  0  0  0  0  0  0  0  0  0  0 
    3.6625    2.0112   -1.5131 H   0  0  0  0  0  0  0  0  0  0  0  0 
    4.8340    0.9818   -0.6624 H   0  0  0  0  0  0  0  0  0  0  0  0 
    2.3986    3.3631    0.8024 H   0  0  0  0  0  0  0  0  0  0  0  0 
    1.1191    2.2270    1.2480 H   0  0  0  0  0  0  0  0  0  0  0  0 
    1.4179    2.6015   -0.4594 H   0  0  0  0  0  0  0  0  0  0  0  0 
    4.2665   -0.2778    3.2842 H   0  0  0  0  0  0  0  0  0  0  0  0 
    3.6973    1.9287    2.3949 H   0  0  0  0  0  0  0  0  0  0  0  0 
    4.1374   -1.1092   -0.5436 H   0  0  0  0  0  0  0  0  0  0  0  0 
    2.7627   -2.1673   -0.2672 H   0  0  0  0  0  0  0  0  0  0  0  0 
    2.1357    0.1101   -1.2183 H   0  0  0  0  0  0  0  0  0  0  0  0 
  1 13  1  0  0  0  0 
  2 14  1  0  0  0  0 
  2  9  1  0  0  0  0 
  3 17  1  0  0  0  0 
  3 18  1  0  0  0  0 
  4 20  1  0  0  0  0 
  5  4  2  0  0  0  0 
  5 21  1  0  0  0  0 
  6  8  1  0  0  0  0 
  7 24  1  6  0  0  0 
  7  6  1  0  0  0  0 
  7  9  1  0  0  0  0 
  7  1  1  0  0  0  0 
  8 10  2  0  0  0  0 
  8  4  1  0  0  0  0 
  9  3  1  0  0  0  0 
  9  5  1  0  0  0  0 
 11  1  1  0  0  0  0 
 12  1  1  0  0  0  0 
 15  2  1  0  0  0  0 
 16  2  1  0  0  0  0 
 19  3  1  0  0  0  0 
 22  6  1  0  0  0  0 
 23  6  1  0  0  0  0 
M  END 
>  <HBA> 
1 
 
>  <HBD> 
0 
 
>  <TPSA> 
17.07 
 
>  <cid> 
28544 
 
>  <dipole> 
3.84 
 
>  <excitation_energy_1> 
3.562 
 
>  <excitation_energy_2> 
5.598 
 
>  <excitation_energy_3> 
5.982 
 
>  <excitation_energy_4> 
6.047 
 
>  <homo_energy> 
-6.376 
 
>  <homo_lumo_gap> 
5.067 
 
>  <logP> 
2.178 
 
>  <lumo_energy> 
-1.309 
 
>  <melting_point> 
43.89 
 
>  <molecular_refractivity> 
42.73 
 
>  <oscillator_strength_1> 
0.0002 
 
>  <oscillator_strength_2> 
0.2523 
 
>  <oscillator_strength_3> 
0.0025 
 
>  <oscillator_strength_4> 
0.0001 
 
>  <open_babel_can_smiles> 
C[C@@H]1CC(=O)C=CC1(C)C 
 
>  <mulliken_charges> 
24 
1   -0.459187 
2   -0.450747 
3   -0.4649 
4   -0.169652 
5   -0.098336 
6   -0.370364 
7   -0.098366 
8   0.441084 
9   0.065103 
10   -0.474131 
11   0.148944 
12   0.14897 
13   0.153971 
14   0.146336 
15   0.147496 
16   0.153357 
17   0.142913 
18   0.157614 
19   0.147307 
20   0.14422 
21   0.136984 
22   0.164667 
23   0.162427 
24   0.124291 
 
>  <lowdin_charges> 
24 
1   -0.450023 
2   -0.43964 
3   -0.442896 
4   -0.20497 
5   -0.114143 
6   -0.308872 
7   -0.120785 
8   0.149166 
9   0.006607 
10   -0.246109 
11   0.154073 
12   0.153016 
13   0.151475 
14   0.152443 
15   0.150975 
16   0.15368 
17   0.150281 
18   0.156303 
19   0.151958 
20   0.168058 
21   0.159357 
22   0.165308 
23   0.164736 
24   0.140002 
 
$$$$ 
 
