PCCDB-ID:  15450 
public computational chemistry database (PCCDB) project, http://pccdb.org 
 
 27 26  0  0  0  0  0  0  0  0999 V2000 
    1.1114   -0.7386   -1.0145 C   0  0  0  0  0  0  0  0  0  0  0  0 
    1.0412   -2.7442   -2.5450 C   0  0  0  0  0  0  0  0  0  0  0  0 
    5.4004   -0.1360   -2.5226 C   0  0  0  0  0  0  0  0  0  0  0  0 
    4.1944   -0.5676   -1.6767 C   0  0  0  0  0  0  0  0  0  0  0  0 
    6.4653    0.6168   -1.7161 C   0  0  0  0  0  0  0  0  0  0  0  0 
    3.1262   -1.3149   -2.4870 C   0  0  0  0  0  0  0  0  0  0  0  0 
    7.6602    1.0471   -2.5573 C   0  0  0  0  0  0  0  0  0  0  0  0 
    1.9377   -1.8572   -1.6681 C   0  0  0  0  0  0  0  0  0  0  0  0 
    8.5740    1.7330   -1.7063 O   0  0  0  0  0  0  0  0  0  0  0  0 
    0.2684   -1.1543   -0.4497 H   0  0  0  0  0  0  0  0  0  0  0  0 
    0.6993   -0.0612   -1.7745 H   0  0  0  0  0  0  0  0  0  0  0  0 
    1.7081   -0.1372   -0.3205 H   0  0  0  0  0  0  0  0  0  0  0  0 
    0.2124   -3.1698   -1.9663 H   0  0  0  0  0  0  0  0  0  0  0  0 
    1.6055   -3.5762   -2.9834 H   0  0  0  0  0  0  0  0  0  0  0  0 
    0.6053   -2.1667   -3.3711 H   0  0  0  0  0  0  0  0  0  0  0  0 
    5.0523    0.4981   -3.3517 H   0  0  0  0  0  0  0  0  0  0  0  0 
    5.8512   -1.0246   -2.9889 H   0  0  0  0  0  0  0  0  0  0  0  0 
    3.7557    0.3216   -1.2047 H   0  0  0  0  0  0  0  0  0  0  0  0 
    4.5428   -1.2095   -0.8538 H   0  0  0  0  0  0  0  0  0  0  0  0 
    6.8306   -0.0112   -0.8926 H   0  0  0  0  0  0  0  0  0  0  0  0 
    6.0273    1.5120   -1.2551 H   0  0  0  0  0  0  0  0  0  0  0  0 
    3.6048   -2.1583   -3.0061 H   0  0  0  0  0  0  0  0  0  0  0  0 
    2.7409   -0.6532   -3.2785 H   0  0  0  0  0  0  0  0  0  0  0  0 
    7.3213    1.6979   -3.3814 H   0  0  0  0  0  0  0  0  0  0  0  0 
    8.1328    0.1613   -3.0148 H   0  0  0  0  0  0  0  0  0  0  0  0 
    2.3487   -2.4871   -0.8632 H   0  0  0  0  0  0  0  0  0  0  0  0 
    9.3308    2.0101   -2.2442 H   0  0  0  0  0  0  0  0  0  0  0  0 
  1 10  1  0  0  0  0 
  1 12  1  0  0  0  0 
  2 13  1  0  0  0  0 
  2  8  1  0  0  0  0 
  3  5  1  0  0  0  0 
  3  4  1  0  0  0  0 
  4 18  1  0  0  0  0 
  4 19  1  0  0  0  0 
  5 21  1  0  0  0  0 
  5 20  1  0  0  0  0 
  6  4  1  0  0  0  0 
  6  8  1  0  0  0  0 
  7  5  1  0  0  0  0 
  7  9  1  0  0  0  0 
  8  1  1  0  0  0  0 
  8 26  1  0  0  0  0 
 11  1  1  0  0  0  0 
 14  2  1  0  0  0  0 
 15  2  1  0  0  0  0 
 16  3  1  0  0  0  0 
 17  3  1  0  0  0  0 
 22  6  1  0  0  0  0 
 23  6  1  0  0  0  0 
 24  7  1  0  0  0  0 
 25  7  1  0  0  0  0 
 27  9  1  0  0  0  0 
M  END 
>  <HBA> 
1 
 
>  <HBD> 
1 
 
>  <TPSA> 
20.23 
 
>  <cid> 
15450 
 
>  <dipole> 
1.44 
 
>  <excitation_energy_1> 
6.321 
 
>  <excitation_energy_2> 
7.308 
 
>  <excitation_energy_3> 
7.405 
 
>  <excitation_energy_4> 
7.607 
 
>  <homo_energy> 
-7.1 
 
>  <homo_lumo_gap> 
9.225 
 
>  <logP> 
2.195 
 
>  <lumo_energy> 
2.125 
 
>  <melting_point> 
-9.27 
 
>  <molecular_refractivity> 
41.73 
 
>  <oscillator_strength_1> 
0.0007 
 
>  <oscillator_strength_2> 
0.0081 
 
>  <oscillator_strength_3> 
0.0099 
 
>  <oscillator_strength_4> 
0.0111 
 
>  <open_babel_can_smiles> 
OCCCCCC(C)C 
 
>  <mulliken_charges> 
27 
1   -0.445077 
2   -0.441932 
3   -0.262055 
4   -0.257212 
5   -0.259699 
6   -0.246474 
7   -0.02743 
8   -0.064487 
9   -0.620241 
10   0.139228 
11   0.136876 
12   0.14548 
13   0.138587 
14   0.138341 
15   0.137604 
16   0.12788 
17   0.127579 
18   0.134303 
19   0.12838 
20   0.143314 
21   0.143281 
22   0.123856 
23   0.122412 
24   0.114314 
25   0.114391 
26   0.119331 
27   0.389452 
 
>  <lowdin_charges> 
27 
1   -0.450116 
2   -0.446671 
3   -0.275513 
4   -0.276585 
5   -0.281732 
6   -0.277504 
7   -0.135675 
8   -0.121477 
9   -0.475009 
10   0.148794 
11   0.145699 
12   0.150246 
13   0.147948 
14   0.147368 
15   0.145755 
16   0.13836 
17   0.1379 
18   0.141372 
19   0.139311 
20   0.148236 
21   0.147921 
22   0.139252 
23   0.137008 
24   0.123144 
25   0.122843 
26   0.135196 
27   0.343929 
 
$$$$ 
 
