PCCDB-ID:  66869 
public computational chemistry database (PCCDB) project, http://pccdb.org 
 
 30 31  0  0  0  0  0  0  0  0999 V2000 
    1.1756   -0.5658   -0.6287 C   0  0  0  0  0  0  0  0  0  0  0  0 
    4.6197   -4.0840    7.5018 C   0  0  0  0  0  0  0  0  0  0  0  0 
    2.5682   -2.8463    7.3202 C   0  0  0  0  0  0  0  0  0  0  0  0 
    5.0836   -3.4772    6.3386 C   0  0  0  0  0  0  0  0  0  0  0  0 
    3.0417   -2.2187    6.1717 C   0  0  0  0  0  0  0  0  0  0  0  0 
    4.8360   -0.5857    2.4862 C   0  0  0  0  0  0  0  0  0  0  0  0 
    2.9046   -1.9314    2.9899 C   0  0  0  0  0  0  0  0  0  0  0  0 
    4.2454   -0.1704    1.3025 C   0  0  0  0  0  0  0  0  0  0  0  0 
    2.2974   -1.4977    1.8070 C   0  0  0  0  0  0  0  0  0  0  0  0 
    3.3463   -3.7884    8.0107 C   0  0  0  0  0  0  0  0  0  0  0  0 
    4.3081   -2.5310    5.6503 C   0  0  0  0  0  0  0  0  0  0  0  0 
    4.1787   -1.4784    3.3563 C   0  0  0  0  0  0  0  0  0  0  0  0 
    2.9628   -0.6152    0.9527 C   0  0  0  0  0  0  0  0  0  0  0  0 
    2.8921   -4.3647    9.2102 N   0  0  0  0  0  0  0  0  0  0  0  0 
    4.8419   -1.8866    4.5220 N   0  0  0  0  0  0  0  0  0  0  0  0 
    2.4613   -0.1304   -0.2285 O   0  0  0  0  0  0  0  0  0  0  0  0 
    0.9722   -0.0723   -1.5814 H   0  0  0  0  0  0  0  0  0  0  0  0 
    0.4037   -0.2777    0.0987 H   0  0  0  0  0  0  0  0  0  0  0  0 
    1.1408   -1.6549   -0.7720 H   0  0  0  0  0  0  0  0  0  0  0  0 
    5.2505   -4.8057    8.0167 H   0  0  0  0  0  0  0  0  0  0  0  0 
    1.5839   -2.5825    7.7020 H   0  0  0  0  0  0  0  0  0  0  0  0 
    6.0660   -3.7434    5.9538 H   0  0  0  0  0  0  0  0  0  0  0  0 
    2.4296   -1.4672    5.6842 H   0  0  0  0  0  0  0  0  0  0  0  0 
    5.8235   -0.2141    2.7516 H   0  0  0  0  0  0  0  0  0  0  0  0 
    2.3823   -2.6420    3.6207 H   0  0  0  0  0  0  0  0  0  0  0  0 
    4.7588    0.5149    0.6350 H   0  0  0  0  0  0  0  0  0  0  0  0 
    1.3094   -1.8719    1.5627 H   0  0  0  0  0  0  0  0  0  0  0  0 
    3.3019   -5.2697    9.4113 H   0  0  0  0  0  0  0  0  0  0  0  0 
    1.8825   -4.4129    9.2849 H   0  0  0  0  0  0  0  0  0  0  0  0 
    5.8501   -1.8829    4.4651 H   0  0  0  0  0  0  0  0  0  0  0  0 
  1 16  1  0  0  0  0 
  1 18  1  0  0  0  0 
  2 10  1  0  0  0  0 
  2 20  1  0  0  0  0 
  3 21  1  0  0  0  0 
  3 10  2  0  0  0  0 
  4  2  2  0  0  0  0 
  5  3  1  0  0  0  0 
  6 24  1  0  0  0  0 
  6 12  2  0  0  0  0 
  7 12  1  0  0  0  0 
  7 25  1  0  0  0  0 
  8  6  1  0  0  0  0 
  9  7  2  0  0  0  0 
 10 14  1  0  0  0  0 
 11  5  2  0  0  0  0 
 11  4  1  0  0  0  0 
 12 15  1  0  0  0  0 
 13  8  2  0  0  0  0 
 13  9  1  0  0  0  0 
 14 29  1  0  0  0  0 
 14 28  1  0  0  0  0 
 15 11  1  0  0  0  0 
 16 13  1  0  0  0  0 
 17  1  1  0  0  0  0 
 19  1  1  0  0  0  0 
 22  4  1  0  0  0  0 
 23  5  1  0  0  0  0 
 26  8  1  0  0  0  0 
 27  9  1  0  0  0  0 
 30 15  1  0  0  0  0 
M  END 
>  <HBA> 
2 
 
>  <HBD> 
2 
 
>  <TPSA> 
47.28 
 
>  <cid> 
66869 
 
>  <dipole> 
2.4 
 
>  <excitation_energy_1> 
3.704 
 
>  <excitation_energy_2> 
3.875 
 
>  <excitation_energy_3> 
3.963 
 
>  <excitation_energy_4> 
4.015 
 
>  <homo_energy> 
-4.425 
 
>  <homo_lumo_gap> 
4.517 
 
>  <logP> 
3.675 
 
>  <lumo_energy> 
0.093 
 
>  <melting_point> 
133.71 
 
>  <molecular_refractivity> 
66.88 
 
>  <oscillator_strength_1> 
0.0107 
 
>  <oscillator_strength_2> 
0.0459 
 
>  <oscillator_strength_3> 
0.2125 
 
>  <oscillator_strength_4> 
0.0451 
 
>  <open_babel_can_smiles> 
COc1ccc(cc1)Nc1ccc(cc1)N 
 
>  <mulliken_charges> 
30 
1   -0.210383 
2   -0.176316 
3   -0.184231 
4   -0.196776 
5   -0.177076 
6   -0.194123 
7   -0.188404 
8   -0.175978 
9   -0.206525 
10   0.30025 
11   0.355835 
12   0.360147 
13   0.369915 
14   -0.786892 
15   -0.798156 
16   -0.513503 
17   0.165262 
18   0.1468 
19   0.147104 
20   0.116153 
21   0.116994 
22   0.117649 
23   0.141718 
24   0.119925 
25   0.140232 
26   0.134878 
27   0.127725 
28   0.314541 
29   0.315044 
30   0.318189 
 
>  <lowdin_charges> 
30 
1   -0.275818 
2   -0.192171 
3   -0.19115 
4   -0.18231 
5   -0.178675 
6   -0.183632 
7   -0.19177 
8   -0.173642 
9   -0.204174 
10   0.043459 
11   0.034451 
12   0.043466 
13   0.081358 
14   -0.493329 
15   -0.262406 
16   -0.207155 
17   0.160131 
18   0.142695 
19   0.139781 
20   0.153983 
21   0.152274 
22   0.152066 
23   0.16639 
24   0.153207 
25   0.166247 
26   0.166793 
27   0.160014 
28   0.270976 
29   0.269803 
30   0.279139 
 
$$$$ 
 
