PCCDB-ID:  7040 
public computational chemistry database (PCCDB) project, http://pccdb.org 
 
 19 19  0  0  0  0  0  0  0  0999 V2000 
    1.3755   -0.1419    0.2713 C   0  0  0  0  0  0  0  0  0  0  0  0 
    5.6521    0.2112   -0.3310 C   0  0  0  0  0  0  0  0  0  0  0  0 
    4.9051    1.3457   -0.0335 C   0  0  0  0  0  0  0  0  0  0  0  0 
    5.0310   -1.0302   -0.4346 C   0  0  0  0  0  0  0  0  0  0  0  0 
    2.8877    3.5594    0.6338 C   0  0  0  0  0  0  0  0  0  0  0  0 
    3.2256   -3.5250   -0.5567 C   0  0  0  0  0  0  0  0  0  0  0  0 
    2.8607   -0.0013    0.0649 C   0  0  0  0  0  0  0  0  0  0  0  0 
    3.5202    1.2373    0.1633 C   0  0  0  0  0  0  0  0  0  0  0  0 
    3.6480   -1.1283   -0.2377 C   0  0  0  0  0  0  0  0  0  0  0  0 
    2.7543    2.3698    0.4637 N   0  0  0  0  0  0  0  0  0  0  0  0 
    2.9910   -2.3596   -0.3346 N   0  0  0  0  0  0  0  0  0  0  0  0 
    2.8784    4.7223    0.8219 O   0  0  0  0  0  0  0  0  0  0  0  0 
    3.3155   -4.6825   -0.7554 O   0  0  0  0  0  0  0  0  0  0  0  0 
    0.9145    0.8272    0.4680 H   0  0  0  0  0  0  0  0  0  0  0  0 
    1.1589   -0.8082    1.1145 H   0  0  0  0  0  0  0  0  0  0  0  0 
    0.8983   -0.5841   -0.6106 H   0  0  0  0  0  0  0  0  0  0  0  0 
    6.7241    0.2942   -0.4831 H   0  0  0  0  0  0  0  0  0  0  0  0 
    5.3818    2.3177    0.0492 H   0  0  0  0  0  0  0  0  0  0  0  0 
    5.6049   -1.9222   -0.6664 H   0  0  0  0  0  0  0  0  0  0  0  0 
  1 14  1  0  0  0  0 
  1 15  1  0  0  0  0 
  2  3  1  0  0  0  0 
  3 18  1  0  0  0  0 
  3  8  2  0  0  0  0 
  4  2  2  0  0  0  0 
  4  9  1  0  0  0  0 
  5 12  2  0  0  0  0 
  6 11  2  0  0  0  0 
  7  8  1  0  0  0  0 
  7  1  1  0  0  0  0 
  8 10  1  0  0  0  0 
  9  7  2  0  0  0  0 
 10  5  2  0  0  0  0 
 11  9  1  0  0  0  0 
 13  6  2  0  0  0  0 
 16  1  1  0  0  0  0 
 17  2  1  0  0  0  0 
 19  4  1  0  0  0  0 
M  END 
>  <HBA> 
4 
 
>  <HBD> 
0 
 
>  <TPSA> 
58.86 
 
>  <cid> 
7040 
 
>  <dipole> 
1.31 
 
>  <excitation_energy_1> 
4.677 
 
>  <excitation_energy_2> 
5.072 
 
>  <excitation_energy_3> 
5.204 
 
>  <excitation_energy_4> 
5.331 
 
>  <homo_energy> 
-6.528 
 
>  <homo_lumo_gap> 
5.478 
 
>  <logP> 
1.93 
 
>  <lumo_energy> 
-1.05 
 
>  <melting_point> 
125.46 
 
>  <molecular_refractivity> 
46.97 
 
>  <oscillator_strength_1> 
0.0209 
 
>  <oscillator_strength_2> 
0.0787 
 
>  <oscillator_strength_3> 
0.0 
 
>  <oscillator_strength_4> 
0.0009 
 
>  <open_babel_can_smiles> 
O=C=Nc1cccc(c1C)N=C=O 
 
>  <mulliken_charges> 
19 
1   -0.516407 
2   -0.159878 
3   -0.135917 
4   -0.134555 
5   0.594788 
6   0.593673 
7   0.133241 
8   0.232379 
9   0.226209 
10   -0.504833 
11   -0.496393 
12   -0.394231 
13   -0.392891 
14   0.178253 
15   0.172498 
16   0.172517 
17   0.145814 
18   0.142788 
19   0.142946 
 
>  <lowdin_charges> 
19 
1   -0.442026 
2   -0.142993 
3   -0.175599 
4   -0.176194 
5   0.184992 
6   0.187396 
7   -0.013318 
8   0.06025 
9   0.06204 
10   -0.138402 
11   -0.138498 
12   -0.138112 
13   -0.137321 
14   0.170497 
15   0.169241 
16   0.169375 
17   0.165434 
18   0.166185 
19   0.167053 
 
$$$$ 
 
