PCCDB-ID:  15827 
public computational chemistry database (PCCDB) project, http://pccdb.org 
 
 22 21  0  0  0  0  0  0  0  0999 V2000 
    0.9570   -0.0633    0.1383 C   0  0  0  0  0  0  0  0  0  0  0  0 
    2.9678   -1.3887    0.8968 C   0  0  0  0  0  0  0  0  0  0  0  0 
    4.5952    0.1524   -1.3174 C   0  0  0  0  0  0  0  0  0  0  0  0 
    5.1041    0.3549   -2.7455 C   0  0  0  0  0  0  0  0  0  0  0  0 
    3.0698    0.0042   -1.2485 C   0  0  0  0  0  0  0  0  0  0  0  0 
    6.6043    0.5004   -2.8588 C   0  0  0  0  0  0  0  0  0  0  0  0 
    2.4916   -0.1182    0.1758 C   0  0  0  0  0  0  0  0  0  0  0  0 
    7.3762    0.4672   -1.9255 O   0  0  0  0  0  0  0  0  0  0  0  0 
    0.5327   -0.1123    1.1481 H   0  0  0  0  0  0  0  0  0  0  0  0 
    0.5484   -0.9067   -0.4341 H   0  0  0  0  0  0  0  0  0  0  0  0 
    0.6005    0.8613   -0.3315 H   0  0  0  0  0  0  0  0  0  0  0  0 
    2.5335   -1.4537    1.9014 H   0  0  0  0  0  0  0  0  0  0  0  0 
    4.0570   -1.4180    1.0072 H   0  0  0  0  0  0  0  0  0  0  0  0 
    2.6623   -2.2877    0.3448 H   0  0  0  0  0  0  0  0  0  0  0  0 
    4.9165    1.0026   -0.7019 H   0  0  0  0  0  0  0  0  0  0  0  0 
    5.0906   -0.7274   -0.8917 H   0  0  0  0  0  0  0  0  0  0  0  0 
    4.6542    1.2470   -3.2113 H   0  0  0  0  0  0  0  0  0  0  0  0 
    4.8073   -0.4799   -3.4013 H   0  0  0  0  0  0  0  0  0  0  0  0 
    2.7585   -0.8740   -1.8358 H   0  0  0  0  0  0  0  0  0  0  0  0 
    2.6071    0.8738   -1.7385 H   0  0  0  0  0  0  0  0  0  0  0  0 
    6.9814    0.6470   -3.8976 H   0  0  0  0  0  0  0  0  0  0  0  0 
    2.8450    0.7506    0.7529 H   0  0  0  0  0  0  0  0  0  0  0  0 
  1  7  1  0  0  0  0 
  1  9  1  0  0  0  0 
  2 13  1  0  0  0  0 
  2 12  1  0  0  0  0 
  3  5  1  0  0  0  0 
  3 16  1  0  0  0  0 
  3 15  1  0  0  0  0 
  4  3  1  0  0  0  0 
  5  7  1  0  0  0  0 
  6  4  1  0  0  0  0 
  6  8  2  0  0  0  0 
  7 22  1  0  0  0  0 
  7  2  1  0  0  0  0 
 10  1  1  0  0  0  0 
 11  1  1  0  0  0  0 
 14  2  1  0  0  0  0 
 17  4  1  0  0  0  0 
 18  4  1  0  0  0  0 
 19  5  1  0  0  0  0 
 20  5  1  0  0  0  0 
 21  6  1  0  0  0  0 
M  END 
>  <HBA> 
1 
 
>  <HBD> 
0 
 
>  <TPSA> 
17.07 
 
>  <cid> 
15827 
 
>  <dipole> 
2.45 
 
>  <excitation_energy_1> 
4.33 
 
>  <excitation_energy_2> 
6.497 
 
>  <excitation_energy_3> 
6.836 
 
>  <excitation_energy_4> 
7.092 
 
>  <homo_energy> 
-6.849 
 
>  <homo_lumo_gap> 
6.346 
 
>  <logP> 
2.012 
 
>  <lumo_energy> 
-0.503 
 
>  <melting_point> 
4.5 
 
>  <molecular_refractivity> 
35.96 
 
>  <oscillator_strength_1> 
0.0002 
 
>  <oscillator_strength_2> 
0.0243 
 
>  <oscillator_strength_3> 
0.0445 
 
>  <oscillator_strength_4> 
0.0006 
 
>  <open_babel_can_smiles> 
O=CCCCC(C)C 
 
>  <mulliken_charges> 
22 
1   -0.442276 
2   -0.447079 
3   -0.254164 
4   -0.351368 
5   -0.25013 
6   0.25352 
7   -0.066195 
8   -0.38316 
9   0.140972 
10   0.138095 
11   0.138729 
12   0.141378 
13   0.149823 
14   0.136877 
15   0.148139 
16   0.15407 
17   0.160126 
18   0.160542 
19   0.122958 
20   0.123764 
21   0.102824 
22   0.122555 
 
>  <lowdin_charges> 
22 
1   -0.445003 
2   -0.44488 
3   -0.275078 
4   -0.314709 
5   -0.277353 
6   0.059364 
7   -0.12035 
8   -0.221414 
9   0.14783 
10   0.145976 
11   0.146991 
12   0.148562 
13   0.149092 
14   0.144983 
15   0.151082 
16   0.153012 
17   0.163206 
18   0.163786 
19   0.136648 
20   0.138732 
21   0.113124 
22   0.136397 
 
$$$$ 
 
