PCCDB-ID:  21958 
public computational chemistry database (PCCDB) project, http://pccdb.org 
 
 13 12  0  0  0  0  0  0  0  0999 V2000 
    2.4261   -1.0980    0.4278 C   0  0  0  0  0  0  0  0  0  0  0  0 
    2.7017    2.6066   -0.4215 C   0  0  0  0  0  0  0  0  0  0  0  0 
    3.0016    1.3464   -0.0702 C   0  0  0  0  0  0  0  0  0  0  0  0 
    3.7404    3.6627   -0.5127 C   0  0  0  0  0  0  0  0  0  0  0  0 
    1.9521    0.2818    0.0199 C   0  0  0  0  0  0  0  0  0  0  0  0 
    4.9212    3.4797   -0.2833 O   0  0  0  0  0  0  0  0  0  0  0  0 
    0.7814    0.5242   -0.2238 O   0  0  0  0  0  0  0  0  0  0  0  0 
    3.1789   -1.4677   -0.2804 H   0  0  0  0  0  0  0  0  0  0  0  0 
    1.5812   -1.7878    0.4601 H   0  0  0  0  0  0  0  0  0  0  0  0 
    2.9096   -1.0592    1.4125 H   0  0  0  0  0  0  0  0  0  0  0  0 
    1.6713    2.8722   -0.6482 H   0  0  0  0  0  0  0  0  0  0  0  0 
    4.0343    1.0877    0.1555 H   0  0  0  0  0  0  0  0  0  0  0  0 
    3.3716    4.6656   -0.8122 H   0  0  0  0  0  0  0  0  0  0  0  0 
  1  9  1  0  0  0  0 
  1 10  1  0  0  0  0 
  2  3  2  0  0  0  0 
  3  5  1  0  0  0  0 
  3 12  1  0  0  0  0 
  4  2  1  0  0  0  0 
  4  6  2  0  0  0  0 
  5  1  1  0  0  0  0 
  7  5  2  0  0  0  0 
  8  1  1  0  0  0  0 
 11  2  1  0  0  0  0 
 13  4  1  0  0  0  0 
M  END 
>  <HBA> 
2 
 
>  <HBD> 
0 
 
>  <TPSA> 
34.14 
 
>  <cid> 
21958 
 
>  <dipole> 
0.9 
 
>  <excitation_energy_1> 
2.992 
 
>  <excitation_energy_2> 
3.051 
 
>  <excitation_energy_3> 
4.99 
 
>  <excitation_energy_4> 
5.614 
 
>  <homo_energy> 
-7.184 
 
>  <homo_lumo_gap> 
4.332 
 
>  <logP> 
0.331 
 
>  <lumo_energy> 
-2.852 
 
>  <melting_point> 
37.01 
 
>  <molecular_refractivity> 
26.07 
 
>  <oscillator_strength_1> 
0.0 
 
>  <oscillator_strength_2> 
0.0001 
 
>  <oscillator_strength_3> 
0.3765 
 
>  <oscillator_strength_4> 
0.0005 
 
>  <open_babel_can_smiles> 
O=C/C=C/C(=O)C 
 
>  <mulliken_charges> 
13 
1   -0.539235 
2   -0.148418 
3   -0.148272 
4   0.22271 
5   0.435026 
6   -0.387688 
7   -0.437587 
8   0.177135 
9   0.185113 
10   0.177173 
11   0.175596 
12   0.171076 
13   0.117372 
 
>  <lowdin_charges> 
13 
1   -0.472758 
2   -0.155782 
3   -0.142616 
4   0.047361 
5   0.158282 
6   -0.213214 
7   -0.226846 
8   0.175258 
9   0.1767 
10   0.173987 
11   0.178549 
12   0.175384 
13   0.125694 
 
$$$$ 
 
