PCCDB-ID:  7489 
public computational chemistry database (PCCDB) project, http://pccdb.org 
 
 18 18  0  0  0  0  0  0  0  0999 V2000 
   -0.7815    1.1411   -0.0828 C   0  0  0  0  0  0  0  0  0  0  0  0 
   -1.3840   -0.1117   -0.0536 C   0  0  0  0  0  0  0  0  0  0  0  0 
    1.4036    0.0819   -0.0864 C   0  0  0  0  0  0  0  0  0  0  0  0 
    0.8011   -1.1708   -0.0569 C   0  0  0  0  0  0  0  0  0  0  0  0 
    0.6172    1.2417   -0.0998 C   0  0  0  0  0  0  0  0  0  0  0  0 
   -0.5975   -1.2715   -0.0406 C   0  0  0  0  0  0  0  0  0  0  0  0 
    1.3176    2.5560   -0.1314 C   0  0  0  0  0  0  0  0  0  0  0  0 
   -1.2979   -2.5858   -0.0092 C   0  0  0  0  0  0  0  0  0  0  0  0 
    0.4641    3.6106   -0.1429 O   0  0  0  0  0  0  0  0  0  0  0  0 
    2.5234    2.6983   -0.1469 O   0  0  0  0  0  0  0  0  0  0  0  0 
   -0.4445   -3.6404   -0.0007 O   0  0  0  0  0  0  0  0  0  0  0  0 
   -2.5037   -2.7280    0.0076 O   0  0  0  0  0  0  0  0  0  0  0  0 
   -1.3862    2.0406   -0.0938 H   0  0  0  0  0  0  0  0  0  0  0  0 
   -2.4638   -0.2140   -0.0411 H   0  0  0  0  0  0  0  0  0  0  0  0 
    2.4834    0.1842   -0.1004 H   0  0  0  0  0  0  0  0  0  0  0  0 
    1.4059   -2.0704   -0.0471 H   0  0  0  0  0  0  0  0  0  0  0  0 
    1.0269    4.4068   -0.1633 H   0  0  0  0  0  0  0  0  0  0  0  0 
   -1.0073   -4.4366    0.0222 H   0  0  0  0  0  0  0  0  0  0  0  0 
  1  2  2  0  0  0  0 
  2 14  1  0  0  0  0 
  2  6  1  0  0  0  0 
  3  4  1  0  0  0  0 
  4 16  1  0  0  0  0 
  4  6  2  0  0  0  0 
  5  3  2  0  0  0  0 
  5  1  1  0  0  0  0 
  6  8  1  0  0  0  0 
  7  5  1  0  0  0  0 
  8 11  1  0  0  0  0 
  8 12  2  0  0  0  0 
  9  7  1  0  0  0  0 
 10  7  2  0  0  0  0 
 11 18  1  0  0  0  0 
 13  1  1  0  0  0  0 
 15  3  1  0  0  0  0 
 17  9  1  0  0  0  0 
M  END 
>  <HBA> 
4 
 
>  <HBD> 
2 
 
>  <TPSA> 
74.6 
 
>  <cid> 
7489 
 
>  <dipole> 
0.0 
 
>  <excitation_energy_1> 
4.511 
 
>  <excitation_energy_2> 
4.527 
 
>  <excitation_energy_3> 
4.57 
 
>  <excitation_energy_4> 
5.013 
 
>  <homo_energy> 
-7.388 
 
>  <homo_lumo_gap> 
5.263 
 
>  <logP> 
1.083 
 
>  <lumo_energy> 
-2.125 
 
>  <melting_point> 
186.97 
 
>  <molecular_refractivity> 
40.36 
 
>  <oscillator_strength_1> 
0.0354 
 
>  <oscillator_strength_2> 
0.0 
 
>  <oscillator_strength_3> 
0.0 
 
>  <oscillator_strength_4> 
0.4373 
 
>  <open_babel_can_smiles> 
OC(=O)c1ccc(cc1)C(=O)O 
 
>  <mulliken_charges> 
18 
1   -0.16797 
2   -0.163552 
3   -0.163458 
4   -0.168169 
5   0.07851 
6   0.078652 
7   0.543991 
8   0.544 
9   -0.580175 
10   -0.467541 
11   -0.580174 
12   -0.467535 
13   0.169071 
14   0.172256 
15   0.172253 
16   0.16907 
17   0.415386 
18   0.415385 
 
>  <lowdin_charges> 
18 
1   -0.138039 
2   -0.126633 
3   -0.126632 
4   -0.138047 
5   -0.032156 
6   -0.032153 
7   0.191525 
8   0.191517 
9   -0.355321 
10   -0.263828 
11   -0.35532 
12   -0.26382 
13   0.178701 
14   0.179406 
15   0.179408 
16   0.178702 
17   0.366345 
18   0.366346 
 
$$$$ 
 
