PCCDB-ID:  73023 
public computational chemistry database (PCCDB) project, http://pccdb.org 
 
 19 20  0  0  0  0  0  0  0  0999 V2000 
    1.0306    0.1300    0.1317 C   0  0  0  0  0  0  0  0  0  0  0  0 
    6.6647   -2.2970   -0.2057 C   0  0  0  0  0  0  0  0  0  0  0  0 
    7.2964   -1.0391   -0.1616 C   0  0  0  0  0  0  0  0  0  0  0  0 
    5.2814   -2.3887   -0.1606 C   0  0  0  0  0  0  0  0  0  0  0  0 
    6.5476    0.1235   -0.0730 C   0  0  0  0  0  0  0  0  0  0  0  0 
    4.5155   -1.2172   -0.0705 C   0  0  0  0  0  0  0  0  0  0  0  0 
    5.1435    0.0419   -0.0261 C   0  0  0  0  0  0  0  0  0  0  0  0 
    3.0564   -1.2584   -0.0169 C   0  0  0  0  0  0  0  0  0  0  0  0 
    4.4240    1.2330    0.0627 N   0  0  0  0  0  0  0  0  0  0  0  0 
    3.1568    1.2116    0.1090 N   0  0  0  0  0  0  0  0  0  0  0  0 
    2.4856    0.0201    0.0716 N   0  0  0  0  0  0  0  0  0  0  0  0 
    2.3531   -2.2604   -0.0425 O   0  0  0  0  0  0  0  0  0  0  0  0 
    0.6520   -0.4062    1.0059 H   0  0  0  0  0  0  0  0  0  0  0  0 
    0.5860   -0.3143   -0.7626 H   0  0  0  0  0  0  0  0  0  0  0  0 
    0.7883    1.1901    0.1958 H   0  0  0  0  0  0  0  0  0  0  0  0 
    7.2657   -3.1990   -0.2757 H   0  0  0  0  0  0  0  0  0  0  0  0 
    8.3807   -0.9811   -0.1963 H   0  0  0  0  0  0  0  0  0  0  0  0 
    4.7688   -3.3445   -0.1915 H   0  0  0  0  0  0  0  0  0  0  0  0 
    7.0100    1.1046   -0.0371 H   0  0  0  0  0  0  0  0  0  0  0  0 
  1 15  1  0  0  0  0 
  1 13  1  0  0  0  0 
  2  3  2  0  0  0  0 
  2  4  1  0  0  0  0 
  3  5  1  0  0  0  0 
  4  6  2  0  0  0  0 
  5 19  1  0  0  0  0 
  5  7  2  0  0  0  0 
  6  7  1  0  0  0  0 
  6  8  1  0  0  0  0 
  7  9  1  0  0  0  0 
  8 11  1  0  0  0  0 
  9 10  2  0  0  0  0 
 11 10  1  0  0  0  0 
 11  1  1  0  0  0  0 
 12  8  2  0  0  0  0 
 14  1  1  0  0  0  0 
 16  2  1  0  0  0  0 
 17  3  1  0  0  0  0 
 18  4  1  0  0  0  0 
M  END 
>  <HBA> 
4 
 
>  <HBD> 
0 
 
>  <TPSA> 
47.78 
 
>  <cid> 
73023 
 
>  <dipole> 
1.76 
 
>  <excitation_energy_1> 
3.806 
 
>  <excitation_energy_2> 
4.335 
 
>  <excitation_energy_3> 
4.373 
 
>  <excitation_energy_4> 
4.535 
 
>  <homo_energy> 
-6.776 
 
>  <homo_lumo_gap> 
4.887 
 
>  <logP> 
0.329 
 
>  <lumo_energy> 
-1.888 
 
>  <melting_point> 
117.27 
 
>  <molecular_refractivity> 
45.06 
 
>  <oscillator_strength_1> 
0.0029 
 
>  <oscillator_strength_2> 
0.0001 
 
>  <oscillator_strength_3> 
0.1615 
 
>  <oscillator_strength_4> 
0.0134 
 
>  <open_babel_can_smiles> 
Cn1nnc2c(c1=O)cccc2 
 
>  <mulliken_charges> 
19 
1   -0.30644 
2   -0.129664 
3   -0.129455 
4   -0.175587 
5   -0.136743 
6   0.061144 
7   0.258831 
8   0.605867 
9   -0.370766 
10   -0.016282 
11   -0.33892 
12   -0.514649 
13   0.187026 
14   0.187036 
15   0.18945 
16   0.148324 
17   0.148128 
18   0.172609 
19   0.160089 
 
>  <lowdin_charges> 
19 
1   -0.345569 
2   -0.142422 
3   -0.134974 
4   -0.128495 
5   -0.141087 
6   -0.04523 
7   0.020146 
8   0.150917 
9   -0.112268 
10   -0.021054 
11   -0.020045 
12   -0.292103 
13   0.172481 
14   0.172428 
15   0.175593 
16   0.16768 
17   0.165327 
18   0.181771 
19   0.176903 
 
$$$$ 
 
