PCCDB-ID:  11675 
public computational chemistry database (PCCDB) project, http://pccdb.org 
 
 26 25  0  0  0  0  0  0  0  0999 V2000 
    1.0418   -0.0397    0.0089 C   0  0  0  0  0  0  0  0  0  0  0  0 
    3.0759    0.3770    1.3864 C   0  0  0  0  0  0  0  0  0  0  0  0 
    3.0759   -1.4408   -0.3192 C   0  0  0  0  0  0  0  0  0  0  0  0 
    4.6631    1.0649   -1.1679 C   0  0  0  0  0  0  0  0  0  0  0  0 
    2.6290    0.6482   -2.5455 C   0  0  0  0  0  0  0  0  0  0  0  0 
    2.6290    2.4660   -0.8399 C   0  0  0  0  0  0  0  0  0  0  0  0 
    2.5874   -0.0011   -0.0317 C   0  0  0  0  0  0  0  0  0  0  0  0 
    3.1174    1.0262   -1.1273 C   0  0  0  0  0  0  0  0  0  0  0  0 
    0.7076   -0.7550    0.7702 H   0  0  0  0  0  0  0  0  0  0  0  0 
    0.6092   -0.3590   -0.9447 H   0  0  0  0  0  0  0  0  0  0  0  0 
    0.6091    0.9320    0.2684 H   0  0  0  0  0  0  0  0  0  0  0  0 
    2.6928   -0.3490    2.1136 H   0  0  0  0  0  0  0  0  0  0  0  0 
    2.7208    1.3646    1.6977 H   0  0  0  0  0  0  0  0  0  0  0  0 
    4.1678    0.3683    1.4656 H   0  0  0  0  0  0  0  0  0  0  0  0 
    2.6928   -2.1215    0.4505 H   0  0  0  0  0  0  0  0  0  0  0  0 
    4.1677   -1.5202   -0.3055 H   0  0  0  0  0  0  0  0  0  0  0  0 
    2.7201   -1.8119   -1.2855 H   0  0  0  0  0  0  0  0  0  0  0  0 
    4.9972    1.7801   -1.9293 H   0  0  0  0  0  0  0  0  0  0  0  0 
    5.0958    0.0931   -1.4274 H   0  0  0  0  0  0  0  0  0  0  0  0 
    5.0957    1.3842   -0.2143 H   0  0  0  0  0  0  0  0  0  0  0  0 
    3.0120    1.3741   -3.2726 H   0  0  0  0  0  0  0  0  0  0  0  0 
    1.5371    0.6568   -2.6246 H   0  0  0  0  0  0  0  0  0  0  0  0 
    2.9841   -0.3395   -2.8568 H   0  0  0  0  0  0  0  0  0  0  0  0 
    3.0120    3.1467   -1.6096 H   0  0  0  0  0  0  0  0  0  0  0  0 
    2.9847    2.8370    0.1265 H   0  0  0  0  0  0  0  0  0  0  0  0 
    1.5371    2.5454   -0.8536 H   0  0  0  0  0  0  0  0  0  0  0  0 
  1 11  1  0  0  0  0 
  1  9  1  0  0  0  0 
  2 14  1  0  0  0  0 
  2 13  1  0  0  0  0 
  2 12  1  0  0  0  0 
  3 16  1  0  0  0  0 
  3  7  1  0  0  0  0 
  3 15  1  0  0  0  0 
  4  8  1  0  0  0  0 
  4 20  1  0  0  0  0 
  5  8  1  0  0  0  0 
  6 25  1  0  0  0  0 
  7  1  1  0  0  0  0 
  7  2  1  0  0  0  0 
  8  6  1  0  0  0  0 
  8  7  1  0  0  0  0 
 10  1  1  0  0  0  0 
 17  3  1  0  0  0  0 
 18  4  1  0  0  0  0 
 19  4  1  0  0  0  0 
 21  5  1  0  0  0  0 
 22  5  1  0  0  0  0 
 23  5  1  0  0  0  0 
 24  6  1  0  0  0  0 
 26  6  1  0  0  0  0 
M  END 
>  <HBA> 
0 
 
>  <HBD> 
0 
 
>  <TPSA> 
0.0 
 
>  <cid> 
11675 
 
>  <dipole> 
0.0 
 
>  <excitation_energy_1> 
7.524 
 
>  <excitation_energy_2> 
7.636 
 
>  <excitation_energy_3> 
7.64 
 
>  <excitation_energy_4> 
7.973 
 
>  <homo_energy> 
-7.992 
 
>  <homo_lumo_gap> 
9.968 
 
>  <logP> 
3.079 
 
>  <lumo_energy> 
1.976 
 
>  <melting_point> 
9.48 
 
>  <molecular_refractivity> 
40.05 
 
>  <oscillator_strength_1> 
0.0 
 
>  <oscillator_strength_2> 
0.0 
 
>  <oscillator_strength_3> 
0.0 
 
>  <oscillator_strength_4> 
0.2502 
 
>  <open_babel_can_smiles> 
CC(C(C)(C)C)(C)C 
 
>  <mulliken_charges> 
26 
1   -0.456466 
2   -0.456282 
3   -0.456458 
4   -0.456528 
5   -0.456314 
6   -0.456479 
7   0.112343 
8   0.112405 
9   0.135793 
10   0.141559 
11   0.141523 
12   0.13582 
13   0.141566 
14   0.14156 
15   0.135848 
16   0.141573 
17   0.141624 
18   0.1358 
19   0.14153 
20   0.141566 
21   0.135825 
22   0.141566 
23   0.141573 
24   0.135851 
25   0.141627 
26   0.141577 
 
>  <lowdin_charges> 
26 
1   -0.44801 
2   -0.445401 
3   -0.445769 
4   -0.448019 
5   -0.445406 
6   -0.445772 
7   0.015246 
8   0.015251 
9   0.147844 
10   0.147482 
11   0.147234 
12   0.148051 
13   0.147058 
14   0.145431 
15   0.148003 
16   0.145428 
17   0.147404 
18   0.147846 
19   0.147235 
20   0.147484 
21   0.148053 
22   0.145432 
23   0.147059 
24   0.148004 
25   0.147404 
26   0.145429 
 
$$$$ 
 
