PCCDB-ID:  10209 
public computational chemistry database (PCCDB) project, http://pccdb.org 
 
 23 24  0  0  0  0  0  0  0  0999 V2000 
    0.7439   -0.0005    0.0852 C   0  0  0  0  0  0  0  0  0  0  0  0 
    7.2045   -1.1655   -0.1428 C   0  0  0  0  0  0  0  0  0  0  0  0 
    6.5047   -2.3945   -0.1161 C   0  0  0  0  0  0  0  0  0  0  0  0 
    6.5153    0.0272   -0.1193 C   0  0  0  0  0  0  0  0  0  0  0  0 
    5.1279   -2.4133   -0.0680 C   0  0  0  0  0  0  0  0  0  0  0  0 
    2.9749    1.2222    0.0075 C   0  0  0  0  0  0  0  0  0  0  0  0 
    2.2550   -0.0018    0.0325 C   0  0  0  0  0  0  0  0  0  0  0  0 
    5.0978    0.0401   -0.0674 C   0  0  0  0  0  0  0  0  0  0  0  0 
    4.3887   -1.2018   -0.0416 C   0  0  0  0  0  0  0  0  0  0  0  0 
    4.3498    1.2536   -0.0406 C   0  0  0  0  0  0  0  0  0  0  0  0 
    2.9634   -1.1896    0.0095 C   0  0  0  0  0  0  0  0  0  0  0  0 
    5.0725    2.4211   -0.0646 O   0  0  0  0  0  0  0  0  0  0  0  0 
    2.3499   -2.4202    0.0317 O   0  0  0  0  0  0  0  0  0  0  0  0 
    0.3526    1.0205    0.0609 H   0  0  0  0  0  0  0  0  0  0  0  0 
    0.3587   -0.4675    1.0036 H   0  0  0  0  0  0  0  0  0  0  0  0 
    0.2980   -0.5324   -0.7678 H   0  0  0  0  0  0  0  0  0  0  0  0 
    8.2905   -1.1638   -0.1813 H   0  0  0  0  0  0  0  0  0  0  0  0 
    7.0580   -3.3298   -0.1343 H   0  0  0  0  0  0  0  0  0  0  0  0 
    7.0429    0.9745   -0.1384 H   0  0  0  0  0  0  0  0  0  0  0  0 
    4.5864   -3.3524   -0.0472 H   0  0  0  0  0  0  0  0  0  0  0  0 
    2.4140    2.1557    0.0272 H   0  0  0  0  0  0  0  0  0  0  0  0 
    4.4541    3.1673   -0.0496 H   0  0  0  0  0  0  0  0  0  0  0  0 
    1.3914   -2.2934    0.0872 H   0  0  0  0  0  0  0  0  0  0  0  0 
  1 15  1  0  0  0  0 
  2  4  2  0  0  0  0 
  2  3  1  0  0  0  0 
  3  5  2  0  0  0  0 
  4  8  1  0  0  0  0 
  5 20  1  0  0  0  0 
  5  9  1  0  0  0  0 
  6 21  1  0  0  0  0 
  6  7  1  0  0  0  0 
  7  1  1  0  0  0  0 
  8  9  2  0  0  0  0 
  8 10  1  0  0  0  0 
  9 11  1  0  0  0  0 
 10  6  2  0  0  0  0 
 11 13  1  0  0  0  0 
 11  7  2  0  0  0  0 
 12 22  1  0  0  0  0 
 12 10  1  0  0  0  0 
 13 23  1  0  0  0  0 
 14  1  1  0  0  0  0 
 16  1  1  0  0  0  0 
 17  2  1  0  0  0  0 
 18  3  1  0  0  0  0 
 19  4  1  0  0  0  0 
M  END 
>  <HBA> 
2 
 
>  <HBD> 
2 
 
>  <TPSA> 
40.46 
 
>  <cid> 
10209 
 
>  <dipole> 
2.87 
 
>  <excitation_energy_1> 
3.821 
 
>  <excitation_energy_2> 
4.135 
 
>  <excitation_energy_3> 
4.285 
 
>  <excitation_energy_4> 
4.46 
 
>  <homo_energy> 
-4.95 
 
>  <homo_lumo_gap> 
4.367 
 
>  <logP> 
2.559 
 
>  <lumo_energy> 
-0.582 
 
>  <melting_point> 
134.44 
 
>  <molecular_refractivity> 
52.96 
 
>  <oscillator_strength_1> 
0.0678 
 
>  <oscillator_strength_2> 
0.0774 
 
>  <oscillator_strength_3> 
0.0017 
 
>  <oscillator_strength_4> 
0.0007 
 
>  <open_babel_can_smiles> 
Oc1cc(C)c(c2c1cccc2)O 
 
>  <mulliken_charges> 
23 
1   -0.582122 
2   -0.13417 
3   -0.13401 
4   -0.180483 
5   -0.180215 
6   -0.277845 
7   0.165062 
8   0.077401 
9   0.089861 
10   0.302568 
11   0.187737 
12   -0.653044 
13   -0.654078 
14   0.168134 
15   0.163397 
16   0.162323 
17   0.126586 
18   0.126599 
19   0.149787 
20   0.14987 
21   0.106184 
22   0.406723 
23   0.413733 
 
>  <lowdin_charges> 
23 
1   -0.452773 
2   -0.157348 
3   -0.158778 
4   -0.151289 
5   -0.153058 
6   -0.22536 
7   -0.052102 
8   -0.01973 
9   -0.014915 
10   0.086494 
11   0.075105 
12   -0.385502 
13   -0.385305 
14   0.164914 
15   0.156903 
16   0.156903 
17   0.154774 
18   0.157121 
19   0.169509 
20   0.169745 
21   0.149647 
22   0.358454 
23   0.356593 
 
$$$$ 
 
