PCCDB-ID:  14040 
public computational chemistry database (PCCDB) project, http://pccdb.org 
 
 29 28  0  0  0  0  0  0  0  0999 V2000 
    2.5859    0.2061   -1.0024 C   0  0  0  0  0  0  0  0  0  0  0  0 
    1.6664   -2.5078    2.4490 C   0  0  0  0  0  0  0  0  0  0  0  0 
    2.7689   -3.9607    0.7180 C   0  0  0  0  0  0  0  0  0  0  0  0 
    5.5491   -0.8867    2.0969 C   0  0  0  0  0  0  0  0  0  0  0  0 
    5.6531   -2.3169    0.0219 C   0  0  0  0  0  0  0  0  0  0  0  0 
    2.6008   -1.2306   -0.4634 C   0  0  0  0  0  0  0  0  0  0  0  0 
    2.9452   -2.7242    1.6200 C   0  0  0  0  0  0  0  0  0  0  0  0 
    4.8902   -1.1915    0.7404 C   0  0  0  0  0  0  0  0  0  0  0  0 
    3.3520   -1.4097    0.8770 C   0  0  0  0  0  0  0  0  0  0  0  0 
    1.9911    0.2700   -1.9211 H   0  0  0  0  0  0  0  0  0  0  0  0 
    3.5900    0.5741   -1.2401 H   0  0  0  0  0  0  0  0  0  0  0  0 
    2.1443    0.8966   -0.2728 H   0  0  0  0  0  0  0  0  0  0  0  0 
    1.3848   -3.4214    2.9866 H   0  0  0  0  0  0  0  0  0  0  0  0 
    0.8181   -2.2295    1.8104 H   0  0  0  0  0  0  0  0  0  0  0  0 
    1.8003   -1.7108    3.1900 H   0  0  0  0  0  0  0  0  0  0  0  0 
    2.5911   -4.8505    1.3341 H   0  0  0  0  0  0  0  0  0  0  0  0 
    3.6465   -4.1597    0.0967 H   0  0  0  0  0  0  0  0  0  0  0  0 
    1.9067   -3.8531    0.0499 H   0  0  0  0  0  0  0  0  0  0  0  0 
    6.6081   -0.6334    1.9658 H   0  0  0  0  0  0  0  0  0  0  0  0 
    5.5040   -1.7451    2.7783 H   0  0  0  0  0  0  0  0  0  0  0  0 
    5.0630   -0.0393    2.5955 H   0  0  0  0  0  0  0  0  0  0  0  0 
    6.6942   -2.0179   -0.1497 H   0  0  0  0  0  0  0  0  0  0  0  0 
    5.2168   -2.5579   -0.9540 H   0  0  0  0  0  0  0  0  0  0  0  0 
    5.6746   -3.2367    0.6180 H   0  0  0  0  0  0  0  0  0  0  0  0 
    3.0214   -1.8992   -1.2258 H   0  0  0  0  0  0  0  0  0  0  0  0 
    1.5593   -1.5512   -0.3294 H   0  0  0  0  0  0  0  0  0  0  0  0 
    3.7467   -2.9586    2.3339 H   0  0  0  0  0  0  0  0  0  0  0  0 
    5.0150   -0.2860    0.1303 H   0  0  0  0  0  0  0  0  0  0  0  0 
    3.0108   -0.5855    1.5237 H   0  0  0  0  0  0  0  0  0  0  0  0 
  1  6  1  0  0  0  0 
  1 12  1  0  0  0  0 
  2 13  1  0  0  0  0 
  2 15  1  0  0  0  0 
  3 16  1  0  0  0  0 
  3  7  1  0  0  0  0 
  4 21  1  0  0  0  0 
  4 20  1  0  0  0  0 
  5 24  1  0  0  0  0 
  5  8  1  0  0  0  0 
  6 26  1  0  0  0  0 
  6  9  1  0  0  0  0 
  7 27  1  0  0  0  0 
  7  2  1  0  0  0  0 
  8  9  1  0  0  0  0 
  8  4  1  0  0  0  0 
  9 29  1  0  0  0  0 
  9  7  1  0  0  0  0 
 10  1  1  0  0  0  0 
 11  1  1  0  0  0  0 
 14  2  1  0  0  0  0 
 17  3  1  0  0  0  0 
 18  3  1  0  0  0  0 
 19  4  1  0  0  0  0 
 22  5  1  0  0  0  0 
 23  5  1  0  0  0  0 
 25  6  1  0  0  0  0 
 28  8  1  0  0  0  0 
M  END 
>  <HBA> 
0 
 
>  <HBD> 
0 
 
>  <TPSA> 
0.0 
 
>  <cid> 
14040 
 
>  <dipole> 
0.09 
 
>  <excitation_energy_1> 
7.276 
 
>  <excitation_energy_2> 
7.427 
 
>  <excitation_energy_3> 
7.657 
 
>  <excitation_energy_4> 
7.676 
 
>  <homo_energy> 
-7.785 
 
>  <homo_lumo_gap> 
9.87 
 
>  <logP> 
3.325 
 
>  <lumo_energy> 
2.084 
 
>  <melting_point> 
-28.56 
 
>  <molecular_refractivity> 
45.38 
 
>  <oscillator_strength_1> 
0.0126 
 
>  <oscillator_strength_2> 
0.0075 
 
>  <oscillator_strength_3> 
0.027 
 
>  <oscillator_strength_4> 
0.0077 
 
>  <open_babel_can_smiles> 
CCC(C(C)C)C(C)C 
 
>  <mulliken_charges> 
29 
1   -0.451206 
2   -0.450035 
3   -0.450601 
4   -0.450198 
5   -0.45088 
6   -0.267454 
7   -0.082359 
8   -0.079928 
9   -0.057821 
10   0.140743 
11   0.146635 
12   0.141211 
13   0.137699 
14   0.140427 
15   0.139459 
16   0.136646 
17   0.146655 
18   0.140983 
19   0.13849 
20   0.14257 
21   0.138624 
22   0.137985 
23   0.143158 
24   0.144535 
25   0.134471 
26   0.1327 
27   0.12328 
28   0.123035 
29   0.111175 
 
>  <lowdin_charges> 
29 
1   -0.447887 
2   -0.446713 
3   -0.451756 
4   -0.446848 
5   -0.447122 
6   -0.277273 
7   -0.125679 
8   -0.124608 
9   -0.130699 
10   0.149378 
11   0.145796 
12   0.14689 
13   0.146771 
14   0.145036 
15   0.146591 
16   0.14759 
17   0.151045 
18   0.14677 
19   0.146077 
20   0.145179 
21   0.147116 
22   0.146686 
23   0.146572 
24   0.146796 
25   0.14151 
26   0.14004 
27   0.138059 
28   0.138682 
29   0.136002 
 
$$$$ 
 
