PCCDB-ID:  70300 
public computational chemistry database (PCCDB) project, http://pccdb.org 
 
 19 19  0  0  0  0  0  0  0  0999 V2000 
    0.9491   -0.0754   -0.0226 C   0  0  0  0  0  0  0  0  0  0  0  0 
   -3.1917    0.7376    0.2112 C   0  0  0  0  0  0  0  0  0  0  0  0 
   -2.6045    2.9951    1.0990 C   0  0  0  0  0  0  0  0  0  0  0  0 
   -0.8243    1.4079    0.4381 C   0  0  0  0  0  0  0  0  0  0  0  0 
   -4.0055   -0.1577   -0.1979 N   0  0  0  0  0  0  0  0  0  0  0  0 
   -2.8750    4.1554    1.5608 N   0  0  0  0  0  0  0  0  0  0  0  0 
    0.4409    1.2263    0.3296 N   0  0  0  0  0  0  0  0  0  0  0  0 
   -3.5101    1.9855    0.7564 N   0  0  0  0  0  0  0  0  0  0  0  0 
   -1.8263    0.4979    0.1422 N   0  0  0  0  0  0  0  0  0  0  0  0 
   -1.2852    2.6314    0.8971 N   0  0  0  0  0  0  0  0  0  0  0  0 
    0.2780   -0.7502   -1.1036 O   0  0  0  0  0  0  0  0  0  0  0  0 
    0.8626   -0.7730    0.8212 H   0  0  0  0  0  0  0  0  0  0  0  0 
    2.0120    0.0352   -0.2663 H   0  0  0  0  0  0  0  0  0  0  0  0 
   -4.9775    0.1348   -0.0940 H   0  0  0  0  0  0  0  0  0  0  0  0 
   -3.8792    4.2979    1.6690 H   0  0  0  0  0  0  0  0  0  0  0  0 
   -4.4912    2.2075    0.8427 H   0  0  0  0  0  0  0  0  0  0  0  0 
   -1.5315   -0.3369   -0.3592 H   0  0  0  0  0  0  0  0  0  0  0  0 
   -0.5832    3.3074    1.1659 H   0  0  0  0  0  0  0  0  0  0  0  0 
    0.4104   -0.2117   -1.9013 H   0  0  0  0  0  0  0  0  0  0  0  0 
  1  7  1  0  0  0  0 
  1 12  1  0  0  0  0 
  2  8  1  0  0  0  0 
  3  6  2  0  0  0  0 
  4 10  1  0  0  0  0 
  5 14  1  0  0  0  0 
  5  2  2  0  0  0  0 
  6 15  1  0  0  0  0 
  7  4  2  0  0  0  0 
  8 16  1  0  0  0  0 
  8  3  1  0  0  0  0 
  9  2  1  0  0  0  0 
  9  4  1  0  0  0  0 
 10  3  1  0  0  0  0 
 10 18  1  0  0  0  0 
 11  1  1  0  0  0  0 
 13  1  1  0  0  0  0 
 17  9  1  0  0  0  0 
 19 11  1  0  0  0  0 
M  END 
>  <HBA> 
7 
 
>  <HBD> 
4 
 
>  <TPSA> 
122.97 
 
>  <cid> 
70300 
 
>  <dipole> 
1.87 
 
>  <excitation_energy_1> 
5.243 
 
>  <excitation_energy_2> 
5.56 
 
>  <excitation_energy_3> 
5.806 
 
>  <excitation_energy_4> 
5.831 
 
>  <homo_energy> 
-6.286 
 
>  <homo_lumo_gap> 
6.403 
 
>  <logP> 
-0.367 
 
>  <lumo_energy> 
0.117 
 
>  <melting_point> 
203.32 
 
>  <molecular_refractivity> 
39.1 
 
>  <oscillator_strength_1> 
0.0202 
 
>  <oscillator_strength_2> 
0.1758 
 
>  <oscillator_strength_3> 
0.0045 
 
>  <oscillator_strength_4> 
0.0016 
 
>  <open_babel_can_smiles> 
OCN=c1[nH]c(=N)[nH]c(=N)[nH]1 
 
>  <mulliken_charges> 
19 
1   0.033884 
2   0.682787 
3   0.690484 
4   0.745969 
5   -0.638731 
6   -0.646401 
7   -0.522926 
8   -0.705048 
9   -0.697302 
10   -0.676073 
11   -0.619608 
12   0.159999 
13   0.150254 
14   0.278217 
15   0.278559 
16   0.336804 
17   0.387875 
18   0.363869 
19   0.39739 
 
>  <lowdin_charges> 
19 
1   -0.082277 
2   0.143272 
3   0.138774 
4   0.143806 
5   -0.44724 
6   -0.451318 
7   -0.290334 
8   -0.274126 
9   -0.252074 
10   -0.228825 
11   -0.474561 
12   0.146883 
13   0.141326 
14   0.254982 
15   0.253887 
16   0.294421 
17   0.318549 
18   0.31721 
19   0.347644 
 
$$$$ 
 
