PCCDB-ID:  48205 
public computational chemistry database (PCCDB) project, http://pccdb.org 
 
 30 29  0  0  0  0  0  0  0  0999 V2000 
    3.2521    2.5265   -6.0173 C   0  0  0  0  0  0  0  0  0  0  0  0 
    5.7843    3.2805    0.2102 C   0  0  0  0  0  0  0  0  0  0  0  0 
    6.0963   -0.7860   -1.9562 C   0  0  0  0  0  0  0  0  0  0  0  0 
    9.5975    1.9565   -1.1684 C   0  0  0  0  0  0  0  0  0  0  0  0 
    4.1830    2.1904   -5.3266 C   0  0  0  0  0  0  0  0  0  0  0  0 
    6.1738    1.8922   -0.3137 C   0  0  0  0  0  0  0  0  0  0  0  0 
    7.0385    0.3955   -2.2187 C   0  0  0  0  0  0  0  0  0  0  0  0 
    5.2978    1.7891   -4.4835 C   0  0  0  0  0  0  0  0  0  0  0  0 
    7.5876    2.8966   -2.1776 C   0  0  0  0  0  0  0  0  0  0  0  0 
    6.5169    1.8045   -1.8282 C   0  0  0  0  0  0  0  0  0  0  0  0 
    8.8245    2.9257   -1.9080 N   0  0  0  0  0  0  0  0  0  0  0  0 
    7.1177    3.9834   -2.8521 O   0  0  0  0  0  0  0  0  0  0  0  0 
    4.8813    2.1440   -2.7067 S   0  0  0  0  0  0  0  0  0  0  0  0 
    2.4305    2.8218   -6.6298 H   0  0  0  0  0  0  0  0  0  0  0  0 
    5.6189    3.2341    1.2920 H   0  0  0  0  0  0  0  0  0  0  0  0 
    4.8595    3.6471   -0.2478 H   0  0  0  0  0  0  0  0  0  0  0  0 
    6.5711    4.0193    0.0249 H   0  0  0  0  0  0  0  0  0  0  0  0 
    5.1485   -0.6862   -2.4935 H   0  0  0  0  0  0  0  0  0  0  0  0 
    5.8642   -0.8960   -0.8920 H   0  0  0  0  0  0  0  0  0  0  0  0 
    6.5763   -1.7151   -2.2833 H   0  0  0  0  0  0  0  0  0  0  0  0 
   10.4176    2.4861   -0.6698 H   0  0  0  0  0  0  0  0  0  0  0  0 
   10.0622    1.2303   -1.8499 H   0  0  0  0  0  0  0  0  0  0  0  0 
    9.0594    1.3921   -0.3932 H   0  0  0  0  0  0  0  0  0  0  0  0 
    5.3687    1.1816   -0.0972 H   0  0  0  0  0  0  0  0  0  0  0  0 
    7.0537    1.5370    0.2367 H   0  0  0  0  0  0  0  0  0  0  0  0 
    7.3250    0.4073   -3.2773 H   0  0  0  0  0  0  0  0  0  0  0  0 
    7.9672    0.2201   -1.6721 H   0  0  0  0  0  0  0  0  0  0  0  0 
    6.2046    2.3466   -4.7432 H   0  0  0  0  0  0  0  0  0  0  0  0 
    5.5013    0.7200   -4.6006 H   0  0  0  0  0  0  0  0  0  0  0  0 
    6.1409    3.9168   -2.8912 H   0  0  0  0  0  0  0  0  0  0  0  0 
  1  5  3  0  0  0  0 
  2 15  1  0  0  0  0 
  3 19  1  0  0  0  0 
  4 21  1  0  0  0  0 
  4 23  1  0  0  0  0 
  5  8  1  0  0  0  0 
  6 24  1  0  0  0  0 
  6  2  1  0  0  0  0 
  6 25  1  0  0  0  0 
  7  3  1  0  0  0  0 
  7 10  1  0  0  0  0 
  7 27  1  0  0  0  0 
  8 13  1  0  0  0  0 
  9 11  2  0  0  0  0 
  9 10  1  0  0  0  0 
 10  6  1  0  0  0  0 
 11  4  1  0  0  0  0 
 12  9  1  0  0  0  0 
 13 10  1  0  0  0  0 
 14  1  1  0  0  0  0 
 16  2  1  0  0  0  0 
 17  2  1  0  0  0  0 
 18  3  1  0  0  0  0 
 20  3  1  0  0  0  0 
 22  4  1  0  0  0  0 
 26  7  1  0  0  0  0 
 28  8  1  0  0  0  0 
 29  8  1  0  0  0  0 
 30 12  1  0  0  0  0 
M  END 
>  <HBA> 
3 
 
>  <HBD> 
1 
 
>  <TPSA> 
54.4 
 
>  <cid> 
48205 
 
>  <dipole> 
3.25 
 
>  <excitation_energy_1> 
5.112 
 
>  <excitation_energy_2> 
5.283 
 
>  <excitation_energy_3> 
5.507 
 
>  <excitation_energy_4> 
5.736 
 
>  <homo_energy> 
-6.177 
 
>  <homo_lumo_gap> 
6.294 
 
>  <logP> 
2.049 
 
>  <lumo_energy> 
0.117 
 
>  <melting_point> 
56.69 
 
>  <molecular_refractivity> 
58.98 
 
>  <oscillator_strength_1> 
0.0014 
 
>  <oscillator_strength_2> 
0.0014 
 
>  <oscillator_strength_3> 
0.0079 
 
>  <oscillator_strength_4> 
0.0017 
 
>  <open_babel_can_smiles> 
C#CCSC(/C(=N\C)/O)(CC)CC 
 
>  <mulliken_charges> 
30 
1   -0.484172 
2   -0.473261 
3   -0.457237 
4   -0.327583 
5   0.372404 
6   -0.275665 
7   -0.27194 
8   -0.578119 
9   0.487919 
10   -0.171309 
11   -0.408261 
12   -0.589525 
13   0.078217 
14   0.199155 
15   0.15191 
16   0.167353 
17   0.175946 
18   0.16797 
19   0.153723 
20   0.149544 
21   0.162528 
22   0.155229 
23   0.132018 
24   0.163319 
25   0.158249 
26   0.151415 
27   0.159879 
28   0.221613 
29   0.208146 
30   0.420536 
 
>  <lowdin_charges> 
30 
1   -0.228887 
2   -0.452807 
3   -0.449095 
4   -0.361946 
5   -0.044374 
6   -0.27573 
7   -0.279735 
8   -0.357524 
9   0.115729 
10   -0.110318 
11   -0.210772 
12   -0.373606 
13   0.105641 
14   0.210126 
15   0.155104 
16   0.158695 
17   0.163836 
18   0.159053 
19   0.151451 
20   0.155647 
21   0.156311 
22   0.152389 
23   0.129762 
24   0.157476 
25   0.15493 
26   0.147958 
27   0.162442 
28   0.187357 
29   0.179644 
30   0.341246 
 
$$$$ 
 
