PCCDB-ID:  23581 
public computational chemistry database (PCCDB) project, http://pccdb.org 
 
 29 29  0  0  0  0  0  0  0  0999 V2000 
    5.1581    1.5136   -3.1921 C   0  0  0  0  0  0  0  0  0  0  0  0 
    7.6248    4.7420   -0.3018 C   0  0  0  0  0  0  0  0  0  0  0  0 
    9.9891    3.9642   -4.7136 C   0  0  0  0  0  0  0  0  0  0  0  0 
    6.3736    1.9275   -3.5468 C   0  0  0  0  0  0  0  0  0  0  0  0 
    6.8783    3.3229   -3.3406 C   0  0  0  0  0  0  0  0  0  0  0  0 
    9.3133    6.3992   -1.2057 C   0  0  0  0  0  0  0  0  0  0  0  0 
   10.4381    6.0291   -3.3179 C   0  0  0  0  0  0  0  0  0  0  0  0 
    8.5938    5.2126   -1.3598 C   0  0  0  0  0  0  0  0  0  0  0  0 
    9.7409    4.8367   -3.5067 C   0  0  0  0  0  0  0  0  0  0  0  0 
   10.2262    6.8177   -2.1810 C   0  0  0  0  0  0  0  0  0  0  0  0 
    8.8121    4.4517   -2.5221 C   0  0  0  0  0  0  0  0  0  0  0  0 
   11.0081    8.0712   -2.0485 C   0  0  0  0  0  0  0  0  0  0  0  0 
   10.7339    8.7553   -0.9047 O   0  0  0  0  0  0  0  0  0  0  0  0 
   11.8184    8.4808   -2.8574 O   0  0  0  0  0  0  0  0  0  0  0  0 
    8.1492    3.2472   -2.6680 O   0  0  0  0  0  0  0  0  0  0  0  0 
    4.8181    0.5014   -3.3927 H   0  0  0  0  0  0  0  0  0  0  0  0 
    4.4504    2.1732   -2.6940 H   0  0  0  0  0  0  0  0  0  0  0  0 
    7.7984    5.2652    0.6433 H   0  0  0  0  0  0  0  0  0  0  0  0 
    7.7220    3.6657   -0.1311 H   0  0  0  0  0  0  0  0  0  0  0  0 
    6.5822    4.9280   -0.5914 H   0  0  0  0  0  0  0  0  0  0  0  0 
   10.8814    4.2956   -5.2525 H   0  0  0  0  0  0  0  0  0  0  0  0 
    9.1492    3.9919   -5.4198 H   0  0  0  0  0  0  0  0  0  0  0  0 
   10.1258    2.9181   -4.4216 H   0  0  0  0  0  0  0  0  0  0  0  0 
    7.0684    1.2473   -4.0378 H   0  0  0  0  0  0  0  0  0  0  0  0 
    6.1654    3.9131   -2.7494 H   0  0  0  0  0  0  0  0  0  0  0  0 
    7.0128    3.8320   -4.3071 H   0  0  0  0  0  0  0  0  0  0  0  0 
    9.1678    7.0021   -0.3155 H   0  0  0  0  0  0  0  0  0  0  0  0 
   11.1659    6.3623   -4.0515 H   0  0  0  0  0  0  0  0  0  0  0  0 
   11.3026    9.5466   -0.9351 H   0  0  0  0  0  0  0  0  0  0  0  0 
  1 17  1  0  0  0  0 
  2 19  1  0  0  0  0 
  2 18  1  0  0  0  0 
  3 23  1  0  0  0  0 
  3  9  1  0  0  0  0 
  4  5  1  0  0  0  0 
  4  1  2  0  0  0  0 
  5 25  1  0  0  0  0 
  5 15  1  0  0  0  0 
  6 27  1  0  0  0  0 
  7 10  1  0  0  0  0 
  8  6  1  0  0  0  0 
  8  2  1  0  0  0  0 
  9  7  2  0  0  0  0 
  9 11  1  0  0  0  0 
 10 12  1  0  0  0  0 
 10  6  2  0  0  0  0 
 11  8  2  0  0  0  0 
 12 13  1  0  0  0  0 
 14 12  2  0  0  0  0 
 15 11  1  0  0  0  0 
 16  1  1  0  0  0  0 
 20  2  1  0  0  0  0 
 21  3  1  0  0  0  0 
 22  3  1  0  0  0  0 
 24  4  1  0  0  0  0 
 26  5  1  0  0  0  0 
 28  7  1  0  0  0  0 
 29 13  1  0  0  0  0 
M  END 
>  <HBA> 
3 
 
>  <HBD> 
1 
 
>  <TPSA> 
46.53 
 
>  <cid> 
23581 
 
>  <dipole> 
2.7 
 
>  <excitation_energy_1> 
4.664 
 
>  <excitation_energy_2> 
4.918 
 
>  <excitation_energy_3> 
4.996 
 
>  <excitation_energy_4> 
5.287 
 
>  <homo_energy> 
-6.561 
 
>  <homo_lumo_gap> 
5.434 
 
>  <logP> 
2.566 
 
>  <lumo_energy> 
-1.127 
 
>  <melting_point> 
88.5 
 
>  <molecular_refractivity> 
58.97 
 
>  <oscillator_strength_1> 
0.0217 
 
>  <oscillator_strength_2> 
0.0001 
 
>  <oscillator_strength_3> 
0.3225 
 
>  <oscillator_strength_4> 
0.002 
 
>  <open_babel_can_smiles> 
C=CCOc1c(C)cc(cc1C)C(=O)O 
 
>  <mulliken_charges> 
29 
1   -0.334366 
2   -0.529598 
3   -0.528682 
4   -0.052673 
5   -0.076743 
6   -0.251457 
7   -0.248685 
8   0.160085 
9   0.161323 
10   0.096561 
11   0.236313 
12   0.535616 
13   -0.586514 
14   -0.479611 
15   -0.537568 
16   0.150074 
17   0.143139 
18   0.157276 
19   0.179121 
20   0.159307 
21   0.160079 
22   0.158964 
23   0.174535 
24   0.144843 
25   0.142012 
26   0.146694 
27   0.152968 
28   0.157194 
29   0.409795 
 
>  <lowdin_charges> 
29 
1   -0.323318 
2   -0.438382 
3   -0.440001 
4   -0.151998 
5   -0.116859 
6   -0.150228 
7   -0.142259 
8   -0.018418 
9   -0.01856 
10   -0.054704 
11   0.088424 
12   0.196336 
13   -0.365229 
14   -0.277804 
15   -0.23596 
16   0.163348 
17   0.159011 
18   0.159254 
19   0.1684 
20   0.156759 
21   0.161082 
22   0.15837 
23   0.166394 
24   0.162102 
25   0.142595 
26   0.142991 
27   0.171078 
28   0.175309 
29   0.362267 
 
$$$$ 
 
