PCCDB-ID:  26138 
public computational chemistry database (PCCDB) project, http://pccdb.org 
 
 34 35  0  0  1  0  0  0  0  0999 V2000 
    2.4144    0.1460   -2.3308 C   0  0  0  0  0  0  0  0  0  0  0  0 
    2.1413   -1.2173   -2.4733 C   0  0  0  0  0  0  0  0  0  0  0  0 
    1.4875    0.9827   -1.7116 C   0  0  0  0  0  0  0  0  0  0  0  0 
    0.9496   -1.7444   -1.9777 C   0  0  0  0  0  0  0  0  0  0  0  0 
   -2.9444   -4.2149    2.5420 C   0  0  0  0  0  0  0  0  0  0  0  0 
   -2.4041   -4.2340    3.9705 C   0  0  0  0  0  0  0  0  0  0  0  0 
   -3.2535   -2.7339    0.5909 C   0  0  0  0  0  0  0  0  0  0  0  0 
   -1.9212    0.7831   -0.5028 C   0  0  0  0  0  0  0  0  0  0  0  0 
   -3.2757   -1.2459    0.2160 C   0  0  2  0  0  0  0  0  0  0  0  0 
    0.2880    0.4621   -1.2233 C   0  0  0  0  0  0  0  0  0  0  0  0 
    0.0246   -0.9121   -1.3470 C   0  0  0  0  0  0  0  0  0  0  0  0 
   -1.8742   -0.6384    0.0424 C   0  0  1  0  0  0  0  0  0  0  0  0 
   -2.6702   -2.9059    1.9301 N   0  0  0  0  0  0  0  0  0  0  0  0 
   -2.9926   -3.2228    4.7665 O   0  0  0  0  0  0  0  0  0  0  0  0 
   -3.9813   -0.5026    1.1985 O   0  0  0  0  0  0  0  0  0  0  0  0 
   -0.6025    1.3170   -0.6227 O   0  0  0  0  0  0  0  0  0  0  0  0 
   -1.1342   -1.4749   -0.8571 O   0  0  0  0  0  0  0  0  0  0  0  0 
    3.3438    0.5613   -2.7092 H   0  0  0  0  0  0  0  0  0  0  0  0 
    2.8565   -1.8725   -2.9619 H   0  0  0  0  0  0  0  0  0  0  0  0 
    1.6673    2.0476   -1.5994 H   0  0  0  0  0  0  0  0  0  0  0  0 
    0.7168   -2.8017   -2.0637 H   0  0  0  0  0  0  0  0  0  0  0  0 
   -4.0319   -4.3489    2.5705 H   0  0  0  0  0  0  0  0  0  0  0  0 
   -2.5186   -5.0538    1.9640 H   0  0  0  0  0  0  0  0  0  0  0  0 
   -1.3027   -4.1372    3.9479 H   0  0  0  0  0  0  0  0  0  0  0  0 
   -2.6344   -5.1938    4.4445 H   0  0  0  0  0  0  0  0  0  0  0  0 
   -2.7356   -3.3177   -0.1830 H   0  0  0  0  0  0  0  0  0  0  0  0 
   -4.2929   -3.0770    0.6351 H   0  0  0  0  0  0  0  0  0  0  0  0 
   -2.4675    1.4377    0.1770 H   0  0  0  0  0  0  0  0  0  0  0  0 
   -2.4146    0.7852   -1.4858 H   0  0  0  0  0  0  0  0  0  0  0  0 
   -3.8217   -1.1344   -0.7291 H   0  0  0  0  0  0  0  0  0  0  0  0 
   -1.3613   -0.6167    1.0163 H   0  0  0  0  0  0  0  0  0  0  0  0 
   -1.6578   -2.7977    1.8550 H   0  0  0  0  0  0  0  0  0  0  0  0 
   -2.9839   -2.4246    4.2111 H   0  0  0  0  0  0  0  0  0  0  0  0 
   -3.7349   -0.9248    2.0434 H   0  0  0  0  0  0  0  0  0  0  0  0 
  1  3  1  0  0  0  0 
  2  1  2  0  0  0  0 
  2  4  1  0  0  0  0 
  3 20  1  0  0  0  0 
  3 10  2  0  0  0  0 
  4 11  2  0  0  0  0 
  5 22  1  0  0  0  0 
  5  6  1  0  0  0  0 
  6 25  1  0  0  0  0 
  6 14  1  0  0  0  0 
  7 27  1  0  0  0  0 
  7 13  1  0  0  0  0 
  8 12  1  0  0  0  0 
  8 28  1  0  0  0  0 
  9 30  1  6  0  0  0 
  9  7  1  0  0  0  0 
  9 15  1  0  0  0  0 
 10 16  1  0  0  0  0 
 11 10  1  0  0  0  0 
 11 17  1  0  0  0  0 
 12  9  1  0  0  0  0 
 12 31  1  1  0  0  0 
 13  5  1  0  0  0  0 
 15 34  1  0  0  0  0 
 16  8  1  0  0  0  0 
 17 12  1  0  0  0  0 
 18  1  1  0  0  0  0 
 19  2  1  0  0  0  0 
 21  4  1  0  0  0  0 
 23  5  1  0  0  0  0 
 24  6  1  0  0  0  0 
 26  7  1  0  0  0  0 
 29  8  1  0  0  0  0 
 32 13  1  0  0  0  0 
 33 14  1  0  0  0  0 
M  END 
>  <HBA> 
5 
 
>  <HBD> 
3 
 
>  <TPSA> 
70.95 
 
>  <cid> 
26138 
 
>  <dipole> 
2.46 
 
>  <excitation_energy_1> 
4.888 
 
>  <excitation_energy_2> 
5.214 
 
>  <excitation_energy_3> 
5.52 
 
>  <excitation_energy_4> 
5.55 
 
>  <homo_energy> 
-5.772 
 
>  <homo_lumo_gap> 
5.837 
 
>  <logP> 
0.16 
 
>  <lumo_energy> 
0.065 
 
>  <melting_point> 
98.87 
 
>  <molecular_refractivity> 
61.67 
 
>  <oscillator_strength_1> 
0.0472 
 
>  <oscillator_strength_2> 
0.0036 
 
>  <oscillator_strength_3> 
0.0058 
 
>  <oscillator_strength_4> 
0.0062 
 
>  <open_babel_can_smiles> 
OCCNC[C@H]([C@@H]1COc2c(O1)cccc2)O 
 
>  <mulliken_charges> 
34 
1   -0.137506 
2   -0.137907 
3   -0.191301 
4   -0.193447 
5   -0.142478 
6   -0.028884 
7   -0.153885 
8   -0.05236 
9   0.110741 
10   0.331998 
11   0.331824 
12   0.097323 
13   -0.614468 
14   -0.618166 
15   -0.637324 
16   -0.526806 
17   -0.555892 
18   0.129129 
19   0.128121 
20   0.141001 
21   0.133508 
22   0.160044 
23   0.127015 
24   0.115645 
25   0.150527 
26   0.156642 
27   0.159276 
28   0.180888 
29   0.149582 
30   0.143175 
31   0.136355 
32   0.315902 
33   0.392164 
34   0.399567 
 
>  <lowdin_charges> 
34 
1   -0.164884 
2   -0.168389 
3   -0.173729 
4   -0.17734 
5   -0.220681 
6   -0.135079 
7   -0.222405 
8   -0.140269 
9   -0.013562 
10   0.060967 
11   0.059722 
12   -0.028908 
13   -0.369871 
14   -0.467731 
15   -0.459941 
16   -0.204799 
17   -0.217176 
18   0.159191 
19   0.159997 
20   0.166497 
21   0.162935 
22   0.15044 
23   0.132324 
24   0.119458 
25   0.1516 
26   0.148259 
27   0.154965 
28   0.174335 
29   0.145418 
30   0.149658 
31   0.137892 
32   0.257646 
33   0.335479 
34   0.337978 
 
$$$$ 
 
