PCCDB-ID:  7742 
public computational chemistry database (PCCDB) project, http://pccdb.org 
 
 21 21  0  0  1  0  0  0  0  0999 V2000 
    0.8221    0.9975    0.3991 C   0  0  0  0  0  0  0  0  0  0  0  0 
    2.3178    1.0969    0.7142 C   0  0  0  0  0  0  0  0  0  0  0  0 
    2.8715   -0.1717    1.3739 C   0  0  0  0  0  0  0  0  0  0  0  0 
    4.9200   -1.3780    2.3980 C   0  0  0  0  0  0  0  0  0  0  0  0 
    5.4127   -0.8959    3.7691 C   0  0  0  0  0  0  0  0  0  0  0  0 
    4.3601   -0.1028    1.7049 C   0  0  2  0  0  0  0  0  0  0  0  0 
    5.1787    0.6109    3.7816 C   0  0  0  0  0  0  0  0  0  0  0  0 
    5.4430    1.3895    4.6605 O   0  0  0  0  0  0  0  0  0  0  0  0 
    4.5983    0.9992    2.6146 O   0  0  0  0  0  0  0  0  0  0  0  0 
    0.4553    1.9153   -0.0735 H   0  0  0  0  0  0  0  0  0  0  0  0 
    0.2343    0.8359    1.3110 H   0  0  0  0  0  0  0  0  0  0  0  0 
    0.6112    0.1643   -0.2830 H   0  0  0  0  0  0  0  0  0  0  0  0 
    2.5044    1.9520    1.3740 H   0  0  0  0  0  0  0  0  0  0  0  0 
    2.8764    1.2939   -0.2121 H   0  0  0  0  0  0  0  0  0  0  0  0 
    2.7179   -1.0352    0.7099 H   0  0  0  0  0  0  0  0  0  0  0  0 
    2.3177   -0.3866    2.2996 H   0  0  0  0  0  0  0  0  0  0  0  0 
    4.1390   -2.1388    2.4889 H   0  0  0  0  0  0  0  0  0  0  0  0 
    5.7291   -1.8138    1.8056 H   0  0  0  0  0  0  0  0  0  0  0  0 
    6.4751   -1.0859    3.9491 H   0  0  0  0  0  0  0  0  0  0  0  0 
    4.8672   -1.3349    4.6105 H   0  0  0  0  0  0  0  0  0  0  0  0 
    4.9264    0.1325    0.7962 H   0  0  0  0  0  0  0  0  0  0  0  0 
  1  2  1  0  0  0  0 
  1 11  1  0  0  0  0 
  2  3  1  0  0  0  0 
  2 13  1  0  0  0  0 
  3  6  1  0  0  0  0 
  3 16  1  0  0  0  0 
  4 17  1  0  0  0  0 
  4  5  1  0  0  0  0 
  5  7  1  0  0  0  0 
  5 19  1  0  0  0  0 
  5 20  1  0  0  0  0 
  6 21  1  6  0  0  0 
  6  4  1  0  0  0  0 
  6  9  1  0  0  0  0 
  7  8  2  0  0  0  0 
  9  7  1  0  0  0  0 
 10  1  1  0  0  0  0 
 12  1  1  0  0  0  0 
 14  2  1  0  0  0  0 
 15  3  1  0  0  0  0 
 18  4  1  0  0  0  0 
M  END 
>  <HBA> 
2 
 
>  <HBD> 
0 
 
>  <TPSA> 
26.3 
 
>  <cid> 
7742 
 
>  <dipole> 
4.36 
 
>  <excitation_energy_1> 
5.707 
 
>  <excitation_energy_2> 
6.666 
 
>  <excitation_energy_3> 
7.203 
 
>  <excitation_energy_4> 
7.225 
 
>  <homo_energy> 
-7.148 
 
>  <homo_lumo_gap> 
7.581 
 
>  <logP> 
1.492 
 
>  <lumo_energy> 
0.433 
 
>  <melting_point> 
7.79 
 
>  <molecular_refractivity> 
34.93 
 
>  <oscillator_strength_1> 
0.0002 
 
>  <oscillator_strength_2> 
0.0092 
 
>  <oscillator_strength_3> 
0.027 
 
>  <oscillator_strength_4> 
0.0153 
 
>  <open_babel_can_smiles> 
CCC[C@@H]1CCC(=O)O1 
 
>  <mulliken_charges> 
21 
1   -0.444341 
2   -0.256339 
3   -0.264287 
4   -0.320931 
5   -0.388756 
6   0.132448 
7   0.604809 
8   -0.454052 
9   -0.449937 
10   0.148249 
11   0.145226 
12   0.139891 
13   0.164439 
14   0.131542 
15   0.135355 
16   0.137497 
17   0.160141 
18   0.159816 
19   0.187957 
20   0.187598 
21   0.143676 
 
>  <lowdin_charges> 
21 
1   -0.44517 
2   -0.276307 
3   -0.284812 
4   -0.297414 
5   -0.315821 
6   0.004982 
7   0.192846 
8   -0.24341 
9   -0.189179 
10   0.153349 
11   0.14861 
12   0.145867 
13   0.156267 
14   0.140564 
15   0.146909 
16   0.145312 
17   0.158594 
18   0.159607 
19   0.176284 
20   0.177998 
21   0.144924 
 
$$$$ 
 
