PCCDB-ID:  8111 
public computational chemistry database (PCCDB) project, http://pccdb.org 
 
 20 19  0  0  0  0  0  0  0  0999 V2000 
    1.1311    0.0074    0.1364 C   0  0  0  0  0  0  0  0  0  0  0  0 
   -2.8250    2.4410    1.7499 C   0  0  0  0  0  0  0  0  0  0  0  0 
    0.6678    1.2224    0.9405 C   0  0  0  0  0  0  0  0  0  0  0  0 
   -1.2977    2.3878    1.8144 C   0  0  0  0  0  0  0  0  0  0  0  0 
    2.5948   -0.0014    0.0272 N   0  0  0  0  0  0  0  0  0  0  0  0 
   -3.4030    1.1622    2.1938 N   0  0  0  0  0  0  0  0  0  0  0  0 
   -0.7897    1.2477    1.0516 N   0  0  0  0  0  0  0  0  0  0  0  0 
    0.5961    0.0030   -0.8289 H   0  0  0  0  0  0  0  0  0  0  0  0 
    0.8339   -0.9079    0.6666 H   0  0  0  0  0  0  0  0  0  0  0  0 
   -3.1300    2.7245    0.7288 H   0  0  0  0  0  0  0  0  0  0  0  0 
   -3.1758    3.2285    2.4275 H   0  0  0  0  0  0  0  0  0  0  0  0 
    0.9810    2.1390    0.4193 H   0  0  0  0  0  0  0  0  0  0  0  0 
    1.1876    1.2229    1.9158 H   0  0  0  0  0  0  0  0  0  0  0  0 
   -0.9784    2.3647    2.8728 H   0  0  0  0  0  0  0  0  0  0  0  0 
   -0.8910    3.3071    1.3727 H   0  0  0  0  0  0  0  0  0  0  0  0 
    2.8934    0.7587   -0.5834 H   0  0  0  0  0  0  0  0  0  0  0  0 
    2.8998   -0.8595   -0.4288 H   0  0  0  0  0  0  0  0  0  0  0  0 
   -3.3721    0.5038    1.4166 H   0  0  0  0  0  0  0  0  0  0  0  0 
   -4.3905    1.2854    2.4089 H   0  0  0  0  0  0  0  0  0  0  0  0 
   -1.0849    0.4055    1.5464 H   0  0  0  0  0  0  0  0  0  0  0  0 
  1  9  1  0  0  0  0 
  1  3  1  0  0  0  0 
  2  4  1  0  0  0  0 
  2  6  1  0  0  0  0 
  2 11  1  0  0  0  0 
  3  7  1  0  0  0  0 
  3 13  1  0  0  0  0 
  4 14  1  0  0  0  0 
  5  1  1  0  0  0  0 
  6 19  1  0  0  0  0 
  7 20  1  0  0  0  0 
  7  4  1  0  0  0  0 
  8  1  1  0  0  0  0 
 10  2  1  0  0  0  0 
 12  3  1  0  0  0  0 
 15  4  1  0  0  0  0 
 16  5  1  0  0  0  0 
 17  5  1  0  0  0  0 
 18  6  1  0  0  0  0 
M  END 
>  <HBA> 
3 
 
>  <HBD> 
3 
 
>  <TPSA> 
64.07 
 
>  <cid> 
8111 
 
>  <dipole> 
1.77 
 
>  <excitation_energy_1> 
5.389 
 
>  <excitation_energy_2> 
5.528 
 
>  <excitation_energy_3> 
5.707 
 
>  <excitation_energy_4> 
5.827 
 
>  <homo_energy> 
-5.782 
 
>  <homo_lumo_gap> 
7.878 
 
>  <logP> 
0.285 
 
>  <lumo_energy> 
2.095 
 
>  <melting_point> 
110.44 
 
>  <molecular_refractivity> 
29.56 
 
>  <oscillator_strength_1> 
0.0008 
 
>  <oscillator_strength_2> 
0.0072 
 
>  <oscillator_strength_3> 
0.0073 
 
>  <oscillator_strength_4> 
0.012 
 
>  <open_babel_can_smiles> 
NCCNCCN 
 
>  <mulliken_charges> 
20 
1   -0.147047 
2   -0.143398 
3   -0.1011 
4   -0.096096 
5   -0.718322 
6   -0.728548 
7   -0.576633 
8   0.126045 
9   0.132529 
10   0.124773 
11   0.133413 
12   0.127062 
13   0.128903 
14   0.119536 
15   0.129152 
16   0.29252 
17   0.296731 
18   0.301147 
19   0.299289 
20   0.300043 
 
>  <lowdin_charges> 
20 
1   -0.209776 
2   -0.209979 
3   -0.204816 
4   -0.203811 
5   -0.560207 
6   -0.563573 
7   -0.37196 
8   0.123828 
9   0.138293 
10   0.124221 
11   0.143704 
12   0.135394 
13   0.126126 
14   0.120507 
15   0.140294 
16   0.252399 
17   0.25594 
18   0.255215 
19   0.254794 
20   0.253407 
 
$$$$ 
 
