PCCDB-ID:  19589 
public computational chemistry database (PCCDB) project, http://pccdb.org 
 
 21 20  0  0  1  0  0  0  0  0999 V2000 
    1.3185    0.3046   -0.6042 C   0  0  0  0  0  0  0  0  0  0  0  0 
    7.2855    2.0530   -0.3671 C   0  0  0  0  0  0  0  0  0  0  0  0 
    5.0531   -0.0617   -0.9964 C   0  0  0  0  0  0  0  0  0  0  0  0 
    2.3056    0.8904    0.0753 C   0  0  0  0  0  0  0  0  0  0  0  0 
    5.8241    2.3605   -0.7129 C   0  0  0  0  0  0  0  0  0  0  0  0 
    3.3660    1.7806   -0.5129 C   0  0  0  0  0  0  0  0  0  0  0  0 
    4.8135    1.2774   -0.2846 C   0  0  1  0  0  0  0  0  0  0  0  0 
    0.5775   -0.3225   -0.1152 H   0  0  0  0  0  0  0  0  0  0  0  0 
    1.2111    0.4338   -1.6796 H   0  0  0  0  0  0  0  0  0  0  0  0 
    7.9350    2.8943   -0.6348 H   0  0  0  0  0  0  0  0  0  0  0  0 
    7.6574    1.1706   -0.8990 H   0  0  0  0  0  0  0  0  0  0  0  0 
    7.4074    1.8694    0.7079 H   0  0  0  0  0  0  0  0  0  0  0  0 
    6.0445   -0.4693   -0.7729 H   0  0  0  0  0  0  0  0  0  0  0  0 
    4.9784    0.0598   -2.0856 H   0  0  0  0  0  0  0  0  0  0  0  0 
    4.3090   -0.8064   -0.6959 H   0  0  0  0  0  0  0  0  0  0  0  0 
    2.3703    0.7304    1.1539 H   0  0  0  0  0  0  0  0  0  0  0  0 
    5.7312    2.5253   -1.7969 H   0  0  0  0  0  0  0  0  0  0  0  0 
    5.5409    3.3098   -0.2369 H   0  0  0  0  0  0  0  0  0  0  0  0 
    3.2773    2.7813   -0.0624 H   0  0  0  0  0  0  0  0  0  0  0  0 
    3.1893    1.9061   -1.5905 H   0  0  0  0  0  0  0  0  0  0  0  0 
    4.9400    1.1156    0.7984 H   0  0  0  0  0  0  0  0  0  0  0  0 
  1  8  1  0  0  0  0 
  1  4  2  0  0  0  0 
  2 12  1  0  0  0  0 
  3 13  1  0  0  0  0 
  3 15  1  0  0  0  0 
  3  7  1  0  0  0  0 
  4 16  1  0  0  0  0 
  5  2  1  0  0  0  0 
  5  7  1  0  0  0  0 
  5 18  1  0  0  0  0 
  6  7  1  0  0  0  0 
  6 19  1  0  0  0  0 
  6  4  1  0  0  0  0 
  7 21  1  1  0  0  0 
  9  1  1  0  0  0  0 
 10  2  1  0  0  0  0 
 11  2  1  0  0  0  0 
 14  3  1  0  0  0  0 
 17  5  1  0  0  0  0 
 20  6  1  0  0  0  0 
M  END 
>  <HBA> 
0 
 
>  <HBD> 
0 
 
>  <TPSA> 
0.0 
 
>  <cid> 
19589 
 
>  <dipole> 
0.34 
 
>  <excitation_energy_1> 
6.435 
 
>  <excitation_energy_2> 
6.805 
 
>  <excitation_energy_3> 
6.838 
 
>  <excitation_energy_4> 
6.941 
 
>  <homo_energy> 
-6.77 
 
>  <homo_lumo_gap> 
7.456 
 
>  <logP> 
2.609 
 
>  <lumo_energy> 
0.686 
 
>  <melting_point> 
-47.83 
 
>  <molecular_refractivity> 
35.29 
 
>  <oscillator_strength_1> 
0.0283 
 
>  <oscillator_strength_2> 
0.1762 
 
>  <oscillator_strength_3> 
0.0149 
 
>  <oscillator_strength_4> 
0.0654 
 
>  <open_babel_can_smiles> 
C[C@@H](CC)CC=C 
 
>  <mulliken_charges> 
21 
1   -0.342187 
2   -0.448 
3   -0.44911 
4   -0.04144 
5   -0.245266 
6   -0.299985 
7   -0.06978 
8   0.136691 
9   0.134141 
10   0.142269 
11   0.147174 
12   0.140682 
13   0.143033 
14   0.135292 
15   0.152429 
16   0.121903 
17   0.12762 
18   0.127326 
19   0.138042 
20   0.13255 
21   0.116615 
 
>  <lowdin_charges> 
21 
1   -0.344687 
2   -0.446329 
3   -0.447946 
4   -0.141065 
5   -0.271375 
6   -0.271389 
7   -0.119835 
8   0.158016 
9   0.151469 
10   0.150935 
11   0.148854 
12   0.144369 
13   0.148295 
14   0.142312 
15   0.156253 
16   0.145611 
17   0.136326 
18   0.139187 
19   0.147935 
20   0.142293 
21   0.130771 
 
$$$$ 
 
