PCCDB-ID:  66075 
public computational chemistry database (PCCDB) project, http://pccdb.org 
 
 26 25  0  0  0  0  0  0  0  0999 V2000 
    2.5946    1.2566    0.3825 C   0  0  0  0  0  0  0  0  0  0  0  0 
    2.5597   -0.3717   -1.4011 C   0  0  0  0  0  0  0  0  0  0  0  0 
    7.5682    1.2112    1.3070 C   0  0  0  0  0  0  0  0  0  0  0  0 
    7.6081   -0.5198    2.9903 C   0  0  0  0  0  0  0  0  0  0  0  0 
    4.4672   -1.0906    0.8277 C   0  0  0  0  0  0  0  0  0  0  0  0 
    5.6763   -1.0897    0.7377 C   0  0  0  0  0  0  0  0  0  0  0  0 
    2.9894   -1.0891    0.8828 C   0  0  0  0  0  0  0  0  0  0  0  0 
    7.1536   -1.0995    0.6740 C   0  0  0  0  0  0  0  0  0  0  0  0 
    2.3102   -0.1247    0.0137 N   0  0  0  0  0  0  0  0  0  0  0  0 
    7.8476   -0.1911    1.5904 N   0  0  0  0  0  0  0  0  0  0  0  0 
    1.9747    1.9253   -0.2247 H   0  0  0  0  0  0  0  0  0  0  0  0 
    3.6530    1.5413    0.2391 H   0  0  0  0  0  0  0  0  0  0  0  0 
    2.3362    1.4157    1.4353 H   0  0  0  0  0  0  0  0  0  0  0  0 
    1.9291    0.2949   -1.9996 H   0  0  0  0  0  0  0  0  0  0  0  0 
    2.2920   -1.4053   -1.6478 H   0  0  0  0  0  0  0  0  0  0  0  0 
    3.6122   -0.2100   -1.6975 H   0  0  0  0  0  0  0  0  0  0  0  0 
    8.2037    1.8395    1.9407 H   0  0  0  0  0  0  0  0  0  0  0  0 
    6.5146    1.4952    1.4851 H   0  0  0  0  0  0  0  0  0  0  0  0 
    7.8085    1.4309    0.2607 H   0  0  0  0  0  0  0  0  0  0  0  0 
    8.2413    0.1128    3.6220 H   0  0  0  0  0  0  0  0  0  0  0  0 
    7.8809   -1.5650    3.1742 H   0  0  0  0  0  0  0  0  0  0  0  0 
    6.5571   -0.3782    3.3014 H   0  0  0  0  0  0  0  0  0  0  0  0 
    2.6666   -0.8952    1.9143 H   0  0  0  0  0  0  0  0  0  0  0  0 
    2.6223   -2.0915    0.6249 H   0  0  0  0  0  0  0  0  0  0  0  0 
    7.4737   -0.8557   -0.3475 H   0  0  0  0  0  0  0  0  0  0  0  0 
    7.5113   -2.1181    0.8763 H   0  0  0  0  0  0  0  0  0  0  0  0 
  1 13  1  0  0  0  0 
  2  9  1  0  0  0  0 
  3 18  1  0  0  0  0 
  3 10  1  0  0  0  0 
  3 17  1  0  0  0  0 
  4 21  1  0  0  0  0 
  4 22  1  0  0  0  0 
  4 20  1  0  0  0  0 
  5  7  1  0  0  0  0 
  6  5  3  0  0  0  0 
  7 23  1  0  0  0  0 
  8  6  1  0  0  0  0 
  8 26  1  0  0  0  0 
  8 10  1  0  0  0  0 
  9  1  1  0  0  0  0 
  9  7  1  0  0  0  0 
 10  4  1  0  0  0  0 
 11  1  1  0  0  0  0 
 12  1  1  0  0  0  0 
 14  2  1  0  0  0  0 
 15  2  1  0  0  0  0 
 16  2  1  0  0  0  0 
 19  3  1  0  0  0  0 
 24  7  1  0  0  0  0 
 25  8  1  0  0  0  0 
M  END 
>  <HBA> 
2 
 
>  <HBD> 
0 
 
>  <TPSA> 
6.48 
 
>  <cid> 
66075 
 
>  <dipole> 
0.27 
 
>  <excitation_energy_1> 
5.264 
 
>  <excitation_energy_2> 
5.288 
 
>  <excitation_energy_3> 
5.698 
 
>  <excitation_energy_4> 
5.717 
 
>  <homo_energy> 
-5.791 
 
>  <homo_lumo_gap> 
7.11 
 
>  <logP> 
0.113 
 
>  <lumo_energy> 
1.32 
 
>  <melting_point> 
-5.27 
 
>  <molecular_refractivity> 
44.52 
 
>  <oscillator_strength_1> 
0.0041 
 
>  <oscillator_strength_2> 
0.0041 
 
>  <oscillator_strength_3> 
0.0345 
 
>  <oscillator_strength_4> 
0.0015 
 
>  <open_babel_can_smiles> 
CN(CC#CCN(C)C)C 
 
>  <mulliken_charges> 
26 
1   -0.300982 
2   -0.299386 
3   -0.301391 
4   -0.29912 
5   0.041336 
6   0.044503 
7   -0.287945 
8   -0.288613 
9   -0.346157 
10   -0.346264 
11   0.148129 
12   0.134068 
13   0.145516 
14   0.14791 
15   0.145925 
16   0.132882 
17   0.148232 
18   0.133924 
19   0.145596 
20   0.147841 
21   0.145834 
22   0.133025 
23   0.168226 
24   0.169279 
25   0.168408 
26   0.169223 
 
>  <lowdin_charges> 
26 
1   -0.35703 
2   -0.357224 
3   -0.357359 
4   -0.357097 
5   -0.102797 
6   -0.102803 
7   -0.186594 
8   -0.186585 
9   -0.177128 
10   -0.177238 
11   0.151758 
12   0.127384 
13   0.147508 
14   0.151507 
15   0.148129 
16   0.12819 
17   0.151751 
18   0.127334 
19   0.147687 
20   0.151568 
21   0.147833 
22   0.128332 
23   0.162776 
24   0.163674 
25   0.162964 
26   0.163462 
 
$$$$ 
 
