PCCDB-ID:  19463 
public computational chemistry database (PCCDB) project, http://pccdb.org 
 
 17 16  0  0  0  0  0  0  0  0999 V2000 
    2.8269    1.2341   -0.5273 C   0  0  0  0  0  0  0  0  0  0  0  0 
    2.6141   -3.2212    1.6350 C   0  0  0  0  0  0  0  0  0  0  0  0 
    3.0927   -0.2596   -0.6840 C   0  0  0  0  0  0  0  0  0  0  0  0 
    2.9897   -2.4447    0.3770 C   0  0  0  0  0  0  0  0  0  0  0  0 
    2.8024   -0.9993    0.5501 N   0  0  0  0  0  0  0  0  0  0  0  0 
    3.8132   -0.5807    1.5108 O   0  0  0  0  0  0  0  0  0  0  0  0 
    3.0056    1.7563   -1.4738 H   0  0  0  0  0  0  0  0  0  0  0  0 
    3.4887    1.6642    0.2298 H   0  0  0  0  0  0  0  0  0  0  0  0 
    1.7891    1.4125   -0.2245 H   0  0  0  0  0  0  0  0  0  0  0  0 
    2.7181   -4.2987    1.4654 H   0  0  0  0  0  0  0  0  0  0  0  0 
    1.5769   -3.0147    1.9215 H   0  0  0  0  0  0  0  0  0  0  0  0 
    3.2666   -2.9427    2.4675 H   0  0  0  0  0  0  0  0  0  0  0  0 
    4.1343   -0.4315   -1.0065 H   0  0  0  0  0  0  0  0  0  0  0  0 
    2.4340   -0.6782   -1.4549 H   0  0  0  0  0  0  0  0  0  0  0  0 
    2.3384   -2.7414   -0.4544 H   0  0  0  0  0  0  0  0  0  0  0  0 
    4.0293   -2.6712    0.0829 H   0  0  0  0  0  0  0  0  0  0  0  0 
    3.2754   -0.2090    2.2271 H   0  0  0  0  0  0  0  0  0  0  0  0 
  1  9  1  0  0  0  0 
  1  8  1  0  0  0  0 
  2 11  1  0  0  0  0 
  2 12  1  0  0  0  0 
  3  1  1  0  0  0  0 
  3  5  1  0  0  0  0 
  4  5  1  0  0  0  0 
  4  2  1  0  0  0  0 
  5  6  1  0  0  0  0 
  6 17  1  0  0  0  0 
  7  1  1  0  0  0  0 
 10  2  1  0  0  0  0 
 13  3  1  0  0  0  0 
 14  3  1  0  0  0  0 
 15  4  1  0  0  0  0 
 16  4  1  0  0  0  0 
M  END 
>  <HBA> 
2 
 
>  <HBD> 
1 
 
>  <TPSA> 
23.47 
 
>  <cid> 
19463 
 
>  <dipole> 
0.7 
 
>  <excitation_energy_1> 
5.823 
 
>  <excitation_energy_2> 
6.271 
 
>  <excitation_energy_3> 
6.502 
 
>  <excitation_energy_4> 
6.743 
 
>  <homo_energy> 
-6.136 
 
>  <homo_lumo_gap> 
8.074 
 
>  <logP> 
0.717 
 
>  <lumo_energy> 
1.937 
 
>  <melting_point> 
31.31 
 
>  <molecular_refractivity> 
24.97 
 
>  <oscillator_strength_1> 
0.0024 
 
>  <oscillator_strength_2> 
0.0398 
 
>  <oscillator_strength_3> 
0.0514 
 
>  <oscillator_strength_4> 
0.0956 
 
>  <open_babel_can_smiles> 
CCN(CC)O 
 
>  <mulliken_charges> 
17 
1   -0.45357 
2   -0.453556 
3   -0.082108 
4   -0.082145 
5   -0.227422 
6   -0.528178 
7   0.141476 
8   0.157538 
9   0.147494 
10   0.141496 
11   0.147531 
12   0.157381 
13   0.126335 
14   0.136533 
15   0.136517 
16   0.126416 
17   0.408261 
 
>  <lowdin_charges> 
17 
1   -0.45176 
2   -0.449509 
3   -0.20393 
4   -0.202539 
5   -0.080679 
6   -0.422688 
7   0.151985 
8   0.156181 
9   0.149613 
10   0.150273 
11   0.14961 
12   0.155661 
13   0.127165 
14   0.146538 
15   0.146056 
16   0.127259 
17   0.350763 
 
$$$$ 
 
