PCCDB-ID:  19106 
public computational chemistry database (PCCDB) project, http://pccdb.org 
 
 27 27  0  0  0  0  0  0  0  0999 V2000 
    0.7570    0.3564    0.6449 C   0  0  0  0  0  0  0  0  0  0  0  0 
    7.5228    3.5475    0.0224 C   0  0  0  0  0  0  0  0  0  0  0  0 
    0.7762   -2.8241   -1.3410 C   0  0  0  0  0  0  0  0  0  0  0  0 
    4.8923   -0.4857   -0.3774 C   0  0  0  0  0  0  0  0  0  0  0  0 
    3.9834   -1.5297   -0.2232 C   0  0  0  0  0  0  0  0  0  0  0  0 
    3.1039    1.0766    0.1086 C   0  0  0  0  0  0  0  0  0  0  0  0 
    2.1856    0.0342    0.2763 C   0  0  0  0  0  0  0  0  0  0  0  0 
    4.4324    0.8185   -0.2176 C   0  0  0  0  0  0  0  0  0  0  0  0 
    2.6395   -1.2905    0.0934 C   0  0  0  0  0  0  0  0  0  0  0  0 
    6.1836    2.1006   -1.2706 C   0  0  0  0  0  0  0  0  0  0  0  0 
    7.1967    2.8508   -1.2103 N   0  0  0  0  0  0  0  0  0  0  0  0 
    5.8593    1.4258   -2.3979 O   0  0  0  0  0  0  0  0  0  0  0  0 
    5.2818    1.9207   -0.2665 O   0  0  0  0  0  0  0  0  0  0  0  0 
    1.5518   -2.7052    0.3192 S   0  0  0  0  0  0  0  0  0  0  0  0 
    0.6354    1.4285    0.8265 H   0  0  0  0  0  0  0  0  0  0  0  0 
    0.4464   -0.1867    1.5431 H   0  0  0  0  0  0  0  0  0  0  0  0 
    0.0587    0.0715   -0.1512 H   0  0  0  0  0  0  0  0  0  0  0  0 
    6.9735    3.1837    0.8995 H   0  0  0  0  0  0  0  0  0  0  0  0 
    7.3148    4.6189   -0.0933 H   0  0  0  0  0  0  0  0  0  0  0  0 
    8.5973    3.4473    0.2125 H   0  0  0  0  0  0  0  0  0  0  0  0 
    0.1025   -3.6850   -1.3081 H   0  0  0  0  0  0  0  0  0  0  0  0 
    1.5325   -2.9892   -2.1124 H   0  0  0  0  0  0  0  0  0  0  0  0 
    0.1963   -1.9285   -1.5784 H   0  0  0  0  0  0  0  0  0  0  0  0 
    5.9311   -0.6817   -0.6185 H   0  0  0  0  0  0  0  0  0  0  0  0 
    4.3197   -2.5552   -0.3410 H   0  0  0  0  0  0  0  0  0  0  0  0 
    2.7935    2.1089    0.2385 H   0  0  0  0  0  0  0  0  0  0  0  0 
    6.5618    1.6528   -3.0326 H   0  0  0  0  0  0  0  0  0  0  0  0 
  1 15  1  0  0  0  0 
  1 16  1  0  0  0  0 
  2 20  1  0  0  0  0 
  2 18  1  0  0  0  0 
  3 21  1  0  0  0  0 
  3 14  1  0  0  0  0 
  4  5  2  0  0  0  0 
  4  8  1  0  0  0  0 
  5  9  1  0  0  0  0 
  6 26  1  0  0  0  0 
  6  7  1  0  0  0  0 
  7  1  1  0  0  0  0 
  8  6  2  0  0  0  0 
  9  7  2  0  0  0  0 
  9 14  1  0  0  0  0 
 10 11  2  0  0  0  0 
 10 13  1  0  0  0  0 
 11  2  1  0  0  0  0 
 12 10  1  0  0  0  0 
 13  8  1  0  0  0  0 
 17  1  1  0  0  0  0 
 19  2  1  0  0  0  0 
 22  3  1  0  0  0  0 
 23  3  1  0  0  0  0 
 24  4  1  0  0  0  0 
 25  5  1  0  0  0  0 
 27 12  1  0  0  0  0 
M  END 
>  <HBA> 
4 
 
>  <HBD> 
1 
 
>  <TPSA> 
63.63 
 
>  <cid> 
19106 
 
>  <dipole> 
1.38 
 
>  <excitation_energy_1> 
4.449 
 
>  <excitation_energy_2> 
4.872 
 
>  <excitation_energy_3> 
5.072 
 
>  <excitation_energy_4> 
5.309 
 
>  <homo_energy> 
-6.131 
 
>  <homo_lumo_gap> 
5.597 
 
>  <logP> 
2.826 
 
>  <lumo_energy> 
-0.533 
 
>  <melting_point> 
85.32 
 
>  <molecular_refractivity> 
57.82 
 
>  <oscillator_strength_1> 
0.0052 
 
>  <oscillator_strength_2> 
0.001 
 
>  <oscillator_strength_3> 
0.0001 
 
>  <oscillator_strength_4> 
0.2961 
 
>  <open_babel_can_smiles> 
C/N=C(\Oc1ccc(c(c1)C)SC)/O 
 
>  <mulliken_charges> 
27 
1   -0.524671 
2   -0.325216 
3   -0.580141 
4   -0.133057 
5   -0.15475 
6   -0.214308 
7   0.158479 
8   0.361452 
9   -0.151008 
10   0.698839 
11   -0.474167 
12   -0.589864 
13   -0.532437 
14   0.08251 
15   0.153956 
16   0.184063 
17   0.164778 
18   0.154176 
19   0.156484 
20   0.155418 
21   0.181644 
22   0.184007 
23   0.180294 
24   0.145947 
25   0.153107 
26   0.140758 
27   0.423705 
 
>  <lowdin_charges> 
27 
1   -0.439535 
2   -0.350754 
3   -0.542844 
4   -0.176879 
5   -0.142577 
6   -0.182183 
7   0.013517 
8   0.111336 
9   -0.147974 
10   0.187903 
11   -0.256305 
12   -0.362101 
13   -0.155293 
14   0.122668 
15   0.154742 
16   0.173828 
17   0.16291 
18   0.145134 
19   0.151007 
20   0.150938 
21   0.174767 
22   0.166317 
23   0.161938 
24   0.168988 
25   0.169611 
26   0.167307 
27   0.373534 
 
$$$$ 
 
