PCCDB-ID:  59563 
public computational chemistry database (PCCDB) project, http://pccdb.org 
 
 27 27  0  0  0  0  0  0  0  0999 V2000 
    5.6864   -3.3437   -0.1768 C   0  0  0  0  0  0  0  0  0  0  0  0 
   11.0904    3.5966   -0.9782 C   0  0  0  0  0  0  0  0  0  0  0  0 
    7.0346    6.0194   -0.0902 C   0  0  0  0  0  0  0  0  0  0  0  0 
    6.2964    4.8366    0.0090 C   0  0  0  0  0  0  0  0  0  0  0  0 
    8.3960    5.9797   -0.3588 C   0  0  0  0  0  0  0  0  0  0  0  0 
    8.3163    3.5559   -0.4368 C   0  0  0  0  0  0  0  0  0  0  0  0 
    6.1404    2.3776   -0.0548 C   0  0  0  0  0  0  0  0  0  0  0  0 
    6.9355    3.6035   -0.1635 C   0  0  0  0  0  0  0  0  0  0  0  0 
    9.0417    4.7417   -0.5337 C   0  0  0  0  0  0  0  0  0  0  0  0 
    6.1127   -1.0509   -0.1942 C   0  0  0  0  0  0  0  0  0  0  0  0 
    5.2594   -1.9666   -0.0057 N   0  0  0  0  0  0  0  0  0  0  0  0 
    6.6768    1.2226   -0.2067 N   0  0  0  0  0  0  0  0  0  0  0  0 
    7.4188   -1.1499   -0.5365 O   0  0  0  0  0  0  0  0  0  0  0  0 
   10.3780    4.8116   -0.7954 O   0  0  0  0  0  0  0  0  0  0  0  0 
    5.6815    0.2321   -0.0457 O   0  0  0  0  0  0  0  0  0  0  0  0 
    4.8247   -4.0035   -0.0458 H   0  0  0  0  0  0  0  0  0  0  0  0 
    6.4416   -3.6510    0.5668 H   0  0  0  0  0  0  0  0  0  0  0  0 
    6.0971   -3.5499   -1.1810 H   0  0  0  0  0  0  0  0  0  0  0  0 
   12.1257    3.8842   -1.1694 H   0  0  0  0  0  0  0  0  0  0  0  0 
   10.7050    3.0294   -1.8354 H   0  0  0  0  0  0  0  0  0  0  0  0 
   11.0468    2.9653   -0.0813 H   0  0  0  0  0  0  0  0  0  0  0  0 
    6.5418    6.9783    0.0435 H   0  0  0  0  0  0  0  0  0  0  0  0 
    5.2310    4.8697    0.2194 H   0  0  0  0  0  0  0  0  0  0  0  0 
    8.9862    6.8870   -0.4397 H   0  0  0  0  0  0  0  0  0  0  0  0 
    8.7840    2.5882   -0.5665 H   0  0  0  0  0  0  0  0  0  0  0  0 
    5.0737    2.4700    0.1603 H   0  0  0  0  0  0  0  0  0  0  0  0 
    7.6264   -2.0954   -0.6124 H   0  0  0  0  0  0  0  0  0  0  0  0 
  1 16  1  0  0  0  0 
  1 11  1  0  0  0  0 
  1 17  1  0  0  0  0 
  2 14  1  0  0  0  0 
  2 21  1  0  0  0  0 
  3  4  1  0  0  0  0 
  3 22  1  0  0  0  0 
  4 23  1  0  0  0  0 
  5  3  2  0  0  0  0 
  6  8  1  0  0  0  0 
  7 26  1  0  0  0  0 
  8  7  1  0  0  0  0 
  8  4  2  0  0  0  0 
  9  6  2  0  0  0  0 
  9  5  1  0  0  0  0 
 10 15  1  0  0  0  0 
 10 11  2  0  0  0  0 
 12  7  1  0  0  0  0 
 12 15  1  0  0  0  0 
 13 10  1  0  0  0  0 
 14  9  1  0  0  0  0 
 18  1  1  0  0  0  0 
 19  2  1  0  0  0  0 
 20  2  1  0  0  0  0 
 24  5  1  0  0  0  0 
 25  6  1  0  0  0  0 
 27 13  1  0  0  0  0 
M  RAD  2   7   2  12   2 
M  END 
>  <HBA> 
5 
 
>  <HBD> 
1 
 
>  <TPSA> 
59.92 
 
>  <cid> 
59563 
 
>  <dipole> 
2.46 
 
>  <excitation_energy_1> 
4.14 
 
>  <excitation_energy_2> 
4.404 
 
>  <excitation_energy_3> 
5.026 
 
>  <excitation_energy_4> 
5.147 
 
>  <homo_energy> 
-5.984 
 
>  <homo_lumo_gap> 
4.626 
 
>  <logP> 
1.776 
 
>  <lumo_energy> 
-1.358 
 
>  <melting_point> 
82.1 
 
>  <molecular_refractivity> 
55.67 
 
>  <oscillator_strength_1> 
0.2099 
 
>  <oscillator_strength_2> 
0.3499 
 
>  <oscillator_strength_3> 
0.0002 
 
>  <oscillator_strength_4> 
0.0483 
 
>  <open_babel_can_smiles> 
C/N=C(/O[N][CH]c1cccc(c1)OC)\O 
 
>  <mulliken_charges> 
27 
1   -0.362609 
2   -0.217354 
3   -0.137976 
4   -0.191658 
5   -0.16302 
6   -0.248049 
7   0.051397 
8   0.129593 
9   0.384945 
10   0.714348 
11   -0.430975 
12   -0.153364 
13   -0.578917 
14   -0.509324 
15   -0.3919 
16   0.176712 
17   0.14344 
18   0.137137 
19   0.170272 
20   0.157589 
21   0.157495 
22   0.136941 
23   0.132379 
24   0.143362 
25   0.165432 
26   0.157484 
27   0.42662 
 
>  <lowdin_charges> 
27 
1   -0.367818 
2   -0.278126 
3   -0.146221 
4   -0.171097 
5   -0.171255 
6   -0.203044 
7   -0.089051 
8   -0.006699 
9   0.106385 
10   0.188982 
11   -0.250714 
12   -0.037187 
13   -0.352101 
14   -0.198246 
15   -0.114758 
16   0.165779 
17   0.138784 
18   0.133348 
19   0.162008 
20   0.149239 
21   0.148873 
22   0.162291 
23   0.158176 
24   0.169911 
25   0.178487 
26   0.157155 
27   0.3669 
 
$$$$ 
 
