PCCDB-ID:  10720 
public computational chemistry database (PCCDB) project, http://pccdb.org 
 
 23 24  0  0  1  0  0  0  0  0999 V2000 
    1.0190    0.0781    0.1135 C   0  0  0  0  0  0  0  0  0  0  0  0 
    2.5408   -2.6591   -0.8264 C   0  0  0  0  0  0  0  0  0  0  0  0 
    4.4208    1.0083   -0.0620 C   0  0  0  0  0  0  0  0  0  0  0  0 
    5.1481   -0.2993   -0.5094 C   0  0  0  0  0  0  0  0  0  0  0  0 
    4.3512   -0.5771    1.7298 C   0  0  0  0  0  0  0  0  0  0  0  0 
    2.4170   -0.3852    0.3831 C   0  0  0  0  0  0  0  0  0  0  0  0 
    3.0441   -1.5138   -0.0039 C   0  0  0  0  0  0  0  0  0  0  0  0 
    3.4616    0.4967    1.0667 C   0  0  2  0  0  0  0  0  0  0  0  0 
    4.5064   -1.3831    0.4222 C   0  0  1  0  0  0  0  0  0  0  0  0 
    0.4284   -0.6713   -0.4231 H   0  0  0  0  0  0  0  0  0  0  0  0 
    1.0142    0.9983   -0.4888 H   0  0  0  0  0  0  0  0  0  0  0  0 
    0.4904    0.3170    1.0470 H   0  0  0  0  0  0  0  0  0  0  0  0 
    1.4765   -2.5642   -1.0645 H   0  0  0  0  0  0  0  0  0  0  0  0 
    2.6849   -3.6172   -0.3078 H   0  0  0  0  0  0  0  0  0  0  0  0 
    3.0881   -2.7364   -1.7772 H   0  0  0  0  0  0  0  0  0  0  0  0 
    3.8706    1.4897   -0.8769 H   0  0  0  0  0  0  0  0  0  0  0  0 
    5.1302    1.7436    0.3355 H   0  0  0  0  0  0  0  0  0  0  0  0 
    6.2291   -0.2328   -0.3388 H   0  0  0  0  0  0  0  0  0  0  0  0 
    4.9967   -0.5298   -1.5688 H   0  0  0  0  0  0  0  0  0  0  0  0 
    3.8334   -1.1348    2.5168 H   0  0  0  0  0  0  0  0  0  0  0  0 
    5.2991   -0.1846    2.1206 H   0  0  0  0  0  0  0  0  0  0  0  0 
    3.0653    1.2876    1.7106 H   0  0  0  0  0  0  0  0  0  0  0  0 
    5.0696   -2.3197    0.4745 H   0  0  0  0  0  0  0  0  0  0  0  0 
  1  6  1  0  0  0  0 
  1 12  1  0  0  0  0 
  2 14  1  0  0  0  0 
  2  7  1  0  0  0  0 
  3 17  1  0  0  0  0 
  3  8  1  0  0  0  0 
  4 18  1  0  0  0  0 
  4  3  1  0  0  0  0 
  4  9  1  0  0  0  0 
  5 21  1  0  0  0  0 
  5 20  1  0  0  0  0 
  6  8  1  0  0  0  0 
  7  6  2  0  0  0  0 
  7  9  1  0  0  0  0 
  8 22  1  1  0  0  0 
  8  5  1  0  0  0  0 
  9 23  1  1  0  0  0 
  9  5  1  0  0  0  0 
 10  1  1  0  0  0  0 
 11  1  1  0  0  0  0 
 13  2  1  0  0  0  0 
 15  2  1  0  0  0  0 
 16  3  1  0  0  0  0 
 19  4  1  0  0  0  0 
M  END 
>  <HBA> 
0 
 
>  <HBD> 
0 
 
>  <TPSA> 
0.0 
 
>  <cid> 
10720 
 
>  <dipole> 
0.21 
 
>  <excitation_energy_1> 
5.245 
 
>  <excitation_energy_2> 
5.629 
 
>  <excitation_energy_3> 
5.707 
 
>  <excitation_energy_4> 
5.992 
 
>  <homo_energy> 
-5.731 
 
>  <homo_lumo_gap> 
6.748 
 
>  <logP> 
2.753 
 
>  <lumo_energy> 
1.018 
 
>  <melting_point> 
33.23 
 
>  <molecular_refractivity> 
40.67 
 
>  <oscillator_strength_1> 
0.0017 
 
>  <oscillator_strength_2> 
0.0072 
 
>  <oscillator_strength_3> 
0.0095 
 
>  <oscillator_strength_4> 
0.0084 
 
>  <open_babel_can_smiles> 
CC1=C(C)[C@@H]2C[C@H]1CC2 
 
>  <mulliken_charges> 
23 
1   -0.528932 
2   -0.52894 
3   -0.26377 
4   -0.26343 
5   -0.256035 
6   0.13028 
7   0.13039 
8   -0.169717 
9   -0.169502 
10   0.151824 
11   0.152374 
12   0.151978 
13   0.151868 
14   0.151858 
15   0.152434 
16   0.13371 
17   0.132147 
18   0.132106 
19   0.133602 
20   0.135431 
21   0.121089 
22   0.109638 
23   0.109596 
 
>  <lowdin_charges> 
23 
1   -0.443021 
2   -0.439777 
3   -0.28537 
4   -0.279805 
5   -0.272605 
6   -0.034876 
7   -0.034632 
8   -0.134984 
9   -0.134186 
10   0.156036 
11   0.154949 
12   0.154978 
13   0.153322 
14   0.154482 
15   0.154741 
16   0.144159 
17   0.143353 
18   0.140246 
19   0.14144 
20   0.14683 
21   0.135983 
22   0.139921 
23   0.138819 
 
$$$$ 
 
