PCCDB-ID:  24989 
public computational chemistry database (PCCDB) project, http://pccdb.org 
 
 31 30  0  0  1  0  0  0  0  0999 V2000 
    1.0899    3.1840    2.3304 C   0  0  0  0  0  0  0  0  0  0  0  0 
    2.4717    2.4538   -3.4956 C   0  0  0  0  0  0  0  0  0  0  0  0 
    2.0749    2.3460    1.5093 C   0  0  0  0  0  0  0  0  0  0  0  0 
    3.3082    3.5219   -2.7816 C   0  0  0  0  0  0  0  0  0  0  0  0 
    2.6067    3.0813    0.2718 C   0  0  0  0  0  0  0  0  0  0  0  0 
    3.5846    2.2307   -0.5495 C   0  0  0  0  0  0  0  0  0  0  0  0 
    6.9253    5.4546   -1.0745 C   0  0  0  0  0  0  0  0  0  0  0  0 
    6.1580    4.4368   -1.9061 C   0  0  0  0  0  0  0  0  0  0  0  0 
    4.2669    2.9595   -1.7168 C   0  0  2  0  0  0  0  0  0  0  0  0 
    8.0295    5.8864   -1.8606 O   0  0  0  0  0  0  0  0  0  0  0  0 
    5.0556    4.0039   -1.1339 O   0  0  0  0  0  0  0  0  0  0  0  0 
    0.7310    2.6359    3.2093 H   0  0  0  0  0  0  0  0  0  0  0  0 
    0.2139    3.4644    1.7325 H   0  0  0  0  0  0  0  0  0  0  0  0 
    1.5578    4.1111    2.6841 H   0  0  0  0  0  0  0  0  0  0  0  0 
    1.8823    2.8973   -4.3058 H   0  0  0  0  0  0  0  0  0  0  0  0 
    1.7718    1.9583   -2.8138 H   0  0  0  0  0  0  0  0  0  0  0  0 
    3.1096    1.6781   -3.9377 H   0  0  0  0  0  0  0  0  0  0  0  0 
    1.5873    1.4109    1.1972 H   0  0  0  0  0  0  0  0  0  0  0  0 
    2.9214    2.0489    2.1444 H   0  0  0  0  0  0  0  0  0  0  0  0 
    2.6542    4.2674   -2.3135 H   0  0  0  0  0  0  0  0  0  0  0  0 
    3.9024    4.0629   -3.5287 H   0  0  0  0  0  0  0  0  0  0  0  0 
    3.1103    4.0059    0.5810 H   0  0  0  0  0  0  0  0  0  0  0  0 
    1.7554    3.3853   -0.3532 H   0  0  0  0  0  0  0  0  0  0  0  0 
    3.0699    1.3417   -0.9382 H   0  0  0  0  0  0  0  0  0  0  0  0 
    4.3819    1.8639    0.1102 H   0  0  0  0  0  0  0  0  0  0  0  0 
    7.2483    4.9813   -0.1348 H   0  0  0  0  0  0  0  0  0  0  0  0 
    6.2533    6.2875   -0.8163 H   0  0  0  0  0  0  0  0  0  0  0  0 
    6.8208    3.5926   -2.1571 H   0  0  0  0  0  0  0  0  0  0  0  0 
    5.8465    4.9066   -2.8507 H   0  0  0  0  0  0  0  0  0  0  0  0 
    4.9471    2.2422   -2.2098 H   0  0  0  0  0  0  0  0  0  0  0  0 
    8.5245    6.5387   -1.3439 H   0  0  0  0  0  0  0  0  0  0  0  0 
  1 14  1  0  0  0  0 
  1 12  1  0  0  0  0 
  2 16  1  0  0  0  0 
  2  4  1  0  0  0  0 
  3 19  1  0  0  0  0 
  3  1  1  0  0  0  0 
  4 20  1  0  0  0  0 
  4  9  1  0  0  0  0 
  5 22  1  0  0  0  0 
  5  3  1  0  0  0  0 
  6 25  1  0  0  0  0 
  6  5  1  0  0  0  0 
  7 27  1  0  0  0  0 
  7 26  1  0  0  0  0 
  8 11  1  0  0  0  0 
  8  7  1  0  0  0  0 
  9 30  1  6  0  0  0 
  9 11  1  0  0  0  0 
  9  6  1  0  0  0  0 
 10 31  1  0  0  0  0 
 10  7  1  0  0  0  0 
 13  1  1  0  0  0  0 
 15  2  1  0  0  0  0 
 17  2  1  0  0  0  0 
 18  3  1  0  0  0  0 
 21  4  1  0  0  0  0 
 23  5  1  0  0  0  0 
 24  6  1  0  0  0  0 
 28  8  1  0  0  0  0 
 29  8  1  0  0  0  0 
M  END 
>  <HBA> 
2 
 
>  <HBD> 
1 
 
>  <TPSA> 
29.46 
 
>  <cid> 
24989 
 
>  <dipole> 
0.48 
 
>  <excitation_energy_1> 
6.24 
 
>  <excitation_energy_2> 
6.393 
 
>  <excitation_energy_3> 
6.434 
 
>  <excitation_energy_4> 
6.694 
 
>  <homo_energy> 
-6.675 
 
>  <homo_lumo_gap> 
8.534 
 
>  <logP> 
1.964 
 
>  <lumo_energy> 
1.859 
 
>  <melting_point> 
-18.89 
 
>  <molecular_refractivity> 
47.62 
 
>  <oscillator_strength_1> 
0.0001 
 
>  <oscillator_strength_2> 
0.0073 
 
>  <oscillator_strength_3> 
0.0006 
 
>  <oscillator_strength_4> 
0.0067 
 
>  <open_babel_can_smiles> 
CCCC[C@H](OCCO)CC 
 
>  <mulliken_charges> 
31 
1   -0.441462 
2   -0.454857 
3   -0.24794 
4   -0.272183 
5   -0.25512 
6   -0.272733 
7   -0.049976 
8   -0.013979 
9   0.163779 
10   -0.622784 
11   -0.502445 
12   0.140211 
13   0.139916 
14   0.142049 
15   0.146853 
16   0.149464 
17   0.143341 
18   0.126707 
19   0.130957 
20   0.145463 
21   0.136584 
22   0.150364 
23   0.127024 
24   0.129769 
25   0.136732 
26   0.129926 
27   0.130746 
28   0.129538 
29   0.133599 
30   0.104446 
31   0.396012 
 
>  <lowdin_charges> 
31 
1   -0.445646 
2   -0.450232 
3   -0.272322 
4   -0.293139 
5   -0.279989 
6   -0.284413 
7   -0.140196 
8   -0.135415 
9   0.002299 
10   -0.473978 
11   -0.275502 
12   0.148955 
13   0.145962 
14   0.146833 
15   0.153988 
16   0.149937 
17   0.148284 
18   0.136781 
19   0.139773 
20   0.149049 
21   0.146737 
22   0.149321 
23   0.137729 
24   0.143634 
25   0.148506 
26   0.131113 
27   0.132546 
28   0.132418 
29   0.132402 
30   0.125819 
31   0.348748 
 
$$$$ 
 
