PCCDB-ID:  7509 
public computational chemistry database (PCCDB) project, http://pccdb.org 
 
 16 16  0  0  0  0  0  0  0  0999 V2000 
   -1.4624   -0.0653    0.0346 C   0  0  0  0  0  0  0  0  0  0  0  0 
   -0.8514    1.1796   -0.1125 C   0  0  0  0  0  0  0  0  0  0  0  0 
   -0.6741   -1.2169    0.1163 C   0  0  0  0  0  0  0  0  0  0  0  0 
    0.5407    1.2716   -0.1783 C   0  0  0  0  0  0  0  0  0  0  0  0 
    0.7143   -1.1219    0.0528 C   0  0  0  0  0  0  0  0  0  0  0  0 
    2.8405    0.2385   -0.1720 C   0  0  0  0  0  0  0  0  0  0  0  0 
    1.3392    0.1243   -0.0977 C   0  0  0  0  0  0  0  0  0  0  0  0 
    3.7189   -0.0596    1.4368 S   0  0  0  0  0  0  0  0  0  0  0  0 
   -2.5453   -0.1406    0.0830 H   0  0  0  0  0  0  0  0  0  0  0  0 
   -1.4555    2.0805   -0.1796 H   0  0  0  0  0  0  0  0  0  0  0  0 
   -1.1434   -2.1908    0.2281 H   0  0  0  0  0  0  0  0  0  0  0  0 
    1.0122    2.2447   -0.2992 H   0  0  0  0  0  0  0  0  0  0  0  0 
    1.3244   -2.0186    0.1301 H   0  0  0  0  0  0  0  0  0  0  0  0 
    3.1384    1.2163   -0.5593 H   0  0  0  0  0  0  0  0  0  0  0  0 
    3.2641   -0.5216   -0.8361 H   0  0  0  0  0  0  0  0  0  0  0  0 
    3.0279    0.8501    2.1570 H   0  0  0  0  0  0  0  0  0  0  0  0 
  1  9  1  0  0  0  0 
  1  3  2  0  0  0  0 
  2  1  1  0  0  0  0 
  3 11  1  0  0  0  0 
  4  2  2  0  0  0  0 
  4  7  1  0  0  0  0 
  5  3  1  0  0  0  0 
  5 13  1  0  0  0  0 
  6  7  1  0  0  0  0 
  6  8  1  0  0  0  0 
  7  5  2  0  0  0  0 
  8 16  1  0  0  0  0 
 10  2  1  0  0  0  0 
 12  4  1  0  0  0  0 
 14  6  1  0  0  0  0 
 15  6  1  0  0  0  0 
M  END 
>  <HBA> 
1 
 
>  <HBD> 
1 
 
>  <TPSA> 
38.8 
 
>  <cid> 
7509 
 
>  <dipole> 
1.73 
 
>  <excitation_energy_1> 
4.897 
 
>  <excitation_energy_2> 
5.122 
 
>  <excitation_energy_3> 
5.284 
 
>  <excitation_energy_4> 
5.528 
 
>  <homo_energy> 
-6.308 
 
>  <homo_lumo_gap> 
5.927 
 
>  <logP> 
2.116 
 
>  <lumo_energy> 
-0.381 
 
>  <melting_point> 
27.41 
 
>  <molecular_refractivity> 
39.34 
 
>  <oscillator_strength_1> 
0.0226 
 
>  <oscillator_strength_2> 
0.0022 
 
>  <oscillator_strength_3> 
0.0139 
 
>  <oscillator_strength_4> 
0.0277 
 
>  <open_babel_can_smiles> 
SCc1ccccc1 
 
>  <mulliken_charges> 
16 
1   -0.128904 
2   -0.126319 
3   -0.130012 
4   -0.18311 
5   -0.161363 
6   -0.503785 
7   0.176686 
8   -0.075789 
9   0.131437 
10   0.131568 
11   0.132913 
12   0.125992 
13   0.136502 
14   0.18442 
15   0.190674 
16   0.09909 
 
>  <lowdin_charges> 
16 
1   -0.153879 
2   -0.155547 
3   -0.152695 
4   -0.167571 
5   -0.154986 
6   -0.365576 
7   -0.013228 
8   -0.088654 
9   0.15668 
10   0.159219 
11   0.159044 
12   0.155181 
13   0.16267 
14   0.164423 
15   0.176576 
16   0.118344 
 
$$$$ 
 
