PCCDB-ID:  7937 
public computational chemistry database (PCCDB) project, http://pccdb.org 
 
 17 17  0  0  0  0  0  0  0  0999 V2000 
    0.9060   -0.0603    0.0141 C   0  0  0  0  0  0  0  0  0  0  0  0 
    5.0427   -2.5540    0.2646 C   0  0  0  0  0  0  0  0  0  0  0  0 
    4.4833    1.2083    0.2737 C   0  0  0  0  0  0  0  0  0  0  0  0 
    3.0937    1.2219    0.1775 C   0  0  0  0  0  0  0  0  0  0  0  0 
    5.1453   -0.0160    0.3100 C   0  0  0  0  0  0  0  0  0  0  0  0 
    2.4104    0.0011    0.1213 C   0  0  0  0  0  0  0  0  0  0  0  0 
    4.3887   -1.1935    0.2480 C   0  0  0  0  0  0  0  0  0  0  0  0 
    3.0497   -1.1793    0.1574 N   0  0  0  0  0  0  0  0  0  0  0  0 
    0.4552    0.9365    0.0395 H   0  0  0  0  0  0  0  0  0  0  0  0 
    0.4885   -0.6553    0.8339 H   0  0  0  0  0  0  0  0  0  0  0  0 
    0.6088   -0.5521   -0.9195 H   0  0  0  0  0  0  0  0  0  0  0  0 
    6.0890   -2.4985    0.5809 H   0  0  0  0  0  0  0  0  0  0  0  0 
    5.0133   -3.0068   -0.7345 H   0  0  0  0  0  0  0  0  0  0  0  0 
    4.5016   -3.2269    0.9369 H   0  0  0  0  0  0  0  0  0  0  0  0 
    5.0422    2.1396    0.3221 H   0  0  0  0  0  0  0  0  0  0  0  0 
    2.5444    2.1585    0.1491 H   0  0  0  0  0  0  0  0  0  0  0  0 
    6.2277   -0.0643    0.3866 H   0  0  0  0  0  0  0  0  0  0  0  0 
  1  9  1  0  0  0  0 
  1  6  1  0  0  0  0 
  1 10  1  0  0  0  0 
  2 12  1  0  0  0  0 
  2 14  1  0  0  0  0 
  3  5  1  0  0  0  0 
  3 15  1  0  0  0  0 
  4  3  2  0  0  0  0 
  5 17  1  0  0  0  0 
  6  8  2  0  0  0  0 
  6  4  1  0  0  0  0 
  7  2  1  0  0  0  0 
  7  5  2  0  0  0  0 
  8  7  1  0  0  0  0 
 11  1  1  0  0  0  0 
 13  2  1  0  0  0  0 
 16  4  1  0  0  0  0 
M  END 
>  <HBA> 
1 
 
>  <HBD> 
0 
 
>  <TPSA> 
12.89 
 
>  <cid> 
7937 
 
>  <dipole> 
1.42 
 
>  <excitation_energy_1> 
4.825 
 
>  <excitation_energy_2> 
5.234 
 
>  <excitation_energy_3> 
5.243 
 
>  <excitation_energy_4> 
6.042 
 
>  <homo_energy> 
-6.563 
 
>  <homo_lumo_gap> 
6.101 
 
>  <logP> 
1.698 
 
>  <lumo_energy> 
-0.463 
 
>  <melting_point> 
27.5 
 
>  <molecular_refractivity> 
34.17 
 
>  <oscillator_strength_1> 
0.0042 
 
>  <oscillator_strength_2> 
0.0745 
 
>  <oscillator_strength_3> 
0.0044 
 
>  <oscillator_strength_4> 
0.0547 
 
>  <open_babel_can_smiles> 
Cc1cccc(n1)C 
 
>  <mulliken_charges> 
17 
1   -0.503205 
2   -0.504992 
3   -0.096965 
4   -0.176594 
5   -0.17594 
6   0.302508 
7   0.302826 
8   -0.513277 
9   0.1458 
10   0.170361 
11   0.169843 
12   0.146756 
13   0.168715 
14   0.171358 
15   0.136952 
16   0.128003 
17   0.127852 
 
>  <lowdin_charges> 
17 
1   -0.445702 
2   -0.444502 
3   -0.127261 
4   -0.194071 
5   -0.190386 
6   0.060051 
7   0.058769 
8   -0.171597 
9   0.151763 
10   0.168993 
11   0.167795 
12   0.151724 
13   0.166161 
14   0.170032 
15   0.161009 
16   0.159737 
17   0.157486 
 
$$$$ 
 
