PCCDB-ID:  13025 
public computational chemistry database (PCCDB) project, http://pccdb.org 
 
 20 21  0  0  0  0  0  0  0  0999 V2000 
    0.9247    0.1074    0.0257 C   0  0  0  0  0  0  0  0  0  0  0  0 
    5.3396    3.1277    0.0390 C   0  0  0  0  0  0  0  0  0  0  0  0 
    4.0043    3.5423    0.0365 C   0  0  0  0  0  0  0  0  0  0  0  0 
    5.6625    1.7639    0.0379 C   0  0  0  0  0  0  0  0  0  0  0  0 
    2.9656    2.6059    0.0329 C   0  0  0  0  0  0  0  0  0  0  0  0 
    3.2071   -1.0460    0.0306 C   0  0  0  0  0  0  0  0  0  0  0  0 
    4.6724   -0.6811    0.0331 C   0  0  0  0  0  0  0  0  0  0  0  0 
    2.4223    0.0523    0.0298 C   0  0  0  0  0  0  0  0  0  0  0  0 
    4.6343    0.8308    0.0350 C   0  0  0  0  0  0  0  0  0  0  0  0 
    3.2865    1.2473    0.0325 C   0  0  0  0  0  0  0  0  0  0  0  0 
    0.4880   -0.8960    0.0304 H   0  0  0  0  0  0  0  0  0  0  0  0 
    0.5489    0.6374   -0.8596 H   0  0  0  0  0  0  0  0  0  0  0  0 
    0.5443    0.6476    0.9028 H   0  0  0  0  0  0  0  0  0  0  0  0 
    6.1342    3.8692    0.0415 H   0  0  0  0  0  0  0  0  0  0  0  0 
    3.7713    4.6041    0.0381 H   0  0  0  0  0  0  0  0  0  0  0  0 
    6.7036    1.4484    0.0386 H   0  0  0  0  0  0  0  0  0  0  0  0 
    1.9297    2.9362    0.0290 H   0  0  0  0  0  0  0  0  0  0  0  0 
    2.8513   -2.0715    0.0282 H   0  0  0  0  0  0  0  0  0  0  0  0 
    5.1996   -1.0819   -0.8456 H   0  0  0  0  0  0  0  0  0  0  0  0 
    5.1981   -1.0847    0.9114 H   0  0  0  0  0  0  0  0  0  0  0  0 
  1  8  1  0  0  0  0 
  1 11  1  0  0  0  0 
  1 13  1  0  0  0  0 
  2 14  1  0  0  0  0 
  3 15  1  0  0  0  0 
  3  2  2  0  0  0  0 
  4 16  1  0  0  0  0 
  4  2  1  0  0  0  0 
  5  3  1  0  0  0  0 
  6  7  1  0  0  0  0 
  7  9  1  0  0  0  0 
  7 20  1  0  0  0  0 
  8  6  2  0  0  0  0 
  8 10  1  0  0  0  0 
  9  4  2  0  0  0  0 
 10  5  2  0  0  0  0 
 10  9  1  0  0  0  0 
 12  1  1  0  0  0  0 
 17  5  1  0  0  0  0 
 18  6  1  0  0  0  0 
 19  7  1  0  0  0  0 
M  END 
>  <HBA> 
0 
 
>  <HBD> 
0 
 
>  <TPSA> 
0.0 
 
>  <cid> 
13025 
 
>  <dipole> 
0.57 
 
>  <excitation_energy_1> 
4.748 
 
>  <excitation_energy_2> 
4.896 
 
>  <excitation_energy_3> 
5.439 
 
>  <excitation_energy_4> 
5.62 
 
>  <homo_energy> 
-5.671 
 
>  <homo_lumo_gap> 
5.306 
 
>  <logP> 
2.646 
 
>  <lumo_energy> 
-0.365 
 
>  <melting_point> 
46.11 
 
>  <molecular_refractivity> 
44.19 
 
>  <oscillator_strength_1> 
0.0092 
 
>  <oscillator_strength_2> 
0.2068 
 
>  <oscillator_strength_3> 
0.0021 
 
>  <oscillator_strength_4> 
0.1297 
 
>  <open_babel_can_smiles> 
CC1=CCc2c1cccc2 
 
>  <mulliken_charges> 
20 
1   -0.529681 
2   -0.136468 
3   -0.133556 
4   -0.190596 
5   -0.202541 
6   -0.209828 
7   -0.382009 
8   0.167957 
9   0.102113 
10   0.089802 
11   0.156168 
12   0.160409 
13   0.160253 
14   0.123773 
15   0.124088 
16   0.121809 
17   0.121952 
18   0.123167 
19   0.166631 
20   0.166558 
 
>  <lowdin_charges> 
20 
1   -0.442037 
2   -0.165244 
3   -0.157089 
4   -0.163582 
5   -0.171284 
6   -0.184888 
7   -0.274825 
8   -0.008322 
9   -0.004765 
10   -0.015048 
11   0.159274 
12   0.160766 
13   0.160729 
14   0.15638 
15   0.153725 
16   0.153441 
17   0.154175 
18   0.153839 
19   0.167409 
20   0.167348 
 
$$$$ 
 
