PCCDB-ID:  16269 
public computational chemistry database (PCCDB) project, http://pccdb.org 
 
 27 27  0  0  0  0  0  0  0  0999 V2000 
    6.0264   -5.9378   -1.0152 C   0  0  0  0  0  0  0  0  0  0  0  0 
    5.3407   -4.5922   -0.7501 C   0  0  0  0  0  0  0  0  0  0  0  0 
    5.8101   -3.8794    0.5298 C   0  0  0  0  0  0  0  0  0  0  0  0 
    6.2014   -3.7840    5.4988 C   0  0  0  0  0  0  0  0  0  0  0  0 
    7.5765   -3.4852    4.8423 C   0  0  0  0  0  0  0  0  0  0  0  0 
    5.4518   -4.6094    1.8333 C   0  0  0  0  0  0  0  0  0  0  0  0 
    5.4065   -4.5317    4.4161 C   0  0  0  0  0  0  0  0  0  0  0  0 
    7.3603   -3.6411    3.3083 C   0  0  0  0  0  0  0  0  0  0  0  0 
    5.8385   -3.8462    3.1060 C   0  0  0  0  0  0  0  0  0  0  0  0 
    5.6845   -6.3746   -1.9606 H   0  0  0  0  0  0  0  0  0  0  0  0 
    5.8186   -6.6661   -0.2234 H   0  0  0  0  0  0  0  0  0  0  0  0 
    7.1155   -5.8186   -1.0784 H   0  0  0  0  0  0  0  0  0  0  0  0 
    4.2520   -4.7391   -0.7013 H   0  0  0  0  0  0  0  0  0  0  0  0 
    5.5189   -3.9280   -1.6067 H   0  0  0  0  0  0  0  0  0  0  0  0 
    5.3659   -2.8738    0.5563 H   0  0  0  0  0  0  0  0  0  0  0  0 
    6.8982   -3.7298    0.4782 H   0  0  0  0  0  0  0  0  0  0  0  0 
    5.6892   -2.8447    5.7438 H   0  0  0  0  0  0  0  0  0  0  0  0 
    6.2920   -4.3495    6.4326 H   0  0  0  0  0  0  0  0  0  0  0  0 
    8.3397   -4.1874    5.1959 H   0  0  0  0  0  0  0  0  0  0  0  0 
    7.9326   -2.4833    5.1054 H   0  0  0  0  0  0  0  0  0  0  0  0 
    5.9381   -5.5953    1.8572 H   0  0  0  0  0  0  0  0  0  0  0  0 
    4.3683   -4.8019    1.8450 H   0  0  0  0  0  0  0  0  0  0  0  0 
    4.3224   -4.5015    4.5772 H   0  0  0  0  0  0  0  0  0  0  0  0 
    5.7025   -5.5910    4.3898 H   0  0  0  0  0  0  0  0  0  0  0  0 
    7.8953   -4.5262    2.9380 H   0  0  0  0  0  0  0  0  0  0  0  0 
    7.7437   -2.7848    2.7436 H   0  0  0  0  0  0  0  0  0  0  0  0 
    5.3575   -2.8551    3.0754 H   0  0  0  0  0  0  0  0  0  0  0  0 
  1  2  1  0  0  0  0 
  1 11  1  0  0  0  0 
  2 13  1  0  0  0  0 
  2  3  1  0  0  0  0 
  3 15  1  0  0  0  0 
  3  6  1  0  0  0  0 
  4 17  1  0  0  0  0 
  4 18  1  0  0  0  0 
  5 20  1  0  0  0  0 
  5 19  1  0  0  0  0 
  5  4  1  0  0  0  0 
  6 22  1  0  0  0  0 
  6 21  1  0  0  0  0 
  6  9  1  0  0  0  0 
  7 23  1  0  0  0  0 
  7  4  1  0  0  0  0 
  8  5  1  0  0  0  0 
  9  8  1  0  0  0  0 
  9  7  1  0  0  0  0 
 10  1  1  0  0  0  0 
 12  1  1  0  0  0  0 
 14  2  1  0  0  0  0 
 16  3  1  0  0  0  0 
 24  7  1  0  0  0  0 
 25  8  1  0  0  0  0 
 26  8  1  0  0  0  0 
 27  9  1  0  0  0  0 
M  END 
>  <HBA> 
0 
 
>  <HBD> 
0 
 
>  <TPSA> 
0.0 
 
>  <cid> 
16269 
 
>  <dipole> 
0.08 
 
>  <excitation_energy_1> 
7.614 
 
>  <excitation_energy_2> 
7.791 
 
>  <excitation_energy_3> 
7.868 
 
>  <excitation_energy_4> 
7.896 
 
>  <homo_energy> 
-8.03 
 
>  <homo_lumo_gap> 
10.321 
 
>  <logP> 
3.367 
 
>  <lumo_energy> 
2.291 
 
>  <melting_point> 
-5.98 
 
>  <molecular_refractivity> 
43.26 
 
>  <oscillator_strength_1> 
0.0038 
 
>  <oscillator_strength_2> 
0.0021 
 
>  <oscillator_strength_3> 
0.0087 
 
>  <oscillator_strength_4> 
0.0096 
 
>  <open_babel_can_smiles> 
CCCCC1CCCC1 
 
>  <mulliken_charges> 
27 
1   -0.442873 
2   -0.24792 
3   -0.254008 
4   -0.267408 
5   -0.27414 
6   -0.257144 
7   -0.269944 
8   -0.27324 
9   -0.074688 
10   0.14094 
11   0.146216 
12   0.139873 
13   0.128556 
14   0.129112 
15   0.125259 
16   0.131498 
17   0.132418 
18   0.131663 
19   0.135255 
20   0.134105 
21   0.126784 
22   0.123475 
23   0.129656 
24   0.126251 
25   0.129958 
26   0.134866 
27   0.11548 
 
>  <lowdin_charges> 
27 
1   -0.446135 
2   -0.271241 
3   -0.274333 
4   -0.282515 
5   -0.287461 
6   -0.27313 
7   -0.278661 
8   -0.289904 
9   -0.127863 
10   0.149195 
11   0.147815 
12   0.143483 
13   0.135813 
14   0.141478 
15   0.138239 
16   0.13704 
17   0.140324 
18   0.143695 
19   0.144467 
20   0.143255 
21   0.136749 
22   0.13617 
23   0.140611 
24   0.135456 
25   0.14018 
26   0.145378 
27   0.131894 
 
$$$$ 
 
