PCCDB-ID:  20039 
public computational chemistry database (PCCDB) project, http://pccdb.org 
 
 30 32  0  0  1  0  0  0  0  0999 V2000 
   -0.7437   -0.8445   -0.5004 C   0  0  0  0  0  0  0  0  0  0  0  0 
    0.6032   -1.0643    0.2051 C   0  0  0  0  0  0  0  0  0  0  0  0 
   -2.0491    0.2260    1.4237 C   0  0  0  0  0  0  0  0  0  0  0  0 
    0.5759    1.0245    4.7594 C   0  0  0  0  0  0  0  0  0  0  0  0 
    3.3767    0.6194    1.4454 C   0  0  0  0  0  0  0  0  0  0  0  0 
   -1.2293    0.4637    0.1433 C   0  0  1  0  0  0  0  0  0  0  0  0 
    1.1150    0.3794    0.3527 C   0  0  2  0  0  0  0  0  0  0  0  0 
    2.9109    0.8780    3.4919 C   0  0  0  0  0  0  0  0  0  0  0  0 
    2.8736    1.0612    4.8908 C   0  0  1  0  0  0  0  0  0  0  0  0 
    1.6755    0.7811    2.8400 C   0  0  0  0  0  0  0  0  0  0  0  0 
    4.0001    1.1898    5.6278 N   0  0  0  0  0  0  0  0  0  0  0  0 
    1.6807    1.1225    5.5103 N   0  0  0  0  0  0  0  0  0  0  0  0 
    0.4722    0.8574    3.4357 N   0  0  0  0  0  0  0  0  0  0  0  0 
    3.9657    0.7738    2.6048 N   0  0  0  0  0  0  0  0  0  0  0  0 
    1.9943    0.6067    1.5034 N   0  0  0  0  0  0  0  0  0  0  0  0 
   -2.1453    1.3747    2.2241 O   0  0  0  0  0  0  0  0  0  0  0  0 
   -0.0193    1.2055    0.4464 O   0  0  0  0  0  0  0  0  0  0  0  0 
   -1.4440   -1.6719   -0.3450 H   0  0  0  0  0  0  0  0  0  0  0  0 
   -0.6018   -0.7218   -1.5801 H   0  0  0  0  0  0  0  0  0  0  0  0 
    1.3014   -1.6952   -0.3523 H   0  0  0  0  0  0  0  0  0  0  0  0 
    0.4615   -1.5043    1.1971 H   0  0  0  0  0  0  0  0  0  0  0  0 
   -1.6143   -0.6170    1.9864 H   0  0  0  0  0  0  0  0  0  0  0  0 
   -3.0656   -0.0668    1.1296 H   0  0  0  0  0  0  0  0  0  0  0  0 
   -0.3661    1.0923    5.2991 H   0  0  0  0  0  0  0  0  0  0  0  0 
    3.8895    0.5122    0.4976 H   0  0  0  0  0  0  0  0  0  0  0  0 
   -1.8011    1.0963   -0.5430 H   0  0  0  0  0  0  0  0  0  0  0  0 
    1.7155    0.6683   -0.5231 H   0  0  0  0  0  0  0  0  0  0  0  0 
    4.9016    1.0551    5.1969 H   0  0  0  0  0  0  0  0  0  0  0  0 
    3.9219    1.2294    6.6327 H   0  0  0  0  0  0  0  0  0  0  0  0 
   -1.2539    1.4676    2.6218 H   0  0  0  0  0  0  0  0  0  0  0  0 
  1 18  1  0  0  0  0 
  1  6  1  0  0  0  0 
  1  2  1  0  0  0  0 
  2  7  1  0  0  0  0 
  2 21  1  0  0  0  0 
  3 22  1  0  0  0  0 
  3 16  1  0  0  0  0 
  4 24  1  0  0  0  0 
  4 12  2  0  0  0  0 
  5 15  1  0  0  0  0 
  5 14  2  0  0  0  0 
  6 26  1  6  0  0  0 
  6 17  1  0  0  0  0 
  6  3  1  0  0  0  0 
  7 27  1  6  0  0  0 
  7 17  1  0  0  0  0 
  7 15  1  0  0  0  0 
  8  9  1  0  0  0  0 
  9 12  1  0  0  0  0 
  9 11  1  6  0  0  0 
 10 13  1  0  0  0  0 
 10  8  2  0  0  0  0 
 11 29  1  0  0  0  0 
 13  4  1  0  0  0  0 
 14  8  1  0  0  0  0 
 15 10  1  0  0  0  0 
 16 30  1  0  0  0  0 
 19  1  1  0  0  0  0 
 20  2  1  0  0  0  0 
 23  3  1  0  0  0  0 
 25  5  1  0  0  0  0 
 28 11  1  0  0  0  0 
M  RAD  2   9   2  13   2 
M  END 
>  <HBA> 
7 
 
>  <HBD> 
2 
 
>  <TPSA> 
99.08 
 
>  <cid> 
20039 
 
>  <dipole> 
4.71 
 
>  <excitation_energy_1> 
4.925 
 
>  <excitation_energy_2> 
4.998 
 
>  <excitation_energy_3> 
5.19 
 
>  <excitation_energy_4> 
5.229 
 
>  <homo_energy> 
-6.079 
 
>  <homo_lumo_gap> 
5.429 
 
>  <logP> 
0.66 
 
>  <lumo_energy> 
-0.65 
 
>  <melting_point> 
177.08 
 
>  <molecular_refractivity> 
60.35 
 
>  <oscillator_strength_1> 
0.1399 
 
>  <oscillator_strength_2> 
0.0674 
 
>  <oscillator_strength_3> 
0.0406 
 
>  <oscillator_strength_4> 
0.017 
 
>  <open_babel_can_smiles> 
N[C]1N=C[N]c2c1ncn2[C@H]1CC[C@H](O1)CO 
 
>  <mulliken_charges> 
30 
1   -0.316387 
2   -0.318335 
3   -0.037978 
4   0.175548 
5   0.219933 
6   0.136244 
7   0.299277 
8   0.183047 
9   0.505848 
10   0.553035 
11   -0.781958 
12   -0.510311 
13   -0.546533 
14   -0.529389 
15   -0.512003 
16   -0.645996 
17   -0.501586 
18   0.157616 
19   0.151134 
20   0.153335 
21   0.173126 
22   0.114575 
23   0.130948 
24   0.155963 
25   0.165165 
26   0.144446 
27   0.137865 
28   0.359143 
29   0.348668 
30   0.435561 
 
>  <lowdin_charges> 
30 
1   -0.29105 
2   -0.30115 
3   -0.152135 
4   -0.03022 
5   -0.063079 
6   -0.013519 
7   0.06643 
8   -0.059248 
9   0.124155 
10   0.069066 
11   -0.432501 
12   -0.218212 
13   -0.207625 
14   -0.190877 
15   -0.030829 
16   -0.474192 
17   -0.259675 
18   0.160477 
19   0.15043 
20   0.15963 
21   0.161897 
22   0.124878 
23   0.141732 
24   0.163261 
25   0.170914 
26   0.150387 
27   0.141918 
28   0.302133 
29   0.296185 
30   0.340817 
 
$$$$ 
 
