PCCDB-ID:  15196 
public computational chemistry database (PCCDB) project, http://pccdb.org 
 
 22 21  0  0  0  0  0  0  0  0999 V2000 
    0.3007   -1.0226    0.3587 C   0  0  0  0  0  0  0  0  0  0  0  0 
    8.2624    0.8346    3.9728 C   0  0  0  0  0  0  0  0  0  0  0  0 
    1.7758   -0.9282    0.1116 C   0  0  0  0  0  0  0  0  0  0  0  0 
    2.7315   -1.1599    1.0274 C   0  0  0  0  0  0  0  0  0  0  0  0 
    4.1575   -1.0575    0.7619 C   0  0  0  0  0  0  0  0  0  0  0  0 
    5.1222   -1.2939    1.6670 C   0  0  0  0  0  0  0  0  0  0  0  0 
    6.5836   -1.2080    1.3614 C   0  0  0  0  0  0  0  0  0  0  0  0 
    7.5841   -0.3685    3.3583 C   0  0  0  0  0  0  0  0  0  0  0  0 
    7.3800   -1.4223    3.9225 O   0  0  0  0  0  0  0  0  0  0  0  0 
    7.2312   -0.1155    2.0776 O   0  0  0  0  0  0  0  0  0  0  0  0 
   -0.1690   -1.7548   -0.3125 H   0  0  0  0  0  0  0  0  0  0  0  0 
   -0.1968   -0.0618    0.1671 H   0  0  0  0  0  0  0  0  0  0  0  0 
    0.0822   -1.3182    1.3902 H   0  0  0  0  0  0  0  0  0  0  0  0 
    8.5266    0.6135    5.0074 H   0  0  0  0  0  0  0  0  0  0  0  0 
    7.5955    1.7021    3.9345 H   0  0  0  0  0  0  0  0  0  0  0  0 
    9.1629    1.0906    3.4047 H   0  0  0  0  0  0  0  0  0  0  0  0 
    2.0792   -0.6472   -0.8986 H   0  0  0  0  0  0  0  0  0  0  0  0 
    2.4417   -1.4434    2.0402 H   0  0  0  0  0  0  0  0  0  0  0  0 
    4.4419   -0.7739   -0.2532 H   0  0  0  0  0  0  0  0  0  0  0  0 
    4.8628   -1.5774    2.6855 H   0  0  0  0  0  0  0  0  0  0  0  0 
    6.7588   -0.9815    0.3072 H   0  0  0  0  0  0  0  0  0  0  0  0 
    7.0990   -2.1353    1.6299 H   0  0  0  0  0  0  0  0  0  0  0  0 
  1 13  1  0  0  0  0 
  2 14  1  0  0  0  0 
  3  1  1  0  0  0  0 
  3  4  2  0  0  0  0 
  4 18  1  0  0  0  0 
  5  4  1  0  0  0  0 
  5  6  2  0  0  0  0 
  6 20  1  0  0  0  0 
  7 22  1  0  0  0  0 
  7  6  1  0  0  0  0 
  7 10  1  0  0  0  0 
  8  9  2  0  0  0  0 
  8  2  1  0  0  0  0 
 10  8  1  0  0  0  0 
 11  1  1  0  0  0  0 
 12  1  1  0  0  0  0 
 15  2  1  0  0  0  0 
 16  2  1  0  0  0  0 
 17  3  1  0  0  0  0 
 19  5  1  0  0  0  0 
 21  7  1  0  0  0  0 
M  END 
>  <HBA> 
2 
 
>  <HBD> 
0 
 
>  <TPSA> 
26.3 
 
>  <cid> 
15196 
 
>  <dipole> 
2.13 
 
>  <excitation_energy_1> 
5.363 
 
>  <excitation_energy_2> 
5.6 
 
>  <excitation_energy_3> 
5.785 
 
>  <excitation_energy_4> 
5.835 
 
>  <homo_energy> 
-6.022 
 
>  <homo_lumo_gap> 
5.333 
 
>  <logP> 
1.682 
 
>  <lumo_energy> 
-0.688 
 
>  <melting_point> 
4.13 
 
>  <molecular_refractivity> 
40.91 
 
>  <oscillator_strength_1> 
0.9716 
 
>  <oscillator_strength_2> 
0.0201 
 
>  <oscillator_strength_3> 
0.0001 
 
>  <oscillator_strength_4> 
0.0028 
 
>  <open_babel_can_smiles> 
C/C=C/C=C/COC(=O)C 
 
>  <mulliken_charges> 
22 
1   -0.490954 
2   -0.522172 
3   -0.103698 
4   -0.100037 
5   -0.100277 
6   -0.133349 
7   -0.100368 
8   0.600693 
9   -0.472933 
10   -0.446905 
11   0.159762 
12   0.159964 
13   0.156765 
14   0.181163 
15   0.182154 
16   0.18072 
17   0.125921 
18   0.122789 
19   0.122078 
20   0.151691 
21   0.153884 
22   0.173108 
 
>  <lowdin_charges> 
22 
1   -0.438791 
2   -0.464358 
3   -0.147474 
4   -0.165163 
5   -0.143516 
6   -0.180149 
7   -0.126952 
8   0.201281 
9   -0.271542 
10   -0.200212 
11   0.160931 
12   0.159765 
13   0.156004 
14   0.173885 
15   0.178286 
16   0.177599 
17   0.148898 
18   0.151756 
19   0.14979 
20   0.162869 
21   0.153933 
22   0.163161 
 
$$$$ 
 
