PCCDB-ID:  73107 
public computational chemistry database (PCCDB) project, http://pccdb.org 
 
 25 24  0  0  0  0  0  0  0  0999 V2000 
    7.1661   -2.5056   -1.3952 C   0  0  0  0  0  0  0  0  0  0  0  0 
    5.9777    5.1112   -0.4613 C   0  0  0  0  0  0  0  0  0  0  0  0 
    6.2980   -2.1860   -0.1924 C   0  0  0  0  0  0  0  0  0  0  0  0 
    5.9030    4.3618    0.8612 C   0  0  0  0  0  0  0  0  0  0  0  0 
    4.4495    1.0058    0.2307 C   0  0  0  0  0  0  0  0  0  0  0  0 
    4.9329   -0.3883    0.5786 C   0  0  0  0  0  0  0  0  0  0  0  0 
    5.5446    2.0719    0.2737 C   0  0  0  0  0  0  0  0  0  0  0  0 
    4.6575   -1.0859    1.6062 N   0  0  0  0  0  0  0  0  0  0  0  0 
    6.7531    1.9818   -0.1065 N   0  0  0  0  0  0  0  0  0  0  0  0 
    5.7483   -0.8651   -0.3938 O   0  0  0  0  0  0  0  0  0  0  0  0 
    5.0262    3.2157    0.7805 O   0  0  0  0  0  0  0  0  0  0  0  0 
    7.5929   -3.5087   -1.2869 H   0  0  0  0  0  0  0  0  0  0  0  0 
    7.9912   -1.7915   -1.4885 H   0  0  0  0  0  0  0  0  0  0  0  0 
    6.5808   -2.4787   -2.3200 H   0  0  0  0  0  0  0  0  0  0  0  0 
    6.5807    6.0187   -0.3387 H   0  0  0  0  0  0  0  0  0  0  0  0 
    4.9784    5.4071   -0.7982 H   0  0  0  0  0  0  0  0  0  0  0  0 
    6.4444    4.4888   -1.2289 H   0  0  0  0  0  0  0  0  0  0  0  0 
    6.8652   -2.1941    0.7440 H   0  0  0  0  0  0  0  0  0  0  0  0 
    5.4709   -2.8940   -0.0793 H   0  0  0  0  0  0  0  0  0  0  0  0 
    5.4571    4.9819    1.6439 H   0  0  0  0  0  0  0  0  0  0  0  0 
    6.8929    4.0266    1.1806 H   0  0  0  0  0  0  0  0  0  0  0  0 
    3.6501    1.2993    0.9143 H   0  0  0  0  0  0  0  0  0  0  0  0 
    4.0297    0.9904   -0.7834 H   0  0  0  0  0  0  0  0  0  0  0  0 
    4.0363   -0.5705    2.2305 H   0  0  0  0  0  0  0  0  0  0  0  0 
    6.9393    1.0387   -0.4486 H   0  0  0  0  0  0  0  0  0  0  0  0 
  1 12  1  0  0  0  0 
  1  3  1  0  0  0  0 
  2 15  1  0  0  0  0 
  2  4  1  0  0  0  0 
  3 19  1  0  0  0  0 
  3 18  1  0  0  0  0 
  4 21  1  0  0  0  0 
  4 20  1  0  0  0  0 
  5  7  1  0  0  0  0 
  5  6  1  0  0  0  0 
  5 22  1  0  0  0  0 
  6  8  2  0  0  0  0 
  7 11  1  0  0  0  0 
  8 24  1  0  0  0  0 
  9  7  2  0  0  0  0 
 10  3  1  0  0  0  0 
 10  6  1  0  0  0  0 
 11  4  1  0  0  0  0 
 13  1  1  0  0  0  0 
 14  1  1  0  0  0  0 
 16  2  1  0  0  0  0 
 17  2  1  0  0  0  0 
 23  5  1  0  0  0  0 
 25  9  1  0  0  0  0 
M  END 
>  <HBA> 
4 
 
>  <HBD> 
2 
 
>  <TPSA> 
66.16 
 
>  <cid> 
73107 
 
>  <dipole> 
1.0 
 
>  <excitation_energy_1> 
6.137 
 
>  <excitation_energy_2> 
6.273 
 
>  <excitation_energy_3> 
6.499 
 
>  <excitation_energy_4> 
6.621 
 
>  <homo_energy> 
-6.988 
 
>  <homo_lumo_gap> 
7.437 
 
>  <logP> 
1.603 
 
>  <lumo_energy> 
0.449 
 
>  <melting_point> 
17.47 
 
>  <molecular_refractivity> 
45.11 
 
>  <oscillator_strength_1> 
0.001 
 
>  <oscillator_strength_2> 
0.0035 
 
>  <oscillator_strength_3> 
0.0088 
 
>  <oscillator_strength_4> 
0.0023 
 
>  <open_babel_can_smiles> 
CCOC(=N)CC(=N)OCC 
 
>  <mulliken_charges> 
25 
1   -0.462812 
2   -0.461748 
3   -0.021566 
4   -0.029759 
5   -0.418603 
6   0.511433 
7   0.522011 
8   -0.623475 
9   -0.632397 
10   -0.472167 
11   -0.473688 
12   0.153601 
13   0.16035 
14   0.160491 
15   0.145037 
16   0.149975 
17   0.179791 
18   0.162583 
19   0.161681 
20   0.145113 
21   0.173278 
22   0.174499 
23   0.194634 
24   0.292299 
25   0.30944 
 
>  <lowdin_charges> 
25 
1   -0.44999 
2   -0.456879 
3   -0.120909 
4   -0.127192 
5   -0.31457 
6   0.131819 
7   0.132097 
8   -0.416628 
9   -0.426991 
10   -0.205637 
11   -0.202929 
12   0.159314 
13   0.157813 
14   0.158184 
15   0.15638 
16   0.151872 
17   0.168254 
18   0.153804 
19   0.154602 
20   0.149528 
21   0.159997 
22   0.174456 
23   0.183684 
24   0.264445 
25   0.265476 
 
$$$$ 
 
