PCCDB-ID:  8015 
public computational chemistry database (PCCDB) project, http://pccdb.org 
 
  9  8  0  0  0  0  0  0  0  0999 V2000 
    1.9230   -0.7480   -1.1303 C   0  0  0  0  0  0  0  0  0  0  0  0 
    4.5766   -0.6243    0.9496 C   0  0  0  0  0  0  0  0  0  0  0  0 
    3.1335   -0.8925    0.8498 C   0  0  0  0  0  0  0  0  0  0  0  0 
    5.7179   -0.4339    1.0296 N   0  0  0  0  0  0  0  0  0  0  0  0 
    2.5324   -0.1032   -0.2248 N   0  0  0  0  0  0  0  0  0  0  0  0 
    1.4487   -0.1938   -1.9414 H   0  0  0  0  0  0  0  0  0  0  0  0 
    1.8355   -1.8446   -1.1573 H   0  0  0  0  0  0  0  0  0  0  0  0 
    2.6666   -0.5921    1.7966 H   0  0  0  0  0  0  0  0  0  0  0  0 
    2.9869   -1.9801    0.7354 H   0  0  0  0  0  0  0  0  0  0  0  0 
  1  5  2  0  0  0  0 
  2  4  3  0  0  0  0 
  3  2  1  0  0  0  0 
  3  8  1  0  0  0  0 
  5  3  1  0  0  0  0 
  6  1  1  0  0  0  0 
  7  1  1  0  0  0  0 
  9  3  1  0  0  0  0 
M  END 
>  <HBA> 
2 
 
>  <HBD> 
0 
 
>  <TPSA> 
36.15 
 
>  <cid> 
8015 
 
>  <dipole> 
4.49 
 
>  <excitation_energy_1> 
5.045 
 
>  <excitation_energy_2> 
6.836 
 
>  <excitation_energy_3> 
6.87 
 
>  <excitation_energy_4> 
7.162 
 
>  <homo_energy> 
-7.766 
 
>  <homo_lumo_gap> 
6.784 
 
>  <logP> 
0.211 
 
>  <lumo_energy> 
-0.982 
 
>  <melting_point> 
27.19 
 
>  <molecular_refractivity> 
19.97 
 
>  <oscillator_strength_1> 
0.0013 
 
>  <oscillator_strength_2> 
0.01 
 
>  <oscillator_strength_3> 
0.0083 
 
>  <oscillator_strength_4> 
0.0334 
 
>  <open_babel_can_smiles> 
C=NCC#N 
 
>  <mulliken_charges> 
9 
1   -0.11503 
2   0.374413 
3   -0.228006 
4   -0.455995 
5   -0.271358 
6   0.170902 
7   0.138321 
8   0.21218 
9   0.174571 
 
>  <lowdin_charges> 
9 
1   -0.19931 
2   -0.015415 
3   -0.195391 
4   -0.108245 
5   -0.133925 
6   0.168633 
7   0.133735 
8   0.190013 
9   0.159905 
 
$$$$ 
 
