PCCDB-ID:  15853 
public computational chemistry database (PCCDB) project, http://pccdb.org 
 
 30 29  0  0  0  0  0  0  0  0999 V2000 
    2.2189   -1.0722   -0.2913 C   0  0  0  0  0  0  0  0  0  0  0  0 
    1.7875    0.7122    1.4426 C   0  0  0  0  0  0  0  0  0  0  0  0 
    0.8579   -1.6047    1.7444 C   0  0  0  0  0  0  0  0  0  0  0  0 
    7.0191   -0.7242    2.2759 C   0  0  0  0  0  0  0  0  0  0  0  0 
    5.6250   -1.3060    2.5362 C   0  0  0  0  0  0  0  0  0  0  0  0 
    8.1089   -1.3633    3.1388 C   0  0  0  0  0  0  0  0  0  0  0  0 
    4.5342   -0.6638    1.6735 C   0  0  0  0  0  0  0  0  0  0  0  0 
    2.0520   -0.7934    1.2129 C   0  0  0  0  0  0  0  0  0  0  0  0 
    9.4083   -0.7275    2.8857 N   0  0  0  0  0  0  0  0  0  0  0  0 
    3.2418   -1.2974    1.9368 N   0  0  0  0  0  0  0  0  0  0  0  0 
    1.2922   -0.8390   -0.8277 H   0  0  0  0  0  0  0  0  0  0  0  0 
    2.4608   -2.1274   -0.4564 H   0  0  0  0  0  0  0  0  0  0  0  0 
    3.0150   -0.4644   -0.7353 H   0  0  0  0  0  0  0  0  0  0  0  0 
    0.8736    1.0345    0.9289 H   0  0  0  0  0  0  0  0  0  0  0  0 
    2.6103    1.3310    1.0682 H   0  0  0  0  0  0  0  0  0  0  0  0 
    1.6623    0.9268    2.5117 H   0  0  0  0  0  0  0  0  0  0  0  0 
   -0.0696   -1.3185    1.2360 H   0  0  0  0  0  0  0  0  0  0  0  0 
    0.7138   -1.4324    2.8194 H   0  0  0  0  0  0  0  0  0  0  0  0 
    1.0264   -2.6759    1.5931 H   0  0  0  0  0  0  0  0  0  0  0  0 
    7.0242    0.3580    2.4584 H   0  0  0  0  0  0  0  0  0  0  0  0 
    7.2773   -0.8596    1.2140 H   0  0  0  0  0  0  0  0  0  0  0  0 
    5.3699   -1.1713    3.5990 H   0  0  0  0  0  0  0  0  0  0  0  0 
    5.6210   -2.3885    2.3535 H   0  0  0  0  0  0  0  0  0  0  0  0 
    8.1048   -2.4573    2.9740 H   0  0  0  0  0  0  0  0  0  0  0  0 
    7.8667   -1.2091    4.1986 H   0  0  0  0  0  0  0  0  0  0  0  0 
    4.7861   -0.8131    0.6165 H   0  0  0  0  0  0  0  0  0  0  0  0 
    4.5402    0.4291    1.8442 H   0  0  0  0  0  0  0  0  0  0  0  0 
    9.7014   -0.9290    1.9298 H   0  0  0  0  0  0  0  0  0  0  0  0 
   10.1177   -1.1451    3.4865 H   0  0  0  0  0  0  0  0  0  0  0  0 
    3.0514   -1.2295    2.9370 H   0  0  0  0  0  0  0  0  0  0  0  0 
  1  8  1  0  0  0  0 
  2 16  1  0  0  0  0 
  3 18  1  0  0  0  0 
  4 20  1  0  0  0  0 
  4  5  1  0  0  0  0 
  4  6  1  0  0  0  0 
  5 22  1  0  0  0  0 
  6 25  1  0  0  0  0 
  7 27  1  0  0  0  0 
  7 10  1  0  0  0  0 
  7  5  1  0  0  0  0 
  8  2  1  0  0  0  0 
  8  3  1  0  0  0  0 
  8 10  1  0  0  0  0 
  9  6  1  0  0  0  0 
  9 29  1  0  0  0  0 
 10 30  1  0  0  0  0 
 11  1  1  0  0  0  0 
 12  1  1  0  0  0  0 
 13  1  1  0  0  0  0 
 14  2  1  0  0  0  0 
 15  2  1  0  0  0  0 
 17  3  1  0  0  0  0 
 19  3  1  0  0  0  0 
 21  4  1  0  0  0  0 
 23  5  1  0  0  0  0 
 24  6  1  0  0  0  0 
 26  7  1  0  0  0  0 
 28  9  1  0  0  0  0 
M  END 
>  <HBA> 
2 
 
>  <HBD> 
2 
 
>  <TPSA> 
38.05 
 
>  <cid> 
15853 
 
>  <dipole> 
0.6 
 
>  <excitation_energy_1> 
5.277 
 
>  <excitation_energy_2> 
5.583 
 
>  <excitation_energy_3> 
5.637 
 
>  <excitation_energy_4> 
5.688 
 
>  <homo_energy> 
-5.723 
 
>  <homo_lumo_gap> 
7.81 
 
>  <logP> 
2.205 
 
>  <lumo_energy> 
2.087 
 
>  <melting_point> 
64.56 
 
>  <molecular_refractivity> 
46.12 
 
>  <oscillator_strength_1> 
0.0086 
 
>  <oscillator_strength_2> 
0.0127 
 
>  <oscillator_strength_3> 
0.0018 
 
>  <oscillator_strength_4> 
0.0016 
 
>  <open_babel_can_smiles> 
NCCCCNC(C)(C)C 
 
>  <mulliken_charges> 
30 
1   -0.443081 
2   -0.446096 
3   -0.445894 
4   -0.250514 
5   -0.268938 
6   -0.132601 
7   -0.111592 
8   0.220341 
9   -0.716083 
10   -0.566374 
11   0.137059 
12   0.151579 
13   0.140257 
14   0.137872 
15   0.144386 
16   0.130467 
17   0.138092 
18   0.129673 
19   0.153805 
20   0.146919 
21   0.122566 
22   0.1223 
23   0.143246 
24   0.110925 
25   0.136561 
26   0.137463 
27   0.111774 
28   0.29019 
29   0.294008 
30   0.281692 
 
>  <lowdin_charges> 
30 
1   -0.4471 
2   -0.459044 
3   -0.440911 
4   -0.275107 
5   -0.274178 
6   -0.199055 
7   -0.199064 
8   0.070719 
9   -0.560588 
10   -0.362436 
11   0.149306 
12   0.153645 
13   0.148184 
14   0.149429 
15   0.149845 
16   0.142132 
17   0.148531 
18   0.140924 
19   0.153761 
20   0.146203 
21   0.133802 
22   0.133162 
23   0.144088 
24   0.113202 
25   0.138225 
26   0.139114 
27   0.114372 
28   0.249406 
29   0.254931 
30   0.244503 
 
$$$$ 
 
