PCCDB-ID:  7797 
public computational chemistry database (PCCDB) project, http://pccdb.org 
 
 29 28  0  0  0  0  0  0  0  0999 V2000 
    2.5412    1.0148   -1.2332 C   0  0  0  0  0  0  0  0  0  0  0  0 
    7.2490   -3.1545    7.2674 C   0  0  0  0  0  0  0  0  0  0  0  0 
    3.8573    0.9229   -0.4541 C   0  0  0  0  0  0  0  0  0  0  0  0 
    7.7998   -3.6543    5.9401 C   0  0  0  0  0  0  0  0  0  0  0  0 
    3.8678   -0.2061    0.5844 C   0  0  0  0  0  0  0  0  0  0  0  0 
    5.1823   -0.3082    1.3682 C   0  0  0  0  0  0  0  0  0  0  0  0 
    5.1757   -1.4304    2.4133 C   0  0  0  0  0  0  0  0  0  0  0  0 
    6.4917   -1.5294    3.1867 C   0  0  0  0  0  0  0  0  0  0  0  0 
    6.4867   -2.6261    4.2351 C   0  0  0  0  0  0  0  0  0  0  0  0 
    5.5668   -3.3856    4.4539 O   0  0  0  0  0  0  0  0  0  0  0  0 
    7.6647   -2.6535    4.9033 O   0  0  0  0  0  0  0  0  0  0  0  0 
    2.5659    1.8296   -1.9659 H   0  0  0  0  0  0  0  0  0  0  0  0 
    1.6943    1.1971   -0.5603 H   0  0  0  0  0  0  0  0  0  0  0  0 
    2.3366    0.0841   -1.7766 H   0  0  0  0  0  0  0  0  0  0  0  0 
    7.4283   -3.9004    8.0505 H   0  0  0  0  0  0  0  0  0  0  0  0 
    6.1707   -2.9851    7.1966 H   0  0  0  0  0  0  0  0  0  0  0  0 
    7.7363   -2.2200    7.5642 H   0  0  0  0  0  0  0  0  0  0  0  0 
    4.0518    1.8803    0.0501 H   0  0  0  0  0  0  0  0  0  0  0  0 
    4.6896    0.7765   -1.1575 H   0  0  0  0  0  0  0  0  0  0  0  0 
    7.2907   -4.5665    5.6194 H   0  0  0  0  0  0  0  0  0  0  0  0 
    8.8752   -3.8412    5.9984 H   0  0  0  0  0  0  0  0  0  0  0  0 
    3.6702   -1.1641    0.0809 H   0  0  0  0  0  0  0  0  0  0  0  0 
    3.0359   -0.0583    1.2890 H   0  0  0  0  0  0  0  0  0  0  0  0 
    5.3851    0.6532    1.8637 H   0  0  0  0  0  0  0  0  0  0  0  0 
    6.0132   -0.4661    0.6641 H   0  0  0  0  0  0  0  0  0  0  0  0 
    4.9720   -2.3930    1.9278 H   0  0  0  0  0  0  0  0  0  0  0  0 
    4.3529   -1.2755    3.1225 H   0  0  0  0  0  0  0  0  0  0  0  0 
    6.7297   -0.5835    3.6920 H   0  0  0  0  0  0  0  0  0  0  0  0 
    7.3366   -1.7173    2.5101 H   0  0  0  0  0  0  0  0  0  0  0  0 
  1 13  1  0  0  0  0 
  1  3  1  0  0  0  0 
  2 17  1  0  0  0  0 
  2 15  1  0  0  0  0 
  3 18  1  0  0  0  0 
  3  5  1  0  0  0  0 
  4 21  1  0  0  0  0 
  4  2  1  0  0  0  0 
  5 23  1  0  0  0  0 
  5  6  1  0  0  0  0 
  6 24  1  0  0  0  0 
  6  7  1  0  0  0  0 
  7 27  1  0  0  0  0 
  7  8  1  0  0  0  0 
  8 28  1  0  0  0  0 
  8  9  1  0  0  0  0 
  9 10  2  0  0  0  0 
  9 11  1  0  0  0  0 
 11  4  1  0  0  0  0 
 12  1  1  0  0  0  0 
 14  1  1  0  0  0  0 
 16  2  1  0  0  0  0 
 19  3  1  0  0  0  0 
 20  4  1  0  0  0  0 
 22  5  1  0  0  0  0 
 25  6  1  0  0  0  0 
 26  7  1  0  0  0  0 
 29  8  1  0  0  0  0 
M  END 
>  <HBA> 
2 
 
>  <HBD> 
0 
 
>  <TPSA> 
26.3 
 
>  <cid> 
7797 
 
>  <dipole> 
1.57 
 
>  <excitation_energy_1> 
5.842 
 
>  <excitation_energy_2> 
7.009 
 
>  <excitation_energy_3> 
7.49 
 
>  <excitation_energy_4> 
7.596 
 
>  <homo_energy> 
-7.257 
 
>  <homo_lumo_gap> 
7.742 
 
>  <logP> 
2.52 
 
>  <lumo_energy> 
0.484 
 
>  <melting_point> 
-16.11 
 
>  <molecular_refractivity> 
46.66 
 
>  <oscillator_strength_1> 
0.0005 
 
>  <oscillator_strength_2> 
0.0172 
 
>  <oscillator_strength_3> 
0.0267 
 
>  <oscillator_strength_4> 
0.0433 
 
>  <open_babel_can_smiles> 
CCCCCCC(=O)OCC 
 
>  <mulliken_charges> 
29 
1   -0.441286 
2   -0.461047 
3   -0.247258 
4   -0.043482 
5   -0.246417 
6   -0.256936 
7   -0.248578 
8   -0.362878 
9   0.624666 
10   -0.481566 
11   -0.465441 
12   0.141405 
13   0.141888 
14   0.141881 
15   0.149458 
16   0.174972 
17   0.155999 
18   0.129651 
19   0.1297 
20   0.169538 
21   0.150721 
22   0.129375 
23   0.129262 
24   0.126515 
25   0.126701 
26   0.148187 
27   0.147383 
28   0.168271 
29   0.169313 
 
>  <lowdin_charges> 
29 
1   -0.445477 
2   -0.454297 
3   -0.27269 
4   -0.126904 
5   -0.274549 
6   -0.275374 
7   -0.270916 
8   -0.30284 
9   0.199628 
10   -0.269617 
11   -0.200482 
12   0.149611 
13   0.147078 
14   0.146714 
15   0.158925 
16   0.163002 
17   0.155534 
18   0.138324 
19   0.139029 
20   0.158357 
21   0.149285 
22   0.138765 
23   0.139369 
24   0.136936 
25   0.137757 
26   0.150062 
27   0.150419 
28   0.166624 
29   0.167727 
 
$$$$ 
 
