PCCDB-ID:  69471 
public computational chemistry database (PCCDB) project, http://pccdb.org 
 
 19 19  0  0  0  0  0  0  0  0999 V2000 
    2.4453    1.5324    0.9235 C   0  0  0  0  0  0  0  0  0  0  0  0 
    4.1973    0.7125   -3.4546 C   0  0  0  0  0  0  0  0  0  0  0  0 
    3.6156    0.3403   -2.2486 C   0  0  0  0  0  0  0  0  0  0  0  0 
    3.4833    3.0031   -3.0442 C   0  0  0  0  0  0  0  0  0  0  0  0 
    4.1305    2.0509   -3.8313 C   0  0  0  0  0  0  0  0  0  0  0  0 
    2.8857    2.6195   -1.8485 C   0  0  0  0  0  0  0  0  0  0  0  0 
    2.9657    1.2696   -1.4265 C   0  0  0  0  0  0  0  0  0  0  0  0 
    4.7443    2.4802   -5.0878 N   0  0  0  0  0  0  0  0  0  0  0  0 
    2.1971    3.5050   -1.0648 O   0  0  0  0  0  0  0  0  0  0  0  0 
    5.3007    1.6245   -5.7775 O   0  0  0  0  0  0  0  0  0  0  0  0 
    4.6703    3.6752   -5.3850 O   0  0  0  0  0  0  0  0  0  0  0  0 
    2.3948    0.7795   -0.2966 O   0  0  0  0  0  0  0  0  0  0  0  0 
    2.2228    0.8113    1.7126 H   0  0  0  0  0  0  0  0  0  0  0  0 
    1.7082    2.3370    0.9311 H   0  0  0  0  0  0  0  0  0  0  0  0 
    3.4456    1.9504    1.0833 H   0  0  0  0  0  0  0  0  0  0  0  0 
    4.7049   -0.0030   -4.0883 H   0  0  0  0  0  0  0  0  0  0  0  0 
    3.6513   -0.6885   -1.9062 H   0  0  0  0  0  0  0  0  0  0  0  0 
    3.4392    4.0313   -3.3882 H   0  0  0  0  0  0  0  0  0  0  0  0 
    2.2267    4.3803   -1.4822 H   0  0  0  0  0  0  0  0  0  0  0  0 
  1 14  1  0  0  0  0 
  1 15  1  0  0  0  0 
  1 13  1  0  0  0  0 
  2  3  1  0  0  0  0 
  3 17  1  0  0  0  0 
  3  7  2  0  0  0  0 
  4  6  2  0  0  0  0 
  5  2  2  0  0  0  0 
  5  4  1  0  0  0  0 
  6  7  1  0  0  0  0 
  6  9  1  0  0  0  0 
  7 12  1  0  0  0  0 
  8  5  1  0  0  0  0 
 10  8  2  0  0  0  0 
 11  8  2  0  0  0  0 
 12  1  1  0  0  0  0 
 16  2  1  0  0  0  0 
 18  4  1  0  0  0  0 
 19  9  1  0  0  0  0 
M  END 
>  <HBA> 
2 
 
>  <HBD> 
1 
 
>  <TPSA> 
75.28 
 
>  <cid> 
69471 
 
>  <dipole> 
4.89 
 
>  <excitation_energy_1> 
3.648 
 
>  <excitation_energy_2> 
3.755 
 
>  <excitation_energy_3> 
4.14 
 
>  <excitation_energy_4> 
4.306 
 
>  <homo_energy> 
-6.46 
 
>  <homo_lumo_gap> 
4.193 
 
>  <logP> 
1.832 
 
>  <lumo_energy> 
-2.267 
 
>  <melting_point> 
89.19 
 
>  <molecular_refractivity> 
43.78 
 
>  <oscillator_strength_1> 
0.1449 
 
>  <oscillator_strength_2> 
0.0019 
 
>  <oscillator_strength_3> 
0.1254 
 
>  <oscillator_strength_4> 
0.0003 
 
>  <open_babel_can_smiles> 
COc1ccc(cc1O)N(=O)=O 
 
>  <mulliken_charges> 
19 
1   -0.213225 
2   -0.158457 
3   -0.192356 
4   -0.248266 
5   0.278776 
6   0.329941 
7   0.362175 
8   0.372525 
9   -0.64741 
10   -0.398393 
11   -0.406539 
12   -0.511998 
13   0.167259 
14   0.180448 
15   0.153399 
16   0.180997 
17   0.157455 
18   0.174102 
19   0.419568 
 
>  <lowdin_charges> 
19 
1   -0.273957 
2   -0.149431 
3   -0.164607 
4   -0.191349 
5   -0.005042 
6   0.073567 
7   0.094624 
8   0.310098 
9   -0.371651 
10   -0.251806 
11   -0.257814 
12   -0.198711 
13   0.161562 
14   0.161096 
15   0.14893 
16   0.190069 
17   0.176086 
18   0.182961 
19   0.365374 
 
$$$$ 
 
