PCCDB-ID:  18467 
public computational chemistry database (PCCDB) project, http://pccdb.org 
 
 14 14  0  0  0  0  0  0  0  0999 V2000 
    2.1657   -0.4784    1.2165 C   0  0  0  0  0  0  0  0  0  0  0  0 
    3.9701   -2.5816   -2.8063 C   0  0  0  0  0  0  0  0  0  0  0  0 
    3.3608   -3.0384   -1.6461 C   0  0  0  0  0  0  0  0  0  0  0  0 
    3.7910   -0.4374   -2.0641 C   0  0  0  0  0  0  0  0  0  0  0  0 
    3.1684   -0.9124   -0.8874 C   0  0  0  0  0  0  0  0  0  0  0  0 
    4.1877   -1.2687   -3.0162 N   0  0  0  0  0  0  0  0  0  0  0  0 
    2.9533   -2.2039   -0.6737 N   0  0  0  0  0  0  0  0  0  0  0  0 
    2.7948    0.0055    0.0241 O   0  0  0  0  0  0  0  0  0  0  0  0 
    1.9506    0.4122    1.8083 H   0  0  0  0  0  0  0  0  0  0  0  0 
    2.8319   -1.1510    1.7652 H   0  0  0  0  0  0  0  0  0  0  0  0 
    1.2412   -1.0141    0.9812 H   0  0  0  0  0  0  0  0  0  0  0  0 
    4.2922   -3.2681   -3.5848 H   0  0  0  0  0  0  0  0  0  0  0  0 
    3.1895   -4.0999   -1.4793 H   0  0  0  0  0  0  0  0  0  0  0  0 
    3.9543    0.6286   -2.2036 H   0  0  0  0  0  0  0  0  0  0  0  0 
  1 10  1  0  0  0  0 
  1  9  1  0  0  0  0 
  2  3  2  0  0  0  0 
  3 13  1  0  0  0  0 
  3  7  1  0  0  0  0 
  4  5  1  0  0  0  0 
  5  7  2  0  0  0  0 
  5  8  1  0  0  0  0 
  6  2  1  0  0  0  0 
  6  4  2  0  0  0  0 
  8  1  1  0  0  0  0 
 11  1  1  0  0  0  0 
 12  2  1  0  0  0  0 
 14  4  1  0  0  0  0 
M  END 
>  <HBA> 
3 
 
>  <HBD> 
0 
 
>  <TPSA> 
35.01 
 
>  <cid> 
18467 
 
>  <dipole> 
1.74 
 
>  <excitation_energy_1> 
4.291 
 
>  <excitation_energy_2> 
4.796 
 
>  <excitation_energy_3> 
5.196 
 
>  <excitation_energy_4> 
5.82 
 
>  <homo_energy> 
-6.596 
 
>  <homo_lumo_gap> 
5.418 
 
>  <logP> 
0.485 
 
>  <lumo_energy> 
-1.178 
 
>  <melting_point> 
39.43 
 
>  <molecular_refractivity> 
28.52 
 
>  <oscillator_strength_1> 
0.0044 
 
>  <oscillator_strength_2> 
0.098 
 
>  <oscillator_strength_3> 
0.0001 
 
>  <oscillator_strength_4> 
0.0 
 
>  <open_babel_can_smiles> 
COc1cnccn1 
 
>  <mulliken_charges> 
14 
1   -0.208239 
2   0.012333 
3   0.037137 
4   0.001008 
5   0.54172 
6   -0.374099 
7   -0.475621 
8   -0.490179 
9   0.165417 
10   0.167353 
11   0.167268 
12   0.147575 
13   0.149283 
14   0.159042 
 
>  <lowdin_charges> 
14 
1   -0.276281 
2   -0.135666 
3   -0.09396 
4   -0.120877 
5   0.116809 
6   -0.112283 
7   -0.163877 
8   -0.184782 
9   0.161247 
10   0.158672 
11   0.157077 
12   0.164649 
13   0.16122 
14   0.168051 
 
$$$$ 
 
