PCCDB-ID:  23294 
public computational chemistry database (PCCDB) project, http://pccdb.org 
 
 27 26  0  0  1  0  0  0  0  0999 V2000 
    4.5715    3.0818    1.7160 C   0  0  0  0  0  0  0  0  0  0  0  0 
    3.8007    5.5509    6.5730 C   0  0  0  0  0  0  0  0  0  0  0  0 
    0.9829    2.4580    3.1647 C   0  0  0  0  0  0  0  0  0  0  0  0 
    3.1795    2.4281    6.6181 C   0  0  0  0  0  0  0  0  0  0  0  0 
    3.1686    2.4901    1.8716 C   0  0  0  0  0  0  0  0  0  0  0  0 
    3.9955    4.5465    5.4311 C   0  0  0  0  0  0  0  0  0  0  0  0 
    2.4151    2.9993    3.1046 C   0  0  2  0  0  0  0  0  0  0  0  0 
    2.9962    3.3771    5.4363 C   0  0  1  0  0  0  0  0  0  0  0  0 
    3.1569    2.5837    4.2548 O   0  0  0  0  0  0  0  0  0  0  0  0 
    5.0754    2.6736    0.8326 H   0  0  0  0  0  0  0  0  0  0  0  0 
    5.1828    2.8570    2.5946 H   0  0  0  0  0  0  0  0  0  0  0  0 
    4.5325    4.1726    1.6015 H   0  0  0  0  0  0  0  0  0  0  0  0 
    4.5047    6.3855    6.4817 H   0  0  0  0  0  0  0  0  0  0  0  0 
    3.9616    5.0927    7.5550 H   0  0  0  0  0  0  0  0  0  0  0  0 
    2.7871    5.9715    6.5647 H   0  0  0  0  0  0  0  0  0  0  0  0 
    0.3998    2.7940    2.2990 H   0  0  0  0  0  0  0  0  0  0  0  0 
    0.4654    2.7983    4.0683 H   0  0  0  0  0  0  0  0  0  0  0  0 
    0.9944    1.3623    3.1724 H   0  0  0  0  0  0  0  0  0  0  0  0 
    3.0690    2.9496    7.5744 H   0  0  0  0  0  0  0  0  0  0  0  0 
    4.1765    1.9742    6.5831 H   0  0  0  0  0  0  0  0  0  0  0  0 
    2.4391    1.6234    6.5741 H   0  0  0  0  0  0  0  0  0  0  0  0 
    3.2315    1.3959    1.9418 H   0  0  0  0  0  0  0  0  0  0  0  0 
    2.5643    2.7143    0.9823 H   0  0  0  0  0  0  0  0  0  0  0  0 
    5.0115    4.1308    5.4580 H   0  0  0  0  0  0  0  0  0  0  0  0 
    3.9034    5.0731    4.4724 H   0  0  0  0  0  0  0  0  0  0  0  0 
    2.3826    4.1012    3.0665 H   0  0  0  0  0  0  0  0  0  0  0  0 
    1.9736    3.7881    5.4660 H   0  0  0  0  0  0  0  0  0  0  0  0 
  1  5  1  0  0  0  0 
  1 11  1  0  0  0  0 
  2 14  1  0  0  0  0 
  3 18  1  0  0  0  0 
  3 17  1  0  0  0  0 
  4 19  1  0  0  0  0 
  5 22  1  0  0  0  0 
  5  7  1  0  0  0  0 
  6  8  1  0  0  0  0 
  6 24  1  0  0  0  0 
  6  2  1  0  0  0  0 
  7 26  1  6  0  0  0 
  7  3  1  0  0  0  0 
  7  9  1  0  0  0  0 
  8 27  1  1  0  0  0 
  8  4  1  0  0  0  0 
  9  8  1  0  0  0  0 
 10  1  1  0  0  0  0 
 12  1  1  0  0  0  0 
 13  2  1  0  0  0  0 
 15  2  1  0  0  0  0 
 16  3  1  0  0  0  0 
 20  4  1  0  0  0  0 
 21  4  1  0  0  0  0 
 23  5  1  0  0  0  0 
 25  6  1  0  0  0  0 
M  END 
>  <HBA> 
1 
 
>  <HBD> 
0 
 
>  <TPSA> 
9.23 
 
>  <cid> 
23294 
 
>  <dipole> 
1.06 
 
>  <excitation_energy_1> 
6.235 
 
>  <excitation_energy_2> 
6.542 
 
>  <excitation_energy_3> 
6.662 
 
>  <excitation_energy_4> 
6.697 
 
>  <homo_energy> 
-6.536 
 
>  <homo_lumo_gap> 
8.806 
 
>  <logP> 
2.6 
 
>  <lumo_energy> 
2.269 
 
>  <melting_point> 
-36.84 
 
>  <molecular_refractivity> 
41.66 
 
>  <oscillator_strength_1> 
0.0017 
 
>  <oscillator_strength_2> 
0.0084 
 
>  <oscillator_strength_3> 
0.006 
 
>  <oscillator_strength_4> 
0.0137 
 
>  <open_babel_can_smiles> 
CC[C@H](O[C@H](CC)C)C 
 
>  <mulliken_charges> 
27 
1   -0.447106 
2   -0.454331 
3   -0.453545 
4   -0.452833 
5   -0.255281 
6   -0.257929 
7   0.158936 
8   0.159564 
9   -0.501644 
10   0.138738 
11   0.163386 
12   0.133988 
13   0.146657 
14   0.147775 
15   0.141576 
16   0.137602 
17   0.144176 
18   0.150718 
19   0.141025 
20   0.151561 
21   0.151289 
22   0.140183 
23   0.127317 
24   0.137932 
25   0.136064 
26   0.107086 
27   0.107094 
 
>  <lowdin_charges> 
27 
1   -0.446013 
2   -0.447251 
3   -0.457522 
4   -0.449977 
5   -0.276841 
6   -0.286572 
7   0.009383 
8   0.007487 
9   -0.277279 
10   0.149129 
11   0.157465 
12   0.140828 
13   0.153323 
14   0.147768 
15   0.145361 
16   0.15059 
17   0.150446 
18   0.151522 
19   0.150611 
20   0.153735 
21   0.156499 
22   0.144634 
23   0.143149 
24   0.144078 
25   0.144009 
26   0.119466 
27   0.121971 
 
$$$$ 
 
