PCCDB-ID:  31365 
public computational chemistry database (PCCDB) project, http://pccdb.org 
 
 26 26  0  0  1  0  0  0  0  0999 V2000 
    1.3342   -1.4842    1.0585 C   0  0  0  0  0  0  0  0  0  0  0  0 
    4.7177    1.8884   -2.1536 C   0  0  0  0  0  0  0  0  0  0  0  0 
    2.8131   -1.1953    1.3311 C   0  0  0  0  0  0  0  0  0  0  0  0 
    5.5668    0.6680   -1.7609 C   0  0  0  0  0  0  0  0  0  0  0  0 
    3.3784   -0.0862    0.4281 C   0  0  0  0  0  0  0  0  0  0  0  0 
    4.8318    0.1948    0.7279 C   0  0  2  0  0  0  0  0  0  0  0  0 
    7.0924    1.2881    0.2621 C   0  0  0  0  0  0  0  0  0  0  0  0 
    5.8721    0.5481   -0.2735 C   0  0  2  0  0  0  0  0  0  0  0  0 
    7.5887    2.3770   -0.1651 N   0  0  0  0  0  0  0  0  0  0  0  0 
    7.6549    0.6822    1.3317 O   0  0  0  0  0  0  0  0  0  0  0  0 
    5.7890   -0.7939    0.2899 O   0  0  0  0  0  0  0  0  0  0  0  0 
    0.9600   -2.2794    1.7123 H   0  0  0  0  0  0  0  0  0  0  0  0 
    1.1768   -1.8046    0.0214 H   0  0  0  0  0  0  0  0  0  0  0  0 
    0.7161   -0.5941    1.2287 H   0  0  0  0  0  0  0  0  0  0  0  0 
    4.5459    1.8944   -3.2352 H   0  0  0  0  0  0  0  0  0  0  0  0 
    5.2001    2.8365   -1.8935 H   0  0  0  0  0  0  0  0  0  0  0  0 
    3.7413    1.8727   -1.6589 H   0  0  0  0  0  0  0  0  0  0  0  0 
    3.4057   -2.1065    1.1817 H   0  0  0  0  0  0  0  0  0  0  0  0 
    2.9453   -0.9083    2.3836 H   0  0  0  0  0  0  0  0  0  0  0  0 
    6.5176    0.6840   -2.3071 H   0  0  0  0  0  0  0  0  0  0  0  0 
    5.0519   -0.2486   -2.0642 H   0  0  0  0  0  0  0  0  0  0  0  0 
    2.8082    0.8411    0.5818 H   0  0  0  0  0  0  0  0  0  0  0  0 
    3.2537   -0.3697   -0.6226 H   0  0  0  0  0  0  0  0  0  0  0  0 
    5.0190    0.5359    1.7492 H   0  0  0  0  0  0  0  0  0  0  0  0 
    7.0527    2.7307   -0.9569 H   0  0  0  0  0  0  0  0  0  0  0  0 
    7.2642   -0.2153    1.3693 H   0  0  0  0  0  0  0  0  0  0  0  0 
  1 14  1  0  0  0  0 
  1  3  1  0  0  0  0 
  1 12  1  0  0  0  0 
  2 16  1  0  0  0  0 
  2  4  1  0  0  0  0 
  2 17  1  0  0  0  0 
  3 19  1  0  0  0  0 
  4  8  1  0  0  0  0 
  5 22  1  0  0  0  0 
  5  6  1  0  0  0  0 
  5  3  1  0  0  0  0 
  6 24  1  1  0  0  0 
  7 10  1  0  0  0  0 
  8  7  1  1  0  0  0 
  8 11  1  0  0  0  0 
  8  6  1  0  0  0  0 
  9  7  2  0  0  0  0 
 10 26  1  0  0  0  0 
 11  6  1  0  0  0  0 
 13  1  1  0  0  0  0 
 15  2  1  0  0  0  0 
 18  3  1  0  0  0  0 
 20  4  1  0  0  0  0 
 21  4  1  0  0  0  0 
 23  5  1  0  0  0  0 
 25  9  1  0  0  0  0 
M  END 
>  <HBA> 
3 
 
>  <HBD> 
1 
 
>  <TPSA> 
55.62 
 
>  <cid> 
31365 
 
>  <dipole> 
4.93 
 
>  <excitation_energy_1> 
5.859 
 
>  <excitation_energy_2> 
6.524 
 
>  <excitation_energy_3> 
6.601 
 
>  <excitation_energy_4> 
6.744 
 
>  <homo_energy> 
-7.037 
 
>  <homo_lumo_gap> 
7.372 
 
>  <logP> 
1.52 
 
>  <lumo_energy> 
0.335 
 
>  <melting_point> 
72.4 
 
>  <molecular_refractivity> 
42.49 
 
>  <oscillator_strength_1> 
0.0034 
 
>  <oscillator_strength_2> 
0.0139 
 
>  <oscillator_strength_3> 
0.0157 
 
>  <oscillator_strength_4> 
0.0666 
 
>  <open_babel_can_smiles> 
CCC[C@H]1O[C@]1(CC)C(=N)O 
 
>  <mulliken_charges> 
26 
1   -0.445043 
2   -0.462935 
3   -0.259236 
4   -0.320673 
5   -0.276535 
6   0.070495 
7   0.474259 
8   0.211494 
9   -0.597839 
10   -0.594836 
11   -0.509631 
12   0.151341 
13   0.14606 
14   0.14476 
15   0.159625 
16   0.157644 
17   0.1585 
18   0.156139 
19   0.13849 
20   0.163123 
21   0.165736 
22   0.147199 
23   0.147731 
24   0.156676 
25   0.288021 
26   0.429434 
 
>  <lowdin_charges> 
26 
1   -0.444211 
2   -0.444669 
3   -0.270635 
4   -0.280473 
5   -0.279726 
6   -0.017044 
7   0.112098 
8   0.069062 
9   -0.396848 
10   -0.36014 
11   -0.295757 
12   0.155771 
13   0.147791 
14   0.148446 
15   0.15758 
16   0.150804 
17   0.154198 
18   0.151785 
19   0.141672 
20   0.160192 
21   0.164135 
22   0.153271 
23   0.151715 
24   0.15412 
25   0.256499 
26   0.360364 
 
$$$$ 
 
