PCCDB-ID:  67478 
public computational chemistry database (PCCDB) project, http://pccdb.org 
 
 27 30  0  0  0  0  0  0  0  0999 V2000 
    2.8660   -2.1808    0.0009 C   0  0  0  0  0  0  0  0  0  0  0  0 
   -2.8892   -2.1900    0.0003 C   0  0  0  0  0  0  0  0  0  0  0  0 
    3.5610   -0.9591    0.0009 C   0  0  0  0  0  0  0  0  0  0  0  0 
   -3.5902   -0.9732    0.0003 C   0  0  0  0  0  0  0  0  0  0  0  0 
    1.4813   -2.1994    0.0010 C   0  0  0  0  0  0  0  0  0  0  0  0 
   -1.5040   -2.1988    0.0002 C   0  0  0  0  0  0  0  0  0  0  0  0 
    2.8552    0.2297    0.0001 C   0  0  0  0  0  0  0  0  0  0  0  0 
   -2.8870    0.2172    0.0001 C   0  0  0  0  0  0  0  0  0  0  0  0 
    0.0881    3.4918   -0.0007 C   0  0  0  0  0  0  0  0  0  0  0  0 
    0.7233   -1.0059    0.0006 C   0  0  0  0  0  0  0  0  0  0  0  0 
   -0.7470   -1.0060    0.0007 C   0  0  0  0  0  0  0  0  0  0  0  0 
    1.4463    0.2251   -0.0001 C   0  0  0  0  0  0  0  0  0  0  0  0 
   -1.4762    0.2256    0.0006 C   0  0  0  0  0  0  0  0  0  0  0  0 
    0.6900    1.4455   -0.0007 C   0  0  0  0  0  0  0  0  0  0  0  0 
   -0.6976    1.4243    0.0004 C   0  0  0  0  0  0  0  0  0  0  0  0 
    1.1658    2.7432   -0.0014 N   0  0  0  0  0  0  0  0  0  0  0  0 
   -1.0711    2.7554    0.0015 N   0  0  0  0  0  0  0  0  0  0  0  0 
    3.4151   -3.1185   -0.0001 H   0  0  0  0  0  0  0  0  0  0  0  0 
   -3.4332   -3.1304    0.0005 H   0  0  0  0  0  0  0  0  0  0  0  0 
    4.6476   -0.9498    0.0024 H   0  0  0  0  0  0  0  0  0  0  0  0 
   -4.6766   -0.9660    0.0003 H   0  0  0  0  0  0  0  0  0  0  0  0 
    0.9799   -3.1611    0.0014 H   0  0  0  0  0  0  0  0  0  0  0  0 
   -0.9969   -3.1571   -0.0008 H   0  0  0  0  0  0  0  0  0  0  0  0 
    3.3642    1.1884   -0.0010 H   0  0  0  0  0  0  0  0  0  0  0  0 
   -3.4281    1.1609   -0.0005 H   0  0  0  0  0  0  0  0  0  0  0  0 
    0.0739    4.5739   -0.0002 H   0  0  0  0  0  0  0  0  0  0  0  0 
   -2.0108    3.1231   -0.0034 H   0  0  0  0  0  0  0  0  0  0  0  0 
  1  3  1  0  0  0  0 
  1  5  2  0  0  0  0 
  2  4  1  0  0  0  0 
  2 19  1  0  0  0  0 
  3 20  1  0  0  0  0 
  5 22  1  0  0  0  0 
  6  2  2  0  0  0  0 
  6 11  1  0  0  0  0 
  7  3  2  0  0  0  0 
  8  4  2  0  0  0  0 
  8 13  1  0  0  0  0 
  9 26  1  0  0  0  0 
  9 17  1  0  0  0  0 
 10 11  2  0  0  0  0 
 10  5  1  0  0  0  0 
 12  7  1  0  0  0  0 
 12 10  1  0  0  0  0 
 13 11  1  0  0  0  0 
 14 12  2  0  0  0  0 
 14 15  1  0  0  0  0 
 15 13  2  0  0  0  0 
 15 17  1  0  0  0  0 
 16  9  2  0  0  0  0 
 16 14  1  0  0  0  0 
 18  1  1  0  0  0  0 
 21  4  1  0  0  0  0 
 23  6  1  0  0  0  0 
 24  7  1  0  0  0  0 
 25  8  1  0  0  0  0 
 27 17  1  0  0  0  0 
M  END 
>  <HBA> 
1 
 
>  <HBD> 
1 
 
>  <TPSA> 
28.68 
 
>  <cid> 
67478 
 
>  <dipole> 
3.25 
 
>  <excitation_energy_1> 
3.806 
 
>  <excitation_energy_2> 
4.098 
 
>  <excitation_energy_3> 
4.57 
 
>  <excitation_energy_4> 
4.677 
 
>  <homo_energy> 
-5.442 
 
>  <homo_lumo_gap> 
4.604 
 
>  <logP> 
3.869 
 
>  <lumo_energy> 
-0.838 
 
>  <melting_point> 
201.11 
 
>  <molecular_refractivity> 
71.11 
 
>  <oscillator_strength_1> 
0.0196 
 
>  <oscillator_strength_2> 
0.0512 
 
>  <oscillator_strength_3> 
0.0221 
 
>  <oscillator_strength_4> 
0.2993 
 
>  <open_babel_can_smiles> 
c1ccc2c(c1)c1ccccc1c1c2[nH]cn1 
 
>  <mulliken_charges> 
27 
1   -0.131291 
2   -0.131397 
3   -0.136645 
4   -0.13759 
5   -0.209313 
6   -0.206857 
7   -0.187559 
8   -0.195263 
9   0.227595 
10   0.075026 
11   0.052296 
12   0.09282 
13   0.1669 
14   0.143223 
15   0.233537 
16   -0.504877 
17   -0.69102 
18   0.125489 
19   0.129597 
20   0.128928 
21   0.129888 
22   0.130191 
23   0.136411 
24   0.155163 
25   0.109423 
26   0.160743 
27   0.334582 
 
>  <lowdin_charges> 
27 
1   -0.162786 
2   -0.162458 
3   -0.151131 
4   -0.151467 
5   -0.158221 
6   -0.152514 
7   -0.151187 
8   -0.169126 
9   -0.066796 
10   -0.009464 
11   -0.000781 
12   -0.002104 
13   -0.009186 
14   -0.002338 
15   -0.001412 
16   -0.187068 
17   -0.188206 
18   0.156991 
19   0.159166 
20   0.155863 
21   0.156772 
22   0.156188 
23   0.159716 
24   0.172205 
25   0.147353 
26   0.167155 
27   0.294836 
 
$$$$ 
 
