PCCDB-ID:  70309 
public computational chemistry database (PCCDB) project, http://pccdb.org 
 
 16 17  0  0  0  0  0  0  0  0999 V2000 
   -2.1489   -0.7300    0.0007 C   0  0  0  0  0  0  0  0  0  0  0  0 
   -2.1660    0.6776    0.0009 C   0  0  0  0  0  0  0  0  0  0  0  0 
   -0.9458   -1.4329    0.0005 C   0  0  0  0  0  0  0  0  0  0  0  0 
   -0.9804    1.4096    0.0006 C   0  0  0  0  0  0  0  0  0  0  0  0 
    0.2439   -0.7023    0.0000 C   0  0  0  0  0  0  0  0  0  0  0  0 
    0.2267    0.7083    0.0001 C   0  0  0  0  0  0  0  0  0  0  0  0 
    1.6331   -1.2210   -0.0001 C   0  0  0  0  0  0  0  0  0  0  0  0 
    1.6028    1.2607   -0.0000 C   0  0  0  0  0  0  0  0  0  0  0  0 
    2.5488    0.0312   -0.0004 C   0  0  0  0  0  0  0  0  0  0  0  0 
    2.0025   -2.3762    0.0007 O   0  0  0  0  0  0  0  0  0  0  0  0 
    1.9440    2.4246    0.0007 O   0  0  0  0  0  0  0  0  0  0  0  0 
    3.7533    0.0459    0.0001 O   0  0  0  0  0  0  0  0  0  0  0  0 
   -3.0904   -1.2720    0.0003 H   0  0  0  0  0  0  0  0  0  0  0  0 
   -3.1204    1.1964    0.0002 H   0  0  0  0  0  0  0  0  0  0  0  0 
   -0.9180   -2.5182    0.0000 H   0  0  0  0  0  0  0  0  0  0  0  0 
   -0.9792    2.4953    0.0005 H   0  0  0  0  0  0  0  0  0  0  0  0 
  1  2  1  0  0  0  0 
  3  1  2  0  0  0  0 
  4  2  2  0  0  0  0 
  5  6  2  0  0  0  0 
  5  3  1  0  0  0  0 
  6  4  1  0  0  0  0 
  7  5  1  0  0  0  0 
  7 10  2  0  0  0  0 
  8  6  1  0  0  0  0 
  8 11  2  0  0  0  0 
  9  7  1  0  0  0  0 
  9  8  1  0  0  0  0 
  9 12  2  0  0  0  0 
 13  1  1  0  0  0  0 
 14  2  1  0  0  0  0 
 15  3  1  0  0  0  0 
 16  4  1  0  0  0  0 
M  END 
>  <HBA> 
3 
 
>  <HBD> 
0 
 
>  <TPSA> 
51.21 
 
>  <cid> 
70309 
 
>  <dipole> 
6.48 
 
>  <excitation_energy_1> 
1.721 
 
>  <excitation_energy_2> 
2.568 
 
>  <excitation_energy_3> 
3.573 
 
>  <excitation_energy_4> 
3.876 
 
>  <homo_energy> 
-6.479 
 
>  <homo_lumo_gap> 
3.067 
 
>  <logP> 
-0.204 
 
>  <lumo_energy> 
-3.412 
 
>  <melting_point> 
152.44 
 
>  <molecular_refractivity> 
45.13 
 
>  <oscillator_strength_1> 
0.0 
 
>  <oscillator_strength_2> 
0.0 
 
>  <oscillator_strength_3> 
0.0 
 
>  <oscillator_strength_4> 
0.0 
 
>  <open_babel_can_smiles> 
O=c1c(=O)c2c(c1=O)cccc2 
 
>  <mulliken_charges> 
16 
1   -0.122844 
2   -0.122986 
3   -0.157861 
4   -0.157777 
5   0.045229 
6   0.045088 
7   0.341955 
8   0.342098 
9   0.350324 
10   -0.425546 
11   -0.425582 
12   -0.38309 
13   0.159772 
14   0.159756 
15   0.175727 
16   0.175737 
 
>  <lowdin_charges> 
16 
1   -0.125557 
2   -0.125393 
3   -0.12065 
4   -0.120635 
5   -0.032536 
6   -0.032495 
7   0.115519 
8   0.115286 
9   0.103095 
10   -0.178853 
11   -0.178735 
12   -0.124746 
13   0.172533 
14   0.172391 
15   0.18039 
16   0.180386 
 
$$$$ 
 
