PCCDB-ID:  68185 
public computational chemistry database (PCCDB) project, http://pccdb.org 
 
 23 22  0  0  0  0  0  0  0  0999 V2000 
    2.8708    0.1851   -1.6285 C   0  0  0  0  0  0  0  0  0  0  0  0 
    3.2374   -2.6940    2.6850 C   0  0  0  0  0  0  0  0  0  0  0  0 
    2.4744   -0.0806   -0.1723 C   0  0  0  0  0  0  0  0  0  0  0  0 
    2.6565   -1.4874    1.9403 C   0  0  0  0  0  0  0  0  0  0  0  0 
    2.8285   -2.5595   -0.3243 C   0  0  0  0  0  0  0  0  0  0  0  0 
    4.6976   -0.9907    0.5605 C   0  0  0  0  0  0  0  0  0  0  0  0 
    3.1747   -1.3126    0.4802 C   0  0  0  0  0  0  0  0  0  0  0  0 
    3.6096   -3.2992   -0.9077 O   0  0  0  0  0  0  0  0  0  0  0  0 
    1.5071   -2.8034   -0.3513 O   0  0  0  0  0  0  0  0  0  0  0  0 
    5.0614   -0.0253    1.1932 O   0  0  0  0  0  0  0  0  0  0  0  0 
    5.5708   -1.7801   -0.0726 O   0  0  0  0  0  0  0  0  0  0  0  0 
    2.3587    1.0784   -2.0011 H   0  0  0  0  0  0  0  0  0  0  0  0 
    2.5982   -0.6475   -2.2885 H   0  0  0  0  0  0  0  0  0  0  0  0 
    3.9483    0.3568   -1.7284 H   0  0  0  0  0  0  0  0  0  0  0  0 
    2.8497   -2.7276    3.7086 H   0  0  0  0  0  0  0  0  0  0  0  0 
    4.3299   -2.6411    2.7478 H   0  0  0  0  0  0  0  0  0  0  0  0 
    2.9706   -3.6426    2.2031 H   0  0  0  0  0  0  0  0  0  0  0  0 
    1.3915   -0.2249   -0.0976 H   0  0  0  0  0  0  0  0  0  0  0  0 
    2.7381    0.7822    0.4462 H   0  0  0  0  0  0  0  0  0  0  0  0 
    2.9177   -0.5659    2.4685 H   0  0  0  0  0  0  0  0  0  0  0  0 
    1.5640   -1.5550    1.9097 H   0  0  0  0  0  0  0  0  0  0  0  0 
    1.3836   -3.6113   -0.8863 H   0  0  0  0  0  0  0  0  0  0  0  0 
    5.0818   -2.5099   -0.5249 H   0  0  0  0  0  0  0  0  0  0  0  0 
  1  3  1  0  0  0  0 
  2 16  1  0  0  0  0 
  2 15  1  0  0  0  0 
  3 18  1  0  0  0  0 
  3 19  1  0  0  0  0 
  3  7  1  0  0  0  0 
  4 20  1  0  0  0  0 
  4  2  1  0  0  0  0 
  5  7  1  0  0  0  0 
  6 10  2  0  0  0  0 
  7  6  1  0  0  0  0 
  7  4  1  0  0  0  0 
  8  5  2  0  0  0  0 
  9  5  1  0  0  0  0 
 11  6  1  0  0  0  0 
 12  1  1  0  0  0  0 
 13  1  1  0  0  0  0 
 14  1  1  0  0  0  0 
 17  2  1  0  0  0  0 
 21  4  1  0  0  0  0 
 22  9  1  0  0  0  0 
 23 11  1  0  0  0  0 
M  END 
>  <HBA> 
4 
 
>  <HBD> 
2 
 
>  <TPSA> 
74.6 
 
>  <cid> 
68185 
 
>  <dipole> 
4.92 
 
>  <excitation_energy_1> 
5.581 
 
>  <excitation_energy_2> 
5.694 
 
>  <excitation_energy_3> 
5.826 
 
>  <excitation_energy_4> 
6.557 
 
>  <homo_energy> 
-7.233 
 
>  <homo_lumo_gap> 
6.493 
 
>  <logP> 
0.962 
 
>  <lumo_energy> 
-0.74 
 
>  <melting_point> 
145.78 
 
>  <molecular_refractivity> 
39.05 
 
>  <oscillator_strength_1> 
0.0007 
 
>  <oscillator_strength_2> 
0.0006 
 
>  <oscillator_strength_3> 
0.002 
 
>  <oscillator_strength_4> 
0.0037 
 
>  <open_babel_can_smiles> 
CCC(C(=O)O)(C(=O)O)CC 
 
>  <mulliken_charges> 
23 
1   -0.472798 
2   -0.472385 
3   -0.26886 
4   -0.268034 
5   0.626952 
6   0.622246 
7   -0.124895 
8   -0.512181 
9   -0.557344 
10   -0.472596 
11   -0.594131 
12   0.158968 
13   0.14712 
14   0.172325 
15   0.158855 
16   0.171793 
17   0.146583 
18   0.156504 
19   0.180075 
20   0.180116 
21   0.156093 
22   0.421047 
23   0.444549 
 
>  <lowdin_charges> 
23 
1   -0.452319 
2   -0.449599 
3   -0.26341 
4   -0.262889 
5   0.214032 
6   0.187431 
7   -0.061872 
8   -0.282415 
9   -0.33123 
10   -0.259793 
11   -0.350666 
12   0.161126 
13   0.148589 
14   0.159514 
15   0.159643 
16   0.15894 
17   0.147561 
18   0.151982 
19   0.168903 
20   0.168619 
21   0.151657 
22   0.369604 
23   0.366592 
 
$$$$ 
 
