PCCDB-ID:  46989 
public computational chemistry database (PCCDB) project, http://pccdb.org 
 
 26 26  0  0  0  0  0  0  0  0999 V2000 
    2.5570    0.8374    3.5740 C   0  0  0  0  0  0  0  0  0  0  0  0 
    2.9420   -0.6060    3.2827 C   0  0  0  0  0  0  0  0  0  0  0  0 
    5.7402    0.6493   -5.9760 C   0  0  0  0  0  0  0  0  0  0  0  0 
    5.3352    1.4011   -4.8712 C   0  0  0  0  0  0  0  0  0  0  0  0 
    6.4762   -0.5214   -5.7856 C   0  0  0  0  0  0  0  0  0  0  0  0 
    5.6706    0.9937   -3.5798 C   0  0  0  0  0  0  0  0  0  0  0  0 
    6.7953   -0.9499   -4.4967 C   0  0  0  0  0  0  0  0  0  0  0  0 
    5.3321   -0.6600    0.4956 C   0  0  0  0  0  0  0  0  0  0  0  0 
    5.4011   -0.5879   -0.8446 C   0  0  0  0  0  0  0  0  0  0  0  0 
    6.3916   -0.1923   -3.3906 C   0  0  0  0  0  0  0  0  0  0  0  0 
    4.0170   -0.5740    1.1571 C   0  0  0  0  0  0  0  0  0  0  0  0 
    2.9464   -0.4252    0.5947 O   0  0  0  0  0  0  0  0  0  0  0  0 
    4.1561   -0.6826    2.5027 O   0  0  0  0  0  0  0  0  0  0  0  0 
    6.8893   -0.7455   -1.7591 S   0  0  0  0  0  0  0  0  0  0  0  0 
    1.6848    0.8639    4.2375 H   0  0  0  0  0  0  0  0  0  0  0  0 
    2.3011    1.3604    2.6485 H   0  0  0  0  0  0  0  0  0  0  0  0 
    3.3793    1.3677    4.0656 H   0  0  0  0  0  0  0  0  0  0  0  0 
    2.1443   -1.1254    2.7457 H   0  0  0  0  0  0  0  0  0  0  0  0 
    3.1754   -1.1504    4.2014 H   0  0  0  0  0  0  0  0  0  0  0  0 
    5.4842    0.9752   -6.9801 H   0  0  0  0  0  0  0  0  0  0  0  0 
    4.7675    2.3167   -5.0126 H   0  0  0  0  0  0  0  0  0  0  0  0 
    6.7923   -1.1129   -6.6405 H   0  0  0  0  0  0  0  0  0  0  0  0 
    5.3793    1.5967   -2.7251 H   0  0  0  0  0  0  0  0  0  0  0  0 
    7.3463   -1.8736   -4.3466 H   0  0  0  0  0  0  0  0  0  0  0  0 
    6.2074   -0.7801    1.1260 H   0  0  0  0  0  0  0  0  0  0  0  0 
    4.4878   -0.4582   -1.4204 H   0  0  0  0  0  0  0  0  0  0  0  0 
  1 17  1  0  0  0  0 
  1 15  1  0  0  0  0 
  2  1  1  0  0  0  0 
  2 19  1  0  0  0  0 
  3  5  2  0  0  0  0 
  3  4  1  0  0  0  0 
  4  6  2  0  0  0  0 
  5  7  1  0  0  0  0 
  6 10  1  0  0  0  0 
  6 23  1  0  0  0  0 
  7 24  1  0  0  0  0 
  7 10  2  0  0  0  0 
  8 25  1  0  0  0  0 
  8 11  1  0  0  0  0 
  9  8  2  0  0  0  0 
 10 14  1  0  0  0  0 
 11 13  1  0  0  0  0 
 12 11  2  0  0  0  0 
 13  2  1  0  0  0  0 
 14  9  1  0  0  0  0 
 16  1  1  0  0  0  0 
 18  2  1  0  0  0  0 
 20  3  1  0  0  0  0 
 21  4  1  0  0  0  0 
 22  5  1  0  0  0  0 
 26  9  1  0  0  0  0 
M  END 
>  <HBA> 
3 
 
>  <HBD> 
0 
 
>  <TPSA> 
51.6 
 
>  <cid> 
46989 
 
>  <dipole> 
1.3 
 
>  <excitation_energy_1> 
4.321 
 
>  <excitation_energy_2> 
4.606 
 
>  <excitation_energy_3> 
4.765 
 
>  <excitation_energy_4> 
4.785 
 
>  <homo_energy> 
-6.033 
 
>  <homo_lumo_gap> 
4.868 
 
>  <logP> 
2.856 
 
>  <lumo_energy> 
-1.165 
 
>  <melting_point> 
35.7 
 
>  <molecular_refractivity> 
58.2 
 
>  <oscillator_strength_1> 
0.5018 
 
>  <oscillator_strength_2> 
0.0291 
 
>  <oscillator_strength_3> 
0.0075 
 
>  <oscillator_strength_4> 
0.0047 
 
>  <open_babel_can_smiles> 
CCOC(=O)/C=C/Sc1ccccc1 
 
>  <mulliken_charges> 
26 
1   -0.461693 
2   -0.040829 
3   -0.128887 
4   -0.119429 
5   -0.119905 
6   -0.149572 
7   -0.151597 
8   -0.183343 
9   -0.272614 
10   -0.094867 
11   0.612863 
12   -0.506336 
13   -0.474964 
14   0.200373 
15   0.147819 
16   0.176299 
17   0.155815 
18   0.169381 
19   0.150118 
20   0.138876 
21   0.141609 
22   0.140249 
23   0.154134 
24   0.151247 
25   0.157703 
26   0.20755 
 
>  <lowdin_charges> 
26 
1   -0.456841 
2   -0.130095 
3   -0.151219 
4   -0.146513 
5   -0.149836 
6   -0.160501 
7   -0.156702 
8   -0.222958 
9   -0.240569 
10   -0.127621 
11   0.19843 
12   -0.29066 
13   -0.199045 
14   0.245381 
15   0.157789 
16   0.165646 
17   0.156342 
18   0.159556 
19   0.1513 
20   0.161792 
21   0.163668 
22   0.164141 
23   0.170509 
24   0.169111 
25   0.175048 
26   0.193847 
 
$$$$ 
 
