PCCDB-ID:  65019 
public computational chemistry database (PCCDB) project, http://pccdb.org 
 
 23 22  0  0  1  0  0  0  0  0999 V2000 
    0.2269   -0.3727    0.7736 C   0  0  0  0  0  0  0  0  0  0  0  0 
    4.5278    1.9058   -3.3260 C   0  0  0  0  0  0  0  0  0  0  0  0 
    1.4200   -0.2544    0.6285 C   0  0  0  0  0  0  0  0  0  0  0  0 
    2.7622    0.5977   -2.0119 C   0  0  0  0  0  0  0  0  0  0  0  0 
    3.2308    0.9600   -0.5997 C   0  0  0  0  0  0  0  0  0  0  0  0 
    3.0350    1.6841   -3.0650 C   0  0  2  0  0  0  0  0  0  0  0  0 
    2.8738   -0.0887    0.4823 C   0  0  2  0  0  0  0  0  0  0  0  0 
    2.4075    1.2627   -4.3285 N   0  0  0  0  0  0  0  0  0  0  0  0 
    3.4876   -1.3869    0.1430 N   0  0  0  0  0  0  0  0  0  0  0  0 
   -0.8273   -0.4812    0.8918 H   0  0  0  0  0  0  0  0  0  0  0  0 
    5.0520    2.2415   -2.4250 H   0  0  0  0  0  0  0  0  0  0  0  0 
    4.9913    0.9785   -3.6809 H   0  0  0  0  0  0  0  0  0  0  0  0 
    4.6784    2.6742   -4.0951 H   0  0  0  0  0  0  0  0  0  0  0  0 
    1.6795    0.4120   -1.9766 H   0  0  0  0  0  0  0  0  0  0  0  0 
    3.2237   -0.3410   -2.3355 H   0  0  0  0  0  0  0  0  0  0  0  0 
    2.7983    1.9208   -0.2903 H   0  0  0  0  0  0  0  0  0  0  0  0 
    4.3219    1.0879   -0.5744 H   0  0  0  0  0  0  0  0  0  0  0  0 
    2.6142    2.6363   -2.6842 H   0  0  0  0  0  0  0  0  0  0  0  0 
    3.2466    0.3133    1.4433 H   0  0  0  0  0  0  0  0  0  0  0  0 
    1.4017    1.1625   -4.1940 H   0  0  0  0  0  0  0  0  0  0  0  0 
    2.5279    1.9930   -5.0300 H   0  0  0  0  0  0  0  0  0  0  0  0 
    4.5019   -1.2860    0.1771 H   0  0  0  0  0  0  0  0  0  0  0  0 
    3.2381   -2.0766    0.8497 H   0  0  0  0  0  0  0  0  0  0  0  0 
  1 10  1  0  0  0  0 
  2  6  1  0  0  0  0 
  2 11  1  0  0  0  0 
  3  1  3  0  0  0  0 
  4 14  1  0  0  0  0 
  4  5  1  0  0  0  0 
  5 17  1  0  0  0  0 
  5 16  1  0  0  0  0 
  5  7  1  0  0  0  0 
  6 18  1  1  0  0  0 
  6  4  1  0  0  0  0 
  7  3  1  0  0  0  0 
  7 19  1  1  0  0  0 
  8 20  1  0  0  0  0 
  8  6  1  0  0  0  0 
  9 22  1  0  0  0  0 
  9  7  1  0  0  0  0 
  9 23  1  0  0  0  0 
 12  2  1  0  0  0  0 
 13  2  1  0  0  0  0 
 15  4  1  0  0  0  0 
 21  8  1  0  0  0  0 
M  END 
>  <HBA> 
2 
 
>  <HBD> 
2 
 
>  <TPSA> 
52.04 
 
>  <cid> 
65019 
 
>  <dipole> 
1.97 
 
>  <excitation_energy_1> 
5.575 
 
>  <excitation_energy_2> 
5.61 
 
>  <excitation_energy_3> 
5.851 
 
>  <excitation_energy_4> 
6.27 
 
>  <homo_energy> 
-6.131 
 
>  <homo_lumo_gap> 
7.383 
 
>  <logP> 
1.475 
 
>  <lumo_energy> 
1.252 
 
>  <melting_point> 
98.62 
 
>  <molecular_refractivity> 
39.34 
 
>  <oscillator_strength_1> 
0.0123 
 
>  <oscillator_strength_2> 
0.0048 
 
>  <oscillator_strength_3> 
0.0039 
 
>  <oscillator_strength_4> 
0.0049 
 
>  <open_babel_can_smiles> 
C[C@H](CC[C@@H](C#C)N)N 
 
>  <mulliken_charges> 
23 
1   -0.504485 
2   -0.442883 
3   0.360724 
4   -0.241011 
5   -0.27208 
6   0.040745 
7   -0.117134 
8   -0.720025 
9   -0.706616 
10   0.188335 
11   0.13872 
12   0.156277 
13   0.132564 
14   0.134369 
15   0.165473 
16   0.139057 
17   0.131231 
18   0.096768 
19   0.139122 
20   0.291238 
21   0.288088 
22   0.29698 
23   0.304544 
 
>  <lowdin_charges> 
23 
1   -0.255908 
2   -0.451625 
3   -0.038591 
4   -0.278767 
5   -0.271538 
6   -0.060405 
7   -0.050352 
8   -0.554385 
9   -0.54326 
10   0.202794 
11   0.147524 
12   0.155628 
13   0.145507 
14   0.145379 
15   0.159908 
16   0.147356 
17   0.138603 
18   0.109675 
19   0.139378 
20   0.24886 
21   0.250353 
22   0.252415 
23   0.261449 
 
$$$$ 
 
