PCCDB-ID:  20125 
public computational chemistry database (PCCDB) project, http://pccdb.org 
 
 27 26  0  0  1  0  0  0  0  0999 V2000 
    6.9137    0.9708   -2.0072 C   0  0  0  0  0  0  0  0  0  0  0  0 
    4.6026    2.8000    5.1338 C   0  0  0  0  0  0  0  0  0  0  0  0 
    6.7312    0.5417   -0.5480 C   0  0  0  0  0  0  0  0  0  0  0  0 
    5.2181    1.7837    4.1668 C   0  0  0  0  0  0  0  0  0  0  0  0 
    6.2446    1.6810    0.3576 C   0  0  0  0  0  0  0  0  0  0  0  0 
    6.0555    1.2464    1.8176 C   0  0  0  0  0  0  0  0  0  0  0  0 
    5.5528    2.3551    2.7750 C   0  0  2  0  0  0  0  0  0  0  0  0 
    6.5713    3.4991    2.8390 C   0  0  0  0  0  0  0  0  0  0  0  0 
    7.6051    3.5834    3.5720 N   0  0  0  0  0  0  0  0  0  0  0  0 
    6.3598    4.5244    1.9614 O   0  0  0  0  0  0  0  0  0  0  0  0 
    7.2680    0.1388   -2.6261 H   0  0  0  0  0  0  0  0  0  0  0  0 
    7.6442    1.7844   -2.0920 H   0  0  0  0  0  0  0  0  0  0  0  0 
    5.9697    1.3271   -2.4379 H   0  0  0  0  0  0  0  0  0  0  0  0 
    4.3627    2.3299    6.0937 H   0  0  0  0  0  0  0  0  0  0  0  0 
    3.6733    3.2188    4.7282 H   0  0  0  0  0  0  0  0  0  0  0  0 
    5.2894    3.6304    5.3266 H   0  0  0  0  0  0  0  0  0  0  0  0 
    7.6834    0.1551   -0.1588 H   0  0  0  0  0  0  0  0  0  0  0  0 
    6.0186   -0.2939   -0.4968 H   0  0  0  0  0  0  0  0  0  0  0  0 
    4.5273    0.9426    4.0260 H   0  0  0  0  0  0  0  0  0  0  0  0 
    6.1258    1.3498    4.6097 H   0  0  0  0  0  0  0  0  0  0  0  0 
    5.2891    2.0650   -0.0340 H   0  0  0  0  0  0  0  0  0  0  0  0 
    6.9589    2.5129    0.3037 H   0  0  0  0  0  0  0  0  0  0  0  0 
    7.0054    0.8561    2.2086 H   0  0  0  0  0  0  0  0  0  0  0  0 
    5.3387    0.4144    1.8561 H   0  0  0  0  0  0  0  0  0  0  0  0 
    4.6146    2.7600    2.3607 H   0  0  0  0  0  0  0  0  0  0  0  0 
    7.6713    2.7664    4.1811 H   0  0  0  0  0  0  0  0  0  0  0  0 
    5.5434    4.3562    1.4682 H   0  0  0  0  0  0  0  0  0  0  0  0 
  1  3  1  0  0  0  0 
  2 16  1  0  0  0  0 
  2 14  1  0  0  0  0 
  3 18  1  0  0  0  0 
  3 17  1  0  0  0  0 
  3  5  1  0  0  0  0 
  4 20  1  0  0  0  0 
  4  2  1  0  0  0  0 
  5  6  1  0  0  0  0 
  6 24  1  0  0  0  0 
  6 23  1  0  0  0  0 
  6  7  1  0  0  0  0 
  7 25  1  6  0  0  0 
  7  8  1  0  0  0  0 
  7  4  1  0  0  0  0 
  8  9  2  0  0  0  0 
  9 26  1  0  0  0  0 
 10  8  1  0  0  0  0 
 11  1  1  0  0  0  0 
 12  1  1  0  0  0  0 
 13  1  1  0  0  0  0 
 15  2  1  0  0  0  0 
 19  4  1  0  0  0  0 
 21  5  1  0  0  0  0 
 22  5  1  0  0  0  0 
 27 10  1  0  0  0  0 
M  END 
>  <HBA> 
2 
 
>  <HBD> 
1 
 
>  <TPSA> 
43.09 
 
>  <cid> 
20125 
 
>  <dipole> 
4.18 
 
>  <excitation_energy_1> 
6.08 
 
>  <excitation_energy_2> 
6.307 
 
>  <excitation_energy_3> 
6.428 
 
>  <excitation_energy_4> 
6.688 
 
>  <homo_energy> 
-6.988 
 
>  <homo_lumo_gap> 
7.731 
 
>  <logP> 
2.388 
 
>  <lumo_energy> 
0.743 
 
>  <melting_point> 
47.75 
 
>  <molecular_refractivity> 
43.48 
 
>  <oscillator_strength_1> 
0.0009 
 
>  <oscillator_strength_2> 
0.0028 
 
>  <oscillator_strength_3> 
0.0098 
 
>  <oscillator_strength_4> 
0.0042 
 
>  <open_babel_can_smiles> 
CCCC[C@H](C(=N)O)CC 
 
>  <mulliken_charges> 
27 
1   -0.443551 
2   -0.45309 
3   -0.248314 
4   -0.264221 
5   -0.275057 
6   -0.248861 
7   -0.178193 
8   0.483466 
9   -0.589432 
10   -0.576537 
11   0.14515 
12   0.148093 
13   0.140616 
14   0.148793 
15   0.141811 
16   0.168243 
17   0.137438 
18   0.13093 
19   0.139679 
20   0.135196 
21   0.1174 
22   0.158561 
23   0.141735 
24   0.135843 
25   0.114092 
26   0.285004 
27   0.405205 
 
>  <lowdin_charges> 
27 
1   -0.445996 
2   -0.451228 
3   -0.271478 
4   -0.273447 
5   -0.285667 
6   -0.270852 
7   -0.161842 
8   0.126218 
9   -0.403035 
10   -0.363431 
11   0.152177 
12   0.150173 
13   0.146147 
14   0.154141 
15   0.147366 
16   0.160487 
17   0.142632 
18   0.139259 
19   0.147998 
20   0.141357 
21   0.132127 
22   0.152033 
23   0.146733 
24   0.144368 
25   0.136721 
26   0.255297 
27   0.351742 
 
$$$$ 
 
