PCCDB-ID:  20959 
public computational chemistry database (PCCDB) project, http://pccdb.org 
 
 29 29  0  0  1  0  0  0  0  0999 V2000 
    1.0541    0.0997   -0.5881 C   0  0  0  0  0  0  0  0  0  0  0  0 
    2.5834    0.1449   -0.6697 C   0  0  0  0  0  0  0  0  0  0  0  0 
    3.2110   -1.2051   -1.0405 C   0  0  0  0  0  0  0  0  0  0  0  0 
    4.7429   -1.1627   -1.1123 C   0  0  0  0  0  0  0  0  0  0  0  0 
    7.7066   -4.7351   -0.9485 C   0  0  0  0  0  0  0  0  0  0  0  0 
    5.3613   -2.5071   -1.5160 C   0  0  0  0  0  0  0  0  0  0  0  0 
    7.5051   -3.7987   -2.1633 C   0  0  0  0  0  0  0  0  0  0  0  0 
    8.1602   -3.7876    0.1725 C   0  0  0  0  0  0  0  0  0  0  0  0 
    6.9108   -2.5002   -1.5766 C   0  0  2  0  0  0  0  0  0  0  0  0 
    7.5085   -2.4384   -0.1593 C   0  0  0  0  0  0  0  0  0  0  0  0 
    7.4699   -1.4828    0.5876 O   0  0  0  0  0  0  0  0  0  0  0  0 
    0.6382    1.0782   -0.3218 H   0  0  0  0  0  0  0  0  0  0  0  0 
    0.7182   -0.6212    0.1676 H   0  0  0  0  0  0  0  0  0  0  0  0 
    0.6139   -0.1993   -1.5475 H   0  0  0  0  0  0  0  0  0  0  0  0 
    2.9929    0.4800    0.2934 H   0  0  0  0  0  0  0  0  0  0  0  0 
    2.8884    0.9000   -1.4081 H   0  0  0  0  0  0  0  0  0  0  0  0 
    2.8053   -1.5398   -2.0072 H   0  0  0  0  0  0  0  0  0  0  0  0 
    2.9007   -1.9617   -0.3040 H   0  0  0  0  0  0  0  0  0  0  0  0 
    5.1531   -0.8459   -0.1465 H   0  0  0  0  0  0  0  0  0  0  0  0 
    5.0521   -0.3971   -1.8394 H   0  0  0  0  0  0  0  0  0  0  0  0 
    8.4225   -5.5375   -1.1516 H   0  0  0  0  0  0  0  0  0  0  0  0 
    6.7562   -5.2113   -0.6774 H   0  0  0  0  0  0  0  0  0  0  0  0 
    4.9891   -2.7971   -2.5087 H   0  0  0  0  0  0  0  0  0  0  0  0 
    5.0198   -3.2920   -0.8251 H   0  0  0  0  0  0  0  0  0  0  0  0 
    6.8714   -4.2428   -2.9385 H   0  0  0  0  0  0  0  0  0  0  0  0 
    8.4788   -3.5855   -2.6234 H   0  0  0  0  0  0  0  0  0  0  0  0 
    9.2493   -3.6372    0.1503 H   0  0  0  0  0  0  0  0  0  0  0  0 
    7.9045   -4.1041    1.1884 H   0  0  0  0  0  0  0  0  0  0  0  0 
    7.2254   -1.6088   -2.1328 H   0  0  0  0  0  0  0  0  0  0  0  0 
  1 12  1  0  0  0  0 
  1 13  1  0  0  0  0 
  2  1  1  0  0  0  0 
  2 15  1  0  0  0  0 
  3  2  1  0  0  0  0 
  3 18  1  0  0  0  0 
  4  3  1  0  0  0  0 
  4 19  1  0  0  0  0 
  5 22  1  0  0  0  0 
  5  8  1  0  0  0  0 
  6  4  1  0  0  0  0 
  6 24  1  0  0  0  0 
  7  9  1  0  0  0  0 
  7  5  1  0  0  0  0 
  8 28  1  0  0  0  0 
  9 29  1  6  0  0  0 
  9  6  1  0  0  0  0 
  9 10  1  0  0  0  0 
 10  8  1  0  0  0  0 
 10 11  2  0  0  0  0 
 14  1  1  0  0  0  0 
 16  2  1  0  0  0  0 
 17  3  1  0  0  0  0 
 20  4  1  0  0  0  0 
 21  5  1  0  0  0  0 
 23  6  1  0  0  0  0 
 25  7  1  0  0  0  0 
 26  7  1  0  0  0  0 
 27  8  1  0  0  0  0 
M  END 
>  <HBA> 
1 
 
>  <HBD> 
0 
 
>  <TPSA> 
17.07 
 
>  <cid> 
20959 
 
>  <dipole> 
2.61 
 
>  <excitation_energy_1> 
4.097 
 
>  <excitation_energy_2> 
5.917 
 
>  <excitation_energy_3> 
6.355 
 
>  <excitation_energy_4> 
6.477 
 
>  <homo_energy> 
-6.324 
 
>  <homo_lumo_gap> 
5.889 
 
>  <logP> 
2.936 
 
>  <lumo_energy> 
-0.435 
 
>  <melting_point> 
14.75 
 
>  <molecular_refractivity> 
48.27 
 
>  <oscillator_strength_1> 
0.0005 
 
>  <oscillator_strength_2> 
0.0069 
 
>  <oscillator_strength_3> 
0.0082 
 
>  <oscillator_strength_4> 
0.0377 
 
>  <open_babel_can_smiles> 
CCCCC[C@@H]1CCCC1=O 
 
>  <mulliken_charges> 
29 
1   -0.441609 
2   -0.247058 
3   -0.247732 
4   -0.263651 
5   -0.284123 
6   -0.267003 
7   -0.288108 
8   -0.350712 
9   -0.16326 
10   0.444484 
11   -0.452461 
12   0.141749 
13   0.140674 
14   0.139601 
15   0.135388 
16   0.130032 
17   0.122647 
18   0.125677 
19   0.166545 
20   0.126184 
21   0.144194 
22   0.14737 
23   0.136168 
24   0.132426 
25   0.14076 
26   0.140534 
27   0.170968 
28   0.170043 
29   0.150276 
 
>  <lowdin_charges> 
29 
1   -0.445471 
2   -0.272399 
3   -0.27536 
4   -0.281394 
5   -0.283695 
6   -0.266545 
7   -0.283594 
8   -0.313458 
9   -0.166654 
10   0.161342 
11   -0.2333 
12   0.149024 
13   0.14677 
14   0.145263 
15   0.141455 
16   0.139761 
17   0.134607 
18   0.137544 
19   0.156988 
20   0.13907 
21   0.151155 
22   0.145836 
23   0.142798 
24   0.140433 
25   0.149558 
26   0.145301 
27   0.168176 
28   0.1675 
29   0.15929 
 
$$$$ 
 
