PCCDB-ID:  42476 
public computational chemistry database (PCCDB) project, http://pccdb.org 
 
 24 23  0  0  0  0  0  0  0  0999 V2000 
    0.9721   -2.3249    0.2232 C   0  0  0  0  0  0  0  0  0  0  0  0 
    6.2758   -4.2921   -3.0295 C   0  0  0  0  0  0  0  0  0  0  0  0 
    2.4905   -2.1814    0.0795 C   0  0  0  0  0  0  0  0  0  0  0  0 
    2.8952   -1.0809   -0.9092 C   0  0  0  0  0  0  0  0  0  0  0  0 
    4.4209   -0.9100   -1.0670 C   0  0  0  0  0  0  0  0  0  0  0  0 
    5.0865   -2.0897   -1.7163 C   0  0  0  0  0  0  0  0  0  0  0  0 
    7.6081   -4.4093   -0.9591 C   0  0  0  0  0  0  0  0  0  0  0  0 
    6.0125   -2.7281   -1.1024 N   0  0  0  0  0  0  0  0  0  0  0  0 
    6.6178   -3.7994   -1.7058 N   0  0  0  0  0  0  0  0  0  0  0  0 
    8.2570   -5.3699   -1.3267 O   0  0  0  0  0  0  0  0  0  0  0  0 
    0.7121   -3.1120    0.9398 H   0  0  0  0  0  0  0  0  0  0  0  0 
    0.5043   -2.5801   -0.7358 H   0  0  0  0  0  0  0  0  0  0  0  0 
    0.5162   -1.3910    0.5747 H   0  0  0  0  0  0  0  0  0  0  0  0 
    6.9257   -5.1452   -3.2239 H   0  0  0  0  0  0  0  0  0  0  0  0 
    6.4427   -3.5183   -3.7885 H   0  0  0  0  0  0  0  0  0  0  0  0 
    5.2266   -4.6089   -3.0680 H   0  0  0  0  0  0  0  0  0  0  0  0 
    2.9227   -3.1392   -0.2396 H   0  0  0  0  0  0  0  0  0  0  0  0 
    2.9351   -1.9630    1.0605 H   0  0  0  0  0  0  0  0  0  0  0  0 
    2.4706   -0.1224   -0.5812 H   0  0  0  0  0  0  0  0  0  0  0  0 
    2.4483   -1.2890   -1.8930 H   0  0  0  0  0  0  0  0  0  0  0  0 
    4.8909   -0.7371   -0.0925 H   0  0  0  0  0  0  0  0  0  0  0  0 
    4.6112   -0.0190   -1.6840 H   0  0  0  0  0  0  0  0  0  0  0  0 
    4.7386   -2.3651   -2.7173 H   0  0  0  0  0  0  0  0  0  0  0  0 
    7.7278   -3.9056    0.0137 H   0  0  0  0  0  0  0  0  0  0  0  0 
  1 13  1  0  0  0  0 
  1 11  1  0  0  0  0 
  2  9  1  0  0  0  0 
  3  1  1  0  0  0  0 
  3 18  1  0  0  0  0 
  4 19  1  0  0  0  0 
  4  3  1  0  0  0  0 
  5  4  1  0  0  0  0 
  5 21  1  0  0  0  0 
  6  8  2  0  0  0  0 
  6  5  1  0  0  0  0 
  7 24  1  0  0  0  0 
  9  8  1  0  0  0  0 
  9  7  1  0  0  0  0 
 10  7  2  0  0  0  0 
 12  1  1  0  0  0  0 
 14  2  1  0  0  0  0 
 15  2  1  0  0  0  0 
 16  2  1  0  0  0  0 
 17  3  1  0  0  0  0 
 20  4  1  0  0  0  0 
 22  5  1  0  0  0  0 
 23  6  1  0  0  0  0 
M  END 
>  <HBA> 
3 
 
>  <HBD> 
0 
 
>  <TPSA> 
32.67 
 
>  <cid> 
42476 
 
>  <dipole> 
4.05 
 
>  <excitation_energy_1> 
5.311 
 
>  <excitation_energy_2> 
5.631 
 
>  <excitation_energy_3> 
5.84 
 
>  <excitation_energy_4> 
5.973 
 
>  <homo_energy> 
-6.436 
 
>  <homo_lumo_gap> 
6.063 
 
>  <logP> 
1.887 
 
>  <lumo_energy> 
-0.373 
 
>  <melting_point> 
14.66 
 
>  <molecular_refractivity> 
42.93 
 
>  <oscillator_strength_1> 
0.0007 
 
>  <oscillator_strength_2> 
0.551 
 
>  <oscillator_strength_3> 
0.0185 
 
>  <oscillator_strength_4> 
0.0014 
 
>  <open_babel_can_smiles> 
CN(/N=C/CCCC)C=O 
 
>  <mulliken_charges> 
24 
1   -0.442578 
2   -0.340375 
3   -0.244098 
4   -0.259986 
5   -0.30544 
6   0.072215 
7   0.371563 
8   -0.242416 
9   -0.244879 
10   -0.458065 
11   0.146284 
12   0.140914 
13   0.14293 
14   0.210619 
15   0.167887 
16   0.167303 
17   0.138661 
18   0.137347 
19   0.137794 
20   0.128752 
21   0.161002 
22   0.1479 
23   0.129071 
24   0.137597 
 
>  <lowdin_charges> 
24 
1   -0.445263 
2   -0.36945 
3   -0.273777 
4   -0.273497 
5   -0.27731 
6   -0.118908 
7   0.049849 
8   -0.094456 
9   -0.031673 
10   -0.278957 
11   0.152528 
12   0.146055 
13   0.147205 
14   0.191488 
15   0.158471 
16   0.156091 
17   0.142721 
18   0.142619 
19   0.145134 
20   0.13754 
21   0.159785 
22   0.155662 
23   0.137408 
24   0.140735 
 
$$$$ 
 
