PCCDB-ID:  66891 
public computational chemistry database (PCCDB) project, http://pccdb.org 
 
 24 23  0  0  0  0  0  0  0  0999 V2000 
    0.5669   -1.5102   -1.7091 C   0  0  0  0  0  0  0  0  0  0  0  0 
    4.8048   -2.7103    3.0061 C   0  0  0  0  0  0  0  0  0  0  0  0 
    7.0124   -1.5850   -1.1639 C   0  0  0  0  0  0  0  0  0  0  0  0 
    2.0945   -1.3964   -1.7289 C   0  0  0  0  0  0  0  0  0  0  0  0 
    4.6757   -2.6833    1.6812 C   0  0  0  0  0  0  0  0  0  0  0  0 
    6.0678   -2.4269   -1.5845 C   0  0  0  0  0  0  0  0  0  0  0  0 
    2.7214   -1.6326   -0.3494 C   0  0  0  0  0  0  0  0  0  0  0  0 
    4.2403   -1.4971   -0.3429 C   0  0  0  0  0  0  0  0  0  0  0  0 
    4.7855   -1.5142    0.9709 O   0  0  0  0  0  0  0  0  0  0  0  0 
    4.7663   -2.5278   -1.1618 O   0  0  0  0  0  0  0  0  0  0  0  0 
    0.1440   -1.3350   -2.7046 H   0  0  0  0  0  0  0  0  0  0  0  0 
    0.1209   -0.7793   -1.0236 H   0  0  0  0  0  0  0  0  0  0  0  0 
    0.2479   -2.5075   -1.3825 H   0  0  0  0  0  0  0  0  0  0  0  0 
    4.7704   -3.6563    3.5339 H   0  0  0  0  0  0  0  0  0  0  0  0 
    4.9650   -1.8041    3.5811 H   0  0  0  0  0  0  0  0  0  0  0  0 
    7.9907   -1.6253   -1.6295 H   0  0  0  0  0  0  0  0  0  0  0  0 
    6.8641   -0.8766   -0.3583 H   0  0  0  0  0  0  0  0  0  0  0  0 
    2.3820   -0.3993   -2.0920 H   0  0  0  0  0  0  0  0  0  0  0  0 
    2.5130   -2.1164   -2.4415 H   0  0  0  0  0  0  0  0  0  0  0  0 
    4.5283   -3.5778    1.0809 H   0  0  0  0  0  0  0  0  0  0  0  0 
    6.2489   -3.1665   -2.3594 H   0  0  0  0  0  0  0  0  0  0  0  0 
    2.4541   -2.6305    0.0211 H   0  0  0  0  0  0  0  0  0  0  0  0 
    2.3304   -0.9087    0.3763 H   0  0  0  0  0  0  0  0  0  0  0  0 
    4.5570   -0.5266   -0.7417 H   0  0  0  0  0  0  0  0  0  0  0  0 
  1 13  1  0  0  0  0 
  1 12  1  0  0  0  0 
  2 14  1  0  0  0  0 
  2 15  1  0  0  0  0 
  3 17  1  0  0  0  0 
  4  1  1  0  0  0  0 
  4  7  1  0  0  0  0 
  5  2  2  0  0  0  0 
  6  3  2  0  0  0  0 
  6 10  1  0  0  0  0 
  7  8  1  0  0  0  0 
  7 22  1  0  0  0  0 
  7 23  1  0  0  0  0 
  8  9  1  0  0  0  0 
  9  5  1  0  0  0  0 
 10  8  1  0  0  0  0 
 11  1  1  0  0  0  0 
 16  3  1  0  0  0  0 
 18  4  1  0  0  0  0 
 19  4  1  0  0  0  0 
 20  5  1  0  0  0  0 
 21  6  1  0  0  0  0 
 24  8  1  0  0  0  0 
M  END 
>  <HBA> 
2 
 
>  <HBD> 
0 
 
>  <TPSA> 
18.46 
 
>  <cid> 
66891 
 
>  <dipole> 
1.23 
 
>  <excitation_energy_1> 
5.94 
 
>  <excitation_energy_2> 
6.024 
 
>  <excitation_energy_3> 
6.107 
 
>  <excitation_energy_4> 
6.177 
 
>  <homo_energy> 
-6.104 
 
>  <homo_lumo_gap> 
7.031 
 
>  <logP> 
2.433 
 
>  <lumo_energy> 
0.928 
 
>  <melting_point> 
-86.99 
 
>  <molecular_refractivity> 
41.79 
 
>  <oscillator_strength_1> 
0.007 
 
>  <oscillator_strength_2> 
0.0165 
 
>  <oscillator_strength_3> 
0.031 
 
>  <oscillator_strength_4> 
0.0027 
 
>  <open_babel_can_smiles> 
CCCC(OC=C)OC=C 
 
>  <mulliken_charges> 
24 
1   -0.443049 
2   -0.394727 
3   -0.381756 
4   -0.257941 
5   0.167169 
6   0.141766 
7   -0.279734 
8   0.329886 
9   -0.47457 
10   -0.464733 
11   0.146282 
12   0.144025 
13   0.145331 
14   0.141258 
15   0.144472 
16   0.143397 
17   0.167451 
18   0.132862 
19   0.154416 
20   0.15025 
21   0.144239 
22   0.148412 
23   0.153106 
24   0.142189 
 
>  <lowdin_charges> 
24 
1   -0.44356 
2   -0.390906 
3   -0.404914 
4   -0.274109 
5   -0.039899 
6   -0.037906 
7   -0.290667 
8   0.105433 
9   -0.206793 
10   -0.203112 
11   0.151543 
12   0.148688 
13   0.147949 
14   0.166502 
15   0.165416 
16   0.168887 
17   0.173859 
18   0.140167 
19   0.151839 
20   0.155082 
21   0.15993 
22   0.153402 
23   0.157964 
24   0.145204 
 
$$$$ 
 
