PCCDB-ID:  32881 
public computational chemistry database (PCCDB) project, http://pccdb.org 
 
 23 22  0  0  1  0  0  0  0  0999 V2000 
    3.4388    0.6385    0.8718 C   0  0  0  0  0  0  0  0  0  0  0  0 
    5.0080   -3.5125   -0.2242 C   0  0  0  0  0  0  0  0  0  0  0  0 
    2.9671   -4.5777    0.8727 C   0  0  0  0  0  0  0  0  0  0  0  0 
    2.7133   -1.2961   -0.6232 C   0  0  0  0  0  0  0  0  0  0  0  0 
    2.2903   -0.0127    0.0965 C   0  0  1  0  0  0  0  0  0  0  0  0 
    3.4858   -3.5314   -0.1117 C   0  0  1  0  0  0  0  0  0  0  0  0 
    1.5528   -4.5801    0.9267 O   0  0  0  0  0  0  0  0  0  0  0  0 
    1.1728   -0.2756    0.9413 O   0  0  0  0  0  0  0  0  0  0  0  0 
    2.9883   -2.2736    0.3753 O   0  0  0  0  0  0  0  0  0  0  0  0 
    4.2497    0.9431    0.1991 H   0  0  0  0  0  0  0  0  0  0  0  0 
    3.8531   -0.0615    1.6058 H   0  0  0  0  0  0  0  0  0  0  0  0 
    3.0747    1.5246    1.4000 H   0  0  0  0  0  0  0  0  0  0  0  0 
    5.3797   -4.4674   -0.6135 H   0  0  0  0  0  0  0  0  0  0  0  0 
    5.4629   -3.3358    0.7566 H   0  0  0  0  0  0  0  0  0  0  0  0 
    5.3449   -2.7214   -0.9023 H   0  0  0  0  0  0  0  0  0  0  0  0 
    3.4110   -4.3844    1.8643 H   0  0  0  0  0  0  0  0  0  0  0  0 
    3.2778   -5.5784    0.5551 H   0  0  0  0  0  0  0  0  0  0  0  0 
    3.5989   -1.1104   -1.2496 H   0  0  0  0  0  0  0  0  0  0  0  0 
    1.8971   -1.6470   -1.2722 H   0  0  0  0  0  0  0  0  0  0  0  0 
    1.9203    0.6873   -0.6622 H   0  0  0  0  0  0  0  0  0  0  0  0 
    3.0298   -3.7319   -1.0929 H   0  0  0  0  0  0  0  0  0  0  0  0 
    1.2998   -3.6476    1.0319 H   0  0  0  0  0  0  0  0  0  0  0  0 
    1.4706   -0.9608    1.5622 H   0  0  0  0  0  0  0  0  0  0  0  0 
  1 12  1  0  0  0  0 
  1 11  1  0  0  0  0 
  2  6  1  0  0  0  0 
  2 14  1  0  0  0  0 
  3  7  1  0  0  0  0 
  3 16  1  0  0  0  0 
  4  5  1  0  0  0  0 
  4  9  1  0  0  0  0 
  5 20  1  6  0  0  0 
  5  1  1  0  0  0  0 
  5  8  1  0  0  0  0 
  6 21  1  6  0  0  0 
  6  9  1  0  0  0  0 
  6  3  1  0  0  0  0 
  7 22  1  0  0  0  0 
  8 23  1  0  0  0  0 
 10  1  1  0  0  0  0 
 13  2  1  0  0  0  0 
 15  2  1  0  0  0  0 
 17  3  1  0  0  0  0 
 18  4  1  0  0  0  0 
 19  4  1  0  0  0  0 
M  END 
>  <HBA> 
3 
 
>  <HBD> 
2 
 
>  <TPSA> 
49.69 
 
>  <cid> 
32881 
 
>  <dipole> 
3.07 
 
>  <excitation_energy_1> 
6.56 
 
>  <excitation_energy_2> 
6.736 
 
>  <excitation_energy_3> 
6.753 
 
>  <excitation_energy_4> 
6.943 
 
>  <homo_energy> 
-7.08 
 
>  <homo_lumo_gap> 
8.64 
 
>  <logP> 
-0.235 
 
>  <lumo_energy> 
1.559 
 
>  <melting_point> 
1.72 
 
>  <molecular_refractivity> 
34.36 
 
>  <oscillator_strength_1> 
0.0059 
 
>  <oscillator_strength_2> 
0.023 
 
>  <oscillator_strength_3> 
0.0026 
 
>  <oscillator_strength_4> 
0.0056 
 
>  <open_babel_can_smiles> 
OC[C@@H](OC[C@@H](O)C)C 
 
>  <mulliken_charges> 
23 
1   -0.459306 
2   -0.459728 
3   -0.022064 
4   -0.02554 
5   0.118382 
6   0.123223 
7   -0.623138 
8   -0.626262 
9   -0.522229 
10   0.137393 
11   0.15264 
12   0.160332 
13   0.149779 
14   0.156546 
15   0.152751 
16   0.122746 
17   0.143878 
18   0.123388 
19   0.139597 
20   0.139324 
21   0.130128 
22   0.394411 
23   0.393747 
 
>  <lowdin_charges> 
23 
1   -0.464807 
2   -0.457326 
3   -0.141383 
4   -0.149125 
5   -0.008544 
6   -0.010583 
7   -0.464594 
8   -0.463789 
9   -0.291419 
10   0.151037 
11   0.154839 
12   0.160493 
13   0.157259 
14   0.156374 
15   0.156959 
16   0.129181 
17   0.149778 
18   0.13351 
19   0.139585 
20   0.148549 
21   0.136039 
22   0.337764 
23   0.340204 
 
$$$$ 
 
