PCCDB-ID:  9689 
public computational chemistry database (PCCDB) project, http://pccdb.org 
 
 30 32  0  0  0  0  0  0  0  0999 V2000 
    2.9662    1.7514   -4.0302 C   0  0  0  0  0  0  0  0  0  0  0  0 
    8.2740   -2.2755   -0.2312 C   0  0  0  0  0  0  0  0  0  0  0  0 
    2.3865    0.4932   -3.8424 C   0  0  0  0  0  0  0  0  0  0  0  0 
    3.6169    2.3789   -2.9685 C   0  0  0  0  0  0  0  0  0  0  0  0 
    7.7470   -3.5867   -0.2124 C   0  0  0  0  0  0  0  0  0  0  0  0 
    7.5911   -1.0719   -0.2504 C   0  0  0  0  0  0  0  0  0  0  0  0 
    2.4592   -0.1354   -2.6008 C   0  0  0  0  0  0  0  0  0  0  0  0 
    3.6931    1.7462   -1.7250 C   0  0  0  0  0  0  0  0  0  0  0  0 
    6.4357   -4.0137   -0.2082 C   0  0  0  0  0  0  0  0  0  0  0  0 
    6.2046   -0.8249   -0.2502 C   0  0  0  0  0  0  0  0  0  0  0  0 
    3.1845   -0.2019   -0.1791 C   0  0  0  0  0  0  0  0  0  0  0  0 
    3.1200    0.4857   -1.5314 C   0  0  0  0  0  0  0  0  0  0  0  0 
    5.2516   -3.2347   -0.2159 C   0  0  0  0  0  0  0  0  0  0  0  0 
    5.1871   -1.7606   -0.2245 C   0  0  0  0  0  0  0  0  0  0  0  0 
    3.1262   -2.7420   -0.2157 C   0  0  0  0  0  0  0  0  0  0  0  0 
    4.0443   -3.7786   -0.2121 N   0  0  0  0  0  0  0  0  0  0  0  0 
    3.8568   -1.4964   -0.2057 N   0  0  0  0  0  0  0  0  0  0  0  0 
    1.9101   -2.7810   -0.2326 O   0  0  0  0  0  0  0  0  0  0  0  0 
    2.9056    2.2407   -4.9986 H   0  0  0  0  0  0  0  0  0  0  0  0 
    9.3591   -2.2069   -0.2344 H   0  0  0  0  0  0  0  0  0  0  0  0 
    1.8706    0.0037   -4.6641 H   0  0  0  0  0  0  0  0  0  0  0  0 
    4.0653    3.3595   -3.1045 H   0  0  0  0  0  0  0  0  0  0  0  0 
    8.4914   -4.3805   -0.2011 H   0  0  0  0  0  0  0  0  0  0  0  0 
    8.2111   -0.1780   -0.2700 H   0  0  0  0  0  0  0  0  0  0  0  0 
    1.9978   -1.1077   -2.4488 H   0  0  0  0  0  0  0  0  0  0  0  0 
    4.1954    2.2433   -0.8971 H   0  0  0  0  0  0  0  0  0  0  0  0 
    6.2522   -5.0848   -0.1965 H   0  0  0  0  0  0  0  0  0  0  0  0 
    5.9051    0.2186   -0.2834 H   0  0  0  0  0  0  0  0  0  0  0  0 
    2.1762   -0.4208    0.1853 H   0  0  0  0  0  0  0  0  0  0  0  0 
    3.6808    0.4404    0.5569 H   0  0  0  0  0  0  0  0  0  0  0  0 
  1  3  2  0  0  0  0 
  1  4  1  0  0  0  0 
  2  5  1  0  0  0  0 
  3  7  1  0  0  0  0 
  4  8  2  0  0  0  0 
  5  9  2  0  0  0  0 
  5 23  1  0  0  0  0 
  6 10  1  0  0  0  0 
  6  2  2  0  0  0  0 
  7 25  1  0  0  0  0 
  7 12  2  0  0  0  0 
  8 12  1  0  0  0  0 
  8 26  1  0  0  0  0 
  9 27  1  0  0  0  0 
 10 14  2  0  0  0  0 
 11 29  1  0  0  0  0 
 11 30  1  0  0  0  0 
 12 11  1  0  0  0  0 
 13 16  2  0  0  0  0 
 13  9  1  0  0  0  0 
 14 13  1  0  0  0  0 
 14 17  1  0  0  0  0 
 15 16  1  0  0  0  0 
 15 17  1  0  0  0  0 
 17 11  1  0  0  0  0 
 18 15  2  0  0  0  0 
 19  1  1  0  0  0  0 
 20  2  1  0  0  0  0 
 21  3  1  0  0  0  0 
 22  4  1  0  0  0  0 
 24  6  1  0  0  0  0 
 28 10  1  0  0  0  0 
M  END 
>  <HBA> 
3 
 
>  <HBD> 
0 
 
>  <TPSA> 
34.89 
 
>  <cid> 
9689 
 
>  <dipole> 
6.58 
 
>  <excitation_energy_1> 
3.429 
 
>  <excitation_energy_2> 
3.653 
 
>  <excitation_energy_3> 
3.959 
 
>  <excitation_energy_4> 
4.129 
 
>  <homo_energy> 
-5.927 
 
>  <homo_lumo_gap> 
3.861 
 
>  <logP> 
2.396 
 
>  <lumo_energy> 
-2.065 
 
>  <melting_point> 
124.33 
 
>  <molecular_refractivity> 
70.87 
 
>  <oscillator_strength_1> 
0.08 
 
>  <oscillator_strength_2> 
0.1365 
 
>  <oscillator_strength_3> 
0.0009 
 
>  <oscillator_strength_4> 
0.0086 
 
>  <open_babel_can_smiles> 
O=c1nc2c(n1Cc1ccccc1)ccccc2 
 
>  <mulliken_charges> 
30 
1   -0.127104 
2   -0.129524 
3   -0.128999 
4   -0.128045 
5   -0.119852 
6   -0.115629 
7   -0.179272 
8   -0.19082 
9   -0.176443 
10   -0.199063 
11   -0.260134 
12   0.166257 
13   0.261613 
14   0.397447 
15   0.720574 
16   -0.554759 
17   -0.538681 
18   -0.52141 
19   0.13316 
20   0.145752 
21   0.137992 
22   0.131609 
23   0.150287 
24   0.147471 
25   0.166945 
26   0.121507 
27   0.167887 
28   0.154115 
29   0.208557 
30   0.158558 
 
>  <lowdin_charges> 
30 
1   -0.154205 
2   -0.160545 
3   -0.150726 
4   -0.153934 
5   -0.129251 
6   -0.125467 
7   -0.153968 
8   -0.173303 
9   -0.145159 
10   -0.179531 
11   -0.196997 
12   -0.018342 
13   0.06131 
14   0.063888 
15   0.158679 
16   -0.21287 
17   -0.05722 
18   -0.279759 
19   0.159298 
20   0.1648 
21   0.162677 
22   0.158059 
23   0.170388 
24   0.16892 
25   0.173769 
26   0.152975 
27   0.180197 
28   0.171151 
29   0.187513 
30   0.157652 
 
$$$$ 
 
