PCCDB-ID:  29774 
public computational chemistry database (PCCDB) project, http://pccdb.org 
 
 19 19  0  0  1  0  0  0  0  0999 V2000 
    1.3159    1.1378   -0.7523 C   0  0  0  0  0  0  0  0  0  0  0  0 
    7.3201   -1.4242    1.8132 C   0  0  0  0  0  0  0  0  0  0  0  0 
    2.7663    1.2630   -1.1929 C   0  0  0  0  0  0  0  0  0  0  0  0 
    5.9858   -1.5579    1.1253 C   0  0  2  0  0  0  0  0  0  0  0  0 
    4.9521   -0.5019    1.2080 C   0  0  1  0  0  0  0  0  0  0  0  0 
    3.9796   -0.3496    0.0721 C   0  0  0  0  0  0  0  0  0  0  0  0 
    3.5592   -1.2623   -0.6041 O   0  0  0  0  0  0  0  0  0  0  0  0 
    3.6731    0.9535   -0.1045 O   0  0  0  0  0  0  0  0  0  0  0  0 
    4.8362   -1.7159    1.9575 O   0  0  0  0  0  0  0  0  0  0  0  0 
    0.6524    1.4435   -1.5694 H   0  0  0  0  0  0  0  0  0  0  0  0 
    1.1147    1.7782    0.1126 H   0  0  0  0  0  0  0  0  0  0  0  0 
    1.0821    0.1025   -0.4891 H   0  0  0  0  0  0  0  0  0  0  0  0 
    8.0725   -1.0276    1.1217 H   0  0  0  0  0  0  0  0  0  0  0  0 
    7.6656   -2.4037    2.1631 H   0  0  0  0  0  0  0  0  0  0  0  0 
    7.2494   -0.7579    2.6784 H   0  0  0  0  0  0  0  0  0  0  0  0 
    3.0170    2.2904   -1.4676 H   0  0  0  0  0  0  0  0  0  0  0  0 
    2.9857    0.5971   -2.0311 H   0  0  0  0  0  0  0  0  0  0  0  0 
    5.9564   -2.1856    0.2333 H   0  0  0  0  0  0  0  0  0  0  0  0 
    5.1443    0.3962    1.7926 H   0  0  0  0  0  0  0  0  0  0  0  0 
  1 12  1  0  0  0  0 
  1 11  1  0  0  0  0 
  2 14  1  0  0  0  0 
  2 15  1  0  0  0  0 
  3  1  1  0  0  0  0 
  3  8  1  0  0  0  0 
  4 18  1  6  0  0  0 
  4  5  1  0  0  0  0 
  4  2  1  0  0  0  0 
  4  9  1  0  0  0  0 
  5 19  1  1  0  0  0 
  5  9  1  0  0  0  0 
  6  5  1  0  0  0  0 
  7  6  2  0  0  0  0 
  8  6  1  0  0  0  0 
 10  1  1  0  0  0  0 
 13  2  1  0  0  0  0 
 16  3  1  0  0  0  0 
 17  3  1  0  0  0  0 
M  END 
>  <HBA> 
3 
 
>  <HBD> 
0 
 
>  <TPSA> 
38.83 
 
>  <cid> 
29774 
 
>  <dipole> 
2.82 
 
>  <excitation_energy_1> 
5.452 
 
>  <excitation_energy_2> 
6.161 
 
>  <excitation_energy_3> 
7.013 
 
>  <excitation_energy_4> 
7.138 
 
>  <homo_energy> 
-7.257 
 
>  <homo_lumo_gap> 
7.072 
 
>  <logP> 
0.337 
 
>  <lumo_energy> 
-0.185 
 
>  <melting_point> 
-0.49 
 
>  <molecular_refractivity> 
31.21 
 
>  <oscillator_strength_1> 
0.0009 
 
>  <oscillator_strength_2> 
0.0051 
 
>  <oscillator_strength_3> 
0.0177 
 
>  <oscillator_strength_4> 
0.2459 
 
>  <open_babel_can_smiles> 
CCOC(=O)[C@H]1O[C@@H]1C 
 
>  <mulliken_charges> 
19 
1   -0.462486 
2   -0.470278 
3   -0.047325 
4   0.10698 
5   -0.010931 
6   0.632191 
7   -0.478424 
8   -0.469758 
9   -0.431695 
10   0.15203 
11   0.159429 
12   0.180989 
13   0.156853 
14   0.168062 
15   0.162573 
16   0.154521 
17   0.17224 
18   0.166718 
19   0.158311 
 
>  <lowdin_charges> 
19 
1   -0.454814 
2   -0.44779 
3   -0.127233 
4   -0.005862 
5   -0.060101 
6   0.189726 
7   -0.258854 
8   -0.191533 
9   -0.257626 
10   0.160706 
11   0.15786 
12   0.166953 
13   0.162586 
14   0.164782 
15   0.16285 
16   0.152397 
17   0.160317 
18   0.161118 
19   0.164519 
 
$$$$ 
 
