PCCDB-ID:  6918 
public computational chemistry database (PCCDB) project, http://pccdb.org 
 
 12 12  0  0  0  0  0  0  0  0999 V2000 
   -1.1577   -0.0772    0.1387 C   0  0  0  0  0  0  0  0  0  0  0  0 
   -0.4571   -1.2434    0.0298 C   0  0  0  0  0  0  0  0  0  0  0  0 
    1.0041    0.7561   -0.1097 C   0  0  0  0  0  0  0  0  0  0  0  0 
   -0.3195    1.0872    0.0591 C   0  0  0  0  0  0  0  0  0  0  0  0 
   -0.7190    2.5211    0.1361 C   0  0  0  0  0  0  0  0  0  0  0  0 
    0.0683    3.4341    0.0523 O   0  0  0  0  0  0  0  0  0  0  0  0 
   -2.0432    2.7853    0.3098 O   0  0  0  0  0  0  0  0  0  0  0  0 
    1.2423   -0.9466   -0.1725 S   0  0  0  0  0  0  0  0  0  0  0  0 
   -2.2359   -0.0681    0.2705 H   0  0  0  0  0  0  0  0  0  0  0  0 
   -0.8353   -2.2563    0.0559 H   0  0  0  0  0  0  0  0  0  0  0  0 
    1.8288    1.4494   -0.1972 H   0  0  0  0  0  0  0  0  0  0  0  0 
   -2.5557    1.9634    0.3625 H   0  0  0  0  0  0  0  0  0  0  0  0 
  1  9  1  0  0  0  0 
  2 10  1  0  0  0  0 
  2  1  2  0  0  0  0 
  3  4  2  0  0  0  0 
  4  5  1  0  0  0  0 
  4  1  1  0  0  0  0 
  5  7  1  0  0  0  0 
  6  5  2  0  0  0  0 
  7 12  1  0  0  0  0 
  8  3  1  0  0  0  0 
  8  2  1  0  0  0  0 
 11  3  1  0  0  0  0 
M  END 
>  <HBA> 
3 
 
>  <HBD> 
1 
 
>  <TPSA> 
65.54 
 
>  <cid> 
6918 
 
>  <dipole> 
4.63 
 
>  <excitation_energy_1> 
4.848 
 
>  <excitation_energy_2> 
5.174 
 
>  <excitation_energy_3> 
5.454 
 
>  <excitation_energy_4> 
5.88 
 
>  <homo_energy> 
-7.015 
 
>  <homo_lumo_gap> 
5.69 
 
>  <logP> 
1.446 
 
>  <lumo_energy> 
-1.325 
 
>  <melting_point> 
93.87 
 
>  <molecular_refractivity> 
31.28 
 
>  <oscillator_strength_1> 
0.0 
 
>  <oscillator_strength_2> 
0.021 
 
>  <oscillator_strength_3> 
0.1094 
 
>  <oscillator_strength_4> 
0.0003 
 
>  <open_babel_can_smiles> 
OC(=O)c1cscc1 
 
>  <mulliken_charges> 
12 
1   -0.131495 
2   -0.357289 
3   -0.358785 
4   0.064044 
5   0.558615 
6   -0.454304 
7   -0.576491 
8   0.301628 
9   0.141218 
10   0.186727 
11   0.21321 
12   0.412922 
 
>  <lowdin_charges> 
12 
1   -0.18895 
2   -0.314375 
3   -0.285942 
4   -0.086193 
5   0.202294 
6   -0.246368 
7   -0.356995 
8   0.367726 
9   0.160427 
10   0.187444 
11   0.205071 
12   0.355858 
 
$$$$ 
 
