PCCDB-ID:  6657 
public computational chemistry database (PCCDB) project, http://pccdb.org 
 
 16 15  0  0  1  0  0  0  0  0999 V2000 
    3.1826   -0.8117    1.4467 C   0  0  0  0  0  0  0  0  0  0  0  0 
    2.7441   -0.0221    0.2076 C   0  0  0  0  0  0  0  0  0  0  0  0 
    3.2897    1.4201    0.1425 C   0  0  1  0  0  0  0  0  0  0  0  0 
    2.6422    2.2590    1.2732 C   0  0  0  0  0  0  0  0  0  0  0  0 
    4.7460    1.4265    0.0661 N   0  0  0  0  0  0  0  0  0  0  0  0 
    1.4477    2.3945    1.3802 O   0  0  0  0  0  0  0  0  0  0  0  0 
    3.4975    2.8374    2.1496 O   0  0  0  0  0  0  0  0  0  0  0  0 
    2.7154   -1.8020    1.4510 H   0  0  0  0  0  0  0  0  0  0  0  0 
    2.8873   -0.3062    2.3739 H   0  0  0  0  0  0  0  0  0  0  0  0 
    4.2675   -0.9734    1.4730 H   0  0  0  0  0  0  0  0  0  0  0  0 
    1.6522    0.0438    0.1829 H   0  0  0  0  0  0  0  0  0  0  0  0 
    3.0685   -0.5420   -0.7006 H   0  0  0  0  0  0  0  0  0  0  0  0 
    2.9169    1.8677   -0.7867 H   0  0  0  0  0  0  0  0  0  0  0  0 
    5.2221    0.9445    0.8206 H   0  0  0  0  0  0  0  0  0  0  0  0 
    5.1664    2.3294   -0.1248 H   0  0  0  0  0  0  0  0  0  0  0  0 
    4.4001    2.6028    1.8628 H   0  0  0  0  0  0  0  0  0  0  0  0 
  1  8  1  0  0  0  0 
  1 10  1  0  0  0  0 
  1  9  1  0  0  0  0 
  2  1  1  0  0  0  0 
  3 13  1  6  0  0  0 
  3  2  1  0  0  0  0 
  3  4  1  0  0  0  0 
  4  6  2  0  0  0  0 
  4  7  1  0  0  0  0 
  5  3  1  0  0  0  0 
  5 14  1  0  0  0  0 
 11  2  1  0  0  0  0 
 12  2  1  0  0  0  0 
 15  5  1  0  0  0  0 
 16  7  1  0  0  0  0 
M  END 
>  <HBA> 
3 
 
>  <HBD> 
2 
 
>  <TPSA> 
63.32 
 
>  <cid> 
6657 
 
>  <dipole> 
3.94 
 
>  <excitation_energy_1> 
5.279 
 
>  <excitation_energy_2> 
5.443 
 
>  <excitation_energy_3> 
6.567 
 
>  <excitation_energy_4> 
6.748 
 
>  <homo_energy> 
-6.563 
 
>  <homo_lumo_gap> 
6.895 
 
>  <logP> 
0.509 
 
>  <lumo_energy> 
0.332 
 
>  <melting_point> 
106.17 
 
>  <molecular_refractivity> 
25.82 
 
>  <oscillator_strength_1> 
0.0037 
 
>  <oscillator_strength_2> 
0.0122 
 
>  <oscillator_strength_3> 
0.0039 
 
>  <oscillator_strength_4> 
0.0014 
 
>  <open_babel_can_smiles> 
CC[C@@H](C(=O)O)N 
 
>  <mulliken_charges> 
16 
1   -0.47261 
2   -0.249275 
3   -0.06511 
4   0.576244 
5   -0.750035 
6   -0.453518 
7   -0.565036 
8   0.160366 
9   0.163361 
10   0.139022 
11   0.172579 
12   0.152183 
13   0.176662 
14   0.315482 
15   0.316883 
16   0.382803 
 
>  <lowdin_charges> 
16 
1   -0.451173 
2   -0.268635 
3   -0.105795 
4   0.166014 
5   -0.557132 
6   -0.248852 
7   -0.354463 
8   0.160432 
9   0.155844 
10   0.141246 
11   0.163133 
12   0.154019 
13   0.171561 
14   0.265437 
15   0.267346 
16   0.341016 
 
$$$$ 
 
