PCCDB-ID:  67066 
public computational chemistry database (PCCDB) project, http://pccdb.org 
 
 30 30  0  0  0  0  0  0  0  0999 V2000 
    2.1182    2.6201   -0.1093 C   0  0  0  0  0  0  0  0  0  0  0  0 
    2.5360    1.5161    0.5087 C   0  0  0  0  0  0  0  0  0  0  0  0 
    1.5915   -2.3479    3.3090 C   0  0  0  0  0  0  0  0  0  0  0  0 
    1.5299   -3.7338    3.1961 C   0  0  0  0  0  0  0  0  0  0  0  0 
    2.4573   -1.6271    2.4844 C   0  0  0  0  0  0  0  0  0  0  0  0 
    2.3489   -4.4024    2.2830 C   0  0  0  0  0  0  0  0  0  0  0  0 
    2.5965    0.1449   -0.1229 C   0  0  0  0  0  0  0  0  0  0  0  0 
    4.3873   -5.6336    0.6839 C   0  0  0  0  0  0  0  0  0  0  0  0 
    3.2785   -2.2628    1.5456 C   0  0  0  0  0  0  0  0  0  0  0  0 
    3.2280   -3.6714    1.4830 C   0  0  0  0  0  0  0  0  0  0  0  0 
    5.7603   -5.9114    0.0910 C   0  0  0  0  0  0  0  0  0  0  0  0 
    4.2007   -1.4614    0.6607 C   0  0  0  0  0  0  0  0  0  0  0  0 
    3.9293   -0.4251   -0.0213 N   0  0  0  0  0  0  0  0  0  0  0  0 
    6.0785   -6.9743   -0.3850 O   0  0  0  0  0  0  0  0  0  0  0  0 
    6.5928   -4.8575    0.2220 O   0  0  0  0  0  0  0  0  0  0  0  0 
    5.5022   -1.8714    0.6402 O   0  0  0  0  0  0  0  0  0  0  0  0 
    4.0991   -4.2516    0.5885 O   0  0  0  0  0  0  0  0  0  0  0  0 
    2.0739    3.5796    0.3989 H   0  0  0  0  0  0  0  0  0  0  0  0 
    1.8058    2.6072   -1.1516 H   0  0  0  0  0  0  0  0  0  0  0  0 
    2.8622    1.5751    1.5482 H   0  0  0  0  0  0  0  0  0  0  0  0 
    0.9715   -1.8259    4.0313 H   0  0  0  0  0  0  0  0  0  0  0  0 
    0.8480   -4.3070    3.8178 H   0  0  0  0  0  0  0  0  0  0  0  0 
    2.5141   -0.5483    2.5822 H   0  0  0  0  0  0  0  0  0  0  0  0 
    2.2887   -5.4819    2.1956 H   0  0  0  0  0  0  0  0  0  0  0  0 
    2.3677    0.2460   -1.1919 H   0  0  0  0  0  0  0  0  0  0  0  0 
    1.8094   -0.4933    0.3118 H   0  0  0  0  0  0  0  0  0  0  0  0 
    4.4096   -5.9631    1.7325 H   0  0  0  0  0  0  0  0  0  0  0  0 
    3.6524   -6.2411    0.1451 H   0  0  0  0  0  0  0  0  0  0  0  0 
    7.4488   -5.1188   -0.1676 H   0  0  0  0  0  0  0  0  0  0  0  0 
    5.5461   -2.8254    0.8252 H   0  0  0  0  0  0  0  0  0  0  0  0 
  1 18  1  0  0  0  0 
  1  2  2  0  0  0  0 
  2 20  1  0  0  0  0 
  3 21  1  0  0  0  0 
  4  3  1  0  0  0  0 
  4 22  1  0  0  0  0 
  5 23  1  0  0  0  0 
  5  3  2  0  0  0  0 
  6  4  2  0  0  0  0 
  7 13  1  0  0  0  0 
  7 26  1  0  0  0  0 
  7  2  1  0  0  0  0 
  8 27  1  0  0  0  0 
  9  5  1  0  0  0  0 
 10  9  2  0  0  0  0 
 10  6  1  0  0  0  0 
 11 15  1  0  0  0  0 
 11  8  1  0  0  0  0 
 12  9  1  0  0  0  0 
 13 12  2  0  0  0  0 
 14 11  2  0  0  0  0 
 16 12  1  0  0  0  0 
 16 30  1  0  0  0  0 
 17  8  1  0  0  0  0 
 17 10  1  0  0  0  0 
 19  1  1  0  0  0  0 
 24  6  1  0  0  0  0 
 25  7  1  0  0  0  0 
 28  8  1  0  0  0  0 
 29 15  1  0  0  0  0 
M  END 
>  <HBA> 
5 
 
>  <HBD> 
2 
 
>  <TPSA> 
75.63 
 
>  <cid> 
67066 
 
>  <dipole> 
4.45 
 
>  <excitation_energy_1> 
4.381 
 
>  <excitation_energy_2> 
4.799 
 
>  <excitation_energy_3> 
5.01 
 
>  <excitation_energy_4> 
5.131 
 
>  <homo_energy> 
-6.264 
 
>  <homo_lumo_gap> 
5.32 
 
>  <logP> 
1.457 
 
>  <lumo_energy> 
-0.944 
 
>  <melting_point> 
126.07 
 
>  <molecular_refractivity> 
61.65 
 
>  <oscillator_strength_1> 
0.0017 
 
>  <oscillator_strength_2> 
0.1157 
 
>  <oscillator_strength_3> 
0.019 
 
>  <oscillator_strength_4> 
0.0084 
 
>  <open_babel_can_smiles> 
C=CC/N=C(\c1ccccc1OCC(=O)O)/O 
 
>  <mulliken_charges> 
30 
1   -0.340291 
2   -0.027621 
3   -0.130894 
4   -0.135151 
5   -0.178684 
6   -0.188322 
7   -0.206364 
8   -0.111683 
9   0.022388 
10   0.331383 
11   0.567458 
12   0.423542 
13   -0.400783 
14   -0.442973 
15   -0.549154 
16   -0.61019 
17   -0.534071 
18   0.138452 
19   0.137237 
20   0.126124 
21   0.139697 
22   0.14187 
23   0.156286 
24   0.143989 
25   0.151868 
26   0.135684 
27   0.185136 
28   0.191843 
29   0.425651 
30   0.43757 
 
>  <lowdin_charges> 
30 
1   -0.334464 
2   -0.144482 
3   -0.169669 
4   -0.139868 
5   -0.137053 
6   -0.205402 
7   -0.199884 
8   -0.150049 
9   -0.060556 
10   0.097668 
11   0.187091 
12   0.128456 
13   -0.193442 
14   -0.243757 
15   -0.338725 
16   -0.373928 
17   -0.201633 
18   0.157929 
19   0.153951 
20   0.145879 
21   0.165509 
22   0.165517 
23   0.168404 
24   0.164126 
25   0.151353 
26   0.137239 
27   0.17059 
28   0.174738 
29   0.373209 
30   0.351255 
 
$$$$ 
 
