PCCDB-ID:  54219 
public computational chemistry database (PCCDB) project, http://pccdb.org 
 
 35 36  0  0  1  0  0  0  0  0999 V2000 
   -0.7411    0.7770   -2.6838 C   0  0  0  0  0  0  0  0  0  0  0  0 
    5.1598   -1.2208   -0.4892 C   0  0  0  0  0  0  0  0  0  0  0  0 
   -0.1818    1.4037   -1.5688 C   0  0  0  0  0  0  0  0  0  0  0  0 
    0.0649   -0.0153   -3.5034 C   0  0  0  0  0  0  0  0  0  0  0  0 
    3.6838   -0.9999   -0.8415 C   0  0  0  0  0  0  0  0  0  0  0  0 
    5.3892   -2.4404    0.4132 C   0  0  0  0  0  0  0  0  0  0  0  0 
    1.1726    1.2361   -1.2773 C   0  0  0  0  0  0  0  0  0  0  0  0 
    1.4185   -0.1792   -3.2067 C   0  0  0  0  0  0  0  0  0  0  0  0 
    3.4524    0.2273   -1.7461 C   0  0  0  0  0  0  0  0  0  0  0  0 
    6.8733   -2.6561    0.7518 C   0  0  0  0  0  0  0  0  0  0  0  0 
    7.0211   -3.6440    3.1564 C   0  0  0  0  0  0  0  0  0  0  0  0 
    1.9934    0.4419   -2.0894 C   0  0  0  0  0  0  0  0  0  0  0  0 
    6.9420   -5.2401    1.1987 C   0  0  0  0  0  0  0  0  0  0  0  0 
    7.1265   -3.8185    1.6929 C   0  0  1  0  0  0  0  0  0  0  0  0 
    6.9851   -6.2262    1.8979 O   0  0  0  0  0  0  0  0  0  0  0  0 
    6.7363   -5.3000   -0.1398 O   0  0  0  0  0  0  0  0  0  0  0  0 
    8.2990   -3.7133    2.5282 O   0  0  0  0  0  0  0  0  0  0  0  0 
   -1.7948    0.9087   -2.9147 H   0  0  0  0  0  0  0  0  0  0  0  0 
    5.5549   -0.3212    0.0057 H   0  0  0  0  0  0  0  0  0  0  0  0 
    5.7428   -1.3392   -1.4144 H   0  0  0  0  0  0  0  0  0  0  0  0 
   -0.7991    2.0277   -0.9275 H   0  0  0  0  0  0  0  0  0  0  0  0 
   -0.3592   -0.5028   -4.3776 H   0  0  0  0  0  0  0  0  0  0  0  0 
    3.0973   -0.8800    0.0801 H   0  0  0  0  0  0  0  0  0  0  0  0 
    3.2852   -1.8942   -1.3405 H   0  0  0  0  0  0  0  0  0  0  0  0 
    4.9910   -3.3359   -0.0798 H   0  0  0  0  0  0  0  0  0  0  0  0 
    4.8185   -2.3165    1.3449 H   0  0  0  0  0  0  0  0  0  0  0  0 
    1.6020    1.7325   -0.4092 H   0  0  0  0  0  0  0  0  0  0  0  0 
    2.0410   -0.7939   -3.8540 H   0  0  0  0  0  0  0  0  0  0  0  0 
    4.0351    0.1053   -2.6691 H   0  0  0  0  0  0  0  0  0  0  0  0 
    3.8484    1.1199   -1.2435 H   0  0  0  0  0  0  0  0  0  0  0  0 
    7.2792   -1.7607    1.2381 H   0  0  0  0  0  0  0  0  0  0  0  0 
    7.4489   -2.8050   -0.1694 H   0  0  0  0  0  0  0  0  0  0  0  0 
    6.7626   -4.4992    3.7768 H   0  0  0  0  0  0  0  0  0  0  0  0 
    6.7390   -2.6618    3.5373 H   0  0  0  0  0  0  0  0  0  0  0  0 
    6.6440   -6.2478   -0.3541 H   0  0  0  0  0  0  0  0  0  0  0  0 
  1  3  2  0  0  0  0 
  2 19  1  0  0  0  0 
  2  6  1  0  0  0  0 
  3  7  1  0  0  0  0 
  3 21  1  0  0  0  0 
  4  8  2  0  0  0  0 
  4  1  1  0  0  0  0 
  5  2  1  0  0  0  0 
  5 23  1  0  0  0  0 
  6 10  1  0  0  0  0 
  6 26  1  0  0  0  0 
  7 27  1  0  0  0  0 
  8 12  1  0  0  0  0 
  9 30  1  0  0  0  0 
  9  5  1  0  0  0  0 
 10 31  1  0  0  0  0 
 10 14  1  0  0  0  0 
 11 34  1  0  0  0  0 
 11 33  1  0  0  0  0 
 12  9  1  0  0  0  0 
 12  7  2  0  0  0  0 
 13 15  2  0  0  0  0 
 14 13  1  6  0  0  0 
 14 17  1  0  0  0  0 
 14 11  1  0  0  0  0 
 16 13  1  0  0  0  0 
 17 11  1  0  0  0  0 
 18  1  1  0  0  0  0 
 20  2  1  0  0  0  0 
 22  4  1  0  0  0  0 
 24  5  1  0  0  0  0 
 25  6  1  0  0  0  0 
 28  8  1  0  0  0  0 
 29  9  1  0  0  0  0 
 32 10  1  0  0  0  0 
 35 16  1  0  0  0  0 
M  END 
>  <HBA> 
3 
 
>  <HBD> 
1 
 
>  <TPSA> 
49.83 
 
>  <cid> 
54219 
 
>  <dipole> 
2.43 
 
>  <excitation_energy_1> 
5.299 
 
>  <excitation_energy_2> 
5.313 
 
>  <excitation_energy_3> 
5.527 
 
>  <excitation_energy_4> 
5.779 
 
>  <homo_energy> 
-6.476 
 
>  <homo_lumo_gap> 
6.068 
 
>  <logP> 
2.643 
 
>  <lumo_energy> 
-0.408 
 
>  <melting_point> 
104.31 
 
>  <molecular_refractivity> 
65.84 
 
>  <oscillator_strength_1> 
0.0009 
 
>  <oscillator_strength_2> 
0.0013 
 
>  <oscillator_strength_3> 
0.0023 
 
>  <oscillator_strength_4> 
0.0001 
 
>  <open_babel_can_smiles> 
OC(=O)[C@]1(CCCCCc2ccccc2)OC1 
 
>  <mulliken_charges> 
35 
1   -0.131682 
2   -0.252741 
3   -0.127998 
4   -0.128052 
5   -0.250142 
6   -0.267615 
7   -0.180567 
8   -0.180279 
9   -0.35009 
10   -0.305013 
11   -0.114131 
12   0.173192 
13   0.581698 
14   0.236111 
15   -0.458246 
16   -0.57341 
17   -0.445969 
18   0.127268 
19   0.130083 
20   0.133734 
21   0.127531 
22   0.127494 
23   0.135906 
24   0.136996 
25   0.149132 
26   0.130939 
27   0.120381 
28   0.12063 
29   0.140259 
30   0.139586 
31   0.149314 
32   0.159226 
33   0.179164 
34   0.15276 
35   0.414532 
 
>  <lowdin_charges> 
35 
1   -0.160529 
2   -0.274533 
3   -0.156946 
4   -0.155685 
5   -0.272241 
6   -0.27824 
7   -0.168753 
8   -0.169786 
9   -0.273534 
10   -0.278126 
11   -0.154293 
12   0.000241 
13   0.193535 
14   0.072916 
15   -0.252686 
16   -0.350499 
17   -0.256419 
18   0.155174 
19   0.139147 
20   0.14088 
21   0.158014 
22   0.15706 
23   0.142545 
24   0.143449 
25   0.148258 
26   0.139481 
27   0.153617 
28   0.154615 
29   0.147802 
30   0.147863 
31   0.157952 
32   0.159096 
33   0.171892 
34   0.155311 
35   0.363423 
 
$$$$ 
 
