PCCDB-ID:  69191 
public computational chemistry database (PCCDB) project, http://pccdb.org 
 
 30 31  0  0  0  0  0  0  0  0999 V2000 
    0.8507   -0.8015    0.6996 C   0  0  0  0  0  0  0  0  0  0  0  0 
    5.8236   -2.5247   -1.1204 C   0  0  0  0  0  0  0  0  0  0  0  0 
    1.4502    3.8910    2.6480 C   0  0  0  0  0  0  0  0  0  0  0  0 
    5.0319   -2.2398   -2.2345 C   0  0  0  0  0  0  0  0  0  0  0  0 
    5.5207   -1.9354    0.1086 C   0  0  0  0  0  0  0  0  0  0  0  0 
    2.5964    3.6163    1.8976 C   0  0  0  0  0  0  0  0  0  0  0  0 
    0.4272    2.9449    2.6737 C   0  0  0  0  0  0  0  0  0  0  0  0 
    3.9467   -1.3705   -2.1163 C   0  0  0  0  0  0  0  0  0  0  0  0 
    4.4374   -1.0628    0.2226 C   0  0  0  0  0  0  0  0  0  0  0  0 
    2.7199    2.4248    1.1903 C   0  0  0  0  0  0  0  0  0  0  0  0 
    0.5318    1.7519    1.9575 C   0  0  0  0  0  0  0  0  0  0  0  0 
    2.4895    0.2236   -0.7965 C   0  0  0  0  0  0  0  0  0  0  0  0 
    3.6414   -0.7675   -0.8902 C   0  0  0  0  0  0  0  0  0  0  0  0 
    1.6829    1.4661    1.1967 C   0  0  0  0  0  0  0  0  0  0  0  0 
    1.8257    0.2559    0.5032 N   0  0  0  0  0  0  0  0  0  0  0  0 
    1.2538   -1.7287    0.2822 H   0  0  0  0  0  0  0  0  0  0  0  0 
   -0.1186   -0.5972    0.2118 H   0  0  0  0  0  0  0  0  0  0  0  0 
    0.6734   -0.9640    1.7668 H   0  0  0  0  0  0  0  0  0  0  0  0 
    6.6661   -3.2055   -1.2080 H   0  0  0  0  0  0  0  0  0  0  0  0 
    1.3614    4.8196    3.2042 H   0  0  0  0  0  0  0  0  0  0  0  0 
    5.2534   -2.7003   -3.1938 H   0  0  0  0  0  0  0  0  0  0  0  0 
    6.1285   -2.1564    0.9824 H   0  0  0  0  0  0  0  0  0  0  0  0 
    3.4152    4.3312    1.8723 H   0  0  0  0  0  0  0  0  0  0  0  0 
   -0.4767    3.1357    3.2474 H   0  0  0  0  0  0  0  0  0  0  0  0 
    3.3281   -1.1587   -2.9866 H   0  0  0  0  0  0  0  0  0  0  0  0 
    4.1916   -0.6131    1.1804 H   0  0  0  0  0  0  0  0  0  0  0  0 
    3.6415    2.2198    0.6539 H   0  0  0  0  0  0  0  0  0  0  0  0 
   -0.2962    1.0524    1.9787 H   0  0  0  0  0  0  0  0  0  0  0  0 
    1.7527   -0.0093   -1.5833 H   0  0  0  0  0  0  0  0  0  0  0  0 
    2.8520    1.2304   -1.0248 H   0  0  0  0  0  0  0  0  0  0  0  0 
  1 18  1  0  0  0  0 
  2  5  2  0  0  0  0 
  3  7  1  0  0  0  0 
  3 20  1  0  0  0  0 
  4  8  2  0  0  0  0 
  4  2  1  0  0  0  0 
  5  9  1  0  0  0  0 
  5 22  1  0  0  0  0 
  6  3  2  0  0  0  0 
  7 24  1  0  0  0  0 
  8 13  1  0  0  0  0 
  9 26  1  0  0  0  0 
 10 14  2  0  0  0  0 
 10  6  1  0  0  0  0 
 11 28  1  0  0  0  0 
 11  7  2  0  0  0  0 
 12 15  1  0  0  0  0 
 13 12  1  0  0  0  0 
 13  9  2  0  0  0  0 
 14 11  1  0  0  0  0 
 15  1  1  0  0  0  0 
 15 14  1  0  0  0  0 
 16  1  1  0  0  0  0 
 17  1  1  0  0  0  0 
 19  2  1  0  0  0  0 
 21  4  1  0  0  0  0 
 23  6  1  0  0  0  0 
 25  8  1  0  0  0  0 
 27 10  1  0  0  0  0 
 29 12  1  0  0  0  0 
 30 12  1  0  0  0  0 
M  END 
>  <HBA> 
1 
 
>  <HBD> 
0 
 
>  <TPSA> 
3.24 
 
>  <cid> 
69191 
 
>  <dipole> 
1.26 
 
>  <excitation_energy_1> 
4.265 
 
>  <excitation_energy_2> 
4.331 
 
>  <excitation_energy_3> 
4.511 
 
>  <excitation_energy_4> 
4.699 
 
>  <homo_energy> 
-5.14 
 
>  <homo_lumo_gap> 
5.099 
 
>  <logP> 
3.323 
 
>  <lumo_energy> 
-0.041 
 
>  <melting_point> 
43.05 
 
>  <molecular_refractivity> 
65.14 
 
>  <oscillator_strength_1> 
0.0176 
 
>  <oscillator_strength_2> 
0.0054 
 
>  <oscillator_strength_3> 
0.0222 
 
>  <oscillator_strength_4> 
0.059 
 
>  <open_babel_can_smiles> 
CN(c1ccccc1)Cc1ccccc1 
 
>  <mulliken_charges> 
30 
1   -0.315912 
2   -0.129335 
3   -0.13577 
4   -0.128332 
5   -0.131075 
6   -0.137429 
7   -0.137033 
8   -0.186897 
9   -0.171778 
10   -0.183518 
11   -0.194569 
12   -0.226433 
13   0.152505 
14   0.338248 
15   -0.471654 
16   0.165224 
17   0.139173 
18   0.164929 
19   0.128249 
20   0.119993 
21   0.128678 
22   0.129912 
23   0.124403 
24   0.123463 
25   0.121221 
26   0.143815 
27   0.130658 
28   0.123329 
29   0.143046 
30   0.172889 
 
>  <lowdin_charges> 
30 
1   -0.353077 
2   -0.159536 
3   -0.186253 
4   -0.154953 
5   -0.154949 
6   -0.14929 
7   -0.147367 
8   -0.170411 
9   -0.164586 
10   -0.202202 
11   -0.210446 
12   -0.194314 
13   -0.017891 
14   0.056286 
15   -0.126274 
16   0.161161 
17   0.133787 
18   0.157192 
19   0.157257 
20   0.15429 
21   0.156923 
22   0.15809 
23   0.156029 
24   0.154959 
25   0.153989 
26   0.165079 
27   0.157909 
28   0.158819 
29   0.143833 
30   0.165944 
 
$$$$ 
 
