PCCDB-ID:  43263 
public computational chemistry database (PCCDB) project, http://pccdb.org 
 
 29 28  0  0  1  0  0  0  0  0999 V2000 
    1.0733    0.1809   -2.6704 C   0  0  0  0  0  0  0  0  0  0  0  0 
    7.9372   -4.2599   -4.9376 C   0  0  0  0  0  0  0  0  0  0  0  0 
    4.7745   -1.4807    0.4303 C   0  0  0  0  0  0  0  0  0  0  0  0 
    2.5759   -0.0693   -2.5089 C   0  0  0  0  0  0  0  0  0  0  0  0 
    7.7508   -3.1816   -3.8664 C   0  0  0  0  0  0  0  0  0  0  0  0 
    2.9340   -0.6864   -1.1512 C   0  0  0  0  0  0  0  0  0  0  0  0 
    6.2902   -3.0344   -3.4346 C   0  0  0  0  0  0  0  0  0  0  0  0 
    4.4252   -0.9556   -0.9587 C   0  0  2  0  0  0  0  0  0  0  0  0 
    6.0808   -1.9577   -2.3857 C   0  0  0  0  0  0  0  0  0  0  0  0 
    6.9356   -1.1956   -1.9852 O   0  0  0  0  0  0  0  0  0  0  0  0 
    4.7975   -1.9520   -1.9572 O   0  0  0  0  0  0  0  0  0  0  0  0 
    0.8455    0.6179   -3.6492 H   0  0  0  0  0  0  0  0  0  0  0  0 
    0.6985    0.8696   -1.9031 H   0  0  0  0  0  0  0  0  0  0  0  0 
    0.5043   -0.7528   -2.5823 H   0  0  0  0  0  0  0  0  0  0  0  0 
    8.9895   -4.3473   -5.2296 H   0  0  0  0  0  0  0  0  0  0  0  0 
    7.3596   -4.0299   -5.8416 H   0  0  0  0  0  0  0  0  0  0  0  0 
    7.6091   -5.2431   -4.5781 H   0  0  0  0  0  0  0  0  0  0  0  0 
    4.5059   -0.7404    1.1924 H   0  0  0  0  0  0  0  0  0  0  0  0 
    5.8480   -1.6739    0.5072 H   0  0  0  0  0  0  0  0  0  0  0  0 
    4.2301   -2.4076    0.6435 H   0  0  0  0  0  0  0  0  0  0  0  0 
    3.1208    0.8776   -2.6305 H   0  0  0  0  0  0  0  0  0  0  0  0 
    2.9282   -0.7332   -3.3075 H   0  0  0  0  0  0  0  0  0  0  0  0 
    8.1140   -2.2155   -4.2352 H   0  0  0  0  0  0  0  0  0  0  0  0 
    8.3636   -3.4150   -2.9874 H   0  0  0  0  0  0  0  0  0  0  0  0 
    2.3839   -1.6276   -1.0115 H   0  0  0  0  0  0  0  0  0  0  0  0 
    2.6105   -0.0136   -0.3445 H   0  0  0  0  0  0  0  0  0  0  0  0 
    5.8947   -3.9784   -3.0371 H   0  0  0  0  0  0  0  0  0  0  0  0 
    5.6507   -2.7910   -4.2949 H   0  0  0  0  0  0  0  0  0  0  0  0 
    5.0076   -0.0522   -1.1667 H   0  0  0  0  0  0  0  0  0  0  0  0 
  1 14  1  0  0  0  0 
  1  4  1  0  0  0  0 
  1 13  1  0  0  0  0 
  2 17  1  0  0  0  0 
  2  5  1  0  0  0  0 
  3 19  1  0  0  0  0 
  3 20  1  0  0  0  0 
  3 18  1  0  0  0  0 
  4  6  1  0  0  0  0 
  5  7  1  0  0  0  0 
  5 24  1  0  0  0  0 
  6 25  1  0  0  0  0 
  6  8  1  0  0  0  0 
  6 26  1  0  0  0  0 
  7 27  1  0  0  0  0 
  7  9  1  0  0  0  0 
  8 29  1  6  0  0  0 
  8  3  1  0  0  0  0 
  9 10  2  0  0  0  0 
  9 11  1  0  0  0  0 
 11  8  1  0  0  0  0 
 12  1  1  0  0  0  0 
 15  2  1  0  0  0  0 
 16  2  1  0  0  0  0 
 21  4  1  0  0  0  0 
 22  4  1  0  0  0  0 
 23  5  1  0  0  0  0 
 28  7  1  0  0  0  0 
M  END 
>  <HBA> 
2 
 
>  <HBD> 
0 
 
>  <TPSA> 
26.3 
 
>  <cid> 
43263 
 
>  <dipole> 
1.7 
 
>  <excitation_energy_1> 
5.819 
 
>  <excitation_energy_2> 
6.967 
 
>  <excitation_energy_3> 
7.385 
 
>  <excitation_energy_4> 
7.452 
 
>  <homo_energy> 
-7.206 
 
>  <homo_lumo_gap> 
7.714 
 
>  <logP> 
2.518 
 
>  <lumo_energy> 
0.509 
 
>  <melting_point> 
-16.11 
 
>  <molecular_refractivity> 
46.66 
 
>  <oscillator_strength_1> 
0.0007 
 
>  <oscillator_strength_2> 
0.0295 
 
>  <oscillator_strength_3> 
0.0073 
 
>  <oscillator_strength_4> 
0.007 
 
>  <open_babel_can_smiles> 
CCC[C@H](OC(=O)CCC)C 
 
>  <mulliken_charges> 
29 
1   -0.443083 
2   -0.44684 
3   -0.463341 
4   -0.254799 
5   -0.242323 
6   -0.26084 
7   -0.356393 
8   0.128241 
9   0.629131 
10   -0.483003 
11   -0.480579 
12   0.144481 
13   0.141325 
14   0.143304 
15   0.147746 
16   0.141452 
17   0.14148 
18   0.147161 
19   0.171927 
20   0.149437 
21   0.132614 
22   0.14637 
23   0.153554 
24   0.148506 
25   0.138823 
26   0.134277 
27   0.166455 
28   0.167898 
29   0.157019 
 
>  <lowdin_charges> 
29 
1   -0.444673 
2   -0.443414 
3   -0.45302 
4   -0.275572 
5   -0.268733 
6   -0.281735 
7   -0.304318 
8   0.008324 
9   0.200972 
10   -0.271107 
11   -0.200331 
12   0.150567 
13   0.147012 
14   0.147343 
15   0.151478 
16   0.146571 
17   0.145862 
18   0.157203 
19   0.163985 
20   0.153162 
21   0.140424 
22   0.14745 
23   0.152541 
24   0.150584 
25   0.146226 
26   0.147898 
27   0.165592 
28   0.167028 
29   0.152682 
 
$$$$ 
 
