PCCDB-ID:  19156 
public computational chemistry database (PCCDB) project, http://pccdb.org 
 
 38 37  0  0  0  0  0  0  0  0999 V2000 
    2.6166    1.0759    0.8675 C   0  0  0  0  0  0  0  0  0  0  0  0 
    0.9064    0.1700   -0.7355 C   0  0  0  0  0  0  0  0  0  0  0  0 
    5.3045   -0.9495   -0.4248 C   0  0  0  0  0  0  0  0  0  0  0  0 
    5.8564    0.7695   -2.1921 C   0  0  0  0  0  0  0  0  0  0  0  0 
    0.8441   -0.9580   -5.6485 C   0  0  0  0  0  0  0  0  0  0  0  0 
    2.9821   -2.0117   -5.4036 C   0  0  0  0  0  0  0  0  0  0  0  0 
    3.1277   -0.6957   -2.6541 C   0  0  0  0  0  0  0  0  0  0  0  0 
    2.3031   -0.2432   -3.8707 C   0  0  0  0  0  0  0  0  0  0  0  0 
    3.0909    1.7403   -2.0436 C   0  0  0  0  0  0  0  0  0  0  0  0 
    2.3871    0.1270   -0.3203 C   0  0  0  0  0  0  0  0  0  0  0  0 
    4.8805    0.3808   -1.0680 C   0  0  0  0  0  0  0  0  0  0  0  0 
    3.3690    0.3806   -1.5340 C   0  0  0  0  0  0  0  0  0  0  0  0 
    2.8712    2.8234   -2.4033 N   0  0  0  0  0  0  0  0  0  0  0  0 
    1.8758   -1.3695   -4.7031 N   0  0  0  0  0  0  0  0  0  0  0  0 
    1.8726    0.8774    1.6469 H   0  0  0  0  0  0  0  0  0  0  0  0 
    2.5079    2.1241    0.5655 H   0  0  0  0  0  0  0  0  0  0  0  0 
    3.6039    0.9527    1.3226 H   0  0  0  0  0  0  0  0  0  0  0  0 
    0.2740   -0.0549    0.1306 H   0  0  0  0  0  0  0  0  0  0  0  0 
    0.6670   -0.5630   -1.5117 H   0  0  0  0  0  0  0  0  0  0  0  0 
    0.6248    1.1640   -1.1022 H   0  0  0  0  0  0  0  0  0  0  0  0 
    6.3539   -0.8887   -0.1153 H   0  0  0  0  0  0  0  0  0  0  0  0 
    5.2203   -1.7879   -1.1258 H   0  0  0  0  0  0  0  0  0  0  0  0 
    4.7149   -1.1923    0.4645 H   0  0  0  0  0  0  0  0  0  0  0  0 
    6.8685    0.8632   -1.7828 H   0  0  0  0  0  0  0  0  0  0  0  0 
    5.5909    1.7289   -2.6472 H   0  0  0  0  0  0  0  0  0  0  0  0 
    5.8984    0.0160   -2.9870 H   0  0  0  0  0  0  0  0  0  0  0  0 
    0.4954   -1.8301   -6.2124 H   0  0  0  0  0  0  0  0  0  0  0  0 
    1.1938   -0.1993   -6.3758 H   0  0  0  0  0  0  0  0  0  0  0  0 
   -0.0106   -0.5392   -5.1065 H   0  0  0  0  0  0  0  0  0  0  0  0 
    2.5992   -2.8511   -5.9938 H   0  0  0  0  0  0  0  0  0  0  0  0 
    3.7099   -2.4146   -4.6934 H   0  0  0  0  0  0  0  0  0  0  0  0 
    3.5159   -1.3250   -6.0912 H   0  0  0  0  0  0  0  0  0  0  0  0 
    4.0978   -1.0578   -3.0022 H   0  0  0  0  0  0  0  0  0  0  0  0 
    2.6236   -1.5579   -2.2053 H   0  0  0  0  0  0  0  0  0  0  0  0 
    2.8783    0.5027   -4.4532 H   0  0  0  0  0  0  0  0  0  0  0  0 
    1.3979    0.2688   -3.5297 H   0  0  0  0  0  0  0  0  0  0  0  0 
    2.6033   -0.8961    0.0123 H   0  0  0  0  0  0  0  0  0  0  0  0 
    4.9655    1.1620   -0.3042 H   0  0  0  0  0  0  0  0  0  0  0  0 
  1 17  1  0  0  0  0 
  1 15  1  0  0  0  0 
  2 10  1  0  0  0  0 
  2 18  1  0  0  0  0 
  3 21  1  0  0  0  0 
  3 23  1  0  0  0  0 
  4 24  1  0  0  0  0 
  4 11  1  0  0  0  0 
  5 29  1  0  0  0  0 
  5 14  1  0  0  0  0 
  6 14  1  0  0  0  0 
  6 31  1  0  0  0  0 
  7 34  1  0  0  0  0 
  7 12  1  0  0  0  0 
  8 36  1  0  0  0  0 
  8  7  1  0  0  0  0 
  9 12  1  0  0  0  0 
 10 37  1  0  0  0  0 
 10  1  1  0  0  0  0 
 11  3  1  0  0  0  0 
 11 38  1  0  0  0  0 
 12 11  1  0  0  0  0 
 12 10  1  0  0  0  0 
 13  9  3  0  0  0  0 
 14  8  1  0  0  0  0 
 16  1  1  0  0  0  0 
 19  2  1  0  0  0  0 
 20  2  1  0  0  0  0 
 22  3  1  0  0  0  0 
 25  4  1  0  0  0  0 
 26  4  1  0  0  0  0 
 27  5  1  0  0  0  0 
 28  5  1  0  0  0  0 
 30  6  1  0  0  0  0 
 32  6  1  0  0  0  0 
 33  7  1  0  0  0  0 
 35  8  1  0  0  0  0 
M  END 
>  <HBA> 
2 
 
>  <HBD> 
0 
 
>  <TPSA> 
27.03 
 
>  <cid> 
19156 
 
>  <dipole> 
3.35 
 
>  <excitation_energy_1> 
5.289 
 
>  <excitation_energy_2> 
5.554 
 
>  <excitation_energy_3> 
5.665 
 
>  <excitation_energy_4> 
5.852 
 
>  <homo_energy> 
-5.807 
 
>  <homo_lumo_gap> 
6.961 
 
>  <logP> 
2.76 
 
>  <lumo_energy> 
1.154 
 
>  <melting_point> 
24.68 
 
>  <molecular_refractivity> 
62.18 
 
>  <oscillator_strength_1> 
0.0046 
 
>  <oscillator_strength_2> 
0.0195 
 
>  <oscillator_strength_3> 
0.0126 
 
>  <oscillator_strength_4> 
0.0275 
 
>  <open_babel_can_smiles> 
N#CC(C(C)C)(C(C)C)CCN(C)C 
 
>  <mulliken_charges> 
38 
1   -0.467828 
2   -0.469221 
3   -0.461527 
4   -0.467295 
5   -0.295016 
6   -0.302729 
7   -0.311262 
8   -0.129639 
9   0.355942 
10   -0.091419 
11   -0.097063 
12   0.051912 
13   -0.51942 
14   -0.377048 
15   0.147169 
16   0.168356 
17   0.149144 
18   0.146609 
19   0.159421 
20   0.165665 
21   0.151206 
22   0.150328 
23   0.152579 
24   0.148247 
25   0.173009 
26   0.145573 
27   0.147285 
28   0.122363 
29   0.150776 
30   0.150126 
31   0.150264 
32   0.119733 
33   0.152018 
34   0.161963 
35   0.129836 
36   0.153761 
37   0.138072 
38   0.148107 
 
>  <lowdin_charges> 
38 
1   -0.452075 
2   -0.453364 
3   -0.449284 
4   -0.451497 
5   -0.358131 
6   -0.362968 
7   -0.280514 
8   -0.207895 
9   -0.012204 
10   -0.114312 
11   -0.118673 
12   0.001277 
13   -0.150805 
14   -0.185073 
15   0.155222 
16   0.159871 
17   0.150139 
18   0.154109 
19   0.156861 
20   0.158423 
21   0.154883 
22   0.151673 
23   0.152619 
24   0.153686 
25   0.164285 
26   0.147622 
27   0.150191 
28   0.123837 
29   0.151309 
30   0.152334 
31   0.149977 
32   0.122817 
33   0.150787 
34   0.157744 
35   0.128625 
36   0.152665 
37   0.143914 
38   0.151925 
 
$$$$ 
 
