PCCDB-ID:  69138 
public computational chemistry database (PCCDB) project, http://pccdb.org 
 
 18 18  0  0  0  0  0  0  0  0999 V2000 
    2.9125    1.2257   -0.0741 C   0  0  0  0  0  0  0  0  0  0  0  0 
    3.4716   -3.5504    0.3454 C   0  0  0  0  0  0  0  0  0  0  0  0 
    4.7183   -3.6062   -0.2725 C   0  0  0  0  0  0  0  0  0  0  0  0 
    2.7293   -2.3697    0.2996 C   0  0  0  0  0  0  0  0  0  0  0  0 
    5.1958   -2.4805   -0.9473 C   0  0  0  0  0  0  0  0  0  0  0  0 
    3.1845   -1.2268   -0.3748 C   0  0  0  0  0  0  0  0  0  0  0  0 
    4.4415   -1.3102   -1.0179 C   0  0  0  0  0  0  0  0  0  0  0  0 
    2.3769   -0.0792   -0.4712 N   0  0  0  0  0  0  0  0  0  0  0  0 
    4.8771   -0.2116   -1.7210 O   0  0  0  0  0  0  0  0  0  0  0  0 
    2.1257    1.9743   -0.2094 H   0  0  0  0  0  0  0  0  0  0  0  0 
    3.7532    1.4903   -0.7151 H   0  0  0  0  0  0  0  0  0  0  0  0 
    3.2504    1.2584    0.9752 H   0  0  0  0  0  0  0  0  0  0  0  0 
    3.0793   -4.4134    0.8757 H   0  0  0  0  0  0  0  0  0  0  0  0 
    5.3176   -4.5112   -0.2376 H   0  0  0  0  0  0  0  0  0  0  0  0 
    1.7635   -2.3217    0.7995 H   0  0  0  0  0  0  0  0  0  0  0  0 
    6.1637   -2.5123   -1.4466 H   0  0  0  0  0  0  0  0  0  0  0  0 
    1.4833   -0.2486   -0.0210 H   0  0  0  0  0  0  0  0  0  0  0  0 
    5.7325   -0.4275   -2.1235 H   0  0  0  0  0  0  0  0  0  0  0  0 
  1 12  1  0  0  0  0 
  2 13  1  0  0  0  0 
  3 14  1  0  0  0  0 
  3  2  2  0  0  0  0 
  4  2  1  0  0  0  0 
  4 15  1  0  0  0  0 
  5  3  1  0  0  0  0 
  6  4  2  0  0  0  0 
  7  5  2  0  0  0  0 
  7  6  1  0  0  0  0 
  8  6  1  0  0  0  0 
  8  1  1  0  0  0  0 
  8 17  1  0  0  0  0 
  9  7  1  0  0  0  0 
 10  1  1  0  0  0  0 
 11  1  1  0  0  0  0 
 16  5  1  0  0  0  0 
 18  9  1  0  0  0  0 
M  END 
>  <HBA> 
2 
 
>  <HBD> 
2 
 
>  <TPSA> 
32.26 
 
>  <cid> 
69138 
 
>  <dipole> 
0.84 
 
>  <excitation_energy_1> 
4.543 
 
>  <excitation_energy_2> 
4.608 
 
>  <excitation_energy_3> 
4.818 
 
>  <excitation_energy_4> 
5.146 
 
>  <homo_energy> 
-5.124 
 
>  <homo_lumo_gap> 
5.456 
 
>  <logP> 
1.507 
 
>  <lumo_energy> 
0.332 
 
>  <melting_point> 
78.84 
 
>  <molecular_refractivity> 
37.77 
 
>  <oscillator_strength_1> 
0.064 
 
>  <oscillator_strength_2> 
0.0092 
 
>  <oscillator_strength_3> 
0.0095 
 
>  <oscillator_strength_4> 
0.0805 
 
>  <open_babel_can_smiles> 
CNc1ccccc1O 
 
>  <mulliken_charges> 
18 
1   -0.320021 
2   -0.135472 
3   -0.141078 
4   -0.202507 
5   -0.199946 
6   0.289187 
7   0.319487 
8   -0.617667 
9   -0.648716 
10   0.145795 
11   0.194166 
12   0.132101 
13   0.122073 
14   0.123229 
15   0.114279 
16   0.11218 
17   0.306654 
18   0.406257 
 
>  <lowdin_charges> 
18 
1   -0.359946 
2   -0.171916 
3   -0.171339 
4   -0.189499 
5   -0.207187 
6   0.025303 
7   0.079153 
8   -0.305858 
9   -0.382144 
10   0.150921 
11   0.170343 
12   0.127952 
13   0.156592 
14   0.156613 
15   0.150497 
16   0.149892 
17   0.264161 
18   0.35646 
 
$$$$ 
 
