PCCDB-ID:  29422 
public computational chemistry database (PCCDB) project, http://pccdb.org 
 
 12 11  0  0  0  0  0  0  0  0999 V2000 
    1.0465    0.5237   -0.7740 C   0  0  0  0  0  0  0  0  0  0  0  0 
    2.3418    0.0970   -0.0889 C   0  0  0  0  0  0  0  0  0  0  0  0 
    2.0302   -0.4225    1.2441 N   0  0  0  0  0  0  0  0  0  0  0  0 
    3.0869   -0.7921    2.0574 N   0  0  0  0  0  0  0  0  0  0  0  0 
    2.8441   -0.8529    3.2615 O   0  0  0  0  0  0  0  0  0  0  0  0 
    4.1489   -1.0657    1.5045 O   0  0  0  0  0  0  0  0  0  0  0  0 
    1.2652    0.8787   -1.7855 H   0  0  0  0  0  0  0  0  0  0  0  0 
    0.5541    1.3421   -0.2350 H   0  0  0  0  0  0  0  0  0  0  0  0 
    0.3452   -0.3135   -0.8473 H   0  0  0  0  0  0  0  0  0  0  0  0 
    3.0501    0.9347   -0.0257 H   0  0  0  0  0  0  0  0  0  0  0  0 
    2.8330   -0.7028   -0.6469 H   0  0  0  0  0  0  0  0  0  0  0  0 
    1.3513    0.0769    1.8091 H   0  0  0  0  0  0  0  0  0  0  0  0 
  1  8  1  0  0  0  0 
  1  2  1  0  0  0  0 
  2 10  1  0  0  0  0 
  2  3  1  0  0  0  0 
  3 12  1  0  0  0  0 
  3  4  1  0  0  0  0 
  4  5  2  0  0  0  0 
  6  4  2  0  0  0  0 
  7  1  1  0  0  0  0 
  9  1  1  0  0  0  0 
 11  2  1  0  0  0  0 
M  END 
>  <HBA> 
1 
 
>  <HBD> 
1 
 
>  <TPSA> 
57.85 
 
>  <cid> 
29422 
 
>  <dipole> 
4.5 
 
>  <excitation_energy_1> 
4.589 
 
>  <excitation_energy_2> 
5.313 
 
>  <excitation_energy_3> 
5.999 
 
>  <excitation_energy_4> 
7.018 
 
>  <homo_energy> 
-7.859 
 
>  <homo_lumo_gap> 
6.612 
 
>  <logP> 
0.702 
 
>  <lumo_energy> 
-1.246 
 
>  <melting_point> 
34.03 
 
>  <molecular_refractivity> 
22.63 
 
>  <oscillator_strength_1> 
0.0 
 
>  <oscillator_strength_2> 
0.0176 
 
>  <oscillator_strength_3> 
0.1379 
 
>  <oscillator_strength_4> 
0.1206 
 
>  <open_babel_can_smiles> 
CCNN(=O)=O 
 
>  <mulliken_charges> 
12 
1   -0.474923 
2   -0.119543 
3   -0.395105 
4   0.618074 
5   -0.418579 
6   -0.4093 
7   0.170675 
8   0.154093 
9   0.173252 
10   0.165422 
11   0.191263 
12   0.344671 
 
>  <lowdin_charges> 
12 
1   -0.449623 
2   -0.198359 
3   -0.246717 
4   0.331878 
5   -0.272283 
6   -0.264776 
7   0.167436 
8   0.154106 
9   0.163929 
10   0.150698 
11   0.171707 
12   0.292002 
 
$$$$ 
 
