PCCDB-ID:  10880 
public computational chemistry database (PCCDB) project, http://pccdb.org 
 
 30 29  0  0  0  0  0  0  0  0999 V2000 
    0.6516   -0.7282    1.7225 C   0  0  0  0  0  0  0  0  0  0  0  0 
    8.1382    3.8963   -1.1017 C   0  0  0  0  0  0  0  0  0  0  0  0 
    2.0395   -0.9629    2.2868 C   0  0  0  0  0  0  0  0  0  0  0  0 
    9.0045    2.6719   -1.3609 C   0  0  0  0  0  0  0  0  0  0  0  0 
    4.7901   -0.1885   -0.7908 C   0  0  0  0  0  0  0  0  0  0  0  0 
    6.0098   -0.1757   -1.7213 C   0  0  0  0  0  0  0  0  0  0  0  0 
    4.2926   -0.8230    1.4375 C   0  0  0  0  0  0  0  0  0  0  0  0 
    7.7995    0.7957   -0.5260 C   0  0  0  0  0  0  0  0  0  0  0  0 
    5.1862   -0.6119    0.5567 N   0  0  0  0  0  0  0  0  0  0  0  0 
    6.9597    0.9032   -1.4838 N   0  0  0  0  0  0  0  0  0  0  0  0 
    4.6014   -1.2066    2.6951 O   0  0  0  0  0  0  0  0  0  0  0  0 
    7.8699   -0.1404    0.4360 O   0  0  0  0  0  0  0  0  0  0  0  0 
    2.9810   -0.6961    1.2158 O   0  0  0  0  0  0  0  0  0  0  0  0 
    8.8156    1.6625   -0.3526 O   0  0  0  0  0  0  0  0  0  0  0  0 
   -0.0979   -0.9168    2.4985 H   0  0  0  0  0  0  0  0  0  0  0  0 
    0.4547   -1.3986    0.8803 H   0  0  0  0  0  0  0  0  0  0  0  0 
    0.5409    0.3043    1.3773 H   0  0  0  0  0  0  0  0  0  0  0  0 
    8.3639    4.6773   -1.8378 H   0  0  0  0  0  0  0  0  0  0  0  0 
    8.3276    4.3010   -0.1016 H   0  0  0  0  0  0  0  0  0  0  0  0 
    7.0807    3.6336   -1.1863 H   0  0  0  0  0  0  0  0  0  0  0  0 
    2.1707   -1.9944    2.6278 H   0  0  0  0  0  0  0  0  0  0  0  0 
    2.2562   -0.2942    3.1254 H   0  0  0  0  0  0  0  0  0  0  0  0 
   10.0683    2.9199   -1.2971 H   0  0  0  0  0  0  0  0  0  0  0  0 
    8.7880    2.2407   -2.3419 H   0  0  0  0  0  0  0  0  0  0  0  0 
    4.0290   -0.8688   -1.1988 H   0  0  0  0  0  0  0  0  0  0  0  0 
    4.3459    0.8156   -0.7582 H   0  0  0  0  0  0  0  0  0  0  0  0 
    5.6389   -0.0622   -2.7471 H   0  0  0  0  0  0  0  0  0  0  0  0 
    6.4913   -1.1663   -1.6644 H   0  0  0  0  0  0  0  0  0  0  0  0 
    5.5725   -1.2430    2.7435 H   0  0  0  0  0  0  0  0  0  0  0  0 
    6.9485   -0.4986    0.5606 H   0  0  0  0  0  0  0  0  0  0  0  0 
  1  3  1  0  0  0  0 
  1 15  1  0  0  0  0 
  2 19  1  0  0  0  0 
  3 21  1  0  0  0  0 
  3 22  1  0  0  0  0 
  4 23  1  0  0  0  0 
  4  2  1  0  0  0  0 
  4 14  1  0  0  0  0 
  5 26  1  0  0  0  0 
  5  9  1  0  0  0  0 
  6 28  1  0  0  0  0 
  6 10  1  0  0  0  0 
  6  5  1  0  0  0  0 
  7 11  1  0  0  0  0 
  8 14  1  0  0  0  0 
  8 12  1  0  0  0  0 
  9  7  2  0  0  0  0 
 10  8  2  0  0  0  0 
 11 29  1  0  0  0  0 
 12 30  1  0  0  0  0 
 13  7  1  0  0  0  0 
 13  3  1  0  0  0  0 
 16  1  1  0  0  0  0 
 17  1  1  0  0  0  0 
 18  2  1  0  0  0  0 
 20  2  1  0  0  0  0 
 24  4  1  0  0  0  0 
 25  5  1  0  0  0  0 
 27  6  1  0  0  0  0 
M  END 
>  <HBA> 
6 
 
>  <HBD> 
2 
 
>  <TPSA> 
76.66 
 
>  <cid> 
10880 
 
>  <dipole> 
4.9 
 
>  <excitation_energy_1> 
5.539 
 
>  <excitation_energy_2> 
5.862 
 
>  <excitation_energy_3> 
5.982 
 
>  <excitation_energy_4> 
6.051 
 
>  <homo_energy> 
-6.03 
 
>  <homo_lumo_gap> 
6.806 
 
>  <logP> 
1.26 
 
>  <lumo_energy> 
0.776 
 
>  <melting_point> 
72.02 
 
>  <molecular_refractivity> 
49.52 
 
>  <oscillator_strength_1> 
0.0051 
 
>  <oscillator_strength_2> 
0.0018 
 
>  <oscillator_strength_3> 
0.0029 
 
>  <oscillator_strength_4> 
0.0305 
 
>  <open_babel_can_smiles> 
CCO/C(=N/CC/N=C(\OCC)/O)/O 
 
>  <mulliken_charges> 
30 
1   -0.461835 
2   -0.45903 
3   -0.031613 
4   -0.022446 
5   -0.117016 
6   -0.178576 
7   0.765948 
8   0.673265 
9   -0.559235 
10   -0.477262 
11   -0.598957 
12   -0.628987 
13   -0.471285 
14   -0.46083 
15   0.157947 
16   0.168118 
17   0.169417 
18   0.137685 
19   0.149047 
20   0.174645 
21   0.164725 
22   0.165864 
23   0.1416 
24   0.161933 
25   0.139313 
26   0.155655 
27   0.140149 
28   0.132863 
29   0.433539 
30   0.435357 
 
>  <lowdin_charges> 
30 
1   -0.448332 
2   -0.456404 
3   -0.116411 
4   -0.121898 
5   -0.201766 
6   -0.206051 
7   0.205685 
8   0.190588 
9   -0.281772 
10   -0.300935 
11   -0.354352 
12   -0.3932 
13   -0.185733 
14   -0.186164 
15   0.163477 
16   0.163045 
17   0.16214 
18   0.152776 
19   0.151165 
20   0.163194 
21   0.152374 
22   0.154836 
23   0.144053 
24   0.154473 
25   0.144563 
26   0.148321 
27   0.146344 
28   0.132985 
29   0.37581 
30   0.347185 
 
$$$$ 
 
