PCCDB-ID:  51381 
public computational chemistry database (PCCDB) project, http://pccdb.org 
 
 23 23  0  0  0  0  0  0  0  0999 V2000 
    1.1038   -0.8373   -1.4880 C   0  0  0  0  0  0  0  0  0  0  0  0 
    2.5529   -0.3901   -1.4084 C   0  0  0  0  0  0  0  0  0  0  0  0 
    7.5328   -1.3330   -1.3770 C   0  0  0  0  0  0  0  0  0  0  0  0 
    6.7954   -0.1583   -1.2711 C   0  0  0  0  0  0  0  0  0  0  0  0 
    6.8623   -2.5496   -1.5411 C   0  0  0  0  0  0  0  0  0  0  0  0 
    5.3976   -0.1897   -1.3255 C   0  0  0  0  0  0  0  0  0  0  0  0 
    4.7357   -3.9322   -1.7472 C   0  0  0  0  0  0  0  0  0  0  0  0 
    5.4714   -2.6156   -1.5931 C   0  0  0  0  0  0  0  0  0  0  0  0 
    4.7433   -1.4128   -1.4852 C   0  0  0  0  0  0  0  0  0  0  0  0 
    3.9020   -3.9906   -2.8988 O   0  0  0  0  0  0  0  0  0  0  0  0 
    3.3752   -1.5505   -1.5499 O   0  0  0  0  0  0  0  0  0  0  0  0 
    0.4389    0.0236   -1.3605 H   0  0  0  0  0  0  0  0  0  0  0  0 
    0.8811   -1.5669   -0.7031 H   0  0  0  0  0  0  0  0  0  0  0  0 
    0.8894   -1.2961   -2.4587 H   0  0  0  0  0  0  0  0  0  0  0  0 
    2.7625    0.0922   -0.4439 H   0  0  0  0  0  0  0  0  0  0  0  0 
    2.7871    0.3290   -2.2056 H   0  0  0  0  0  0  0  0  0  0  0  0 
    8.6179   -1.3082   -1.3379 H   0  0  0  0  0  0  0  0  0  0  0  0 
    7.2990    0.7967   -1.1469 H   0  0  0  0  0  0  0  0  0  0  0  0 
    7.4313   -3.4723   -1.6309 H   0  0  0  0  0  0  0  0  0  0  0  0 
    4.8379    0.7351   -1.2467 H   0  0  0  0  0  0  0  0  0  0  0  0 
    4.1506   -4.1338   -0.8346 H   0  0  0  0  0  0  0  0  0  0  0  0 
    5.4612   -4.7441   -1.8552 H   0  0  0  0  0  0  0  0  0  0  0  0 
    3.2571   -3.2731   -2.7867 H   0  0  0  0  0  0  0  0  0  0  0  0 
  1  2  1  0  0  0  0 
  1 12  1  0  0  0  0 
  1 13  1  0  0  0  0 
  2 15  1  0  0  0  0 
  3 17  1  0  0  0  0 
  3  4  2  0  0  0  0 
  4 18  1  0  0  0  0 
  5  3  1  0  0  0  0 
  6  4  1  0  0  0  0 
  6 20  1  0  0  0  0 
  7  8  1  0  0  0  0 
  7 21  1  0  0  0  0 
  8  5  2  0  0  0  0 
  8  9  1  0  0  0  0 
  9  6  2  0  0  0  0 
 10 23  1  0  0  0  0 
 10  7  1  0  0  0  0 
 11  9  1  0  0  0  0 
 11  2  1  0  0  0  0 
 14  1  1  0  0  0  0 
 16  2  1  0  0  0  0 
 19  5  1  0  0  0  0 
 22  7  1  0  0  0  0 
M  END 
>  <HBA> 
2 
 
>  <HBD> 
1 
 
>  <TPSA> 
29.46 
 
>  <cid> 
51381 
 
>  <dipole> 
3.17 
 
>  <excitation_energy_1> 
5.058 
 
>  <excitation_energy_2> 
5.604 
 
>  <excitation_energy_3> 
5.655 
 
>  <excitation_energy_4> 
5.89 
 
>  <homo_energy> 
-6.025 
 
>  <homo_lumo_gap> 
5.976 
 
>  <logP> 
1.578 
 
>  <lumo_energy> 
-0.049 
 
>  <melting_point> 
31.21 
 
>  <molecular_refractivity> 
43.87 
 
>  <oscillator_strength_1> 
0.0339 
 
>  <oscillator_strength_2> 
0.011 
 
>  <oscillator_strength_3> 
0.0448 
 
>  <oscillator_strength_4> 
0.0124 
 
>  <open_babel_can_smiles> 
CCOc1ccccc1CO 
 
>  <mulliken_charges> 
23 
1   -0.463202 
2   -0.029241 
3   -0.12609 
4   -0.140066 
5   -0.191826 
6   -0.18997 
7   -0.102265 
8   0.105671 
9   0.332399 
10   -0.627864 
11   -0.545114 
12   0.154591 
13   0.167353 
14   0.163245 
15   0.146475 
16   0.147053 
17   0.126964 
18   0.129851 
19   0.128224 
20   0.133406 
21   0.13121 
22   0.144967 
23   0.40423 
 
>  <lowdin_charges> 
23 
1   -0.4499 
2   -0.124472 
3   -0.17148 
4   -0.148485 
5   -0.153429 
6   -0.211565 
7   -0.130001 
8   -0.045142 
9   0.099069 
10   -0.474993 
11   -0.216845 
12   0.161218 
13   0.162437 
14   0.158925 
15   0.141787 
16   0.142258 
17   0.155783 
18   0.158157 
19   0.158138 
20   0.162661 
21   0.13487 
22   0.150923 
23   0.340087 
 
$$$$ 
 
