PCCDB-ID:  37209 
public computational chemistry database (PCCDB) project, http://pccdb.org 
 
 20 20  0  0  0  0  0  0  0  0999 V2000 
   -1.4640   -0.5012    0.1849 C   0  0  0  0  0  0  0  0  0  0  0  0 
   -0.8345    0.9111    0.1666 C   0  0  0  0  0  0  0  0  0  0  0  0 
    1.6126    1.7002   -0.2841 C   0  0  0  0  0  0  0  0  0  0  0  0 
    2.9001    1.5034   -0.6100 C   0  0  0  0  0  0  0  0  0  0  0  0 
   -0.2656   -1.4456   -0.1319 C   0  0  0  0  0  0  0  0  0  0  0  0 
    0.6222    0.6194   -0.1604 C   0  0  0  0  0  0  0  0  0  0  0  0 
    3.8968    2.5949   -0.7392 C   0  0  0  0  0  0  0  0  0  0  0  0 
    3.7082    3.7864   -1.1476 N   0  0  0  0  0  0  0  0  0  0  0  0 
    0.9276   -0.6162   -0.3155 N   0  0  0  0  0  0  0  0  0  0  0  0 
    5.1713    2.2497   -0.3928 O   0  0  0  0  0  0  0  0  0  0  0  0 
   -2.2564   -0.5973   -0.5627 H   0  0  0  0  0  0  0  0  0  0  0  0 
   -1.9084   -0.7311    1.1574 H   0  0  0  0  0  0  0  0  0  0  0  0 
   -0.9213    1.4357    1.1270 H   0  0  0  0  0  0  0  0  0  0  0  0 
   -1.2802    1.5725   -0.5877 H   0  0  0  0  0  0  0  0  0  0  0  0 
    1.2567    2.7105   -0.0865 H   0  0  0  0  0  0  0  0  0  0  0  0 
    3.2385    0.4806   -0.7762 H   0  0  0  0  0  0  0  0  0  0  0  0 
   -0.4228   -2.0382   -1.0422 H   0  0  0  0  0  0  0  0  0  0  0  0 
   -0.0701   -2.1659    0.6729 H   0  0  0  0  0  0  0  0  0  0  0  0 
    2.7344    3.9033   -1.4308 H   0  0  0  0  0  0  0  0  0  0  0  0 
    5.1665    1.3697    0.0138 H   0  0  0  0  0  0  0  0  0  0  0  0 
  1 12  1  0  0  0  0 
  2  1  1  0  0  0  0 
  2 13  1  0  0  0  0 
  3  6  1  0  0  0  0 
  3 15  1  0  0  0  0 
  4  3  2  0  0  0  0 
  5  1  1  0  0  0  0 
  5 18  1  0  0  0  0 
  6  2  1  0  0  0  0 
  7  4  1  0  0  0  0 
  7 10  1  0  0  0  0 
  8  7  2  0  0  0  0 
  9  6  2  0  0  0  0 
  9  5  1  0  0  0  0 
 10 20  1  0  0  0  0 
 11  1  1  0  0  0  0 
 14  2  1  0  0  0  0 
 16  4  1  0  0  0  0 
 17  5  1  0  0  0  0 
 19  8  1  0  0  0  0 
M  END 
>  <HBA> 
3 
 
>  <HBD> 
1 
 
>  <TPSA> 
55.45 
 
>  <cid> 
37209 
 
>  <dipole> 
5.02 
 
>  <excitation_energy_1> 
4.118 
 
>  <excitation_energy_2> 
4.32 
 
>  <excitation_energy_3> 
4.471 
 
>  <excitation_energy_4> 
5.085 
 
>  <homo_energy> 
-6.719 
 
>  <homo_lumo_gap> 
4.806 
 
>  <logP> 
0.399 
 
>  <lumo_energy> 
-1.913 
 
>  <melting_point> 
98.64 
 
>  <molecular_refractivity> 
43.09 
 
>  <oscillator_strength_1> 
0.001 
 
>  <oscillator_strength_2> 
0.055 
 
>  <oscillator_strength_3> 
0.2601 
 
>  <oscillator_strength_4> 
0.0837 
 
>  <open_babel_can_smiles> 
OC(=N)/C=C/C1=NCCC1 
 
>  <mulliken_charges> 
20 
1   -0.306894 
2   -0.348814 
3   -0.143803 
4   -0.189602 
5   -0.149714 
6   0.301459 
7   0.472314 
8   -0.579683 
9   -0.429706 
10   -0.580381 
11   0.15329 
12   0.153006 
13   0.162851 
14   0.162651 
15   0.142267 
16   0.173053 
17   0.15685 
18   0.155592 
19   0.28579 
20   0.409473 
 
>  <lowdin_charges> 
20 
1   -0.296483 
2   -0.302186 
3   -0.150399 
4   -0.172348 
5   -0.211028 
6   0.039745 
7   0.123255 
8   -0.384399 
9   -0.170387 
10   -0.360635 
11   0.154473 
12   0.153592 
13   0.159649 
14   0.160675 
15   0.161714 
16   0.176347 
17   0.15299 
18   0.152698 
19   0.256296 
20   0.35643 
 
$$$$ 
 
