PCCDB-ID:  67517 
public computational chemistry database (PCCDB) project, http://pccdb.org 
 
  7  7  0  0  0  0  0  0  0  0999 V2000 
   -1.1336    0.0475   -0.0016 C   0  0  0  0  0  0  0  0  0  0  0  0 
   -0.2903   -1.0985    0.0026 C   0  0  0  0  0  0  0  0  0  0  0  0 
   -0.3885    1.1215   -0.0032 N   0  0  0  0  0  0  0  0  0  0  0  0 
    0.9572   -0.7065    0.0035 N   0  0  0  0  0  0  0  0  0  0  0  0 
    0.9054    0.6645   -0.0000 O   0  0  0  0  0  0  0  0  0  0  0  0 
   -2.2120    0.1171   -0.0033 H   0  0  0  0  0  0  0  0  0  0  0  0 
   -0.5451   -2.1488    0.0050 H   0  0  0  0  0  0  0  0  0  0  0  0 
  1  2  1  0  0  0  0 
  2  4  2  0  0  0  0 
  2  7  1  0  0  0  0 
  3  1  2  0  0  0  0 
  3  5  1  0  0  0  0 
  5  4  1  0  0  0  0 
  6  1  1  0  0  0  0 
M  END 
>  <HBA> 
3 
 
>  <HBD> 
0 
 
>  <TPSA> 
38.92 
 
>  <cid> 
67517 
 
>  <dipole> 
3.35 
 
>  <excitation_energy_1> 
5.791 
 
>  <excitation_energy_2> 
6.684 
 
>  <excitation_energy_3> 
6.762 
 
>  <excitation_energy_4> 
6.961 
 
>  <homo_energy> 
-8.8 
 
>  <homo_lumo_gap> 
7.325 
 
>  <logP> 
0.07 
 
>  <lumo_energy> 
-1.475 
 
>  <melting_point> 
32.55 
 
>  <molecular_refractivity> 
14.3 
 
>  <oscillator_strength_1> 
0.0 
 
>  <oscillator_strength_2> 
0.0599 
 
>  <oscillator_strength_3> 
0.0126 
 
>  <oscillator_strength_4> 
0.0663 
 
>  <open_babel_can_smiles> 
c1cnon1 
 
>  <mulliken_charges> 
7 
1   0.015306 
2   0.014654 
3   -0.103743 
4   -0.103573 
5   -0.198002 
6   0.187703 
7   0.187656 
 
>  <lowdin_charges> 
7 
1   -0.144021 
2   -0.145282 
3   -0.030752 
4   -0.030288 
5   -0.026324 
6   0.188042 
7   0.188626 
 
$$$$ 
 
