PCCDB-ID:  38933 
public computational chemistry database (PCCDB) project, http://pccdb.org 
 
 18 17  0  0  0  0  0  0  0  0999 V2000 
    0.6936   -0.4609   -0.2759 C   0  0  0  0  0  0  0  0  0  0  0  0 
    1.8199    1.0646    2.2443 C   0  0  0  0  0  0  0  0  0  0  0  0 
    2.1176   -0.4087    0.2004 C   0  0  0  0  0  0  0  0  0  0  0  0 
    4.1024    0.1472    1.5799 C   0  0  0  0  0  0  0  0  0  0  0  0 
    2.6214    0.2384    1.2675 C   0  0  0  0  0  0  0  0  0  0  0  0 
    4.4353   -0.7519    2.7813 C   0  0  0  0  0  0  0  0  0  0  0  0 
    5.3462   -0.5468    3.5429 O   0  0  0  0  0  0  0  0  0  0  0  0 
    3.6459   -1.8473    2.9128 O   0  0  0  0  0  0  0  0  0  0  0  0 
    0.6047   -0.0022   -1.2700 H   0  0  0  0  0  0  0  0  0  0  0  0 
   -0.0043    0.0508    0.3912 H   0  0  0  0  0  0  0  0  0  0  0  0 
    0.3566   -1.5004   -0.3823 H   0  0  0  0  0  0  0  0  0  0  0  0 
    0.7518    1.0810    2.0183 H   0  0  0  0  0  0  0  0  0  0  0  0 
    2.1797    2.1020    2.2495 H   0  0  0  0  0  0  0  0  0  0  0  0 
    1.9422    0.6874    3.2682 H   0  0  0  0  0  0  0  0  0  0  0  0 
    2.8240   -0.9511   -0.4311 H   0  0  0  0  0  0  0  0  0  0  0  0 
    4.5341    1.1288    1.7991 H   0  0  0  0  0  0  0  0  0  0  0  0 
    4.6497   -0.2614    0.7198 H   0  0  0  0  0  0  0  0  0  0  0  0 
    2.9570   -1.8157    2.2213 H   0  0  0  0  0  0  0  0  0  0  0  0 
  1  3  1  0  0  0  0 
  1 10  1  0  0  0  0 
  2 13  1  0  0  0  0 
  2 14  1  0  0  0  0 
  3  5  2  0  0  0  0 
  4 16  1  0  0  0  0 
  4  6  1  0  0  0  0 
  5  4  1  0  0  0  0 
  5  2  1  0  0  0  0 
  6  8  1  0  0  0  0 
  6  7  2  0  0  0  0 
  9  1  1  0  0  0  0 
 11  1  1  0  0  0  0 
 12  2  1  0  0  0  0 
 15  3  1  0  0  0  0 
 17  4  1  0  0  0  0 
 18  8  1  0  0  0  0 
M  END 
>  <HBA> 
2 
 
>  <HBD> 
1 
 
>  <TPSA> 
37.3 
 
>  <cid> 
38933 
 
>  <dipole> 
4.92 
 
>  <excitation_energy_1> 
5.483 
 
>  <excitation_energy_2> 
5.962 
 
>  <excitation_energy_3> 
6.292 
 
>  <excitation_energy_4> 
6.504 
 
>  <homo_energy> 
-6.8 
 
>  <homo_lumo_gap> 
6.776 
 
>  <logP> 
1.427 
 
>  <lumo_energy> 
-0.024 
 
>  <melting_point> 
63.81 
 
>  <molecular_refractivity> 
32.25 
 
>  <oscillator_strength_1> 
0.0073 
 
>  <oscillator_strength_2> 
0.0017 
 
>  <oscillator_strength_3> 
0.1259 
 
>  <oscillator_strength_4> 
0.0032 
 
>  <open_babel_can_smiles> 
C/C(=C\C)/CC(=O)O 
 
>  <mulliken_charges> 
18 
1   -0.489913 
2   -0.517082 
3   -0.166979 
4   -0.432847 
5   0.140107 
6   0.587103 
7   -0.442037 
8   -0.566989 
9   0.167111 
10   0.160705 
11   0.162236 
12   0.161109 
13   0.167294 
14   0.171362 
15   0.130784 
16   0.180821 
17   0.181784 
18   0.405429 
 
>  <lowdin_charges> 
18 
1   -0.443541 
2   -0.443564 
3   -0.18591 
4   -0.315056 
5   -0.02761 
6   0.187803 
7   -0.241173 
8   -0.361167 
9   0.163682 
10   0.159493 
11   0.16075 
12   0.158394 
13   0.163538 
14   0.164227 
15   0.153084 
16   0.175466 
17   0.175797 
18   0.355787 
 
$$$$ 
 
