PCCDB-ID:  24782 
public computational chemistry database (PCCDB) project, http://pccdb.org 
 
 31 31  0  0  0  0  0  0  0  0999 V2000 
    5.5128    2.9138   -5.7635 C   0  0  0  0  0  0  0  0  0  0  0  0 
    4.9414    4.6019   -4.1573 C   0  0  0  0  0  0  0  0  0  0  0  0 
    3.2824   -1.5381   -0.7349 C   0  0  0  0  0  0  0  0  0  0  0  0 
    2.2431   -2.6097   -2.6328 C   0  0  0  0  0  0  0  0  0  0  0  0 
    2.5793   -2.3720    0.1226 C   0  0  0  0  0  0  0  0  0  0  0  0 
    1.5362   -3.4455   -1.7828 C   0  0  0  0  0  0  0  0  0  0  0  0 
    4.6333    2.2693   -3.5934 C   0  0  0  0  0  0  0  0  0  0  0  0 
    5.4284    0.9917   -3.3149 C   0  0  0  0  0  0  0  0  0  0  0  0 
    3.1259   -1.6433   -2.1260 C   0  0  0  0  0  0  0  0  0  0  0  0 
    1.6929   -3.3412   -0.3864 C   0  0  0  0  0  0  0  0  0  0  0  0 
    3.8477   -0.7792   -3.0864 C   0  0  0  0  0  0  0  0  0  0  0  0 
    1.0280   -4.2101    0.4674 N   0  0  0  0  0  0  0  0  0  0  0  0 
    5.4283    3.2410   -4.3436 N   0  0  0  0  0  0  0  0  0  0  0  0 
    3.7322   -0.8441   -4.2974 O   0  0  0  0  0  0  0  0  0  0  0  0 
    4.6731    0.1062   -2.4651 O   0  0  0  0  0  0  0  0  0  0  0  0 
    6.1878    3.6191   -6.2606 H   0  0  0  0  0  0  0  0  0  0  0  0 
    4.5310    2.9570   -6.2746 H   0  0  0  0  0  0  0  0  0  0  0  0 
    5.9195    1.9084   -5.9034 H   0  0  0  0  0  0  0  0  0  0  0  0 
    5.6029    5.3011   -4.6809 H   0  0  0  0  0  0  0  0  0  0  0  0 
    4.9516    4.8591   -3.0927 H   0  0  0  0  0  0  0  0  0  0  0  0 
    3.9131    4.7578   -4.5396 H   0  0  0  0  0  0  0  0  0  0  0  0 
    3.9595   -0.7946   -0.3292 H   0  0  0  0  0  0  0  0  0  0  0  0 
    2.1232   -2.6873   -3.7086 H   0  0  0  0  0  0  0  0  0  0  0  0 
    2.7125   -2.2824    1.1984 H   0  0  0  0  0  0  0  0  0  0  0  0 
    0.8588   -4.1923   -2.1909 H   0  0  0  0  0  0  0  0  0  0  0  0 
    4.3665    2.7124   -2.6274 H   0  0  0  0  0  0  0  0  0  0  0  0 
    3.6883    2.0097   -4.1052 H   0  0  0  0  0  0  0  0  0  0  0  0 
    6.3367    1.2301   -2.7573 H   0  0  0  0  0  0  0  0  0  0  0  0 
    5.6881    0.4631   -4.2339 H   0  0  0  0  0  0  0  0  0  0  0  0 
    0.9157   -3.8984    1.4231 H   0  0  0  0  0  0  0  0  0  0  0  0 
    0.1930   -4.6463    0.0990 H   0  0  0  0  0  0  0  0  0  0  0  0 
  1 13  1  0  0  0  0 
  2 20  1  0  0  0  0 
  3 22  1  0  0  0  0 
  3  5  2  0  0  0  0 
  4  9  2  0  0  0  0 
  4  6  1  0  0  0  0 
  5 24  1  0  0  0  0 
  6 10  2  0  0  0  0 
  7  8  1  0  0  0  0 
  7 26  1  0  0  0  0 
  8 28  1  0  0  0  0 
  8 15  1  0  0  0  0 
  9  3  1  0  0  0  0 
 10  5  1  0  0  0  0 
 10 12  1  0  0  0  0 
 11 15  1  0  0  0  0 
 11  9  1  0  0  0  0 
 12 30  1  0  0  0  0 
 13  2  1  0  0  0  0 
 13  7  1  0  0  0  0 
 14 11  2  0  0  0  0 
 16  1  1  0  0  0  0 
 17  1  1  0  0  0  0 
 18  1  1  0  0  0  0 
 19  2  1  0  0  0  0 
 21  2  1  0  0  0  0 
 23  4  1  0  0  0  0 
 25  6  1  0  0  0  0 
 27  7  1  0  0  0  0 
 29  8  1  0  0  0  0 
 31 12  1  0  0  0  0 
M  END 
>  <HBA> 
4 
 
>  <HBD> 
1 
 
>  <TPSA> 
55.56 
 
>  <cid> 
24782 
 
>  <dipole> 
3.66 
 
>  <excitation_energy_1> 
4.348 
 
>  <excitation_energy_2> 
4.67 
 
>  <excitation_energy_3> 
4.714 
 
>  <excitation_energy_4> 
4.95 
 
>  <homo_energy> 
-5.709 
 
>  <homo_lumo_gap> 
4.993 
 
>  <logP> 
1.568 
 
>  <lumo_energy> 
-0.716 
 
>  <melting_point> 
80.06 
 
>  <molecular_refractivity> 
59.44 
 
>  <oscillator_strength_1> 
0.0089 
 
>  <oscillator_strength_2> 
0.4641 
 
>  <oscillator_strength_3> 
0.0091 
 
>  <oscillator_strength_4> 
0.0154 
 
>  <open_babel_can_smiles> 
CN(CCOC(=O)c1ccc(cc1)N)C 
 
>  <mulliken_charges> 
31 
1   -0.302472 
2   -0.293962 
3   -0.167454 
4   -0.16138 
5   -0.181411 
6   -0.182747 
7   -0.138152 
8   -0.044028 
9   0.044424 
10   0.334989 
11   0.588355 
12   -0.790402 
13   -0.375749 
14   -0.505201 
15   -0.490392 
16   0.147753 
17   0.124451 
18   0.157764 
19   0.147695 
20   0.148782 
21   0.119805 
22   0.153337 
23   0.159936 
24   0.121708 
25   0.123422 
26   0.142304 
27   0.138557 
28   0.15642 
29   0.169092 
30   0.327069 
31   0.327487 
 
>  <lowdin_charges> 
31 
1   -0.35822 
2   -0.353609 
3   -0.127795 
4   -0.11637 
5   -0.202577 
6   -0.202367 
7   -0.211267 
8   -0.138038 
9   -0.075622 
10   0.075745 
11   0.19397 
12   -0.473409 
13   -0.185838 
14   -0.285103 
15   -0.196732 
16   0.151063 
17   0.123999 
18   0.152483 
19   0.150748 
20   0.147725 
21   0.120265 
22   0.172397 
23   0.174214 
24   0.152879 
25   0.156455 
26   0.148341 
27   0.133009 
28   0.155435 
29   0.158316 
30   0.279283 
31   0.280618 
 
$$$$ 
 
