PCCDB-ID:  40494 
public computational chemistry database (PCCDB) project, http://pccdb.org 
 
 18 19  0  0  1  0  0  0  0  0999 V2000 
   -0.6869    1.2032   -0.2794 C   0  0  0  0  0  0  0  0  0  0  0  0 
    1.4380    0.0940    0.1231 C   0  0  0  0  0  0  0  0  0  0  0  0 
   -1.3111   -0.0350   -0.3740 C   0  0  0  0  0  0  0  0  0  0  0  0 
    0.8021   -1.1393    0.0299 C   0  0  0  0  0  0  0  0  0  0  0  0 
    1.3435    2.5511    0.0648 C   0  0  0  0  0  0  0  0  0  0  0  0 
   -2.0169   -2.9208   -1.5535 C   0  0  0  0  0  0  0  0  0  0  0  0 
    0.6952    1.2760   -0.0335 C   0  0  0  0  0  0  0  0  0  0  0  0 
   -0.5725   -1.2171   -0.2295 C   0  0  0  0  0  0  0  0  0  0  0  0 
   -1.2312   -2.5492   -0.3568 C   0  0  1  0  0  0  0  0  0  0  0  0 
    1.8703    3.5855    0.1428 N   0  0  0  0  0  0  0  0  0  0  0  0 
   -2.6627   -2.5817   -0.3246 O   0  0  0  0  0  0  0  0  0  0  0  0 
   -1.2601    2.1185   -0.3871 H   0  0  0  0  0  0  0  0  0  0  0  0 
    2.5034    0.1514    0.3210 H   0  0  0  0  0  0  0  0  0  0  0  0 
   -2.3814   -0.1011   -0.5408 H   0  0  0  0  0  0  0  0  0  0  0  0 
    1.3802   -2.0511    0.1578 H   0  0  0  0  0  0  0  0  0  0  0  0 
   -2.0881   -3.9682   -1.8478 H   0  0  0  0  0  0  0  0  0  0  0  0 
   -2.1300   -2.1940   -2.3577 H   0  0  0  0  0  0  0  0  0  0  0  0 
   -0.7525   -3.3590    0.1967 H   0  0  0  0  0  0  0  0  0  0  0  0 
  1  7  1  0  0  0  0 
  2 13  1  0  0  0  0 
  3  1  2  0  0  0  0 
  3  8  1  0  0  0  0 
  4  2  1  0  0  0  0 
  4 15  1  0  0  0  0 
  5 10  3  0  0  0  0 
  6  9  1  0  0  0  0 
  6 11  1  0  0  0  0 
  7  5  1  0  0  0  0 
  7  2  2  0  0  0  0 
  8  4  2  0  0  0  0 
  9 11  1  0  0  0  0 
  9  8  1  0  0  0  0 
  9 18  1  1  0  0  0 
 12  1  1  0  0  0  0 
 14  3  1  0  0  0  0 
 16  6  1  0  0  0  0 
 17  6  1  0  0  0  0 
M  END 
>  <HBA> 
2 
 
>  <HBD> 
0 
 
>  <TPSA> 
36.32 
 
>  <cid> 
40494 
 
>  <dipole> 
4.68 
 
>  <excitation_energy_1> 
4.962 
 
>  <excitation_energy_2> 
5.148 
 
>  <excitation_energy_3> 
5.598 
 
>  <excitation_energy_4> 
6.118 
 
>  <homo_energy> 
-7.034 
 
>  <homo_lumo_gap> 
5.491 
 
>  <logP> 
1.63 
 
>  <lumo_energy> 
-1.543 
 
>  <melting_point> 
58.86 
 
>  <molecular_refractivity> 
39.9 
 
>  <oscillator_strength_1> 
0.0036 
 
>  <oscillator_strength_2> 
0.3989 
 
>  <oscillator_strength_3> 
0.0307 
 
>  <oscillator_strength_4> 
0.1692 
 
>  <open_babel_can_smiles> 
N#Cc1ccc(cc1)[C@H]1OC1 
 
>  <mulliken_charges> 
18 
1   -0.134489 
2   -0.141321 
3   -0.195604 
4   -0.189369 
5   0.237424 
6   -0.103572 
7   0.129704 
8   0.181456 
9   0.015031 
10   -0.476447 
11   -0.436853 
12   0.162452 
13   0.16172 
14   0.166234 
15   0.142323 
16   0.162349 
17   0.161399 
18   0.157563 
 
>  <lowdin_charges> 
18 
1   -0.128314 
2   -0.127293 
3   -0.150994 
4   -0.158643 
5   -0.013845 
6   -0.156326 
7   -0.021877 
8   0.002178 
9   -0.023459 
10   -0.117687 
11   -0.271096 
12   0.17609 
13   0.173675 
14   0.174974 
15   0.165184 
16   0.158368 
17   0.159088 
18   0.159978 
 
$$$$ 
 
