PCCDB-ID:  22720 
public computational chemistry database (PCCDB) project, http://pccdb.org 
 
 20 19  0  0  0  0  0  0  0  0999 V2000 
    3.4848   -0.4299    5.0931 C   0  0  0  0  0  0  0  0  0  0  0  0 
    3.9200    0.2940    3.8291 C   0  0  0  0  0  0  0  0  0  0  0  0 
    7.3080    1.5064    3.0124 C   0  0  0  0  0  0  0  0  0  0  0  0 
    7.9742    2.2351    1.8340 C   0  0  0  0  0  0  0  0  0  0  0  0 
    5.8201    1.2543    2.7967 C   0  0  0  0  0  0  0  0  0  0  0  0 
    9.4077    2.5096    1.9779 N   0  0  0  0  0  0  0  0  0  0  0  0 
    5.3046    0.5786    3.9288 O   0  0  0  0  0  0  0  0  0  0  0  0 
    2.4156   -0.6654    5.0517 H   0  0  0  0  0  0  0  0  0  0  0  0 
    3.6702    0.1928    5.9743 H   0  0  0  0  0  0  0  0  0  0  0  0 
    4.0428   -1.3644    5.2108 H   0  0  0  0  0  0  0  0  0  0  0  0 
    3.3473    1.2292    3.7012 H   0  0  0  0  0  0  0  0  0  0  0  0 
    3.7227   -0.3285    2.9389 H   0  0  0  0  0  0  0  0  0  0  0  0 
    7.4348    2.0935    3.9323 H   0  0  0  0  0  0  0  0  0  0  0  0 
    7.8061    0.5421    3.1823 H   0  0  0  0  0  0  0  0  0  0  0  0 
    7.4702    3.1951    1.6594 H   0  0  0  0  0  0  0  0  0  0  0  0 
    7.8409    1.6500    0.9142 H   0  0  0  0  0  0  0  0  0  0  0  0 
    5.6607    0.6504    1.8853 H   0  0  0  0  0  0  0  0  0  0  0  0 
    5.2863    2.2096    2.6447 H   0  0  0  0  0  0  0  0  0  0  0  0 
    9.5631    3.0644    2.8195 H   0  0  0  0  0  0  0  0  0  0  0  0 
    9.9063    1.6332    2.1315 H   0  0  0  0  0  0  0  0  0  0  0  0 
  1 10  1  0  0  0  0 
  1  9  1  0  0  0  0 
  2  7  1  0  0  0  0 
  2  1  1  0  0  0  0 
  3 14  1  0  0  0  0 
  3 13  1  0  0  0  0 
  4  6  1  0  0  0  0 
  4  3  1  0  0  0  0 
  5  3  1  0  0  0  0 
  5  7  1  0  0  0  0 
  6 20  1  0  0  0  0 
  6 19  1  0  0  0  0 
  8  1  1  0  0  0  0 
 11  2  1  0  0  0  0 
 12  2  1  0  0  0  0 
 15  4  1  0  0  0  0 
 16  4  1  0  0  0  0 
 17  5  1  0  0  0  0 
 18  5  1  0  0  0  0 
M  END 
>  <HBA> 
2 
 
>  <HBD> 
1 
 
>  <TPSA> 
35.25 
 
>  <cid> 
22720 
 
>  <dipole> 
1.15 
 
>  <excitation_energy_1> 
5.654 
 
>  <excitation_energy_2> 
6.392 
 
>  <excitation_energy_3> 
6.544 
 
>  <excitation_energy_4> 
6.644 
 
>  <homo_energy> 
-6.291 
 
>  <homo_lumo_gap> 
8.512 
 
>  <logP> 
1.072 
 
>  <lumo_energy> 
2.22 
 
>  <melting_point> 
19.4 
 
>  <molecular_refractivity> 
29.94 
 
>  <oscillator_strength_1> 
0.0333 
 
>  <oscillator_strength_2> 
0.0037 
 
>  <oscillator_strength_3> 
0.0125 
 
>  <oscillator_strength_4> 
0.0025 
 
>  <open_babel_can_smiles> 
NCCCOCC 
 
>  <mulliken_charges> 
20 
1   -0.452976 
2   -0.002135 
3   -0.280875 
4   -0.147532 
5   -0.002392 
6   -0.702904 
7   -0.474913 
8   0.142018 
9   0.157559 
10   0.157537 
11   0.116955 
12   0.116913 
13   0.137999 
14   0.138099 
15   0.141406 
16   0.141446 
17   0.11478 
18   0.114848 
19   0.292076 
20   0.292091 
 
>  <lowdin_charges> 
20 
1   -0.447255 
2   -0.12438 
3   -0.299438 
4   -0.208863 
5   -0.129087 
6   -0.550659 
7   -0.276291 
8   0.151941 
9   0.156952 
10   0.156524 
11   0.124113 
12   0.124118 
13   0.144573 
14   0.144378 
15   0.141939 
16   0.142079 
17   0.123317 
18   0.12292 
19   0.251468 
20   0.251651 
 
$$$$ 
 
