PCCDB-ID:  18314 
public computational chemistry database (PCCDB) project, http://pccdb.org 
 
 29 28  0  0  1  0  0  0  0  0999 V2000 
    1.7480   -4.0112   -1.8324 C   0  0  0  0  0  0  0  0  0  0  0  0 
    5.7383   -3.3663    1.7628 C   0  0  0  0  0  0  0  0  0  0  0  0 
    6.2994   -0.2474   -1.3687 C   0  0  0  0  0  0  0  0  0  0  0  0 
    4.8115   -4.4937   -2.1027 C   0  0  0  0  0  0  0  0  0  0  0  0 
    2.8382   -2.9674   -1.5592 C   0  0  0  0  0  0  0  0  0  0  0  0 
    6.2418   -2.9604    0.3720 C   0  0  0  0  0  0  0  0  0  0  0  0 
    5.7778   -1.6369   -1.7575 C   0  0  0  0  0  0  0  0  0  0  0  0 
    4.1796   -3.5509   -1.0628 C   0  0  2  0  0  0  0  0  0  0  0  0 
    5.1503   -2.4283   -0.5857 C   0  0  0  0  0  0  0  0  0  0  0  0 
    0.8020   -3.5262   -2.0997 H   0  0  0  0  0  0  0  0  0  0  0  0 
    1.5633   -4.6320   -0.9464 H   0  0  0  0  0  0  0  0  0  0  0  0 
    2.0159   -4.6809   -2.6569 H   0  0  0  0  0  0  0  0  0  0  0  0 
    6.5663   -3.7104    2.3935 H   0  0  0  0  0  0  0  0  0  0  0  0 
    5.0038   -4.1784    1.7189 H   0  0  0  0  0  0  0  0  0  0  0  0 
    5.2632   -2.5186    2.2723 H   0  0  0  0  0  0  0  0  0  0  0  0 
    6.7209    0.2708   -2.2379 H   0  0  0  0  0  0  0  0  0  0  0  0 
    7.0851   -0.2974   -0.6063 H   0  0  0  0  0  0  0  0  0  0  0  0 
    5.4911    0.3774   -0.9687 H   0  0  0  0  0  0  0  0  0  0  0  0 
    4.1811   -5.3721   -2.2754 H   0  0  0  0  0  0  0  0  0  0  0  0 
    5.7911   -4.8609   -1.7770 H   0  0  0  0  0  0  0  0  0  0  0  0 
    4.9495   -3.9931   -3.0687 H   0  0  0  0  0  0  0  0  0  0  0  0 
    2.4669   -2.2617   -0.8029 H   0  0  0  0  0  0  0  0  0  0  0  0 
    3.0033   -2.3759   -2.4708 H   0  0  0  0  0  0  0  0  0  0  0  0 
    6.7557   -3.8120   -0.0952 H   0  0  0  0  0  0  0  0  0  0  0  0 
    7.0106   -2.1877    0.4993 H   0  0  0  0  0  0  0  0  0  0  0  0 
    6.5969   -2.2234   -2.1967 H   0  0  0  0  0  0  0  0  0  0  0  0 
    5.0360   -1.5112   -2.5562 H   0  0  0  0  0  0  0  0  0  0  0  0 
    3.9396   -4.1588   -0.1778 H   0  0  0  0  0  0  0  0  0  0  0  0 
    4.5382   -1.7165   -0.0077 H   0  0  0  0  0  0  0  0  0  0  0  0 
  1  5  1  0  0  0  0 
  1 11  1  0  0  0  0 
  2 15  1  0  0  0  0 
  2 13  1  0  0  0  0 
  3 18  1  0  0  0  0 
  3 17  1  0  0  0  0 
  4 20  1  0  0  0  0 
  4  8  1  0  0  0  0 
  5  8  1  0  0  0  0 
  5 22  1  0  0  0  0 
  6 25  1  0  0  0  0 
  6  2  1  0  0  0  0 
  7  3  1  0  0  0  0 
  7  9  1  0  0  0  0 
  8  9  1  0  0  0  0 
  8 28  1  1  0  0  0 
  9 29  1  0  0  0  0 
  9  6  1  0  0  0  0 
 10  1  1  0  0  0  0 
 12  1  1  0  0  0  0 
 14  2  1  0  0  0  0 
 16  3  1  0  0  0  0 
 19  4  1  0  0  0  0 
 21  4  1  0  0  0  0 
 23  5  1  0  0  0  0 
 24  6  1  0  0  0  0 
 26  7  1  0  0  0  0 
 27  7  1  0  0  0  0 
M  END 
>  <HBA> 
0 
 
>  <HBD> 
0 
 
>  <TPSA> 
0.0 
 
>  <cid> 
18314 
 
>  <dipole> 
0.01 
 
>  <excitation_energy_1> 
7.432 
 
>  <excitation_energy_2> 
7.524 
 
>  <excitation_energy_3> 
7.725 
 
>  <excitation_energy_4> 
7.781 
 
>  <homo_energy> 
-7.872 
 
>  <homo_lumo_gap> 
10.139 
 
>  <logP> 
3.469 
 
>  <lumo_energy> 
2.267 
 
>  <melting_point> 
-28.56 
 
>  <molecular_refractivity> 
45.38 
 
>  <oscillator_strength_1> 
0.0013 
 
>  <oscillator_strength_2> 
0.0014 
 
>  <oscillator_strength_3> 
0.0026 
 
>  <oscillator_strength_4> 
0.0025 
 
>  <open_babel_can_smiles> 
CCC([C@@H](CC)C)CC 
 
>  <mulliken_charges> 
29 
1   -0.44845 
2   -0.449192 
3   -0.449619 
4   -0.460285 
5   -0.25327 
6   -0.266171 
7   -0.265531 
8   -0.074542 
9   -0.057473 
10   0.141028 
11   0.139867 
12   0.145839 
13   0.140901 
14   0.146266 
15   0.141228 
16   0.140878 
17   0.14516 
18   0.141378 
19   0.144018 
20   0.142812 
21   0.142011 
22   0.127446 
23   0.130034 
24   0.13064 
25   0.132443 
26   0.132016 
27   0.133202 
28   0.117758 
29   0.109605 
 
>  <lowdin_charges> 
29 
1   -0.447815 
2   -0.449299 
3   -0.448188 
4   -0.450342 
5   -0.276433 
6   -0.279258 
7   -0.278863 
8   -0.127811 
9   -0.1292 
10   0.149487 
11   0.145667 
12   0.148224 
13   0.15024 
14   0.146454 
15   0.146707 
16   0.149818 
17   0.146344 
18   0.146648 
19   0.150375 
20   0.147447 
21   0.14637 
22   0.14024 
23   0.137938 
24   0.139606 
25   0.142675 
26   0.14135 
27   0.141613 
28   0.136339 
29   0.133667 
 
$$$$ 
 
