PCCDB-ID:  8116 
public computational chemistry database (PCCDB) project, http://pccdb.org 
 
 17 16  0  0  0  0  0  0  0  0999 V2000 
    1.8313    0.8609    0.3635 C   0  0  0  0  0  0  0  0  0  0  0  0 
    2.4336   -0.2473   -0.0651 C   0  0  0  0  0  0  0  0  0  0  0  0 
    6.4618   -2.5818    0.7153 C   0  0  0  0  0  0  0  0  0  0  0  0 
    3.0310   -1.2867    0.8359 C   0  0  0  0  0  0  0  0  0  0  0  0 
    5.0093   -2.5662    1.1668 C   0  0  0  0  0  0  0  0  0  0  0  0 
    7.0838   -1.3315    0.9526 O   0  0  0  0  0  0  0  0  0  0  0  0 
    4.3680   -1.5399    0.4220 O   0  0  0  0  0  0  0  0  0  0  0  0 
    1.3838    1.5716   -0.3258 H   0  0  0  0  0  0  0  0  0  0  0  0 
    1.7569    1.0989    1.4227 H   0  0  0  0  0  0  0  0  0  0  0  0 
    2.5029   -0.4607   -1.1312 H   0  0  0  0  0  0  0  0  0  0  0  0 
    6.5040   -2.8577   -0.3512 H   0  0  0  0  0  0  0  0  0  0  0  0 
    7.0211   -3.3341    1.2815 H   0  0  0  0  0  0  0  0  0  0  0  0 
    2.4478   -2.2232    0.7738 H   0  0  0  0  0  0  0  0  0  0  0  0 
    3.0052   -0.9552    1.8867 H   0  0  0  0  0  0  0  0  0  0  0  0 
    4.9547   -2.3453    2.2449 H   0  0  0  0  0  0  0  0  0  0  0  0 
    4.5258   -3.5415    0.9881 H   0  0  0  0  0  0  0  0  0  0  0  0 
    6.4774   -0.6695    0.5799 H   0  0  0  0  0  0  0  0  0  0  0  0 
  1  9  1  0  0  0  0 
  2  1  2  0  0  0  0 
  2  4  1  0  0  0  0 
  3  6  1  0  0  0  0 
  3  5  1  0  0  0  0 
  3 12  1  0  0  0  0 
  4 14  1  0  0  0  0 
  5 15  1  0  0  0  0 
  7  4  1  0  0  0  0 
  7  5  1  0  0  0  0 
  8  1  1  0  0  0  0 
 10  2  1  0  0  0  0 
 11  3  1  0  0  0  0 
 13  4  1  0  0  0  0 
 16  5  1  0  0  0  0 
 17  6  1  0  0  0  0 
M  END 
>  <HBA> 
2 
 
>  <HBD> 
1 
 
>  <TPSA> 
29.46 
 
>  <cid> 
8116 
 
>  <dipole> 
2.39 
 
>  <excitation_energy_1> 
6.245 
 
>  <excitation_energy_2> 
6.518 
 
>  <excitation_energy_3> 
6.783 
 
>  <excitation_energy_4> 
6.987 
 
>  <homo_energy> 
-7.061 
 
>  <homo_lumo_gap> 
7.246 
 
>  <logP> 
0.181 
 
>  <lumo_energy> 
0.185 
 
>  <melting_point> 
-36.83 
 
>  <molecular_refractivity> 
27.92 
 
>  <oscillator_strength_1> 
0.0235 
 
>  <oscillator_strength_2> 
0.0026 
 
>  <oscillator_strength_3> 
0.0086 
 
>  <oscillator_strength_4> 
0.0069 
 
>  <open_babel_can_smiles> 
OCCOCC=C 
 
>  <mulliken_charges> 
17 
1   -0.334555 
2   -0.055746 
3   -0.0335 
4   -0.053124 
5   -0.032883 
6   -0.622166 
7   -0.491168 
8   0.147798 
9   0.142457 
10   0.142318 
11   0.129892 
12   0.144142 
13   0.131551 
14   0.131408 
15   0.131631 
16   0.120586 
17   0.40136 
 
>  <lowdin_charges> 
17 
1   -0.325469 
2   -0.149589 
3   -0.138157 
4   -0.121776 
5   -0.147548 
6   -0.470147 
7   -0.283798 
8   0.164126 
9   0.155971 
10   0.157908 
11   0.130273 
12   0.151251 
13   0.135349 
14   0.133083 
15   0.1316 
16   0.130634 
17   0.346289 
 
$$$$ 
 
