PCCDB-ID:  61347 
public computational chemistry database (PCCDB) project, http://pccdb.org 
 
 21 21  0  0  0  0  0  0  0  0999 V2000 
    0.9862    0.2227    0.2231 C   0  0  0  0  0  0  0  0  0  0  0  0 
    2.5056    0.0533    0.1247 C   0  0  0  0  0  0  0  0  0  0  0  0 
    2.9829   -0.2298   -1.3051 C   0  0  0  0  0  0  0  0  0  0  0  0 
    5.5217   -0.5061   -4.8648 C   0  0  0  0  0  0  0  0  0  0  0  0 
    4.5055   -0.3980   -1.3930 C   0  0  0  0  0  0  0  0  0  0  0  0 
    5.1048    0.2283   -3.7822 C   0  0  0  0  0  0  0  0  0  0  0  0 
    5.3185   -1.8970   -3.2589 C   0  0  0  0  0  0  0  0  0  0  0  0 
    5.6534   -1.8351   -4.5301 N   0  0  0  0  0  0  0  0  0  0  0  0 
    4.9796   -0.6754   -2.7439 N   0  0  0  0  0  0  0  0  0  0  0  0 
    0.6745    0.4199    1.2547 H   0  0  0  0  0  0  0  0  0  0  0  0 
    0.4644   -0.6799   -0.1168 H   0  0  0  0  0  0  0  0  0  0  0  0 
    0.6396    1.0588   -0.3961 H   0  0  0  0  0  0  0  0  0  0  0  0 
    2.8258   -0.7657    0.7844 H   0  0  0  0  0  0  0  0  0  0  0  0 
    3.0007    0.9594    0.5021 H   0  0  0  0  0  0  0  0  0  0  0  0 
    2.6732    0.5868   -1.9709 H   0  0  0  0  0  0  0  0  0  0  0  0 
    2.5037   -1.1403   -1.6887 H   0  0  0  0  0  0  0  0  0  0  0  0 
    5.7393   -0.1535   -5.8644 H   0  0  0  0  0  0  0  0  0  0  0  0 
    4.8328   -1.2278   -0.7568 H   0  0  0  0  0  0  0  0  0  0  0  0 
    5.0112    0.5037   -1.0275 H   0  0  0  0  0  0  0  0  0  0  0  0 
    4.9008    1.2806   -3.6473 H   0  0  0  0  0  0  0  0  0  0  0  0 
    5.3069   -2.7920   -2.6494 H   0  0  0  0  0  0  0  0  0  0  0  0 
  1 10  1  0  0  0  0 
  2  1  1  0  0  0  0 
  2 14  1  0  0  0  0 
  2 13  1  0  0  0  0 
  3  2  1  0  0  0  0 
  4  8  1  0  0  0  0 
  4  6  2  0  0  0  0 
  5  3  1  0  0  0  0 
  5 19  1  0  0  0  0 
  5 18  1  0  0  0  0 
  6 20  1  0  0  0  0 
  6  9  1  0  0  0  0 
  7  9  1  0  0  0  0 
  7 21  1  0  0  0  0 
  8  7  2  0  0  0  0 
  9  5  1  0  0  0  0 
 11  1  1  0  0  0  0 
 12  1  1  0  0  0  0 
 15  3  1  0  0  0  0 
 16  3  1  0  0  0  0 
 17  4  1  0  0  0  0 
M  END 
>  <HBA> 
2 
 
>  <HBD> 
0 
 
>  <TPSA> 
17.82 
 
>  <cid> 
61347 
 
>  <dipole> 
4.29 
 
>  <excitation_energy_1> 
5.483 
 
>  <excitation_energy_2> 
5.806 
 
>  <excitation_energy_3> 
5.959 
 
>  <excitation_energy_4> 
6.107 
 
>  <homo_energy> 
-5.951 
 
>  <homo_lumo_gap> 
6.885 
 
>  <logP> 
1.683 
 
>  <lumo_energy> 
0.933 
 
>  <melting_point> 
18.99 
 
>  <molecular_refractivity> 
37.91 
 
>  <oscillator_strength_1> 
0.0145 
 
>  <oscillator_strength_2> 
0.0537 
 
>  <oscillator_strength_3> 
0.0234 
 
>  <oscillator_strength_4> 
0.0043 
 
>  <open_babel_can_smiles> 
CCCCn1cncc1 
 
>  <mulliken_charges> 
21 
1   -0.442375 
2   -0.254886 
3   -0.249432 
4   -0.038539 
5   -0.158236 
6   0.004567 
7   0.192127 
8   -0.437021 
9   -0.365512 
10   0.147952 
11   0.147859 
12   0.14664 
13   0.1361 
14   0.135686 
15   0.145483 
16   0.148863 
17   0.131476 
18   0.158542 
19   0.159622 
20   0.144543 
21   0.146542 
 
>  <lowdin_charges> 
21 
1   -0.443099 
2   -0.27447 
3   -0.282986 
4   -0.155691 
5   -0.194095 
6   -0.179085 
7   -0.109507 
8   -0.190272 
9   -0.005115 
10   0.151945 
11   0.150335 
12   0.150018 
13   0.142332 
14   0.141755 
15   0.148475 
16   0.150178 
17   0.15897 
18   0.15789 
19   0.154938 
20   0.164351 
21   0.163134 
 
$$$$ 
 
