PCCDB-ID:  35167 
public computational chemistry database (PCCDB) project, http://pccdb.org 
 
 25 25  0  0  1  0  0  0  0  0999 V2000 
    1.4364    0.0576    0.1678 C   0  0  0  0  0  0  0  0  0  0  0  0 
    5.3870    2.2214   -5.3228 C   0  0  0  0  0  0  0  0  0  0  0  0 
    7.2299   -0.3803    1.8423 C   0  0  0  0  0  0  0  0  0  0  0  0 
    2.9629    0.0940    0.1120 C   0  0  0  0  0  0  0  0  0  0  0  0 
    4.6545    0.7247   -1.3943 C   0  0  0  0  0  0  0  0  0  0  0  0 
    6.3147    1.3438   -2.8857 C   0  0  2  0  0  0  0  0  0  0  0  0 
    6.8744    0.5597   -0.7234 C   0  0  1  0  0  0  0  0  0  0  0  0 
    3.4033    0.5958   -1.1830 N   0  0  0  0  0  0  0  0  0  0  0  0 
    5.0649    1.2135   -2.6578 N   0  0  0  0  0  0  0  0  0  0  0  0 
    5.6398    0.4008   -0.4205 N   0  0  0  0  0  0  0  0  0  0  0  0 
    7.2991    1.0318   -1.9525 N   0  0  0  0  0  0  0  0  0  0  0  0 
    6.9559    1.9446   -4.4314 S   0  0  0  0  0  0  0  0  0  0  0  0 
    8.1984    0.1938    0.4063 S   0  0  0  0  0  0  0  0  0  0  0  0 
    1.0877   -0.3205    1.1364 H   0  0  0  0  0  0  0  0  0  0  0  0 
    1.0371   -0.5889   -0.6211 H   0  0  0  0  0  0  0  0  0  0  0  0 
    1.0211    1.0600    0.0175 H   0  0  0  0  0  0  0  0  0  0  0  0 
    5.6691    2.5728   -6.3180 H   0  0  0  0  0  0  0  0  0  0  0  0 
    4.7883    2.9724   -4.8067 H   0  0  0  0  0  0  0  0  0  0  0  0 
    4.8254    1.2893   -5.3898 H   0  0  0  0  0  0  0  0  0  0  0  0 
    7.9636   -0.6583    2.6025 H   0  0  0  0  0  0  0  0  0  0  0  0 
    6.6225   -1.2423    1.5649 H   0  0  0  0  0  0  0  0  0  0  0  0 
    6.5866    0.4205    2.2081 H   0  0  0  0  0  0  0  0  0  0  0  0 
    3.3690   -0.9135    0.2925 H   0  0  0  0  0  0  0  0  0  0  0  0 
    3.3552    0.7215    0.9271 H   0  0  0  0  0  0  0  0  0  0  0  0 
    8.2816    1.1454   -2.1641 H   0  0  0  0  0  0  0  0  0  0  0  0 
  1 14  1  0  0  0  0 
  2 18  1  0  0  0  0 
  2 12  1  0  0  0  0 
  3 22  1  0  0  0  0 
  3 20  1  0  0  0  0 
  4  1  1  0  0  0  0 
  4 23  1  0  0  0  0 
  4 24  1  0  0  0  0 
  5  8  1  0  0  0  0 
  5 10  2  0  0  0  0 
  6 12  1  1  0  0  0 
  6  9  1  0  0  0  0 
  6 11  1  0  0  0  0 
  7 10  1  0  0  0  0 
  7 13  1  1  0  0  0 
  8  4  1  0  0  0  0 
  9  5  2  0  0  0  0 
 11  7  1  0  0  0  0 
 13  3  1  0  0  0  0 
 15  1  1  0  0  0  0 
 16  1  1  0  0  0  0 
 17  2  1  0  0  0  0 
 19  2  1  0  0  0  0 
 21  3  1  0  0  0  0 
 25 11  1  0  0  0  0 
M  RAD  3   6   2   7   2   8   2 
M  END 
>  <HBA> 
6 
 
>  <HBD> 
1 
 
>  <TPSA> 
101.3 
 
>  <cid> 
35167 
 
>  <dipole> 
3.65 
 
>  <excitation_energy_1> 
4.277 
 
>  <excitation_energy_2> 
4.575 
 
>  <excitation_energy_3> 
4.684 
 
>  <excitation_energy_4> 
4.784 
 
>  <homo_energy> 
-5.889 
 
>  <homo_lumo_gap> 
5.197 
 
>  <logP> 
1.82 
 
>  <lumo_energy> 
-0.691 
 
>  <melting_point> 
111.36 
 
>  <molecular_refractivity> 
57.38 
 
>  <oscillator_strength_1> 
0.0032 
 
>  <oscillator_strength_2> 
0.0017 
 
>  <oscillator_strength_3> 
0.0016 
 
>  <oscillator_strength_4> 
0.0 
 
>  <open_babel_can_smiles> 
CC[N][C]1=N[C](SC)N[C](N=1)SC 
 
>  <mulliken_charges> 
25 
1   -0.434046 
2   -0.573796 
3   -0.575142 
4   -0.117795 
5   0.542196 
6   0.320244 
7   0.329154 
8   -0.449509 
9   -0.449084 
10   -0.484529 
11   -0.64627 
12   0.133456 
13   0.140334 
14   0.124606 
15   0.147317 
16   0.146887 
17   0.183261 
18   0.213787 
19   0.215703 
20   0.185995 
21   0.211682 
22   0.210623 
23   0.130938 
24   0.131188 
25   0.3628 
 
>  <lowdin_charges> 
25 
1   -0.447742 
2   -0.526605 
3   -0.52884 
4   -0.198325 
5   0.098321 
6   -0.011143 
7   0.000692 
8   -0.199985 
9   -0.186816 
10   -0.223134 
11   -0.237789 
12   0.167356 
13   0.171403 
14   0.140961 
15   0.15189 
16   0.150067 
17   0.177711 
18   0.186396 
19   0.186625 
20   0.180284 
21   0.184699 
22   0.184205 
23   0.135589 
24   0.136901 
25   0.307277 
 
$$$$ 
 
