PCCDB-ID:  32777 
public computational chemistry database (PCCDB) project, http://pccdb.org 
 
 17 16  0  0  0  0  0  0  0  0999 V2000 
    3.3247    0.8683   -0.5110 C   0  0  0  0  0  0  0  0  0  0  0  0 
    0.4965   -1.8527    1.6686 C   0  0  0  0  0  0  0  0  0  0  0  0 
    2.4081   -2.5765    3.1119 C   0  0  0  0  0  0  0  0  0  0  0  0 
    2.2284    0.0101    0.1186 C   0  0  0  0  0  0  0  0  0  0  0  0 
    1.7937   -1.7683    1.9981 C   0  0  0  0  0  0  0  0  0  0  0  0 
    2.7379   -0.8520    1.2724 C   0  0  0  0  0  0  0  0  0  0  0  0 
    3.9108   -0.8076    1.6150 O   0  0  0  0  0  0  0  0  0  0  0  0 
    2.9178    1.4633   -1.3355 H   0  0  0  0  0  0  0  0  0  0  0  0 
    4.1359    0.2458   -0.8997 H   0  0  0  0  0  0  0  0  0  0  0  0 
    3.7626    1.5489    0.2249 H   0  0  0  0  0  0  0  0  0  0  0  0 
   -0.1786   -2.5187    2.2000 H   0  0  0  0  0  0  0  0  0  0  0  0 
    0.0564   -1.2694    0.8661 H   0  0  0  0  0  0  0  0  0  0  0  0 
    1.6622   -3.2155    3.5934 H   0  0  0  0  0  0  0  0  0  0  0  0 
    2.8549   -1.9213    3.8677 H   0  0  0  0  0  0  0  0  0  0  0  0 
    3.2217   -3.2052    2.7335 H   0  0  0  0  0  0  0  0  0  0  0  0 
    1.7733   -0.6490   -0.6335 H   0  0  0  0  0  0  0  0  0  0  0  0 
    1.4087    0.6408    0.4900 H   0  0  0  0  0  0  0  0  0  0  0  0 
  1  4  1  0  0  0  0 
  1 10  1  0  0  0  0 
  2  5  2  0  0  0  0 
  2 11  1  0  0  0  0 
  3 13  1  0  0  0  0 
  3 14  1  0  0  0  0 
  4 17  1  0  0  0  0 
  4  6  1  0  0  0  0 
  5  3  1  0  0  0  0 
  6  7  2  0  0  0  0 
  6  5  1  0  0  0  0 
  8  1  1  0  0  0  0 
  9  1  1  0  0  0  0 
 12  2  1  0  0  0  0 
 15  3  1  0  0  0  0 
 16  4  1  0  0  0  0 
M  END 
>  <HBA> 
1 
 
>  <HBD> 
0 
 
>  <TPSA> 
17.07 
 
>  <cid> 
32777 
 
>  <dipole> 
2.57 
 
>  <excitation_energy_1> 
3.686 
 
>  <excitation_energy_2> 
5.623 
 
>  <excitation_energy_3> 
6.296 
 
>  <excitation_energy_4> 
6.736 
 
>  <homo_energy> 
-6.694 
 
>  <homo_lumo_gap> 
5.314 
 
>  <logP> 
1.542 
 
>  <lumo_energy> 
-1.38 
 
>  <melting_point> 
-22.35 
 
>  <molecular_refractivity> 
30.68 
 
>  <oscillator_strength_1> 
0.0002 
 
>  <oscillator_strength_2> 
0.2199 
 
>  <oscillator_strength_3> 
0.0097 
 
>  <oscillator_strength_4> 
0.0006 
 
>  <open_babel_can_smiles> 
CCC(=O)C(=C)C 
 
>  <mulliken_charges> 
17 
1   -0.431857 
2   -0.389249 
3   -0.500232 
4   -0.364465 
5   0.151351 
6   0.41573 
7   -0.455964 
8   0.137931 
9   0.160755 
10   0.160805 
11   0.151609 
12   0.152056 
13   0.143894 
14   0.172436 
15   0.172086 
16   0.161373 
17   0.161739 
 
>  <lowdin_charges> 
17 
1   -0.441932 
2   -0.317614 
3   -0.439874 
4   -0.310991 
5   -0.025949 
6   0.153882 
7   -0.237067 
8   0.150075 
9   0.159761 
10   0.160003 
11   0.165793 
12   0.164923 
13   0.154553 
14   0.169982 
15   0.169559 
16   0.162509 
17   0.162388 
 
$$$$ 
 
