PCCDB-ID:  36802 
public computational chemistry database (PCCDB) project, http://pccdb.org 
 
 32 33  0  0  1  0  0  0  0  0999 V2000 
    7.3359    1.5304   -0.5502 C   0  0  0  0  0  0  0  0  0  0  0  0 
    3.7408   -9.2708    0.0591 C   0  0  0  0  0  0  0  0  0  0  0  0 
    6.0327    0.8083   -0.2173 C   0  0  0  0  0  0  0  0  0  0  0  0 
    3.3691   -6.6958    1.1811 C   0  0  0  0  0  0  0  0  0  0  0  0 
    3.2305   -5.4070    1.7201 C   0  0  0  0  0  0  0  0  0  0  0  0 
    5.4377   -6.0407    0.0798 C   0  0  0  0  0  0  0  0  0  0  0  0 
    6.1414   -3.5245    0.4710 C   0  0  0  0  0  0  0  0  0  0  0  0 
    5.0830   -1.1847    0.8303 C   0  0  0  0  0  0  0  0  0  0  0  0 
    5.3002   -4.7708    0.6146 C   0  0  0  0  0  0  0  0  0  0  0  0 
    4.4639   -7.0140    0.3693 C   0  0  0  0  0  0  0  0  0  0  0  0 
    5.4359   -2.5375    1.4413 C   0  0  1  0  0  0  0  0  0  0  0  0 
    4.2031   -4.4653    1.4251 C   0  0  0  0  0  0  0  0  0  0  0  0 
    6.2955   -0.4672    0.4500 N   0  0  0  0  0  0  0  0  0  0  0  0 
    4.6827   -8.2459   -0.1956 O   0  0  0  0  0  0  0  0  0  0  0  0 
    4.1995   -3.1696    1.8738 O   0  0  0  0  0  0  0  0  0  0  0  0 
    7.1368    2.4690   -1.0787 H   0  0  0  0  0  0  0  0  0  0  0  0 
    7.9744    0.9024   -1.1798 H   0  0  0  0  0  0  0  0  0  0  0  0 
    7.8967    1.7765    0.3608 H   0  0  0  0  0  0  0  0  0  0  0  0 
    4.1027  -10.1524   -0.4740 H   0  0  0  0  0  0  0  0  0  0  0  0 
    2.7417   -9.0076   -0.3156 H   0  0  0  0  0  0  0  0  0  0  0  0 
    3.6696   -9.5011    1.1313 H   0  0  0  0  0  0  0  0  0  0  0  0 
    5.4844    0.5903   -1.1432 H   0  0  0  0  0  0  0  0  0  0  0  0 
    5.3795    1.4736    0.3805 H   0  0  0  0  0  0  0  0  0  0  0  0 
    2.6139   -7.4396    1.4077 H   0  0  0  0  0  0  0  0  0  0  0  0 
    2.3849   -5.1555    2.3519 H   0  0  0  0  0  0  0  0  0  0  0  0 
    6.2757   -6.3131   -0.5550 H   0  0  0  0  0  0  0  0  0  0  0  0 
    6.1390   -3.1330   -0.5538 H   0  0  0  0  0  0  0  0  0  0  0  0 
    7.1897   -3.6804    0.7466 H   0  0  0  0  0  0  0  0  0  0  0  0 
    4.4382   -0.6292    1.5364 H   0  0  0  0  0  0  0  0  0  0  0  0 
    4.4850   -1.3580   -0.0739 H   0  0  0  0  0  0  0  0  0  0  0  0 
    6.0436   -2.3859    2.3453 H   0  0  0  0  0  0  0  0  0  0  0  0 
    6.8485   -0.2851    1.2884 H   0  0  0  0  0  0  0  0  0  0  0  0 
  1  3  1  0  0  0  0 
  1 18  1  0  0  0  0 
  2 21  1  0  0  0  0 
  3 23  1  0  0  0  0 
  3 13  1  0  0  0  0 
  4 24  1  0  0  0  0 
  4  5  2  0  0  0  0 
  5 25  1  0  0  0  0 
  6 10  2  0  0  0  0 
  6  9  1  0  0  0  0 
  7  9  1  0  0  0  0 
  7 28  1  0  0  0  0 
  7 11  1  0  0  0  0 
  8 11  1  0  0  0  0 
  8 29  1  0  0  0  0 
  9 12  2  0  0  0  0 
 10  4  1  0  0  0  0 
 11 15  1  0  0  0  0 
 11 31  1  1  0  0  0 
 12  5  1  0  0  0  0 
 12 15  1  0  0  0  0 
 13  8  1  0  0  0  0 
 13 32  1  0  0  0  0 
 14  2  1  0  0  0  0 
 14 10  1  0  0  0  0 
 16  1  1  0  0  0  0 
 17  1  1  0  0  0  0 
 19  2  1  0  0  0  0 
 20  2  1  0  0  0  0 
 22  3  1  0  0  0  0 
 26  6  1  0  0  0  0 
 27  7  1  0  0  0  0 
 30  8  1  0  0  0  0 
M  END 
>  <HBA> 
3 
 
>  <HBD> 
1 
 
>  <TPSA> 
30.49 
 
>  <cid> 
36802 
 
>  <dipole> 
0.68 
 
>  <excitation_energy_1> 
4.404 
 
>  <excitation_energy_2> 
4.838 
 
>  <excitation_energy_3> 
4.957 
 
>  <excitation_energy_4> 
5.295 
 
>  <homo_energy> 
-5.091 
 
>  <homo_lumo_gap> 
5.162 
 
>  <logP> 
1.999 
 
>  <lumo_energy> 
0.071 
 
>  <melting_point> 
67.13 
 
>  <molecular_refractivity> 
59.5 
 
>  <oscillator_strength_1> 
0.0767 
 
>  <oscillator_strength_2> 
0.0066 
 
>  <oscillator_strength_3> 
0.0103 
 
>  <oscillator_strength_4> 
0.0019 
 
>  <open_babel_can_smiles> 
CCNC[C@@H]1Cc2c(O1)ccc(c2)OC 
 
>  <mulliken_charges> 
32 
1   -0.451742 
2   -0.210574 
3   -0.10586 
4   -0.206498 
5   -0.200183 
6   -0.256035 
7   -0.360578 
8   -0.133917 
9   0.102669 
10   0.373535 
11   0.132921 
12   0.355963 
13   -0.558286 
14   -0.514811 
15   -0.554659 
16   0.146575 
17   0.159844 
18   0.138798 
19   0.165229 
20   0.147282 
21   0.147279 
22   0.14294 
23   0.113971 
24   0.128421 
25   0.135245 
26   0.133517 
27   0.172379 
28   0.159375 
29   0.12931 
30   0.147604 
31   0.131208 
32   0.289081 
 
>  <lowdin_charges> 
32 
1   -0.449776 
2   -0.276048 
3   -0.198147 
4   -0.209547 
5   -0.184216 
6   -0.181661 
7   -0.280335 
8   -0.212127 
9   -0.036006 
10   0.088004 
11   0.012647 
12   0.078358 
13   -0.365063 
14   -0.208377 
15   -0.220881 
16   0.154066 
17   0.157975 
18   0.145567 
19   0.160795 
20   0.141181 
21   0.140306 
22   0.14281 
23   0.118857 
24   0.162794 
25   0.165728 
26   0.166067 
27   0.163909 
28   0.160056 
29   0.129445 
30   0.147736 
31   0.13659 
32   0.249294 
 
$$$$ 
 
