PCCDB-ID:  15427 
public computational chemistry database (PCCDB) project, http://pccdb.org 
 
 25 26  0  0  0  0  0  0  0  0999 V2000 
    1.0338    0.1921    0.0771 C   0  0  0  0  0  0  0  0  0  0  0  0 
    2.9770   -2.0752    1.3300 C   0  0  0  0  0  0  0  0  0  0  0  0 
    2.9652   -2.0683   -1.2069 C   0  0  0  0  0  0  0  0  0  0  0  0 
    7.1052   -0.5621    0.0452 C   0  0  0  0  0  0  0  0  0  0  0  0 
    7.0172    0.8337    0.0496 C   0  0  0  0  0  0  0  0  0  0  0  0 
    5.9466   -1.3533    0.0488 C   0  0  0  0  0  0  0  0  0  0  0  0 
    5.7734    1.4754    0.0583 C   0  0  0  0  0  0  0  0  0  0  0  0 
    2.5332    0.0893    0.0699 C   0  0  0  0  0  0  0  0  0  0  0  0 
    4.7116   -0.7210    0.0573 C   0  0  0  0  0  0  0  0  0  0  0  0 
    4.6304    0.6820    0.0628 C   0  0  0  0  0  0  0  0  0  0  0  0 
    3.2913   -1.2505    0.0622 C   0  0  0  0  0  0  0  0  0  0  0  0 
    3.2868    1.1377    0.0709 N   0  0  0  0  0  0  0  0  0  0  0  0 
    0.5524   -0.7900    0.0849 H   0  0  0  0  0  0  0  0  0  0  0  0 
    0.6833    0.7398   -0.8052 H   0  0  0  0  0  0  0  0  0  0  0  0 
    0.6927    0.7502    0.9563 H   0  0  0  0  0  0  0  0  0  0  0  0 
    1.9212   -2.3689    1.3584 H   0  0  0  0  0  0  0  0  0  0  0  0 
    3.2018   -1.5069    2.2384 H   0  0  0  0  0  0  0  0  0  0  0  0 
    3.5795   -2.9905    1.3450 H   0  0  0  0  0  0  0  0  0  0  0  0 
    1.9092   -2.3621   -1.2268 H   0  0  0  0  0  0  0  0  0  0  0  0 
    3.5677   -2.9834   -1.2326 H   0  0  0  0  0  0  0  0  0  0  0  0 
    3.1811   -1.4950   -2.1143 H   0  0  0  0  0  0  0  0  0  0  0  0 
    8.0813   -1.0396    0.0401 H   0  0  0  0  0  0  0  0  0  0  0  0 
    7.9273    1.4277    0.0454 H   0  0  0  0  0  0  0  0  0  0  0  0 
    6.0273   -2.4383    0.0440 H   0  0  0  0  0  0  0  0  0  0  0  0 
    5.6904    2.5580    0.0624 H   0  0  0  0  0  0  0  0  0  0  0  0 
  1 13  1  0  0  0  0 
  1 15  1  0  0  0  0 
  2 18  1  0  0  0  0 
  2 16  1  0  0  0  0 
  2 17  1  0  0  0  0 
  3 11  1  0  0  0  0 
  4  6  2  0  0  0  0 
  4  5  1  0  0  0  0 
  5  7  2  0  0  0  0 
  6  9  1  0  0  0  0 
  7 25  1  0  0  0  0 
  7 10  1  0  0  0  0 
  8 12  2  0  0  0  0 
  8  1  1  0  0  0  0 
  9 11  1  0  0  0  0 
  9 10  2  0  0  0  0 
 10 12  1  0  0  0  0 
 11  8  1  0  0  0  0 
 11  2  1  0  0  0  0 
 14  1  1  0  0  0  0 
 19  3  1  0  0  0  0 
 20  3  1  0  0  0  0 
 21  3  1  0  0  0  0 
 22  4  1  0  0  0  0 
 23  5  1  0  0  0  0 
 24  6  1  0  0  0  0 
M  END 
>  <HBA> 
1 
 
>  <HBD> 
0 
 
>  <TPSA> 
12.36 
 
>  <cid> 
15427 
 
>  <dipole> 
2.27 
 
>  <excitation_energy_1> 
4.671 
 
>  <excitation_energy_2> 
4.796 
 
>  <excitation_energy_3> 
4.814 
 
>  <excitation_energy_4> 
5.521 
 
>  <homo_energy> 
-5.957 
 
>  <homo_lumo_gap> 
5.216 
 
>  <logP> 
2.506 
 
>  <lumo_energy> 
-0.74 
 
>  <melting_point> 
60.92 
 
>  <molecular_refractivity> 
56.13 
 
>  <oscillator_strength_1> 
0.1505 
 
>  <oscillator_strength_2> 
0.0036 
 
>  <oscillator_strength_3> 
0.0002 
 
>  <oscillator_strength_4> 
0.0001 
 
>  <open_babel_can_smiles> 
CC1=Nc2c(C1(C)C)cccc2 
 
>  <mulliken_charges> 
25 
1   -0.518893 
2   -0.445583 
3   -0.445611 
4   -0.134437 
5   -0.139035 
6   -0.211017 
7   -0.183602 
8   0.32113 
9   0.136664 
10   0.237305 
11   -0.069387 
12   -0.495943 
13   0.152578 
14   0.180552 
15   0.180732 
16   0.146066 
17   0.162688 
18   0.152521 
19   0.146074 
20   0.152511 
21   0.162653 
22   0.125109 
23   0.127398 
24   0.12232 
25   0.137209 
 
>  <lowdin_charges> 
25 
1   -0.451966 
2   -0.430439 
3   -0.430466 
4   -0.163876 
5   -0.157042 
6   -0.161524 
7   -0.16255 
8   0.063904 
9   -0.026929 
10   0.025383 
11   -0.003407 
12   -0.165752 
13   0.155565 
14   0.176542 
15   0.176664 
16   0.14882 
17   0.160021 
18   0.15475 
19   0.148853 
20   0.15474 
21   0.159994 
22   0.155904 
23   0.157685 
24   0.15173 
25   0.163396 
 
$$$$ 
 
