PCCDB-ID:  13205 
public computational chemistry database (PCCDB) project, http://pccdb.org 
 
 19 19  0  0  0  0  0  0  0  0999 V2000 
    0.9077    0.0388    0.1094 C   0  0  0  0  0  0  0  0  0  0  0  0 
    5.2081    0.1337   -0.3306 C   0  0  0  0  0  0  0  0  0  0  0  0 
    4.5109    1.3339   -0.2561 C   0  0  0  0  0  0  0  0  0  0  0  0 
    4.5342   -1.0823   -0.2783 C   0  0  0  0  0  0  0  0  0  0  0  0 
    2.4091    0.1105   -0.0510 C   0  0  0  0  0  0  0  0  0  0  0  0 
    3.1117    1.3318   -0.1197 C   0  0  0  0  0  0  0  0  0  0  0  0 
    3.1382   -1.0951   -0.1417 C   0  0  0  0  0  0  0  0  0  0  0  0 
    2.4336    2.5634   -0.1154 N   0  0  0  0  0  0  0  0  0  0  0  0 
    2.4594   -2.3220   -0.0358 N   0  0  0  0  0  0  0  0  0  0  0  0 
    0.4577    0.9888    0.4094 H   0  0  0  0  0  0  0  0  0  0  0  0 
    0.6337   -0.7010    0.8718 H   0  0  0  0  0  0  0  0  0  0  0  0 
    0.4039   -0.2535   -0.8249 H   0  0  0  0  0  0  0  0  0  0  0  0 
    6.2900    0.1459   -0.4362 H   0  0  0  0  0  0  0  0  0  0  0  0 
    5.0401    2.2827   -0.3062 H   0  0  0  0  0  0  0  0  0  0  0  0 
    5.0779   -2.0217   -0.3456 H   0  0  0  0  0  0  0  0  0  0  0  0 
    3.0309    3.3424    0.1362 H   0  0  0  0  0  0  0  0  0  0  0  0 
    1.5845    2.5843    0.4354 H   0  0  0  0  0  0  0  0  0  0  0  0 
    3.0134   -3.1135   -0.3418 H   0  0  0  0  0  0  0  0  0  0  0  0 
    1.5469   -2.3407   -0.4756 H   0  0  0  0  0  0  0  0  0  0  0  0 
  1 10  1  0  0  0  0 
  1 11  1  0  0  0  0 
  2  4  2  0  0  0  0 
  2  3  1  0  0  0  0 
  3  6  2  0  0  0  0 
  4  7  1  0  0  0  0 
  5  1  1  0  0  0  0 
  6  8  1  0  0  0  0 
  6  5  1  0  0  0  0 
  7  5  2  0  0  0  0 
  7  9  1  0  0  0  0 
  8 16  1  0  0  0  0 
  8 17  1  0  0  0  0 
 12  1  1  0  0  0  0 
 13  2  1  0  0  0  0 
 14  3  1  0  0  0  0 
 15  4  1  0  0  0  0 
 18  9  1  0  0  0  0 
 19  9  1  0  0  0  0 
M  END 
>  <HBA> 
2 
 
>  <HBD> 
2 
 
>  <TPSA> 
52.04 
 
>  <cid> 
13205 
 
>  <dipole> 
1.0 
 
>  <excitation_energy_1> 
4.43 
 
>  <excitation_energy_2> 
4.7 
 
>  <excitation_energy_3> 
4.77 
 
>  <excitation_energy_4> 
4.939 
 
>  <homo_energy> 
-5.021 
 
>  <homo_lumo_gap> 
5.646 
 
>  <logP> 
2.322 
 
>  <lumo_energy> 
0.626 
 
>  <melting_point> 
107.47 
 
>  <molecular_refractivity> 
40.22 
 
>  <oscillator_strength_1> 
0.0011 
 
>  <oscillator_strength_2> 
0.0127 
 
>  <oscillator_strength_3> 
0.0166 
 
>  <oscillator_strength_4> 
0.0054 
 
>  <open_babel_can_smiles> 
Nc1cccc(c1C)N 
 
>  <mulliken_charges> 
19 
1   -0.555484 
2   -0.144532 
3   -0.177694 
4   -0.177829 
5   0.128249 
6   0.223143 
7   0.227943 
8   -0.790549 
9   -0.791178 
10   0.139968 
11   0.170221 
12   0.155534 
13   0.118841 
14   0.104484 
15   0.104619 
16   0.315335 
17   0.314304 
18   0.316086 
19   0.318539 
 
>  <lowdin_charges> 
19 
1   -0.447738 
2   -0.141094 
3   -0.227105 
4   -0.228661 
5   -0.077808 
6   0.056607 
7   0.056662 
8   -0.496858 
9   -0.494631 
10   0.151055 
11   0.162333 
12   0.15327 
13   0.151808 
14   0.147833 
15   0.147894 
16   0.272355 
17   0.268761 
18   0.272565 
19   0.272751 
 
$$$$ 
 
