PCCDB-ID:  14494 
public computational chemistry database (PCCDB) project, http://pccdb.org 
 
 34 33  0  0  0  0  0  0  0  0999 V2000 
    1.8498   -0.0337   -0.5563 C   0  0  0  0  0  0  0  0  0  0  0  0 
    0.7163   -0.8286    0.1365 C   0  0  0  0  0  0  0  0  0  0  0  0 
    2.7548    0.7731    0.3967 C   0  0  0  0  0  0  0  0  0  0  0  0 
   -0.6570   -0.1238    0.2504 C   0  0  0  0  0  0  0  0  0  0  0  0 
    2.1004    1.9334    1.1673 C   0  0  0  0  0  0  0  0  0  0  0  0 
   -1.6373   -0.3992   -0.9044 C   0  0  0  0  0  0  0  0  0  0  0  0 
    1.6397    3.1007    0.2804 C   0  0  0  0  0  0  0  0  0  0  0  0 
   -1.1981    0.1121   -2.2822 C   0  0  0  0  0  0  0  0  0  0  0  0 
    1.0469    4.2494    1.0990 C   0  0  0  0  0  0  0  0  0  0  0  0 
   -2.2454   -0.0754   -3.3863 C   0  0  0  0  0  0  0  0  0  0  0  0 
    0.3973    5.6525    0.0939 S   0  0  0  0  0  0  0  0  0  0  0  0 
   -2.6335   -1.8272   -3.8280 S   0  0  0  0  0  0  0  0  0  0  0  0 
    1.4345    0.6272   -1.3270 H   0  0  0  0  0  0  0  0  0  0  0  0 
    2.4985   -0.7388   -1.0929 H   0  0  0  0  0  0  0  0  0  0  0  0 
    1.0614   -1.1050    1.1425 H   0  0  0  0  0  0  0  0  0  0  0  0 
    0.5683   -1.7814   -0.3899 H   0  0  0  0  0  0  0  0  0  0  0  0 
    3.6021    1.1722   -0.1797 H   0  0  0  0  0  0  0  0  0  0  0  0 
    3.1894    0.0754    1.1266 H   0  0  0  0  0  0  0  0  0  0  0  0 
   -0.5173    0.9601    0.3569 H   0  0  0  0  0  0  0  0  0  0  0  0 
   -1.1464   -0.4539    1.1762 H   0  0  0  0  0  0  0  0  0  0  0  0 
    2.8275    2.3138    1.8989 H   0  0  0  0  0  0  0  0  0  0  0  0 
    1.2511    1.5605    1.7559 H   0  0  0  0  0  0  0  0  0  0  0  0 
   -2.6036    0.0641   -0.6562 H   0  0  0  0  0  0  0  0  0  0  0  0 
   -1.8260   -1.4786   -0.9666 H   0  0  0  0  0  0  0  0  0  0  0  0 
    0.8937    2.7643   -0.4489 H   0  0  0  0  0  0  0  0  0  0  0  0 
    2.4949    3.4724   -0.3021 H   0  0  0  0  0  0  0  0  0  0  0  0 
   -0.2626   -0.3720   -2.5914 H   0  0  0  0  0  0  0  0  0  0  0  0 
   -0.9808    1.1895   -2.2194 H   0  0  0  0  0  0  0  0  0  0  0  0 
    1.7723    4.6357    1.8226 H   0  0  0  0  0  0  0  0  0  0  0  0 
    0.1773    3.9059    1.6704 H   0  0  0  0  0  0  0  0  0  0  0  0 
   -1.9471    0.4503   -4.2982 H   0  0  0  0  0  0  0  0  0  0  0  0 
   -3.2099    0.3416   -3.0758 H   0  0  0  0  0  0  0  0  0  0  0  0 
    1.5701    5.9864   -0.4884 H   0  0  0  0  0  0  0  0  0  0  0  0 
   -1.4124   -2.1361   -4.3181 H   0  0  0  0  0  0  0  0  0  0  0  0 
  1  2  1  0  0  0  0 
  1  3  1  0  0  0  0 
  2  4  1  0  0  0  0 
  2 15  1  0  0  0  0 
  3 18  1  0  0  0  0 
  3  5  1  0  0  0  0 
  4 19  1  0  0  0  0 
  4 20  1  0  0  0  0 
  5 22  1  0  0  0  0 
  5 21  1  0  0  0  0 
  6 23  1  0  0  0  0 
  6  4  1  0  0  0  0 
  7  9  1  0  0  0  0 
  7  5  1  0  0  0  0 
  8 28  1  0  0  0  0 
  8  6  1  0  0  0  0 
  9 30  1  0  0  0  0 
  9 29  1  0  0  0  0 
 10 32  1  0  0  0  0 
 10  8  1  0  0  0  0 
 11  9  1  0  0  0  0 
 12 10  1  0  0  0  0 
 13  1  1  0  0  0  0 
 14  1  1  0  0  0  0 
 16  2  1  0  0  0  0 
 17  3  1  0  0  0  0 
 24  6  1  0  0  0  0 
 25  7  1  0  0  0  0 
 26  7  1  0  0  0  0 
 27  8  1  0  0  0  0 
 31 10  1  0  0  0  0 
 33 11  1  0  0  0  0 
 34 12  1  0  0  0  0 
M  END 
>  <HBA> 
2 
 
>  <HBD> 
2 
 
>  <TPSA> 
77.6 
 
>  <cid> 
14494 
 
>  <dipole> 
2.68 
 
>  <excitation_energy_1> 
5.207 
 
>  <excitation_energy_2> 
5.226 
 
>  <excitation_energy_3> 
5.812 
 
>  <excitation_energy_4> 
5.839 
 
>  <homo_energy> 
-6.359 
 
>  <homo_lumo_gap> 
7.075 
 
>  <logP> 
3.967 
 
>  <lumo_energy> 
0.716 
 
>  <melting_point> 
11.3 
 
>  <molecular_refractivity> 
66.04 
 
>  <oscillator_strength_1> 
0.0144 
 
>  <oscillator_strength_2> 
0.0115 
 
>  <oscillator_strength_3> 
0.03 
 
>  <oscillator_strength_4> 
0.0344 
 
>  <open_babel_can_smiles> 
SCCCCCCCCCCS 
 
>  <mulliken_charges> 
34 
1   -0.264817 
2   -0.264102 
3   -0.26142 
4   -0.267518 
5   -0.259645 
6   -0.256621 
7   -0.250005 
8   -0.251529 
9   -0.415651 
10   -0.414475 
11   -0.086644 
12   -0.089933 
13   0.139709 
14   0.130667 
15   0.132183 
16   0.135672 
17   0.127605 
18   0.131687 
19   0.135154 
20   0.132152 
21   0.130732 
22   0.138915 
23   0.12642 
24   0.158647 
25   0.157389 
26   0.133292 
27   0.141845 
28   0.141984 
29   0.175152 
30   0.176968 
31   0.176606 
32   0.17733 
33   0.091244 
34   0.091008 
 
>  <lowdin_charges> 
34 
1   -0.286441 
2   -0.281902 
3   -0.277023 
4   -0.279126 
5   -0.282845 
6   -0.275821 
7   -0.285521 
8   -0.281254 
9   -0.370696 
10   -0.369675 
11   -0.091107 
12   -0.092596 
13   0.143121 
14   0.145743 
15   0.141738 
16   0.143861 
17   0.140748 
18   0.143008 
19   0.137865 
20   0.145117 
21   0.143335 
22   0.143091 
23   0.13995 
24   0.150295 
25   0.150205 
26   0.142672 
27   0.144842 
28   0.144172 
29   0.159208 
30   0.166645 
31   0.1616 
32   0.166114 
33   0.110991 
34   0.109689 
 
$$$$ 
 
