PCCDB-ID:  21842 
public computational chemistry database (PCCDB) project, http://pccdb.org 
 
 24 24  0  0  0  0  0  0  0  0999 V2000 
    7.5497   -1.8710   -3.7283 C   0  0  0  0  0  0  0  0  0  0  0  0 
    7.9875   -0.8647   -2.8690 C   0  0  0  0  0  0  0  0  0  0  0  0 
    6.1818   -2.1497   -3.8195 C   0  0  0  0  0  0  0  0  0  0  0  0 
    7.0719   -0.1502   -2.0916 C   0  0  0  0  0  0  0  0  0  0  0  0 
    5.2605   -1.4382   -3.0566 C   0  0  0  0  0  0  0  0  0  0  0  0 
    3.8208    0.2180    3.3503 C   0  0  0  0  0  0  0  0  0  0  0  0 
    4.1011    1.4140    2.4305 C   0  0  0  0  0  0  0  0  0  0  0  0 
    5.6950   -0.4379   -2.1702 C   0  0  0  0  0  0  0  0  0  0  0  0 
    4.7932    0.3596   -0.1677 C   0  0  0  0  0  0  0  0  0  0  0  0 
    4.7328    0.2823   -1.4347 N   0  0  0  0  0  0  0  0  0  0  0  0 
    4.7996   -0.7976    3.3016 O   0  0  0  0  0  0  0  0  0  0  0  0 
    5.7198   -0.2223    0.6511 O   0  0  0  0  0  0  0  0  0  0  0  0 
    3.5237    1.2626    0.6809 S   0  0  0  0  0  0  0  0  0  0  0  0 
    8.2627   -2.4250   -4.3320 H   0  0  0  0  0  0  0  0  0  0  0  0 
    9.0452   -0.6229   -2.8043 H   0  0  0  0  0  0  0  0  0  0  0  0 
    5.8301   -2.9249   -4.4951 H   0  0  0  0  0  0  0  0  0  0  0  0 
    7.4130    0.6706   -1.4647 H   0  0  0  0  0  0  0  0  0  0  0  0 
    4.1967   -1.6421   -3.1286 H   0  0  0  0  0  0  0  0  0  0  0  0 
    2.8106   -0.1701    3.1403 H   0  0  0  0  0  0  0  0  0  0  0  0 
    3.8208    0.5839    4.3847 H   0  0  0  0  0  0  0  0  0  0  0  0 
    5.1629    1.6731    2.4452 H   0  0  0  0  0  0  0  0  0  0  0  0 
    3.5360    2.2859    2.7787 H   0  0  0  0  0  0  0  0  0  0  0  0 
    5.0059   -0.9672    2.3676 H   0  0  0  0  0  0  0  0  0  0  0  0 
    6.3654   -0.6915    0.0829 H   0  0  0  0  0  0  0  0  0  0  0  0 
  1  2  1  0  0  0  0 
  2 15  1  0  0  0  0 
  2  4  2  0  0  0  0 
  3  1  2  0  0  0  0 
  3  5  1  0  0  0  0 
  4 17  1  0  0  0  0 
  5  8  2  0  0  0  0 
  6 20  1  0  0  0  0 
  7 21  1  0  0  0  0 
  7 22  1  0  0  0  0 
  7  6  1  0  0  0  0 
  8  4  1  0  0  0  0 
  8 10  1  0  0  0  0 
  9 12  1  0  0  0  0 
  9 13  1  0  0  0  0 
 10  9  2  0  0  0  0 
 11  6  1  0  0  0  0 
 13  7  1  0  0  0  0 
 14  1  1  0  0  0  0 
 16  3  1  0  0  0  0 
 18  5  1  0  0  0  0 
 19  6  1  0  0  0  0 
 23 11  1  0  0  0  0 
 24 12  1  0  0  0  0 
M  END 
>  <HBA> 
4 
 
>  <HBD> 
2 
 
>  <TPSA> 
74.63 
 
>  <cid> 
21842 
 
>  <dipole> 
1.7 
 
>  <excitation_energy_1> 
4.774 
 
>  <excitation_energy_2> 
4.841 
 
>  <excitation_energy_3> 
5.217 
 
>  <excitation_energy_4> 
5.388 
 
>  <homo_energy> 
-6.158 
 
>  <homo_lumo_gap> 
5.567 
 
>  <logP> 
2.017 
 
>  <lumo_energy> 
-0.59 
 
>  <melting_point> 
95.85 
 
>  <molecular_refractivity> 
54.7 
 
>  <oscillator_strength_1> 
0.1769 
 
>  <oscillator_strength_2> 
0.2 
 
>  <oscillator_strength_3> 
0.007 
 
>  <oscillator_strength_4> 
0.0376 
 
>  <open_babel_can_smiles> 
OCCS/C(=N/c1ccccc1)/O 
 
>  <mulliken_charges> 
24 
1   -0.128135 
2   -0.132426 
3   -0.136622 
4   -0.203074 
5   -0.138398 
6   -0.006542 
7   -0.46642 
8   0.205413 
9   0.313403 
10   -0.460903 
11   -0.632675 
12   -0.595598 
13   0.171139 
14   0.13376 
15   0.137375 
16   0.13785 
17   0.14707 
18   0.144482 
19   0.136504 
20   0.147691 
21   0.200591 
22   0.183344 
23   0.414232 
24   0.427938 
 
>  <lowdin_charges> 
24 
1   -0.168361 
2   -0.146989 
3   -0.145025 
4   -0.210218 
5   -0.164703 
6   -0.131923 
7   -0.397816 
8   0.037922 
9   0.024365 
10   -0.194123 
11   -0.473758 
12   -0.3747 
13   0.18741 
14   0.162016 
15   0.159765 
16   0.162547 
17   0.163426 
18   0.16699 
19   0.132548 
20   0.147559 
21   0.175605 
22   0.178778 
23   0.339245 
24   0.36944 
 
$$$$ 
 
