PCCDB-ID:  19543 
public computational chemistry database (PCCDB) project, http://pccdb.org 
 
 17 16  0  0  0  0  0  0  0  0999 V2000 
    2.6599    1.2602   -1.1144 C   0  0  0  0  0  0  0  0  0  0  0  0 
    2.9688    1.2873    1.3654 C   0  0  0  0  0  0  0  0  0  0  0  0 
    5.7131   -1.0882   -0.9593 C   0  0  0  0  0  0  0  0  0  0  0  0 
    3.3142   -0.8667    0.0090 C   0  0  0  0  0  0  0  0  0  0  0  0 
    2.9549    0.6115    0.0176 C   0  0  0  0  0  0  0  0  0  0  0  0 
    4.8172   -1.0499    0.2644 C   0  0  0  0  0  0  0  0  0  0  0  0 
    5.2589   -1.1249    1.3950 O   0  0  0  0  0  0  0  0  0  0  0  0 
    2.4146    2.3192   -1.1149 H   0  0  0  0  0  0  0  0  0  0  0  0 
    2.6393    0.7569   -2.0781 H   0  0  0  0  0  0  0  0  0  0  0  0 
    2.7749    2.3605    1.2783 H   0  0  0  0  0  0  0  0  0  0  0  0 
    3.9296    1.1422    1.8730 H   0  0  0  0  0  0  0  0  0  0  0  0 
    2.2039    0.8523    2.0232 H   0  0  0  0  0  0  0  0  0  0  0  0 
    5.4977   -0.2375   -1.6162 H   0  0  0  0  0  0  0  0  0  0  0  0 
    5.5155   -2.0000   -1.5380 H   0  0  0  0  0  0  0  0  0  0  0  0 
    6.7619   -1.0725   -0.6565 H   0  0  0  0  0  0  0  0  0  0  0  0 
    3.0369   -1.3145   -0.9513 H   0  0  0  0  0  0  0  0  0  0  0  0 
    2.7817   -1.3894    0.8122 H   0  0  0  0  0  0  0  0  0  0  0  0 
  1  5  2  0  0  0  0 
  2 11  1  0  0  0  0 
  2 12  1  0  0  0  0 
  3 15  1  0  0  0  0 
  3  6  1  0  0  0  0 
  4  5  1  0  0  0  0 
  4  6  1  0  0  0  0 
  4 17  1  0  0  0  0 
  5  2  1  0  0  0  0 
  6  7  2  0  0  0  0 
  8  1  1  0  0  0  0 
  9  1  1  0  0  0  0 
 10  2  1  0  0  0  0 
 13  3  1  0  0  0  0 
 14  3  1  0  0  0  0 
 16  4  1  0  0  0  0 
M  END 
>  <HBA> 
1 
 
>  <HBD> 
0 
 
>  <TPSA> 
17.07 
 
>  <cid> 
19543 
 
>  <dipole> 
2.26 
 
>  <excitation_energy_1> 
4.173 
 
>  <excitation_energy_2> 
5.532 
 
>  <excitation_energy_3> 
5.892 
 
>  <excitation_energy_4> 
6.045 
 
>  <homo_energy> 
-6.378 
 
>  <homo_lumo_gap> 
5.774 
 
>  <logP> 
1.542 
 
>  <lumo_energy> 
-0.604 
 
>  <melting_point> 
-22.35 
 
>  <molecular_refractivity> 
30.68 
 
>  <oscillator_strength_1> 
0.0086 
 
>  <oscillator_strength_2> 
0.0381 
 
>  <oscillator_strength_3> 
0.0034 
 
>  <oscillator_strength_4> 
0.0768 
 
>  <open_babel_can_smiles> 
CC(=C)CC(=O)C 
 
>  <mulliken_charges> 
17 
1   -0.394097 
2   -0.507862 
3   -0.529905 
4   -0.400473 
5   0.21321 
6   0.451142 
7   -0.433051 
8   0.138854 
9   0.132705 
10   0.15147 
11   0.180581 
12   0.157595 
13   0.175324 
14   0.169914 
15   0.179201 
16   0.147091 
17   0.168301 
 
>  <lowdin_charges> 
17 
1   -0.361105 
2   -0.443019 
3   -0.474335 
4   -0.306183 
5   0.014638 
6   0.17068 
7   -0.23784 
8   0.156461 
9   0.153498 
10   0.154892 
11   0.169663 
12   0.160639 
13   0.173584 
14   0.171422 
15   0.171054 
16   0.156785 
17   0.169166 
 
$$$$ 
 
