PCCDB-ID:  69465 
public computational chemistry database (PCCDB) project, http://pccdb.org 
 
 18 18  0  0  0  0  0  0  0  0999 V2000 
    1.0707   -0.1582    0.0694 C   0  0  0  0  0  0  0  0  0  0  0  0 
    5.6576   -1.7733   -0.0480 C   0  0  0  0  0  0  0  0  0  0  0  0 
    3.3423    1.1518    0.0574 C   0  0  0  0  0  0  0  0  0  0  0  0 
    2.5430    0.0533    0.0480 C   0  0  0  0  0  0  0  0  0  0  0  0 
    4.6326   -0.6951   -0.0048 C   0  0  0  0  0  0  0  0  0  0  0  0 
    4.7058    0.6781    0.0233 C   0  0  0  0  0  0  0  0  0  0  0  0 
    5.9802    1.4168    0.0163 C   0  0  0  0  0  0  0  0  0  0  0  0 
    7.0688    0.8850   -0.0254 O   0  0  0  0  0  0  0  0  0  0  0  0 
    5.8992    2.7775    0.0604 O   0  0  0  0  0  0  0  0  0  0  0  0 
    3.3283   -1.0772    0.0103 O   0  0  0  0  0  0  0  0  0  0  0  0 
    0.5569    0.8067    0.0939 H   0  0  0  0  0  0  0  0  0  0  0  0 
    0.7602   -0.7341    0.9498 H   0  0  0  0  0  0  0  0  0  0  0  0 
    0.7307   -0.7052   -0.8184 H   0  0  0  0  0  0  0  0  0  0  0  0 
    6.3421   -1.6949    0.8025 H   0  0  0  0  0  0  0  0  0  0  0  0 
    6.2743   -1.6907   -0.9490 H   0  0  0  0  0  0  0  0  0  0  0  0 
    5.1683   -2.7507   -0.0329 H   0  0  0  0  0  0  0  0  0  0  0  0 
    2.9867    2.1745    0.0843 H   0  0  0  0  0  0  0  0  0  0  0  0 
    4.9712    3.0588    0.0941 H   0  0  0  0  0  0  0  0  0  0  0  0 
  1 11  1  0  0  0  0 
  1 12  1  0  0  0  0 
  2 16  1  0  0  0  0 
  2  5  1  0  0  0  0 
  2 14  1  0  0  0  0 
  3 17  1  0  0  0  0 
  4  3  2  0  0  0  0 
  4  1  1  0  0  0  0 
  5 10  1  0  0  0  0 
  5  6  2  0  0  0  0 
  6  3  1  0  0  0  0 
  7  6  1  0  0  0  0 
  7  9  1  0  0  0  0 
  8  7  2  0  0  0  0 
  9 18  1  0  0  0  0 
 10  4  1  0  0  0  0 
 13  1  1  0  0  0  0 
 15  2  1  0  0  0  0 
M  END 
>  <HBA> 
3 
 
>  <HBD> 
1 
 
>  <TPSA> 
50.44 
 
>  <cid> 
69465 
 
>  <dipole> 
4.77 
 
>  <excitation_energy_1> 
5.014 
 
>  <excitation_energy_2> 
5.098 
 
>  <excitation_energy_3> 
5.337 
 
>  <excitation_energy_4> 
5.904 
 
>  <homo_energy> 
-6.218 
 
>  <homo_lumo_gap> 
5.559 
 
>  <logP> 
1.595 
 
>  <lumo_energy> 
-0.659 
 
>  <melting_point> 
103.55 
 
>  <molecular_refractivity> 
35.6 
 
>  <oscillator_strength_1> 
0.088 
 
>  <oscillator_strength_2> 
0.0004 
 
>  <oscillator_strength_3> 
0.0013 
 
>  <oscillator_strength_4> 
0.0007 
 
>  <open_babel_can_smiles> 
Cc1oc(c(c1)C(=O)O)C 
 
>  <mulliken_charges> 
18 
1   -0.529696 
2   -0.518935 
3   -0.26824 
4   0.347362 
5   0.340383 
6   -0.031961 
7   0.560506 
8   -0.475013 
9   -0.583895 
10   -0.462699 
11   0.169064 
12   0.177053 
13   0.177111 
14   0.193124 
15   0.192007 
16   0.165801 
17   0.135034 
18   0.412994 
 
>  <lowdin_charges> 
18 
1   -0.440904 
2   -0.442319 
3   -0.231673 
4   0.075284 
5   0.115589 
6   -0.120905 
7   0.199625 
8   -0.258849 
9   -0.360258 
10   -0.096729 
11   0.170251 
12   0.170665 
13   0.170733 
14   0.183194 
15   0.182238 
16   0.16784 
17   0.161657 
18   0.354561 
 
$$$$ 
 
