PCCDB-ID:  24005 
public computational chemistry database (PCCDB) project, http://pccdb.org 
 
 22 22  0  0  1  0  0  0  0  0999 V2000 
    0.8351   -0.1847   -0.0494 C   0  0  0  0  0  0  0  0  0  0  0  0 
    4.4199   -1.4387    0.9059 C   0  0  0  0  0  0  0  0  0  0  0  0 
    2.8849   -1.3751    0.8838 C   0  0  0  0  0  0  0  0  0  0  0  0 
    5.0367   -0.0804    1.2703 C   0  0  0  0  0  0  0  0  0  0  0  0 
    3.0072    1.0829    0.3253 C   0  0  0  0  0  0  0  0  0  0  0  0 
    2.3660   -0.2663   -0.0507 C   0  0  2  0  0  0  0  0  0  0  0  0 
    4.5404    1.0221    0.3366 C   0  0  1  0  0  0  0  0  0  0  0  0 
    5.1178    2.2478    0.7884 O   0  0  0  0  0  0  0  0  0  0  0  0 
    0.3865   -1.1399   -0.3476 H   0  0  0  0  0  0  0  0  0  0  0  0 
    0.4757    0.5854   -0.7427 H   0  0  0  0  0  0  0  0  0  0  0  0 
    0.4556    0.0640    0.9501 H   0  0  0  0  0  0  0  0  0  0  0  0 
    4.7829   -1.7514   -0.0843 H   0  0  0  0  0  0  0  0  0  0  0  0 
    4.7581   -2.2048    1.6144 H   0  0  0  0  0  0  0  0  0  0  0  0 
    2.5130   -1.1846    1.9023 H   0  0  0  0  0  0  0  0  0  0  0  0 
    2.4701   -2.3444    0.5768 H   0  0  0  0  0  0  0  0  0  0  0  0 
    6.1317   -0.1213    1.2355 H   0  0  0  0  0  0  0  0  0  0  0  0 
    4.7605    0.1961    2.2975 H   0  0  0  0  0  0  0  0  0  0  0  0 
    2.6716    1.3886    1.3272 H   0  0  0  0  0  0  0  0  0  0  0  0 
    2.6709    1.8645   -0.3733 H   0  0  0  0  0  0  0  0  0  0  0  0 
    2.6903   -0.5178   -1.0738 H   0  0  0  0  0  0  0  0  0  0  0  0 
    4.8920    0.7987   -0.6872 H   0  0  0  0  0  0  0  0  0  0  0  0 
    4.7913    2.9550    0.2100 H   0  0  0  0  0  0  0  0  0  0  0  0 
  1 11  1  0  0  0  0 
  2  4  1  0  0  0  0 
  2 13  1  0  0  0  0 
  3  2  1  0  0  0  0 
  3 14  1  0  0  0  0 
  4 17  1  0  0  0  0 
  5  7  1  0  0  0  0 
  5 18  1  0  0  0  0 
  6 20  1  6  0  0  0 
  6  1  1  0  0  0  0 
  6  5  1  0  0  0  0 
  6  3  1  0  0  0  0 
  7 21  1  6  0  0  0 
  7  8  1  0  0  0  0 
  7  4  1  0  0  0  0 
  9  1  1  0  0  0  0 
 10  1  1  0  0  0  0 
 12  2  1  0  0  0  0 
 15  3  1  0  0  0  0 
 16  4  1  0  0  0  0 
 19  5  1  0  0  0  0 
 22  8  1  0  0  0  0 
M  END 
>  <HBA> 
1 
 
>  <HBD> 
1 
 
>  <TPSA> 
20.23 
 
>  <cid> 
24005 
 
>  <dipole> 
1.56 
 
>  <excitation_energy_1> 
6.332 
 
>  <excitation_energy_2> 
6.925 
 
>  <excitation_energy_3> 
7.156 
 
>  <excitation_energy_4> 
7.241 
 
>  <homo_energy> 
-6.98 
 
>  <homo_lumo_gap> 
9.097 
 
>  <logP> 
1.557 
 
>  <lumo_energy> 
2.117 
 
>  <melting_point> 
13.97 
 
>  <molecular_refractivity> 
34.81 
 
>  <oscillator_strength_1> 
0.008 
 
>  <oscillator_strength_2> 
0.0102 
 
>  <oscillator_strength_3> 
0.0173 
 
>  <oscillator_strength_4> 
0.0106 
 
>  <open_babel_can_smiles> 
C[C@@H]1CCC[C@@H](C1)O 
 
>  <mulliken_charges> 
22 
1   -0.444235 
2   -0.27208 
3   -0.253289 
4   -0.262546 
5   -0.281579 
6   -0.077137 
7   0.149078 
8   -0.634144 
9   0.140823 
10   0.139072 
11   0.140819 
12   0.128874 
13   0.134956 
14   0.127076 
15   0.128294 
16   0.141994 
17   0.138764 
18   0.136192 
19   0.114304 
20   0.117699 
21   0.102647 
22   0.384418 
 
>  <lowdin_charges> 
22 
1   -0.443577 
2   -0.278545 
3   -0.277679 
4   -0.279012 
5   -0.297081 
6   -0.124229 
7   -0.003328 
8   -0.468234 
9   0.14855 
10   0.14859 
11   0.146172 
12   0.137612 
13   0.147544 
14   0.137073 
15   0.142717 
16   0.148867 
17   0.144763 
18   0.143482 
19   0.136165 
20   0.132264 
21   0.116997 
22   0.34089 
 
$$$$ 
 
