PCCDB-ID:  19576 
public computational chemistry database (PCCDB) project, http://pccdb.org 
 
 25 25  0  0  1  0  0  0  0  0999 V2000 
    3.1106   -0.0370   -1.4380 C   0  0  0  0  0  0  0  0  0  0  0  0 
    2.4409    0.0477   -0.0618 C   0  0  0  0  0  0  0  0  0  0  0  0 
    2.8966   -1.6723    3.4342 C   0  0  0  0  0  0  0  0  0  0  0  0 
    2.6152   -3.1252    3.0239 C   0  0  0  0  0  0  0  0  0  0  0  0 
    2.3880   -0.6809    2.3758 C   0  0  0  0  0  0  0  0  0  0  0  0 
    3.1829   -3.4260    1.6277 C   0  0  0  0  0  0  0  0  0  0  0  0 
    2.9557   -0.9715    0.9704 C   0  0  1  0  0  0  0  0  0  0  0  0 
    2.6743   -2.4385    0.5624 C   0  0  2  0  0  0  0  0  0  0  0  0 
    1.2910   -2.6594    0.2602 O   0  0  0  0  0  0  0  0  0  0  0  0 
    2.7474    0.7602   -2.0966 H   0  0  0  0  0  0  0  0  0  0  0  0 
    2.9000   -0.9903   -1.9344 H   0  0  0  0  0  0  0  0  0  0  0  0 
    4.2002    0.0689   -1.3597 H   0  0  0  0  0  0  0  0  0  0  0  0 
    1.3582   -0.0862   -0.1772 H   0  0  0  0  0  0  0  0  0  0  0  0 
    2.5900    1.0567    0.3473 H   0  0  0  0  0  0  0  0  0  0  0  0 
    3.9813   -1.5387    3.5591 H   0  0  0  0  0  0  0  0  0  0  0  0 
    2.4415   -1.4538    4.4087 H   0  0  0  0  0  0  0  0  0  0  0  0 
    1.5286   -3.3035    3.0293 H   0  0  0  0  0  0  0  0  0  0  0  0 
    3.0358   -3.8223    3.7588 H   0  0  0  0  0  0  0  0  0  0  0  0 
    2.6391    0.3472    2.6664 H   0  0  0  0  0  0  0  0  0  0  0  0 
    1.2870   -0.7177    2.3402 H   0  0  0  0  0  0  0  0  0  0  0  0 
    2.9249   -4.4446    1.3144 H   0  0  0  0  0  0  0  0  0  0  0  0 
    4.2802   -3.3675    1.6652 H   0  0  0  0  0  0  0  0  0  0  0  0 
    4.0520   -0.8722    1.0323 H   0  0  0  0  0  0  0  0  0  0  0  0 
    3.1834   -2.6529   -0.3830 H   0  0  0  0  0  0  0  0  0  0  0  0 
    0.7802   -2.4983    1.0686 H   0  0  0  0  0  0  0  0  0  0  0  0 
  1 12  1  0  0  0  0 
  1  2  1  0  0  0  0 
  2 14  1  0  0  0  0 
  2  7  1  0  0  0  0 
  3 15  1  0  0  0  0 
  3 16  1  0  0  0  0 
  4 17  1  0  0  0  0 
  4  3  1  0  0  0  0 
  4 18  1  0  0  0  0 
  5 19  1  0  0  0  0 
  5  3  1  0  0  0  0 
  6 22  1  0  0  0  0 
  6  4  1  0  0  0  0 
  7 23  1  1  0  0  0 
  7  5  1  0  0  0  0 
  8 24  1  6  0  0  0 
  8  7  1  0  0  0  0 
  8  6  1  0  0  0  0 
  9  8  1  0  0  0  0 
  9 25  1  0  0  0  0 
 10  1  1  0  0  0  0 
 11  1  1  0  0  0  0 
 13  2  1  0  0  0  0 
 20  5  1  0  0  0  0 
 21  6  1  0  0  0  0 
M  END 
>  <HBA> 
1 
 
>  <HBD> 
1 
 
>  <TPSA> 
20.23 
 
>  <cid> 
19576 
 
>  <dipole> 
1.69 
 
>  <excitation_energy_1> 
6.305 
 
>  <excitation_energy_2> 
6.725 
 
>  <excitation_energy_3> 
7.068 
 
>  <excitation_energy_4> 
7.118 
 
>  <homo_energy> 
-6.944 
 
>  <homo_lumo_gap> 
8.585 
 
>  <logP> 
1.948 
 
>  <lumo_energy> 
1.641 
 
>  <melting_point> 
13.31 
 
>  <molecular_refractivity> 
39.62 
 
>  <oscillator_strength_1> 
0.0042 
 
>  <oscillator_strength_2> 
0.0008 
 
>  <oscillator_strength_3> 
0.0091 
 
>  <oscillator_strength_4> 
0.0018 
 
>  <open_babel_can_smiles> 
CC[C@H]1CCCC[C@H]1O 
 
>  <mulliken_charges> 
25 
1   -0.454475 
2   -0.243112 
3   -0.2564 
4   -0.275392 
5   -0.280453 
6   -0.272355 
7   -0.089961 
8   0.130954 
9   -0.635588 
10   0.141878 
11   0.156332 
12   0.135973 
13   0.140633 
14   0.12326 
15   0.1307 
16   0.132044 
17   0.119662 
18   0.138342 
19   0.135954 
20   0.115689 
21   0.142881 
22   0.127594 
23   0.112764 
24   0.132881 
25   0.390195 
 
>  <lowdin_charges> 
25 
1   -0.445896 
2   -0.271804 
3   -0.276316 
4   -0.282086 
5   -0.279656 
6   -0.291239 
7   -0.14484 
8   -0.005029 
9   -0.46855 
10   0.151403 
11   0.152024 
12   0.141253 
13   0.143934 
14   0.137538 
15   0.137515 
16   0.1438 
17   0.129775 
18   0.149385 
19   0.145784 
20   0.128297 
21   0.149785 
22   0.14072 
23   0.133857 
24   0.144259 
25   0.336089 
 
$$$$ 
 
