PCCDB-ID:  55654 
public computational chemistry database (PCCDB) project, http://pccdb.org 
 
 23 25  0  0  0  0  0  0  0  0999 V2000 
    0.9573   -0.0747   -0.0816 C   0  0  0  0  0  0  0  0  0  0  0  0 
    1.8337   -4.6501   -0.0783 C   0  0  0  0  0  0  0  0  0  0  0  0 
    3.0318   -5.3751   -0.0763 C   0  0  0  0  0  0  0  0  0  0  0  0 
    1.8598   -3.2611   -0.0788 C   0  0  0  0  0  0  0  0  0  0  0  0 
    4.2524   -4.7102   -0.0755 C   0  0  0  0  0  0  0  0  0  0  0  0 
    3.1990    1.0667   -0.0789 C   0  0  0  0  0  0  0  0  0  0  0  0 
    3.0821   -2.5616   -0.0775 C   0  0  0  0  0  0  0  0  0  0  0  0 
    4.2815   -3.3138   -0.0758 C   0  0  0  0  0  0  0  0  0  0  0  0 
    4.5518   -0.5595   -0.0783 C   0  0  0  0  0  0  0  0  0  0  0  0 
    3.2860   -1.1345   -0.0784 C   0  0  0  0  0  0  0  0  0  0  0  0 
    5.7672   -1.3527   -0.0779 C   0  0  0  0  0  0  0  0  0  0  0  0 
    4.4821    0.8135   -0.0786 N   0  0  0  0  0  0  0  0  0  0  0  0 
    2.4121   -0.0688   -0.0782 N   0  0  0  0  0  0  0  0  0  0  0  0 
    6.9117   -0.9830   -0.0800 O   0  0  0  0  0  0  0  0  0  0  0  0 
    5.5218   -2.7391   -0.0737 O   0  0  0  0  0  0  0  0  0  0  0  0 
    0.6107    0.9609   -0.0851 H   0  0  0  0  0  0  0  0  0  0  0  0 
    0.5666   -0.5708    0.8117 H   0  0  0  0  0  0  0  0  0  0  0  0 
    0.5709   -0.5753   -0.9743 H   0  0  0  0  0  0  0  0  0  0  0  0 
    0.8805   -5.1702   -0.0789 H   0  0  0  0  0  0  0  0  0  0  0  0 
    3.0121   -6.4610   -0.0763 H   0  0  0  0  0  0  0  0  0  0  0  0 
    0.9238   -2.7148   -0.0800 H   0  0  0  0  0  0  0  0  0  0  0  0 
    5.1960   -5.2455   -0.0741 H   0  0  0  0  0  0  0  0  0  0  0  0 
    2.7501    2.0520   -0.0792 H   0  0  0  0  0  0  0  0  0  0  0  0 
  1 13  1  0  0  0  0 
  1 17  1  0  0  0  0 
  2  3  1  0  0  0  0 
  3 20  1  0  0  0  0 
  3  5  2  0  0  0  0 
  4  2  2  0  0  0  0 
  4  7  1  0  0  0  0 
  5 22  1  0  0  0  0 
  6 12  2  0  0  0  0 
  6 13  1  0  0  0  0 
  7  8  2  0  0  0  0 
  8  5  1  0  0  0  0 
  8 15  1  0  0  0  0 
  9 11  1  0  0  0  0 
 10  9  2  0  0  0  0 
 10 13  1  0  0  0  0 
 10  7  1  0  0  0  0 
 11 15  1  0  0  0  0 
 12  9  1  0  0  0  0 
 14 11  2  0  0  0  0 
 16  1  1  0  0  0  0 
 18  1  1  0  0  0  0 
 19  2  1  0  0  0  0 
 21  4  1  0  0  0  0 
 23  6  1  0  0  0  0 
M  END 
>  <HBA> 
4 
 
>  <HBD> 
0 
 
>  <TPSA> 
48.03 
 
>  <cid> 
55654 
 
>  <dipole> 
8.29 
 
>  <excitation_energy_1> 
4.28 
 
>  <excitation_energy_2> 
4.705 
 
>  <excitation_energy_3> 
4.905 
 
>  <excitation_energy_4> 
5.262 
 
>  <homo_energy> 
-6.095 
 
>  <homo_lumo_gap> 
4.74 
 
>  <logP> 
1.68 
 
>  <lumo_energy> 
-1.355 
 
>  <melting_point> 
146.33 
 
>  <molecular_refractivity> 
57.04 
 
>  <oscillator_strength_1> 
0.2487 
 
>  <oscillator_strength_2> 
0.0416 
 
>  <oscillator_strength_3> 
0.0001 
 
>  <oscillator_strength_4> 
0.0005 
 
>  <open_babel_can_smiles> 
Cn1cnc2c1c1ccccc1oc2=O 
 
>  <mulliken_charges> 
23 
1   -0.336026 
2   -0.13744 
3   -0.12946 
4   -0.196181 
5   -0.171829 
6   0.207365 
7   0.144924 
8   0.300466 
9   0.088699 
10   0.298572 
11   0.583211 
12   -0.46677 
13   -0.501473 
14   -0.443663 
15   -0.537208 
16   0.183273 
17   0.190023 
18   0.190078 
19   0.13639 
20   0.142334 
21   0.12948 
22   0.158895 
23   0.16634 
 
>  <lowdin_charges> 
23 
1   -0.346381 
2   -0.164684 
3   -0.140561 
4   -0.164793 
5   -0.16836 
6   -0.079788 
7   -0.039275 
8   0.111931 
9   -0.051128 
10   0.015431 
11   0.200036 
12   -0.143631 
13   -0.009485 
14   -0.218713 
15   -0.147934 
16   0.172712 
17   0.169822 
18   0.169872 
19   0.162358 
20   0.163298 
21   0.160208 
22   0.177237 
23   0.171829 
 
$$$$ 
 
