PCCDB-ID:  69482 
public computational chemistry database (PCCDB) project, http://pccdb.org 
 
 12 12  0  0  0  0  0  0  0  0999 V2000 
    0.9112    1.1164    0.0202 C   0  0  0  0  0  0  0  0  0  0  0  0 
    0.4730   -1.3632    0.0200 C   0  0  0  0  0  0  0  0  0  0  0  0 
   -0.4186    1.3441    0.0385 C   0  0  0  0  0  0  0  0  0  0  0  0 
   -0.8543   -1.1210    0.0383 C   0  0  0  0  0  0  0  0  0  0  0  0 
    1.4580   -0.2588    0.0102 C   0  0  0  0  0  0  0  0  0  0  0  0 
   -1.3835    0.2435    0.0485 C   0  0  0  0  0  0  0  0  0  0  0  0 
    2.6672   -0.4724   -0.0054 O   0  0  0  0  0  0  0  0  0  0  0  0 
   -3.0138    0.5316    0.0718 S   0  0  0  0  0  0  0  0  0  0  0  0 
    1.6377    1.9236    0.0139 H   0  0  0  0  0  0  0  0  0  0  0  0 
    0.8786   -2.3706    0.0134 H   0  0  0  0  0  0  0  0  0  0  0  0 
   -0.8238    2.3512    0.0468 H   0  0  0  0  0  0  0  0  0  0  0  0 
   -1.5802   -1.9283    0.0461 H   0  0  0  0  0  0  0  0  0  0  0  0 
  1  3  2  0  0  0  0 
  2  4  2  0  0  0  0 
  3 11  1  0  0  0  0 
  3  6  1  0  0  0  0 
  4 12  1  0  0  0  0 
  4  6  1  0  0  0  0 
  5  2  1  0  0  0  0 
  5  1  1  0  0  0  0 
  6  8  2  0  0  0  0 
  7  5  2  0  0  0  0 
  9  1  1  0  0  0  0 
 10  2  1  0  0  0  0 
M  END 
>  <HBA> 
2 
 
>  <HBD> 
0 
 
>  <TPSA> 
49.16 
 
>  <cid> 
69482 
 
>  <dipole> 
0.44 
 
>  <excitation_energy_1> 
1.47 
 
>  <excitation_energy_2> 
2.233 
 
>  <excitation_energy_3> 
3.306 
 
>  <excitation_energy_4> 
3.969 
 
>  <homo_energy> 
-6.653 
 
>  <homo_lumo_gap> 
2.618 
 
>  <logP> 
1.051 
 
>  <lumo_energy> 
-4.035 
 
>  <melting_point> 
67.35 
 
>  <molecular_refractivity> 
35.88 
 
>  <oscillator_strength_1> 
0.0 
 
>  <oscillator_strength_2> 
0.0 
 
>  <oscillator_strength_3> 
0.003 
 
>  <oscillator_strength_4> 
0.5446 
 
>  <open_babel_can_smiles> 
O=C1C=CC(=S)C=C1 
 
>  <mulliken_charges> 
12 
1   -0.14936 
2   -0.149718 
3   -0.124606 
4   -0.124347 
5   0.426803 
6   -0.029436 
7   -0.459096 
8   -0.087151 
9   0.170813 
10   0.17083 
11   0.177642 
12   0.177627 
 
>  <lowdin_charges> 
12 
1   -0.150133 
2   -0.148333 
3   -0.134354 
4   -0.135786 
5   0.139065 
6   -0.085757 
7   -0.212199 
8   -0.003436 
9   0.183101 
10   0.181646 
11   0.182336 
12   0.183849 
 
$$$$ 
 
