PCCDB-ID:  18911 
public computational chemistry database (PCCDB) project, http://pccdb.org 
 
 26 27  0  0  1  0  0  0  0  0999 V2000 
    1.0956    0.0060    0.1769 C   0  0  0  0  0  0  0  0  0  0  0  0 
    2.7956   -0.0263   -3.1038 C   0  0  0  0  0  0  0  0  0  0  0  0 
    2.5065    1.2581   -2.3005 C   0  0  0  0  0  0  0  0  0  0  0  0 
    2.4887   -1.2962   -2.2843 C   0  0  0  0  0  0  0  0  0  0  0  0 
    4.5437    1.1927   -0.6930 C   0  0  0  0  0  0  0  0  0  0  0  0 
    4.5268   -1.2388   -0.6780 C   0  0  0  0  0  0  0  0  0  0  0  0 
    3.0119    1.1882   -0.8382 C   0  0  2  0  0  0  0  0  0  0  0  0 
    2.9952   -1.2151   -0.8233 C   0  0  1  0  0  0  0  0  0  0  0  0 
    5.1158   -0.0306   -1.2617 N   0  0  0  0  0  0  0  0  0  0  0  0 
    2.5175   -0.0057   -0.1277 N   0  0  0  0  0  0  0  0  0  0  0  0 
    0.8649    0.8971    0.7728 H   0  0  0  0  0  0  0  0  0  0  0  0 
    0.8529   -0.8738    0.7847 H   0  0  0  0  0  0  0  0  0  0  0  0 
    0.4182    0.0046   -0.6958 H   0  0  0  0  0  0  0  0  0  0  0  0 
    3.8475   -0.0355   -3.3966 H   0  0  0  0  0  0  0  0  0  0  0  0 
    2.1968   -0.0279   -4.0249 H   0  0  0  0  0  0  0  0  0  0  0  0 
    1.4228    1.4375   -2.2743 H   0  0  0  0  0  0  0  0  0  0  0  0 
    2.9467    2.1283   -2.8051 H   0  0  0  0  0  0  0  0  0  0  0  0 
    2.9164   -2.1789   -2.7779 H   0  0  0  0  0  0  0  0  0  0  0  0 
    1.4026   -1.4601   -2.2559 H   0  0  0  0  0  0  0  0  0  0  0  0 
    4.7685    1.3088    0.3838 H   0  0  0  0  0  0  0  0  0  0  0  0 
    4.9683    2.0544   -1.2229 H   0  0  0  0  0  0  0  0  0  0  0  0 
    4.9394   -2.1128   -1.1971 H   0  0  0  0  0  0  0  0  0  0  0  0 
    4.7501   -1.3447    0.4002 H   0  0  0  0  0  0  0  0  0  0  0  0 
    2.6378    2.0682   -0.2978 H   0  0  0  0  0  0  0  0  0  0  0  0 
    2.6091   -2.0830   -0.2718 H   0  0  0  0  0  0  0  0  0  0  0  0 
    6.1238   -0.0368   -1.1221 H   0  0  0  0  0  0  0  0  0  0  0  0 
  1 11  1  0  0  0  0 
  1 12  1  0  0  0  0 
  2  3  1  0  0  0  0 
  2  4  1  0  0  0  0 
  3 16  1  0  0  0  0 
  3  7  1  0  0  0  0 
  4 19  1  0  0  0  0 
  4  8  1  0  0  0  0 
  5 20  1  0  0  0  0 
  6 23  1  0  0  0  0 
  7  5  1  0  0  0  0 
  7 24  1  1  0  0  0 
  7 10  1  0  0  0  0 
  8  6  1  0  0  0  0 
  8 25  1  1  0  0  0 
  8 10  1  0  0  0  0 
  9 26  1  0  0  0  0 
  9  5  1  0  0  0  0 
  9  6  1  0  0  0  0 
 10  1  1  0  0  0  0 
 13  1  1  0  0  0  0 
 14  2  1  0  0  0  0 
 15  2  1  0  0  0  0 
 17  3  1  0  0  0  0 
 18  4  1  0  0  0  0 
 21  5  1  0  0  0  0 
 22  6  1  0  0  0  0 
M  END 
>  <HBA> 
2 
 
>  <HBD> 
1 
 
>  <TPSA> 
15.27 
 
>  <cid> 
18911 
 
>  <dipole> 
0.36 
 
>  <excitation_energy_1> 
4.692 
 
>  <excitation_energy_2> 
5.065 
 
>  <excitation_energy_3> 
5.216 
 
>  <excitation_energy_4> 
5.256 
 
>  <homo_energy> 
-5.282 
 
>  <homo_lumo_gap> 
7.233 
 
>  <logP> 
0.709 
 
>  <lumo_energy> 
1.951 
 
>  <melting_point> 
47.08 
 
>  <molecular_refractivity> 
49.87 
 
>  <oscillator_strength_1> 
0.0013 
 
>  <oscillator_strength_2> 
0.0041 
 
>  <oscillator_strength_3> 
0.0101 
 
>  <oscillator_strength_4> 
0.0034 
 
>  <open_babel_can_smiles> 
CN1[C@@H]2CCC[C@H]1CNC2 
 
>  <mulliken_charges> 
26 
1   -0.298137 
2   -0.252004 
3   -0.266493 
4   -0.266525 
5   -0.117749 
6   -0.117766 
7   0.020531 
8   0.020583 
9   -0.564811 
10   -0.385588 
11   0.144666 
12   0.144673 
13   0.123355 
14   0.163657 
15   0.117887 
16   0.127873 
17   0.126197 
18   0.126195 
19   0.12789 
20   0.11685 
21   0.128971 
22   0.128969 
23   0.116857 
24   0.119322 
25   0.119315 
26   0.295284 
 
>  <lowdin_charges> 
26 
1   -0.359879 
2   -0.284002 
3   -0.290267 
4   -0.290108 
5   -0.206561 
6   -0.206445 
7   -0.070434 
8   -0.070516 
9   -0.364069 
10   -0.192192 
11   0.148581 
12   0.148653 
13   0.121683 
14   0.154428 
15   0.136257 
16   0.137089 
17   0.143957 
18   0.143861 
19   0.137046 
20   0.120895 
21   0.142152 
22   0.142054 
23   0.12087 
24   0.142075 
25   0.142168 
26   0.252702 
 
$$$$ 
 
