PCCDB-ID:  62338 
public computational chemistry database (PCCDB) project, http://pccdb.org 
 
 27 27  0  0  0  0  0  0  0  0999 V2000 
    4.1084    0.8112   -1.7101 C   0  0  0  0  0  0  0  0  0  0  0  0 
    4.1664   -0.0638   -0.4490 C   0  0  0  0  0  0  0  0  0  0  0  0 
    8.9287   -2.0007   -0.7431 C   0  0  0  0  0  0  0  0  0  0  0  0 
    8.0472   -3.0664   -0.9253 C   0  0  0  0  0  0  0  0  0  0  0  0 
    8.3919   -0.7286   -0.5474 C   0  0  0  0  0  0  0  0  0  0  0  0 
    6.6678   -2.8755   -0.9106 C   0  0  0  0  0  0  0  0  0  0  0  0 
    7.0149   -0.5194   -0.5284 C   0  0  0  0  0  0  0  0  0  0  0  0 
    3.8073   -2.5068   -0.8335 C   0  0  0  0  0  0  0  0  0  0  0  0 
    3.5520   -2.8767   -2.2997 C   0  0  0  0  0  0  0  0  0  0  0  0 
    6.1089   -1.5927   -0.6983 C   0  0  0  0  0  0  0  0  0  0  0  0 
    4.7282   -1.3967   -0.6455 N   0  0  0  0  0  0  0  0  0  0  0  0 
    2.7081   -4.0225   -2.2892 O   0  0  0  0  0  0  0  0  0  0  0  0 
    3.7033    1.8013   -1.4678 H   0  0  0  0  0  0  0  0  0  0  0  0 
    3.4645    0.3597   -2.4727 H   0  0  0  0  0  0  0  0  0  0  0  0 
    5.1027    0.9467   -2.1469 H   0  0  0  0  0  0  0  0  0  0  0  0 
    3.1536   -0.1930   -0.0527 H   0  0  0  0  0  0  0  0  0  0  0  0 
    4.7317    0.4523    0.3368 H   0  0  0  0  0  0  0  0  0  0  0  0 
   10.0031   -2.1562   -0.7617 H   0  0  0  0  0  0  0  0  0  0  0  0 
    8.4326   -4.0704   -1.0863 H   0  0  0  0  0  0  0  0  0  0  0  0 
    9.0509    0.1256   -0.4103 H   0  0  0  0  0  0  0  0  0  0  0  0 
    6.0279   -3.7358   -1.0657 H   0  0  0  0  0  0  0  0  0  0  0  0 
    6.6503    0.4898   -0.3822 H   0  0  0  0  0  0  0  0  0  0  0  0 
    4.1686   -3.3976   -0.3075 H   0  0  0  0  0  0  0  0  0  0  0  0 
    2.8499   -2.2472   -0.3705 H   0  0  0  0  0  0  0  0  0  0  0  0 
    4.5082   -3.0800   -2.8043 H   0  0  0  0  0  0  0  0  0  0  0  0 
    3.0769   -2.0293   -2.8188 H   0  0  0  0  0  0  0  0  0  0  0  0 
    2.5584   -4.2948   -3.2066 H   0  0  0  0  0  0  0  0  0  0  0  0 
  1 13  1  0  0  0  0 
  1  2  1  0  0  0  0 
  2 16  1  0  0  0  0 
  2 17  1  0  0  0  0 
  3  5  2  0  0  0  0 
  4  6  2  0  0  0  0 
  4  3  1  0  0  0  0 
  5  7  1  0  0  0  0 
  5 20  1  0  0  0  0 
  6 10  1  0  0  0  0 
  7 22  1  0  0  0  0 
  8 11  1  0  0  0  0 
  8 24  1  0  0  0  0 
  8 23  1  0  0  0  0 
  9 12  1  0  0  0  0 
  9  8  1  0  0  0  0 
 10 11  1  0  0  0  0 
 10  7  2  0  0  0  0 
 11  2  1  0  0  0  0 
 14  1  1  0  0  0  0 
 15  1  1  0  0  0  0 
 18  3  1  0  0  0  0 
 19  4  1  0  0  0  0 
 21  6  1  0  0  0  0 
 25  9  1  0  0  0  0 
 26  9  1  0  0  0  0 
 27 12  1  0  0  0  0 
M  END 
>  <HBA> 
2 
 
>  <HBD> 
1 
 
>  <TPSA> 
23.47 
 
>  <cid> 
62338 
 
>  <dipole> 
2.04 
 
>  <excitation_energy_1> 
4.407 
 
>  <excitation_energy_2> 
4.457 
 
>  <excitation_energy_3> 
4.688 
 
>  <excitation_energy_4> 
4.979 
 
>  <homo_energy> 
-4.982 
 
>  <homo_lumo_gap> 
5.287 
 
>  <logP> 
1.505 
 
>  <lumo_energy> 
0.305 
 
>  <melting_point> 
29.95 
 
>  <molecular_refractivity> 
51.42 
 
>  <oscillator_strength_1> 
0.0286 
 
>  <oscillator_strength_2> 
0.0281 
 
>  <oscillator_strength_3> 
0.0457 
 
>  <oscillator_strength_4> 
0.0379 
 
>  <open_babel_can_smiles> 
OCCN(c1ccccc1)CC 
 
>  <mulliken_charges> 
27 
1   -0.446226 
2   -0.142541 
3   -0.137666 
4   -0.138819 
5   -0.13792 
6   -0.197154 
7   -0.19479 
8   -0.157176 
9   -0.036561 
10   0.364 
11   -0.490989 
12   -0.620259 
13   0.14261 
14   0.148747 
15   0.162929 
16   0.144116 
17   0.153058 
18   0.117229 
19   0.121965 
20   0.121166 
21   0.128568 
22   0.121584 
23   0.165856 
24   0.153339 
25   0.136525 
26   0.122763 
27   0.395645 
 
>  <lowdin_charges> 
27 
1   -0.459122 
2   -0.194485 
3   -0.190875 
4   -0.14662 
5   -0.14854 
6   -0.216704 
7   -0.214632 
8   -0.204069 
9   -0.149262 
10   0.063729 
11   -0.115672 
12   -0.472023 
13   0.151347 
14   0.150134 
15   0.157087 
16   0.148232 
17   0.148846 
18   0.151497 
19   0.153533 
20   0.15463 
21   0.160219 
22   0.156142 
23   0.155544 
24   0.153988 
25   0.133801 
26   0.127333 
27   0.345944 
 
$$$$ 
 
