PCCDB-ID:  11795 
public computational chemistry database (PCCDB) project, http://pccdb.org 
 
 28 30  0  0  0  0  0  0  0  0999 V2000 
   -1.5617   -0.0231   -0.3419 C   0  0  0  0  0  0  0  0  0  0  0  0 
   -0.8765   -0.8651    0.5363 C   0  0  0  0  0  0  0  0  0  0  0  0 
   -0.8417    0.8436   -1.1655 C   0  0  0  0  0  0  0  0  0  0  0  0 
    5.3064   -3.2797   -0.6843 C   0  0  0  0  0  0  0  0  0  0  0  0 
    3.9087   -3.4217   -0.8498 C   0  0  0  0  0  0  0  0  0  0  0  0 
    4.7343    1.4616    0.2259 C   0  0  0  0  0  0  0  0  0  0  0  0 
    0.5170   -0.8431    0.5882 C   0  0  0  0  0  0  0  0  0  0  0  0 
    0.5522    0.8664   -1.1119 C   0  0  0  0  0  0  0  0  0  0  0  0 
    5.8368   -2.0493   -0.3730 C   0  0  0  0  0  0  0  0  0  0  0  0 
    5.5518    0.3656    0.0859 C   0  0  0  0  0  0  0  0  0  0  0  0 
    3.0705   -2.3414   -0.6831 C   0  0  0  0  0  0  0  0  0  0  0  0 
    3.3336    1.3218    0.1045 C   0  0  0  0  0  0  0  0  0  0  0  0 
    1.2554    0.0219   -0.2376 C   0  0  0  0  0  0  0  0  0  0  0  0 
    5.0023   -0.9117   -0.2017 C   0  0  0  0  0  0  0  0  0  0  0  0 
    3.5796   -1.0580   -0.3378 C   0  0  0  0  0  0  0  0  0  0  0  0 
    2.7422    0.0966   -0.1566 C   0  0  0  0  0  0  0  0  0  0  0  0 
   -2.6474   -0.0414   -0.3823 H   0  0  0  0  0  0  0  0  0  0  0  0 
   -1.4281   -1.5358    1.1901 H   0  0  0  0  0  0  0  0  0  0  0  0 
   -1.3646    1.5018   -1.8545 H   0  0  0  0  0  0  0  0  0  0  0  0 
    5.9575   -4.1399   -0.8145 H   0  0  0  0  0  0  0  0  0  0  0  0 
    3.4940   -4.3899   -1.1176 H   0  0  0  0  0  0  0  0  0  0  0  0 
    5.1572    2.4389    0.4425 H   0  0  0  0  0  0  0  0  0  0  0  0 
    1.0415   -1.4879    1.2878 H   0  0  0  0  0  0  0  0  0  0  0  0 
    1.1092    1.5353   -1.7625 H   0  0  0  0  0  0  0  0  0  0  0  0 
    6.9113   -1.9250   -0.2594 H   0  0  0  0  0  0  0  0  0  0  0  0 
    6.6303    0.4606    0.1883 H   0  0  0  0  0  0  0  0  0  0  0  0 
    2.0029   -2.4625   -0.8292 H   0  0  0  0  0  0  0  0  0  0  0  0 
    2.6984    2.1916    0.2485 H   0  0  0  0  0  0  0  0  0  0  0  0 
  1  2  2  0  0  0  0 
  2  7  1  0  0  0  0 
  2 18  1  0  0  0  0 
  3  8  2  0  0  0  0 
  3  1  1  0  0  0  0 
  4  9  1  0  0  0  0 
  5  4  2  0  0  0  0 
  5 11  1  0  0  0  0 
  6 22  1  0  0  0  0 
  7 23  1  0  0  0  0 
  8 13  1  0  0  0  0 
  9 25  1  0  0  0  0 
  9 14  2  0  0  0  0 
 10 26  1  0  0  0  0 
 10  6  2  0  0  0  0 
 11 15  2  0  0  0  0 
 12  6  1  0  0  0  0 
 12 28  1  0  0  0  0 
 13 16  1  0  0  0  0 
 13  7  2  0  0  0  0 
 14 10  1  0  0  0  0 
 15 14  1  0  0  0  0 
 15 16  1  0  0  0  0 
 16 12  2  0  0  0  0 
 17  1  1  0  0  0  0 
 19  3  1  0  0  0  0 
 20  4  1  0  0  0  0 
 21  5  1  0  0  0  0 
 24  8  1  0  0  0  0 
 27 11  1  0  0  0  0 
M  END 
>  <HBA> 
0 
 
>  <HBD> 
0 
 
>  <TPSA> 
0.0 
 
>  <cid> 
11795 
 
>  <dipole> 
0.14 
 
>  <excitation_energy_1> 
4.097 
 
>  <excitation_energy_2> 
4.351 
 
>  <excitation_energy_3> 
4.703 
 
>  <excitation_energy_4> 
4.804 
 
>  <homo_energy> 
-5.636 
 
>  <homo_lumo_gap> 
4.574 
 
>  <logP> 
4.507 
 
>  <lumo_energy> 
-1.061 
 
>  <melting_point> 
85.92 
 
>  <molecular_refractivity> 
69.38 
 
>  <oscillator_strength_1> 
0.1942 
 
>  <oscillator_strength_2> 
0.0012 
 
>  <oscillator_strength_3> 
0.0076 
 
>  <oscillator_strength_4> 
0.0053 
 
>  <open_babel_can_smiles> 
c1ccc(cc1)c1cccc2c1cccc2 
 
>  <mulliken_charges> 
28 
1   -0.126558 
2   -0.134524 
3   -0.13361 
4   -0.131929 
5   -0.136447 
6   -0.136674 
7   -0.166944 
8   -0.163722 
9   -0.194982 
10   -0.186698 
11   -0.200278 
12   -0.180912 
13   0.060748 
14   0.12926 
15   0.092792 
16   0.018406 
17   0.129833 
18   0.131143 
19   0.130739 
20   0.129244 
21   0.129132 
22   0.130421 
23   0.140453 
24   0.134005 
25   0.128794 
26   0.128606 
27   0.145967 
28   0.133734 
 
>  <lowdin_charges> 
28 
1   -0.155686 
2   -0.158184 
3   -0.15662 
4   -0.159551 
5   -0.158843 
6   -0.158753 
7   -0.162379 
8   -0.161647 
9   -0.154994 
10   -0.154784 
11   -0.159097 
12   -0.163952 
13   -0.001705 
14   0.000906 
15   -0.004752 
16   -0.004306 
17   0.155924 
18   0.159686 
19   0.159544 
20   0.159014 
21   0.157973 
22   0.158723 
23   0.163864 
24   0.161865 
25   0.155173 
26   0.155473 
27   0.165554 
28   0.161555 
 
$$$$ 
 
