PCCDB-ID:  16402 
public computational chemistry database (PCCDB) project, http://pccdb.org 
 
 24 23  0  0  0  0  0  0  0  0999 V2000 
    2.0301   -0.2473   -0.7406 C   0  0  0  0  0  0  0  0  0  0  0  0 
    1.7051   -1.1173    0.4903 C   0  0  0  0  0  0  0  0  0  0  0  0 
    2.4995    1.2008   -0.4843 C   0  0  0  0  0  0  0  0  0  0  0  0 
    0.4871   -0.7048    1.3508 C   0  0  0  0  0  0  0  0  0  0  0  0 
    1.3882    2.2613   -0.4619 C   0  0  0  0  0  0  0  0  0  0  0  0 
    0.7951    0.1891    2.5602 C   0  0  0  0  0  0  0  0  0  0  0  0 
    0.7003    2.3214   -1.7581 N   0  0  0  0  0  0  0  0  0  0  0  0 
    1.4772   -0.5736    3.6172 N   0  0  0  0  0  0  0  0  0  0  0  0 
    1.1601   -0.2120   -1.4081 H   0  0  0  0  0  0  0  0  0  0  0  0 
    2.8188   -0.7698   -1.2984 H   0  0  0  0  0  0  0  0  0  0  0  0 
    2.6038   -1.1919    1.1219 H   0  0  0  0  0  0  0  0  0  0  0  0 
    1.5322   -2.1366    0.1211 H   0  0  0  0  0  0  0  0  0  0  0  0 
    3.2085    1.4900   -1.2745 H   0  0  0  0  0  0  0  0  0  0  0  0 
    3.0672    1.2606    0.4549 H   0  0  0  0  0  0  0  0  0  0  0  0 
    0.0032   -1.6056    1.7479 H   0  0  0  0  0  0  0  0  0  0  0  0 
   -0.2553   -0.2086    0.7119 H   0  0  0  0  0  0  0  0  0  0  0  0 
    1.8318    3.2252   -0.1506 H   0  0  0  0  0  0  0  0  0  0  0  0 
    0.6364    2.0084    0.2936 H   0  0  0  0  0  0  0  0  0  0  0  0 
   -0.1522    0.5466    2.9832 H   0  0  0  0  0  0  0  0  0  0  0  0 
    1.3524    1.0861    2.2368 H   0  0  0  0  0  0  0  0  0  0  0  0 
    1.3410    2.6773   -2.4674 H   0  0  0  0  0  0  0  0  0  0  0  0 
   -0.0688    2.9877   -1.7124 H   0  0  0  0  0  0  0  0  0  0  0  0 
    2.3925   -0.8749    3.2846 H   0  0  0  0  0  0  0  0  0  0  0  0 
    1.6625    0.0379    4.4113 H   0  0  0  0  0  0  0  0  0  0  0  0 
  1  3  1  0  0  0  0 
  1  2  1  0  0  0  0 
  2 11  1  0  0  0  0 
  2  4  1  0  0  0  0 
  3  5  1  0  0  0  0 
  3 14  1  0  0  0  0 
  4 15  1  0  0  0  0 
  4  6  1  0  0  0  0 
  5 17  1  0  0  0  0 
  5 18  1  0  0  0  0 
  6 19  1  0  0  0  0 
  6  8  1  0  0  0  0 
  7 22  1  0  0  0  0 
  7  5  1  0  0  0  0 
  8 24  1  0  0  0  0 
  9  1  1  0  0  0  0 
 10  1  1  0  0  0  0 
 12  2  1  0  0  0  0 
 13  3  1  0  0  0  0 
 16  4  1  0  0  0  0 
 20  6  1  0  0  0  0 
 21  7  1  0  0  0  0 
 23  8  1  0  0  0  0 
M  END 
>  <HBA> 
2 
 
>  <HBD> 
2 
 
>  <TPSA> 
52.04 
 
>  <cid> 
16402 
 
>  <dipole> 
2.61 
 
>  <excitation_energy_1> 
5.551 
 
>  <excitation_energy_2> 
5.575 
 
>  <excitation_energy_3> 
6.084 
 
>  <excitation_energy_4> 
6.167 
 
>  <homo_energy> 
-6.147 
 
>  <homo_lumo_gap> 
8.158 
 
>  <logP> 
1.865 
 
>  <lumo_energy> 
2.011 
 
>  <melting_point> 
81.93 
 
>  <molecular_refractivity> 
36.37 
 
>  <oscillator_strength_1> 
0.0108 
 
>  <oscillator_strength_2> 
0.0056 
 
>  <oscillator_strength_3> 
0.0129 
 
>  <oscillator_strength_4> 
0.011 
 
>  <open_babel_can_smiles> 
NCCCCCCN 
 
>  <mulliken_charges> 
24 
1   -0.260275 
2   -0.263658 
3   -0.253371 
4   -0.253868 
5   -0.141462 
6   -0.144738 
7   -0.712847 
8   -0.71796 
9   0.164212 
10   0.12192 
11   0.115858 
12   0.133613 
13   0.122957 
14   0.125441 
15   0.146767 
16   0.136523 
17   0.109499 
18   0.146195 
19   0.135163 
20   0.116912 
21   0.290892 
22   0.296016 
23   0.293751 
24   0.292462 
 
>  <lowdin_charges> 
24 
1   -0.283999 
2   -0.27748 
3   -0.284195 
4   -0.288654 
5   -0.210899 
6   -0.210021 
7   -0.560271 
8   -0.561788 
9   0.156229 
10   0.141567 
11   0.130612 
12   0.144753 
13   0.138816 
14   0.139003 
15   0.151929 
16   0.146656 
17   0.117188 
18   0.143222 
19   0.141629 
20   0.117789 
21   0.25173 
22   0.255339 
23   0.247674 
24   0.253173 
 
$$$$ 
 
