PCCDB-ID:  19710 
public computational chemistry database (PCCDB) project, http://pccdb.org 
 
 18 17  0  0  0  0  0  0  0  0999 V2000 
    0.9771    0.4211   -0.2659 C   0  0  0  0  0  0  0  0  0  0  0  0 
    6.7977   -2.9704   -2.8616 C   0  0  0  0  0  0  0  0  0  0  0  0 
    4.2933   -0.7885   -1.2448 C   0  0  0  0  0  0  0  0  0  0  0  0 
    2.7724   -0.7979   -1.1707 C   0  0  0  0  0  0  0  0  0  0  0  0 
    4.8348   -1.9521   -2.0458 C   0  0  0  0  0  0  0  0  0  0  0  0 
    4.1666   -2.8250   -2.5587 O   0  0  0  0  0  0  0  0  0  0  0  0 
    2.3784    0.3246   -0.4043 O   0  0  0  0  0  0  0  0  0  0  0  0 
    6.1833   -1.9025   -2.1217 O   0  0  0  0  0  0  0  0  0  0  0  0 
    0.7726    1.3107    0.3356 H   0  0  0  0  0  0  0  0  0  0  0  0 
    0.5554   -0.4605    0.2436 H   0  0  0  0  0  0  0  0  0  0  0  0 
    0.4767    0.5262   -1.2423 H   0  0  0  0  0  0  0  0  0  0  0  0 
    7.8687   -2.7683   -2.8312 H   0  0  0  0  0  0  0  0  0  0  0  0 
    6.4369   -2.9810   -3.8935 H   0  0  0  0  0  0  0  0  0  0  0  0 
    6.5755   -3.9361   -2.3995 H   0  0  0  0  0  0  0  0  0  0  0  0 
    4.7215   -0.8213   -0.2356 H   0  0  0  0  0  0  0  0  0  0  0  0 
    4.6464    0.1487   -1.6910 H   0  0  0  0  0  0  0  0  0  0  0  0 
    2.4170   -1.7333   -0.7102 H   0  0  0  0  0  0  0  0  0  0  0  0 
    2.3389   -0.7546   -2.1826 H   0  0  0  0  0  0  0  0  0  0  0  0 
  1 10  1  0  0  0  0 
  1  9  1  0  0  0  0 
  2 12  1  0  0  0  0 
  2 14  1  0  0  0  0 
  2  8  1  0  0  0  0 
  3  4  1  0  0  0  0 
  3 15  1  0  0  0  0 
  4 17  1  0  0  0  0 
  4  7  1  0  0  0  0 
  5  3  1  0  0  0  0 
  6  5  2  0  0  0  0 
  7  1  1  0  0  0  0 
  8  5  1  0  0  0  0 
 11  1  1  0  0  0  0 
 13  2  1  0  0  0  0 
 16  3  1  0  0  0  0 
 18  4  1  0  0  0  0 
M  END 
>  <HBA> 
3 
 
>  <HBD> 
0 
 
>  <TPSA> 
35.53 
 
>  <cid> 
19710 
 
>  <dipole> 
0.63 
 
>  <excitation_energy_1> 
5.861 
 
>  <excitation_energy_2> 
6.417 
 
>  <excitation_energy_3> 
6.584 
 
>  <excitation_energy_4> 
6.919 
 
>  <homo_energy> 
-6.931 
 
>  <homo_lumo_gap> 
7.255 
 
>  <logP> 
0.196 
 
>  <lumo_energy> 
0.324 
 
>  <melting_point> 
-22.41 
 
>  <molecular_refractivity> 
28.52 
 
>  <oscillator_strength_1> 
0.0006 
 
>  <oscillator_strength_2> 
0.0033 
 
>  <oscillator_strength_3> 
0.0154 
 
>  <oscillator_strength_4> 
0.0105 
 
>  <open_babel_can_smiles> 
COCCC(=O)OC 
 
>  <mulliken_charges> 
18 
1   -0.191761 
2   -0.2188 
3   -0.378406 
4   0.000181 
5   0.620718 
6   -0.481009 
7   -0.469058 
8   -0.451225 
9   0.158081 
10   0.13165 
11   0.13156 
12   0.165364 
13   0.170716 
14   0.170082 
15   0.185863 
16   0.185299 
17   0.135912 
18   0.134835 
 
>  <lowdin_charges> 
18 
1   -0.279093 
2   -0.275696 
3   -0.305857 
4   -0.124581 
5   0.200899 
6   -0.267442 
7   -0.273898 
8   -0.194587 
9   0.15555 
10   0.133324 
11   0.132427 
12   0.159115 
13   0.15818 
14   0.158777 
15   0.176464 
16   0.176904 
17   0.135625 
18   0.133889 
 
$$$$ 
 
