PCCDB-ID:  8821 
public computational chemistry database (PCCDB) project, http://pccdb.org 
 
 15 14  0  0  0  0  0  0  0  0999 V2000 
    2.4693   -0.2746    1.3798 C   0  0  0  0  0  0  0  0  0  0  0  0 
    4.0273    0.7519   -3.7545 C   0  0  0  0  0  0  0  0  0  0  0  0 
    3.3582   -0.5344    0.4188 C   0  0  0  0  0  0  0  0  0  0  0  0 
    3.8161   -0.6619   -3.2329 C   0  0  0  0  0  0  0  0  0  0  0  0 
    2.9812   -0.4239   -1.0141 C   0  0  0  0  0  0  0  0  0  0  0  0 
    1.8852   -0.1057   -1.4325 O   0  0  0  0  0  0  0  0  0  0  0  0 
    4.0365   -0.7345   -1.8048 O   0  0  0  0  0  0  0  0  0  0  0  0 
    2.7269   -0.3501    2.4319 H   0  0  0  0  0  0  0  0  0  0  0  0 
    1.4553    0.0203    1.1250 H   0  0  0  0  0  0  0  0  0  0  0  0 
    3.9232    0.7651   -4.8456 H   0  0  0  0  0  0  0  0  0  0  0  0 
    5.0281    1.1157   -3.4997 H   0  0  0  0  0  0  0  0  0  0  0  0 
    3.2836    1.4324   -3.3307 H   0  0  0  0  0  0  0  0  0  0  0  0 
    4.3801   -0.8309    0.6356 H   0  0  0  0  0  0  0  0  0  0  0  0 
    4.5461   -1.3577   -3.6543 H   0  0  0  0  0  0  0  0  0  0  0  0 
    2.8064   -1.0176   -3.4519 H   0  0  0  0  0  0  0  0  0  0  0  0 
  1  8  1  0  0  0  0 
  2 11  1  0  0  0  0 
  2 12  1  0  0  0  0 
  2  4  1  0  0  0  0 
  3 13  1  0  0  0  0 
  3  1  2  0  0  0  0 
  4  7  1  0  0  0  0 
  5  3  1  0  0  0  0 
  6  5  2  0  0  0  0 
  7  5  1  0  0  0  0 
  9  1  1  0  0  0  0 
 10  2  1  0  0  0  0 
 14  4  1  0  0  0  0 
 15  4  1  0  0  0  0 
M  END 
>  <HBA> 
2 
 
>  <HBD> 
0 
 
>  <TPSA> 
26.3 
 
>  <cid> 
8821 
 
>  <dipole> 
1.47 
 
>  <excitation_energy_1> 
4.746 
 
>  <excitation_energy_2> 
6.152 
 
>  <excitation_energy_3> 
6.291 
 
>  <excitation_energy_4> 
6.888 
 
>  <homo_energy> 
-7.38 
 
>  <homo_lumo_gap> 
6.207 
 
>  <logP> 
0.736 
 
>  <lumo_energy> 
-1.173 
 
>  <melting_point> 
-34.06 
 
>  <molecular_refractivity> 
26.96 
 
>  <oscillator_strength_1> 
0.0002 
 
>  <oscillator_strength_2> 
0.0518 
 
>  <oscillator_strength_3> 
0.4114 
 
>  <oscillator_strength_4> 
0.0006 
 
>  <open_babel_can_smiles> 
CCOC(=O)C=C 
 
>  <mulliken_charges> 
15 
1   -0.302761 
2   -0.461802 
3   -0.132334 
4   -0.043802 
5   0.607875 
6   -0.493619 
7   -0.471163 
8   0.156792 
9   0.18032 
10   0.149921 
11   0.156847 
12   0.177321 
13   0.153154 
14   0.152119 
15   0.171133 
 
>  <lowdin_charges> 
15 
1   -0.263974 
2   -0.453398 
3   -0.184156 
4   -0.127255 
5   0.193498 
6   -0.275445 
7   -0.194787 
8   0.167124 
9   0.178488 
10   0.156749 
11   0.155364 
12   0.167081 
13   0.168818 
14   0.153406 
15   0.158487 
 
$$$$ 
 
