PCCDB-ID:  12997 
public computational chemistry database (PCCDB) project, http://pccdb.org 
 
 28 27  0  0  0  0  0  0  0  0999 V2000 
    0.9897    1.5473    0.5563 C   0  0  0  0  0  0  0  0  0  0  0  0 
   10.4562   -1.6606   -0.9264 C   0  0  0  0  0  0  0  0  0  0  0  0 
    2.1742    1.3744    0.3955 C   0  0  0  0  0  0  0  0  0  0  0  0 
    9.4770   -2.1329   -2.0079 C   0  0  0  0  0  0  0  0  0  0  0  0 
    3.6070    1.1564    0.1902 C   0  0  0  0  0  0  0  0  0  0  0  0 
    8.0200   -1.6916   -1.7859 C   0  0  0  0  0  0  0  0  0  0  0  0 
    3.9771   -0.3296   -0.0021 C   0  0  0  0  0  0  0  0  0  0  0  0 
    7.3635   -2.2886   -0.5317 C   0  0  0  0  0  0  0  0  0  0  0  0 
    5.4808   -0.5394   -0.2142 C   0  0  0  0  0  0  0  0  0  0  0  0 
    5.8552   -2.0159   -0.4078 C   0  0  0  0  0  0  0  0  0  0  0  0 
   -0.0559    1.6971    0.7005 H   0  0  0  0  0  0  0  0  0  0  0  0 
   11.4810   -1.9711   -1.1601 H   0  0  0  0  0  0  0  0  0  0  0  0 
   10.2055   -2.0701    0.0586 H   0  0  0  0  0  0  0  0  0  0  0  0 
   10.4518   -0.5664   -0.8410 H   0  0  0  0  0  0  0  0  0  0  0  0 
    9.5129   -3.2296   -2.0789 H   0  0  0  0  0  0  0  0  0  0  0  0 
    9.8128   -1.7541   -2.9825 H   0  0  0  0  0  0  0  0  0  0  0  0 
    4.1628    1.5638    1.0469 H   0  0  0  0  0  0  0  0  0  0  0  0 
    3.9386    1.7319   -0.6860 H   0  0  0  0  0  0  0  0  0  0  0  0 
    7.4270   -1.9825   -2.6654 H   0  0  0  0  0  0  0  0  0  0  0  0 
    7.9831   -0.5939   -1.7426 H   0  0  0  0  0  0  0  0  0  0  0  0 
    3.4197   -0.7271   -0.8601 H   0  0  0  0  0  0  0  0  0  0  0  0 
    3.6408   -0.8973    0.8751 H   0  0  0  0  0  0  0  0  0  0  0  0 
    7.8684   -1.9137    0.3693 H   0  0  0  0  0  0  0  0  0  0  0  0 
    7.5213   -3.3770   -0.5376 H   0  0  0  0  0  0  0  0  0  0  0  0 
    6.0296   -0.1361    0.6506 H   0  0  0  0  0  0  0  0  0  0  0  0 
    5.8058    0.0489   -1.0834 H   0  0  0  0  0  0  0  0  0  0  0  0 
    5.4636   -2.5922    0.4426 H   0  0  0  0  0  0  0  0  0  0  0  0 
    5.3428   -2.4059   -1.3000 H   0  0  0  0  0  0  0  0  0  0  0  0 
  1 11  1  0  0  0  0 
  2 14  1  0  0  0  0 
  2 13  1  0  0  0  0 
  3  1  3  0  0  0  0 
  4  6  1  0  0  0  0 
  4  2  1  0  0  0  0 
  5  3  1  0  0  0  0 
  5 17  1  0  0  0  0 
  6 20  1  0  0  0  0 
  6  8  1  0  0  0  0 
  7  5  1  0  0  0  0 
  7 22  1  0  0  0  0 
  8 10  1  0  0  0  0 
  8 23  1  0  0  0  0 
  9  7  1  0  0  0  0 
  9 25  1  0  0  0  0 
 10  9  1  0  0  0  0 
 10 27  1  0  0  0  0 
 12  2  1  0  0  0  0 
 15  4  1  0  0  0  0 
 16  4  1  0  0  0  0 
 18  5  1  0  0  0  0 
 19  6  1  0  0  0  0 
 21  7  1  0  0  0  0 
 24  8  1  0  0  0  0 
 26  9  1  0  0  0  0 
 28 10  1  0  0  0  0 
M  END 
>  <HBA> 
0 
 
>  <HBD> 
0 
 
>  <TPSA> 
0.0 
 
>  <cid> 
12997 
 
>  <dipole> 
0.88 
 
>  <excitation_energy_1> 
6.492 
 
>  <excitation_energy_2> 
6.631 
 
>  <excitation_energy_3> 
6.664 
 
>  <excitation_energy_4> 
6.897 
 
>  <homo_energy> 
-6.966 
 
>  <homo_lumo_gap> 
8.593 
 
>  <logP> 
3.37 
 
>  <lumo_energy> 
1.627 
 
>  <melting_point> 
-11.87 
 
>  <molecular_refractivity> 
48.35 
 
>  <oscillator_strength_1> 
0.0005 
 
>  <oscillator_strength_2> 
0.0171 
 
>  <oscillator_strength_3> 
0.0 
 
>  <oscillator_strength_4> 
0.0284 
 
>  <open_babel_can_smiles> 
CCCCCCCCC#C 
 
>  <mulliken_charges> 
28 
1   -0.527065 
2   -0.443338 
3   0.363268 
4   -0.249162 
5   -0.403591 
6   -0.25052 
7   -0.256801 
8   -0.255146 
9   -0.252484 
10   -0.256637 
11   0.183948 
12   0.142205 
13   0.14653 
14   0.139972 
15   0.129632 
16   0.130292 
17   0.16613 
18   0.166359 
19   0.126247 
20   0.13042 
21   0.145419 
22   0.144955 
23   0.131514 
24   0.127235 
25   0.128015 
26   0.134753 
27   0.129022 
28   0.128828 
 
>  <lowdin_charges> 
28 
1   -0.266493 
2   -0.443958 
3   -0.039409 
4   -0.270083 
5   -0.262555 
6   -0.276588 
7   -0.268539 
8   -0.275841 
9   -0.279313 
10   -0.275292 
11   0.200689 
12   0.148847 
13   0.146935 
14   0.143465 
15   0.136063 
16   0.14113 
17   0.165002 
18   0.1649 
19   0.139863 
20   0.135813 
21   0.148557 
22   0.147962 
23   0.139662 
24   0.138357 
25   0.13879 
26   0.141085 
27   0.141996 
28   0.138957 
 
$$$$ 
 
