PCCDB-ID:  65290 
public computational chemistry database (PCCDB) project, http://pccdb.org 
 
 15 15  0  0  1  0  0  0  0  0999 V2000 
    0.7736   -0.1007   -0.2203 C   0  0  0  0  0  0  0  0  0  0  0  0 
    4.6977    1.2070    0.6689 C   0  0  0  0  0  0  0  0  0  0  0  0 
    5.2554   -0.0346    1.3653 C   0  0  0  0  0  0  0  0  0  0  0  0 
    2.2994   -0.1361   -0.1359 C   0  0  1  0  0  0  0  0  0  0  0  0 
    2.8672    1.3922    0.7202 S   0  0  0  0  0  0  0  0  0  0  0  0 
    4.8753   -1.5981    0.4719 S   0  0  0  0  0  0  0  0  0  0  0  0 
    2.8023   -1.6918    0.7317 S   0  0  0  0  0  0  0  0  0  0  0  0 
    0.4491    0.7988   -0.7541 H   0  0  0  0  0  0  0  0  0  0  0  0 
    0.3210   -0.0902    0.7765 H   0  0  0  0  0  0  0  0  0  0  0  0 
    0.4046   -0.9776   -0.7622 H   0  0  0  0  0  0  0  0  0  0  0  0 
    5.0400    1.2444   -0.3707 H   0  0  0  0  0  0  0  0  0  0  0  0 
    5.0642    2.1077    1.1748 H   0  0  0  0  0  0  0  0  0  0  0  0 
    4.9000   -0.1117    2.3967 H   0  0  0  0  0  0  0  0  0  0  0  0 
    6.3515    0.0134    1.3748 H   0  0  0  0  0  0  0  0  0  0  0  0 
    2.7447   -0.1662   -1.1343 H   0  0  0  0  0  0  0  0  0  0  0  0 
  1  4  1  0  0  0  0 
  1  9  1  0  0  0  0 
  2  5  1  0  0  0  0 
  2 12  1  0  0  0  0 
  2  3  1  0  0  0  0 
  3 14  1  0  0  0  0 
  3 13  1  0  0  0  0 
  4 15  1  6  0  0  0 
  4  5  1  0  0  0  0 
  4  7  1  0  0  0  0 
  6  7  1  0  0  0  0 
  6  3  1  0  0  0  0 
  8  1  1  0  0  0  0 
 10  1  1  0  0  0  0 
 11  2  1  0  0  0  0 
M  END 
>  <HBA> 
3 
 
>  <HBD> 
0 
 
>  <TPSA> 
75.9 
 
>  <cid> 
65290 
 
>  <dipole> 
1.66 
 
>  <excitation_energy_1> 
4.043 
 
>  <excitation_energy_2> 
4.36 
 
>  <excitation_energy_3> 
5.03 
 
>  <excitation_energy_4> 
5.063 
 
>  <homo_energy> 
-6.191 
 
>  <homo_lumo_gap> 
5.32 
 
>  <logP> 
2.461 
 
>  <lumo_energy> 
-0.871 
 
>  <melting_point> 
24.25 
 
>  <molecular_refractivity> 
42.0 
 
>  <oscillator_strength_1> 
0.0046 
 
>  <oscillator_strength_2> 
0.001 
 
>  <oscillator_strength_3> 
0.0082 
 
>  <oscillator_strength_4> 
0.0015 
 
>  <open_babel_can_smiles> 
C[C@H]1SCCSS1 
 
>  <mulliken_charges> 
15 
1   -0.470022 
2   -0.413947 
3   -0.425528 
4   -0.383807 
5   0.119724 
6   0.0228 
7   0.043467 
8   0.178587 
9   0.181959 
10   0.175984 
11   0.186916 
12   0.185348 
13   0.204829 
14   0.186389 
15   0.207301 
 
>  <lowdin_charges> 
15 
1   -0.447998 
2   -0.383022 
3   -0.382786 
4   -0.327227 
5   0.100735 
6   0.036482 
7   0.036681 
8   0.170703 
9   0.168338 
10   0.168949 
11   0.163883 
12   0.175669 
13   0.174634 
14   0.173254 
15   0.171704 
 
$$$$ 
 
