PCCDB-ID:  23762 
public computational chemistry database (PCCDB) project, http://pccdb.org 
 
 13 12  0  0  0  0  0  0  0  0999 V2000 
    0.9332   -0.4744    0.0103 C   0  0  0  0  0  0  0  0  0  0  0  0 
   -0.4355   -0.0886    0.1248 C   0  0  0  0  0  0  0  0  0  0  0  0 
   -1.0106   -0.1979    1.5100 C   0  0  0  0  0  0  0  0  0  0  0  0 
   -1.1179    0.2800   -1.0077 C   0  0  0  0  0  0  0  0  0  0  0  0 
    2.0527   -0.7826   -0.0933 N   0  0  0  0  0  0  0  0  0  0  0  0 
   -0.7523   -1.1057    2.3555 N   0  0  0  0  0  0  0  0  0  0  0  0 
   -1.9081    0.7656    1.8722 O   0  0  0  0  0  0  0  0  0  0  0  0 
   -0.4090    0.4136   -2.6226 S   0  0  0  0  0  0  0  0  0  0  0  0 
   -2.8471    0.6692   -1.1154 S   0  0  0  0  0  0  0  0  0  0  0  0 
   -0.1161   -1.8026    1.9653 H   0  0  0  0  0  0  0  0  0  0  0  0 
   -1.7848    1.5525    1.3162 H   0  0  0  0  0  0  0  0  0  0  0  0 
    0.8829    0.3947   -2.2306 H   0  0  0  0  0  0  0  0  0  0  0  0 
   -3.2294    0.0734    0.0322 H   0  0  0  0  0  0  0  0  0  0  0  0 
  1  2  1  0  0  0  0 
  2  3  1  0  0  0  0 
  3  7  1  0  0  0  0 
  3  6  2  0  0  0  0 
  4  2  2  0  0  0  0 
  5  1  3  0  0  0  0 
  8 12  1  0  0  0  0 
  8  4  1  0  0  0  0 
  9  4  1  0  0  0  0 
  9 13  1  0  0  0  0 
 10  6  1  0  0  0  0 
 11  7  1  0  0  0  0 
M  END 
>  <HBA> 
5 
 
>  <HBD> 
3 
 
>  <TPSA> 
144.48 
 
>  <cid> 
23762 
 
>  <dipole> 
3.68 
 
>  <excitation_energy_1> 
4.41 
 
>  <excitation_energy_2> 
4.648 
 
>  <excitation_energy_3> 
4.87 
 
>  <excitation_energy_4> 
4.978 
 
>  <homo_energy> 
-7.042 
 
>  <homo_lumo_gap> 
4.697 
 
>  <logP> 
0.767 
 
>  <lumo_energy> 
-2.346 
 
>  <melting_point> 
141.45 
 
>  <molecular_refractivity> 
39.38 
 
>  <oscillator_strength_1> 
0.311 
 
>  <oscillator_strength_2> 
0.0299 
 
>  <oscillator_strength_3> 
0.0097 
 
>  <oscillator_strength_4> 
0.088 
 
>  <open_babel_can_smiles> 
N#CC(=C(S)S)C(=N)O 
 
>  <mulliken_charges> 
13 
1   0.249143 
2   0.074675 
3   0.44228 
4   -0.308236 
5   -0.476589 
6   -0.554859 
7   -0.577243 
8   0.08861 
9   0.041347 
10   0.309316 
11   0.420945 
12   0.136323 
13   0.154289 
 
>  <lowdin_charges> 
13 
1   -0.02525 
2   -0.128278 
3   0.12511 
4   -0.213062 
5   -0.113425 
6   -0.357342 
7   -0.361519 
8   0.079338 
9   0.057045 
10   0.27365 
11   0.363164 
12   0.149221 
13   0.151348 
 
$$$$ 
 
