PCCDB-ID:  13588 
public computational chemistry database (PCCDB) project, http://pccdb.org 
 
 12 12  0  0  0  0  0  0  0  0999 V2000 
    1.0138    0.6526    0.0459 C   0  0  0  0  0  0  0  0  0  0  0  0 
   -0.3805    1.2353    0.0136 C   0  0  0  0  0  0  0  0  0  0  0  0 
    1.0283   -0.6882    0.0128 C   0  0  0  0  0  0  0  0  0  0  0  0 
   -1.3013   -0.0008   -0.0495 C   0  0  0  0  0  0  0  0  0  0  0  0 
   -0.3559   -1.2162   -0.0467 C   0  0  0  0  0  0  0  0  0  0  0  0 
   -0.6957   -2.3832   -0.0860 O   0  0  0  0  0  0  0  0  0  0  0  0 
    1.8966    1.2852    0.0915 H   0  0  0  0  0  0  0  0  0  0  0  0 
   -0.5047    1.9005   -0.8513 H   0  0  0  0  0  0  0  0  0  0  0  0 
   -0.5641    1.8550    0.9013 H   0  0  0  0  0  0  0  0  0  0  0  0 
    1.8988   -1.3344    0.0259 H   0  0  0  0  0  0  0  0  0  0  0  0 
   -1.9212   -0.0280   -0.9519 H   0  0  0  0  0  0  0  0  0  0  0  0 
   -1.9834   -0.0719    0.8044 H   0  0  0  0  0  0  0  0  0  0  0  0 
  1  7  1  0  0  0  0 
  2  1  1  0  0  0  0 
  2  9  1  0  0  0  0 
  3 10  1  0  0  0  0 
  3  1  2  0  0  0  0 
  4  5  1  0  0  0  0 
  4  2  1  0  0  0  0 
  4 12  1  0  0  0  0 
  5  3  1  0  0  0  0 
  6  5  2  0  0  0  0 
  8  2  1  0  0  0  0 
 11  4  1  0  0  0  0 
M  END 
>  <HBA> 
1 
 
>  <HBD> 
0 
 
>  <TPSA> 
17.07 
 
>  <cid> 
13588 
 
>  <dipole> 
3.65 
 
>  <excitation_energy_1> 
3.756 
 
>  <excitation_energy_2> 
6.008 
 
>  <excitation_energy_3> 
6.206 
 
>  <excitation_energy_4> 
6.421 
 
>  <homo_energy> 
-6.465 
 
>  <homo_lumo_gap> 
5.26 
 
>  <logP> 
0.905 
 
>  <lumo_energy> 
-1.205 
 
>  <melting_point> 
27.86 
 
>  <molecular_refractivity> 
23.76 
 
>  <oscillator_strength_1> 
0.0002 
 
>  <oscillator_strength_2> 
0.2827 
 
>  <oscillator_strength_3> 
0.0272 
 
>  <oscillator_strength_4> 
0.0 
 
>  <open_babel_can_smiles> 
C1CC=CC1=O 
 
>  <mulliken_charges> 
12 
1   -0.105318 
2   -0.320744 
3   -0.138589 
4   -0.366321 
5   0.415318 
6   -0.466666 
7   0.150198 
8   0.163997 
9   0.163992 
10   0.148801 
11   0.177683 
12   0.177647 
 
>  <lowdin_charges> 
12 
1   -0.114246 
2   -0.279518 
3   -0.200016 
4   -0.311705 
5   0.144913 
6   -0.243697 
7   0.16439 
8   0.160871 
9   0.160833 
10   0.172271 
11   0.172856 
12   0.173049 
 
$$$$ 
 
