PCCDB-ID:  24123 
public computational chemistry database (PCCDB) project, http://pccdb.org 
 
 24 24  0  0  0  0  0  0  0  0999 V2000 
   -1.6199   -0.4155   -0.1472 C   0  0  0  0  0  0  0  0  0  0  0  0 
   -0.7361   -1.4950   -0.1679 C   0  0  0  0  0  0  0  0  0  0  0  0 
   -1.1145    0.8786   -0.0643 C   0  0  0  0  0  0  0  0  0  0  0  0 
    0.6351   -1.2644   -0.1102 C   0  0  0  0  0  0  0  0  0  0  0  0 
    0.7243    2.5648    0.1093 C   0  0  0  0  0  0  0  0  0  0  0  0 
    2.6715    0.1858    0.0173 C   0  0  0  0  0  0  0  0  0  0  0  0 
    0.2654    1.1240   -0.0053 C   0  0  0  0  0  0  0  0  0  0  0  0 
    1.1578    0.0358   -0.0337 C   0  0  0  0  0  0  0  0  0  0  0  0 
    1.2709    3.1727   -1.1840 C   0  0  0  0  0  0  0  0  0  0  0  0 
    3.3409   -0.4961   -1.1868 C   0  0  0  0  0  0  0  0  0  0  0  0 
    1.8421    2.5561   -2.0557 O   0  0  0  0  0  0  0  0  0  0  0  0 
    1.1391    4.5099   -1.3123 O   0  0  0  0  0  0  0  0  0  0  0  0 
    3.9550   -1.5333   -1.0878 O   0  0  0  0  0  0  0  0  0  0  0  0 
    3.1740    0.1126   -2.3712 O   0  0  0  0  0  0  0  0  0  0  0  0 
   -2.6930   -0.5785   -0.1909 H   0  0  0  0  0  0  0  0  0  0  0  0 
   -1.1118   -2.5125   -0.2291 H   0  0  0  0  0  0  0  0  0  0  0  0 
   -1.8027    1.7209   -0.0410 H   0  0  0  0  0  0  0  0  0  0  0  0 
    1.3275   -2.1018   -0.1358 H   0  0  0  0  0  0  0  0  0  0  0  0 
    1.5221    2.6725    0.8579 H   0  0  0  0  0  0  0  0  0  0  0  0 
   -0.1101    3.1770    0.4721 H   0  0  0  0  0  0  0  0  0  0  0  0 
    3.0716   -0.3040    0.9095 H   0  0  0  0  0  0  0  0  0  0  0  0 
    2.9750    1.2359    0.0450 H   0  0  0  0  0  0  0  0  0  0  0  0 
    0.6518    4.8794   -0.5577 H   0  0  0  0  0  0  0  0  0  0  0  0 
    2.6395    0.9314   -2.2757 H   0  0  0  0  0  0  0  0  0  0  0  0 
  1  3  1  0  0  0  0 
  2  1  2  0  0  0  0 
  2  4  1  0  0  0  0 
  3 17  1  0  0  0  0 
  3  7  2  0  0  0  0 
  4  8  2  0  0  0  0 
  5 20  1  0  0  0  0 
  5 19  1  0  0  0  0 
  6 22  1  0  0  0  0 
  6 21  1  0  0  0  0 
  7  5  1  0  0  0  0 
  8  7  1  0  0  0  0 
  8  6  1  0  0  0  0 
  9  5  1  0  0  0  0 
 10 13  2  0  0  0  0 
 10  6  1  0  0  0  0 
 11  9  2  0  0  0  0 
 12  9  1  0  0  0  0 
 12 23  1  0  0  0  0 
 14 24  1  0  0  0  0 
 14 10  1  0  0  0  0 
 15  1  1  0  0  0  0 
 16  2  1  0  0  0  0 
 18  4  1  0  0  0  0 
M  END 
>  <HBA> 
4 
 
>  <HBD> 
2 
 
>  <TPSA> 
74.6 
 
>  <cid> 
24123 
 
>  <dipole> 
8.24 
 
>  <excitation_energy_1> 
5.098 
 
>  <excitation_energy_2> 
5.17 
 
>  <excitation_energy_3> 
5.403 
 
>  <excitation_energy_4> 
5.438 
 
>  <homo_energy> 
-6.686 
 
>  <homo_lumo_gap> 
5.891 
 
>  <logP> 
0.941 
 
>  <lumo_energy> 
-0.795 
 
>  <melting_point> 
164.98 
 
>  <molecular_refractivity> 
49.53 
 
>  <oscillator_strength_1> 
0.0002 
 
>  <oscillator_strength_2> 
0.0166 
 
>  <oscillator_strength_3> 
0.0256 
 
>  <oscillator_strength_4> 
0.0155 
 
>  <open_babel_can_smiles> 
OC(=O)Cc1ccccc1CC(=O)O 
 
>  <mulliken_charges> 
24 
1   -0.124943 
2   -0.122568 
3   -0.178934 
4   -0.172661 
5   -0.520241 
6   -0.446211 
7   0.13663 
8   0.099605 
9   0.630322 
10   0.595596 
11   -0.452243 
12   -0.542893 
13   -0.458635 
14   -0.590362 
15   0.137072 
16   0.1417 
17   0.123622 
18   0.16446 
19   0.205887 
20   0.16318 
21   0.186073 
22   0.14761 
23   0.420476 
24   0.45746 
 
>  <lowdin_charges> 
24 
1   -0.151302 
2   -0.144277 
3   -0.163486 
4   -0.153323 
5   -0.320758 
6   -0.316335 
7   -0.018568 
8   -0.007048 
9   0.216052 
10   0.189391 
11   -0.246653 
12   -0.334349 
13   -0.259063 
14   -0.355157 
15   0.160289 
16   0.163288 
17   0.154523 
18   0.174784 
19   0.184766 
20   0.163622 
21   0.178776 
22   0.157582 
23   0.36608 
24   0.361166 
 
$$$$ 
 
