PCCDB-ID:  70482 
public computational chemistry database (PCCDB) project, http://pccdb.org 
 
 15 15  0  0  0  0  0  0  0  0999 V2000 
    0.9320   -0.0968    0.1254 C   0  0  0  0  0  0  0  0  0  0  0  0 
    3.1702    1.1124   -0.0738 C   0  0  0  0  0  0  0  0  0  0  0  0 
    4.5569    1.0763   -0.1735 C   0  0  0  0  0  0  0  0  0  0  0  0 
    3.1841   -1.2605   -0.0186 C   0  0  0  0  0  0  0  0  0  0  0  0 
    2.4373   -0.0768    0.0088 C   0  0  0  0  0  0  0  0  0  0  0  0 
    5.1832   -0.1786   -0.1870 C   0  0  0  0  0  0  0  0  0  0  0  0 
    4.5153   -1.3254   -0.1127 N   0  0  0  0  0  0  0  0  0  0  0  0 
    6.5350   -0.3175   -0.2800 O   0  0  0  0  0  0  0  0  0  0  0  0 
    0.5183    0.9157    0.0803 H   0  0  0  0  0  0  0  0  0  0  0  0 
    0.6056   -0.5452    1.0721 H   0  0  0  0  0  0  0  0  0  0  0  0 
    0.4714   -0.6795   -0.6817 H   0  0  0  0  0  0  0  0  0  0  0  0 
    2.6560    2.0709   -0.0606 H   0  0  0  0  0  0  0  0  0  0  0  0 
    5.1361    1.9945   -0.2387 H   0  0  0  0  0  0  0  0  0  0  0  0 
    2.6736   -2.2224    0.0391 H   0  0  0  0  0  0  0  0  0  0  0  0 
    6.9370    0.5640   -0.3223 H   0  0  0  0  0  0  0  0  0  0  0  0 
  1 10  1  0  0  0  0 
  2 12  1  0  0  0  0 
  2  5  1  0  0  0  0 
  3  2  2  0  0  0  0 
  4  5  2  0  0  0  0 
  4 14  1  0  0  0  0 
  5  1  1  0  0  0  0 
  6  3  1  0  0  0  0 
  6  7  2  0  0  0  0 
  7  4  1  0  0  0  0 
  8  6  1  0  0  0  0 
  9  1  1  0  0  0  0 
 11  1  1  0  0  0  0 
 13  3  1  0  0  0  0 
 15  8  1  0  0  0  0 
M  END 
>  <HBA> 
1 
 
>  <HBD> 
1 
 
>  <TPSA> 
32.86 
 
>  <cid> 
70482 
 
>  <dipole> 
3.38 
 
>  <excitation_energy_1> 
4.905 
 
>  <excitation_energy_2> 
5.035 
 
>  <excitation_energy_3> 
5.385 
 
>  <excitation_energy_4> 
5.709 
 
>  <homo_energy> 
-6.174 
 
>  <homo_lumo_gap> 
5.663 
 
>  <logP> 
0.683 
 
>  <lumo_energy> 
-0.512 
 
>  <melting_point> 
89.87 
 
>  <molecular_refractivity> 
32.03 
 
>  <oscillator_strength_1> 
0.0592 
 
>  <oscillator_strength_2> 
0.0035 
 
>  <oscillator_strength_3> 
0.0001 
 
>  <oscillator_strength_4> 
0.0005 
 
>  <open_babel_can_smiles> 
Oc1ccc(cn1)C 
 
>  <mulliken_charges> 
15 
1   -0.533591 
2   -0.148415 
3   -0.198692 
4   -0.006601 
5   0.151202 
6   0.493147 
7   -0.448617 
8   -0.600445 
9   0.15524 
10   0.166618 
11   0.165834 
12   0.135266 
13   0.124717 
14   0.137834 
15   0.406503 
 
>  <lowdin_charges> 
15 
1   -0.441182 
2   -0.131656 
3   -0.229163 
4   -0.086434 
5   -0.039053 
6   0.133386 
7   -0.156025 
8   -0.360813 
9   0.156802 
10   0.162433 
11   0.163257 
12   0.15993 
13   0.157864 
14   0.154711 
15   0.355943 
 
$$$$ 
 
