PCCDB-ID:  20205 
public computational chemistry database (PCCDB) project, http://pccdb.org 
 
 17 16  0  0  0  0  0  0  0  0999 V2000 
    1.3081   -0.2228   -0.1954 C   0  0  0  0  0  0  0  0  0  0  0  0 
    0.6953   -0.8869   -1.4288 C   0  0  0  0  0  0  0  0  0  0  0  0 
    2.8397   -0.1713   -0.2426 C   0  0  0  0  0  0  0  0  0  0  0  0 
   -0.8153   -0.9523   -1.4117 C   0  0  0  0  0  0  0  0  0  0  0  0 
    3.4512    0.4967    0.9910 C   0  0  0  0  0  0  0  0  0  0  0  0 
   -1.5153   -0.5287   -0.5184 O   0  0  0  0  0  0  0  0  0  0  0  0 
    4.8690    0.5965    0.9210 O   0  0  0  0  0  0  0  0  0  0  0  0 
    0.9752   -0.7611    0.7012 H   0  0  0  0  0  0  0  0  0  0  0  0 
    0.9021    0.7920   -0.0990 H   0  0  0  0  0  0  0  0  0  0  0  0 
    1.0657   -1.9167   -1.5583 H   0  0  0  0  0  0  0  0  0  0  0  0 
    0.9896   -0.3659   -2.3542 H   0  0  0  0  0  0  0  0  0  0  0  0 
    3.1784    0.3737   -1.1338 H   0  0  0  0  0  0  0  0  0  0  0  0 
    3.2413   -1.1933   -0.3320 H   0  0  0  0  0  0  0  0  0  0  0  0 
   -1.2715   -1.4338   -2.3072 H   0  0  0  0  0  0  0  0  0  0  0  0 
    3.1339   -0.0344    1.9042 H   0  0  0  0  0  0  0  0  0  0  0  0 
    3.0907    1.5274    1.0775 H   0  0  0  0  0  0  0  0  0  0  0  0 
    5.2239   -0.3060    0.9066 H   0  0  0  0  0  0  0  0  0  0  0  0 
  1  9  1  0  0  0  0 
  1  8  1  0  0  0  0 
  2  4  1  0  0  0  0 
  2  1  1  0  0  0  0 
  3  1  1  0  0  0  0 
  3  5  1  0  0  0  0 
  4  6  2  0  0  0  0 
  5 16  1  0  0  0  0 
  5 15  1  0  0  0  0 
  7  5  1  0  0  0  0 
 10  2  1  0  0  0  0 
 11  2  1  0  0  0  0 
 12  3  1  0  0  0  0 
 13  3  1  0  0  0  0 
 14  4  1  0  0  0  0 
 17  7  1  0  0  0  0 
M  END 
>  <HBA> 
2 
 
>  <HBD> 
1 
 
>  <TPSA> 
37.3 
 
>  <cid> 
20205 
 
>  <dipole> 
2.83 
 
>  <excitation_energy_1> 
4.332 
 
>  <excitation_energy_2> 
6.078 
 
>  <excitation_energy_3> 
6.418 
 
>  <excitation_energy_4> 
6.55 
 
>  <homo_energy> 
-6.917 
 
>  <homo_lumo_gap> 
6.305 
 
>  <logP> 
0.348 
 
>  <lumo_energy> 
-0.612 
 
>  <melting_point> 
24.44 
 
>  <molecular_refractivity> 
27.51 
 
>  <oscillator_strength_1> 
0.0002 
 
>  <oscillator_strength_2> 
0.0001 
 
>  <oscillator_strength_3> 
0.0034 
 
>  <oscillator_strength_4> 
0.0349 
 
>  <open_babel_can_smiles> 
OCCCCC=O 
 
>  <mulliken_charges> 
17 
1   -0.255929 
2   -0.349673 
3   -0.280407 
4   0.253213 
5   -0.027788 
6   -0.381328 
7   -0.613973 
8   0.151487 
9   0.154492 
10   0.161159 
11   0.163917 
12   0.145552 
13   0.118898 
14   0.105481 
15   0.120537 
16   0.148734 
17   0.385628 
 
>  <lowdin_charges> 
17 
1   -0.272038 
2   -0.311656 
3   -0.29347 
4   0.056867 
5   -0.133768 
6   -0.219033 
7   -0.466702 
8   0.152106 
9   0.152641 
10   0.162348 
11   0.164874 
12   0.147762 
13   0.132431 
14   0.116461 
15   0.125866 
16   0.146672 
17   0.33864 
 
$$$$ 
 
