PCCDB-ID:  30119 
public computational chemistry database (PCCDB) project, http://pccdb.org 
 
 23 22  0  0  0  0  0  0  0  0999 V2000 
    2.9190   -0.2034   -2.2011 C   0  0  0  0  0  0  0  0  0  0  0  0 
    2.8209   -0.0644   -0.6792 C   0  0  0  0  0  0  0  0  0  0  0  0 
    4.0496    0.6344   -0.0720 C   0  0  0  0  0  0  0  0  0  0  0  0 
    3.5154    0.6089    4.2357 C   0  0  0  0  0  0  0  0  0  0  0  0 
    3.2067    1.7215    1.9765 C   0  0  0  0  0  0  0  0  0  0  0  0 
    4.0534   -0.4788    3.8027 N   0  0  0  0  0  0  0  0  0  0  0  0 
    3.2053    0.9028    5.5693 N   0  0  0  0  0  0  0  0  0  0  0  0 
    2.5513    2.7113    1.4747 N   0  0  0  0  0  0  0  0  0  0  0  0 
    4.0062    0.7913    1.3708 N   0  0  0  0  0  0  0  0  0  0  0  0 
    3.1256    1.6258    3.3862 N   0  0  0  0  0  0  0  0  0  0  0  0 
    2.0376   -0.7082   -2.6113 H   0  0  0  0  0  0  0  0  0  0  0  0 
    3.8015   -0.7867   -2.4927 H   0  0  0  0  0  0  0  0  0  0  0  0 
    2.9959    0.7770   -2.6876 H   0  0  0  0  0  0  0  0  0  0  0  0 
    2.7158   -1.0541   -0.2156 H   0  0  0  0  0  0  0  0  0  0  0  0 
    1.9206    0.5005   -0.4075 H   0  0  0  0  0  0  0  0  0  0  0  0 
    4.1866    1.6215   -0.5343 H   0  0  0  0  0  0  0  0  0  0  0  0 
    4.9545    0.0618   -0.3079 H   0  0  0  0  0  0  0  0  0  0  0  0 
    4.3420   -1.0866    4.5677 H   0  0  0  0  0  0  0  0  0  0  0  0 
    3.6308    0.2703    6.2353 H   0  0  0  0  0  0  0  0  0  0  0  0 
    3.3412    1.8714    5.8384 H   0  0  0  0  0  0  0  0  0  0  0  0 
    2.6527    2.7471    0.4619 H   0  0  0  0  0  0  0  0  0  0  0  0 
    4.2482   -0.0076    1.9604 H   0  0  0  0  0  0  0  0  0  0  0  0 
    2.4785    2.3148    3.7462 H   0  0  0  0  0  0  0  0  0  0  0  0 
  1  2  1  0  0  0  0 
  2 15  1  0  0  0  0 
  2 14  1  0  0  0  0 
  2  3  1  0  0  0  0 
  3  9  1  0  0  0  0 
  4  7  2  0  0  0  0 
  5 10  1  0  0  0  0 
  6  4  1  0  0  0  0 
  6 18  1  0  0  0  0 
  7 20  1  0  0  0  0 
  7 19  1  0  0  0  0 
  8  5  2  0  0  0  0 
  9 22  1  0  0  0  0 
  9  5  1  0  0  0  0 
 10 23  1  0  0  0  0 
 10  4  1  0  0  0  0 
 11  1  1  0  0  0  0 
 12  1  1  0  0  0  0 
 13  1  1  0  0  0  0 
 16  3  1  0  0  0  0 
 17  3  1  0  0  0  0 
 21  8  1  0  0  0  0 
M  RAD  1   6   2 
M  END 
>  <HBA> 
5 
 
>  <HBD> 
3 
 
>  <TPSA> 
102.78 
 
>  <cid> 
30119 
 
>  <dipole> 
3.04 
 
>  <excitation_energy_1> 
4.865 
 
>  <excitation_energy_2> 
5.482 
 
>  <excitation_energy_3> 
5.612 
 
>  <excitation_energy_4> 
5.721 
 
>  <homo_energy> 
-5.562 
 
>  <homo_lumo_gap> 
6.397 
 
>  <logP> 
1.085 
 
>  <lumo_energy> 
0.835 
 
>  <melting_point> 
172.57 
 
>  <molecular_refractivity> 
41.64 
 
>  <oscillator_strength_1> 
0.001 
 
>  <oscillator_strength_2> 
0.0092 
 
>  <oscillator_strength_3> 
0.0016 
 
>  <oscillator_strength_4> 
0.098 
 
>  <open_babel_can_smiles> 
CCCNC(=N)NC(=[NH2])[NH] 
 
>  <mulliken_charges> 
23 
1   -0.446762 
2   -0.251542 
3   -0.141354 
4   0.66277 
5   0.652893 
6   -0.690153 
7   -0.756892 
8   -0.689938 
9   -0.617429 
10   -0.663676 
11   0.148793 
12   0.142163 
13   0.14299 
14   0.140301 
15   0.150247 
16   0.142842 
17   0.144815 
18   0.277939 
19   0.325809 
20   0.329139 
21   0.278157 
22   0.375024 
23   0.343863 
 
>  <lowdin_charges> 
23 
1   -0.446492 
2   -0.287041 
3   -0.198071 
4   0.147429 
5   0.145433 
6   -0.491287 
7   -0.501747 
8   -0.502606 
9   -0.308506 
10   -0.259511 
11   0.154493 
12   0.14703 
13   0.146714 
14   0.144665 
15   0.14953 
16   0.141701 
17   0.150265 
18   0.255622 
19   0.281484 
20   0.281389 
21   0.248909 
22   0.301323 
23   0.299274 
 
$$$$ 
 
