PCCDB-ID:  70758 
public computational chemistry database (PCCDB) project, http://pccdb.org 
 
 18 18  0  0  0  0  0  0  0  0999 V2000 
    0.9049   -0.0220    0.0058 C   0  0  0  0  0  0  0  0  0  0  0  0 
    3.1274    1.2041   -0.1799 C   0  0  0  0  0  0  0  0  0  0  0  0 
    4.5298   -1.1696   -0.3124 C   0  0  0  0  0  0  0  0  0  0  0  0 
    2.4069    0.0050   -0.1228 C   0  0  0  0  0  0  0  0  0  0  0  0 
    3.1368   -1.1876   -0.1911 C   0  0  0  0  0  0  0  0  0  0  0  0 
    4.5153    1.2461   -0.3008 C   0  0  0  0  0  0  0  0  0  0  0  0 
    5.2275    0.0379   -0.3685 C   0  0  0  0  0  0  0  0  0  0  0  0 
    2.4242   -2.3629   -0.1339 O   0  0  0  0  0  0  0  0  0  0  0  0 
    5.2382    2.4112   -0.3573 O   0  0  0  0  0  0  0  0  0  0  0  0 
    6.5882    0.1112   -0.4871 O   0  0  0  0  0  0  0  0  0  0  0  0 
    0.4987    0.9931    0.0574 H   0  0  0  0  0  0  0  0  0  0  0  0 
    0.5886   -0.5619    0.9064 H   0  0  0  0  0  0  0  0  0  0  0  0 
    0.4376   -0.5330   -0.8449 H   0  0  0  0  0  0  0  0  0  0  0  0 
    2.5802    2.1448   -0.1274 H   0  0  0  0  0  0  0  0  0  0  0  0 
    5.0832   -2.1075   -0.3646 H   0  0  0  0  0  0  0  0  0  0  0  0 
    3.0414   -3.1079   -0.1881 H   0  0  0  0  0  0  0  0  0  0  0  0 
    4.6173    3.1541   -0.3101 H   0  0  0  0  0  0  0  0  0  0  0  0 
    6.9436   -0.7897   -0.5266 H   0  0  0  0  0  0  0  0  0  0  0  0 
  1 11  1  0  0  0  0 
  1 12  1  0  0  0  0 
  2 14  1  0  0  0  0 
  2  4  1  0  0  0  0 
  3  5  1  0  0  0  0 
  4  1  1  0  0  0  0 
  5  8  1  0  0  0  0 
  5  4  2  0  0  0  0 
  6  2  2  0  0  0  0 
  7  3  2  0  0  0  0 
  7  6  1  0  0  0  0 
  9 17  1  0  0  0  0 
  9  6  1  0  0  0  0 
 10  7  1  0  0  0  0 
 13  1  1  0  0  0  0 
 15  3  1  0  0  0  0 
 16  8  1  0  0  0  0 
 18 10  1  0  0  0  0 
M  END 
>  <HBA> 
3 
 
>  <HBD> 
3 
 
>  <TPSA> 
60.69 
 
>  <cid> 
70758 
 
>  <dipole> 
1.47 
 
>  <excitation_energy_1> 
4.354 
 
>  <excitation_energy_2> 
4.538 
 
>  <excitation_energy_3> 
4.549 
 
>  <excitation_energy_4> 
4.721 
 
>  <homo_energy> 
-5.067 
 
>  <homo_lumo_gap> 
5.374 
 
>  <logP> 
1.112 
 
>  <lumo_energy> 
0.307 
 
>  <melting_point> 
130.08 
 
>  <molecular_refractivity> 
37.48 
 
>  <oscillator_strength_1> 
0.0 
 
>  <oscillator_strength_2> 
0.0156 
 
>  <oscillator_strength_3> 
0.0783 
 
>  <oscillator_strength_4> 
0.0006 
 
>  <open_babel_can_smiles> 
Oc1cc(O)c(cc1C)O 
 
>  <mulliken_charges> 
18 
1   -0.516027 
2   -0.273151 
3   -0.273178 
4   0.143314 
5   0.294768 
6   0.328095 
7   0.322167 
8   -0.652457 
9   -0.643467 
10   -0.635942 
11   0.143731 
12   0.165416 
13   0.165146 
14   0.111797 
15   0.10425 
16   0.405253 
17   0.4048 
18   0.405484 
 
>  <lowdin_charges> 
18 
1   -0.435241 
2   -0.20518 
3   -0.260626 
4   -0.038296 
5   0.086815 
6   0.060069 
7   0.084695 
8   -0.38864 
9   -0.380377 
10   -0.370117 
11   0.151401 
12   0.162721 
13   0.162944 
14   0.152048 
15   0.148234 
16   0.356697 
17   0.357261 
18   0.355593 
 
$$$$ 
 
