PCCDB-ID:  22201 
public computational chemistry database (PCCDB) project, http://pccdb.org 
 
 16 16  0  0  0  0  0  0  0  0999 V2000 
    0.9533   -0.0080   -0.1444 C   0  0  0  0  0  0  0  0  0  0  0  0 
    2.4489   -2.5992   -0.4017 C   0  0  0  0  0  0  0  0  0  0  0  0 
    4.4346    1.0241    0.2875 C   0  0  0  0  0  0  0  0  0  0  0  0 
    5.1271   -0.1758    0.1686 C   0  0  0  0  0  0  0  0  0  0  0  0 
    2.4547   -0.0721   -0.0331 C   0  0  0  0  0  0  0  0  0  0  0  0 
    3.1600   -1.2942   -0.1541 C   0  0  0  0  0  0  0  0  0  0  0  0 
    3.1007    1.0795    0.1874 N   0  0  0  0  0  0  0  0  0  0  0  0 
    4.4941   -1.3348   -0.0518 N   0  0  0  0  0  0  0  0  0  0  0  0 
    0.4657   -0.6194    0.6258 H   0  0  0  0  0  0  0  0  0  0  0  0 
    0.6043   -0.3827   -1.1150 H   0  0  0  0  0  0  0  0  0  0  0  0 
    0.6266    1.0275   -0.0291 H   0  0  0  0  0  0  0  0  0  0  0  0 
    1.8819   -2.5774   -1.3411 H   0  0  0  0  0  0  0  0  0  0  0  0 
    1.7312   -2.8247    0.3974 H   0  0  0  0  0  0  0  0  0  0  0  0 
    3.1826   -3.4063   -0.4531 H   0  0  0  0  0  0  0  0  0  0  0  0 
    4.9555    1.9627    0.4665 H   0  0  0  0  0  0  0  0  0  0  0  0 
    6.2117   -0.2137    0.2510 H   0  0  0  0  0  0  0  0  0  0  0  0 
  1  5  1  0  0  0  0 
  1 11  1  0  0  0  0 
  1  9  1  0  0  0  0 
  2  6  1  0  0  0  0 
  2 13  1  0  0  0  0 
  3 15  1  0  0  0  0 
  4 16  1  0  0  0  0 
  4  3  2  0  0  0  0 
  5  7  2  0  0  0  0 
  6  8  2  0  0  0  0 
  6  5  1  0  0  0  0 
  7  3  1  0  0  0  0 
  8  4  1  0  0  0  0 
 10  1  1  0  0  0  0 
 12  2  1  0  0  0  0 
 14  2  1  0  0  0  0 
M  END 
>  <HBA> 
2 
 
>  <HBD> 
0 
 
>  <TPSA> 
25.78 
 
>  <cid> 
22201 
 
>  <dipole> 
0.83 
 
>  <excitation_energy_1> 
4.124 
 
>  <excitation_energy_2> 
4.741 
 
>  <excitation_energy_3> 
5.189 
 
>  <excitation_energy_4> 
5.614 
 
>  <homo_energy> 
-6.569 
 
>  <homo_lumo_gap> 
5.513 
 
>  <logP> 
1.093 
 
>  <lumo_energy> 
-1.056 
 
>  <melting_point> 
43.0 
 
>  <molecular_refractivity> 
31.96 
 
>  <oscillator_strength_1> 
0.0051 
 
>  <oscillator_strength_2> 
0.0 
 
>  <oscillator_strength_3> 
0.13 
 
>  <oscillator_strength_4> 
0.0 
 
>  <open_babel_can_smiles> 
Cc1nccnc1C 
 
>  <mulliken_charges> 
16 
1   -0.52194 
2   -0.52216 
3   0.026877 
4   0.026806 
5   0.276732 
6   0.276997 
7   -0.434155 
8   -0.434148 
9   0.163488 
10   0.163155 
11   0.180469 
12   0.163495 
13   0.163242 
14   0.180527 
15   0.145297 
16   0.145318 
 
>  <lowdin_charges> 
16 
1   -0.44821 
2   -0.448515 
3   -0.113755 
4   -0.109953 
5   0.033462 
6   0.031925 
7   -0.132533 
8   -0.132655 
9   0.164064 
10   0.162643 
11   0.172524 
12   0.162931 
13   0.163524 
14   0.174027 
15   0.161642 
16   0.158879 
 
$$$$ 
 
