PCCDB-ID:  14241 
public computational chemistry database (PCCDB) project, http://pccdb.org 
 
 25 24  0  0  1  0  0  0  0  0999 V2000 
    3.1646    3.3675   -2.9198 C   0  0  0  0  0  0  0  0  0  0  0  0 
    4.3074    2.3777   -3.0771 C   0  0  0  0  0  0  0  0  0  0  0  0 
    4.5244   -0.2955    1.0510 C   0  0  0  0  0  0  0  0  0  0  0  0 
    5.0732    0.8878    0.2520 C   0  0  0  0  0  0  0  0  0  0  0  0 
    3.0972   -0.0430    1.6194 C   0  0  1  0  0  0  0  0  0  0  0  0 
    4.3478    1.0931   -1.0632 C   0  0  0  0  0  0  0  0  0  0  0  0 
    2.1838   -1.2546    1.3429 C   0  0  0  0  0  0  0  0  0  0  0  0 
    3.1789    0.3226    3.0295 N   0  0  0  0  0  0  0  0  0  0  0  0 
    3.3679    0.4607   -1.4342 O   0  0  0  0  0  0  0  0  0  0  0  0 
    1.7114   -1.9386    2.2220 O   0  0  0  0  0  0  0  0  0  0  0  0 
    1.9473   -1.5114    0.0421 O   0  0  0  0  0  0  0  0  0  0  0  0 
    4.9122    2.0619   -1.7921 O   0  0  0  0  0  0  0  0  0  0  0  0 
    2.7838    3.6496   -3.9079 H   0  0  0  0  0  0  0  0  0  0  0  0 
    3.5019    4.2757   -2.4100 H   0  0  0  0  0  0  0  0  0  0  0  0 
    2.3418    2.9252   -2.3510 H   0  0  0  0  0  0  0  0  0  0  0  0 
    5.1306    2.8009   -3.6567 H   0  0  0  0  0  0  0  0  0  0  0  0 
    3.9732    1.4486   -3.5438 H   0  0  0  0  0  0  0  0  0  0  0  0 
    5.1890   -0.4831    1.8999 H   0  0  0  0  0  0  0  0  0  0  0  0 
    4.5459   -1.1930    0.4235 H   0  0  0  0  0  0  0  0  0  0  0  0 
    6.1396    0.7635    0.0278 H   0  0  0  0  0  0  0  0  0  0  0  0 
    4.9958    1.8157    0.8339 H   0  0  0  0  0  0  0  0  0  0  0  0 
    2.6527    0.8075    1.0866 H   0  0  0  0  0  0  0  0  0  0  0  0 
    3.3599   -0.5315    3.5599 H   0  0  0  0  0  0  0  0  0  0  0  0 
    2.2545    0.6167    3.3449 H   0  0  0  0  0  0  0  0  0  0  0  0 
    2.4105   -0.8521   -0.5240 H   0  0  0  0  0  0  0  0  0  0  0  0 
  1 14  1  0  0  0  0 
  1 15  1  0  0  0  0 
  2  1  1  0  0  0  0 
  2 12  1  0  0  0  0 
  3  5  1  0  0  0  0 
  3 18  1  0  0  0  0 
  4 21  1  0  0  0  0 
  4  3  1  0  0  0  0 
  5 22  1  6  0  0  0 
  5  8  1  0  0  0  0 
  6  4  1  0  0  0  0 
  7  5  1  0  0  0  0 
  7 10  2  0  0  0  0 
  8 24  1  0  0  0  0 
  8 23  1  0  0  0  0 
  9  6  2  0  0  0  0 
 11  7  1  0  0  0  0 
 12  6  1  0  0  0  0 
 13  1  1  0  0  0  0 
 16  2  1  0  0  0  0 
 17  2  1  0  0  0  0 
 19  3  1  0  0  0  0 
 20  4  1  0  0  0  0 
 25 11  1  0  0  0  0 
M  END 
>  <HBA> 
5 
 
>  <HBD> 
2 
 
>  <TPSA> 
89.62 
 
>  <cid> 
14241 
 
>  <dipole> 
5.97 
 
>  <excitation_energy_1> 
5.489 
 
>  <excitation_energy_2> 
5.612 
 
>  <excitation_energy_3> 
5.962 
 
>  <excitation_energy_4> 
5.995 
 
>  <homo_energy> 
-6.569 
 
>  <homo_lumo_gap> 
6.139 
 
>  <logP> 
0.442 
 
>  <lumo_energy> 
-0.43 
 
>  <melting_point> 
116.62 
 
>  <molecular_refractivity> 
41.53 
 
>  <oscillator_strength_1> 
0.0016 
 
>  <oscillator_strength_2> 
0.0016 
 
>  <oscillator_strength_3> 
0.0005 
 
>  <oscillator_strength_4> 
0.0024 
 
>  <open_babel_can_smiles> 
CCOC(=O)CC[C@@H](C(=O)O)N 
 
>  <mulliken_charges> 
25 
1   -0.464722 
2   -0.051767 
3   -0.270274 
4   -0.371879 
5   -0.096744 
6   0.644128 
7   0.561568 
8   -0.703403 
9   -0.509713 
10   -0.460997 
11   -0.598944 
12   -0.450217 
13   0.159963 
14   0.164028 
15   0.176006 
16   0.163677 
17   0.177658 
18   0.165176 
19   0.162413 
20   0.182997 
21   0.199137 
22   0.154704 
23   0.309158 
24   0.305958 
25   0.452088 
 
>  <lowdin_charges> 
25 
1   -0.454983 
2   -0.126845 
3   -0.278478 
4   -0.299809 
5   -0.117524 
6   0.212254 
7   0.171203 
8   -0.536218 
9   -0.29095 
10   -0.262528 
11   -0.367953 
12   -0.175739 
13   0.163935 
14   0.160104 
15   0.166233 
16   0.159546 
17   0.162654 
18   0.166425 
19   0.155537 
20   0.175077 
21   0.18223 
22   0.154433 
23   0.261663 
24   0.260193 
25   0.359541 
 
$$$$ 
 
