PCCDB-ID:  31670 
public computational chemistry database (PCCDB) project, http://pccdb.org 
 
 25 25  0  0  0  0  0  0  0  0999 V2000 
   -1.0645   -0.9950    0.1064 C   0  0  0  0  0  0  0  0  0  0  0  0 
    0.4257   -1.4302    0.0835 C   0  0  0  0  0  0  0  0  0  0  0  0 
    1.4401    2.0895   -2.1587 C   0  0  0  0  0  0  0  0  0  0  0  0 
    1.4038    3.5135   -1.6013 C   0  0  0  0  0  0  0  0  0  0  0  0 
   -0.9917    0.5400    0.3211 C   0  0  0  0  0  0  0  0  0  0  0  0 
    1.2158   -0.0896    0.1790 C   0  0  0  0  0  0  0  0  0  0  0  0 
    0.2757    1.2134   -1.6807 C   0  0  0  0  0  0  0  0  0  0  0  0 
    2.5342    4.2961   -2.1258 N   0  0  0  0  0  0  0  0  0  0  0  0 
    0.2968    0.9878   -0.2257 N   0  0  0  0  0  0  0  0  0  0  0  0 
   -1.6399   -1.4933    0.8935 H   0  0  0  0  0  0  0  0  0  0  0  0 
   -1.5524   -1.2281   -0.8463 H   0  0  0  0  0  0  0  0  0  0  0  0 
    0.6642   -1.9676   -0.8400 H   0  0  0  0  0  0  0  0  0  0  0  0 
    0.6780   -2.0974    0.9142 H   0  0  0  0  0  0  0  0  0  0  0  0 
    2.3953    1.6172   -1.8844 H   0  0  0  0  0  0  0  0  0  0  0  0 
    1.4273    2.1357   -3.2549 H   0  0  0  0  0  0  0  0  0  0  0  0 
    1.3552    3.4647   -0.5020 H   0  0  0  0  0  0  0  0  0  0  0  0 
    0.4800    4.0042   -1.9375 H   0  0  0  0  0  0  0  0  0  0  0  0 
   -1.0025    0.7643    1.3966 H   0  0  0  0  0  0  0  0  0  0  0  0 
   -1.8195    1.0897   -0.1370 H   0  0  0  0  0  0  0  0  0  0  0  0 
    2.1221   -0.0784   -0.4329 H   0  0  0  0  0  0  0  0  0  0  0  0 
    1.5225    0.0894    1.2177 H   0  0  0  0  0  0  0  0  0  0  0  0 
    0.2732    0.2700   -2.2584 H   0  0  0  0  0  0  0  0  0  0  0  0 
   -0.6663    1.7232   -1.9191 H   0  0  0  0  0  0  0  0  0  0  0  0 
    3.4040    3.9149   -1.7527 H   0  0  0  0  0  0  0  0  0  0  0  0 
    2.4805    5.2494   -1.7685 H   0  0  0  0  0  0  0  0  0  0  0  0 
  1  5  1  0  0  0  0 
  1 10  1  0  0  0  0 
  2  1  1  0  0  0  0 
  2  6  1  0  0  0  0 
  2 13  1  0  0  0  0 
  3 14  1  0  0  0  0 
  3  7  1  0  0  0  0 
  3  4  1  0  0  0  0 
  4 16  1  0  0  0  0 
  5 18  1  0  0  0  0 
  6 21  1  0  0  0  0 
  7  9  1  0  0  0  0 
  8 25  1  0  0  0  0 
  8 24  1  0  0  0  0 
  8  4  1  0  0  0  0 
  9  6  1  0  0  0  0 
  9  5  1  0  0  0  0 
 11  1  1  0  0  0  0 
 12  2  1  0  0  0  0 
 15  3  1  0  0  0  0 
 17  4  1  0  0  0  0 
 19  5  1  0  0  0  0 
 20  6  1  0  0  0  0 
 22  7  1  0  0  0  0 
 23  7  1  0  0  0  0 
M  END 
>  <HBA> 
2 
 
>  <HBD> 
1 
 
>  <TPSA> 
29.26 
 
>  <cid> 
31670 
 
>  <dipole> 
1.41 
 
>  <excitation_energy_1> 
5.083 
 
>  <excitation_energy_2> 
5.267 
 
>  <excitation_energy_3> 
5.493 
 
>  <excitation_energy_4> 
5.595 
 
>  <homo_energy> 
-5.54 
 
>  <homo_lumo_gap> 
7.549 
 
>  <logP> 
1.069 
 
>  <lumo_energy> 
2.008 
 
>  <melting_point> 
52.24 
 
>  <molecular_refractivity> 
43.17 
 
>  <oscillator_strength_1> 
0.0259 
 
>  <oscillator_strength_2> 
0.0129 
 
>  <oscillator_strength_3> 
0.0023 
 
>  <oscillator_strength_4> 
0.0084 
 
>  <open_babel_can_smiles> 
NCCCN1CCCC1 
 
>  <mulliken_charges> 
25 
1   -0.283592 
2   -0.285921 
3   -0.249619 
4   -0.131919 
5   -0.144831 
6   -0.151112 
7   -0.13328 
8   -0.719631 
9   -0.373397 
10   0.137137 
11   0.140703 
12   0.141282 
13   0.138091 
14   0.123466 
15   0.143437 
16   0.13594 
17   0.128963 
18   0.13909 
19   0.137172 
20   0.140274 
21   0.141354 
22   0.114499 
23   0.131954 
24   0.287925 
25   0.292016 
 
>  <lowdin_charges> 
25 
1   -0.30353 
2   -0.304243 
3   -0.281227 
4   -0.206099 
5   -0.20854 
6   -0.211549 
7   -0.201681 
8   -0.561082 
9   -0.191337 
10   0.14845 
11   0.144694 
12   0.146033 
13   0.148256 
14   0.13559 
15   0.148004 
16   0.126299 
17   0.136978 
18   0.138047 
19   0.146316 
20   0.146605 
21   0.140432 
22   0.121601 
23   0.141914 
24   0.248754 
25   0.251313 
 
$$$$ 
 
