PCCDB-ID:  22438 
public computational chemistry database (PCCDB) project, http://pccdb.org 
 
 29 28  0  0  0  0  0  0  0  0999 V2000 
    5.4549    2.3943    1.1032 C   0  0  0  0  0  0  0  0  0  0  0  0 
    9.2823   -0.1413   -4.0060 C   0  0  0  0  0  0  0  0  0  0  0  0 
    4.9870    2.6999   -0.3255 C   0  0  0  0  0  0  0  0  0  0  0  0 
    9.2016    0.1633   -2.5439 C   0  0  0  0  0  0  0  0  0  0  0  0 
    5.6098    1.7954   -1.4024 C   0  0  0  0  0  0  0  0  0  0  0  0 
    5.1465    0.3295   -1.3414 C   0  0  0  0  0  0  0  0  0  0  0  0 
    5.8086   -0.6006   -2.3792 C   0  0  0  0  0  0  0  0  0  0  0  0 
    7.1501   -1.2549   -1.9613 C   0  0  0  0  0  0  0  0  0  0  0  0 
    8.2881   -0.3107   -1.6861 C   0  0  0  0  0  0  0  0  0  0  0  0 
    8.4288    0.1400   -0.2741 N   0  0  0  0  0  0  0  0  0  0  0  0 
    9.1952    1.0699   -0.0184 O   0  0  0  0  0  0  0  0  0  0  0  0 
    7.7598   -0.4488    0.5774 O   0  0  0  0  0  0  0  0  0  0  0  0 
    5.0363    3.1158    1.8143 H   0  0  0  0  0  0  0  0  0  0  0  0 
    6.5480    2.4416    1.1796 H   0  0  0  0  0  0  0  0  0  0  0  0 
    5.1497    1.3948    1.4313 H   0  0  0  0  0  0  0  0  0  0  0  0 
   10.2745   -0.5381   -4.2570 H   0  0  0  0  0  0  0  0  0  0  0  0 
    9.1631    0.7823   -4.5882 H   0  0  0  0  0  0  0  0  0  0  0  0 
    8.5268   -0.8546   -4.3432 H   0  0  0  0  0  0  0  0  0  0  0  0 
    5.2333    3.7433   -0.5643 H   0  0  0  0  0  0  0  0  0  0  0  0 
    3.8908    2.6275   -0.3794 H   0  0  0  0  0  0  0  0  0  0  0  0 
    9.9503    0.8407   -2.1432 H   0  0  0  0  0  0  0  0  0  0  0  0 
    6.7025    1.8641   -1.3268 H   0  0  0  0  0  0  0  0  0  0  0  0 
    5.3542    2.1935   -2.3953 H   0  0  0  0  0  0  0  0  0  0  0  0 
    4.0602    0.3159   -1.5075 H   0  0  0  0  0  0  0  0  0  0  0  0 
    5.3069   -0.0816   -0.3383 H   0  0  0  0  0  0  0  0  0  0  0  0 
    5.9495   -0.0561   -3.3237 H   0  0  0  0  0  0  0  0  0  0  0  0 
    5.1246   -1.4287   -2.6054 H   0  0  0  0  0  0  0  0  0  0  0  0 
    7.4617   -1.9343   -2.7627 H   0  0  0  0  0  0  0  0  0  0  0  0 
    6.9878   -1.8705   -1.0734 H   0  0  0  0  0  0  0  0  0  0  0  0 
  1 14  1  0  0  0  0 
  1 15  1  0  0  0  0 
  1 13  1  0  0  0  0 
  2  4  1  0  0  0  0 
  3  1  1  0  0  0  0 
  4 21  1  0  0  0  0 
  4  9  2  0  0  0  0 
  5  6  1  0  0  0  0 
  5 22  1  0  0  0  0 
  5  3  1  0  0  0  0 
  6 25  1  0  0  0  0 
  7  8  1  0  0  0  0 
  7  6  1  0  0  0  0 
  8  9  1  0  0  0  0 
  8 29  1  0  0  0  0 
  9 10  1  0  0  0  0 
 10 11  2  0  0  0  0 
 10 12  2  0  0  0  0 
 16  2  1  0  0  0  0 
 17  2  1  0  0  0  0 
 18  2  1  0  0  0  0 
 19  3  1  0  0  0  0 
 20  3  1  0  0  0  0 
 23  5  1  0  0  0  0 
 24  6  1  0  0  0  0 
 26  7  1  0  0  0  0 
 27  7  1  0  0  0  0 
 28  8  1  0  0  0  0 
M  END 
>  <HBA> 
0 
 
>  <HBD> 
0 
 
>  <TPSA> 
45.82 
 
>  <cid> 
22438 
 
>  <dipole> 
4.28 
 
>  <excitation_energy_1> 
3.689 
 
>  <excitation_energy_2> 
4.244 
 
>  <excitation_energy_3> 
4.597 
 
>  <excitation_energy_4> 
5.24 
 
>  <homo_energy> 
-7.41 
 
>  <homo_lumo_gap> 
5.208 
 
>  <logP> 
3.66 
 
>  <lumo_energy> 
-2.201 
 
>  <melting_point> 
15.41 
 
>  <molecular_refractivity> 
53.01 
 
>  <oscillator_strength_1> 
0.0008 
 
>  <oscillator_strength_2> 
0.009 
 
>  <oscillator_strength_3> 
0.1251 
 
>  <oscillator_strength_4> 
0.0015 
 
>  <open_babel_can_smiles> 
CCCCCC/C(=C\C)/N(=O)=O 
 
>  <mulliken_charges> 
29 
1   -0.447688 
2   -0.497664 
3   -0.249323 
4   -0.139839 
5   -0.258945 
6   -0.269277 
7   -0.256769 
8   -0.356955 
9   0.282022 
10   0.411159 
11   -0.40031 
12   -0.38573 
13   0.137464 
14   0.157018 
15   0.150083 
16   0.176117 
17   0.179659 
18   0.168872 
19   0.129693 
20   0.125858 
21   0.188631 
22   0.135511 
23   0.123058 
24   0.130014 
25   0.160115 
26   0.13255 
27   0.138883 
28   0.149341 
29   0.186454 
 
>  <lowdin_charges> 
29 
1   -0.447776 
2   -0.439826 
3   -0.269094 
4   -0.121379 
5   -0.278121 
6   -0.283505 
7   -0.270835 
8   -0.288197 
9   -0.005523 
10   0.305204 
11   -0.257356 
12   -0.249194 
13   0.148941 
14   0.151897 
15   0.148851 
16   0.170648 
17   0.1738 
18   0.163717 
19   0.140083 
20   0.134155 
21   0.186228 
22   0.137817 
23   0.136481 
24   0.140024 
25   0.151493 
26   0.139433 
27   0.148818 
28   0.15845 
29   0.174766 
 
$$$$ 
 
