PCCDB-ID:  41045 
public computational chemistry database (PCCDB) project, http://pccdb.org 
 
 24 23  0  0  1  0  0  0  0  0999 V2000 
    0.9307   -0.0215   -0.0953 C   0  0  0  0  0  0  0  0  0  0  0  0 
    6.8549    3.9269    2.7789 C   0  0  0  0  0  0  0  0  0  0  0  0 
    2.4399    0.2314   -0.1691 C   0  0  0  0  0  0  0  0  0  0  0  0 
    2.9324    1.2488    0.8683 C   0  0  0  0  0  0  0  0  0  0  0  0 
    4.4438    1.5040    0.7997 C   0  0  0  0  0  0  0  0  0  0  0  0 
    4.9252    2.5229    1.8392 C   0  0  0  0  0  0  0  0  0  0  0  0 
    7.2230    1.5932    2.0488 C   0  0  0  0  0  0  0  0  0  0  0  0 
    6.4441    2.8160    1.7912 C   0  0  2  0  0  0  0  0  0  0  0  0 
    7.8315    0.6283    2.2668 N   0  0  0  0  0  0  0  0  0  0  0  0 
    0.6110   -0.7520   -0.8470 H   0  0  0  0  0  0  0  0  0  0  0  0 
    0.3643    0.9023   -0.2666 H   0  0  0  0  0  0  0  0  0  0  0  0 
    0.6413   -0.4088    0.8894 H   0  0  0  0  0  0  0  0  0  0  0  0 
    6.3158    4.8495    2.5399 H   0  0  0  0  0  0  0  0  0  0  0  0 
    7.9286    4.1297    2.7251 H   0  0  0  0  0  0  0  0  0  0  0  0 
    6.6117    3.6419    3.8076 H   0  0  0  0  0  0  0  0  0  0  0  0 
    2.7035    0.5849   -1.1761 H   0  0  0  0  0  0  0  0  0  0  0  0 
    2.9783   -0.7163   -0.0290 H   0  0  0  0  0  0  0  0  0  0  0  0 
    2.6695    0.8944    1.8760 H   0  0  0  0  0  0  0  0  0  0  0  0 
    2.3936    2.1982    0.7297 H   0  0  0  0  0  0  0  0  0  0  0  0 
    4.7073    1.8602   -0.2072 H   0  0  0  0  0  0  0  0  0  0  0  0 
    4.9806    0.5563    0.9409 H   0  0  0  0  0  0  0  0  0  0  0  0 
    4.6650    2.1796    2.8493 H   0  0  0  0  0  0  0  0  0  0  0  0 
    4.4060    3.4791    1.6898 H   0  0  0  0  0  0  0  0  0  0  0  0 
    6.6989    3.1429    0.7730 H   0  0  0  0  0  0  0  0  0  0  0  0 
  1 12  1  0  0  0  0 
  2 15  1  0  0  0  0 
  3  1  1  0  0  0  0 
  3 17  1  0  0  0  0 
  3  4  1  0  0  0  0 
  4 18  1  0  0  0  0 
  5  4  1  0  0  0  0 
  5 21  1  0  0  0  0 
  5  6  1  0  0  0  0 
  6 22  1  0  0  0  0 
  7  9  3  0  0  0  0 
  8 24  1  6  0  0  0 
  8  6  1  0  0  0  0 
  8  7  1  0  0  0  0 
  8  2  1  0  0  0  0 
 10  1  1  0  0  0  0 
 11  1  1  0  0  0  0 
 13  2  1  0  0  0  0 
 14  2  1  0  0  0  0 
 16  3  1  0  0  0  0 
 19  4  1  0  0  0  0 
 20  5  1  0  0  0  0 
 23  6  1  0  0  0  0 
M  END 
>  <HBA> 
1 
 
>  <HBD> 
0 
 
>  <TPSA> 
23.79 
 
>  <cid> 
41045 
 
>  <dipole> 
3.85 
 
>  <excitation_energy_1> 
7.423 
 
>  <excitation_energy_2> 
7.679 
 
>  <excitation_energy_3> 
7.726 
 
>  <excitation_energy_4> 
7.982 
 
>  <homo_energy> 
-8.417 
 
>  <homo_lumo_gap> 
9.388 
 
>  <logP> 
2.726 
 
>  <lumo_energy> 
0.971 
 
>  <melting_point> 
6.01 
 
>  <molecular_refractivity> 
40.32 
 
>  <oscillator_strength_1> 
0.0098 
 
>  <oscillator_strength_2> 
0.0059 
 
>  <oscillator_strength_3> 
0.0184 
 
>  <oscillator_strength_4> 
0.0016 
 
>  <open_babel_can_smiles> 
CCCCC[C@H](C#N)C 
 
>  <mulliken_charges> 
24 
1   -0.442326 
2   -0.445308 
3   -0.248756 
4   -0.248883 
5   -0.268612 
6   -0.255654 
7   0.353409 
8   -0.167493 
9   -0.480865 
10   0.144467 
11   0.141024 
12   0.143108 
13   0.156813 
14   0.167993 
15   0.166047 
16   0.131321 
17   0.13696 
18   0.131952 
19   0.127049 
20   0.130188 
21   0.158528 
22   0.149028 
23   0.141706 
24   0.178305 
 
>  <lowdin_charges> 
24 
1   -0.445204 
2   -0.430542 
3   -0.271101 
4   -0.272752 
5   -0.278775 
6   -0.264732 
7   -0.016944 
8   -0.124778 
9   -0.136062 
10   0.151752 
11   0.146315 
12   0.146873 
13   0.157535 
14   0.161977 
15   0.160093 
16   0.138737 
17   0.14215 
18   0.13924 
19   0.136995 
20   0.13919 
21   0.153095 
22   0.149694 
23   0.147432 
24   0.169812 
 
$$$$ 
 
