PCCDB-ID:  7222 
public computational chemistry database (PCCDB) project, http://pccdb.org 
 
 14 15  0  0  0  0  0  0  0  0999 V2000 
   -2.1100   -0.7493   -0.0004 C   0  0  0  0  0  0  0  0  0  0  0  0 
   -2.1991    0.6543    0.0002 C   0  0  0  0  0  0  0  0  0  0  0  0 
   -0.8752   -1.3851   -0.0009 C   0  0  0  0  0  0  0  0  0  0  0  0 
   -1.0552    1.4473    0.0007 C   0  0  0  0  0  0  0  0  0  0  0  0 
    2.4439   -0.1441   -0.0001 C   0  0  0  0  0  0  0  0  0  0  0  0 
    0.2906   -0.6052   -0.0011 C   0  0  0  0  0  0  0  0  0  0  0  0 
    0.1873    0.8079    0.0003 C   0  0  0  0  0  0  0  0  0  0  0  0 
    1.5860   -1.1079   -0.0017 N   0  0  0  0  0  0  0  0  0  0  0  0 
    1.7980    1.5021    0.0018 S   0  0  0  0  0  0  0  0  0  0  0  0 
   -3.0201   -1.3421   -0.0004 H   0  0  0  0  0  0  0  0  0  0  0  0 
   -3.1759    1.1297   -0.0001 H   0  0  0  0  0  0  0  0  0  0  0  0 
   -0.7890   -2.4670   -0.0003 H   0  0  0  0  0  0  0  0  0  0  0  0 
   -1.1302    2.5304    0.0013 H   0  0  0  0  0  0  0  0  0  0  0  0 
    3.5183   -0.2932    0.0005 H   0  0  0  0  0  0  0  0  0  0  0  0 
  1  2  2  0  0  0  0 
  2  4  1  0  0  0  0 
  3  1  1  0  0  0  0 
  3 12  1  0  0  0  0 
  4 13  1  0  0  0  0 
  5 14  1  0  0  0  0 
  5  9  1  0  0  0  0 
  6  3  2  0  0  0  0 
  6  7  1  0  0  0  0 
  7  4  2  0  0  0  0 
  7  9  1  0  0  0  0 
  8  6  1  0  0  0  0 
  8  5  2  0  0  0  0 
 10  1  1  0  0  0  0 
 11  2  1  0  0  0  0 
M  END 
>  <HBA> 
2 
 
>  <HBD> 
0 
 
>  <TPSA> 
41.13 
 
>  <cid> 
7222 
 
>  <dipole> 
1.22 
 
>  <excitation_energy_1> 
4.701 
 
>  <excitation_energy_2> 
5.091 
 
>  <excitation_energy_3> 
5.254 
 
>  <excitation_energy_4> 
5.31 
 
>  <homo_energy> 
-6.463 
 
>  <homo_lumo_gap> 
5.464 
 
>  <logP> 
2.296 
 
>  <lumo_energy> 
-0.999 
 
>  <melting_point> 
62.38 
 
>  <molecular_refractivity> 
39.62 
 
>  <oscillator_strength_1> 
0.0305 
 
>  <oscillator_strength_2> 
0.0902 
 
>  <oscillator_strength_3> 
0.0002 
 
>  <oscillator_strength_4> 
0.0005 
 
>  <open_babel_can_smiles> 
c1ccc2c(c1)scn2 
 
>  <mulliken_charges> 
14 
1   -0.148339 
2   -0.117126 
3   -0.139609 
4   -0.174024 
5   -0.117872 
6   0.265775 
7   -0.130372 
8   -0.408494 
9   0.219039 
10   0.136411 
11   0.135961 
12   0.147894 
13   0.145774 
14   0.18498 
 
>  <lowdin_charges> 
14 
1   -0.159035 
2   -0.153657 
3   -0.14812 
4   -0.157399 
5   -0.209428 
6   0.016121 
7   -0.149739 
8   -0.145762 
9   0.267024 
10   0.162329 
11   0.161837 
12   0.169709 
13   0.164563 
14   0.181558 
 
$$$$ 
 
