PCCDB-ID:  48556 
public computational chemistry database (PCCDB) project, http://pccdb.org 
 
 33 33  0  0  1  0  0  0  0  0999 V2000 
    1.1106   -1.9682   -1.3801 C   0  0  0  0  0  0  0  0  0  0  0  0 
    5.2979   -1.1084    4.5245 C   0  0  0  0  0  0  0  0  0  0  0  0 
    1.8982   -0.9731   -0.9732 C   0  0  0  0  0  0  0  0  0  0  0  0 
    6.1074   -1.8914    3.4845 C   0  0  0  0  0  0  0  0  0  0  0  0 
    2.7228   -1.0102    0.2861 C   0  0  0  0  0  0  0  0  0  0  0  0 
    5.0761   -0.8478    1.3834 C   0  0  0  0  0  0  0  0  0  0  0  0 
    5.4030   -2.1385    2.1415 C   0  0  2  0  0  0  0  0  0  0  0  0 
    4.6093    0.2899   -0.7854 C   0  0  0  0  0  0  0  0  0  0  0  0 
    4.6951   -2.1704   -0.8061 C   0  0  0  0  0  0  0  0  0  0  0  0 
    5.6925   -0.8848   -2.4687 C   0  0  0  0  0  0  0  0  0  0  0  0 
    4.2729   -0.9578    0.0326 C   0  0  2  0  0  0  0  0  0  0  0  0 
    5.2341    0.3322   -1.8906 N   0  0  0  0  0  0  0  0  0  0  0  0 
    5.3218   -2.1325   -1.9168 N   0  0  0  0  0  0  0  0  0  0  0  0 
    4.1628   -2.8636    2.3313 O   0  0  0  0  0  0  0  0  0  0  0  0 
    4.2201    1.4779   -0.2598 O   0  0  0  0  0  0  0  0  0  0  0  0 
    4.3515   -3.3789   -0.3326 O   0  0  0  0  0  0  0  0  0  0  0  0 
    6.4030   -0.8439   -3.4484 O   0  0  0  0  0  0  0  0  0  0  0  0 
    0.5356   -1.8992   -2.2990 H   0  0  0  0  0  0  0  0  0  0  0  0 
    1.0153   -2.8932   -0.8154 H   0  0  0  0  0  0  0  0  0  0  0  0 
    5.8264   -1.0919    5.4830 H   0  0  0  0  0  0  0  0  0  0  0  0 
    4.3162   -1.5653    4.6869 H   0  0  0  0  0  0  0  0  0  0  0  0 
    5.1389   -0.0673    4.2243 H   0  0  0  0  0  0  0  0  0  0  0  0 
    1.9724   -0.0671   -1.5744 H   0  0  0  0  0  0  0  0  0  0  0  0 
    6.3783   -2.8739    3.8987 H   0  0  0  0  0  0  0  0  0  0  0  0 
    7.0603   -1.3857    3.2814 H   0  0  0  0  0  0  0  0  0  0  0  0 
    2.4820   -1.8978    0.8747 H   0  0  0  0  0  0  0  0  0  0  0  0 
    2.4537   -0.1593    0.9316 H   0  0  0  0  0  0  0  0  0  0  0  0 
    6.0368   -0.3630    1.1750 H   0  0  0  0  0  0  0  0  0  0  0  0 
    4.5196   -0.1783    2.0496 H   0  0  0  0  0  0  0  0  0  0  0  0 
    6.0687   -2.7507    1.5175 H   0  0  0  0  0  0  0  0  0  0  0  0 
    4.3569   -3.6585    2.8559 H   0  0  0  0  0  0  0  0  0  0  0  0 
    3.7291    1.3365    0.5643 H   0  0  0  0  0  0  0  0  0  0  0  0 
    4.0273   -3.3051    0.5937 H   0  0  0  0  0  0  0  0  0  0  0  0 
  1  3  2  0  0  0  0 
  1 19  1  0  0  0  0 
  2 21  1  0  0  0  0 
  2 20  1  0  0  0  0 
  3  5  1  0  0  0  0 
  4 24  1  0  0  0  0 
  4  2  1  0  0  0  0 
  5 26  1  0  0  0  0 
  5 27  1  0  0  0  0 
  6 29  1  0  0  0  0 
  6  7  1  0  0  0  0 
  7 30  1  6  0  0  0 
  7 14  1  0  0  0  0 
  7  4  1  0  0  0  0 
  8 15  1  0  0  0  0 
  8 11  1  0  0  0  0 
  9 16  1  0  0  0  0 
  9 11  1  0  0  0  0 
 10 13  1  0  0  0  0 
 10 12  2  0  0  0  0 
 11  5  1  1  0  0  0 
 11  6  1  0  0  0  0 
 12  8  2  0  0  0  0 
 13  9  2  0  0  0  0 
 14 31  1  0  0  0  0 
 15 32  1  0  0  0  0 
 16 33  1  0  0  0  0 
 17 10  2  0  0  0  0 
 18  1  1  0  0  0  0 
 22  2  1  0  0  0  0 
 23  3  1  0  0  0  0 
 25  4  1  0  0  0  0 
 28  6  1  0  0  0  0 
M  END 
>  <HBA> 
6 
 
>  <HBD> 
3 
 
>  <TPSA> 
95.5 
 
>  <cid> 
48556 
 
>  <dipole> 
11.28 
 
>  <excitation_energy_1> 
3.997 
 
>  <excitation_energy_2> 
4.164 
 
>  <excitation_energy_3> 
5.19 
 
>  <excitation_energy_4> 
5.341 
 
>  <homo_energy> 
-6.637 
 
>  <homo_lumo_gap> 
5.374 
 
>  <logP> 
0.734 
 
>  <lumo_energy> 
-1.263 
 
>  <melting_point> 
138.27 
 
>  <molecular_refractivity> 
67.73 
 
>  <oscillator_strength_1> 
0.0001 
 
>  <oscillator_strength_2> 
0.0001 
 
>  <oscillator_strength_3> 
0.0021 
 
>  <oscillator_strength_4> 
0.0012 
 
>  <open_babel_can_smiles> 
C=CC[C@@]1(C[C@@H](CC)O)C(=N[C](=[N]=C1O)=O)O 
 
>  <mulliken_charges> 
33 
1   -0.324734 
2   -0.450682 
3   -0.052635 
4   -0.287541 
5   -0.341084 
6   -0.28795 
7   0.098324 
8   0.538796 
9   0.551696 
10   0.61426 
11   -0.142285 
12   -0.468981 
13   -0.475706 
14   -0.642241 
15   -0.582853 
16   -0.613838 
17   -0.43765 
18   0.15721 
19   0.14536 
20   0.160381 
21   0.15741 
22   0.153188 
23   0.157286 
24   0.140139 
25   0.158627 
26   0.17976 
27   0.132762 
28   0.182533 
29   0.14584 
30   0.163525 
31   0.413469 
32   0.414351 
33   0.443262 
 
>  <lowdin_charges> 
33 
1   -0.311831 
2   -0.448552 
3   -0.163814 
4   -0.286357 
5   -0.275914 
6   -0.282466 
7   -0.013769 
8   0.140765 
9   0.147714 
10   0.16767 
11   -0.057983 
12   -0.184524 
13   -0.188507 
14   -0.463318 
15   -0.336623 
16   -0.345183 
17   -0.21532 
18   0.168063 
19   0.158844 
20   0.160673 
21   0.154429 
22   0.150123 
23   0.164081 
24   0.146291 
25   0.159055 
26   0.167767 
27   0.14348 
28   0.173107 
29   0.153041 
30   0.15041 
31   0.358056 
32   0.355326 
33   0.355265 
 
$$$$ 
 
