PCCDB-ID:  9485 
public computational chemistry database (PCCDB) project, http://pccdb.org 
 
 33 32  0  0  0  0  0  0  0  0999 V2000 
    0.3926    1.4923   -0.4574 C   0  0  0  0  0  0  0  0  0  0  0  0 
    1.4611    1.4672   -2.7559 C   0  0  0  0  0  0  0  0  0  0  0  0 
    7.1065    2.2135   -0.4913 C   0  0  0  0  0  0  0  0  0  0  0  0 
    5.5257    1.8096    1.4410 C   0  0  0  0  0  0  0  0  0  0  0  0 
    2.7523    2.3193   -0.7086 C   0  0  0  0  0  0  0  0  0  0  0  0 
    4.8783    1.0155   -0.9078 C   0  0  0  0  0  0  0  0  0  0  0  0 
    1.6993    1.3214   -1.2470 C   0  0  0  0  0  0  0  0  0  0  0  0 
    6.0292    1.2864    0.0878 C   0  0  0  0  0  0  0  0  0  0  0  0 
    4.4255    2.8403   -2.4793 C   0  0  0  0  0  0  0  0  0  0  0  0 
    5.2307    2.2933   -3.3225 N   0  0  0  0  0  0  0  0  0  0  0  0 
    3.7810    4.0800   -2.6593 N   0  0  0  0  0  0  0  0  0  0  0  0 
    4.1010    2.2082   -1.2815 N   0  0  0  0  0  0  0  0  0  0  0  0 
   -0.3576    0.7599   -0.7767 H   0  0  0  0  0  0  0  0  0  0  0  0 
   -0.0347    2.4916   -0.6145 H   0  0  0  0  0  0  0  0  0  0  0  0 
    0.5488    1.3621    0.6207 H   0  0  0  0  0  0  0  0  0  0  0  0 
    0.7124    0.7424   -3.0977 H   0  0  0  0  0  0  0  0  0  0  0  0 
    2.3787    1.2970   -3.3273 H   0  0  0  0  0  0  0  0  0  0  0  0 
    1.0955    2.4717   -3.0012 H   0  0  0  0  0  0  0  0  0  0  0  0 
    7.9494    2.3085    0.2043 H   0  0  0  0  0  0  0  0  0  0  0  0 
    6.7031    3.2183   -0.6636 H   0  0  0  0  0  0  0  0  0  0  0  0 
    7.4831    1.8418   -1.4487 H   0  0  0  0  0  0  0  0  0  0  0  0 
    5.0489    2.7907    1.3271 H   0  0  0  0  0  0  0  0  0  0  0  0 
    6.3544    1.9257    2.1495 H   0  0  0  0  0  0  0  0  0  0  0  0 
    4.7943    1.1278    1.8933 H   0  0  0  0  0  0  0  0  0  0  0  0 
    2.8445    2.1840    0.3752 H   0  0  0  0  0  0  0  0  0  0  0  0 
    2.3755    3.3336   -0.8649 H   0  0  0  0  0  0  0  0  0  0  0  0 
    4.1904    0.2920   -0.4553 H   0  0  0  0  0  0  0  0  0  0  0  0 
    5.2791    0.5642   -1.8179 H   0  0  0  0  0  0  0  0  0  0  0  0 
    2.0718    0.3037   -1.0604 H   0  0  0  0  0  0  0  0  0  0  0  0 
    6.4919    0.3020    0.2609 H   0  0  0  0  0  0  0  0  0  0  0  0 
    5.4544    2.9402   -4.0803 H   0  0  0  0  0  0  0  0  0  0  0  0 
    4.1381    4.5920   -3.4568 H   0  0  0  0  0  0  0  0  0  0  0  0 
    3.7625    4.6639   -1.8296 H   0  0  0  0  0  0  0  0  0  0  0  0 
  1 15  1  0  0  0  0 
  2  7  1  0  0  0  0 
  3  8  1  0  0  0  0 
  3 19  1  0  0  0  0 
  4 24  1  0  0  0  0 
  4 23  1  0  0  0  0 
  5 25  1  0  0  0  0 
  6 27  1  0  0  0  0 
  6  8  1  0  0  0  0 
  7 29  1  0  0  0  0 
  7  5  1  0  0  0  0 
  7  1  1  0  0  0  0 
  8 30  1  0  0  0  0 
  8  4  1  0  0  0  0 
  9 12  1  0  0  0  0 
 10  9  1  0  0  0  0 
 11  9  2  0  0  0  0 
 11 33  1  0  0  0  0 
 12  6  1  0  0  0  0 
 12  5  1  0  0  0  0 
 13  1  1  0  0  0  0 
 14  1  1  0  0  0  0 
 16  2  1  0  0  0  0 
 17  2  1  0  0  0  0 
 18  2  1  0  0  0  0 
 20  3  1  0  0  0  0 
 21  3  1  0  0  0  0 
 22  4  1  0  0  0  0 
 26  5  1  0  0  0  0 
 28  6  1  0  0  0  0 
 31 10  1  0  0  0  0 
 32 11  1  0  0  0  0 
M  RAD  1  10   2 
M  END 
>  <HBA> 
3 
 
>  <HBD> 
2 
 
>  <TPSA> 
53.11 
 
>  <cid> 
9485 
 
>  <dipole> 
2.47 
 
>  <excitation_energy_1> 
4.85 
 
>  <excitation_energy_2> 
5.345 
 
>  <excitation_energy_3> 
5.553 
 
>  <excitation_energy_4> 
5.638 
 
>  <homo_energy> 
-5.562 
 
>  <homo_lumo_gap> 
6.955 
 
>  <logP> 
2.294 
 
>  <lumo_energy> 
1.393 
 
>  <melting_point> 
59.63 
 
>  <molecular_refractivity> 
54.57 
 
>  <oscillator_strength_1> 
0.0037 
 
>  <oscillator_strength_2> 
0.0083 
 
>  <oscillator_strength_3> 
0.0045 
 
>  <oscillator_strength_4> 
0.0094 
 
>  <open_babel_can_smiles> 
CC(CN(C(=[NH2])[NH])CC(C)C)C 
 
>  <mulliken_charges> 
33 
1   -0.446428 
2   -0.451038 
3   -0.437413 
4   -0.445545 
5   -0.144538 
6   -0.147634 
7   -0.072311 
8   -0.058165 
9   0.590464 
10   -0.65754 
11   -0.751601 
12   -0.434355 
13   0.14546 
14   0.139347 
15   0.138128 
16   0.134468 
17   0.170328 
18   0.143302 
19   0.129286 
20   0.134977 
21   0.160299 
22   0.142372 
23   0.139338 
24   0.132219 
25   0.142403 
26   0.139637 
27   0.129087 
28   0.188175 
29   0.128943 
30   0.118447 
31   0.260833 
32   0.317169 
33   0.321887 
 
>  <lowdin_charges> 
33 
1   -0.443605 
2   -0.450849 
3   -0.445164 
4   -0.450738 
5   -0.200558 
6   -0.204405 
7   -0.131383 
8   -0.122794 
9   0.129268 
10   -0.488336 
11   -0.51327 
12   -0.135455 
13   0.152598 
14   0.144795 
15   0.144301 
16   0.14718 
17   0.163208 
18   0.147932 
19   0.142915 
20   0.143605 
21   0.158687 
22   0.145355 
23   0.14864 
24   0.143871 
25   0.143091 
26   0.147113 
27   0.142278 
28   0.172586 
29   0.136676 
30   0.136418 
31   0.244665 
32   0.274854 
33   0.27652 
 
$$$$ 
 
