PCCDB-ID:  12062 
public computational chemistry database (PCCDB) project, http://pccdb.org 
 
 19 19  0  0  0  0  0  0  0  0999 V2000 
   -0.6404    1.2615   -0.0514 C   0  0  0  0  0  0  0  0  0  0  0  0 
   -0.6741   -1.1703    0.0076 C   0  0  0  0  0  0  0  0  0  0  0  0 
    1.4349    0.0159   -0.0948 C   0  0  0  0  0  0  0  0  0  0  0  0 
   -1.3447    0.0517   -0.0085 C   0  0  0  0  0  0  0  0  0  0  0  0 
    0.7640    1.2460   -0.0904 C   0  0  0  0  0  0  0  0  0  0  0  0 
    0.7286   -1.1954   -0.0471 C   0  0  0  0  0  0  0  0  0  0  0  0 
   -2.8435    0.0162    0.0461 C   0  0  0  0  0  0  0  0  0  0  0  0 
    1.4817    2.4409   -0.1748 N   0  0  0  0  0  0  0  0  0  0  0  0 
    1.4081   -2.4101   -0.1064 N   0  0  0  0  0  0  0  0  0  0  0  0 
   -3.4810   -0.8916    0.5250 O   0  0  0  0  0  0  0  0  0  0  0  0 
   -3.4878    1.0899   -0.4930 O   0  0  0  0  0  0  0  0  0  0  0  0 
   -1.1576    2.2165    0.0056 H   0  0  0  0  0  0  0  0  0  0  0  0 
   -1.2501   -2.0887    0.0550 H   0  0  0  0  0  0  0  0  0  0  0  0 
    2.5222    0.0008   -0.1447 H   0  0  0  0  0  0  0  0  0  0  0  0 
    1.0036    3.2539    0.1933 H   0  0  0  0  0  0  0  0  0  0  0  0 
    2.4366    2.3924    0.1582 H   0  0  0  0  0  0  0  0  0  0  0  0 
    0.9024   -3.2047    0.2641 H   0  0  0  0  0  0  0  0  0  0  0  0 
    2.3687   -2.3908    0.2112 H   0  0  0  0  0  0  0  0  0  0  0  0 
   -2.8464    1.6354   -0.9778 H   0  0  0  0  0  0  0  0  0  0  0  0 
  1  4  2  0  0  0  0 
  1 12  1  0  0  0  0 
  2 13  1  0  0  0  0 
  3  5  2  0  0  0  0 
  3  6  1  0  0  0  0 
  4  2  1  0  0  0  0 
  4  7  1  0  0  0  0 
  5  1  1  0  0  0  0 
  6  2  2  0  0  0  0 
  7 10  2  0  0  0  0 
  8  5  1  0  0  0  0 
  8 16  1  0  0  0  0 
  8 15  1  0  0  0  0 
  9  6  1  0  0  0  0 
  9 18  1  0  0  0  0 
  9 17  1  0  0  0  0 
 11  7  1  0  0  0  0 
 14  3  1  0  0  0  0 
 19 11  1  0  0  0  0 
M  END 
>  <HBA> 
4 
 
>  <HBD> 
3 
 
>  <TPSA> 
89.34 
 
>  <cid> 
12062 
 
>  <dipole> 
6.03 
 
>  <excitation_energy_1> 
3.932 
 
>  <excitation_energy_2> 
4.577 
 
>  <excitation_energy_3> 
4.715 
 
>  <excitation_energy_4> 
4.837 
 
>  <homo_energy> 
-5.595 
 
>  <homo_lumo_gap> 
4.661 
 
>  <logP> 
1.712 
 
>  <lumo_energy> 
-0.933 
 
>  <melting_point> 
194.96 
 
>  <molecular_refractivity> 
42.21 
 
>  <oscillator_strength_1> 
0.051 
 
>  <oscillator_strength_2> 
0.0408 
 
>  <oscillator_strength_3> 
0.0003 
 
>  <oscillator_strength_4> 
0.0007 
 
>  <open_babel_can_smiles> 
OC(=O)c1cc(N)cc(c1)N 
 
>  <mulliken_charges> 
19 
1   -0.263375 
2   -0.21622 
3   -0.219282 
4   0.047198 
5   0.3187 
6   0.321027 
7   0.543629 
8   -0.792372 
9   -0.792911 
10   -0.450707 
11   -0.577001 
12   0.11725 
13   0.147558 
14   0.111928 
15   0.322857 
16   0.322261 
17   0.328342 
18   0.321529 
19   0.409589 
 
>  <lowdin_charges> 
19 
1   -0.244362 
2   -0.203423 
3   -0.230847 
4   -0.036761 
5   0.0734 
6   0.074255 
7   0.197448 
8   -0.484603 
9   -0.48091 
10   -0.244305 
11   -0.362376 
12   0.150982 
13   0.172055 
14   0.149753 
15   0.278039 
16   0.275962 
17   0.281699 
18   0.275764 
19   0.358231 
 
$$$$ 
 
