PCCDB-ID:  14105 
public computational chemistry database (PCCDB) project, http://pccdb.org 
 
 28 29  0  0  0  0  0  0  0  0999 V2000 
    1.0177   -0.0090   -0.0827 C   0  0  0  0  0  0  0  0  0  0  0  0 
    2.5094    2.5588   -0.1344 C   0  0  0  0  0  0  0  0  0  0  0  0 
    6.8508   -2.4649   -0.3568 C   0  0  0  0  0  0  0  0  0  0  0  0 
    7.5254   -1.2827    0.3482 C   0  0  0  0  0  0  0  0  0  0  0  0 
    5.3722   -2.5512    0.0436 C   0  0  0  0  0  0  0  0  0  0  0  0 
    6.8777    0.0382   -0.0874 C   0  0  0  0  0  0  0  0  0  0  0  0 
    3.2530   -1.1762   -0.0369 C   0  0  0  0  0  0  0  0  0  0  0  0 
    4.6313    1.1966   -0.0905 C   0  0  0  0  0  0  0  0  0  0  0  0 
    2.5281    0.0147   -0.0712 C   0  0  0  0  0  0  0  0  0  0  0  0 
    3.2371    1.2357   -0.0984 C   0  0  0  0  0  0  0  0  0  0  0  0 
    4.6543   -1.2137   -0.0273 C   0  0  0  0  0  0  0  0  0  0  0  0 
    5.3584   -0.0011   -0.0576 C   0  0  0  0  0  0  0  0  0  0  0  0 
    0.6383   -1.0354   -0.0582 H   0  0  0  0  0  0  0  0  0  0  0  0 
    0.6084    0.4753   -0.9794 H   0  0  0  0  0  0  0  0  0  0  0  0 
    0.5942    0.5219    0.7804 H   0  0  0  0  0  0  0  0  0  0  0  0 
    3.2150    3.3954   -0.1517 H   0  0  0  0  0  0  0  0  0  0  0  0 
    1.8578    2.6908    0.7395 H   0  0  0  0  0  0  0  0  0  0  0  0 
    1.8665    2.6473   -1.0201 H   0  0  0  0  0  0  0  0  0  0  0  0 
    7.3586   -3.4063   -0.1137 H   0  0  0  0  0  0  0  0  0  0  0  0 
    6.9337   -2.3324   -1.4450 H   0  0  0  0  0  0  0  0  0  0  0  0 
    8.6004   -1.2599    0.1316 H   0  0  0  0  0  0  0  0  0  0  0  0 
    7.4239   -1.4050    1.4360 H   0  0  0  0  0  0  0  0  0  0  0  0 
    5.3057   -2.9374    1.0727 H   0  0  0  0  0  0  0  0  0  0  0  0 
    4.8490   -3.2850   -0.5833 H   0  0  0  0  0  0  0  0  0  0  0  0 
    7.2077    0.2742   -1.1111 H   0  0  0  0  0  0  0  0  0  0  0  0 
    7.2384    0.8648    0.5386 H   0  0  0  0  0  0  0  0  0  0  0  0 
    2.7071   -2.1189   -0.0170 H   0  0  0  0  0  0  0  0  0  0  0  0 
    5.1805    2.1375   -0.1107 H   0  0  0  0  0  0  0  0  0  0  0  0 
  1  9  1  0  0  0  0 
  1 13  1  0  0  0  0 
  1 15  1  0  0  0  0 
  2 10  1  0  0  0  0 
  2 17  1  0  0  0  0 
  3 19  1  0  0  0  0 
  3  5  1  0  0  0  0 
  3  4  1  0  0  0  0 
  4 22  1  0  0  0  0 
  5 23  1  0  0  0  0 
  6 12  1  0  0  0  0 
  6  4  1  0  0  0  0 
  6 26  1  0  0  0  0 
  7 11  1  0  0  0  0 
  7 27  1  0  0  0  0 
  8 12  1  0  0  0  0 
  9  7  2  0  0  0  0 
 10  8  2  0  0  0  0 
 10  9  1  0  0  0  0 
 11  5  1  0  0  0  0 
 12 11  2  0  0  0  0 
 14  1  1  0  0  0  0 
 16  2  1  0  0  0  0 
 18  2  1  0  0  0  0 
 20  3  1  0  0  0  0 
 21  4  1  0  0  0  0 
 24  5  1  0  0  0  0 
 25  6  1  0  0  0  0 
 28  8  1  0  0  0  0 
M  END 
>  <HBA> 
0 
 
>  <HBD> 
0 
 
>  <TPSA> 
0.0 
 
>  <cid> 
14105 
 
>  <dipole> 
0.02 
 
>  <excitation_energy_1> 
4.988 
 
>  <excitation_energy_2> 
5.458 
 
>  <excitation_energy_3> 
5.647 
 
>  <excitation_energy_4> 
5.751 
 
>  <homo_energy> 
-5.856 
 
>  <homo_lumo_gap> 
6.166 
 
>  <logP> 
3.182 
 
>  <lumo_energy> 
0.31 
 
>  <melting_point> 
42.92 
 
>  <molecular_refractivity> 
53.81 
 
>  <oscillator_strength_1> 
0.0171 
 
>  <oscillator_strength_2> 
0.0157 
 
>  <oscillator_strength_3> 
0.001 
 
>  <oscillator_strength_4> 
0.0051 
 
>  <open_babel_can_smiles> 
Cc1cc2CCCCc2cc1C 
 
>  <mulliken_charges> 
28 
1   -0.534455 
2   -0.534151 
3   -0.264903 
4   -0.264984 
5   -0.340533 
6   -0.340477 
7   -0.257723 
8   -0.257627 
9   0.140052 
10   0.140155 
11   0.128417 
12   0.12793 
13   0.152941 
14   0.15631 
15   0.156291 
16   0.152893 
17   0.156264 
18   0.1563 
19   0.130799 
20   0.135471 
21   0.130821 
22   0.135442 
23   0.147217 
24   0.14184 
25   0.147313 
26   0.14187 
27   0.10827 
28   0.108257 
 
>  <lowdin_charges> 
28 
1   -0.442094 
2   -0.442208 
3   -0.274146 
4   -0.272101 
5   -0.276469 
6   -0.276377 
7   -0.175995 
8   -0.175958 
9   -0.010926 
10   -0.012095 
11   -0.020173 
12   -0.019531 
13   0.154879 
14   0.156928 
15   0.157178 
16   0.156204 
17   0.15682 
18   0.156798 
19   0.144199 
20   0.13876 
21   0.142343 
22   0.138728 
23   0.148234 
24   0.151365 
25   0.148383 
26   0.150913 
27   0.148158 
28   0.148182 
 
$$$$ 
 
