PCCDB-ID:  28281 
public computational chemistry database (PCCDB) project, http://pccdb.org 
 
 35 34  0  0  1  0  0  0  0  0999 V2000 
    2.1924   -3.7667    0.0628 C   0  0  0  0  0  0  0  0  0  0  0  0 
    0.2323   -2.6026    1.1504 C   0  0  0  0  0  0  0  0  0  0  0  0 
    4.5612   -1.2917   -3.5610 C   0  0  0  0  0  0  0  0  0  0  0  0 
    6.0499   -1.6573   -3.6924 C   0  0  0  0  0  0  0  0  0  0  0  0 
    4.0868   -1.3051   -2.1027 C   0  0  0  0  0  0  0  0  0  0  0  0 
    2.4112   -2.8416    2.3824 C   0  0  0  0  0  0  0  0  0  0  0  0 
    6.5960   -1.5507   -5.1118 C   0  0  0  0  0  0  0  0  0  0  0  0 
    2.2550   -1.2211    0.4625 C   0  0  1  0  0  0  0  0  0  0  0  0 
    1.9540   -0.9490   -1.0136 C   0  0  0  0  0  0  0  0  0  0  0  0 
    1.7635   -2.6135    0.9873 C   0  0  0  0  0  0  0  0  0  0  0  0 
    2.6720   -0.9750   -2.0593 N   0  0  0  0  0  0  0  0  0  0  0  0 
    2.3102   -1.7256    3.2486 O   0  0  0  0  0  0  0  0  0  0  0  0 
    7.5488   -0.8846   -5.4259 O   0  0  0  0  0  0  0  0  0  0  0  0 
    5.9360   -2.2795   -6.0569 O   0  0  0  0  0  0  0  0  0  0  0  0 
    3.6297   -0.9720    0.7705 O   0  0  0  0  0  0  0  0  0  0  0  0 
    0.6443   -0.5983   -1.1535 O   0  0  0  0  0  0  0  0  0  0  0  0 
    1.7076   -3.7022   -0.9170 H   0  0  0  0  0  0  0  0  0  0  0  0 
    3.2791   -3.7913   -0.0984 H   0  0  0  0  0  0  0  0  0  0  0  0 
    1.9172   -4.7307    0.5067 H   0  0  0  0  0  0  0  0  0  0  0  0 
   -0.1132   -3.5893    1.4812 H   0  0  0  0  0  0  0  0  0  0  0  0 
   -0.2781   -2.3548    0.2169 H   0  0  0  0  0  0  0  0  0  0  0  0 
   -0.0617   -1.8712    1.9104 H   0  0  0  0  0  0  0  0  0  0  0  0 
    3.9271   -1.9861   -4.1300 H   0  0  0  0  0  0  0  0  0  0  0  0 
    4.3789   -0.2952   -3.9797 H   0  0  0  0  0  0  0  0  0  0  0  0 
    6.2151   -2.6846   -3.3335 H   0  0  0  0  0  0  0  0  0  0  0  0 
    6.6649   -0.9967   -3.0753 H   0  0  0  0  0  0  0  0  0  0  0  0 
    4.6756   -0.5816   -1.5244 H   0  0  0  0  0  0  0  0  0  0  0  0 
    4.2913   -2.3042   -1.6815 H   0  0  0  0  0  0  0  0  0  0  0  0 
    3.4609   -3.1528    2.2655 H   0  0  0  0  0  0  0  0  0  0  0  0 
    1.8874   -3.6679    2.8757 H   0  0  0  0  0  0  0  0  0  0  0  0 
    1.7125   -0.4576    1.0263 H   0  0  0  0  0  0  0  0  0  0  0  0 
    2.9613   -1.0818    2.9222 H   0  0  0  0  0  0  0  0  0  0  0  0 
    5.1922   -2.7560   -5.6532 H   0  0  0  0  0  0  0  0  0  0  0  0 
    4.1591   -1.7207    0.4565 H   0  0  0  0  0  0  0  0  0  0  0  0 
    0.5216   -0.4418   -2.1095 H   0  0  0  0  0  0  0  0  0  0  0  0 
  1 19  1  0  0  0  0 
  1 10  1  0  0  0  0 
  2 20  1  0  0  0  0 
  2 22  1  0  0  0  0 
  3  5  1  0  0  0  0 
  4  3  1  0  0  0  0 
  4 25  1  0  0  0  0 
  4 26  1  0  0  0  0 
  5 11  1  0  0  0  0 
  5 28  1  0  0  0  0 
  5 27  1  0  0  0  0 
  6 30  1  0  0  0  0 
  6 12  1  0  0  0  0 
  7  4  1  0  0  0  0 
  8 15  1  0  0  0  0 
  8 10  1  0  0  0  0 
  8 31  1  1  0  0  0 
  9  8  1  0  0  0  0 
 10  2  1  0  0  0  0 
 10  6  1  0  0  0  0 
 11  9  2  0  0  0  0 
 13  7  2  0  0  0  0 
 14 33  1  0  0  0  0 
 14  7  1  0  0  0  0 
 16  9  1  0  0  0  0 
 17  1  1  0  0  0  0 
 18  1  1  0  0  0  0 
 21  2  1  0  0  0  0 
 23  3  1  0  0  0  0 
 24  3  1  0  0  0  0 
 29  6  1  0  0  0  0 
 32 12  1  0  0  0  0 
 34 15  1  0  0  0  0 
 35 16  1  0  0  0  0 
M  END 
>  <HBA> 
6 
 
>  <HBD> 
4 
 
>  <TPSA> 
106.86 
 
>  <cid> 
28281 
 
>  <dipole> 
4.21 
 
>  <excitation_energy_1> 
5.577 
 
>  <excitation_energy_2> 
5.616 
 
>  <excitation_energy_3> 
6.014 
 
>  <excitation_energy_4> 
6.214 
 
>  <homo_energy> 
-7.083 
 
>  <homo_lumo_gap> 
7.059 
 
>  <logP> 
-0.262 
 
>  <lumo_energy> 
-0.024 
 
>  <melting_point> 
152.43 
 
>  <molecular_refractivity> 
57.02 
 
>  <oscillator_strength_1> 
0.0012 
 
>  <oscillator_strength_2> 
0.0021 
 
>  <oscillator_strength_3> 
0.0098 
 
>  <oscillator_strength_4> 
0.0132 
 
>  <open_babel_can_smiles> 
OCC([C@H](/C(=N\CCCC(=O)O)/O)O)(C)C 
 
>  <mulliken_charges> 
35 
1   -0.476754 
2   -0.464998 
3   -0.275309 
4   -0.388958 
5   -0.151288 
6   -0.026265 
7   0.594514 
8   0.052013 
9   0.518847 
10   0.048581 
11   -0.494964 
12   -0.624867 
13   -0.434826 
14   -0.564271 
15   -0.634584 
16   -0.590281 
17   0.162746 
18   0.124074 
19   0.157277 
20   0.138572 
21   0.16839 
22   0.167146 
23   0.129931 
24   0.172551 
25   0.159034 
26   0.181031 
27   0.1688 
28   0.118354 
29   0.108994 
30   0.146805 
31   0.18124 
32   0.410047 
33   0.409022 
34   0.403073 
35   0.406322 
 
>  <lowdin_charges> 
35 
1   -0.447981 
2   -0.450306 
3   -0.281284 
4   -0.320048 
5   -0.205454 
6   -0.139109 
7   0.192407 
8   -0.03 
9   0.130918 
10   -0.021427 
11   -0.242564 
12   -0.465251 
13   -0.234802 
14   -0.360644 
15   -0.449336 
16   -0.364422 
17   0.15836 
18   0.134102 
19   0.158353 
20   0.148288 
21   0.161126 
22   0.162774 
23   0.139924 
24   0.160555 
25   0.158278 
26   0.174736 
27   0.155219 
28   0.125358 
29   0.120641 
30   0.150879 
31   0.174061 
32   0.348672 
33   0.356794 
34   0.345835 
35   0.355349 
 
$$$$ 
 
