PCCDB-ID:  21644 
public computational chemistry database (PCCDB) project, http://pccdb.org 
 
 26 26  0  0  0  0  0  0  0  0999 V2000 
    0.9027    0.7565   -1.3397 C   0  0  0  0  0  0  0  0  0  0  0  0 
    2.4297    0.7967   -1.2200 C   0  0  0  0  0  0  0  0  0  0  0  0 
    5.5328    4.4018    0.6653 C   0  0  0  0  0  0  0  0  0  0  0  0 
    4.7683    3.5906    1.7234 C   0  0  0  0  0  0  0  0  0  0  0  0 
    5.0478    4.0430   -0.7485 C   0  0  0  0  0  0  0  0  0  0  0  0 
    2.9055    1.7499   -0.1153 C   0  0  0  0  0  0  0  0  0  0  0  0 
    4.8320    2.0875    1.3905 C   0  0  0  0  0  0  0  0  0  0  0  0 
    5.0916    2.5170   -0.9672 C   0  0  0  0  0  0  0  0  0  0  0  0 
    4.3623    1.7429    0.0449 N   0  0  0  0  0  0  0  0  0  0  0  0 
    0.5838    0.0640   -2.1265 H   0  0  0  0  0  0  0  0  0  0  0  0 
    0.4940    1.7453   -1.5825 H   0  0  0  0  0  0  0  0  0  0  0  0 
    0.4379    0.4291   -0.4012 H   0  0  0  0  0  0  0  0  0  0  0  0 
    2.8590    1.0965   -2.1849 H   0  0  0  0  0  0  0  0  0  0  0  0 
    2.8235   -0.2039   -1.0037 H   0  0  0  0  0  0  0  0  0  0  0  0 
    6.6062    4.1715    0.7455 H   0  0  0  0  0  0  0  0  0  0  0  0 
    5.4303    5.4788    0.8497 H   0  0  0  0  0  0  0  0  0  0  0  0 
    3.7195    3.9178    1.7577 H   0  0  0  0  0  0  0  0  0  0  0  0 
    5.1870    3.7678    2.7230 H   0  0  0  0  0  0  0  0  0  0  0  0 
    5.6641    4.5420   -1.5080 H   0  0  0  0  0  0  0  0  0  0  0  0 
    4.0213    4.4096   -0.8886 H   0  0  0  0  0  0  0  0  0  0  0  0 
    2.4698    1.4182    0.8358 H   0  0  0  0  0  0  0  0  0  0  0  0 
    2.4893    2.7581   -0.3037 H   0  0  0  0  0  0  0  0  0  0  0  0 
    4.2583    1.5023    2.1190 H   0  0  0  0  0  0  0  0  0  0  0  0 
    5.8783    1.7538    1.4692 H   0  0  0  0  0  0  0  0  0  0  0  0 
    6.1405    2.1855   -0.9440 H   0  0  0  0  0  0  0  0  0  0  0  0 
    4.7055    2.2586   -1.9590 H   0  0  0  0  0  0  0  0  0  0  0  0 
  1  2  1  0  0  0  0 
  1 12  1  0  0  0  0 
  2 14  1  0  0  0  0 
  2  6  1  0  0  0  0 
  3 15  1  0  0  0  0 
  3 16  1  0  0  0  0 
  3  4  1  0  0  0  0 
  4 17  1  0  0  0  0 
  4 18  1  0  0  0  0 
  5  3  1  0  0  0  0 
  6  9  1  0  0  0  0 
  6 21  1  0  0  0  0 
  7 24  1  0  0  0  0 
  7  4  1  0  0  0  0 
  7 23  1  0  0  0  0 
  8 25  1  0  0  0  0 
  8  5  1  0  0  0  0 
  8  9  1  0  0  0  0 
  9  7  1  0  0  0  0 
 10  1  1  0  0  0  0 
 11  1  1  0  0  0  0 
 13  2  1  0  0  0  0 
 19  5  1  0  0  0  0 
 20  5  1  0  0  0  0 
 22  6  1  0  0  0  0 
 26  8  1  0  0  0  0 
M  END 
>  <HBA> 
1 
 
>  <HBD> 
0 
 
>  <TPSA> 
3.24 
 
>  <cid> 
21644 
 
>  <dipole> 
0.7 
 
>  <excitation_energy_1> 
4.828 
 
>  <excitation_energy_2> 
5.202 
 
>  <excitation_energy_3> 
5.245 
 
>  <excitation_energy_4> 
5.381 
 
>  <homo_energy> 
-5.268 
 
>  <homo_lumo_gap> 
7.442 
 
>  <logP> 
1.82 
 
>  <lumo_energy> 
2.174 
 
>  <melting_point> 
-2.68 
 
>  <molecular_refractivity> 
45.27 
 
>  <oscillator_strength_1> 
0.0162 
 
>  <oscillator_strength_2> 
0.0043 
 
>  <oscillator_strength_3> 
0.0088 
 
>  <oscillator_strength_4> 
0.0011 
 
>  <open_babel_can_smiles> 
CCCN1CCCCC1 
 
>  <mulliken_charges> 
26 
1   -0.447974 
2   -0.247692 
3   -0.257139 
4   -0.262806 
5   -0.265177 
6   -0.114696 
7   -0.141443 
8   -0.144974 
9   -0.374817 
10   0.144478 
11   0.140971 
12   0.140886 
13   0.133035 
14   0.142392 
15   0.126405 
16   0.130975 
17   0.132303 
18   0.127721 
19   0.12832 
20   0.1333 
21   0.129246 
22   0.112021 
23   0.133721 
24   0.131016 
25   0.132748 
26   0.137179 
 
>  <lowdin_charges> 
26 
1   -0.446724 
2   -0.277462 
3   -0.274664 
4   -0.293395 
5   -0.295783 
6   -0.200998 
7   -0.204717 
8   -0.204483 
9   -0.189825 
10   0.152054 
11   0.145387 
12   0.145908 
13   0.139317 
14   0.145655 
15   0.134654 
16   0.140896 
17   0.138041 
18   0.143037 
19   0.145408 
20   0.138311 
21   0.141499 
22   0.116036 
23   0.144217 
24   0.13591 
25   0.137617 
26   0.144104 
 
$$$$ 
 
