PCCDB-ID:  30199 
public computational chemistry database (PCCDB) project, http://pccdb.org 
 
 21 22  0  0  1  0  0  0  0  0999 V2000 
    0.9458   -0.1290    0.5297 C   0  0  0  0  0  0  0  0  0  0  0  0 
    4.9709   -1.0735    4.1457 C   0  0  0  0  0  0  0  0  0  0  0  0 
    4.7725   -2.2735    3.4531 C   0  0  0  0  0  0  0  0  0  0  0  0 
    4.5839    0.1278    3.5579 C   0  0  0  0  0  0  0  0  0  0  0  0 
    4.1699   -2.2824    2.1975 C   0  0  0  0  0  0  0  0  0  0  0  0 
    2.3782    0.0784    0.0401 C   0  0  1  0  0  0  0  0  0  0  0  0 
    3.9967    0.1448    2.2857 C   0  0  0  0  0  0  0  0  0  0  0  0 
    3.7651   -1.0753    1.6199 C   0  0  0  0  0  0  0  0  0  0  0  0 
    3.6172    1.3547    1.5353 C   0  0  0  0  0  0  0  0  0  0  0  0 
    2.9078    1.3411    0.4767 N   0  0  0  0  0  0  0  0  0  0  0  0 
    4.0486    2.5643    1.9838 O   0  0  0  0  0  0  0  0  0  0  0  0 
    3.1867   -1.0940    0.3983 O   0  0  0  0  0  0  0  0  0  0  0  0 
    0.3171    0.6972    0.1842 H   0  0  0  0  0  0  0  0  0  0  0  0 
    0.9141   -0.1505    1.6244 H   0  0  0  0  0  0  0  0  0  0  0  0 
    0.5453   -1.0712    0.1429 H   0  0  0  0  0  0  0  0  0  0  0  0 
    5.4190   -1.0776    5.1344 H   0  0  0  0  0  0  0  0  0  0  0  0 
    5.0773   -3.2142    3.9035 H   0  0  0  0  0  0  0  0  0  0  0  0 
    4.7186    1.0561    4.1097 H   0  0  0  0  0  0  0  0  0  0  0  0 
    3.9951   -3.2060    1.6553 H   0  0  0  0  0  0  0  0  0  0  0  0 
    2.4072    0.0565   -1.0524 H   0  0  0  0  0  0  0  0  0  0  0  0 
    4.7760    2.4283    2.6101 H   0  0  0  0  0  0  0  0  0  0  0  0 
  1 14  1  0  0  0  0 
  2 16  1  0  0  0  0 
  3 17  1  0  0  0  0 
  3  2  2  0  0  0  0 
  4 18  1  0  0  0  0 
  4  2  1  0  0  0  0 
  5  3  1  0  0  0  0 
  6 20  1  6  0  0  0 
  6 12  1  0  0  0  0 
  6 10  1  0  0  0  0 
  6  1  1  0  0  0  0 
  7  4  2  0  0  0  0 
  8  5  2  0  0  0  0 
  8  7  1  0  0  0  0 
  9 11  1  0  0  0  0 
  9  7  1  0  0  0  0 
 10  9  2  0  0  0  0 
 11 21  1  0  0  0  0 
 12  8  1  0  0  0  0 
 13  1  1  0  0  0  0 
 15  1  1  0  0  0  0 
 19  5  1  0  0  0  0 
M  END 
>  <HBA> 
3 
 
>  <HBD> 
1 
 
>  <TPSA> 
38.33 
 
>  <cid> 
30199 
 
>  <dipole> 
3.08 
 
>  <excitation_energy_1> 
4.077 
 
>  <excitation_energy_2> 
4.822 
 
>  <excitation_energy_3> 
4.965 
 
>  <excitation_energy_4> 
5.336 
 
>  <homo_energy> 
-6.019 
 
>  <homo_lumo_gap> 
4.819 
 
>  <logP> 
1.484 
 
>  <lumo_energy> 
-1.2 
 
>  <melting_point> 
94.08 
 
>  <molecular_refractivity> 
47.73 
 
>  <oscillator_strength_1> 
0.0595 
 
>  <oscillator_strength_2> 
0.0026 
 
>  <oscillator_strength_3> 
0.0044 
 
>  <oscillator_strength_4> 
0.0283 
 
>  <open_babel_can_smiles> 
C[C@@H]1Oc2ccccc2C(=N1)O 
 
>  <mulliken_charges> 
21 
1   -0.442436 
2   -0.135258 
3   -0.129437 
4   -0.223742 
5   -0.17736 
6   0.202863 
7   0.074559 
8   0.338915 
9   0.463217 
10   -0.440325 
11   -0.594339 
12   -0.534958 
13   0.167499 
14   0.154562 
15   0.155619 
16   0.13529 
17   0.140501 
18   0.129694 
19   0.146631 
20   0.156062 
21   0.412443 
 
>  <lowdin_charges> 
21 
1   -0.456923 
2   -0.174512 
3   -0.133204 
4   -0.157107 
5   -0.183755 
6   0.065355 
7   -0.091818 
8   0.117095 
9   0.131992 
10   -0.202734 
11   -0.355285 
12   -0.205114 
13   0.168361 
14   0.155692 
15   0.158928 
16   0.161141 
17   0.164115 
18   0.155397 
19   0.171675 
20   0.152185 
21   0.358515 
 
$$$$ 
 
