PCCDB-ID:  33428 
public computational chemistry database (PCCDB) project, http://pccdb.org 
 
 40 40  0  0  1  0  0  0  0  0999 V2000 
    4.7359   -2.4912    0.1631 C   0  0  0  0  0  0  0  0  0  0  0  0 
    8.6137    3.1530    2.7047 C   0  0  0  0  0  0  0  0  0  0  0  0 
   11.4509    2.8998   -4.5316 C   0  0  0  0  0  0  0  0  0  0  0  0 
    4.4736   -1.6825   -1.1116 C   0  0  0  0  0  0  0  0  0  0  0  0 
    8.2221    3.9200    1.4371 C   0  0  0  0  0  0  0  0  0  0  0  0 
   10.9430    1.5851   -3.9230 C   0  0  0  0  0  0  0  0  0  0  0  0 
    4.9574   -0.2302   -1.0116 C   0  0  0  0  0  0  0  0  0  0  0  0 
    4.6906    0.5808   -2.2857 C   0  0  0  0  0  0  0  0  0  0  0  0 
    5.1224    2.0603   -2.1902 C   0  0  0  0  0  0  0  0  0  0  0  0 
    6.6033    2.2587   -1.9763 C   0  0  1  0  0  0  0  0  0  0  0  0 
    8.4153    2.9512   -0.7108 C   0  0  0  0  0  0  0  0  0  0  0  0 
    8.8205    1.9391   -2.9443 C   0  0  0  0  0  0  0  0  0  0  0  0 
    9.0052    3.4552    0.3020 N   0  0  0  0  0  0  0  0  0  0  0  0 
    9.4904    1.4970   -3.9376 N   0  0  0  0  0  0  0  0  0  0  0  0 
    7.0373    2.7880   -0.8769 N   0  0  0  0  0  0  0  0  0  0  0  0 
    7.4219    1.8448   -2.9945 N   0  0  0  0  0  0  0  0  0  0  0  0 
    9.2483    2.5210   -1.7715 N   0  0  0  0  0  0  0  0  0  0  0  0 
    4.3879   -3.5249    0.0587 H   0  0  0  0  0  0  0  0  0  0  0  0 
    4.2201   -2.0508    1.0251 H   0  0  0  0  0  0  0  0  0  0  0  0 
    5.8066   -2.5215    0.3992 H   0  0  0  0  0  0  0  0  0  0  0  0 
    8.0846    3.5531    3.5780 H   0  0  0  0  0  0  0  0  0  0  0  0 
    9.6912    3.2287    2.8858 H   0  0  0  0  0  0  0  0  0  0  0  0 
    8.3610    2.0910    2.6087 H   0  0  0  0  0  0  0  0  0  0  0  0 
   12.5459    2.9081   -4.5816 H   0  0  0  0  0  0  0  0  0  0  0  0 
   11.1296    3.7645   -3.9393 H   0  0  0  0  0  0  0  0  0  0  0  0 
   11.0566    3.0239   -5.5454 H   0  0  0  0  0  0  0  0  0  0  0  0 
    3.3977   -1.6924   -1.3372 H   0  0  0  0  0  0  0  0  0  0  0  0 
    4.9675   -2.1717   -1.9633 H   0  0  0  0  0  0  0  0  0  0  0  0 
    8.4546    4.9846    1.5827 H   0  0  0  0  0  0  0  0  0  0  0  0 
    7.1418    3.8383    1.2644 H   0  0  0  0  0  0  0  0  0  0  0  0 
   11.3709    1.4543   -2.9129 H   0  0  0  0  0  0  0  0  0  0  0  0 
   11.3253    0.7473   -4.5180 H   0  0  0  0  0  0  0  0  0  0  0  0 
    6.0323   -0.2207   -0.7841 H   0  0  0  0  0  0  0  0  0  0  0  0 
    4.4654    0.2628   -0.1609 H   0  0  0  0  0  0  0  0  0  0  0  0 
    3.6170    0.5597   -2.5149 H   0  0  0  0  0  0  0  0  0  0  0  0 
    5.1882    0.0974   -3.1392 H   0  0  0  0  0  0  0  0  0  0  0  0 
    4.6164    2.5487   -1.3535 H   0  0  0  0  0  0  0  0  0  0  0  0 
    4.8258    2.5850   -3.1093 H   0  0  0  0  0  0  0  0  0  0  0  0 
    7.0559    1.4240   -3.8379 H   0  0  0  0  0  0  0  0  0  0  0  0 
   10.2372    2.6586   -1.6153 H   0  0  0  0  0  0  0  0  0  0  0  0 
  1 20  1  0  0  0  0 
  1 19  1  0  0  0  0 
  2 22  1  0  0  0  0 
  2 21  1  0  0  0  0 
  3 25  1  0  0  0  0 
  3  6  1  0  0  0  0 
  4  7  1  0  0  0  0 
  4  1  1  0  0  0  0 
  5 29  1  0  0  0  0 
  5  2  1  0  0  0  0 
  6 31  1  0  0  0  0 
  7 33  1  0  0  0  0 
  7 34  1  0  0  0  0 
  8  9  1  0  0  0  0 
  8  7  1  0  0  0  0 
  9 37  1  0  0  0  0 
 10  9  1  1  0  0  0 
 10 15  1  0  0  0  0 
 11 13  1  0  0  0  0 
 12 17  1  0  0  0  0 
 13  5  1  0  0  0  0 
 14  6  1  0  0  0  0 
 14 12  2  0  0  0  0 
 15 11  2  0  0  0  0 
 16 12  1  0  0  0  0 
 16 10  1  0  0  0  0 
 17 40  1  0  0  0  0 
 17 11  1  0  0  0  0 
 18  1  1  0  0  0  0 
 23  2  1  0  0  0  0 
 24  3  1  0  0  0  0 
 26  3  1  0  0  0  0 
 27  4  1  0  0  0  0 
 28  4  1  0  0  0  0 
 30  5  1  0  0  0  0 
 32  6  1  0  0  0  0 
 35  8  1  0  0  0  0 
 36  8  1  0  0  0  0 
 38  9  1  0  0  0  0 
 39 16  1  0  0  0  0 
M  RAD  2  10   2  13   2 
M  END 
>  <HBA> 
5 
 
>  <HBD> 
2 
 
>  <TPSA> 
62.73 
 
>  <cid> 
33428 
 
>  <dipole> 
2.81 
 
>  <excitation_energy_1> 
4.662 
 
>  <excitation_energy_2> 
4.757 
 
>  <excitation_energy_3> 
4.84 
 
>  <excitation_energy_4> 
5.396 
 
>  <homo_energy> 
-5.962 
 
>  <homo_lumo_gap> 
5.325 
 
>  <logP> 
2.614 
 
>  <lumo_energy> 
-0.637 
 
>  <melting_point> 
120.8 
 
>  <molecular_refractivity> 
72.25 
 
>  <oscillator_strength_1> 
0.0472 
 
>  <oscillator_strength_2> 
0.0189 
 
>  <oscillator_strength_3> 
0.1148 
 
>  <oscillator_strength_4> 
0.0002 
 
>  <open_babel_can_smiles> 
CCCCC[C]1N/C(=N/CC)/NC(=N1)[N]CC 
 
>  <mulliken_charges> 
40 
1   -0.442564 
2   -0.43306 
3   -0.439586 
4   -0.24999 
5   -0.138037 
6   -0.157632 
7   -0.246391 
8   -0.270177 
9   -0.352266 
10   0.532008 
11   0.655612 
12   0.749974 
13   -0.501632 
14   -0.498076 
15   -0.524468 
16   -0.677255 
17   -0.714928 
18   0.144058 
19   0.144499 
20   0.145774 
21   0.132681 
22   0.149026 
23   0.141978 
24   0.142592 
25   0.145099 
26   0.159116 
27   0.131442 
28   0.132122 
29   0.133669 
30   0.149807 
31   0.114207 
32   0.149476 
33   0.144221 
34   0.138919 
35   0.146133 
36   0.129685 
37   0.181163 
38   0.156898 
39   0.348029 
40   0.347873 
 
>  <lowdin_charges> 
40 
1   -0.441926 
2   -0.443488 
3   -0.448656 
4   -0.271079 
5   -0.193725 
6   -0.198226 
7   -0.276131 
8   -0.271578 
9   -0.285592 
10   0.121925 
11   0.116803 
12   0.136099 
13   -0.239036 
14   -0.273701 
15   -0.227515 
16   -0.228301 
17   -0.253877 
18   0.149613 
19   0.148719 
20   0.147076 
21   0.146459 
22   0.14917 
23   0.145604 
24   0.149044 
25   0.14811 
26   0.155617 
27   0.137308 
28   0.140343 
29   0.138778 
30   0.139301 
31   0.119989 
32   0.149926 
33   0.144039 
34   0.145277 
35   0.14781 
36   0.137968 
37   0.17466 
38   0.160373 
39   0.303234 
40   0.299584 
 
$$$$ 
 
