PCCDB-ID:  20009 
public computational chemistry database (PCCDB) project, http://pccdb.org 
 
 23 23  0  0  0  0  0  0  0  0999 V2000 
    2.3991   -1.1626   -3.3670 C   0  0  0  0  0  0  0  0  0  0  0  0 
    3.2944   -2.1162   -2.5898 C   0  0  0  0  0  0  0  0  0  0  0  0 
    5.3186   -0.2041   -0.1320 C   0  0  0  0  0  0  0  0  0  0  0  0 
    5.0199    0.5170    1.1811 C   0  0  0  0  0  0  0  0  0  0  0  0 
    6.0971    2.1445    2.7071 C   0  0  0  0  0  0  0  0  0  0  0  0 
    6.6054    2.4218    1.3341 C   0  0  0  0  0  0  0  0  0  0  0  0 
    4.0965   -0.8850   -0.7124 C   0  0  0  0  0  0  0  0  0  0  0  0 
    6.2548    1.0609    1.7416 N   0  0  0  0  0  0  0  0  0  0  0  0 
    3.0158   -0.9671   -0.1663 O   0  0  0  0  0  0  0  0  0  0  0  0 
    4.3716   -1.4094   -1.9285 O   0  0  0  0  0  0  0  0  0  0  0  0 
    1.6346   -1.7295   -3.9110 H   0  0  0  0  0  0  0  0  0  0  0  0 
    2.9811   -0.5860   -4.0935 H   0  0  0  0  0  0  0  0  0  0  0  0 
    1.8935   -0.4707   -2.6876 H   0  0  0  0  0  0  0  0  0  0  0  0 
    3.8024   -2.8194   -3.2546 H   0  0  0  0  0  0  0  0  0  0  0  0 
    2.7246   -2.6713   -1.8406 H   0  0  0  0  0  0  0  0  0  0  0  0 
    6.0978   -0.9602    0.0264 H   0  0  0  0  0  0  0  0  0  0  0  0 
    5.7229    0.4878   -0.8812 H   0  0  0  0  0  0  0  0  0  0  0  0 
    4.5985   -0.1914    1.9017 H   0  0  0  0  0  0  0  0  0  0  0  0 
    4.2528    1.2946    1.0143 H   0  0  0  0  0  0  0  0  0  0  0  0 
    5.0855    2.4804    2.9392 H   0  0  0  0  0  0  0  0  0  0  0  0 
    6.7751    2.1227    3.5576 H   0  0  0  0  0  0  0  0  0  0  0  0 
    7.6628    2.6084    1.1593 H   0  0  0  0  0  0  0  0  0  0  0  0 
    5.9315    2.9430    0.6519 H   0  0  0  0  0  0  0  0  0  0  0  0 
  1 13  1  0  0  0  0 
  1  2  1  0  0  0  0 
  2 10  1  0  0  0  0 
  2 15  1  0  0  0  0 
  3 16  1  0  0  0  0 
  3  4  1  0  0  0  0 
  4  8  1  0  0  0  0 
  4 18  1  0  0  0  0 
  5 20  1  0  0  0  0 
  5 21  1  0  0  0  0 
  6  8  1  0  0  0  0 
  6  5  1  0  0  0  0 
  7  9  2  0  0  0  0 
  7  3  1  0  0  0  0 
  8  5  1  0  0  0  0 
 10  7  1  0  0  0  0 
 11  1  1  0  0  0  0 
 12  1  1  0  0  0  0 
 14  2  1  0  0  0  0 
 17  3  1  0  0  0  0 
 19  4  1  0  0  0  0 
 22  6  1  0  0  0  0 
 23  6  1  0  0  0  0 
M  END 
>  <HBA> 
3 
 
>  <HBD> 
0 
 
>  <TPSA> 
29.31 
 
>  <cid> 
20009 
 
>  <dipole> 
1.55 
 
>  <excitation_energy_1> 
5.789 
 
>  <excitation_energy_2> 
5.938 
 
>  <excitation_energy_3> 
6.104 
 
>  <excitation_energy_4> 
6.299 
 
>  <homo_energy> 
-6.368 
 
>  <homo_lumo_gap> 
6.776 
 
>  <logP> 
0.193 
 
>  <lumo_energy> 
0.408 
 
>  <melting_point> 
-3.5 
 
>  <molecular_refractivity> 
41.74 
 
>  <oscillator_strength_1> 
0.0024 
 
>  <oscillator_strength_2> 
0.0056 
 
>  <oscillator_strength_3> 
0.0141 
 
>  <oscillator_strength_4> 
0.0265 
 
>  <open_babel_can_smiles> 
CCOC(=O)CCN1CC1 
 
>  <mulliken_charges> 
23 
1   -0.461576 
2   -0.043919 
3   -0.36395 
4   -0.119839 
5   -0.191524 
6   -0.197342 
7   0.626557 
8   -0.357788 
9   -0.484638 
10   -0.463541 
11   0.150167 
12   0.156243 
13   0.17569 
14   0.152545 
15   0.16958 
16   0.188324 
17   0.171731 
18   0.163933 
19   0.124169 
20   0.146936 
21   0.157721 
22   0.15741 
23   0.143112 
 
>  <lowdin_charges> 
23 
1   -0.458847 
2   -0.131688 
3   -0.305843 
4   -0.19734 
5   -0.240956 
6   -0.24624 
7   0.200089 
8   -0.194462 
9   -0.272055 
10   -0.197972 
11   0.159891 
12   0.156829 
13   0.166379 
14   0.153802 
15   0.159807 
16   0.178758 
17   0.169949 
18   0.158427 
19   0.128744 
20   0.148221 
21   0.15953 
22   0.157249 
23   0.147728 
 
$$$$ 
 
