PCCDB-ID:  51283 
public computational chemistry database (PCCDB) project, http://pccdb.org 
 
 13 12  0  0  1  0  0  0  0  0999 V2000 
    1.0673   -0.0138   -0.0997 C   0  0  0  0  0  0  0  0  0  0  0  0 
    2.6028   -0.1083   -0.0432 C   0  0  1  0  0  0  0  0  0  0  0  0 
    3.1054    0.3724    1.3332 C   0  0  0  0  0  0  0  0  0  0  0  0 
    3.0256   -1.4646   -0.3622 N   0  0  0  0  0  0  0  0  0  0  0  0 
    3.5525   -0.3640    2.1768 O   0  0  0  0  0  0  0  0  0  0  0  0 
    2.9957    1.7073    1.5787 O   0  0  0  0  0  0  0  0  0  0  0  0 
    0.7062    1.0045    0.0833 H   0  0  0  0  0  0  0  0  0  0  0  0 
    0.6189   -0.6671    0.6576 H   0  0  0  0  0  0  0  0  0  0  0  0 
    0.7209   -0.3401   -1.0836 H   0  0  0  0  0  0  0  0  0  0  0  0 
    3.0231    0.5612   -0.8084 H   0  0  0  0  0  0  0  0  0  0  0  0 
    2.7631   -2.0683    0.4181 H   0  0  0  0  0  0  0  0  0  0  0  0 
    4.0444   -1.5005   -0.3814 H   0  0  0  0  0  0  0  0  0  0  0  0 
    2.6360    2.1599    0.7975 H   0  0  0  0  0  0  0  0  0  0  0  0 
  1  2  1  0  0  0  0 
  1  7  1  0  0  0  0 
  1  8  1  0  0  0  0 
  2 10  1  6  0  0  0 
  2  3  1  0  0  0  0 
  3  6  1  0  0  0  0 
  3  5  2  0  0  0  0 
  4  2  1  0  0  0  0 
  4 11  1  0  0  0  0 
  9  1  1  0  0  0  0 
 12  4  1  0  0  0  0 
 13  6  1  0  0  0  0 
M  END 
>  <HBA> 
3 
 
>  <HBD> 
2 
 
>  <TPSA> 
63.32 
 
>  <cid> 
51283 
 
>  <dipole> 
3.05 
 
>  <excitation_energy_1> 
5.542 
 
>  <excitation_energy_2> 
5.889 
 
>  <excitation_energy_3> 
6.042 
 
>  <excitation_energy_4> 
6.501 
 
>  <homo_energy> 
-6.83 
 
>  <homo_lumo_gap> 
6.974 
 
>  <logP> 
0.118 
 
>  <lumo_energy> 
0.144 
 
>  <melting_point> 
106.84 
 
>  <molecular_refractivity> 
21.01 
 
>  <oscillator_strength_1> 
0.0029 
 
>  <oscillator_strength_2> 
0.0015 
 
>  <oscillator_strength_3> 
0.0011 
 
>  <oscillator_strength_4> 
0.0251 
 
>  <open_babel_can_smiles> 
C[C@@H](C(=O)O)N 
 
>  <mulliken_charges> 
13 
1   -0.439594 
2   -0.103743 
3   0.580468 
4   -0.685743 
5   -0.442542 
6   -0.56394 
7   0.13703 
8   0.164708 
9   0.179817 
10   0.145888 
11   0.309902 
12   0.306663 
13   0.411088 
 
>  <lowdin_charges> 
13 
1   -0.443501 
2   -0.112432 
3   0.177662 
4   -0.528404 
5   -0.24367 
6   -0.359245 
7   0.14653 
8   0.161639 
9   0.169402 
10   0.149997 
11   0.263646 
12   0.25945 
13   0.358925 
 
$$$$ 
 
