PCCDB-ID:  66889 
public computational chemistry database (PCCDB) project, http://pccdb.org 
 
 35 36  0  0  0  0  0  0  0  0999 V2000 
    3.5573    5.1037   -1.8988 C   0  0  0  0  0  0  0  0  0  0  0  0 
    7.1953   -4.4792    1.4626 C   0  0  0  0  0  0  0  0  0  0  0  0 
    3.3366    0.3829   -0.1113 C   0  0  0  0  0  0  0  0  0  0  0  0 
    5.6601    3.7224   -1.5730 C   0  0  0  0  0  0  0  0  0  0  0  0 
    9.3995   -1.0705   -0.0222 C   0  0  0  0  0  0  0  0  0  0  0  0 
   10.0779   -2.2188    0.3593 C   0  0  0  0  0  0  0  0  0  0  0  0 
    6.3048    2.5592   -1.1769 C   0  0  0  0  0  0  0  0  0  0  0  0 
    3.5405    2.7281   -1.0248 C   0  0  0  0  0  0  0  0  0  0  0  0 
    7.3013   -2.1312    0.5421 C   0  0  0  0  0  0  0  0  0  0  0  0 
    4.2627    3.8292   -1.5005 C   0  0  0  0  0  0  0  0  0  0  0  0 
    7.9581   -3.2891    0.9330 C   0  0  0  0  0  0  0  0  0  0  0  0 
    4.1599    1.5430   -0.6185 C   0  0  0  0  0  0  0  0  0  0  0  0 
    8.0015   -1.0088    0.0602 C   0  0  0  0  0  0  0  0  0  0  0  0 
    9.3757   -3.3380    0.8381 C   0  0  0  0  0  0  0  0  0  0  0  0 
    5.5682    1.4631   -0.6975 C   0  0  0  0  0  0  0  0  0  0  0  0 
   10.0647   -4.4665    1.2702 N   0  0  0  0  0  0  0  0  0  0  0  0 
    7.4122    0.1986   -0.3569 N   0  0  0  0  0  0  0  0  0  0  0  0 
    6.1500    0.2435   -0.2763 N   0  0  0  0  0  0  0  0  0  0  0  0 
    4.1435    5.6757   -2.6258 H   0  0  0  0  0  0  0  0  0  0  0  0 
    3.3923    5.7552   -1.0296 H   0  0  0  0  0  0  0  0  0  0  0  0 
    2.5753    4.8994   -2.3395 H   0  0  0  0  0  0  0  0  0  0  0  0 
    6.1256   -4.2609    1.5224 H   0  0  0  0  0  0  0  0  0  0  0  0 
    7.5381   -4.7644    2.4661 H   0  0  0  0  0  0  0  0  0  0  0  0 
    7.3093   -5.3647    0.8188 H   0  0  0  0  0  0  0  0  0  0  0  0 
    2.2701    0.6296   -0.1296 H   0  0  0  0  0  0  0  0  0  0  0  0 
    3.6100    0.1164    0.9154 H   0  0  0  0  0  0  0  0  0  0  0  0 
    3.4923   -0.5155   -0.7182 H   0  0  0  0  0  0  0  0  0  0  0  0 
    6.2432    4.5619   -1.9457 H   0  0  0  0  0  0  0  0  0  0  0  0 
    9.9337   -0.2028   -0.3971 H   0  0  0  0  0  0  0  0  0  0  0  0 
   11.1629   -2.2600    0.2928 H   0  0  0  0  0  0  0  0  0  0  0  0 
    7.3840    2.4686   -1.2306 H   0  0  0  0  0  0  0  0  0  0  0  0 
    2.4553    2.7939   -0.9694 H   0  0  0  0  0  0  0  0  0  0  0  0 
    6.2195   -2.0720    0.6042 H   0  0  0  0  0  0  0  0  0  0  0  0 
   11.0176   -4.5485    0.9396 H   0  0  0  0  0  0  0  0  0  0  0  0 
    9.5653   -5.3446    1.2224 H   0  0  0  0  0  0  0  0  0  0  0  0 
  1 10  1  0  0  0  0 
  1 20  1  0  0  0  0 
  2 22  1  0  0  0  0 
  2 23  1  0  0  0  0 
  3 26  1  0  0  0  0 
  4 10  2  0  0  0  0 
  4  7  1  0  0  0  0 
  5 13  2  0  0  0  0 
  5  6  1  0  0  0  0 
  6 14  2  0  0  0  0 
  7 15  2  0  0  0  0 
  8 32  1  0  0  0  0 
  8 12  2  0  0  0  0 
  9 33  1  0  0  0  0 
  9 11  2  0  0  0  0 
 10  8  1  0  0  0  0 
 11  2  1  0  0  0  0 
 12  3  1  0  0  0  0 
 13  9  1  0  0  0  0 
 14 11  1  0  0  0  0 
 14 16  1  0  0  0  0 
 15 12  1  0  0  0  0 
 15 18  1  0  0  0  0 
 17 18  1  0  0  0  0 
 17 13  1  0  0  0  0 
 19  1  1  0  0  0  0 
 21  1  1  0  0  0  0 
 24  2  1  0  0  0  0 
 25  3  1  0  0  0  0 
 27  3  1  0  0  0  0 
 28  4  1  0  0  0  0 
 29  5  1  0  0  0  0 
 30  6  1  0  0  0  0 
 31  7  1  0  0  0  0 
 34 16  1  0  0  0  0 
 35 16  1  0  0  0  0 
M  RAD  2  17   2  18   2 
M  END 
>  <HBA> 
3 
 
>  <HBD> 
1 
 
>  <TPSA> 
50.74 
 
>  <cid> 
66889 
 
>  <dipole> 
2.87 
 
>  <excitation_energy_1> 
2.612 
 
>  <excitation_energy_2> 
3.178 
 
>  <excitation_energy_3> 
3.896 
 
>  <excitation_energy_4> 
4.092 
 
>  <homo_energy> 
-5.192 
 
>  <homo_lumo_gap> 
3.453 
 
>  <logP> 
5.191 
 
>  <lumo_energy> 
-1.739 
 
>  <melting_point> 
125.49 
 
>  <molecular_refractivity> 
76.36 
 
>  <oscillator_strength_1> 
0.0 
 
>  <oscillator_strength_2> 
0.9012 
 
>  <oscillator_strength_3> 
0.0132 
 
>  <oscillator_strength_4> 
0.0006 
 
>  <open_babel_can_smiles> 
Cc1ccc(c(c1)C)[N][N]c1ccc(c(c1)C)N 
 
>  <mulliken_charges> 
35 
1   -0.531979 
2   -0.553788 
3   -0.51536 
4   -0.20357 
5   -0.149248 
6   -0.182454 
7   -0.123655 
8   -0.257809 
9   -0.211543 
10   0.200189 
11   0.157736 
12   0.165082 
13   0.279553 
14   0.269192 
15   0.217412 
16   -0.793466 
17   -0.319889 
18   -0.329495 
19   0.15626 
20   0.16595 
21   0.157369 
22   0.167875 
23   0.168015 
24   0.149145 
25   0.142302 
26   0.16743 
27   0.166971 
28   0.120665 
29   0.136797 
30   0.119722 
31   0.149805 
32   0.113642 
33   0.146032 
34   0.326078 
35   0.329036 
 
>  <lowdin_charges> 
35 
1   -0.443289 
2   -0.443835 
3   -0.438041 
4   -0.173058 
5   -0.140092 
6   -0.201639 
7   -0.148515 
8   -0.17972 
9   -0.150528 
10   0.008139 
11   -0.033146 
12   0.008677 
13   -0.012957 
14   0.062511 
15   -0.002866 
16   -0.474784 
17   -0.083274 
18   -0.101511 
19   0.158952 
20   0.162812 
21   0.157884 
22   0.163486 
23   0.159992 
24   0.150593 
25   0.14847 
26   0.164066 
27   0.164946 
28   0.154287 
29   0.166895 
30   0.151743 
31   0.168874 
32   0.148866 
33   0.167401 
34   0.278241 
35   0.280417 
 
$$$$ 
 
