PCCDB-ID:  36066 
public computational chemistry database (PCCDB) project, http://pccdb.org 
 
 17 17  0  0  0  0  0  0  0  0999 V2000 
    3.3093   -1.2530    0.2558 C   0  0  0  0  0  0  0  0  0  0  0  0 
    4.8139    1.5002    0.6891 C   0  0  0  0  0  0  0  0  0  0  0  0 
    5.0435    2.8864    0.7485 C   0  0  0  0  0  0  0  0  0  0  0  0 
    2.6733    0.1010    0.0250 C   0  0  0  0  0  0  0  0  0  0  0  0 
    3.4933    1.3018    0.2693 C   0  0  0  0  0  0  0  0  0  0  0  0 
    3.8513    3.4870    0.3621 C   0  0  0  0  0  0  0  0  0  0  0  0 
    2.9288    2.5319    0.0767 N   0  0  0  0  0  0  0  0  0  0  0  0 
    3.5192    4.8694    0.2414 N   0  0  0  0  0  0  0  0  0  0  0  0 
    1.5141    0.2319   -0.3469 O   0  0  0  0  0  0  0  0  0  0  0  0 
    4.3971    5.6895    0.5128 O   0  0  0  0  0  0  0  0  0  0  0  0 
    2.3688    5.1373   -0.1282 O   0  0  0  0  0  0  0  0  0  0  0  0 
    4.2358   -1.3559   -0.3210 H   0  0  0  0  0  0  0  0  0  0  0  0 
    2.6050   -2.0324   -0.0397 H   0  0  0  0  0  0  0  0  0  0  0  0 
    3.5662   -1.3795    1.3147 H   0  0  0  0  0  0  0  0  0  0  0  0 
    5.5250    0.7202    0.9231 H   0  0  0  0  0  0  0  0  0  0  0  0 
    5.9448    3.4093    1.0304 H   0  0  0  0  0  0  0  0  0  0  0  0 
    1.9759    2.6924   -0.2271 H   0  0  0  0  0  0  0  0  0  0  0  0 
  1 14  1  0  0  0  0 
  2  3  1  0  0  0  0 
  2 15  1  0  0  0  0 
  3 16  1  0  0  0  0 
  4  1  1  0  0  0  0 
  4  5  1  0  0  0  0 
  5  2  2  0  0  0  0 
  6  3  2  0  0  0  0 
  7  5  1  0  0  0  0 
  7  6  1  0  0  0  0 
  8  6  1  0  0  0  0 
  8 10  2  0  0  0  0 
  9  4  2  0  0  0  0 
 11  8  2  0  0  0  0 
 12  1  1  0  0  0  0 
 13  1  1  0  0  0  0 
 17  7  1  0  0  0  0 
M  END 
>  <HBA> 
1 
 
>  <HBD> 
1 
 
>  <TPSA> 
78.68 
 
>  <cid> 
36066 
 
>  <dipole> 
4.91 
 
>  <excitation_energy_1> 
3.564 
 
>  <excitation_energy_2> 
3.787 
 
>  <excitation_energy_3> 
4.059 
 
>  <excitation_energy_4> 
4.266 
 
>  <homo_energy> 
-7.151 
 
>  <homo_lumo_gap> 
4.395 
 
>  <logP> 
1.649 
 
>  <lumo_energy> 
-2.757 
 
>  <melting_point> 
125.28 
 
>  <molecular_refractivity> 
39.81 
 
>  <oscillator_strength_1> 
0.0 
 
>  <oscillator_strength_2> 
0.0 
 
>  <oscillator_strength_3> 
0.3822 
 
>  <oscillator_strength_4> 
0.0004 
 
>  <open_babel_can_smiles> 
CC(=O)c1ccc([nH]1)N(=O)=O 
 
>  <mulliken_charges> 
17 
1   -0.54141 
2   -0.223995 
3   -0.151284 
4   0.412328 
5   0.296055 
6   0.537948 
7   -0.650294 
8   0.339227 
9   -0.467426 
10   -0.395927 
11   -0.415835 
12   0.176959 
13   0.19083 
14   0.181688 
15   0.156151 
16   0.179262 
17   0.375723 
 
>  <lowdin_charges> 
17 
1   -0.468135 
2   -0.18426 
3   -0.168572 
4   0.153616 
5   -0.010687 
6   0.029325 
7   -0.123526 
8   0.308591 
9   -0.2462 
10   -0.243722 
11   -0.263386 
12   0.173898 
13   0.181403 
14   0.175761 
15   0.176217 
16   0.190008 
17   0.319668 
 
$$$$ 
 
