PCCDB-ID:  24750 
public computational chemistry database (PCCDB) project, http://pccdb.org 
 
 46 45  0  0  0  0  0  0  0  0999 V2000 
    2.6756   11.0971    0.2652 C   0  0  0  0  0  0  0  0  0  0  0  0 
    3.0224    9.9482   -0.6872 C   0  0  0  0  0  0  0  0  0  0  0  0 
    3.5076    8.6851    0.0364 C   0  0  0  0  0  0  0  0  0  0  0  0 
    3.8458    7.5318   -0.9186 C   0  0  0  0  0  0  0  0  0  0  0  0 
    4.2719    6.2242   -0.2300 C   0  0  0  0  0  0  0  0  0  0  0  0 
    5.6164    6.2927    0.5091 C   0  0  0  0  0  0  0  0  0  0  0  0 
    6.0353    4.9423    1.1085 C   0  0  0  0  0  0  0  0  0  0  0  0 
    7.4205    4.9292    1.7780 C   0  0  0  0  0  0  0  0  0  0  0  0 
    7.5258    5.7826    3.0512 C   0  0  0  0  0  0  0  0  0  0  0  0 
    8.9080    5.7591    3.7255 C   0  0  0  0  0  0  0  0  0  0  0  0 
    9.3048    4.3996    4.3182 C   0  0  0  0  0  0  0  0  0  0  0  0 
   11.8605    4.3795    7.9716 C   0  0  0  0  0  0  0  0  0  0  0  0 
   10.6400    4.4239    5.0533 C   0  0  0  0  0  0  0  0  0  0  0  0 
   11.7411    5.4732    6.9130 C   0  0  0  0  0  0  0  0  0  0  0  0 
   10.7079    4.3579    8.7952 O   0  0  0  0  0  0  0  0  0  0  0  0 
   10.5393    5.3161    6.1610 O   0  0  0  0  0  0  0  0  0  0  0  0 
    2.3341   11.9828   -0.2828 H   0  0  0  0  0  0  0  0  0  0  0  0 
    3.5457   11.3917    0.8649 H   0  0  0  0  0  0  0  0  0  0  0  0 
    1.8781   10.8080    0.9609 H   0  0  0  0  0  0  0  0  0  0  0  0 
    3.7967   10.2800   -1.3938 H   0  0  0  0  0  0  0  0  0  0  0  0 
    2.1424    9.6996   -1.2976 H   0  0  0  0  0  0  0  0  0  0  0  0 
    2.7322    8.3528    0.7436 H   0  0  0  0  0  0  0  0  0  0  0  0 
    4.3852    8.9396    0.6469 H   0  0  0  0  0  0  0  0  0  0  0  0 
    4.6412    7.8528   -1.6080 H   0  0  0  0  0  0  0  0  0  0  0  0 
    2.9665    7.3274   -1.5463 H   0  0  0  0  0  0  0  0  0  0  0  0 
    4.3289    5.4299   -0.9881 H   0  0  0  0  0  0  0  0  0  0  0  0 
    3.4858    5.9133    0.4746 H   0  0  0  0  0  0  0  0  0  0  0  0 
    5.5648    7.0513    1.3000 H   0  0  0  0  0  0  0  0  0  0  0  0 
    6.3950    6.6330   -0.1911 H   0  0  0  0  0  0  0  0  0  0  0  0 
    6.0253    4.1870    0.3096 H   0  0  0  0  0  0  0  0  0  0  0  0 
    5.2780    4.6183    1.8383 H   0  0  0  0  0  0  0  0  0  0  0  0 
    8.1757    5.2694    1.0531 H   0  0  0  0  0  0  0  0  0  0  0  0 
    7.6767    3.8880    2.0151 H   0  0  0  0  0  0  0  0  0  0  0  0 
    6.7650    5.4492    3.7735 H   0  0  0  0  0  0  0  0  0  0  0  0 
    7.2794    6.8250    2.8121 H   0  0  0  0  0  0  0  0  0  0  0  0 
    8.9290    6.5033    4.5297 H   0  0  0  0  0  0  0  0  0  0  0  0 
    9.6721    6.0707    2.9970 H   0  0  0  0  0  0  0  0  0  0  0  0 
    9.3752    3.6378    3.5312 H   0  0  0  0  0  0  0  0  0  0  0  0 
    8.5273    4.0583    5.0160 H   0  0  0  0  0  0  0  0  0  0  0  0 
   12.7230    4.5778    8.6180 H   0  0  0  0  0  0  0  0  0  0  0  0 
   12.0270    3.3998    7.4917 H   0  0  0  0  0  0  0  0  0  0  0  0 
   11.4437    4.7675    4.3805 H   0  0  0  0  0  0  0  0  0  0  0  0 
   10.9048    3.4098    5.3907 H   0  0  0  0  0  0  0  0  0  0  0  0 
   12.6206    5.4901    6.2507 H   0  0  0  0  0  0  0  0  0  0  0  0 
   11.6566    6.4473    7.4065 H   0  0  0  0  0  0  0  0  0  0  0  0 
    9.9582    4.4634    8.1841 H   0  0  0  0  0  0  0  0  0  0  0  0 
  1 18  1  0  0  0  0 
  1 19  1  0  0  0  0 
  2  3  1  0  0  0  0 
  2  1  1  0  0  0  0 
  3 23  1  0  0  0  0 
  3 22  1  0  0  0  0 
  4  5  1  0  0  0  0 
  4  3  1  0  0  0  0 
  5 27  1  0  0  0  0 
  5  6  1  0  0  0  0 
  6  7  1  0  0  0  0 
  6 28  1  0  0  0  0 
  7  8  1  0  0  0  0 
  7 31  1  0  0  0  0 
  8 33  1  0  0  0  0 
  8  9  1  0  0  0  0 
  9 10  1  0  0  0  0 
  9 34  1  0  0  0  0 
 10 11  1  0  0  0  0 
 10 36  1  0  0  0  0 
 11 39  1  0  0  0  0 
 11 13  1  0  0  0  0 
 12 40  1  0  0  0  0 
 12 15  1  0  0  0  0 
 13 43  1  0  0  0  0 
 13 16  1  0  0  0  0 
 14 45  1  0  0  0  0 
 14 12  1  0  0  0  0 
 16 14  1  0  0  0  0 
 17  1  1  0  0  0  0 
 20  2  1  0  0  0  0 
 21  2  1  0  0  0  0 
 24  4  1  0  0  0  0 
 25  4  1  0  0  0  0 
 26  5  1  0  0  0  0 
 29  6  1  0  0  0  0 
 30  7  1  0  0  0  0 
 32  8  1  0  0  0  0 
 35  9  1  0  0  0  0 
 37 10  1  0  0  0  0 
 38 11  1  0  0  0  0 
 41 12  1  0  0  0  0 
 42 13  1  0  0  0  0 
 44 14  1  0  0  0  0 
 46 15  1  0  0  0  0 
M  END 
>  <HBA> 
2 
 
>  <HBD> 
1 
 
>  <TPSA> 
29.46 
 
>  <cid> 
24750 
 
>  <dipole> 
2.39 
 
>  <excitation_energy_1> 
6.374 
 
>  <excitation_energy_2> 
6.639 
 
>  <excitation_energy_3> 
6.825 
 
>  <excitation_energy_4> 
6.889 
 
>  <homo_energy> 
-6.795 
 
>  <homo_lumo_gap> 
8.904 
 
>  <logP> 
3.916 
 
>  <lumo_energy> 
2.109 
 
>  <melting_point> 
-22.21 
 
>  <molecular_refractivity> 
71.66 
 
>  <oscillator_strength_1> 
0.011 
 
>  <oscillator_strength_2> 
0.0171 
 
>  <oscillator_strength_3> 
0.0063 
 
>  <oscillator_strength_4> 
0.0015 
 
>  <open_babel_can_smiles> 
CCCCCCCCCCCCOCCO 
 
>  <mulliken_charges> 
46 
1   -0.441539 
2   -0.246411 
3   -0.247258 
4   -0.254226 
5   -0.254489 
6   -0.256679 
7   -0.254101 
8   -0.257232 
9   -0.258388 
10   -0.255031 
11   -0.275713 
12   -0.031415 
13   -0.02439 
14   -0.052709 
15   -0.621269 
16   -0.483781 
17   0.141115 
18   0.140741 
19   0.141037 
20   0.129649 
21   0.12949 
22   0.125219 
23   0.131154 
24   0.125325 
25   0.126302 
26   0.125837 
27   0.126254 
28   0.139106 
29   0.124176 
30   0.126093 
31   0.126747 
32   0.124583 
33   0.129472 
34   0.126615 
35   0.134584 
36   0.153134 
37   0.122662 
38   0.137939 
39   0.139422 
40   0.142321 
41   0.120642 
42   0.122884 
43   0.126728 
44   0.122847 
45   0.156061 
46   0.39649 
 
>  <lowdin_charges> 
46 
1   -0.44638 
2   -0.273435 
3   -0.278602 
4   -0.276524 
5   -0.276319 
6   -0.28084 
7   -0.276104 
8   -0.277745 
9   -0.277158 
10   -0.279025 
11   -0.284892 
12   -0.149639 
13   -0.130778 
14   -0.152641 
15   -0.470941 
16   -0.282387 
17   0.149408 
18   0.146514 
19   0.146819 
20   0.139451 
21   0.13876 
22   0.137515 
23   0.138797 
24   0.1378 
25   0.140342 
26   0.139875 
27   0.138261 
28   0.141183 
29   0.137097 
30   0.140014 
31   0.138619 
32   0.137256 
33   0.138613 
34   0.138476 
35   0.141669 
36   0.153383 
37   0.137289 
38   0.14787 
39   0.146565 
40   0.149277 
41   0.124564 
42   0.129003 
43   0.12923 
44   0.135146 
45   0.152683 
46   0.34193 
 
$$$$ 
 
