PCCDB-ID:  7450 
public computational chemistry database (PCCDB) project, http://pccdb.org 
 
 30 30  0  0  0  0  0  0  0  0999 V2000 
    1.3927   -0.8385   -0.3099 C   0  0  0  0  0  0  0  0  0  0  0  0 
    3.8478   -0.7812    0.3345 C   0  0  0  0  0  0  0  0  0  0  0  0 
    5.0910    0.0593   -4.8903 C   0  0  0  0  0  0  0  0  0  0  0  0 
    2.6349    0.1730   -5.5245 C   0  0  0  0  0  0  0  0  0  0  0  0 
    3.0982    3.3073   -1.9840 C   0  0  0  0  0  0  0  0  0  0  0  0 
    2.8350    2.4164   -0.9438 C   0  0  0  0  0  0  0  0  0  0  0  0 
    3.4178    2.8272   -3.2538 C   0  0  0  0  0  0  0  0  0  0  0  0 
    3.2106    0.5736   -2.4417 C   0  0  0  0  0  0  0  0  0  0  0  0 
    2.6075    0.0622   -0.0171 C   0  0  0  0  0  0  0  0  0  0  0  0 
    3.8195    0.9284   -4.8926 C   0  0  0  0  0  0  0  0  0  0  0  0 
    2.8883    1.0332   -1.1578 C   0  0  0  0  0  0  0  0  0  0  0  0 
    3.4786    1.4500   -3.5016 C   0  0  0  0  0  0  0  0  0  0  0  0 
    1.1738   -1.4839    0.5493 H   0  0  0  0  0  0  0  0  0  0  0  0 
    1.5771   -1.4881   -1.1738 H   0  0  0  0  0  0  0  0  0  0  0  0 
    0.4998   -0.2418   -0.5259 H   0  0  0  0  0  0  0  0  0  0  0  0 
    3.6437   -1.4311    1.1940 H   0  0  0  0  0  0  0  0  0  0  0  0 
    4.7032   -0.1435    0.5828 H   0  0  0  0  0  0  0  0  0  0  0  0 
    4.1425   -1.4221   -0.5050 H   0  0  0  0  0  0  0  0  0  0  0  0 
    5.3487   -0.2515   -5.9099 H   0  0  0  0  0  0  0  0  0  0  0  0 
    4.9522   -0.8493   -4.2922 H   0  0  0  0  0  0  0  0  0  0  0  0 
    5.9439    0.6059   -4.4732 H   0  0  0  0  0  0  0  0  0  0  0  0 
    2.8763   -0.1419   -6.5470 H   0  0  0  0  0  0  0  0  0  0  0  0 
    1.7393    0.8027   -5.5629 H   0  0  0  0  0  0  0  0  0  0  0  0 
    2.3851   -0.7265   -4.9492 H   0  0  0  0  0  0  0  0  0  0  0  0 
    3.0530    4.3787   -1.8049 H   0  0  0  0  0  0  0  0  0  0  0  0 
    2.5873    2.7962    0.0451 H   0  0  0  0  0  0  0  0  0  0  0  0 
    3.6235    3.5263   -4.0615 H   0  0  0  0  0  0  0  0  0  0  0  0 
    3.2548   -0.4984   -2.6220 H   0  0  0  0  0  0  0  0  0  0  0  0 
    2.3614    0.6676    0.8660 H   0  0  0  0  0  0  0  0  0  0  0  0 
    4.0227    1.8051   -5.5228 H   0  0  0  0  0  0  0  0  0  0  0  0 
  1  9  1  0  0  0  0 
  1 13  1  0  0  0  0 
  2 17  1  0  0  0  0 
  2 16  1  0  0  0  0 
  3 21  1  0  0  0  0 
  3 20  1  0  0  0  0 
  4 24  1  0  0  0  0 
  4 10  1  0  0  0  0 
  5 25  1  0  0  0  0 
  5  6  2  0  0  0  0 
  6 26  1  0  0  0  0 
  7  5  1  0  0  0  0 
  8 11  2  0  0  0  0 
  9  2  1  0  0  0  0 
  9 29  1  0  0  0  0 
 10  3  1  0  0  0  0 
 10 12  1  0  0  0  0 
 11  6  1  0  0  0  0 
 11  9  1  0  0  0  0 
 12  7  2  0  0  0  0 
 12  8  1  0  0  0  0 
 14  1  1  0  0  0  0 
 15  1  1  0  0  0  0 
 18  2  1  0  0  0  0 
 19  3  1  0  0  0  0 
 22  4  1  0  0  0  0 
 23  4  1  0  0  0  0 
 27  7  1  0  0  0  0 
 28  8  1  0  0  0  0 
 30 10  1  0  0  0  0 
M  END 
>  <HBA> 
0 
 
>  <HBD> 
0 
 
>  <TPSA> 
0.0 
 
>  <cid> 
7450 
 
>  <dipole> 
0.21 
 
>  <excitation_energy_1> 
5.231 
 
>  <excitation_energy_2> 
5.845 
 
>  <excitation_energy_3> 
5.87 
 
>  <excitation_energy_4> 
5.992 
 
>  <homo_energy> 
-6.291 
 
>  <homo_lumo_gap> 
6.425 
 
>  <logP> 
3.933 
 
>  <lumo_energy> 
0.133 
 
>  <melting_point> 
9.33 
 
>  <molecular_refractivity> 
55.6 
 
>  <oscillator_strength_1> 
0.0034 
 
>  <oscillator_strength_2> 
0.0108 
 
>  <oscillator_strength_3> 
0.0001 
 
>  <oscillator_strength_4> 
0.0005 
 
>  <open_babel_can_smiles> 
CC(c1cccc(c1)C(C)C)C 
 
>  <mulliken_charges> 
30 
1   -0.438794 
2   -0.437527 
3   -0.439111 
4   -0.437 
5   -0.121092 
6   -0.201567 
7   -0.201531 
8   -0.249361 
9   -0.15771 
10   -0.158149 
11   0.189908 
12   0.190115 
13   0.139978 
14   0.142341 
15   0.149386 
16   0.139784 
17   0.149171 
18   0.142408 
19   0.140011 
20   0.142356 
21   0.149493 
22   0.139749 
23   0.149092 
24   0.14238 
25   0.124397 
26   0.119164 
27   0.119135 
28   0.118871 
29   0.127004 
30   0.127099 
 
>  <lowdin_charges> 
30 
1   -0.443132 
2   -0.443295 
3   -0.442062 
4   -0.441066 
5   -0.15339 
6   -0.175173 
7   -0.177114 
8   -0.173166 
9   -0.118617 
10   -0.118664 
11   0.001418 
12   0.001889 
13   0.148352 
14   0.147191 
15   0.153019 
16   0.148035 
17   0.153185 
18   0.147737 
19   0.147117 
20   0.146833 
21   0.153457 
22   0.146611 
23   0.152782 
24   0.147354 
25   0.153704 
26   0.1519 
27   0.153345 
28   0.148188 
29   0.141784 
30   0.141776 
 
$$$$ 
 
