PCCDB-ID:  71011 
public computational chemistry database (PCCDB) project, http://pccdb.org 
 
 27 28  0  0  0  0  0  0  0  0999 V2000 
   -1.9861    0.8373    0.8272 C   0  0  0  0  0  0  0  0  0  0  0  0 
   -1.1251   -0.0751    0.2220 C   0  0  0  0  0  0  0  0  0  0  0  0 
   -1.4821    2.0792    1.2076 C   0  0  0  0  0  0  0  0  0  0  0  0 
    1.6253    3.9582   -0.9685 C   0  0  0  0  0  0  0  0  0  0  0  0 
    3.8665    3.5256   -0.0954 C   0  0  0  0  0  0  0  0  0  0  0  0 
    1.7086    5.3620   -0.3638 C   0  0  0  0  0  0  0  0  0  0  0  0 
    3.8695    4.9483    0.4684 C   0  0  0  0  0  0  0  0  0  0  0  0 
    0.2130    0.2765    0.0334 C   0  0  0  0  0  0  0  0  0  0  0  0 
    0.6370    1.5513    0.4633 C   0  0  0  0  0  0  0  0  0  0  0  0 
    2.1091    1.9124    0.4442 C   0  0  0  0  0  0  0  0  0  0  0  0 
   -0.2030    2.4285    1.0250 N   0  0  0  0  0  0  0  0  0  0  0  0 
    2.4861    3.0545   -0.2090 N   0  0  0  0  0  0  0  0  0  0  0  0 
    1.1162   -0.5358   -0.5745 O   0  0  0  0  0  0  0  0  0  0  0  0 
    2.9021    1.1932    1.0453 O   0  0  0  0  0  0  0  0  0  0  0  0 
    3.0552    5.8179   -0.3112 O   0  0  0  0  0  0  0  0  0  0  0  0 
   -3.0302    0.5887    0.9926 H   0  0  0  0  0  0  0  0  0  0  0  0 
   -1.4833   -1.0509   -0.1017 H   0  0  0  0  0  0  0  0  0  0  0  0 
   -2.1227    2.8238    1.6746 H   0  0  0  0  0  0  0  0  0  0  0  0 
    1.9801    3.9912   -2.0090 H   0  0  0  0  0  0  0  0  0  0  0  0 
    0.5978    3.5986   -0.9600 H   0  0  0  0  0  0  0  0  0  0  0  0 
    4.4083    2.8327    0.5499 H   0  0  0  0  0  0  0  0  0  0  0  0 
    4.3313    3.5241   -1.0913 H   0  0  0  0  0  0  0  0  0  0  0  0 
    1.2653    5.3446    0.6444 H   0  0  0  0  0  0  0  0  0  0  0  0 
    1.1631    6.0827   -0.9811 H   0  0  0  0  0  0  0  0  0  0  0  0 
    4.8789    5.3706    0.4468 H   0  0  0  0  0  0  0  0  0  0  0  0 
    3.5154    4.9313    1.5122 H   0  0  0  0  0  0  0  0  0  0  0  0 
    0.6934   -1.3826   -0.7881 H   0  0  0  0  0  0  0  0  0  0  0  0 
  1 16  1  0  0  0  0 
  1  3  2  0  0  0  0 
  2  1  1  0  0  0  0 
  3 18  1  0  0  0  0 
  4 20  1  0  0  0  0 
  4  6  1  0  0  0  0 
  4 12  1  0  0  0  0 
  5  7  1  0  0  0  0 
  5 21  1  0  0  0  0 
  6 15  1  0  0  0  0 
  6 23  1  0  0  0  0 
  7 26  1  0  0  0  0 
  8  2  2  0  0  0  0 
  8  9  1  0  0  0  0 
  9 11  2  0  0  0  0 
 10  9  1  0  0  0  0 
 10 14  2  0  0  0  0 
 11  3  1  0  0  0  0 
 12  5  1  0  0  0  0 
 12 10  1  0  0  0  0 
 13  8  1  0  0  0  0 
 15  7  1  0  0  0  0 
 17  2  1  0  0  0  0 
 19  4  1  0  0  0  0 
 22  5  1  0  0  0  0 
 24  6  1  0  0  0  0 
 25  7  1  0  0  0  0 
 27 13  1  0  0  0  0 
M  END 
>  <HBA> 
5 
 
>  <HBD> 
1 
 
>  <TPSA> 
62.66 
 
>  <cid> 
71011 
 
>  <dipole> 
4.44 
 
>  <excitation_energy_1> 
4.292 
 
>  <excitation_energy_2> 
4.382 
 
>  <excitation_energy_3> 
4.793 
 
>  <excitation_energy_4> 
4.986 
 
>  <homo_energy> 
-6.087 
 
>  <homo_lumo_gap> 
5.075 
 
>  <logP> 
0.198 
 
>  <lumo_energy> 
-1.012 
 
>  <melting_point> 
108.96 
 
>  <molecular_refractivity> 
56.66 
 
>  <oscillator_strength_1> 
0.0167 
 
>  <oscillator_strength_2> 
0.0498 
 
>  <oscillator_strength_3> 
0.095 
 
>  <oscillator_strength_4> 
0.0018 
 
>  <open_babel_can_smiles> 
Oc1cccnc1C(=O)N1CCOCC1 
 
>  <mulliken_charges> 
27 
1   -0.140141 
2   -0.1633 
3   0.024842 
4   -0.146593 
5   -0.160691 
6   -0.035253 
7   -0.035271 
8   0.3421 
9   0.143284 
10   0.585334 
11   -0.46432 
12   -0.429489 
13   -0.619579 
14   -0.508505 
15   -0.468883 
16   0.143961 
17   0.136088 
18   0.143029 
19   0.149024 
20   0.17311 
21   0.193545 
22   0.149721 
23   0.145461 
24   0.14522 
25   0.148953 
26   0.13682 
27   0.411533 
 
>  <lowdin_charges> 
27 
1   -0.158053 
2   -0.184629 
3   -0.113955 
4   -0.210804 
5   -0.214844 
6   -0.140467 
7   -0.136964 
8   0.096224 
9   -0.003738 
10   0.161092 
11   -0.142854 
12   -0.096925 
13   -0.351441 
14   -0.300016 
15   -0.276042 
16   0.166451 
17   0.160601 
18   0.1606 
19   0.14391 
20   0.170462 
21   0.182908 
22   0.146962 
23   0.139218 
24   0.153647 
25   0.152798 
26   0.13412 
27   0.361738 
 
$$$$ 
 
