PCCDB-ID:  27199 
public computational chemistry database (PCCDB) project, http://pccdb.org 
 
 22 23  0  0  0  0  0  0  0  0999 V2000 
    2.2731   -0.5795   -0.1336 C   0  0  0  0  0  0  0  0  0  0  0  0 
    2.2267    0.8264   -0.0339 C   0  0  0  0  0  0  0  0  0  0  0  0 
    1.1146   -1.3452   -0.1276 C   0  0  0  0  0  0  0  0  0  0  0  0 
    1.0155    1.4979    0.0712 C   0  0  0  0  0  0  0  0  0  0  0  0 
   -2.2826    0.0080    0.0866 C   0  0  0  0  0  0  0  0  0  0  0  0 
   -0.1287   -0.6948   -0.0110 C   0  0  0  0  0  0  0  0  0  0  0  0 
   -1.5116   -1.1360    0.0013 C   0  0  0  0  0  0  0  0  0  0  0  0 
   -0.1494    0.7238    0.0768 C   0  0  0  0  0  0  0  0  0  0  0  0 
   -2.0876   -2.4883   -0.1090 C   0  0  0  0  0  0  0  0  0  0  0  0 
   -0.5966   -3.5603    1.2737 N   0  0  0  0  0  0  0  0  0  0  0  0 
   -1.4747    1.1160    0.1383 N   0  0  0  0  0  0  0  0  0  0  0  0 
   -1.7082   -3.5829    0.4278 N   0  0  0  0  0  0  0  0  0  0  0  0 
   -3.2572   -2.5664   -0.8406 O   0  0  0  0  0  0  0  0  0  0  0  0 
    3.2377   -1.0726   -0.2168 H   0  0  0  0  0  0  0  0  0  0  0  0 
    3.1528    1.3945   -0.0420 H   0  0  0  0  0  0  0  0  0  0  0  0 
    1.1570   -2.4272   -0.1866 H   0  0  0  0  0  0  0  0  0  0  0  0 
    0.9738    2.5818    0.1404 H   0  0  0  0  0  0  0  0  0  0  0  0 
   -3.3587    0.1004    0.1359 H   0  0  0  0  0  0  0  0  0  0  0  0 
   -0.6915   -4.3507    1.9042 H   0  0  0  0  0  0  0  0  0  0  0  0 
   -0.5341   -2.7029    1.8279 H   0  0  0  0  0  0  0  0  0  0  0  0 
   -1.7983    2.0673    0.2237 H   0  0  0  0  0  0  0  0  0  0  0  0 
   -3.2016   -1.8973   -1.5414 H   0  0  0  0  0  0  0  0  0  0  0  0 
  1  3  2  0  0  0  0 
  1  2  1  0  0  0  0 
  2  4  2  0  0  0  0 
  3  6  1  0  0  0  0 
  4  8  1  0  0  0  0 
  4 17  1  0  0  0  0 
  5 18  1  0  0  0  0 
  5 11  1  0  0  0  0 
  6  7  1  0  0  0  0 
  6  8  2  0  0  0  0 
  7  5  2  0  0  0  0 
  8 11  1  0  0  0  0 
  9  7  1  0  0  0  0 
  9 12  2  0  0  0  0 
 10 20  1  0  0  0  0 
 10 19  1  0  0  0  0 
 11 21  1  0  0  0  0 
 12 10  1  0  0  0  0 
 13  9  1  0  0  0  0 
 14  1  1  0  0  0  0 
 15  2  1  0  0  0  0 
 16  3  1  0  0  0  0 
 22 13  1  0  0  0  0 
M  END 
>  <HBA> 
3 
 
>  <HBD> 
3 
 
>  <TPSA> 
70.91 
 
>  <cid> 
27199 
 
>  <dipole> 
5.12 
 
>  <excitation_energy_1> 
3.978 
 
>  <excitation_energy_2> 
4.579 
 
>  <excitation_energy_3> 
4.749 
 
>  <excitation_energy_4> 
4.793 
 
>  <homo_energy> 
-5.241 
 
>  <homo_lumo_gap> 
4.634 
 
>  <logP> 
1.863 
 
>  <lumo_energy> 
-0.607 
 
>  <melting_point> 
212.92 
 
>  <molecular_refractivity> 
49.2 
 
>  <oscillator_strength_1> 
0.0448 
 
>  <oscillator_strength_2> 
0.0033 
 
>  <oscillator_strength_3> 
0.0307 
 
>  <oscillator_strength_4> 
0.0213 
 
>  <open_babel_can_smiles> 
N/N=C(\c1c[nH]c2c1cccc2)/O 
 
>  <mulliken_charges> 
22 
1   -0.14271 
2   -0.147561 
3   -0.199962 
4   -0.163038 
5   0.013118 
6   0.069021 
7   -0.052497 
8   0.308351 
9   0.424287 
10   -0.579047 
11   -0.684506 
12   -0.322671 
13   -0.603564 
14   0.127614 
15   0.127502 
16   0.174195 
17   0.124584 
18   0.168986 
19   0.326065 
20   0.304452 
21   0.333021 
22   0.39436 
 
>  <lowdin_charges> 
22 
1   -0.171725 
2   -0.159752 
3   -0.154486 
4   -0.185021 
5   -0.12084 
6   -0.034557 
7   -0.107401 
8   0.029462 
9   0.083972 
10   -0.448919 
11   -0.185972 
12   -0.140394 
13   -0.389432 
14   0.157907 
15   0.158221 
16   0.176723 
17   0.154984 
18   0.172241 
19   0.269804 
20   0.251985 
21   0.293915 
22   0.349286 
 
$$$$ 
 
