PCCDB-ID:  69811 
public computational chemistry database (PCCDB) project, http://pccdb.org 
 
 13 12  0  0  0  0  0  0  0  0999 V2000 
    1.2801    0.2849   -0.3329 C   0  0  0  0  0  0  0  0  0  0  0  0 
    0.7231    1.7075   -0.1509 C   0  0  0  0  0  0  0  0  0  0  0  0 
    2.7757    0.2257   -0.0534 C   0  0  0  0  0  0  0  0  0  0  0  0 
    3.7211    0.0919   -0.8885 N   0  0  0  0  0  0  0  0  0  0  0  0 
    3.1219    0.3921    1.2579 O   0  0  0  0  0  0  0  0  0  0  0  0 
   -1.1059    1.8243   -0.3142 S   0  0  0  0  0  0  0  0  0  0  0  0 
    1.0931   -0.0596   -1.3550 H   0  0  0  0  0  0  0  0  0  0  0  0 
    0.7452   -0.4040    0.3349 H   0  0  0  0  0  0  0  0  0  0  0  0 
    1.2009    2.3996   -0.8499 H   0  0  0  0  0  0  0  0  0  0  0  0 
    0.9323    2.0810    0.8566 H   0  0  0  0  0  0  0  0  0  0  0  0 
    3.3430    0.0052   -1.8327 H   0  0  0  0  0  0  0  0  0  0  0  0 
    2.3290    0.3467    1.8132 H   0  0  0  0  0  0  0  0  0  0  0  0 
   -1.1732    1.4506   -1.6109 H   0  0  0  0  0  0  0  0  0  0  0  0 
  1  2  1  0  0  0  0 
  1  3  1  0  0  0  0 
  1  8  1  0  0  0  0 
  2 10  1  0  0  0  0 
  3  5  1  0  0  0  0 
  4  3  2  0  0  0  0 
  5 12  1  0  0  0  0 
  6  2  1  0  0  0  0 
  7  1  1  0  0  0  0 
  9  2  1  0  0  0  0 
 11  4  1  0  0  0  0 
 13  6  1  0  0  0  0 
M  END 
>  <HBA> 
3 
 
>  <HBD> 
2 
 
>  <TPSA> 
81.89 
 
>  <cid> 
69811 
 
>  <dipole> 
2.77 
 
>  <excitation_energy_1> 
5.161 
 
>  <excitation_energy_2> 
5.843 
 
>  <excitation_energy_3> 
5.989 
 
>  <excitation_energy_4> 
6.163 
 
>  <homo_energy> 
-6.825 
 
>  <homo_lumo_gap> 
6.697 
 
>  <logP> 
0.492 
 
>  <lumo_energy> 
-0.128 
 
>  <melting_point> 
71.33 
 
>  <molecular_refractivity> 
27.37 
 
>  <oscillator_strength_1> 
0.0071 
 
>  <oscillator_strength_2> 
0.0181 
 
>  <oscillator_strength_3> 
0.0151 
 
>  <oscillator_strength_4> 
0.0087 
 
>  <open_babel_can_smiles> 
OC(=N)CCS 
 
>  <mulliken_charges> 
13 
1   -0.351698 
2   -0.418286 
3   0.474377 
4   -0.570528 
5   -0.568858 
6   -0.062237 
7   0.159428 
8   0.169544 
9   0.197747 
10   0.181767 
11   0.283852 
12   0.407758 
13   0.097135 
 
>  <lowdin_charges> 
13 
1   -0.315927 
2   -0.373911 
3   0.12529 
4   -0.387853 
5   -0.367188 
6   -0.069727 
7   0.159952 
8   0.164188 
9   0.171613 
10   0.167419 
11   0.256759 
12   0.356214 
13   0.113171 
 
$$$$ 
 
