PCCDB-ID:  6416 
public computational chemistry database (PCCDB) project, http://pccdb.org 
 
 19 18  0  0  0  0  0  0  0  0999 V2000 
    1.3551   -0.1267    0.8875 C   0  0  0  0  0  0  0  0  0  0  0  0 
    3.9073    1.4765    1.0064 C   0  0  0  0  0  0  0  0  0  0  0  0 
    4.2592    1.0804   -1.4603 C   0  0  0  0  0  0  0  0  0  0  0  0 
    2.3532    2.5320   -0.6817 C   0  0  0  0  0  0  0  0  0  0  0  0 
    2.2605    0.0641   -0.3234 C   0  0  0  0  0  0  0  0  0  0  0  0 
    3.2094    1.2831   -0.3562 C   0  0  0  0  0  0  0  0  0  0  0  0 
    2.2211   -0.7271   -1.2472 O   0  0  0  0  0  0  0  0  0  0  0  0 
    0.9000    0.8104    1.2247 H   0  0  0  0  0  0  0  0  0  0  0  0 
    1.9394   -0.5213    1.7282 H   0  0  0  0  0  0  0  0  0  0  0  0 
    0.5759   -0.8496    0.6373 H   0  0  0  0  0  0  0  0  0  0  0  0 
    4.5919    2.3311    0.9543 H   0  0  0  0  0  0  0  0  0  0  0  0 
    4.4983    0.5950    1.2828 H   0  0  0  0  0  0  0  0  0  0  0  0 
    3.1948    1.6751    1.8141 H   0  0  0  0  0  0  0  0  0  0  0  0 
    4.9162    1.9559   -1.5224 H   0  0  0  0  0  0  0  0  0  0  0  0 
    3.7838    0.9292   -2.4327 H   0  0  0  0  0  0  0  0  0  0  0  0 
    4.8799    0.2006   -1.2591 H   0  0  0  0  0  0  0  0  0  0  0  0 
    2.9993    3.4152   -0.7515 H   0  0  0  0  0  0  0  0  0  0  0  0 
    1.6020    2.7311    0.0906 H   0  0  0  0  0  0  0  0  0  0  0  0 
    1.8358    2.4160   -1.6406 H   0  0  0  0  0  0  0  0  0  0  0  0 
  1  8  1  0  0  0  0 
  1  9  1  0  0  0  0 
  2 12  1  0  0  0  0 
  2 13  1  0  0  0  0 
  3 16  1  0  0  0  0 
  3  6  1  0  0  0  0 
  4  6  1  0  0  0  0 
  4 18  1  0  0  0  0 
  5  1  1  0  0  0  0 
  6  5  1  0  0  0  0 
  6  2  1  0  0  0  0 
  7  5  2  0  0  0  0 
 10  1  1  0  0  0  0 
 11  2  1  0  0  0  0 
 14  3  1  0  0  0  0 
 15  3  1  0  0  0  0 
 17  4  1  0  0  0  0 
 19  4  1  0  0  0  0 
M  END 
>  <HBA> 
1 
 
>  <HBD> 
0 
 
>  <TPSA> 
17.07 
 
>  <cid> 
6416 
 
>  <dipole> 
2.67 
 
>  <excitation_energy_1> 
4.318 
 
>  <excitation_energy_2> 
5.987 
 
>  <excitation_energy_3> 
6.587 
 
>  <excitation_energy_4> 
6.778 
 
>  <homo_energy> 
-6.463 
 
>  <homo_lumo_gap> 
6.199 
 
>  <logP> 
1.621 
 
>  <lumo_energy> 
-0.264 
 
>  <melting_point> 
13.51 
 
>  <molecular_refractivity> 
30.9 
 
>  <oscillator_strength_1> 
0.0002 
 
>  <oscillator_strength_2> 
0.0131 
 
>  <oscillator_strength_3> 
0.0588 
 
>  <oscillator_strength_4> 
0.004 
 
>  <open_babel_can_smiles> 
CC(=O)C(C)(C)C 
 
>  <mulliken_charges> 
19 
1   -0.538508 
2   -0.457724 
3   -0.434209 
4   -0.454992 
5   0.460779 
6   0.009902 
7   -0.443389 
8   0.163331 
9   0.175498 
10   0.178923 
11   0.150131 
12   0.149553 
13   0.1449 
14   0.131509 
15   0.162503 
16   0.147089 
17   0.152063 
18   0.143335 
19   0.159306 
 
>  <lowdin_charges> 
19 
1   -0.47934 
2   -0.44558 
3   -0.43878 
4   -0.439747 
5   0.166009 
6   -0.01759 
7   -0.235774 
8   0.163461 
9   0.174865 
10   0.174065 
11   0.154893 
12   0.152199 
13   0.150533 
14   0.145425 
15   0.160824 
16   0.153793 
17   0.155163 
18   0.14875 
19   0.156833 
 
$$$$ 
 
