PCCDB-ID:  25006 
public computational chemistry database (PCCDB) project, http://pccdb.org 
 
 24 23  0  0  1  0  0  0  0  0999 V2000 
    1.0113    0.2775   -0.5739 C   0  0  0  0  0  0  0  0  0  0  0  0 
    2.2623    0.3842    2.2883 C   0  0  0  0  0  0  0  0  0  0  0  0 
    5.3305    1.2923    1.9532 C   0  0  0  0  0  0  0  0  0  0  0  0 
    2.4176   -0.2014   -0.1931 C   0  0  0  0  0  0  0  0  0  0  0  0 
    4.8362   -1.1736    1.7060 C   0  0  0  0  0  0  0  0  0  0  0  0 
    3.0594    0.5664    0.9839 C   0  0  2  0  0  0  0  0  0  0  0  0 
    4.5722    0.2329    1.1396 C   0  0  1  0  0  0  0  0  0  0  0  0 
    6.2178   -1.5274    1.6830 O   0  0  0  0  0  0  0  0  0  0  0  0 
    0.6468   -0.2494   -1.4632 H   0  0  0  0  0  0  0  0  0  0  0  0 
    1.0074    1.3514   -0.7997 H   0  0  0  0  0  0  0  0  0  0  0  0 
    0.2854    0.1044    0.2279 H   0  0  0  0  0  0  0  0  0  0  0  0 
    1.2543    0.8009    2.1956 H   0  0  0  0  0  0  0  0  0  0  0  0 
    2.7440    0.8894    3.1322 H   0  0  0  0  0  0  0  0  0  0  0  0 
    2.1558   -0.6758    2.5507 H   0  0  0  0  0  0  0  0  0  0  0  0 
    6.3863    1.0197    2.0403 H   0  0  0  0  0  0  0  0  0  0  0  0 
    4.9306    1.3834    2.9703 H   0  0  0  0  0  0  0  0  0  0  0  0 
    5.2640    2.2781    1.4779 H   0  0  0  0  0  0  0  0  0  0  0  0 
    3.0714   -0.1006   -1.0710 H   0  0  0  0  0  0  0  0  0  0  0  0 
    2.3800   -1.2756    0.0364 H   0  0  0  0  0  0  0  0  0  0  0  0 
    4.2372   -1.9266    1.1707 H   0  0  0  0  0  0  0  0  0  0  0  0 
    4.5499   -1.2212    2.7618 H   0  0  0  0  0  0  0  0  0  0  0  0 
    3.0158    1.6352    0.7212 H   0  0  0  0  0  0  0  0  0  0  0  0 
    4.9948    0.2416    0.1201 H   0  0  0  0  0  0  0  0  0  0  0  0 
    6.5014   -1.5248    0.7550 H   0  0  0  0  0  0  0  0  0  0  0  0 
  1  4  1  0  0  0  0 
  1 11  1  0  0  0  0 
  2 14  1  0  0  0  0 
  2 13  1  0  0  0  0 
  3 15  1  0  0  0  0 
  3 16  1  0  0  0  0 
  4 19  1  0  0  0  0 
  4  6  1  0  0  0  0 
  5 21  1  0  0  0  0 
  6 22  1  6  0  0  0 
  6  7  1  0  0  0  0 
  6  2  1  0  0  0  0 
  7 23  1  6  0  0  0 
  7  5  1  0  0  0  0 
  7  3  1  0  0  0  0 
  8  5  1  0  0  0  0 
  9  1  1  0  0  0  0 
 10  1  1  0  0  0  0 
 12  2  1  0  0  0  0 
 17  3  1  0  0  0  0 
 18  4  1  0  0  0  0 
 20  5  1  0  0  0  0 
 24  8  1  0  0  0  0 
M  END 
>  <HBA> 
1 
 
>  <HBD> 
1 
 
>  <TPSA> 
20.23 
 
>  <cid> 
25006 
 
>  <dipole> 
1.72 
 
>  <excitation_energy_1> 
6.322 
 
>  <excitation_energy_2> 
6.97 
 
>  <excitation_energy_3> 
7.166 
 
>  <excitation_energy_4> 
7.284 
 
>  <homo_energy> 
-7.015 
 
>  <homo_lumo_gap> 
9.04 
 
>  <logP> 
1.661 
 
>  <lumo_energy> 
2.025 
 
>  <melting_point> 
-8.61 
 
>  <molecular_refractivity> 
36.92 
 
>  <oscillator_strength_1> 
0.0031 
 
>  <oscillator_strength_2> 
0.0087 
 
>  <oscillator_strength_3> 
0.0114 
 
>  <oscillator_strength_4> 
0.0004 
 
>  <open_babel_can_smiles> 
CC[C@H]([C@H](CO)C)C 
 
>  <mulliken_charges> 
24 
1   -0.448857 
2   -0.463836 
3   -0.452179 
4   -0.255338 
5   -0.034314 
6   -0.065757 
7   -0.101315 
8   -0.618153 
9   0.142969 
10   0.141675 
11   0.147555 
12   0.147334 
13   0.147455 
14   0.143229 
15   0.159522 
16   0.141211 
17   0.13649 
18   0.126683 
19   0.130981 
20   0.122048 
21   0.145988 
22   0.118065 
23   0.103812 
24   0.384733 
 
>  <lowdin_charges> 
24 
1   -0.446074 
2   -0.449842 
3   -0.446735 
4   -0.274998 
5   -0.139423 
6   -0.123368 
7   -0.142358 
8   -0.466546 
9   0.151112 
10   0.144661 
11   0.149057 
12   0.151159 
13   0.151602 
14   0.145225 
15   0.15707 
16   0.145285 
17   0.145497 
18   0.139027 
19   0.135995 
20   0.128737 
21   0.145282 
22   0.135016 
23   0.127591 
24   0.337029 
 
$$$$ 
 
