PCCDB-ID:  69088 
public computational chemistry database (PCCDB) project, http://pccdb.org 
 
 21 22  0  0  0  0  0  0  0  0999 V2000 
    0.9657   -0.1510    0.0572 C   0  0  0  0  0  0  0  0  0  0  0  0 
    3.3325    3.5345    0.0151 C   0  0  0  0  0  0  0  0  0  0  0  0 
    4.7438    3.4600   -0.0173 C   0  0  0  0  0  0  0  0  0  0  0  0 
    2.5779    2.3801    0.0279 C   0  0  0  0  0  0  0  0  0  0  0  0 
    5.3781    2.2368   -0.0360 C   0  0  0  0  0  0  0  0  0  0  0  0 
    3.1929   -1.2995   -0.0002 C   0  0  0  0  0  0  0  0  0  0  0  0 
    2.4724   -0.1296    0.0206 C   0  0  0  0  0  0  0  0  0  0  0  0 
    3.1994    1.1053    0.0081 C   0  0  0  0  0  0  0  0  0  0  0  0 
    4.6289    1.0321   -0.0240 C   0  0  0  0  0  0  0  0  0  0  0  0 
    4.6176   -1.2517   -0.0338 C   0  0  0  0  0  0  0  0  0  0  0  0 
    5.3161   -0.1479   -0.0449 N   0  0  0  0  0  0  0  0  0  0  0  0 
    5.3424   -2.4041   -0.0572 O   0  0  0  0  0  0  0  0  0  0  0  0 
    0.5850   -1.1764    0.0452 H   0  0  0  0  0  0  0  0  0  0  0  0 
    0.5379    0.3779   -0.8030 H   0  0  0  0  0  0  0  0  0  0  0  0 
    0.5820    0.3407    0.9596 H   0  0  0  0  0  0  0  0  0  0  0  0 
    2.8427    4.5042    0.0291 H   0  0  0  0  0  0  0  0  0  0  0  0 
    5.3302    4.3751   -0.0271 H   0  0  0  0  0  0  0  0  0  0  0  0 
    1.4942    2.4457    0.0518 H   0  0  0  0  0  0  0  0  0  0  0  0 
    6.4599    2.1533   -0.0612 H   0  0  0  0  0  0  0  0  0  0  0  0 
    2.6800   -2.2596    0.0090 H   0  0  0  0  0  0  0  0  0  0  0  0 
    4.7337   -3.1587   -0.0458 H   0  0  0  0  0  0  0  0  0  0  0  0 
  1 15  1  0  0  0  0 
  2  4  1  0  0  0  0 
  2 16  1  0  0  0  0 
  3  2  2  0  0  0  0 
  4 18  1  0  0  0  0 
  5  9  2  0  0  0  0 
  5  3  1  0  0  0  0 
  6 20  1  0  0  0  0 
  6  7  2  0  0  0  0 
  7  1  1  0  0  0  0 
  8  7  1  0  0  0  0 
  8  4  2  0  0  0  0 
  9  8  1  0  0  0  0 
 10  6  1  0  0  0  0 
 11 10  2  0  0  0  0 
 11  9  1  0  0  0  0 
 12 21  1  0  0  0  0 
 12 10  1  0  0  0  0 
 13  1  1  0  0  0  0 
 14  1  1  0  0  0  0 
 17  3  1  0  0  0  0 
 19  5  1  0  0  0  0 
M  END 
>  <HBA> 
1 
 
>  <HBD> 
1 
 
>  <TPSA> 
32.86 
 
>  <cid> 
69088 
 
>  <dipole> 
3.74 
 
>  <excitation_energy_1> 
4.18 
 
>  <excitation_energy_2> 
4.55 
 
>  <excitation_energy_3> 
4.641 
 
>  <excitation_energy_4> 
5.334 
 
>  <homo_energy> 
-5.97 
 
>  <homo_lumo_gap> 
4.762 
 
>  <logP> 
1.837 
 
>  <lumo_energy> 
-1.208 
 
>  <melting_point> 
135.21 
 
>  <molecular_refractivity> 
49.53 
 
>  <oscillator_strength_1> 
0.0644 
 
>  <oscillator_strength_2> 
0.033 
 
>  <oscillator_strength_3> 
0.001 
 
>  <oscillator_strength_4> 
0.0001 
 
>  <open_babel_can_smiles> 
Oc1cc(C)c2c(n1)cccc2 
 
>  <mulliken_charges> 
21 
1   -0.53786 
2   -0.133909 
3   -0.134432 
4   -0.202439 
5   -0.151044 
6   -0.287913 
7   0.177546 
8   0.096435 
9   0.240416 
10   0.5201 
11   -0.550796 
12   -0.604079 
13   0.159918 
14   0.172911 
15   0.173284 
16   0.129421 
17   0.13265 
18   0.127368 
19   0.144513 
20   0.119957 
21   0.407951 
 
>  <lowdin_charges> 
21 
1   -0.443163 
2   -0.163461 
3   -0.150696 
4   -0.157894 
5   -0.154606 
6   -0.235995 
7   0.035552 
8   -0.038767 
9   0.053887 
10   0.135844 
11   -0.172748 
12   -0.357503 
13   0.159463 
14   0.167669 
15   0.167659 
16   0.158161 
17   0.160391 
18   0.15627 
19   0.167865 
20   0.154655 
21   0.357416 
 
$$$$ 
 
