PCCDB-ID:  35285 
public computational chemistry database (PCCDB) project, http://pccdb.org 
 
 24 25  0  0  0  0  0  0  0  0999 V2000 
   -0.7142    1.1388    0.0595 C   0  0  0  0  0  0  0  0  0  0  0  0 
    1.4035   -0.0242   -0.1601 C   0  0  0  0  0  0  0  0  0  0  0  0 
   -1.3881   -0.0766    0.0512 C   0  0  0  0  0  0  0  0  0  0  0  0 
    0.7400   -1.2475   -0.1645 C   0  0  0  0  0  0  0  0  0  0  0  0 
    0.6843    1.1773   -0.0578 C   0  0  0  0  0  0  0  0  0  0  0  0 
   -0.6484   -1.2522   -0.0656 C   0  0  0  0  0  0  0  0  0  0  0  0 
    1.3552    2.5051   -0.0492 C   0  0  0  0  0  0  0  0  0  0  0  0 
    3.3411    3.7758   -0.6866 C   0  0  0  0  0  0  0  0  0  0  0  0 
    1.3836    4.7639    0.4968 C   0  0  0  0  0  0  0  0  0  0  0  0 
    4.4832    3.9576   -1.2222 N   0  0  0  0  0  0  0  0  0  0  0  0 
    2.6011    2.5806   -0.6327 N   0  0  0  0  0  0  0  0  0  0  0  0 
    0.7517    3.5109    0.4964 N   0  0  0  0  0  0  0  0  0  0  0  0 
    2.6708    4.8095   -0.0595 N   0  0  0  0  0  0  0  0  0  0  0  0 
   -1.3567   -2.5465   -0.0776 N   0  0  0  0  0  0  0  0  0  0  0  0 
    0.8738    5.7629    0.9572 O   0  0  0  0  0  0  0  0  0  0  0  0 
   -2.5820   -2.5236    0.0150 O   0  0  0  0  0  0  0  0  0  0  0  0 
   -0.6754   -3.5652   -0.1809 O   0  0  0  0  0  0  0  0  0  0  0  0 
   -1.2530    2.0740    0.1587 H   0  0  0  0  0  0  0  0  0  0  0  0 
    2.4891   -0.0239   -0.1950 H   0  0  0  0  0  0  0  0  0  0  0  0 
   -2.4668   -0.1284    0.1323 H   0  0  0  0  0  0  0  0  0  0  0  0 
    1.2758   -2.1858   -0.2330 H   0  0  0  0  0  0  0  0  0  0  0  0 
    4.8596    3.1035   -1.6338 H   0  0  0  0  0  0  0  0  0  0  0  0 
    2.9560    1.7959   -1.1606 H   0  0  0  0  0  0  0  0  0  0  0  0 
    3.1354    5.7097   -0.0647 H   0  0  0  0  0  0  0  0  0  0  0  0 
  1 18  1  0  0  0  0 
  2  5  1  0  0  0  0 
  3  1  1  0  0  0  0 
  3 20  1  0  0  0  0 
  4  2  2  0  0  0  0 
  4  6  1  0  0  0  0 
  5  7  1  0  0  0  0 
  5  1  2  0  0  0  0 
  6  3  2  0  0  0  0 
  7 12  2  0  0  0  0 
  8 11  1  0  0  0  0 
  8 13  1  0  0  0  0 
  9 15  2  0  0  0  0 
 10  8  2  0  0  0  0 
 11  7  1  0  0  0  0 
 12  9  1  0  0  0  0 
 13  9  1  0  0  0  0 
 14  6  1  0  0  0  0 
 14 16  2  0  0  0  0 
 17 14  2  0  0  0  0 
 19  2  1  0  0  0  0 
 21  4  1  0  0  0  0 
 22 10  1  0  0  0  0 
 23 11  1  0  0  0  0 
 24 13  1  0  0  0  0 
M  END 
>  <HBA> 
4 
 
>  <HBD> 
2 
 
>  <TPSA> 
130.48 
 
>  <cid> 
35285 
 
>  <dipole> 
4.34 
 
>  <excitation_energy_1> 
3.47 
 
>  <excitation_energy_2> 
3.65 
 
>  <excitation_energy_3> 
3.761 
 
>  <excitation_energy_4> 
4.055 
 
>  <homo_energy> 
-7.189 
 
>  <homo_lumo_gap> 
3.989 
 
>  <logP> 
1.427 
 
>  <lumo_energy> 
-3.2 
 
>  <melting_point> 
244.27 
 
>  <molecular_refractivity> 
61.32 
 
>  <oscillator_strength_1> 
0.0072 
 
>  <oscillator_strength_2> 
0.0 
 
>  <oscillator_strength_3> 
0.0102 
 
>  <oscillator_strength_4> 
0.1024 
 
>  <open_babel_can_smiles> 
O=N(=O)c1ccc(cc1)c1nc(=O)[nH]c(=N)[nH]1 
 
>  <mulliken_charges> 
24 
1   -0.158397 
2   -0.197147 
3   -0.154533 
4   -0.154287 
5   0.104577 
6   0.285548 
7   0.517353 
8   0.696745 
9   0.706516 
10   -0.634503 
11   -0.709078 
12   -0.51954 
13   -0.655961 
14   0.384714 
15   -0.472511 
16   -0.382924 
17   -0.387625 
18   0.197596 
19   0.149332 
20   0.197564 
21   0.19413 
22   0.282834 
23   0.345639 
24   0.363958 
 
>  <lowdin_charges> 
24 
1   -0.118174 
2   -0.153199 
3   -0.127794 
4   -0.133096 
5   -0.006389 
6   0.015878 
7   0.131949 
8   0.136605 
9   0.185023 
10   -0.438247 
11   -0.243438 
12   -0.205347 
13   -0.240818 
14   0.305462 
15   -0.255966 
16   -0.231626 
17   -0.238811 
18   0.194613 
19   0.163473 
20   0.19316 
21   0.193491 
22   0.25931 
23   0.299789 
24   0.314151 
 
$$$$ 
 
