PCCDB-ID:  33023 
public computational chemistry database (PCCDB) project, http://pccdb.org 
 
 36 35  0  0  1  0  0  0  0  0999 V2000 
    5.0254   -2.1889   -1.7272 C   0  0  0  0  0  0  0  0  0  0  0  0 
    8.4517    1.0248   -0.1748 C   0  0  0  0  0  0  0  0  0  0  0  0 
    3.1670    0.1966    1.5659 C   0  0  0  0  0  0  0  0  0  0  0  0 
    6.4630    3.3569   -3.9632 C   0  0  0  0  0  0  0  0  0  0  0  0 
    4.4745   -3.6595    0.2836 C   0  0  0  0  0  0  0  0  0  0  0  0 
    7.4231    2.1210   -2.2089 C   0  0  0  0  0  0  0  0  0  0  0  0 
    5.3339    0.9759    0.5142 C   0  0  0  0  0  0  0  0  0  0  0  0 
    4.2634   -2.3088   -0.4082 C   0  0  1  0  0  0  0  0  0  0  0  0 
    7.2242    1.7387   -0.7482 C   0  0  1  0  0  0  0  0  0  0  0  0 
    4.1844   -0.0226    0.4446 C   0  0  1  0  0  0  0  0  0  0  0  0 
    5.8265   -3.8429    0.6712 O   0  0  0  0  0  0  0  0  0  0  0  0 
    6.3941    3.0067   -2.5990 O   0  0  0  0  0  0  0  0  0  0  0  0 
    6.0726    0.8989   -0.6885 O   0  0  0  0  0  0  0  0  0  0  0  0 
    4.7263   -1.3420    0.5449 O   0  0  0  0  0  0  0  0  0  0  0  0 
    4.9773   -1.1690   -2.1183 H   0  0  0  0  0  0  0  0  0  0  0  0 
    4.6075   -2.8740   -2.4748 H   0  0  0  0  0  0  0  0  0  0  0  0 
    6.0760   -2.4460   -1.5658 H   0  0  0  0  0  0  0  0  0  0  0  0 
    9.3270    1.6844   -0.1685 H   0  0  0  0  0  0  0  0  0  0  0  0 
    8.6871    0.1345   -0.7682 H   0  0  0  0  0  0  0  0  0  0  0  0 
    8.2667    0.7023    0.8548 H   0  0  0  0  0  0  0  0  0  0  0  0 
    2.7007    1.1860    1.4955 H   0  0  0  0  0  0  0  0  0  0  0  0 
    3.6508    0.1070    2.5452 H   0  0  0  0  0  0  0  0  0  0  0  0 
    2.3759   -0.5585    1.5122 H   0  0  0  0  0  0  0  0  0  0  0  0 
    5.6309    4.0370   -4.1647 H   0  0  0  0  0  0  0  0  0  0  0  0 
    6.3693    2.4745   -4.6170 H   0  0  0  0  0  0  0  0  0  0  0  0 
    7.4086    3.8681   -4.2096 H   0  0  0  0  0  0  0  0  0  0  0  0 
    4.2246   -4.4793   -0.3984 H   0  0  0  0  0  0  0  0  0  0  0  0 
    3.8014   -3.7196    1.1540 H   0  0  0  0  0  0  0  0  0  0  0  0 
    7.4087    1.2058   -2.8248 H   0  0  0  0  0  0  0  0  0  0  0  0 
    8.4115    2.5961   -2.3376 H   0  0  0  0  0  0  0  0  0  0  0  0 
    5.9558    0.7360    1.3919 H   0  0  0  0  0  0  0  0  0  0  0  0 
    4.9350    1.9946    0.6512 H   0  0  0  0  0  0  0  0  0  0  0  0 
    3.1829   -2.1717   -0.5779 H   0  0  0  0  0  0  0  0  0  0  0  0 
    7.0310    2.6653   -0.1855 H   0  0  0  0  0  0  0  0  0  0  0  0 
    3.6970    0.1030   -0.5315 H   0  0  0  0  0  0  0  0  0  0  0  0 
    6.0649   -3.0292    1.1469 H   0  0  0  0  0  0  0  0  0  0  0  0 
  1 17  1  0  0  0  0 
  1  8  1  0  0  0  0 
  2 18  1  0  0  0  0 
  2 20  1  0  0  0  0 
  3 22  1  0  0  0  0 
  4 12  1  0  0  0  0 
  5 11  1  0  0  0  0 
  5 28  1  0  0  0  0 
  6  9  1  0  0  0  0 
  7 32  1  0  0  0  0 
  7 31  1  0  0  0  0 
  8 33  1  6  0  0  0 
  8  5  1  0  0  0  0 
  8 14  1  0  0  0  0 
  9 13  1  0  0  0  0 
  9 34  1  1  0  0  0 
  9  2  1  0  0  0  0 
 10 35  1  6  0  0  0 
 10  7  1  0  0  0  0 
 10 14  1  0  0  0  0 
 10  3  1  0  0  0  0 
 11 36  1  0  0  0  0 
 12  6  1  0  0  0  0 
 13  7  1  0  0  0  0 
 15  1  1  0  0  0  0 
 16  1  1  0  0  0  0 
 19  2  1  0  0  0  0 
 21  3  1  0  0  0  0 
 23  3  1  0  0  0  0 
 24  4  1  0  0  0  0 
 25  4  1  0  0  0  0 
 26  4  1  0  0  0  0 
 27  5  1  0  0  0  0 
 29  6  1  0  0  0  0 
 30  6  1  0  0  0  0 
M  END 
>  <HBA> 
4 
 
>  <HBD> 
1 
 
>  <TPSA> 
47.92 
 
>  <cid> 
33023 
 
>  <dipole> 
2.44 
 
>  <excitation_energy_1> 
6.323 
 
>  <excitation_energy_2> 
6.403 
 
>  <excitation_energy_3> 
6.494 
 
>  <excitation_energy_4> 
6.54 
 
>  <homo_energy> 
-6.661 
 
>  <homo_lumo_gap> 
8.893 
 
>  <logP> 
0.824 
 
>  <lumo_energy> 
2.231 
 
>  <melting_point> 
-37.45 
 
>  <molecular_refractivity> 
54.6 
 
>  <oscillator_strength_1> 
0.0137 
 
>  <oscillator_strength_2> 
0.0152 
 
>  <oscillator_strength_3> 
0.0123 
 
>  <oscillator_strength_4> 
0.0012 
 
>  <open_babel_can_smiles> 
C[C@H](O[C@H](CO)C)CO[C@H](COC)C 
 
>  <mulliken_charges> 
36 
1   -0.450395 
2   -0.461565 
3   -0.455866 
4   -0.190353 
5   -0.027335 
6   -0.009012 
7   -0.003869 
8   0.120058 
9   0.138613 
10   0.127898 
11   -0.624759 
12   -0.462332 
13   -0.485421 
14   -0.514967 
15   0.163767 
16   0.130325 
17   0.163116 
18   0.142357 
19   0.157606 
20   0.153876 
21   0.143523 
22   0.151741 
23   0.15275 
24   0.157257 
25   0.131492 
26   0.126846 
27   0.138068 
28   0.120543 
29   0.129635 
30   0.114429 
31   0.12239 
32   0.123707 
33   0.11083 
34   0.125716 
35   0.137675 
36   0.401657 
 
>  <lowdin_charges> 
36 
1   -0.461095 
2   -0.457205 
3   -0.454173 
4   -0.279247 
5   -0.141122 
6   -0.136945 
7   -0.137462 
8   -0.009358 
9   0.001177 
10   0.002419 
11   -0.469532 
12   -0.267409 
13   -0.265821 
14   -0.285523 
15   0.159443 
16   0.148104 
17   0.159921 
18   0.152748 
19   0.157399 
20   0.155795 
21   0.152092 
22   0.153763 
23   0.157105 
24   0.155341 
25   0.13299 
26   0.129583 
27   0.147084 
28   0.129262 
29   0.134623 
30   0.126891 
31   0.131054 
32   0.131786 
33   0.125167 
34   0.135142 
35   0.141552 
36   0.344451 
 
$$$$ 
 
