PCCDB-ID:  9070 
public computational chemistry database (PCCDB) project, http://pccdb.org 
 
 28 28  0  0  0  0  0  0  0  0999 V2000 
    0.4169    1.9154    0.1522 C   0  0  0  0  0  0  0  0  0  0  0  0 
    1.5798   -2.8594    1.2957 C   0  0  0  0  0  0  0  0  0  0  0  0 
    2.7110    0.9656   -0.3608 C   0  0  0  0  0  0  0  0  0  0  0  0 
    3.6224   -0.0878   -0.3603 C   0  0  0  0  0  0  0  0  0  0  0  0 
    4.3522   -2.4313    0.1889 C   0  0  0  0  0  0  0  0  0  0  0  0 
    5.2110   -2.4062    1.4769 C   0  0  0  0  0  0  0  0  0  0  0  0 
    1.1079   -0.4606    0.7025 C   0  0  0  0  0  0  0  0  0  0  0  0 
    1.4294    0.7937    0.1727 C   0  0  0  0  0  0  0  0  0  0  0  0 
    2.0116   -1.5300    0.7148 C   0  0  0  0  0  0  0  0  0  0  0  0 
    3.3001   -1.3436    0.1711 C   0  0  0  0  0  0  0  0  0  0  0  0 
    7.2260   -3.1275    0.3929 N   0  0  0  0  0  0  0  0  0  0  0  0 
    6.3180   -3.3667    1.5410 N   0  0  0  0  0  0  0  0  0  0  0  0 
    0.8868    2.8844    0.3554 H   0  0  0  0  0  0  0  0  0  0  0  0 
   -0.3697    1.7597    0.8981 H   0  0  0  0  0  0  0  0  0  0  0  0 
   -0.0738    1.9947   -0.8274 H   0  0  0  0  0  0  0  0  0  0  0  0 
    0.5623   -2.7981    1.6941 H   0  0  0  0  0  0  0  0  0  0  0  0 
    2.2338   -3.1878    2.1127 H   0  0  0  0  0  0  0  0  0  0  0  0 
    1.5896   -3.6559    0.5403 H   0  0  0  0  0  0  0  0  0  0  0  0 
    2.9976    1.9270   -0.7821 H   0  0  0  0  0  0  0  0  0  0  0  0 
    4.6128    0.0633   -0.7858 H   0  0  0  0  0  0  0  0  0  0  0  0 
    3.8909   -3.4233    0.0974 H   0  0  0  0  0  0  0  0  0  0  0  0 
    5.0260   -2.3205   -0.6665 H   0  0  0  0  0  0  0  0  0  0  0  0 
    4.5845   -2.5961    2.3570 H   0  0  0  0  0  0  0  0  0  0  0  0 
    5.6336   -1.4012    1.6123 H   0  0  0  0  0  0  0  0  0  0  0  0 
    0.1152   -0.6135    1.1230 H   0  0  0  0  0  0  0  0  0  0  0  0 
    7.6515   -2.2228    0.6169 H   0  0  0  0  0  0  0  0  0  0  0  0 
    7.9944   -3.7829    0.5596 H   0  0  0  0  0  0  0  0  0  0  0  0 
    5.9182   -4.2848    1.3318 H   0  0  0  0  0  0  0  0  0  0  0  0 
  1  8  1  0  0  0  0 
  1 13  1  0  0  0  0 
  1 14  1  0  0  0  0 
  2 16  1  0  0  0  0 
  2 17  1  0  0  0  0 
  3  4  2  0  0  0  0 
  3  8  1  0  0  0  0 
  4 10  1  0  0  0  0 
  5  6  1  0  0  0  0 
  6 12  1  0  0  0  0 
  6 24  1  0  0  0  0 
  6 23  1  0  0  0  0 
  7  9  1  0  0  0  0 
  7 25  1  0  0  0  0 
  8  7  2  0  0  0  0 
  9  2  1  0  0  0  0 
 10  5  1  0  0  0  0 
 10  9  2  0  0  0  0 
 11 27  1  0  0  0  0 
 11 26  1  0  0  0  0 
 11 12  1  0  0  0  0 
 15  1  1  0  0  0  0 
 18  2  1  0  0  0  0 
 19  3  1  0  0  0  0 
 20  4  1  0  0  0  0 
 21  5  1  0  0  0  0 
 22  5  1  0  0  0  0 
 28 12  1  0  0  0  0 
M  END 
>  <HBA> 
2 
 
>  <HBD> 
2 
 
>  <TPSA> 
38.05 
 
>  <cid> 
9070 
 
>  <dipole> 
0.43 
 
>  <excitation_energy_1> 
4.61 
 
>  <excitation_energy_2> 
4.785 
 
>  <excitation_energy_3> 
4.866 
 
>  <excitation_energy_4> 
5.153 
 
>  <homo_energy> 
-5.197 
 
>  <homo_lumo_gap> 
5.407 
 
>  <logP> 
2.4 
 
>  <lumo_energy> 
0.21 
 
>  <melting_point> 
97.59 
 
>  <molecular_refractivity> 
51.66 
 
>  <oscillator_strength_1> 
0.0045 
 
>  <oscillator_strength_2> 
0.01 
 
>  <oscillator_strength_3> 
0.0898 
 
>  <oscillator_strength_4> 
0.0265 
 
>  <open_babel_can_smiles> 
NNCCc1ccc(cc1C)C 
 
>  <mulliken_charges> 
28 
1   -0.530448 
2   -0.54054 
3   -0.18181 
4   -0.184962 
5   -0.356012 
6   -0.139916 
7   -0.246074 
8   0.188591 
9   0.138937 
10   0.113676 
11   -0.598711 
12   -0.455872 
13   0.155467 
14   0.153508 
15   0.162718 
16   0.154307 
17   0.157363 
18   0.161413 
19   0.116122 
20   0.119292 
21   0.127464 
22   0.172518 
23   0.148649 
24   0.141465 
25   0.110186 
26   0.303816 
27   0.305973 
28   0.30288 
 
>  <lowdin_charges> 
28 
1   -0.441696 
2   -0.444496 
3   -0.171851 
4   -0.163787 
5   -0.294321 
6   -0.214554 
7   -0.178271 
8   -0.00333 
9   -0.008296 
10   -0.016956 
11   -0.498465 
12   -0.315349 
13   0.156947 
14   0.156455 
15   0.1597 
16   0.155597 
17   0.156503 
18   0.158748 
19   0.151798 
20   0.151713 
21   0.143021 
22   0.164081 
23   0.148705 
24   0.141363 
25   0.148059 
26   0.252541 
27   0.255966 
28   0.250176 
 
$$$$ 
 
