PCCDB-ID:  30537 
public computational chemistry database (PCCDB) project, http://pccdb.org 
 
 31 32  0  0  0  0  0  0  0  0999 V2000 
    0.7294    0.4906    0.2932 C   0  0  0  0  0  0  0  0  0  0  0  0 
    5.6550    1.5394    0.6564 C   0  0  0  0  0  0  0  0  0  0  0  0 
    4.1238   -2.8568   -1.3847 C   0  0  0  0  0  0  0  0  0  0  0  0 
    8.2949   -1.6319    2.2367 C   0  0  0  0  0  0  0  0  0  0  0  0 
    9.1156   -2.1586    1.0244 C   0  0  0  0  0  0  0  0  0  0  0  0 
    3.2181    0.9287    0.4454 C   0  0  0  0  0  0  0  0  0  0  0  0 
    2.4895   -1.1240   -0.5509 C   0  0  0  0  0  0  0  0  0  0  0  0 
    2.1678    0.0942    0.0536 C   0  0  0  0  0  0  0  0  0  0  0  0 
    4.5602    0.5832    0.2585 C   0  0  0  0  0  0  0  0  0  0  0  0 
    3.8145   -1.5249   -0.7409 C   0  0  0  0  0  0  0  0  0  0  0  0 
    4.8481   -0.6655   -0.3231 C   0  0  0  0  0  0  0  0  0  0  0  0 
    7.1128   -1.3552    0.4081 C   0  0  0  0  0  0  0  0  0  0  0  0 
    7.0309   -1.1550    1.6681 N   0  0  0  0  0  0  0  0  0  0  0  0 
    6.2003   -1.0519   -0.5684 N   0  0  0  0  0  0  0  0  0  0  0  0 
    8.2488   -1.9268   -0.1090 O   0  0  0  0  0  0  0  0  0  0  0  0 
    0.5926    1.5742    0.2067 H   0  0  0  0  0  0  0  0  0  0  0  0 
    0.3984    0.2026    1.3002 H   0  0  0  0  0  0  0  0  0  0  0  0 
    0.0546    0.0068   -0.4211 H   0  0  0  0  0  0  0  0  0  0  0  0 
    5.2443    2.5297    0.8758 H   0  0  0  0  0  0  0  0  0  0  0  0 
    6.3976    1.6414   -0.1438 H   0  0  0  0  0  0  0  0  0  0  0  0 
    6.1872    1.1702    1.5396 H   0  0  0  0  0  0  0  0  0  0  0  0 
    3.2098   -3.4415   -1.5238 H   0  0  0  0  0  0  0  0  0  0  0  0 
    4.8150   -3.4510   -0.7751 H   0  0  0  0  0  0  0  0  0  0  0  0 
    4.5848   -2.7441   -2.3770 H   0  0  0  0  0  0  0  0  0  0  0  0 
    8.8143   -0.8180    2.7583 H   0  0  0  0  0  0  0  0  0  0  0  0 
    8.1061   -2.4197    2.9767 H   0  0  0  0  0  0  0  0  0  0  0  0 
    9.3338   -3.2298    1.0739 H   0  0  0  0  0  0  0  0  0  0  0  0 
   10.0490   -1.6127    0.8560 H   0  0  0  0  0  0  0  0  0  0  0  0 
    2.9901    1.8919    0.8979 H   0  0  0  0  0  0  0  0  0  0  0  0 
    1.6900   -1.7876   -0.8746 H   0  0  0  0  0  0  0  0  0  0  0  0 
    6.3841   -1.5308   -1.4400 H   0  0  0  0  0  0  0  0  0  0  0  0 
  1 17  1  0  0  0  0 
  2 19  1  0  0  0  0 
  2 21  1  0  0  0  0 
  3 23  1  0  0  0  0 
  3 10  1  0  0  0  0 
  4 25  1  0  0  0  0 
  4 26  1  0  0  0  0 
  5 27  1  0  0  0  0 
  5  4  1  0  0  0  0 
  6 29  1  0  0  0  0 
  7  8  1  0  0  0  0 
  8  1  1  0  0  0  0 
  8  6  2  0  0  0  0 
  9  6  1  0  0  0  0 
  9  2  1  0  0  0  0 
 10  7  2  0  0  0  0 
 10 11  1  0  0  0  0 
 11  9  2  0  0  0  0 
 12 13  2  0  0  0  0 
 13  4  1  0  0  0  0 
 14 11  1  0  0  0  0 
 14 12  1  0  0  0  0 
 15 12  1  0  0  0  0 
 15  5  1  0  0  0  0 
 16  1  1  0  0  0  0 
 18  1  1  0  0  0  0 
 20  2  1  0  0  0  0 
 22  3  1  0  0  0  0 
 24  3  1  0  0  0  0 
 28  5  1  0  0  0  0 
 30  7  1  0  0  0  0 
 31 14  1  0  0  0  0 
M  END 
>  <HBA> 
3 
 
>  <HBD> 
1 
 
>  <TPSA> 
33.62 
 
>  <cid> 
30537 
 
>  <dipole> 
1.51 
 
>  <excitation_energy_1> 
4.915 
 
>  <excitation_energy_2> 
5.105 
 
>  <excitation_energy_3> 
5.215 
 
>  <excitation_energy_4> 
5.565 
 
>  <homo_energy> 
-5.657 
 
>  <homo_lumo_gap> 
5.804 
 
>  <logP> 
1.919 
 
>  <lumo_energy> 
0.147 
 
>  <melting_point> 
82.55 
 
>  <molecular_refractivity> 
66.24 
 
>  <oscillator_strength_1> 
0.0134 
 
>  <oscillator_strength_2> 
0.0839 
 
>  <oscillator_strength_3> 
0.061 
 
>  <oscillator_strength_4> 
0.0307 
 
>  <open_babel_can_smiles> 
Cc1cc(C)c(c(c1)C)NC1=NCCO1 
 
>  <mulliken_charges> 
31 
1   -0.532427 
2   -0.539387 
3   -0.548006 
4   -0.16983 
5   -0.056472 
6   -0.273081 
7   -0.274617 
8   0.214112 
9   0.210163 
10   0.192584 
11   0.165447 
12   0.718379 
13   -0.480056 
14   -0.737456 
15   -0.508053 
16   0.15569 
17   0.164957 
18   0.153199 
19   0.141926 
20   0.154765 
21   0.197877 
22   0.161336 
23   0.168966 
24   0.151334 
25   0.14822 
26   0.14953 
27   0.153478 
28   0.154811 
29   0.113348 
30   0.111462 
31   0.337802 
 
>  <lowdin_charges> 
31 
1   -0.440382 
2   -0.449307 
3   -0.446659 
4   -0.211611 
5   -0.137355 
6   -0.177482 
7   -0.184565 
8   0.00021 
9   0.009115 
10   -0.012704 
11   0.025896 
12   0.156561 
13   -0.273641 
14   -0.251633 
15   -0.230601 
16   0.15558 
17   0.160636 
18   0.157068 
19   0.150677 
20   0.159435 
21   0.178719 
22   0.161213 
23   0.163661 
24   0.151808 
25   0.146827 
26   0.147296 
27   0.147123 
28   0.149591 
29   0.151242 
30   0.151547 
31   0.291733 
 
$$$$ 
 
