PCCDB-ID:  15716 
public computational chemistry database (PCCDB) project, http://pccdb.org 
 
 25 25  0  0  1  0  0  0  0  0999 V2000 
    1.0894   -0.1157    0.5294 C   0  0  0  0  0  0  0  0  0  0  0  0 
    4.2827   -2.4897   -2.3412 C   0  0  0  0  0  0  0  0  0  0  0  0 
    5.1117    1.6404   -0.8071 C   0  0  0  0  0  0  0  0  0  0  0  0 
    3.0770   -1.1501   -0.6180 C   0  0  0  0  0  0  0  0  0  0  0  0 
    2.5826    1.2897   -0.9713 C   0  0  0  0  0  0  0  0  0  0  0  0 
    4.1119    0.0622   -2.5409 C   0  0  0  0  0  0  0  0  0  0  0  0 
    2.5206    0.1068    0.0115 C   0  0  1  0  0  0  0  0  0  0  0  0 
    3.7823   -1.1934   -1.7570 C   0  0  0  0  0  0  0  0  0  0  0  0 
    3.9177    1.3625   -1.7343 C   0  0  2  0  0  0  0  0  0  0  0  0 
    1.0535   -0.9314    1.2616 H   0  0  0  0  0  0  0  0  0  0  0  0 
    0.4115   -0.3741   -0.2934 H   0  0  0  0  0  0  0  0  0  0  0  0 
    0.7026    0.7884    1.0151 H   0  0  0  0  0  0  0  0  0  0  0  0 
    3.9758   -3.3525   -1.7411 H   0  0  0  0  0  0  0  0  0  0  0  0 
    5.3796   -2.4965   -2.4134 H   0  0  0  0  0  0  0  0  0  0  0  0 
    3.9047   -2.6363   -3.3633 H   0  0  0  0  0  0  0  0  0  0  0  0 
    4.9438    2.5423   -0.2058 H   0  0  0  0  0  0  0  0  0  0  0  0 
    6.0284    1.7936   -1.3891 H   0  0  0  0  0  0  0  0  0  0  0  0 
    5.2934    0.8062   -0.1203 H   0  0  0  0  0  0  0  0  0  0  0  0 
    2.8739   -2.0829   -0.0889 H   0  0  0  0  0  0  0  0  0  0  0  0 
    2.3986    2.2294   -0.4331 H   0  0  0  0  0  0  0  0  0  0  0  0 
    1.7668    1.1815   -1.7011 H   0  0  0  0  0  0  0  0  0  0  0  0 
    3.4849    0.0886   -3.4467 H   0  0  0  0  0  0  0  0  0  0  0  0 
    5.1472    0.0010   -2.9085 H   0  0  0  0  0  0  0  0  0  0  0  0 
    3.1421    0.3514    0.8895 H   0  0  0  0  0  0  0  0  0  0  0  0 
    3.8536    2.1963   -2.4473 H   0  0  0  0  0  0  0  0  0  0  0  0 
  1 12  1  0  0  0  0 
  1 10  1  0  0  0  0 
  2  8  1  0  0  0  0 
  2 13  1  0  0  0  0 
  3 16  1  0  0  0  0 
  3 18  1  0  0  0  0 
  4 19  1  0  0  0  0 
  4  7  1  0  0  0  0 
  5 20  1  0  0  0  0 
  5  7  1  0  0  0  0 
  6  8  1  0  0  0  0 
  6  9  1  0  0  0  0 
  7  1  1  0  0  0  0 
  7 24  1  1  0  0  0 
  8  4  2  0  0  0  0 
  9 25  1  6  0  0  0 
  9  5  1  0  0  0  0 
  9  3  1  0  0  0  0 
 11  1  1  0  0  0  0 
 14  2  1  0  0  0  0 
 15  2  1  0  0  0  0 
 17  3  1  0  0  0  0 
 21  5  1  0  0  0  0 
 22  6  1  0  0  0  0 
 23  6  1  0  0  0  0 
M  END 
>  <HBA> 
0 
 
>  <HBD> 
0 
 
>  <TPSA> 
0.0 
 
>  <cid> 
15716 
 
>  <dipole> 
0.27 
 
>  <excitation_energy_1> 
5.6 
 
>  <excitation_energy_2> 
6.078 
 
>  <excitation_energy_3> 
6.141 
 
>  <excitation_energy_4> 
6.171 
 
>  <homo_energy> 
-6.125 
 
>  <homo_lumo_gap> 
7.037 
 
>  <logP> 
2.999 
 
>  <lumo_energy> 
0.912 
 
>  <melting_point> 
7.23 
 
>  <molecular_refractivity> 
42.79 
 
>  <oscillator_strength_1> 
0.0207 
 
>  <oscillator_strength_2> 
0.0639 
 
>  <oscillator_strength_3> 
0.038 
 
>  <oscillator_strength_4> 
0.0294 
 
>  <open_babel_can_smiles> 
C[C@@H]1C[C@@H](C)C=C(C1)C 
 
>  <mulliken_charges> 
25 
1   -0.449042 
2   -0.5137 
3   -0.449657 
4   -0.164551 
5   -0.264537 
6   -0.324573 
7   -0.103392 
8   0.174409 
9   -0.082169 
10   0.138977 
11   0.144129 
12   0.138949 
13   0.150348 
14   0.149142 
15   0.149114 
16   0.137908 
17   0.138132 
18   0.152365 
19   0.105012 
20   0.123726 
21   0.127461 
22   0.139824 
23   0.132456 
24   0.132628 
25   0.11704 
 
>  <lowdin_charges> 
25 
1   -0.443298 
2   -0.436681 
3   -0.449396 
4   -0.197598 
5   -0.276437 
6   -0.276905 
7   -0.124372 
8   -0.017144 
9   -0.123686 
10   0.147575 
11   0.14828 
12   0.147828 
13   0.154732 
14   0.150537 
15   0.151732 
16   0.146887 
17   0.147255 
18   0.152576 
19   0.144738 
20   0.140246 
21   0.140933 
22   0.148127 
23   0.143867 
24   0.141651 
25   0.138552 
 
$$$$ 
 
