PCCDB-ID:  27216 
public computational chemistry database (PCCDB) project, http://pccdb.org 
 
 40 40  0  0  0  0  0  0  0  0999 V2000 
    1.2583   -2.2128    0.7069 C   0  0  0  0  0  0  0  0  0  0  0  0 
   11.6052    3.3391    3.4538 C   0  0  0  0  0  0  0  0  0  0  0  0 
    2.4423   -1.3513    1.1585 C   0  0  0  0  0  0  0  0  0  0  0  0 
    3.4294   -1.0507    0.0215 C   0  0  0  0  0  0  0  0  0  0  0  0 
    4.5985   -0.1295    0.4081 C   0  0  0  0  0  0  0  0  0  0  0  0 
    5.5829   -0.7336    1.4201 C   0  0  0  0  0  0  0  0  0  0  0  0 
    6.7616    0.1972    1.7326 C   0  0  0  0  0  0  0  0  0  0  0  0 
   10.9065   -1.2313    5.4417 C   0  0  0  0  0  0  0  0  0  0  0  0 
    9.8485   -0.9869    4.5559 C   0  0  0  0  0  0  0  0  0  0  0  0 
    7.7283   -0.4033    2.7454 C   0  0  0  0  0  0  0  0  0  0  0  0 
   11.8265    0.9339    4.9119 C   0  0  0  0  0  0  0  0  0  0  0  0 
   11.9034   -0.2756    5.6299 C   0  0  0  0  0  0  0  0  0  0  0  0 
    9.7667    0.2034    3.8408 C   0  0  0  0  0  0  0  0  0  0  0  0 
   10.7793    1.1773    4.0276 C   0  0  0  0  0  0  0  0  0  0  0  0 
   12.9405   -0.4691    6.5635 N   0  0  0  0  0  0  0  0  0  0  0  0 
   10.6362    2.3199    3.2952 O   0  0  0  0  0  0  0  0  0  0  0  0 
    8.7784    0.5317    2.9514 O   0  0  0  0  0  0  0  0  0  0  0  0 
    0.5665   -2.4102    1.5339 H   0  0  0  0  0  0  0  0  0  0  0  0 
    1.5981   -3.1813    0.3192 H   0  0  0  0  0  0  0  0  0  0  0  0 
    0.6911   -1.7194   -0.0921 H   0  0  0  0  0  0  0  0  0  0  0  0 
   11.2969    4.1503    2.7913 H   0  0  0  0  0  0  0  0  0  0  0  0 
   12.6078    2.9963    3.1626 H   0  0  0  0  0  0  0  0  0  0  0  0 
   11.6400    3.7093    4.4877 H   0  0  0  0  0  0  0  0  0  0  0  0 
    2.9617   -1.8577    1.9827 H   0  0  0  0  0  0  0  0  0  0  0  0 
    2.0689   -0.4024    1.5703 H   0  0  0  0  0  0  0  0  0  0  0  0 
    2.8767   -0.5871   -0.8080 H   0  0  0  0  0  0  0  0  0  0  0  0 
    3.8274   -1.9980   -0.3728 H   0  0  0  0  0  0  0  0  0  0  0  0 
    4.1992    0.8131    0.8108 H   0  0  0  0  0  0  0  0  0  0  0  0 
    5.1528    0.1407   -0.5016 H   0  0  0  0  0  0  0  0  0  0  0  0 
    5.9623   -1.6885    1.0260 H   0  0  0  0  0  0  0  0  0  0  0  0 
    5.0565   -0.9752    2.3536 H   0  0  0  0  0  0  0  0  0  0  0  0 
    6.3935    1.1534    2.1262 H   0  0  0  0  0  0  0  0  0  0  0  0 
    7.3169    0.4290    0.8147 H   0  0  0  0  0  0  0  0  0  0  0  0 
   10.9420   -2.1714    5.9867 H   0  0  0  0  0  0  0  0  0  0  0  0 
    9.0880   -1.7490    4.4294 H   0  0  0  0  0  0  0  0  0  0  0  0 
    8.1359   -1.3567    2.3738 H   0  0  0  0  0  0  0  0  0  0  0  0 
    7.2138   -0.6103    3.6969 H   0  0  0  0  0  0  0  0  0  0  0  0 
   12.5945    1.6842    5.0666 H   0  0  0  0  0  0  0  0  0  0  0  0 
   13.1195   -1.4460    6.7670 H   0  0  0  0  0  0  0  0  0  0  0  0 
   13.8060   -0.0043    6.3127 H   0  0  0  0  0  0  0  0  0  0  0  0 
  1  3  1  0  0  0  0 
  1 18  1  0  0  0  0 
  2 23  1  0  0  0  0 
  3 25  1  0  0  0  0 
  3 24  1  0  0  0  0 
  4  5  1  0  0  0  0 
  4  3  1  0  0  0  0 
  5 28  1  0  0  0  0 
  5  6  1  0  0  0  0 
  6  7  1  0  0  0  0 
  6 31  1  0  0  0  0 
  7 32  1  0  0  0  0 
  7 10  1  0  0  0  0 
  8 12  1  0  0  0  0 
  8 34  1  0  0  0  0 
  9  8  2  0  0  0  0 
 10 17  1  0  0  0  0 
 10 37  1  0  0  0  0 
 11 38  1  0  0  0  0 
 11 12  2  0  0  0  0 
 12 15  1  0  0  0  0 
 13 14  2  0  0  0  0 
 13  9  1  0  0  0  0 
 14 11  1  0  0  0  0 
 15 39  1  0  0  0  0 
 16  2  1  0  0  0  0 
 16 14  1  0  0  0  0 
 17 13  1  0  0  0  0 
 19  1  1  0  0  0  0 
 20  1  1  0  0  0  0 
 21  2  1  0  0  0  0 
 22  2  1  0  0  0  0 
 26  4  1  0  0  0  0 
 27  4  1  0  0  0  0 
 29  5  1  0  0  0  0 
 30  6  1  0  0  0  0 
 33  7  1  0  0  0  0 
 35  9  1  0  0  0  0 
 36 10  1  0  0  0  0 
 40 15  1  0  0  0  0 
M  END 
>  <HBA> 
3 
 
>  <HBD> 
1 
 
>  <TPSA> 
44.48 
 
>  <cid> 
27216 
 
>  <dipole> 
1.55 
 
>  <excitation_energy_1> 
4.212 
 
>  <excitation_energy_2> 
4.472 
 
>  <excitation_energy_3> 
4.718 
 
>  <excitation_energy_4> 
4.789 
 
>  <homo_energy> 
-4.702 
 
>  <homo_lumo_gap> 
5.257 
 
>  <logP> 
4.208 
 
>  <lumo_energy> 
0.555 
 
>  <melting_point> 
60.7 
 
>  <molecular_refractivity> 
72.67 
 
>  <oscillator_strength_1> 
0.0058 
 
>  <oscillator_strength_2> 
0.0633 
 
>  <oscillator_strength_3> 
0.0013 
 
>  <oscillator_strength_4> 
0.0054 
 
>  <open_babel_can_smiles> 
CCCCCCCOc1ccc(cc1OC)N 
 
>  <mulliken_charges> 
40 
1   -0.44151 
2   -0.210602 
3   -0.248724 
4   -0.248316 
5   -0.253573 
6   -0.265499 
7   -0.274395 
8   -0.190977 
9   -0.208287 
10   -0.023393 
11   -0.255163 
12   0.301585 
13   0.33564 
14   0.328725 
15   -0.788087 
16   -0.49992 
17   -0.524292 
18   0.141443 
19   0.141133 
20   0.141246 
21   0.167605 
22   0.145309 
23   0.149953 
24   0.134605 
25   0.129999 
26   0.127626 
27   0.125714 
28   0.129317 
29   0.129949 
30   0.128474 
31   0.134938 
32   0.148083 
33   0.147526 
34   0.109321 
35   0.130337 
36   0.129455 
37   0.130845 
38   0.118607 
39   0.313576 
40   0.311729 
 
>  <lowdin_charges> 
40 
1   -0.445655 
2   -0.275685 
3   -0.275951 
4   -0.276776 
5   -0.274411 
6   -0.277247 
7   -0.279404 
8   -0.217274 
9   -0.199857 
10   -0.125934 
11   -0.249815 
12   0.051921 
13   0.059298 
14   0.089581 
15   -0.497042 
16   -0.188 
17   -0.198701 
18   0.149717 
19   0.145923 
20   0.147054 
21   0.162325 
22   0.140472 
23   0.14261 
24   0.140648 
25   0.138744 
26   0.141557 
27   0.137159 
28   0.139063 
29   0.142221 
30   0.137822 
31   0.140123 
32   0.150041 
33   0.149958 
34   0.150413 
35   0.162585 
36   0.13186 
37   0.132945 
38   0.158588 
39   0.269188 
40   0.269937 
 
$$$$ 
 
