PCCDB-ID:  28068 
public computational chemistry database (PCCDB) project, http://pccdb.org 
 
 34 34  0  0  0  0  0  0  0  0999 V2000 
   -2.5921   -0.4244    0.0042 C   0  0  0  0  0  0  0  0  0  0  0  0 
   -2.4444    0.9312   -0.7029 C   0  0  0  0  0  0  0  0  0  0  0  0 
   -2.0006   -1.6573   -0.6953 C   0  0  0  0  0  0  0  0  0  0  0  0 
   -1.0136    1.4681   -0.9197 C   0  0  0  0  0  0  0  0  0  0  0  0 
   -0.4722   -1.6878   -0.9099 C   0  0  0  0  0  0  0  0  0  0  0  0 
    1.6197    0.3023    2.7809 C   0  0  0  0  0  0  0  0  0  0  0  0 
   -0.0548    1.3490    0.2905 C   0  0  0  0  0  0  0  0  0  0  0  0 
    0.3899   -1.2483    0.2989 C   0  0  0  0  0  0  0  0  0  0  0  0 
    2.0700    0.3780    1.3137 C   0  0  0  0  0  0  0  0  0  0  0  0 
    2.7789    0.5085    3.7585 C   0  0  0  0  0  0  0  0  0  0  0  0 
    0.9665    0.1870    0.2434 C   0  0  0  0  0  0  0  0  0  0  0  0 
    2.3883    0.3799    5.1216 O   0  0  0  0  0  0  0  0  0  0  0  0 
   -3.6656   -0.6078    0.1500 H   0  0  0  0  0  0  0  0  0  0  0  0 
   -2.1731   -0.3495    1.0159 H   0  0  0  0  0  0  0  0  0  0  0  0 
   -2.9974    1.6699   -0.1050 H   0  0  0  0  0  0  0  0  0  0  0  0 
   -2.9552    0.8915   -1.6757 H   0  0  0  0  0  0  0  0  0  0  0  0 
   -2.4943   -1.7954   -1.6680 H   0  0  0  0  0  0  0  0  0  0  0  0 
   -2.2768   -2.5346   -0.0929 H   0  0  0  0  0  0  0  0  0  0  0  0 
   -1.1074    2.5275   -1.1920 H   0  0  0  0  0  0  0  0  0  0  0  0 
   -0.5562    0.9887   -1.7928 H   0  0  0  0  0  0  0  0  0  0  0  0 
   -0.2001   -1.0896   -1.7871 H   0  0  0  0  0  0  0  0  0  0  0  0 
   -0.2074   -2.7196   -1.1746 H   0  0  0  0  0  0  0  0  0  0  0  0 
    1.1594   -0.6689    2.9995 H   0  0  0  0  0  0  0  0  0  0  0  0 
    0.8528    1.0656    2.9799 H   0  0  0  0  0  0  0  0  0  0  0  0 
   -0.6369    1.3034    1.2209 H   0  0  0  0  0  0  0  0  0  0  0  0 
    0.5301    2.2763    0.3589 H   0  0  0  0  0  0  0  0  0  0  0  0 
    1.2498   -1.9274    0.3736 H   0  0  0  0  0  0  0  0  0  0  0  0 
   -0.1755   -1.3932    1.2294 H   0  0  0  0  0  0  0  0  0  0  0  0 
    2.8484   -0.3811    1.1482 H   0  0  0  0  0  0  0  0  0  0  0  0 
    2.5551    1.3504    1.1428 H   0  0  0  0  0  0  0  0  0  0  0  0 
    3.2592    1.4847    3.5739 H   0  0  0  0  0  0  0  0  0  0  0  0 
    3.5445   -0.2599    3.6032 H   0  0  0  0  0  0  0  0  0  0  0  0 
    1.4804    0.2722   -0.7280 H   0  0  0  0  0  0  0  0  0  0  0  0 
    1.7279    1.0677    5.2991 H   0  0  0  0  0  0  0  0  0  0  0  0 
  1 13  1  0  0  0  0 
  1 14  1  0  0  0  0 
  2 15  1  0  0  0  0 
  2  1  1  0  0  0  0 
  3 18  1  0  0  0  0 
  3  1  1  0  0  0  0 
  4  2  1  0  0  0  0 
  4  7  1  0  0  0  0 
  5  3  1  0  0  0  0 
  5  8  1  0  0  0  0 
  6 24  1  0  0  0  0 
  6 23  1  0  0  0  0 
  6 10  1  0  0  0  0 
  7 26  1  0  0  0  0 
  7 25  1  0  0  0  0 
  8 27  1  0  0  0  0 
  8 28  1  0  0  0  0 
  9  6  1  0  0  0  0 
 10 12  1  0  0  0  0 
 11  7  1  0  0  0  0 
 11  8  1  0  0  0  0 
 11  9  1  0  0  0  0 
 12 34  1  0  0  0  0 
 16  2  1  0  0  0  0 
 17  3  1  0  0  0  0 
 19  4  1  0  0  0  0 
 20  4  1  0  0  0  0 
 21  5  1  0  0  0  0 
 22  5  1  0  0  0  0 
 29  9  1  0  0  0  0 
 30  9  1  0  0  0  0 
 31 10  1  0  0  0  0 
 32 10  1  0  0  0  0 
 33 11  1  0  0  0  0 
M  END 
>  <HBA> 
1 
 
>  <HBD> 
1 
 
>  <TPSA> 
20.23 
 
>  <cid> 
28068 
 
>  <dipole> 
1.78 
 
>  <excitation_energy_1> 
6.353 
 
>  <excitation_energy_2> 
6.988 
 
>  <excitation_energy_3> 
7.153 
 
>  <excitation_energy_4> 
7.192 
 
>  <homo_energy> 
-7.04 
 
>  <homo_lumo_gap> 
9.083 
 
>  <logP> 
3.119 
 
>  <lumo_energy> 
2.044 
 
>  <melting_point> 
11.31 
 
>  <molecular_refractivity> 
54.04 
 
>  <oscillator_strength_1> 
0.0087 
 
>  <oscillator_strength_2> 
0.0142 
 
>  <oscillator_strength_3> 
0.0091 
 
>  <oscillator_strength_4> 
0.0033 
 
>  <open_babel_can_smiles> 
OCCCC1CCCCCCC1 
 
>  <mulliken_charges> 
34 
1   -0.258069 
2   -0.257128 
3   -0.25743 
4   -0.264553 
5   -0.265047 
6   -0.28461 
7   -0.264823 
8   -0.265064 
9   -0.273732 
10   -0.025997 
11   -0.078785 
12   -0.616386 
13   0.128334 
14   0.131822 
15   0.127801 
16   0.126456 
17   0.126183 
18   0.129099 
19   0.129659 
20   0.13565 
21   0.1349 
22   0.130494 
23   0.150259 
24   0.12275 
25   0.133781 
26   0.125574 
27   0.127685 
28   0.136104 
29   0.128402 
30   0.125408 
31   0.115904 
32   0.144231 
33   0.116716 
34   0.384413 
 
>  <lowdin_charges> 
34 
1   -0.280866 
2   -0.279022 
3   -0.278383 
4   -0.283405 
5   -0.283711 
6   -0.298893 
7   -0.283079 
8   -0.283466 
9   -0.277746 
10   -0.134773 
11   -0.123873 
12   -0.469948 
13   0.142623 
14   0.137242 
15   0.141279 
16   0.139393 
17   0.139306 
18   0.14108 
19   0.142113 
20   0.140939 
21   0.140338 
22   0.143008 
23   0.148465 
24   0.135511 
25   0.139605 
26   0.141906 
27   0.143518 
28   0.141014 
29   0.140404 
30   0.137728 
31   0.122199 
32   0.14565 
33   0.134247 
34   0.339597 
 
$$$$ 
 
