PCCDB-ID:  33645 
public computational chemistry database (PCCDB) project, http://pccdb.org 
 
 10  9  0  0  0  0  0  0  0  0999 V2000 
    1.0455   -0.0939    0.1279 C   0  0  0  0  0  0  0  0  0  0  0  0 
    2.5745   -0.1144    0.1673 C   0  0  0  0  0  0  0  0  0  0  0  0 
    3.2615    0.9403    1.5206 S   0  0  0  0  0  0  0  0  0  0  0  0 
    3.2615   -1.8282    0.0816 S   0  0  0  0  0  0  0  0  0  0  0  0 
    0.6806    0.9370    0.0787 H   0  0  0  0  0  0  0  0  0  0  0  0 
    0.6234   -0.5603    1.0256 H   0  0  0  0  0  0  0  0  0  0  0  0 
    0.6806   -0.6461   -0.7440 H   0  0  0  0  0  0  0  0  0  0  0  0 
    2.9721    0.3556   -0.7373 H   0  0  0  0  0  0  0  0  0  0  0  0 
    2.6407    0.2996    2.5363 H   0  0  0  0  0  0  0  0  0  0  0  0 
    2.6422   -2.2912    1.1902 H   0  0  0  0  0  0  0  0  0  0  0  0 
  1  2  1  0  0  0  0 
  1  6  1  0  0  0  0 
  2  3  1  0  0  0  0 
  3  9  1  0  0  0  0 
  4  2  1  0  0  0  0 
  4 10  1  0  0  0  0 
  5  1  1  0  0  0  0 
  7  1  1  0  0  0  0 
  8  2  1  0  0  0  0 
M  END 
>  <HBA> 
2 
 
>  <HBD> 
2 
 
>  <TPSA> 
77.6 
 
>  <cid> 
33645 
 
>  <dipole> 
2.0 
 
>  <excitation_energy_1> 
4.747 
 
>  <excitation_energy_2> 
5.383 
 
>  <excitation_energy_3> 
5.562 
 
>  <excitation_energy_4> 
6.056 
 
>  <homo_energy> 
-6.348 
 
>  <homo_lumo_gap> 
6.199 
 
>  <logP> 
1.192 
 
>  <lumo_energy> 
-0.15 
 
>  <melting_point> 
16.61 
 
>  <molecular_refractivity> 
27.59 
 
>  <oscillator_strength_1> 
0.0035 
 
>  <oscillator_strength_2> 
0.0046 
 
>  <oscillator_strength_3> 
0.0634 
 
>  <oscillator_strength_4> 
0.0448 
 
>  <open_babel_can_smiles> 
CC(S)S 
 
>  <mulliken_charges> 
10 
1   -0.427761 
2   -0.386245 
3   -0.041217 
4   -0.041324 
5   0.174308 
6   0.152232 
7   0.174311 
8   0.211523 
9   0.092073 
10   0.092101 
 
>  <lowdin_charges> 
10 
1   -0.447345 
2   -0.317414 
3   -0.066579 
4   -0.065309 
5   0.164718 
6   0.154096 
7   0.166296 
8   0.185137 
9   0.113637 
10   0.112763 
 
$$$$ 
 
