PCCDB-ID:  21312 
public computational chemistry database (PCCDB) project, http://pccdb.org 
 
 33 33  0  0  0  0  0  0  0  0999 V2000 
    3.0465    2.5628   -1.6153 C   0  0  0  0  0  0  0  0  0  0  0  0 
   13.0117    1.9127   -4.5470 C   0  0  0  0  0  0  0  0  0  0  0  0 
    9.2147   -2.9436   -4.3974 C   0  0  0  0  0  0  0  0  0  0  0  0 
    4.1854    1.7740   -2.2683 C   0  0  0  0  0  0  0  0  0  0  0  0 
   12.5590    0.8493   -3.5414 C   0  0  0  0  0  0  0  0  0  0  0  0 
    4.5444    0.4986   -1.4946 C   0  0  0  0  0  0  0  0  0  0  0  0 
    5.6515   -0.3255   -2.1317 C   0  0  0  0  0  0  0  0  0  0  0  0 
    9.1974   -1.5904   -3.7447 C   0  0  0  0  0  0  0  0  0  0  0  0 
   10.2892    0.3607   -3.1269 C   0  0  0  0  0  0  0  0  0  0  0  0 
    7.9547   -0.0464   -2.6585 C   0  0  0  0  0  0  0  0  0  0  0  0 
   11.2503    1.1886   -2.9999 N   0  0  0  0  0  0  0  0  0  0  0  0 
   10.2996   -0.8942   -3.7268 N   0  0  0  0  0  0  0  0  0  0  0  0 
    7.9697   -1.2263   -3.2178 N   0  0  0  0  0  0  0  0  0  0  0  0 
    9.0343    0.7582   -2.5876 N   0  0  0  0  0  0  0  0  0  0  0  0 
    6.8637    0.4748   -2.1011 O   0  0  0  0  0  0  0  0  0  0  0  0 
    2.8093    3.4657   -2.1885 H   0  0  0  0  0  0  0  0  0  0  0  0 
    3.3124    2.8749   -0.5980 H   0  0  0  0  0  0  0  0  0  0  0  0 
    2.1317    1.9609   -1.5482 H   0  0  0  0  0  0  0  0  0  0  0  0 
   14.0293    1.7048   -4.8990 H   0  0  0  0  0  0  0  0  0  0  0  0 
   12.9981    2.9081   -4.0901 H   0  0  0  0  0  0  0  0  0  0  0  0 
   12.3461    1.9323   -5.4175 H   0  0  0  0  0  0  0  0  0  0  0  0 
   10.2070   -3.1645   -4.7925 H   0  0  0  0  0  0  0  0  0  0  0  0 
    8.4757   -2.9771   -5.2065 H   0  0  0  0  0  0  0  0  0  0  0  0 
    8.9238   -3.7119   -3.6714 H   0  0  0  0  0  0  0  0  0  0  0  0 
    5.0761    2.4088   -2.3492 H   0  0  0  0  0  0  0  0  0  0  0  0 
    3.9051    1.5042   -3.2964 H   0  0  0  0  0  0  0  0  0  0  0  0 
   13.2699    0.8308   -2.7026 H   0  0  0  0  0  0  0  0  0  0  0  0 
   12.5753   -0.1441   -4.0070 H   0  0  0  0  0  0  0  0  0  0  0  0 
    3.6608   -0.1507   -1.4192 H   0  0  0  0  0  0  0  0  0  0  0  0 
    4.8328    0.7509   -0.4654 H   0  0  0  0  0  0  0  0  0  0  0  0 
    5.4301   -0.5805   -3.1726 H   0  0  0  0  0  0  0  0  0  0  0  0 
    5.8386   -1.2559   -1.5880 H   0  0  0  0  0  0  0  0  0  0  0  0 
    8.9818    1.6660   -2.1415 H   0  0  0  0  0  0  0  0  0  0  0  0 
  1 18  1  0  0  0  0 
  1 17  1  0  0  0  0 
  2 20  1  0  0  0  0 
  2  5  1  0  0  0  0 
  3  8  1  0  0  0  0 
  3 24  1  0  0  0  0 
  4  1  1  0  0  0  0 
  4  6  1  0  0  0  0 
  5 11  1  0  0  0  0 
  5 27  1  0  0  0  0 
  6 29  1  0  0  0  0 
  6 30  1  0  0  0  0 
  7 15  1  0  0  0  0 
  7 32  1  0  0  0  0 
  7  6  1  0  0  0  0 
  8 12  2  0  0  0  0 
  8 13  1  0  0  0  0 
  9 11  1  0  0  0  0 
  9 14  1  0  0  0  0 
 10 14  1  0  0  0  0 
 10 15  1  0  0  0  0 
 12  9  2  0  0  0  0 
 13 10  2  0  0  0  0 
 14 33  1  0  0  0  0 
 16  1  1  0  0  0  0 
 19  2  1  0  0  0  0 
 21  2  1  0  0  0  0 
 22  3  1  0  0  0  0 
 23  3  1  0  0  0  0 
 25  4  1  0  0  0  0 
 26  4  1  0  0  0  0 
 28  5  1  0  0  0  0 
 31  7  1  0  0  0  0 
M  RAD  1  11   2 
M  END 
>  <HBA> 
5 
 
>  <HBD> 
1 
 
>  <TPSA> 
59.93 
 
>  <cid> 
21312 
 
>  <dipole> 
4.02 
 
>  <excitation_energy_1> 
4.166 
 
>  <excitation_energy_2> 
4.572 
 
>  <excitation_energy_3> 
5.003 
 
>  <excitation_energy_4> 
5.314 
 
>  <homo_energy> 
-5.782 
 
>  <homo_lumo_gap> 
5.01 
 
>  <logP> 
1.864 
 
>  <lumo_energy> 
-0.773 
 
>  <melting_point> 
92.68 
 
>  <molecular_refractivity> 
59.82 
 
>  <oscillator_strength_1> 
0.0582 
 
>  <oscillator_strength_2> 
0.0022 
 
>  <oscillator_strength_3> 
0.0001 
 
>  <oscillator_strength_4> 
0.0025 
 
>  <open_babel_can_smiles> 
CCCCOC1=NC(=[N]=C(N1)[N]CC)C 
 
>  <mulliken_charges> 
33 
1   -0.443285 
2   -0.432405 
3   -0.501158 
4   -0.250898 
5   -0.138206 
6   -0.277982 
7   -0.035659 
8   0.431091 
9   0.654853 
10   0.793891 
11   -0.508356 
12   -0.496149 
13   -0.545482 
14   -0.670458 
15   -0.499947 
16   0.148649 
17   0.145609 
18   0.143335 
19   0.132104 
20   0.147198 
21   0.141882 
22   0.175689 
23   0.170326 
24   0.170711 
25   0.149947 
26   0.133996 
27   0.132507 
28   0.151559 
29   0.14387 
30   0.14942 
31   0.166749 
32   0.166116 
33   0.350484 
 
>  <lowdin_charges> 
33 
1   -0.443278 
2   -0.444808 
3   -0.445658 
4   -0.273947 
5   -0.196213 
6   -0.282452 
7   -0.115393 
8   0.124841 
9   0.114024 
10   0.195217 
11   -0.250414 
12   -0.218125 
13   -0.270389 
14   -0.211175 
15   -0.17832 
16   0.153507 
17   0.1478 
18   0.147326 
19   0.144689 
20   0.14931 
21   0.147369 
22   0.169877 
23   0.171008 
24   0.171569 
25   0.148307 
26   0.140203 
27   0.140339 
28   0.141538 
29   0.152908 
30   0.149674 
31   0.15551 
32   0.158027 
33   0.30713 
 
$$$$ 
 
