PCCDB-ID:  17803 
public computational chemistry database (PCCDB) project, http://pccdb.org 
 
 17 17  0  0  0  0  0  0  0  0999 V2000 
    2.6110    1.4983   -0.7572 C   0  0  0  0  0  0  0  0  0  0  0  0 
    3.2800   -3.0507   -1.7721 C   0  0  0  0  0  0  0  0  0  0  0  0 
    4.5763   -1.3131   -3.0223 C   0  0  0  0  0  0  0  0  0  0  0  0 
    2.9643   -0.8251   -1.2795 C   0  0  0  0  0  0  0  0  0  0  0  0 
    2.9941   -4.2779   -1.5587 N   0  0  0  0  0  0  0  0  0  0  0  0 
    5.4078   -0.8435   -3.8718 N   0  0  0  0  0  0  0  0  0  0  0  0 
    4.2313   -2.6220   -2.7476 N   0  0  0  0  0  0  0  0  0  0  0  0 
    2.6599   -2.0497   -1.0427 N   0  0  0  0  0  0  0  0  0  0  0  0 
    3.8775   -0.4062   -2.2185 N   0  0  0  0  0  0  0  0  0  0  0  0 
    2.3393    0.1137   -0.5477 O   0  0  0  0  0  0  0  0  0  0  0  0 
    1.9710    2.0272   -0.0509 H   0  0  0  0  0  0  0  0  0  0  0  0 
    2.3519    1.8117   -1.7762 H   0  0  0  0  0  0  0  0  0  0  0  0 
    3.6585    1.7422   -0.5398 H   0  0  0  0  0  0  0  0  0  0  0  0 
    3.5303   -4.8961   -2.1730 H   0  0  0  0  0  0  0  0  0  0  0  0 
    5.8649   -1.5831   -4.4052 H   0  0  0  0  0  0  0  0  0  0  0  0 
    4.6969   -3.3364   -3.2907 H   0  0  0  0  0  0  0  0  0  0  0  0 
    4.1038    0.5627   -2.3906 H   0  0  0  0  0  0  0  0  0  0  0  0 
  1 10  1  0  0  0  0 
  1 13  1  0  0  0  0 
  1 11  1  0  0  0  0 
  2  5  1  0  0  0  0 
  2  8  2  0  0  0  0 
  3  7  1  0  0  0  0 
  3  9  1  0  0  0  0 
  4  8  2  0  0  0  0 
  4 10  1  0  0  0  0 
  6  3  2  0  0  0  0 
  7  2  1  0  0  0  0 
  9  4  1  0  0  0  0 
 12  1  1  0  0  0  0 
 14  5  1  0  0  0  0 
 15  6  1  0  0  0  0 
 16  7  1  0  0  0  0 
 17  9  1  0  0  0  0 
M  RAD  1   5   2 
M  END 
>  <HBA> 
6 
 
>  <HBD> 
2 
 
>  <TPSA> 
99.94 
 
>  <cid> 
17803 
 
>  <dipole> 
4.64 
 
>  <excitation_energy_1> 
5.311 
 
>  <excitation_energy_2> 
5.386 
 
>  <excitation_energy_3> 
5.609 
 
>  <excitation_energy_4> 
5.625 
 
>  <homo_energy> 
-6.354 
 
>  <homo_lumo_gap> 
6.101 
 
>  <logP> 
0.207 
 
>  <lumo_energy> 
-0.253 
 
>  <melting_point> 
155.25 
 
>  <molecular_refractivity> 
35.13 
 
>  <oscillator_strength_1> 
0.0006 
 
>  <oscillator_strength_2> 
0.0998 
 
>  <oscillator_strength_3> 
0.0032 
 
>  <oscillator_strength_4> 
0.0016 
 
>  <open_babel_can_smiles> 
COC1=[N]=C(NC(=N)N1)[NH] 
 
>  <mulliken_charges> 
17 
1   -0.25124 
2   0.607861 
3   0.697934 
4   0.760852 
5   -0.608581 
6   -0.656592 
7   -0.695643 
8   -0.487125 
9   -0.687122 
10   -0.448312 
11   0.199456 
12   0.16818 
13   0.16805 
14   0.262365 
15   0.282786 
16   0.329513 
17   0.357618 
 
>  <lowdin_charges> 
17 
1   -0.281504 
2   0.129952 
3   0.140178 
4   0.187332 
5   -0.410834 
6   -0.463603 
7   -0.283229 
8   -0.202736 
9   -0.24623 
10   -0.160145 
11   0.181528 
12   0.152797 
13   0.152194 
14   0.245166 
15   0.259917 
16   0.292477 
17   0.306738 
 
$$$$ 
 
