PCCDB-ID:  37198 
public computational chemistry database (PCCDB) project, http://pccdb.org 
 
 21 21  0  0  0  0  0  0  0  0999 V2000 
    1.7635   -0.2668   -0.9910 C   0  0  0  0  0  0  0  0  0  0  0  0 
    2.2753   -2.5012    1.4937 C   0  0  0  0  0  0  0  0  0  0  0  0 
    6.8982    0.5810   -1.9025 C   0  0  0  0  0  0  0  0  0  0  0  0 
    3.0176   -0.7678   -0.3499 C   0  0  0  0  0  0  0  0  0  0  0  0 
    3.1828   -1.6741    0.6555 C   0  0  0  0  0  0  0  0  0  0  0  0 
    7.2492   -0.2663   -0.7046 C   0  0  0  0  0  0  0  0  0  0  0  0 
    5.1277   -0.9422    0.0003 C   0  0  0  0  0  0  0  0  0  0  0  0 
    4.2666   -0.3094   -0.7556 N   0  0  0  0  0  0  0  0  0  0  0  0 
    6.4903   -0.9145    0.0933 N   0  0  0  0  0  0  0  0  0  0  0  0 
    8.5770   -0.3538   -0.4271 O   0  0  0  0  0  0  0  0  0  0  0  0 
    4.5330   -1.7909    0.8889 O   0  0  0  0  0  0  0  0  0  0  0  0 
    1.7601   -0.4810   -2.0665 H   0  0  0  0  0  0  0  0  0  0  0  0 
    1.6729    0.8202   -0.8776 H   0  0  0  0  0  0  0  0  0  0  0  0 
    0.8756   -0.7296   -0.5497 H   0  0  0  0  0  0  0  0  0  0  0  0 
    1.2337   -2.3151    1.2181 H   0  0  0  0  0  0  0  0  0  0  0  0 
    2.3921   -2.2710    2.5601 H   0  0  0  0  0  0  0  0  0  0  0  0 
    2.4750   -3.5726    1.3660 H   0  0  0  0  0  0  0  0  0  0  0  0 
    7.1854    1.6243   -1.7148 H   0  0  0  0  0  0  0  0  0  0  0  0 
    5.8276    0.5440   -2.1001 H   0  0  0  0  0  0  0  0  0  0  0  0 
    7.4543    0.2338   -2.7833 H   0  0  0  0  0  0  0  0  0  0  0  0 
    9.0718    0.1631   -1.0820 H   0  0  0  0  0  0  0  0  0  0  0  0 
  1 13  1  0  0  0  0 
  1 14  1  0  0  0  0 
  1  4  1  0  0  0  0 
  2 16  1  0  0  0  0 
  3 18  1  0  0  0  0 
  3  6  1  0  0  0  0 
  4  5  2  0  0  0  0 
  5 11  1  0  0  0  0 
  5  2  1  0  0  0  0 
  6 10  1  0  0  0  0 
  6  9  2  0  0  0  0 
  7  9  1  0  0  0  0 
  7 11  1  0  0  0  0 
  8  4  1  0  0  0  0 
  8  7  2  0  0  0  0 
 12  1  1  0  0  0  0 
 15  2  1  0  0  0  0 
 17  2  1  0  0  0  0 
 19  3  1  0  0  0  0 
 20  3  1  0  0  0  0 
 21 10  1  0  0  0  0 
M  END 
>  <HBA> 
4 
 
>  <HBD> 
1 
 
>  <TPSA> 
55.13 
 
>  <cid> 
37198 
 
>  <dipole> 
2.57 
 
>  <excitation_energy_1> 
4.45 
 
>  <excitation_energy_2> 
4.808 
 
>  <excitation_energy_3> 
5.202 
 
>  <excitation_energy_4> 
5.214 
 
>  <homo_energy> 
-5.508 
 
>  <homo_lumo_gap> 
4.811 
 
>  <logP> 
1.323 
 
>  <lumo_energy> 
-0.697 
 
>  <melting_point> 
83.01 
 
>  <molecular_refractivity> 
40.75 
 
>  <oscillator_strength_1> 
0.4209 
 
>  <oscillator_strength_2> 
0.0019 
 
>  <oscillator_strength_3> 
0.0001 
 
>  <oscillator_strength_4> 
0.0058 
 
>  <open_babel_can_smiles> 
C/C(=N\c1oc(c(n1)C)C)/O 
 
>  <mulliken_charges> 
21 
1   -0.523158 
2   -0.534736 
3   -0.565027 
4   0.226078 
5   0.299948 
6   0.499902 
7   0.663771 
8   -0.529192 
9   -0.506927 
10   -0.560115 
11   -0.455464 
12   0.16544 
13   0.166719 
14   0.150742 
15   0.16479 
16   0.173636 
17   0.173146 
18   0.175804 
19   0.237652 
20   0.165135 
21   0.411858 
 
>  <lowdin_charges> 
21 
1   -0.435451 
2   -0.435746 
3   -0.491012 
4   -0.011421 
5   0.039918 
6   0.171766 
7   0.131384 
8   -0.220968 
9   -0.177174 
10   -0.347934 
11   -0.101623 
12   0.161903 
13   0.162371 
14   0.157145 
15   0.165607 
16   0.166147 
17   0.16576 
18   0.17153 
19   0.200856 
20   0.16672 
21   0.36022 
 
$$$$ 
 
