PCCDB-ID:  42678 
public computational chemistry database (PCCDB) project, http://pccdb.org 
 
 37 38  0  0  1  0  0  0  0  0999 V2000 
    1.1183   -0.9440    0.3924 C   0  0  0  0  0  0  0  0  0  0  0  0 
    3.2994   -0.4080    1.4312 C   0  0  0  0  0  0  0  0  0  0  0  0 
    2.9527    3.0939   -2.7007 C   0  0  0  0  0  0  0  0  0  0  0  0 
    2.9336    4.1747   -0.5605 C   0  0  0  0  0  0  0  0  0  0  0  0 
    2.4943   -1.8000   -2.0719 C   0  0  0  0  0  0  0  0  0  0  0  0 
    2.1976   -0.2796   -2.2739 C   0  0  0  0  0  0  0  0  0  0  0  0 
    4.6861   -1.2452   -1.0262 C   0  0  0  0  0  0  0  0  0  0  0  0 
    2.4033    1.8184   -0.6802 C   0  0  0  0  0  0  0  0  0  0  0  0 
    3.2830   -1.8241   -0.7410 C   0  0  1  0  0  0  0  0  0  0  0  0 
    4.4087    0.2567   -1.3047 C   0  0  1  0  0  0  0  0  0  0  0  0 
    2.6069   -0.6875    0.0819 C   0  0  0  0  0  0  0  0  0  0  0  0 
    2.8672    0.3951   -1.0412 C   0  0  2  0  0  0  0  0  0  0  0  0 
    3.1931    2.9209   -1.2689 N   0  0  0  0  0  0  0  0  0  0  0  0 
    5.2261    1.0749   -0.4829 O   0  0  0  0  0  0  0  0  0  0  0  0 
    1.0247   -1.7705    1.1079 H   0  0  0  0  0  0  0  0  0  0  0  0 
    0.5145   -1.1997   -0.4816 H   0  0  0  0  0  0  0  0  0  0  0  0 
    0.6631   -0.0622    0.8605 H   0  0  0  0  0  0  0  0  0  0  0  0 
    3.3198   -1.3249    2.0343 H   0  0  0  0  0  0  0  0  0  0  0  0 
    2.7349    0.3355    2.0083 H   0  0  0  0  0  0  0  0  0  0  0  0 
    4.3166   -0.0330    1.3220 H   0  0  0  0  0  0  0  0  0  0  0  0 
    3.5721    3.9146   -3.0775 H   0  0  0  0  0  0  0  0  0  0  0  0 
    1.8951    3.3283   -2.9266 H   0  0  0  0  0  0  0  0  0  0  0  0 
    3.2253    2.1885   -3.2456 H   0  0  0  0  0  0  0  0  0  0  0  0 
    3.5571    4.9694   -0.9833 H   0  0  0  0  0  0  0  0  0  0  0  0 
    3.1909    4.0635    0.4976 H   0  0  0  0  0  0  0  0  0  0  0  0 
    1.8769    4.4949   -0.6285 H   0  0  0  0  0  0  0  0  0  0  0  0 
    3.0804   -2.2231   -2.8950 H   0  0  0  0  0  0  0  0  0  0  0  0 
    1.5711   -2.3849   -2.0070 H   0  0  0  0  0  0  0  0  0  0  0  0 
    1.1217   -0.0758   -2.2989 H   0  0  0  0  0  0  0  0  0  0  0  0 
    2.6097    0.0907   -3.2186 H   0  0  0  0  0  0  0  0  0  0  0  0 
    5.1734   -1.7434   -1.8714 H   0  0  0  0  0  0  0  0  0  0  0  0 
    5.3547   -1.3312   -0.1652 H   0  0  0  0  0  0  0  0  0  0  0  0 
    2.4934    1.9394    0.4041 H   0  0  0  0  0  0  0  0  0  0  0  0 
    1.3299    1.9405   -0.9209 H   0  0  0  0  0  0  0  0  0  0  0  0 
    3.2987   -2.8041   -0.2520 H   0  0  0  0  0  0  0  0  0  0  0  0 
    4.6127    0.4978   -2.3602 H   0  0  0  0  0  0  0  0  0  0  0  0 
    4.9093    1.9832   -0.6768 H   0  0  0  0  0  0  0  0  0  0  0  0 
  1 17  1  0  0  0  0 
  1 15  1  0  0  0  0 
  2 19  1  0  0  0  0 
  2 18  1  0  0  0  0 
  3 13  1  0  0  0  0 
  4 25  1  0  0  0  0 
  5 28  1  0  0  0  0 
  5  9  1  0  0  0  0 
  6  5  1  0  0  0  0 
  6 12  1  0  0  0  0 
  7  9  1  0  0  0  0 
  7 32  1  0  0  0  0 
  8 33  1  0  0  0  0 
  9 35  1  1  0  0  0 
  9 11  1  0  0  0  0 
 10 36  1  6  0  0  0 
 10 12  1  0  0  0  0 
 10  7  1  0  0  0  0 
 10 14  1  0  0  0  0 
 11  1  1  0  0  0  0 
 11  2  1  0  0  0  0 
 12  8  1  1  0  0  0 
 12 11  1  0  0  0  0 
 13  8  1  0  0  0  0 
 13  4  1  0  0  0  0 
 16  1  1  0  0  0  0 
 20  2  1  0  0  0  0 
 21  3  1  0  0  0  0 
 22  3  1  0  0  0  0 
 23  3  1  0  0  0  0 
 24  4  1  0  0  0  0 
 26  4  1  0  0  0  0 
 27  5  1  0  0  0  0 
 29  6  1  0  0  0  0 
 30  6  1  0  0  0  0 
 31  7  1  0  0  0  0 
 34  8  1  0  0  0  0 
 37 14  1  0  0  0  0 
M  END 
>  <HBA> 
2 
 
>  <HBD> 
1 
 
>  <TPSA> 
23.47 
 
>  <cid> 
42678 
 
>  <dipole> 
2.46 
 
>  <excitation_energy_1> 
5.598 
 
>  <excitation_energy_2> 
5.989 
 
>  <excitation_energy_3> 
6.003 
 
>  <excitation_energy_4> 
6.126 
 
>  <homo_energy> 
-6.15 
 
>  <homo_lumo_gap> 
8.033 
 
>  <logP> 
1.735 
 
>  <lumo_energy> 
1.883 
 
>  <melting_point> 
73.24 
 
>  <molecular_refractivity> 
59.11 
 
>  <oscillator_strength_1> 
0.0239 
 
>  <oscillator_strength_2> 
0.0027 
 
>  <oscillator_strength_3> 
0.0189 
 
>  <oscillator_strength_4> 
0.0083 
 
>  <open_babel_can_smiles> 
CN(C[C@@]12CC[C@H](C2(C)C)C[C@@H]1O)C 
 
>  <mulliken_charges> 
37 
1   -0.466046 
2   -0.484888 
3   -0.301042 
4   -0.295426 
5   -0.28157 
6   -0.300482 
7   -0.295221 
8   -0.162061 
9   -0.097264 
10   0.144446 
11   0.089709 
12   0.061356 
13   -0.412405 
14   -0.661538 
15   0.141735 
16   0.14268 
17   0.138473 
18   0.13297 
19   0.129582 
20   0.188971 
21   0.151941 
22   0.124769 
23   0.163573 
24   0.152365 
25   0.157684 
26   0.126639 
27   0.131573 
28   0.13683 
29   0.135254 
30   0.13171 
31   0.130195 
32   0.158078 
33   0.147413 
34   0.120575 
35   0.108714 
36   0.103291 
37   0.407416 
 
>  <lowdin_charges> 
37 
1   -0.450177 
2   -0.459039 
3   -0.36009 
4   -0.356563 
5   -0.287883 
6   -0.288239 
7   -0.290776 
8   -0.201497 
9   -0.132935 
10   -0.00482 
11   0.005978 
12   -0.027974 
13   -0.181742 
14   -0.476737 
15   0.150657 
16   0.149842 
17   0.147131 
18   0.146529 
19   0.143644 
20   0.16968 
21   0.153149 
22   0.125397 
23   0.155703 
24   0.153054 
25   0.151854 
26   0.125589 
27   0.143875 
28   0.144097 
29   0.141218 
30   0.140301 
31   0.144553 
32   0.159594 
33   0.150308 
34   0.125082 
35   0.137749 
36   0.118533 
37   0.334956 
 
$$$$ 
 
