PCCDB-ID:  43352 
public computational chemistry database (PCCDB) project, http://pccdb.org 
 
 29 29  0  0  0  0  0  0  0  0999 V2000 
    1.2866   -1.4834    2.6686 C   0  0  0  0  0  0  0  0  0  0  0  0 
    2.3973    0.7457    2.8962 C   0  0  0  0  0  0  0  0  0  0  0  0 
    8.1464    0.9705   -0.2713 C   0  0  0  0  0  0  0  0  0  0  0  0 
    7.0841    0.2824    0.3134 C   0  0  0  0  0  0  0  0  0  0  0  0 
    9.4567    0.5980    0.0207 C   0  0  0  0  0  0  0  0  0  0  0  0 
    2.9631   -0.8331    0.9418 C   0  0  0  0  0  0  0  0  0  0  0  0 
    8.7439   -1.0723    1.4054 C   0  0  0  0  0  0  0  0  0  0  0  0 
    5.1285   -3.6516    3.0248 C   0  0  0  0  0  0  0  0  0  0  0  0 
    2.1616   -0.5759    2.2119 C   0  0  0  0  0  0  0  0  0  0  0  0 
    7.3866   -0.7775    1.1774 C   0  0  0  0  0  0  0  0  0  0  0  0 
    5.0718   -1.5674    1.7443 C   0  0  0  0  0  0  0  0  0  0  0  0 
    5.7502   -4.5086    3.5174 N   0  0  0  0  0  0  0  0  0  0  0  0 
    9.7555   -0.4109    0.8512 N   0  0  0  0  0  0  0  0  0  0  0  0 
    4.4092   -0.6839    1.1006 N   0  0  0  0  0  0  0  0  0  0  0  0 
    4.4550   -2.6569    2.4369 N   0  0  0  0  0  0  0  0  0  0  0  0 
    6.4428   -1.5766    1.8444 N   0  0  0  0  0  0  0  0  0  0  0  0 
    0.6912   -1.3064    3.5610 H   0  0  0  0  0  0  0  0  0  0  0  0 
    1.1029   -2.4181    2.1413 H   0  0  0  0  0  0  0  0  0  0  0  0 
    1.8171    0.8332    3.8193 H   0  0  0  0  0  0  0  0  0  0  0  0 
    2.1148    1.5737    2.2318 H   0  0  0  0  0  0  0  0  0  0  0  0 
    3.4587    0.8856    3.1291 H   0  0  0  0  0  0  0  0  0  0  0  0 
    7.9507    1.7964   -0.9493 H   0  0  0  0  0  0  0  0  0  0  0  0 
    6.0529    0.5445    0.1227 H   0  0  0  0  0  0  0  0  0  0  0  0 
   10.3004    1.1240   -0.4212 H   0  0  0  0  0  0  0  0  0  0  0  0 
    2.6565   -0.0996    0.1850 H   0  0  0  0  0  0  0  0  0  0  0  0 
    2.7039   -1.8258    0.5434 H   0  0  0  0  0  0  0  0  0  0  0  0 
    9.0120   -1.8917    2.0757 H   0  0  0  0  0  0  0  0  0  0  0  0 
    3.4926   -2.4954    2.7287 H   0  0  0  0  0  0  0  0  0  0  0  0 
    6.8416   -2.2805    2.4537 H   0  0  0  0  0  0  0  0  0  0  0  0 
  1 17  1  0  0  0  0 
  2 21  1  0  0  0  0 
  2 19  1  0  0  0  0 
  3  5  2  0  0  0  0 
  3  4  1  0  0  0  0 
  4 10  2  0  0  0  0 
  5 13  1  0  0  0  0 
  6 14  1  0  0  0  0 
  6  9  1  0  0  0  0 
  7 27  1  0  0  0  0 
  8 12  3  0  0  0  0 
  9  1  2  0  0  0  0 
  9  2  1  0  0  0  0 
 10  7  1  0  0  0  0 
 10 16  1  0  0  0  0 
 11 16  1  0  0  0  0 
 11 15  1  0  0  0  0 
 13  7  2  0  0  0  0 
 14 11  2  0  0  0  0 
 15 28  1  0  0  0  0 
 15  8  1  0  0  0  0 
 16 29  1  0  0  0  0 
 18  1  1  0  0  0  0 
 20  2  1  0  0  0  0 
 22  3  1  0  0  0  0 
 23  4  1  0  0  0  0 
 24  5  1  0  0  0  0 
 25  6  1  0  0  0  0 
 26  6  1  0  0  0  0 
M  END 
>  <HBA> 
5 
 
>  <HBD> 
2 
 
>  <TPSA> 
73.1 
 
>  <cid> 
43352 
 
>  <dipole> 
5.03 
 
>  <excitation_energy_1> 
4.758 
 
>  <excitation_energy_2> 
4.942 
 
>  <excitation_energy_3> 
4.991 
 
>  <excitation_energy_4> 
5.035 
 
>  <homo_energy> 
-6.125 
 
>  <homo_lumo_gap> 
5.478 
 
>  <logP> 
1.96 
 
>  <lumo_energy> 
-0.648 
 
>  <melting_point> 
111.82 
 
>  <molecular_refractivity> 
63.34 
 
>  <oscillator_strength_1> 
0.0814 
 
>  <oscillator_strength_2> 
0.0041 
 
>  <oscillator_strength_3> 
0.0428 
 
>  <oscillator_strength_4> 
0.4157 
 
>  <open_babel_can_smiles> 
N#CN/C(=N\CC(=C)C)/Nc1cccnc1 
 
>  <mulliken_charges> 
29 
1   -0.413355 
2   -0.502413 
3   -0.154404 
4   -0.116864 
5   0.035068 
6   -0.225127 
7   -0.02738 
8   0.510581 
9   0.190042 
10   0.344365 
11   0.760118 
12   -0.443062 
13   -0.409522 
14   -0.495832 
15   -0.721762 
16   -0.784084 
17   0.150429 
18   0.147352 
19   0.156834 
20   0.164441 
21   0.175431 
22   0.13847 
23   0.18995 
24   0.140517 
25   0.165566 
26   0.147487 
27   0.141293 
28   0.375285 
29   0.360575 
 
>  <lowdin_charges> 
29 
1   -0.373338 
2   -0.441677 
3   -0.165058 
4   -0.159757 
5   -0.108376 
6   -0.205662 
7   -0.120978 
8   0.001059 
9   0.001641 
10   0.042764 
11   0.155418 
12   -0.15079 
13   -0.137151 
14   -0.258276 
15   -0.249683 
16   -0.233048 
17   0.162681 
18   0.158382 
19   0.159172 
20   0.16508 
21   0.167371 
22   0.165194 
23   0.188453 
24   0.158176 
25   0.162059 
26   0.144023 
27   0.154736 
28   0.315545 
29   0.302037 
 
$$$$ 
 
