PCCDB-ID:  33658 
public computational chemistry database (PCCDB) project, http://pccdb.org 
 
 25 25  0  0  0  0  0  0  0  0999 V2000 
    3.3112   -0.3257   -1.2079 C   0  0  0  0  0  0  0  0  0  0  0  0 
    4.0348    4.6522    4.4855 C   0  0  0  0  0  0  0  0  0  0  0  0 
    2.4972   -0.0444    0.0680 C   0  0  0  0  0  0  0  0  0  0  0  0 
    4.6150    4.5439    3.0635 C   0  0  0  0  0  0  0  0  0  0  0  0 
    2.5523    2.4360    0.6075 C   0  0  0  0  0  0  0  0  0  0  0  0 
    3.0760    3.5214    1.3124 C   0  0  0  0  0  0  0  0  0  0  0  0 
    4.0165    0.9718    1.8212 C   0  0  0  0  0  0  0  0  0  0  0  0 
    3.0194    1.1410    0.8528 C   0  0  0  0  0  0  0  0  0  0  0  0 
    4.0704    3.3690    2.2819 C   0  0  0  0  0  0  0  0  0  0  0  0 
    4.5319    2.0626    2.5236 C   0  0  0  0  0  0  0  0  0  0  0  0 
    5.5083    1.9111    3.4782 O   0  0  0  0  0  0  0  0  0  0  0  0 
    2.9028   -1.1854   -1.7518 H   0  0  0  0  0  0  0  0  0  0  0  0 
    4.3582   -0.5418   -0.9667 H   0  0  0  0  0  0  0  0  0  0  0  0 
    3.2980    0.5401   -1.8793 H   0  0  0  0  0  0  0  0  0  0  0  0 
    4.4519    5.5200    5.0098 H   0  0  0  0  0  0  0  0  0  0  0  0 
    4.2703    3.7568    5.0691 H   0  0  0  0  0  0  0  0  0  0  0  0 
    2.9449    4.7637    4.4574 H   0  0  0  0  0  0  0  0  0  0  0  0 
    2.5037   -0.9394    0.7036 H   0  0  0  0  0  0  0  0  0  0  0  0 
    1.4498    0.1337   -0.2060 H   0  0  0  0  0  0  0  0  0  0  0  0 
    5.7065    4.4636    3.1319 H   0  0  0  0  0  0  0  0  0  0  0  0 
    4.3986    5.4666    2.5111 H   0  0  0  0  0  0  0  0  0  0  0  0 
    1.7764    2.5980   -0.1370 H   0  0  0  0  0  0  0  0  0  0  0  0 
    2.7021    4.5223    1.1063 H   0  0  0  0  0  0  0  0  0  0  0  0 
    4.3961   -0.0279    2.0353 H   0  0  0  0  0  0  0  0  0  0  0  0 
    5.7414    0.9717    3.5374 H   0  0  0  0  0  0  0  0  0  0  0  0 
  1 13  1  0  0  0  0 
  1  3  1  0  0  0  0 
  2 15  1  0  0  0  0 
  2 16  1  0  0  0  0 
  3 18  1  0  0  0  0 
  3  8  1  0  0  0  0 
  4 20  1  0  0  0  0 
  4  2  1  0  0  0  0 
  5  8  2  0  0  0  0 
  5  6  1  0  0  0  0 
  6  9  2  0  0  0  0 
  7 24  1  0  0  0  0 
  7 10  2  0  0  0  0 
  8  7  1  0  0  0  0 
  9 10  1  0  0  0  0 
  9  4  1  0  0  0  0 
 10 11  1  0  0  0  0 
 11 25  1  0  0  0  0 
 12  1  1  0  0  0  0 
 14  1  1  0  0  0  0 
 17  2  1  0  0  0  0 
 19  3  1  0  0  0  0 
 21  4  1  0  0  0  0 
 22  5  1  0  0  0  0 
 23  6  1  0  0  0  0 
M  END 
>  <HBA> 
1 
 
>  <HBD> 
1 
 
>  <TPSA> 
20.23 
 
>  <cid> 
33658 
 
>  <dipole> 
1.42 
 
>  <excitation_energy_1> 
4.938 
 
>  <excitation_energy_2> 
5.015 
 
>  <excitation_energy_3> 
5.512 
 
>  <excitation_energy_4> 
5.645 
 
>  <homo_energy> 
-5.731 
 
>  <homo_lumo_gap> 
5.897 
 
>  <logP> 
2.517 
 
>  <lumo_energy> 
0.166 
 
>  <melting_point> 
51.64 
 
>  <molecular_refractivity> 
48.01 
 
>  <oscillator_strength_1> 
0.0614 
 
>  <oscillator_strength_2> 
0.0003 
 
>  <oscillator_strength_3> 
0.049 
 
>  <oscillator_strength_4> 
0.0125 
 
>  <open_babel_can_smiles> 
CCc1ccc(c(c1)O)CC 
 
>  <mulliken_charges> 
25 
1   -0.432079 
2   -0.438612 
3   -0.341343 
4   -0.326217 
5   -0.185499 
6   -0.197437 
7   -0.249288 
8   0.174789 
9   0.142015 
10   0.299937 
11   -0.649872 
12   0.142162 
13   0.146514 
14   0.15091 
15   0.13826 
16   0.161743 
17   0.142452 
18   0.139418 
19   0.143736 
20   0.154749 
21   0.134608 
22   0.115892 
23   0.120805 
24   0.105825 
25   0.40653 
 
>  <lowdin_charges> 
25 
1   -0.44021 
2   -0.441323 
3   -0.269161 
4   -0.266021 
5   -0.190108 
6   -0.15535 
7   -0.225336 
8   0.006061 
9   -0.033988 
10   0.097417 
11   -0.383328 
12   0.149311 
13   0.1479 
14   0.151933 
15   0.147651 
16   0.156309 
17   0.144949 
18   0.147027 
19   0.14805 
20   0.15375 
21   0.145882 
22   0.153115 
23   0.153788 
24   0.1469 
25   0.354784 
 
$$$$ 
 
