PCCDB-ID:  10199 
public computational chemistry database (PCCDB) project, http://pccdb.org 
 
 17 18  0  0  0  0  0  0  0  0999 V2000 
    2.1777   -0.6509   -0.0013 C   0  0  0  0  0  0  0  0  0  0  0  0 
    2.1558    0.7499   -0.0017 C   0  0  0  0  0  0  0  0  0  0  0  0 
    0.9902   -1.3918    0.0009 C   0  0  0  0  0  0  0  0  0  0  0  0 
    0.9424    1.4418   -0.0001 C   0  0  0  0  0  0  0  0  0  0  0  0 
   -1.6646   -1.1524    0.0067 C   0  0  0  0  0  0  0  0  0  0  0  0 
   -0.2185   -0.7046    0.0021 C   0  0  0  0  0  0  0  0  0  0  0  0 
   -0.2361    0.6963    0.0014 C   0  0  0  0  0  0  0  0  0  0  0  0 
   -1.6683    1.0597    0.0045 C   0  0  0  0  0  0  0  0  0  0  0  0 
   -2.4791    0.0655    0.0076 N   0  0  0  0  0  0  0  0  0  0  0  0 
   -2.1231    2.3342    0.0036 O   0  0  0  0  0  0  0  0  0  0  0  0 
    3.1330   -1.1689   -0.0022 H   0  0  0  0  0  0  0  0  0  0  0  0 
    3.0916    1.3017   -0.0032 H   0  0  0  0  0  0  0  0  0  0  0  0 
    1.0212   -2.4786    0.0017 H   0  0  0  0  0  0  0  0  0  0  0  0 
    0.9366    2.5305    0.0005 H   0  0  0  0  0  0  0  0  0  0  0  0 
   -1.9094   -1.7611    0.8881 H   0  0  0  0  0  0  0  0  0  0  0  0 
   -1.9149   -1.7633   -0.8717 H   0  0  0  0  0  0  0  0  0  0  0  0 
   -1.3664    2.9400    0.0010 H   0  0  0  0  0  0  0  0  0  0  0  0 
  1  3  1  0  0  0  0 
  2  1  2  0  0  0  0 
  2  4  1  0  0  0  0 
  3 13  1  0  0  0  0 
  3  6  2  0  0  0  0 
  4 14  1  0  0  0  0 
  4  7  2  0  0  0  0 
  5  9  1  0  0  0  0 
  5 15  1  0  0  0  0 
  6  5  1  0  0  0  0 
  7  6  1  0  0  0  0 
  7  8  1  0  0  0  0 
  8  9  2  0  0  0  0 
 10  8  1  0  0  0  0 
 11  1  1  0  0  0  0 
 12  2  1  0  0  0  0 
 16  5  1  0  0  0  0 
 17 10  1  0  0  0  0 
M  END 
>  <HBA> 
2 
 
>  <HBD> 
1 
 
>  <TPSA> 
29.1 
 
>  <cid> 
10199 
 
>  <dipole> 
3.88 
 
>  <excitation_energy_1> 
4.975 
 
>  <excitation_energy_2> 
5.071 
 
>  <excitation_energy_3> 
5.197 
 
>  <excitation_energy_4> 
5.664 
 
>  <homo_energy> 
-6.501 
 
>  <homo_lumo_gap> 
5.573 
 
>  <logP> 
1.259 
 
>  <lumo_energy> 
-0.928 
 
>  <melting_point> 
93.47 
 
>  <molecular_refractivity> 
41.4 
 
>  <oscillator_strength_1> 
0.0077 
 
>  <oscillator_strength_2> 
0.0022 
 
>  <oscillator_strength_3> 
0.1563 
 
>  <oscillator_strength_4> 
0.0593 
 
>  <open_babel_can_smiles> 
OC1=NCc2c1cccc2 
 
>  <mulliken_charges> 
17 
1   -0.129203 
2   -0.132378 
3   -0.194283 
4   -0.204336 
5   -0.217425 
6   0.099795 
7   0.080797 
8   0.454358 
9   -0.449058 
10   -0.600749 
11   0.1367 
12   0.136076 
13   0.13686 
14   0.122064 
15   0.172899 
16   0.172844 
17   0.415039 
 
>  <lowdin_charges> 
17 
1   -0.148289 
2   -0.154591 
3   -0.155633 
4   -0.162841 
5   -0.199903 
6   -0.005225 
7   -0.057585 
8   0.116022 
9   -0.210391 
10   -0.350981 
11   0.16165 
12   0.161666 
13   0.159582 
14   0.150018 
15   0.167296 
16   0.167287 
17   0.361917 
 
$$$$ 
 
