PCCDB-ID:  7989 
public computational chemistry database (PCCDB) project, http://pccdb.org 
 
 17 16  0  0  0  0  0  0  0  0999 V2000 
    1.8262    0.7666   -0.3961 C   0  0  0  0  0  0  0  0  0  0  0  0 
    6.6762   -2.6292   -1.9232 C   0  0  0  0  0  0  0  0  0  0  0  0 
    2.5616   -0.2743   -0.0035 C   0  0  0  0  0  0  0  0  0  0  0  0 
    3.0771   -1.3613   -0.9062 C   0  0  0  0  0  0  0  0  0  0  0  0 
    4.6111   -1.4217   -0.9313 C   0  0  0  0  0  0  0  0  0  0  0  0 
    5.1639   -2.5614   -1.7815 C   0  0  0  0  0  0  0  0  0  0  0  0 
    4.4356   -3.3739   -2.3193 O   0  0  0  0  0  0  0  0  0  0  0  0 
    1.4826    1.5231    0.3043 H   0  0  0  0  0  0  0  0  0  0  0  0 
    1.5322    0.8977   -1.4358 H   0  0  0  0  0  0  0  0  0  0  0  0 
    7.0501   -1.7316   -2.4321 H   0  0  0  0  0  0  0  0  0  0  0  0 
    6.9549   -3.5142   -2.4986 H   0  0  0  0  0  0  0  0  0  0  0  0 
    7.1594   -2.6598   -0.9388 H   0  0  0  0  0  0  0  0  0  0  0  0 
    2.8314   -0.3623    1.0511 H   0  0  0  0  0  0  0  0  0  0  0  0 
    2.7013   -1.2181   -1.9254 H   0  0  0  0  0  0  0  0  0  0  0  0 
    2.6992   -2.3384   -0.5768 H   0  0  0  0  0  0  0  0  0  0  0  0 
    5.0143   -1.5358    0.0870 H   0  0  0  0  0  0  0  0  0  0  0  0 
    5.0302   -0.4735   -1.2981 H   0  0  0  0  0  0  0  0  0  0  0  0 
  1  3  2  0  0  0  0 
  1  8  1  0  0  0  0 
  2  6  1  0  0  0  0 
  2 12  1  0  0  0  0 
  3 13  1  0  0  0  0 
  4 15  1  0  0  0  0 
  4  3  1  0  0  0  0 
  5  4  1  0  0  0  0 
  5 16  1  0  0  0  0 
  6  5  1  0  0  0  0 
  7  6  2  0  0  0  0 
  9  1  1  0  0  0  0 
 10  2  1  0  0  0  0 
 11  2  1  0  0  0  0 
 14  4  1  0  0  0  0 
 17  5  1  0  0  0  0 
M  END 
>  <HBA> 
1 
 
>  <HBD> 
0 
 
>  <TPSA> 
17.07 
 
>  <cid> 
7989 
 
>  <dipole> 
2.61 
 
>  <excitation_energy_1> 
4.417 
 
>  <excitation_energy_2> 
5.802 
 
>  <excitation_energy_3> 
6.111 
 
>  <excitation_energy_4> 
6.366 
 
>  <homo_energy> 
-6.58 
 
>  <homo_lumo_gap> 
6.234 
 
>  <logP> 
1.542 
 
>  <lumo_energy> 
-0.346 
 
>  <melting_point> 
-25.77 
 
>  <molecular_refractivity> 
30.68 
 
>  <oscillator_strength_1> 
0.0001 
 
>  <oscillator_strength_2> 
0.0007 
 
>  <oscillator_strength_3> 
0.0657 
 
>  <oscillator_strength_4> 
0.0922 
 
>  <open_babel_can_smiles> 
C=CCCC(=O)C 
 
>  <mulliken_charges> 
17 
1   -0.34065 
2   -0.528086 
3   -0.047897 
4   -0.294806 
5   -0.358535 
6   0.454679 
7   -0.434557 
8   0.138298 
9   0.136393 
10   0.16991 
11   0.180523 
12   0.165952 
13   0.121791 
14   0.153479 
15   0.162878 
16   0.157592 
17   0.163035 
 
>  <lowdin_charges> 
17 
1   -0.343102 
2   -0.476849 
3   -0.145268 
4   -0.266113 
5   -0.311302 
6   0.168251 
7   -0.234666 
8   0.158971 
9   0.153345 
10   0.17104 
11   0.173739 
12   0.167603 
13   0.1457 
14   0.155108 
15   0.16079 
16   0.160045 
17   0.162708 
 
$$$$ 
 
