PCCDB-ID:  35860 
public computational chemistry database (PCCDB) project, http://pccdb.org 
 
 27 26  0  0  0  0  0  0  0  0999 V2000 
    1.4383   -0.2776    0.3237 C   0  0  0  0  0  0  0  0  0  0  0  0 
    2.1634    0.8346    0.1995 C   0  0  0  0  0  0  0  0  0  0  0  0 
    3.1168    1.1316   -0.9259 C   0  0  0  0  0  0  0  0  0  0  0  0 
    4.5661    1.3410   -0.4480 C   0  0  0  0  0  0  0  0  0  0  0  0 
    5.5307    1.6998   -1.5851 C   0  0  0  0  0  0  0  0  0  0  0  0 
    6.9779    1.8905   -1.1146 C   0  0  0  0  0  0  0  0  0  0  0  0 
    7.9351    2.2563   -2.2563 C   0  0  0  0  0  0  0  0  0  0  0  0 
    9.3855    2.4557   -1.8038 C   0  0  0  0  0  0  0  0  0  0  0  0 
   10.0827    1.1570   -1.4074 C   0  0  0  0  0  0  0  0  0  0  0  0 
    9.6472    0.0508   -1.6045 O   0  0  0  0  0  0  0  0  0  0  0  0 
   11.3012    1.3092   -0.8154 O   0  0  0  0  0  0  0  0  0  0  0  0 
    0.7702   -0.4365    1.1660 H   0  0  0  0  0  0  0  0  0  0  0  0 
    1.4841   -1.0746   -0.4163 H   0  0  0  0  0  0  0  0  0  0  0  0 
    2.0854    1.6047    0.9698 H   0  0  0  0  0  0  0  0  0  0  0  0 
    2.7871    2.0407   -1.4531 H   0  0  0  0  0  0  0  0  0  0  0  0 
    3.0849    0.3171   -1.6621 H   0  0  0  0  0  0  0  0  0  0  0  0 
    4.9120    0.4282    0.0558 H   0  0  0  0  0  0  0  0  0  0  0  0 
    4.5856    2.1364    0.3120 H   0  0  0  0  0  0  0  0  0  0  0  0 
    5.1818    2.6177   -2.0822 H   0  0  0  0  0  0  0  0  0  0  0  0 
    5.5023    0.9090   -2.3490 H   0  0  0  0  0  0  0  0  0  0  0  0 
    7.3280    0.9681   -0.6353 H   0  0  0  0  0  0  0  0  0  0  0  0 
    7.0096    2.6786   -0.3463 H   0  0  0  0  0  0  0  0  0  0  0  0 
    7.5928    3.1805   -2.7406 H   0  0  0  0  0  0  0  0  0  0  0  0 
    7.9150    1.4686   -3.0187 H   0  0  0  0  0  0  0  0  0  0  0  0 
    9.4343    3.1610   -0.9609 H   0  0  0  0  0  0  0  0  0  0  0  0 
    9.9804    2.9060   -2.6124 H   0  0  0  0  0  0  0  0  0  0  0  0 
   11.5098    2.2537   -0.7240 H   0  0  0  0  0  0  0  0  0  0  0  0 
  1 12  1  0  0  0  0 
  2  1  2  0  0  0  0 
  2 14  1  0  0  0  0 
  3  4  1  0  0  0  0 
  3  2  1  0  0  0  0 
  4 17  1  0  0  0  0 
  4 18  1  0  0  0  0 
  5  6  1  0  0  0  0 
  5  4  1  0  0  0  0 
  6 21  1  0  0  0  0 
  6 22  1  0  0  0  0 
  7  8  1  0  0  0  0 
  7  6  1  0  0  0  0 
  8  9  1  0  0  0  0 
  8 25  1  0  0  0  0 
  9 11  1  0  0  0  0 
 10  9  2  0  0  0  0 
 11 27  1  0  0  0  0 
 13  1  1  0  0  0  0 
 15  3  1  0  0  0  0 
 16  3  1  0  0  0  0 
 19  5  1  0  0  0  0 
 20  5  1  0  0  0  0 
 23  7  1  0  0  0  0 
 24  7  1  0  0  0  0 
 26  8  1  0  0  0  0 
M  END 
>  <HBA> 
2 
 
>  <HBD> 
1 
 
>  <TPSA> 
37.3 
 
>  <cid> 
35860 
 
>  <dipole> 
4.19 
 
>  <excitation_energy_1> 
5.72 
 
>  <excitation_energy_2> 
6.152 
 
>  <excitation_energy_3> 
6.404 
 
>  <excitation_energy_4> 
6.408 
 
>  <homo_energy> 
-6.757 
 
>  <homo_lumo_gap> 
7.021 
 
>  <logP> 
2.598 
 
>  <lumo_energy> 
0.264 
 
>  <melting_point> 
28.0 
 
>  <molecular_refractivity> 
46.67 
 
>  <oscillator_strength_1> 
0.0005 
 
>  <oscillator_strength_2> 
0.002 
 
>  <oscillator_strength_3> 
0.0151 
 
>  <oscillator_strength_4> 
0.0041 
 
>  <open_babel_can_smiles> 
C=CCCCCCCC(=O)O 
 
>  <mulliken_charges> 
27 
1   -0.341414 
2   -0.040744 
3   -0.30119 
4   -0.255677 
5   -0.254978 
6   -0.261136 
7   -0.247947 
8   -0.405294 
9   0.609078 
10   -0.438162 
11   -0.566663 
12   0.136515 
13   0.134132 
14   0.12101 
15   0.138098 
16   0.137755 
17   0.143119 
18   0.12691 
19   0.124454 
20   0.136376 
21   0.160021 
22   0.120063 
23   0.130456 
24   0.161056 
25   0.153446 
26   0.172573 
27   0.408142 
 
>  <lowdin_charges> 
27 
1   -0.34558 
2   -0.144623 
3   -0.272548 
4   -0.273531 
5   -0.274185 
6   -0.279266 
7   -0.270922 
8   -0.325658 
9   0.196982 
10   -0.238234 
11   -0.35869 
12   0.157411 
13   0.153902 
14   0.147871 
15   0.146797 
16   0.146439 
17   0.146067 
18   0.138036 
19   0.136143 
20   0.142803 
21   0.154122 
22   0.134079 
23   0.144086 
24   0.158305 
25   0.15563 
26   0.169335 
27   0.355231 
 
$$$$ 
 
