PCCDB-ID:  28937 
public computational chemistry database (PCCDB) project, http://pccdb.org 
 
 25 24  0  0  0  0  0  0  0  0999 V2000 
    1.3040   -0.1200    3.1822 C   0  0  0  0  0  0  0  0  0  0  0  0 
    2.7448   -0.1743    2.6650 C   0  0  0  0  0  0  0  0  0  0  0  0 
    2.9080   -1.0744    1.4345 C   0  0  0  0  0  0  0  0  0  0  0  0 
    4.3428   -1.1241    0.8689 C   0  0  0  0  0  0  0  0  0  0  0  0 
    5.3443   -1.7731    1.7868 C   0  0  0  0  0  0  0  0  0  0  0  0 
    6.4843   -1.2178    2.2156 C   0  0  0  0  0  0  0  0  0  0  0  0 
    7.4748   -1.8727    3.1417 C   0  0  0  0  0  0  0  0  0  0  0  0 
    7.4264   -1.2588    4.5528 C   0  0  0  0  0  0  0  0  0  0  0  0 
    6.1741   -1.4641    5.1849 O   0  0  0  0  0  0  0  0  0  0  0  0 
    1.2187    0.5302    4.0601 H   0  0  0  0  0  0  0  0  0  0  0  0 
    0.9485   -1.1169    3.4705 H   0  0  0  0  0  0  0  0  0  0  0  0 
    0.6213    0.2647    2.4145 H   0  0  0  0  0  0  0  0  0  0  0  0 
    3.4062   -0.5274    3.4682 H   0  0  0  0  0  0  0  0  0  0  0  0 
    3.0860    0.8411    2.4167 H   0  0  0  0  0  0  0  0  0  0  0  0 
    2.2329   -0.7234    0.6417 H   0  0  0  0  0  0  0  0  0  0  0  0 
    2.5805   -2.0948    1.6828 H   0  0  0  0  0  0  0  0  0  0  0  0 
    4.6758   -0.1081    0.6164 H   0  0  0  0  0  0  0  0  0  0  0  0 
    4.3169   -1.6857   -0.0773 H   0  0  0  0  0  0  0  0  0  0  0  0 
    5.1140   -2.7964    2.0943 H   0  0  0  0  0  0  0  0  0  0  0  0 
    6.7164   -0.1945    1.9102 H   0  0  0  0  0  0  0  0  0  0  0  0 
    8.4943   -1.7626    2.7446 H   0  0  0  0  0  0  0  0  0  0  0  0 
    7.2663   -2.9464    3.2226 H   0  0  0  0  0  0  0  0  0  0  0  0 
    7.6766   -0.1850    4.4980 H   0  0  0  0  0  0  0  0  0  0  0  0 
    8.1734   -1.7362    5.1956 H   0  0  0  0  0  0  0  0  0  0  0  0 
    5.4948   -1.1893    4.5460 H   0  0  0  0  0  0  0  0  0  0  0  0 
  1 11  1  0  0  0  0 
  1 10  1  0  0  0  0 
  2  1  1  0  0  0  0 
  2 13  1  0  0  0  0 
  3 16  1  0  0  0  0 
  3  2  1  0  0  0  0 
  4  3  1  0  0  0  0 
  4  5  1  0  0  0  0 
  5 19  1  0  0  0  0 
  5  6  2  0  0  0  0 
  6  7  1  0  0  0  0 
  7 22  1  0  0  0  0 
  7  8  1  0  0  0  0 
  8  9  1  0  0  0  0 
  8 24  1  0  0  0  0 
 12  1  1  0  0  0  0 
 14  2  1  0  0  0  0 
 15  3  1  0  0  0  0 
 17  4  1  0  0  0  0 
 18  4  1  0  0  0  0 
 20  6  1  0  0  0  0 
 21  7  1  0  0  0  0 
 23  8  1  0  0  0  0 
 25  9  1  0  0  0  0 
M  END 
>  <HBA> 
1 
 
>  <HBD> 
1 
 
>  <TPSA> 
20.23 
 
>  <cid> 
28937 
 
>  <dipole> 
2.0 
 
>  <excitation_energy_1> 
6.218 
 
>  <excitation_energy_2> 
6.272 
 
>  <excitation_energy_3> 
6.534 
 
>  <excitation_energy_4> 
6.607 
 
>  <homo_energy> 
-6.653 
 
>  <homo_lumo_gap> 
7.089 
 
>  <logP> 
2.115 
 
>  <lumo_energy> 
0.435 
 
>  <melting_point> 
0.52 
 
>  <molecular_refractivity> 
41.26 
 
>  <oscillator_strength_1> 
0.0703 
 
>  <oscillator_strength_2> 
0.1034 
 
>  <oscillator_strength_3> 
0.0042 
 
>  <oscillator_strength_4> 
0.0106 
 
>  <open_babel_can_smiles> 
CCCC/C=C/CCO 
 
>  <mulliken_charges> 
25 
1   -0.441326 
2   -0.248874 
3   -0.252651 
4   -0.304557 
5   -0.088081 
6   -0.12887 
7   -0.319393 
8   -0.022151 
9   -0.627279 
10   0.145291 
11   0.143771 
12   0.142245 
13   0.132635 
14   0.131176 
15   0.132364 
16   0.13137 
17   0.136835 
18   0.144769 
19   0.125625 
20   0.121798 
21   0.138497 
22   0.150438 
23   0.115897 
24   0.144486 
25   0.395982 
 
>  <lowdin_charges> 
25 
1   -0.444817 
2   -0.273571 
3   -0.2746 
4   -0.272038 
5   -0.165324 
6   -0.178671 
7   -0.290185 
8   -0.130681 
9   -0.473149 
10   0.151535 
11   0.147236 
12   0.14771 
13   0.137289 
14   0.138773 
15   0.14357 
16   0.138904 
17   0.144368 
18   0.152176 
19   0.147854 
20   0.146026 
21   0.151469 
22   0.150828 
23   0.120389 
24   0.148096 
25   0.336813 
 
$$$$ 
 
