PCCDB-ID:  28256 
public computational chemistry database (PCCDB) project, http://pccdb.org 
 
 26 26  0  0  0  0  0  0  0  0999 V2000 
    3.2773    2.2509    0.2110 C   0  0  0  0  0  0  0  0  0  0  0  0 
    2.9403   -2.7708    0.8766 C   0  0  0  0  0  0  0  0  0  0  0  0 
    2.4719   -1.5275    0.4736 C   0  0  0  0  0  0  0  0  0  0  0  0 
    4.9575   -6.2990    2.4130 C   0  0  0  0  0  0  0  0  0  0  0  0 
    4.0704   -5.2362    1.7850 C   0  0  0  0  0  0  0  0  0  0  0  0 
    4.9842   -1.6942    1.6081 C   0  0  0  0  0  0  0  0  0  0  0  0 
    2.5607    0.9172    0.1228 C   0  0  0  0  0  0  0  0  0  0  0  0 
    4.2160   -2.8521    1.4527 C   0  0  0  0  0  0  0  0  0  0  0  0 
    3.2120   -0.3427    0.6116 C   0  0  0  0  0  0  0  0  0  0  0  0 
    4.4955   -0.4549    1.1955 C   0  0  0  0  0  0  0  0  0  0  0  0 
    5.2012   -6.0396    3.7830 O   0  0  0  0  0  0  0  0  0  0  0  0 
    1.4341    0.8652   -0.3552 O   0  0  0  0  0  0  0  0  0  0  0  0 
    5.2583    0.6669    1.3550 O   0  0  0  0  0  0  0  0  0  0  0  0 
    4.7964   -4.0049    1.8861 O   0  0  0  0  0  0  0  0  0  0  0  0 
    4.2318    2.2241   -0.3243 H   0  0  0  0  0  0  0  0  0  0  0  0 
    3.5147    2.5013    1.2503 H   0  0  0  0  0  0  0  0  0  0  0  0 
    2.6253    3.0142   -0.2183 H   0  0  0  0  0  0  0  0  0  0  0  0 
    2.3239   -3.6513    0.7425 H   0  0  0  0  0  0  0  0  0  0  0  0 
    1.4880   -1.4343    0.0257 H   0  0  0  0  0  0  0  0  0  0  0  0 
    5.8950   -6.3717    1.8389 H   0  0  0  0  0  0  0  0  0  0  0  0 
    4.4525   -7.2688    2.3584 H   0  0  0  0  0  0  0  0  0  0  0  0 
    3.1241   -5.1575    2.3346 H   0  0  0  0  0  0  0  0  0  0  0  0 
    3.8588   -5.4682    0.7322 H   0  0  0  0  0  0  0  0  0  0  0  0 
    5.9715   -1.7807    2.0559 H   0  0  0  0  0  0  0  0  0  0  0  0 
    5.5796   -5.1465    3.8268 H   0  0  0  0  0  0  0  0  0  0  0  0 
    6.1016    0.4144    1.7631 H   0  0  0  0  0  0  0  0  0  0  0  0 
  1 16  1  0  0  0  0 
  2  8  2  0  0  0  0 
  3  9  2  0  0  0  0 
  3  2  1  0  0  0  0 
  4 11  1  0  0  0  0 
  5 14  1  0  0  0  0 
  5 22  1  0  0  0  0 
  5  4  1  0  0  0  0 
  6 24  1  0  0  0  0 
  7  1  1  0  0  0  0 
  7  9  1  0  0  0  0 
  8  6  1  0  0  0  0 
  8 14  1  0  0  0  0 
  9 10  1  0  0  0  0 
 10 13  1  0  0  0  0 
 10  6  2  0  0  0  0 
 11 25  1  0  0  0  0 
 12  7  2  0  0  0  0 
 13 26  1  0  0  0  0 
 15  1  1  0  0  0  0 
 17  1  1  0  0  0  0 
 18  2  1  0  0  0  0 
 19  3  1  0  0  0  0 
 20  4  1  0  0  0  0 
 21  4  1  0  0  0  0 
 23  5  1  0  0  0  0 
M  END 
>  <HBA> 
4 
 
>  <HBD> 
2 
 
>  <TPSA> 
66.76 
 
>  <cid> 
28256 
 
>  <dipole> 
3.66 
 
>  <excitation_energy_1> 
3.872 
 
>  <excitation_energy_2> 
4.516 
 
>  <excitation_energy_3> 
4.869 
 
>  <excitation_energy_4> 
5.403 
 
>  <homo_energy> 
-6.278 
 
>  <homo_lumo_gap> 
5.135 
 
>  <logP> 
0.966 
 
>  <lumo_energy> 
-1.143 
 
>  <melting_point> 
103.25 
 
>  <molecular_refractivity> 
51.12 
 
>  <oscillator_strength_1> 
0.0001 
 
>  <oscillator_strength_2> 
0.1135 
 
>  <oscillator_strength_3> 
0.2683 
 
>  <oscillator_strength_4> 
0.0008 
 
>  <open_babel_can_smiles> 
OCCOc1ccc(c(c1)O)C(=O)C 
 
>  <mulliken_charges> 
26 
1   -0.515933 
2   -0.192344 
3   -0.187301 
4   -0.043099 
5   -0.05702 
6   -0.26065 
7   0.408047 
8   0.397847 
9   0.052207 
10   0.297288 
11   -0.613303 
12   -0.465714 
13   -0.645282 
14   -0.540461 
15   0.171801 
16   0.17231 
17   0.166745 
18   0.14074 
19   0.172569 
20   0.137343 
21   0.155293 
22   0.16045 
23   0.147021 
24   0.125804 
25   0.40078 
26   0.414863 
 
>  <lowdin_charges> 
26 
1   -0.469855 
2   -0.230783 
3   -0.103969 
4   -0.139014 
5   -0.143672 
6   -0.24623 
7   0.163638 
8   0.124338 
9   -0.099134 
10   0.118911 
11   -0.461184 
12   -0.259471 
13   -0.363842 
14   -0.205151 
15   0.171632 
16   0.171252 
17   0.167748 
18   0.16739 
19   0.181343 
20   0.136653 
21   0.15572 
22   0.150525 
23   0.145907 
24   0.16093 
25   0.344807 
26   0.36151 
 
$$$$ 
 
