PCCDB-ID:  6578 
public computational chemistry database (PCCDB) project, http://pccdb.org 
 
 12 11  0  0  0  0  0  0  0  0999 V2000 
    1.0450   -0.2402   -0.2908 C   0  0  0  0  0  0  0  0  0  0  0  0 
    2.5137    0.0289    0.0832 C   0  0  0  0  0  0  0  0  0  0  0  0 
    2.9325    1.4757   -0.1256 C   0  0  0  0  0  0  0  0  0  0  0  0 
    3.3164    2.3135    0.7470 N   0  0  0  0  0  0  0  0  0  0  0  0 
    2.8670    1.9148   -1.4180 O   0  0  0  0  0  0  0  0  0  0  0  0 
    0.7880   -1.2882   -0.1069 H   0  0  0  0  0  0  0  0  0  0  0  0 
    0.8429   -0.0335   -1.3484 H   0  0  0  0  0  0  0  0  0  0  0  0 
    0.3712    0.3869    0.3020 H   0  0  0  0  0  0  0  0  0  0  0  0 
    3.1723   -0.6196   -0.5135 H   0  0  0  0  0  0  0  0  0  0  0  0 
    2.6830   -0.2366    1.1315 H   0  0  0  0  0  0  0  0  0  0  0  0 
    3.3159    1.8760    1.6693 H   0  0  0  0  0  0  0  0  0  0  0  0 
    2.6016    1.1833   -1.9951 H   0  0  0  0  0  0  0  0  0  0  0  0 
  1  6  1  0  0  0  0 
  1  2  1  0  0  0  0 
  1  8  1  0  0  0  0 
  2 10  1  0  0  0  0 
  3  2  1  0  0  0  0 
  3  4  2  0  0  0  0 
  4 11  1  0  0  0  0 
  5  3  1  0  0  0  0 
  7  1  1  0  0  0  0 
  9  2  1  0  0  0  0 
 12  5  1  0  0  0  0 
M  END 
>  <HBA> 
2 
 
>  <HBD> 
1 
 
>  <TPSA> 
43.09 
 
>  <cid> 
6578 
 
>  <dipole> 
4.33 
 
>  <excitation_energy_1> 
6.054 
 
>  <excitation_energy_2> 
6.332 
 
>  <excitation_energy_3> 
6.464 
 
>  <excitation_energy_4> 
7.0 
 
>  <homo_energy> 
-7.042 
 
>  <homo_lumo_gap> 
7.769 
 
>  <logP> 
0.582 
 
>  <lumo_energy> 
0.727 
 
>  <melting_point> 
51.07 
 
>  <molecular_refractivity> 
19.44 
 
>  <oscillator_strength_1> 
0.0019 
 
>  <oscillator_strength_2> 
0.01 
 
>  <oscillator_strength_3> 
0.0146 
 
>  <oscillator_strength_4> 
0.0083 
 
>  <open_babel_can_smiles> 
CCC(=N)O 
 
>  <mulliken_charges> 
12 
1   -0.447901 
2   -0.356771 
3   0.483315 
4   -0.579978 
5   -0.572875 
6   0.160916 
7   0.141892 
8   0.170664 
9   0.157633 
10   0.15611 
11   0.281063 
12   0.405933 
 
>  <lowdin_charges> 
12 
1   -0.441832 
2   -0.310249 
3   0.127058 
4   -0.396543 
5   -0.369581 
6   0.158078 
7   0.14467 
8   0.162995 
9   0.157425 
10   0.158021 
11   0.255264 
12   0.354693 
 
$$$$ 
 
