PCCDB-ID:  10403 
public computational chemistry database (PCCDB) project, http://pccdb.org 
 
 23 23  0  0  0  0  0  0  0  0999 V2000 
   -1.5705    0.0011    0.7111 C   0  0  0  0  0  0  0  0  0  0  0  0 
   -1.3870    1.3171   -0.0604 C   0  0  0  0  0  0  0  0  0  0  0  0 
   -1.3890   -1.3150   -0.0607 C   0  0  0  0  0  0  0  0  0  0  0  0 
    0.0126    1.6197   -0.6349 C   0  0  0  0  0  0  0  0  0  0  0  0 
    0.0102   -1.6197   -0.6352 C   0  0  0  0  0  0  0  0  0  0  0  0 
    1.2094    1.3277    0.3145 C   0  0  0  0  0  0  0  0  0  0  0  0 
    1.2074   -1.3296    0.3142 C   0  0  0  0  0  0  0  0  0  0  0  0 
    1.9140   -0.0015    0.0456 C   0  0  0  0  0  0  0  0  0  0  0  0 
    3.0452   -0.0023   -0.4097 O   0  0  0  0  0  0  0  0  0  0  0  0 
   -2.5868    0.0018    1.1277 H   0  0  0  0  0  0  0  0  0  0  0  0 
   -0.9064    0.0004    1.5856 H   0  0  0  0  0  0  0  0  0  0  0  0 
   -1.6540    2.1331    0.6260 H   0  0  0  0  0  0  0  0  0  0  0  0 
   -2.1176    1.3639   -0.8799 H   0  0  0  0  0  0  0  0  0  0  0  0 
   -2.1196   -1.3605   -0.8803 H   0  0  0  0  0  0  0  0  0  0  0  0 
   -1.6574   -2.1308    0.6253 H   0  0  0  0  0  0  0  0  0  0  0  0 
    0.0397    2.6851   -0.8926 H   0  0  0  0  0  0  0  0  0  0  0  0 
    0.1627    1.0932   -1.5840 H   0  0  0  0  0  0  0  0  0  0  0  0 
    0.1611   -1.0934   -1.5843 H   0  0  0  0  0  0  0  0  0  0  0  0 
    0.0357   -2.6851   -0.8931 H   0  0  0  0  0  0  0  0  0  0  0  0 
    0.8746    1.3676    1.3603 H   0  0  0  0  0  0  0  0  0  0  0  0 
    1.9797    2.0930    0.1875 H   0  0  0  0  0  0  0  0  0  0  0  0 
    1.9765   -2.0961    0.1872 H   0  0  0  0  0  0  0  0  0  0  0  0 
    0.8725   -1.3692    1.3600 H   0  0  0  0  0  0  0  0  0  0  0  0 
  1 10  1  0  0  0  0 
  1 11  1  0  0  0  0 
  2 12  1  0  0  0  0 
  2  1  1  0  0  0  0 
  3 15  1  0  0  0  0 
  3  1  1  0  0  0  0 
  4  2  1  0  0  0  0 
  4  6  1  0  0  0  0 
  5  3  1  0  0  0  0 
  5  7  1  0  0  0  0 
  6 20  1  0  0  0  0 
  7 23  1  0  0  0  0 
  8  7  1  0  0  0  0 
  8  6  1  0  0  0  0 
  9  8  2  0  0  0  0 
 13  2  1  0  0  0  0 
 14  3  1  0  0  0  0 
 16  4  1  0  0  0  0 
 17  4  1  0  0  0  0 
 18  5  1  0  0  0  0 
 19  5  1  0  0  0  0 
 21  6  1  0  0  0  0 
 22  7  1  0  0  0  0 
M  END 
>  <HBA> 
1 
 
>  <HBD> 
0 
 
>  <TPSA> 
17.07 
 
>  <cid> 
10403 
 
>  <dipole> 
3.09 
 
>  <excitation_energy_1> 
4.234 
 
>  <excitation_energy_2> 
5.995 
 
>  <excitation_energy_3> 
6.245 
 
>  <excitation_energy_4> 
6.394 
 
>  <homo_energy> 
-6.332 
 
>  <homo_lumo_gap> 
6.106 
 
>  <logP> 
2.3 
 
>  <lumo_energy> 
-0.226 
 
>  <melting_point> 
16.08 
 
>  <molecular_refractivity> 
38.66 
 
>  <oscillator_strength_1> 
0.0 
 
>  <oscillator_strength_2> 
0.0135 
 
>  <oscillator_strength_3> 
0.0019 
 
>  <oscillator_strength_4> 
0.004 
 
>  <open_babel_can_smiles> 
O=C1CCCCCCC1 
 
>  <mulliken_charges> 
23 
1   -0.263528 
2   -0.25939 
3   -0.2594 
4   -0.274389 
5   -0.274392 
6   -0.343027 
7   -0.343044 
8   0.435667 
9   -0.439991 
10   0.135868 
11   0.130987 
12   0.134773 
13   0.133439 
14   0.133442 
15   0.134777 
16   0.147611 
17   0.149265 
18   0.149266 
19   0.147612 
20   0.147864 
21   0.16436 
22   0.164362 
23   0.147867 
 
>  <lowdin_charges> 
23 
1   -0.283713 
2   -0.280633 
3   -0.280636 
4   -0.276055 
5   -0.276057 
6   -0.308427 
7   -0.308428 
8   0.158784 
9   -0.241038 
10   0.147591 
11   0.137724 
12   0.144459 
13   0.144298 
14   0.144299 
15   0.144463 
16   0.151325 
17   0.146052 
18   0.146053 
19   0.151325 
20   0.15336 
21   0.165945 
22   0.165946 
23   0.153362 
 
$$$$ 
 
