PCCDB-ID:  72016 
public computational chemistry database (PCCDB) project, http://pccdb.org 
 
 32 34  0  0  1  0  0  0  0  0999 V2000 
    1.6712   -0.2289   -1.5777 C   0  0  0  0  0  0  0  0  0  0  0  0 
    2.7845    0.8195   -1.5101 C   0  0  0  0  0  0  0  0  0  0  0  0 
    2.1850    5.9213    0.3237 C   0  0  0  0  0  0  0  0  0  0  0  0 
    0.9623    5.3699    0.7164 C   0  0  0  0  0  0  0  0  0  0  0  0 
    3.2687    5.0895    0.0105 C   0  0  0  0  0  0  0  0  0  0  0  0 
    0.7870    3.9837    0.8024 C   0  0  0  0  0  0  0  0  0  0  0  0 
    4.8059   -1.4733    1.5817 C   0  0  0  0  0  0  0  0  0  0  0  0 
    3.8972   -0.9563    2.7311 C   0  0  0  0  0  0  0  0  0  0  0  0 
    4.0617    2.5645   -0.1330 C   0  0  0  0  0  0  0  0  0  0  0  0 
    3.1077    3.7115    0.0913 C   0  0  0  0  0  0  0  0  0  0  0  0 
    1.8770    3.1829    0.4833 C   0  0  0  0  0  0  0  0  0  0  0  0 
    3.6553    0.2354    0.7988 C   0  0  3  0  0  0  0  0  0  0  0  0 
    3.1073    1.3242   -0.0968 C   0  0  2  0  0  0  0  0  0  0  0  0 
    4.3911   -0.7281    0.3773 N   0  0  0  0  0  0  0  0  0  0  0  0 
    3.4615    0.3318    2.1726 N   0  0  0  0  0  0  0  0  0  0  0  0 
    1.8666    1.8129    0.5277 O   0  0  0  0  0  0  0  0  0  0  0  0 
    1.4769   -0.5085   -2.6189 H   0  0  0  0  0  0  0  0  0  0  0  0 
    0.7405    0.1565   -1.1502 H   0  0  0  0  0  0  0  0  0  0  0  0 
    1.9558   -1.1350   -1.0342 H   0  0  0  0  0  0  0  0  0  0  0  0 
    2.5135    1.6945   -2.1156 H   0  0  0  0  0  0  0  0  0  0  0  0 
    3.7122    0.4083   -1.9224 H   0  0  0  0  0  0  0  0  0  0  0  0 
    2.2969    6.9999    0.2612 H   0  0  0  0  0  0  0  0  0  0  0  0 
    0.1287    6.0246    0.9558 H   0  0  0  0  0  0  0  0  0  0  0  0 
    4.2212    5.5190   -0.2903 H   0  0  0  0  0  0  0  0  0  0  0  0 
   -0.1595    3.5437    1.0997 H   0  0  0  0  0  0  0  0  0  0  0  0 
    4.7188   -2.5522    1.4194 H   0  0  0  0  0  0  0  0  0  0  0  0 
    5.8636   -1.2565    1.7865 H   0  0  0  0  0  0  0  0  0  0  0  0 
    4.4302   -0.8245    3.6773 H   0  0  0  0  0  0  0  0  0  0  0  0 
    3.0418   -1.6261    2.9043 H   0  0  0  0  0  0  0  0  0  0  0  0 
    4.8159    2.5087    0.6613 H   0  0  0  0  0  0  0  0  0  0  0  0 
    4.5935    2.6116   -1.0891 H   0  0  0  0  0  0  0  0  0  0  0  0 
    2.5754    0.7236    2.4683 H   0  0  0  0  0  0  0  0  0  0  0  0 
  1  2  1  0  0  0  0 
  1 18  1  0  0  0  0 
  1 19  1  0  0  0  0 
  3  4  2  0  0  0  0 
  4  6  1  0  0  0  0 
  4 23  1  0  0  0  0 
  5 10  2  0  0  0  0 
  5  3  1  0  0  0  0 
  6 25  1  0  0  0  0 
  7 27  1  0  0  0  0 
  7  8  1  0  0  0  0 
  8 29  1  0  0  0  0 
  8 28  1  0  0  0  0 
  9 13  1  0  0  0  0 
  9 10  1  0  0  0  0 
  9 30  1  0  0  0  0 
 10 11  1  0  0  0  0 
 11 16  1  0  0  0  0 
 11  6  2  0  0  0  0 
 12 15  1  0  0  0  0 
 13  2  1  6  0  0  0 
 13 16  1  0  0  0  0 
 13 12  1  0  0  0  0 
 14 12  1  0  0  0  0 
 14  7  1  0  0  0  0 
 15 32  1  0  0  0  0 
 15  8  1  0  0  0  0 
 17  1  1  0  0  0  0 
 20  2  1  0  0  0  0 
 21  2  1  0  0  0  0 
 22  3  1  0  0  0  0 
 24  5  1  0  0  0  0 
 26  7  1  0  0  0  0 
 31  9  1  0  0  0  0 
M  RAD  2  12   2  14   2 
M  END 
>  <HBA> 
3 
 
>  <HBD> 
1 
 
>  <TPSA> 
33.62 
 
>  <cid> 
72016 
 
>  <dipole> 
1.43 
 
>  <excitation_energy_1> 
4.844 
 
>  <excitation_energy_2> 
5.123 
 
>  <excitation_energy_3> 
5.394 
 
>  <excitation_energy_4> 
5.412 
 
>  <homo_energy> 
-5.826 
 
>  <homo_lumo_gap> 
5.747 
 
>  <logP> 
1.536 
 
>  <lumo_energy> 
-0.079 
 
>  <melting_point> 
111.16 
 
>  <molecular_refractivity> 
71.47 
 
>  <oscillator_strength_1> 
0.0607 
 
>  <oscillator_strength_2> 
0.0004 
 
>  <oscillator_strength_3> 
0.002 
 
>  <oscillator_strength_4> 
0.0053 
 
>  <open_babel_can_smiles> 
CC[C@]1(Cc2c(O1)cccc2)[C]1[N]CCN1 
 
>  <mulliken_charges> 
32 
1   -0.455926 
2   -0.262484 
3   -0.136543 
4   -0.139273 
5   -0.206377 
6   -0.192212 
7   -0.159868 
8   -0.148221 
9   -0.372266 
10   0.116034 
11   0.358558 
12   0.473094 
13   0.251877 
14   -0.489097 
15   -0.611369 
16   -0.581205 
17   0.141569 
18   0.154833 
19   0.159972 
20   0.13643 
21   0.167216 
22   0.126044 
23   0.129906 
24   0.129224 
25   0.136231 
26   0.149698 
27   0.150126 
28   0.151681 
29   0.142832 
30   0.177253 
31   0.168212 
32   0.33405 
 
>  <lowdin_charges> 
32 
1   -0.449283 
2   -0.276049 
3   -0.174345 
4   -0.149437 
5   -0.155112 
6   -0.191969 
7   -0.203954 
8   -0.210581 
9   -0.273862 
10   -0.044674 
11   0.093418 
12   0.072047 
13   0.132659 
14   -0.245713 
15   -0.311454 
16   -0.220704 
17   0.150421 
18   0.153019 
19   0.156404 
20   0.148292 
21   0.16509 
22   0.155367 
23   0.159593 
24   0.158273 
25   0.165526 
26   0.148548 
27   0.144872 
28   0.150693 
29   0.137823 
30   0.168009 
31   0.16543 
32   0.28165 
 
$$$$ 
 
