PCCDB-ID:  27026 
public computational chemistry database (PCCDB) project, http://pccdb.org 
 
 21 21  0  0  0  0  0  0  0  0999 V2000 
    0.9912    0.0205    0.2834 C   0  0  0  0  0  0  0  0  0  0  0  0 
    3.0544    1.1894   -0.6377 C   0  0  0  0  0  0  0  0  0  0  0  0 
    2.9313   -1.3276   -0.6593 C   0  0  0  0  0  0  0  0  0  0  0  0 
    4.5734    1.1044   -0.8431 C   0  0  0  0  0  0  0  0  0  0  0  0 
    4.4505   -1.3999   -0.8704 C   0  0  0  0  0  0  0  0  0  0  0  0 
    2.5100   -0.0519    0.0954 C   0  0  0  0  0  0  0  0  0  0  0  0 
    5.6150   -0.0966   -2.6239 N   0  0  0  0  0  0  0  0  0  0  0  0 
    4.9362   -0.1587   -1.4672 N   0  0  0  0  0  0  0  0  0  0  0  0 
    5.8755   -1.1752   -3.1492 O   0  0  0  0  0  0  0  0  0  0  0  0 
    0.7022    0.9171    0.8443 H   0  0  0  0  0  0  0  0  0  0  0  0 
    0.6171   -0.8529    0.8304 H   0  0  0  0  0  0  0  0  0  0  0  0 
    0.4768    0.0526   -0.6854 H   0  0  0  0  0  0  0  0  0  0  0  0 
    2.5654    1.2778   -1.6178 H   0  0  0  0  0  0  0  0  0  0  0  0 
    2.8176    2.1006   -0.0738 H   0  0  0  0  0  0  0  0  0  0  0  0 
    2.6032   -2.2202   -0.1115 H   0  0  0  0  0  0  0  0  0  0  0  0 
    2.4340   -1.3505   -1.6388 H   0  0  0  0  0  0  0  0  0  0  0  0 
    5.0875    1.1852    0.1265 H   0  0  0  0  0  0  0  0  0  0  0  0 
    4.9482    1.8983   -1.4945 H   0  0  0  0  0  0  0  0  0  0  0  0 
    4.7411   -2.2056   -1.5469 H   0  0  0  0  0  0  0  0  0  0  0  0 
    4.9645   -1.5515    0.0898 H   0  0  0  0  0  0  0  0  0  0  0  0 
    2.9794   -0.0830    1.0925 H   0  0  0  0  0  0  0  0  0  0  0  0 
  1 11  1  0  0  0  0 
  1 10  1  0  0  0  0 
  2 14  1  0  0  0  0 
  2  6  1  0  0  0  0 
  3 15  1  0  0  0  0 
  3  6  1  0  0  0  0 
  4  2  1  0  0  0  0 
  4 17  1  0  0  0  0 
  5  3  1  0  0  0  0 
  5 20  1  0  0  0  0 
  6  1  1  0  0  0  0 
  6 21  1  0  0  0  0 
  7  8  1  0  0  0  0 
  8  5  1  0  0  0  0 
  8  4  1  0  0  0  0 
  9  7  2  0  0  0  0 
 12  1  1  0  0  0  0 
 13  2  1  0  0  0  0 
 16  3  1  0  0  0  0 
 18  4  1  0  0  0  0 
 19  5  1  0  0  0  0 
M  END 
>  <HBA> 
3 
 
>  <HBD> 
0 
 
>  <TPSA> 
32.67 
 
>  <cid> 
27026 
 
>  <dipole> 
4.36 
 
>  <excitation_energy_1> 
3.394 
 
>  <excitation_energy_2> 
5.626 
 
>  <excitation_energy_3> 
5.763 
 
>  <excitation_energy_4> 
5.994 
 
>  <homo_energy> 
-5.948 
 
>  <homo_lumo_gap> 
5.238 
 
>  <logP> 
1.338 
 
>  <lumo_energy> 
-0.71 
 
>  <melting_point> 
17.7 
 
>  <molecular_refractivity> 
40.39 
 
>  <oscillator_strength_1> 
0.0009 
 
>  <oscillator_strength_2> 
0.1655 
 
>  <oscillator_strength_3> 
0.0637 
 
>  <oscillator_strength_4> 
0.0123 
 
>  <open_babel_can_smiles> 
CC1CCN(CC1)N=O 
 
>  <mulliken_charges> 
21 
1   -0.445835 
2   -0.264146 
3   -0.263521 
4   -0.137554 
5   -0.16132 
6   -0.083727 
7   0.146373 
8   -0.218548 
9   -0.381478 
10   0.145142 
11   0.145888 
12   0.145788 
13   0.145432 
14   0.141039 
15   0.142262 
16   0.147449 
17   0.148854 
18   0.175788 
19   0.196604 
20   0.153354 
21   0.122157 
 
>  <lowdin_charges> 
21 
1   -0.44381 
2   -0.284661 
3   -0.281119 
4   -0.201428 
5   -0.221527 
6   -0.127886 
7   0.05276 
8   -0.046644 
9   -0.275936 
10   0.151563 
11   0.152173 
12   0.149354 
13   0.147598 
14   0.151286 
15   0.151988 
16   0.14853 
17   0.14452 
18   0.169446 
19   0.179432 
20   0.149845 
21   0.134514 
 
$$$$ 
 
