PCCDB-ID:  70003 
public computational chemistry database (PCCDB) project, http://pccdb.org 
 
 24 25  0  0  0  0  0  0  0  0999 V2000 
   -2.5790   -1.0294   -0.2483 C   0  0  0  0  0  0  0  0  0  0  0  0 
    2.3333   -0.8942   -0.7218 C   0  0  0  0  0  0  0  0  0  0  0  0 
   -2.7705    0.3057    0.1059 C   0  0  0  0  0  0  0  0  0  0  0  0 
    2.9204    0.4015   -0.1544 C   0  0  0  0  0  0  0  0  0  0  0  0 
   -1.2912   -1.5642   -0.2614 C   0  0  0  0  0  0  0  0  0  0  0  0 
    1.1862   -1.4898    0.1125 C   0  0  0  0  0  0  0  0  0  0  0  0 
   -1.6658    1.0879    0.4278 C   0  0  0  0  0  0  0  0  0  0  0  0 
    1.9751    1.6138   -0.1932 C   0  0  0  0  0  0  0  0  0  0  0  0 
   -0.1623   -0.7916    0.0457 C   0  0  0  0  0  0  0  0  0  0  0  0 
   -0.3629    0.5668    0.3762 C   0  0  0  0  0  0  0  0  0  0  0  0 
    0.7332    1.5514    0.6913 C   0  0  0  0  0  0  0  0  0  0  0  0 
    0.5708    2.3787    1.5752 O   0  0  0  0  0  0  0  0  0  0  0  0 
   -3.4280   -1.6587   -0.5019 H   0  0  0  0  0  0  0  0  0  0  0  0 
    3.1349   -1.6423   -0.7741 H   0  0  0  0  0  0  0  0  0  0  0  0 
    1.9932   -0.7308   -1.7539 H   0  0  0  0  0  0  0  0  0  0  0  0 
   -3.7691    0.7328    0.1339 H   0  0  0  0  0  0  0  0  0  0  0  0 
    3.8197    0.6656   -0.7250 H   0  0  0  0  0  0  0  0  0  0  0  0 
    3.2524    0.2307    0.8793 H   0  0  0  0  0  0  0  0  0  0  0  0 
   -1.1545   -2.6154   -0.5045 H   0  0  0  0  0  0  0  0  0  0  0  0 
    1.5117   -1.5369    1.1629 H   0  0  0  0  0  0  0  0  0  0  0  0 
    1.0359   -2.5303   -0.1973 H   0  0  0  0  0  0  0  0  0  0  0  0 
   -1.7898    2.1263    0.7187 H   0  0  0  0  0  0  0  0  0  0  0  0 
    1.6339    1.7629   -1.2287 H   0  0  0  0  0  0  0  0  0  0  0  0 
    2.5143    2.5147    0.1152 H   0  0  0  0  0  0  0  0  0  0  0  0 
  1  3  1  0  0  0  0 
  2  4  1  0  0  0  0 
  2  6  1  0  0  0  0 
  3 16  1  0  0  0  0 
  3  7  2  0  0  0  0 
  4 18  1  0  0  0  0 
  5  1  2  0  0  0  0 
  5  9  1  0  0  0  0 
  6 20  1  0  0  0  0 
  7 22  1  0  0  0  0 
  8  4  1  0  0  0  0 
  8 24  1  0  0  0  0 
  8 11  1  0  0  0  0 
  9  6  1  0  0  0  0 
  9 10  2  0  0  0  0 
 10  7  1  0  0  0  0 
 10 11  1  0  0  0  0 
 11 12  2  0  0  0  0 
 13  1  1  0  0  0  0 
 14  2  1  0  0  0  0 
 15  2  1  0  0  0  0 
 17  4  1  0  0  0  0 
 19  5  1  0  0  0  0 
 21  6  1  0  0  0  0 
 23  8  1  0  0  0  0 
M  END 
>  <HBA> 
1 
 
>  <HBD> 
0 
 
>  <TPSA> 
17.07 
 
>  <cid> 
70003 
 
>  <dipole> 
3.06 
 
>  <excitation_energy_1> 
3.807 
 
>  <excitation_energy_2> 
4.637 
 
>  <excitation_energy_3> 
4.994 
 
>  <excitation_energy_4> 
5.497 
 
>  <homo_energy> 
-6.49 
 
>  <homo_lumo_gap> 
5.282 
 
>  <logP> 
2.596 
 
>  <lumo_energy> 
-1.208 
 
>  <melting_point> 
64.3 
 
>  <molecular_refractivity> 
49.1 
 
>  <oscillator_strength_1> 
0.0037 
 
>  <oscillator_strength_2> 
0.0275 
 
>  <oscillator_strength_3> 
0.1162 
 
>  <oscillator_strength_4> 
0.0114 
 
>  <open_babel_can_smiles> 
O=C1CCCCc2c1cccc2 
 
>  <mulliken_charges> 
24 
1   -0.114202 
2   -0.256411 
3   -0.135004 
4   -0.270484 
5   -0.202339 
6   -0.354584 
7   -0.155498 
8   -0.341211 
9   0.148131 
10   0.019927 
11   0.368813 
12   -0.445604 
13   0.133722 
14   0.139199 
15   0.139028 
16   0.134813 
17   0.144705 
18   0.145344 
19   0.126867 
20   0.156414 
21   0.144649 
22   0.155222 
23   0.154378 
24   0.164125 
 
>  <lowdin_charges> 
24 
1   -0.146246 
2   -0.275665 
3   -0.159622 
4   -0.272313 
5   -0.16612 
6   -0.274884 
7   -0.131856 
8   -0.303115 
9   0.000677 
10   -0.053422 
11   0.157536 
12   -0.236059 
13   0.160864 
14   0.149366 
15   0.142595 
16   0.1601 
17   0.151431 
18   0.144386 
19   0.154208 
20   0.153577 
21   0.151476 
22   0.170044 
23   0.157613 
24   0.165428 
 
$$$$ 
 
