PCCDB-ID:  24475 
public computational chemistry database (PCCDB) project, http://pccdb.org 
 
 34 36  0  0  0  0  0  0  0  0999 V2000 
    0.9035   -0.2607   -0.2160 C   0  0  0  0  0  0  0  0  0  0  0  0 
    5.3578   -2.9835    0.1184 C   0  0  0  0  0  0  0  0  0  0  0  0 
    4.0373   -3.4749    0.0787 C   0  0  0  0  0  0  0  0  0  0  0  0 
    5.6164   -1.6186    0.0804 C   0  0  0  0  0  0  0  0  0  0  0  0 
    2.9498   -2.6118   -0.0020 C   0  0  0  0  0  0  0  0  0  0  0  0 
    6.1806    1.8894    1.3840 C   0  0  0  0  0  0  0  0  0  0  0  0 
    5.5584    1.7144   -0.0289 C   0  0  0  0  0  0  0  0  0  0  0  0 
    7.1315    4.2358    1.6107 C   0  0  0  0  0  0  0  0  0  0  0  0 
    8.6456    2.4576    1.1379 C   0  0  0  0  0  0  0  0  0  0  0  0 
    8.2216    5.1044    1.5691 C   0  0  0  0  0  0  0  0  0  0  0  0 
    9.6686    3.4051    1.1167 C   0  0  0  0  0  0  0  0  0  0  0  0 
    3.0930    0.9966   -0.1392 C   0  0  0  0  0  0  0  0  0  0  0  0 
    7.3311    2.8676    1.3914 C   0  0  0  0  0  0  0  0  0  0  0  0 
    4.4351    0.7191   -0.0638 C   0  0  0  0  0  0  0  0  0  0  0  0 
    4.5397   -0.7184    0.0021 C   0  0  0  0  0  0  0  0  0  0  0  0 
    3.2153   -1.2381   -0.0385 C   0  0  0  0  0  0  0  0  0  0  0  0 
    9.4796    4.7142    1.3267 N   0  0  0  0  0  0  0  0  0  0  0  0 
    2.3449   -0.1685   -0.1217 N   0  0  0  0  0  0  0  0  0  0  0  0 
    0.4822    0.7469   -0.2274 H   0  0  0  0  0  0  0  0  0  0  0  0 
    0.4889   -0.8007    0.6435 H   0  0  0  0  0  0  0  0  0  0  0  0 
    0.5966   -0.7776   -1.1338 H   0  0  0  0  0  0  0  0  0  0  0  0 
    6.1846   -3.6859    0.1785 H   0  0  0  0  0  0  0  0  0  0  0  0 
    3.8657   -4.5475    0.1085 H   0  0  0  0  0  0  0  0  0  0  0  0 
    6.6404   -1.2539    0.1068 H   0  0  0  0  0  0  0  0  0  0  0  0 
    1.9337   -2.9948   -0.0372 H   0  0  0  0  0  0  0  0  0  0  0  0 
    6.5189    0.9118    1.7472 H   0  0  0  0  0  0  0  0  0  0  0  0 
    5.3958    2.2269    2.0713 H   0  0  0  0  0  0  0  0  0  0  0  0 
    6.3531    1.4123   -0.7245 H   0  0  0  0  0  0  0  0  0  0  0  0 
    5.2021    2.6909   -0.3798 H   0  0  0  0  0  0  0  0  0  0  0  0 
    6.1369    4.6221    1.8212 H   0  0  0  0  0  0  0  0  0  0  0  0 
    8.8741    1.4083    0.9665 H   0  0  0  0  0  0  0  0  0  0  0  0 
    8.0778    6.1700    1.7432 H   0  0  0  0  0  0  0  0  0  0  0  0 
   10.6952    3.0960    0.9246 H   0  0  0  0  0  0  0  0  0  0  0  0 
    2.5935    1.9547   -0.2094 H   0  0  0  0  0  0  0  0  0  0  0  0 
  1 18  1  0  0  0  0 
  1 20  1  0  0  0  0 
  2 22  1  0  0  0  0 
  3 23  1  0  0  0  0 
  3  2  2  0  0  0  0 
  4 24  1  0  0  0  0 
  4  2  1  0  0  0  0 
  5  3  1  0  0  0  0 
  6 13  1  0  0  0  0 
  6 26  1  0  0  0  0 
  6 27  1  0  0  0  0 
  7  6  1  0  0  0  0 
  8 30  1  0  0  0  0 
  9 13  1  0  0  0  0 
 10  8  1  0  0  0  0 
 10 32  1  0  0  0  0 
 11  9  2  0  0  0  0 
 11 17  1  0  0  0  0 
 12 18  1  0  0  0  0 
 12 14  2  0  0  0  0 
 13  8  2  0  0  0  0 
 14  7  1  0  0  0  0 
 14 15  1  0  0  0  0 
 15  4  2  0  0  0  0 
 16  5  2  0  0  0  0 
 16 15  1  0  0  0  0 
 17 10  2  0  0  0  0 
 18 16  1  0  0  0  0 
 19  1  1  0  0  0  0 
 21  1  1  0  0  0  0 
 25  5  1  0  0  0  0 
 28  7  1  0  0  0  0 
 29  7  1  0  0  0  0 
 31  9  1  0  0  0  0 
 33 11  1  0  0  0  0 
 34 12  1  0  0  0  0 
M  END 
>  <HBA> 
2 
 
>  <HBD> 
0 
 
>  <TPSA> 
17.82 
 
>  <cid> 
24475 
 
>  <dipole> 
4.47 
 
>  <excitation_energy_1> 
4.23 
 
>  <excitation_energy_2> 
4.431 
 
>  <excitation_energy_3> 
4.623 
 
>  <excitation_energy_4> 
4.743 
 
>  <homo_energy> 
-5.336 
 
>  <homo_lumo_gap> 
4.865 
 
>  <logP> 
3.358 
 
>  <lumo_energy> 
-0.471 
 
>  <melting_point> 
100.89 
 
>  <molecular_refractivity> 
75.25 
 
>  <oscillator_strength_1> 
0.0757 
 
>  <oscillator_strength_2> 
0.0508 
 
>  <oscillator_strength_3> 
0.0 
 
>  <oscillator_strength_4> 
0.0116 
 
>  <open_babel_can_smiles> 
Cn1cc(c2c1cccc2)CCc1ccncc1 
 
>  <mulliken_charges> 
34 
1   -0.321579 
2   -0.138657 
3   -0.151644 
4   -0.214847 
5   -0.167808 
6   -0.346955 
7   -0.346343 
8   -0.18586 
9   -0.186735 
10   0.038527 
11   0.03866 
12   -0.018944 
13   0.192492 
14   0.072851 
15   0.074474 
16   0.301861 
17   -0.411399 
18   -0.498775 
19   0.168773 
20   0.171655 
21   0.171713 
22   0.120189 
23   0.122532 
24   0.119839 
25   0.123047 
26   0.156664 
27   0.147652 
28   0.150649 
29   0.143085 
30   0.126886 
31   0.129094 
32   0.137625 
33   0.138421 
34   0.142857 
 
>  <lowdin_charges> 
34 
1   -0.344921 
2   -0.17647 
3   -0.16232 
4   -0.165413 
5   -0.188314 
6   -0.274606 
7   -0.263522 
8   -0.1873 
9   -0.185457 
10   -0.087864 
11   -0.088626 
12   -0.140981 
13   0.023895 
14   -0.066151 
15   -0.033234 
16   0.023525 
17   -0.15541 
18   -0.026955 
19   0.165645 
20   0.160313 
21   0.15878 
22   0.155386 
23   0.153654 
24   0.152288 
25   0.155609 
26   0.155847 
27   0.154054 
28   0.15301 
29   0.150818 
30   0.15843 
31   0.158163 
32   0.152978 
33   0.154297 
34   0.160852 
 
$$$$ 
 
