PCCDB-ID:  30478 
public computational chemistry database (PCCDB) project, http://pccdb.org 
 
 25 25  0  0  0  0  0  0  0  0999 V2000 
    0.8662   -0.3695   -0.0792 C   0  0  0  0  0  0  0  0  0  0  0  0 
    2.7583    1.2138   -0.6965 C   0  0  0  0  0  0  0  0  0  0  0  0 
    4.6569    1.1738    5.9406 C   0  0  0  0  0  0  0  0  0  0  0  0 
    2.3920   -0.1278   -0.0528 C   0  0  0  0  0  0  0  0  0  0  0  0 
    2.9134   -0.2550    1.3637 C   0  0  0  0  0  0  0  0  0  0  0  0 
    3.0140   -1.6088    1.9299 C   0  0  0  0  0  0  0  0  0  0  0  0 
    3.8099   -0.4338    3.8950 C   0  0  0  0  0  0  0  0  0  0  0  0 
    3.6535   -2.8260    3.9356 N   0  0  0  0  0  0  0  0  0  0  0  0 
    3.2440    0.8127    2.0345 N   0  0  0  0  0  0  0  0  0  0  0  0 
    3.6980    0.7373    3.3286 N   0  0  0  0  0  0  0  0  0  0  0  0 
    3.4955   -1.6045    3.2480 N   0  0  0  0  0  0  0  0  0  0  0  0 
    2.7330   -2.6652    1.3763 O   0  0  0  0  0  0  0  0  0  0  0  0 
    4.3884   -0.5946    5.5591 S   0  0  0  0  0  0  0  0  0  0  0  0 
    0.5021   -0.3531   -1.1126 H   0  0  0  0  0  0  0  0  0  0  0  0 
    0.3412    0.4148    0.4786 H   0  0  0  0  0  0  0  0  0  0  0  0 
    0.6104   -1.3411    0.3536 H   0  0  0  0  0  0  0  0  0  0  0  0 
    2.3952    1.2401   -1.7300 H   0  0  0  0  0  0  0  0  0  0  0  0 
    3.8417    1.3711   -0.7065 H   0  0  0  0  0  0  0  0  0  0  0  0 
    2.3112    2.0491   -0.1498 H   0  0  0  0  0  0  0  0  0  0  0  0 
    5.0258    1.1910    6.9695 H   0  0  0  0  0  0  0  0  0  0  0  0 
    3.7237    1.7329    5.8646 H   0  0  0  0  0  0  0  0  0  0  0  0 
    5.3961    1.6080    5.2667 H   0  0  0  0  0  0  0  0  0  0  0  0 
    2.8561   -0.9421   -0.6255 H   0  0  0  0  0  0  0  0  0  0  0  0 
    4.3090   -3.3885    3.3900 H   0  0  0  0  0  0  0  0  0  0  0  0 
    2.7581   -3.3131    3.8703 H   0  0  0  0  0  0  0  0  0  0  0  0 
  1  4  1  0  0  0  0 
  1 16  1  0  0  0  0 
  1 15  1  0  0  0  0 
  2 19  1  0  0  0  0 
  2  4  1  0  0  0  0 
  3 20  1  0  0  0  0 
  4  5  1  0  0  0  0 
  5  6  1  0  0  0  0 
  5  9  2  0  0  0  0 
  6 11  1  0  0  0  0 
  7 13  1  0  0  0  0 
  9 10  1  0  0  0  0 
 10  7  2  0  0  0  0 
 11  7  1  0  0  0  0 
 11  8  1  0  0  0  0 
 12  6  2  0  0  0  0 
 13  3  1  0  0  0  0 
 14  1  1  0  0  0  0 
 17  2  1  0  0  0  0 
 18  2  1  0  0  0  0 
 21  3  1  0  0  0  0 
 22  3  1  0  0  0  0 
 23  4  1  0  0  0  0 
 24  8  1  0  0  0  0 
 25  8  1  0  0  0  0 
M  END 
>  <HBA> 
6 
 
>  <HBD> 
1 
 
>  <TPSA> 
99.1 
 
>  <cid> 
30478 
 
>  <dipole> 
1.61 
 
>  <excitation_energy_1> 
3.696 
 
>  <excitation_energy_2> 
4.17 
 
>  <excitation_energy_3> 
4.673 
 
>  <excitation_energy_4> 
5.011 
 
>  <homo_energy> 
-6.468 
 
>  <homo_lumo_gap> 
4.825 
 
>  <logP> 
0.779 
 
>  <lumo_energy> 
-1.644 
 
>  <melting_point> 
131.04 
 
>  <molecular_refractivity> 
52.74 
 
>  <oscillator_strength_1> 
0.001 
 
>  <oscillator_strength_2> 
0.1788 
 
>  <oscillator_strength_3> 
0.0002 
 
>  <oscillator_strength_4> 
0.0005 
 
>  <open_babel_can_smiles> 
CSc1nnc(c(=O)n1N)C(C)C 
 
>  <mulliken_charges> 
25 
1   -0.454053 
2   -0.435714 
3   -0.585215 
4   -0.128345 
5   0.244561 
6   0.585659 
7   0.340849 
8   -0.541446 
9   -0.323205 
10   -0.334318 
11   -0.410697 
12   -0.518543 
13   0.202936 
14   0.149387 
15   0.150143 
16   0.165061 
17   0.136863 
18   0.149137 
19   0.163986 
20   0.180067 
21   0.206859 
22   0.207 
23   0.155582 
24   0.346499 
25   0.346947 
 
>  <lowdin_charges> 
25 
1   -0.44204 
2   -0.43746 
3   -0.540202 
4   -0.120942 
5   -0.004774 
6   0.1327 
7   -0.028475 
8   -0.414272 
9   -0.073762 
10   -0.168321 
11   -0.007454 
12   -0.297472 
13   0.213733 
14   0.152542 
15   0.151913 
16   0.15932 
17   0.147266 
18   0.15261 
19   0.160643 
20   0.174656 
21   0.18154 
22   0.182703 
23   0.159904 
24   0.283302 
25   0.282344 
 
$$$$ 
 
