PCCDB-ID:  7768 
public computational chemistry database (PCCDB) project, http://pccdb.org 
 
 19 19  0  0  0  0  0  0  0  0999 V2000 
    1.7465   -0.1627   -0.0728 C   0  0  0  0  0  0  0  0  0  0  0  0 
    0.8551   -1.2638    0.5220 C   0  0  0  0  0  0  0  0  0  0  0  0 
    0.9720    1.0877   -0.5254 C   0  0  0  0  0  0  0  0  0  0  0  0 
   -0.4406   -1.5221   -0.2594 C   0  0  0  0  0  0  0  0  0  0  0  0 
   -0.1883    1.4912    0.4017 C   0  0  0  0  0  0  0  0  0  0  0  0 
   -1.5225   -0.4584   -0.0650 C   0  0  0  0  0  0  0  0  0  0  0  0 
   -1.4402    0.7649    0.2412 N   0  0  0  0  0  0  0  0  0  0  0  0 
   -2.7979   -0.9327   -0.2657 O   0  0  0  0  0  0  0  0  0  0  0  0 
    2.3105   -0.5646   -0.9254 H   0  0  0  0  0  0  0  0  0  0  0  0 
    2.4932    0.1189    0.6812 H   0  0  0  0  0  0  0  0  0  0  0  0 
    0.5859   -1.0087    1.5545 H   0  0  0  0  0  0  0  0  0  0  0  0 
    1.4259   -2.1987    0.5808 H   0  0  0  0  0  0  0  0  0  0  0  0 
    0.5563    0.9355   -1.5304 H   0  0  0  0  0  0  0  0  0  0  0  0 
    1.6706    1.9299   -0.6127 H   0  0  0  0  0  0  0  0  0  0  0  0 
   -0.8563   -2.4861    0.0676 H   0  0  0  0  0  0  0  0  0  0  0  0 
   -0.2335   -1.6341   -1.3340 H   0  0  0  0  0  0  0  0  0  0  0  0 
   -0.4265    2.5461    0.2183 H   0  0  0  0  0  0  0  0  0  0  0  0 
    0.1301    1.4441    1.4550 H   0  0  0  0  0  0  0  0  0  0  0  0 
   -2.7589   -1.8836   -0.4463 H   0  0  0  0  0  0  0  0  0  0  0  0 
  1  2  1  0  0  0  0 
  1 10  1  0  0  0  0 
  2 12  1  0  0  0  0 
  2 11  1  0  0  0  0 
  3  1  1  0  0  0  0 
  3  5  1  0  0  0  0 
  4  6  1  0  0  0  0 
  4 15  1  0  0  0  0 
  4  2  1  0  0  0  0 
  5 18  1  0  0  0  0 
  6  7  2  0  0  0  0 
  7  5  1  0  0  0  0 
  8  6  1  0  0  0  0 
  9  1  1  0  0  0  0 
 13  3  1  0  0  0  0 
 14  3  1  0  0  0  0 
 16  4  1  0  0  0  0 
 17  5  1  0  0  0  0 
 19  8  1  0  0  0  0 
M  END 
>  <HBA> 
2 
 
>  <HBD> 
1 
 
>  <TPSA> 
29.1 
 
>  <cid> 
7768 
 
>  <dipole> 
3.69 
 
>  <excitation_energy_1> 
5.387 
 
>  <excitation_energy_2> 
5.57 
 
>  <excitation_energy_3> 
5.859 
 
>  <excitation_energy_4> 
6.054 
 
>  <homo_energy> 
-6.221 
 
>  <homo_lumo_gap> 
7.002 
 
>  <logP> 
1.005 
 
>  <lumo_energy> 
0.781 
 
>  <melting_point> 
44.59 
 
>  <molecular_refractivity> 
35.76 
 
>  <oscillator_strength_1> 
0.0021 
 
>  <oscillator_strength_2> 
0.0039 
 
>  <oscillator_strength_3> 
0.0015 
 
>  <oscillator_strength_4> 
0.0036 
 
>  <open_babel_can_smiles> 
OC1=NCCCCC1 
 
>  <mulliken_charges> 
19 
1   -0.259677 
2   -0.263038 
3   -0.279212 
4   -0.369779 
5   -0.14698 
6   0.485192 
7   -0.413528 
8   -0.584296 
9   0.133392 
10   0.136993 
11   0.1513 
12   0.138991 
13   0.141583 
14   0.135671 
15   0.138001 
16   0.169606 
17   0.147916 
18   0.138892 
19   0.398975 
 
>  <lowdin_charges> 
19 
1   -0.281917 
2   -0.276331 
3   -0.294694 
4   -0.311863 
5   -0.199033 
6   0.120754 
7   -0.208466 
8   -0.373323 
9   0.143236 
10   0.145633 
11   0.148648 
12   0.149704 
13   0.143785 
14   0.149385 
15   0.150192 
16   0.15995 
17   0.147681 
18   0.14027 
19   0.34639 
 
$$$$ 
 
