PCCDB-ID:  39560 
public computational chemistry database (PCCDB) project, http://pccdb.org 
 
 31 31  0  0  1  0  0  0  0  0999 V2000 
    5.0402   -5.3619    0.9772 C   0  0  0  0  0  0  0  0  0  0  0  0 
   10.4705   -0.0971    2.9918 C   0  0  0  0  0  0  0  0  0  0  0  0 
    5.1914   -3.8538    1.0760 C   0  0  0  0  0  0  0  0  0  0  0  0 
    8.0799    0.1174    2.1701 C   0  0  0  0  0  0  0  0  0  0  0  0 
    9.3919   -1.7369    1.3891 C   0  0  0  0  0  0  0  0  0  0  0  0 
    6.9917   -0.3376    1.4205 C   0  0  0  0  0  0  0  0  0  0  0  0 
    8.3147   -2.1901    0.6346 C   0  0  0  0  0  0  0  0  0  0  0  0 
    9.2957   -0.5734    2.1700 C   0  0  0  0  0  0  0  0  0  0  0  0 
    7.0975   -1.4929    0.6419 C   0  0  0  0  0  0  0  0  0  0  0  0 
    5.9317   -1.9805   -0.2087 C   0  0  1  0  0  0  0  0  0  0  0  0 
    6.1118   -1.6422   -1.6947 C   0  0  0  0  0  0  0  0  0  0  0  0 
    5.9139   -2.4285   -2.6828 N   0  0  0  0  0  0  0  0  0  0  0  0 
    6.4083   -0.3114   -1.9507 N   0  0  0  0  0  0  0  0  0  0  0  0 
    6.6994   -0.0519   -3.3123 O   0  0  0  0  0  0  0  0  0  0  0  0 
    5.7565   -3.3851   -0.1472 O   0  0  0  0  0  0  0  0  0  0  0  0 
    4.6027   -5.7598    1.8992 H   0  0  0  0  0  0  0  0  0  0  0  0 
    6.0142   -5.8371    0.8229 H   0  0  0  0  0  0  0  0  0  0  0  0 
    4.3890   -5.6317    0.1395 H   0  0  0  0  0  0  0  0  0  0  0  0 
   10.2761    0.8830    3.4382 H   0  0  0  0  0  0  0  0  0  0  0  0 
   11.3780   -0.0150    2.3820 H   0  0  0  0  0  0  0  0  0  0  0  0 
   10.6949   -0.7954    3.8083 H   0  0  0  0  0  0  0  0  0  0  0  0 
    5.8401   -3.5805    1.9203 H   0  0  0  0  0  0  0  0  0  0  0  0 
    4.2139   -3.3712    1.2379 H   0  0  0  0  0  0  0  0  0  0  0  0 
    7.9766    1.0197    2.7682 H   0  0  0  0  0  0  0  0  0  0  0  0 
   10.3274   -2.2921    1.3722 H   0  0  0  0  0  0  0  0  0  0  0  0 
    6.0539    0.2134    1.4446 H   0  0  0  0  0  0  0  0  0  0  0  0 
    8.4036   -3.0945    0.0392 H   0  0  0  0  0  0  0  0  0  0  0  0 
    5.0127   -1.4730    0.1286 H   0  0  0  0  0  0  0  0  0  0  0  0 
    5.6316   -3.3504   -2.3513 H   0  0  0  0  0  0  0  0  0  0  0  0 
    7.1731    0.0604   -1.3928 H   0  0  0  0  0  0  0  0  0  0  0  0 
    6.5348   -0.9362   -3.7209 H   0  0  0  0  0  0  0  0  0  0  0  0 
  1  3  1  0  0  0  0 
  1 16  1  0  0  0  0 
  2 19  1  0  0  0  0 
  2 21  1  0  0  0  0 
  3 23  1  0  0  0  0 
  3 22  1  0  0  0  0 
  4 24  1  0  0  0  0 
  5  8  2  0  0  0  0 
  6 26  1  0  0  0  0 
  6  4  2  0  0  0  0 
  7  9  2  0  0  0  0 
  7  5  1  0  0  0  0 
  8  4  1  0  0  0  0 
  8  2  1  0  0  0  0 
  9  6  1  0  0  0  0 
 10 15  1  0  0  0  0 
 10 28  1  1  0  0  0 
 10  9  1  0  0  0  0 
 11 10  1  0  0  0  0 
 12 29  1  0  0  0  0 
 12 11  2  0  0  0  0 
 13 11  1  0  0  0  0 
 13 30  1  0  0  0  0 
 14 13  1  0  0  0  0 
 15  3  1  0  0  0  0 
 17  1  1  0  0  0  0 
 18  1  1  0  0  0  0 
 20  2  1  0  0  0  0 
 25  5  1  0  0  0  0 
 27  7  1  0  0  0  0 
 31 14  1  0  0  0  0 
M  END 
>  <HBA> 
4 
 
>  <HBD> 
2 
 
>  <TPSA> 
67.84 
 
>  <cid> 
39560 
 
>  <dipole> 
5.04 
 
>  <excitation_energy_1> 
4.765 
 
>  <excitation_energy_2> 
4.81 
 
>  <excitation_energy_3> 
5.159 
 
>  <excitation_energy_4> 
5.464 
 
>  <homo_energy> 
-5.807 
 
>  <homo_lumo_gap> 
5.353 
 
>  <logP> 
2.519 
 
>  <lumo_energy> 
-0.454 
 
>  <melting_point> 
127.07 
 
>  <molecular_refractivity> 
59.0 
 
>  <oscillator_strength_1> 
0.0072 
 
>  <oscillator_strength_2> 
0.0035 
 
>  <oscillator_strength_3> 
0.0018 
 
>  <oscillator_strength_4> 
0.0158 
 
>  <open_babel_can_smiles> 
CCO[C@@H](c1ccc(cc1)C)C(=N)NO 
 
>  <mulliken_charges> 
31 
1   -0.457737 
2   -0.531074 
3   -0.014691 
4   -0.183022 
5   -0.176081 
6   -0.191734 
7   -0.169271 
8   0.178804 
9   0.102178 
10   0.043281 
11   0.452366 
12   -0.698664 
13   -0.335323 
14   -0.539455 
15   -0.49927 
16   0.149628 
17   0.161167 
18   0.160707 
19   0.1585 
20   0.165722 
21   0.167195 
22   0.139983 
23   0.1282 
24   0.129734 
25   0.129953 
26   0.137547 
27   0.149909 
28   0.151867 
29   0.315614 
30   0.344472 
31   0.429497 
 
>  <lowdin_charges> 
31 
1   -0.448813 
2   -0.442905 
3   -0.12615 
4   -0.165534 
5   -0.160654 
6   -0.170243 
7   -0.153341 
8   0.005398 
9   -0.04163 
10   -0.013816 
11   0.065756 
12   -0.437793 
13   -0.169633 
14   -0.410698 
15   -0.263897 
16   0.158202 
17   0.158257 
18   0.158653 
19   0.158331 
20   0.163132 
21   0.164076 
22   0.138406 
23   0.130341 
24   0.157987 
25   0.158169 
26   0.160328 
27   0.167538 
28   0.152079 
29   0.271035 
30   0.285857 
31   0.351561 
 
$$$$ 
 
