PCCDB-ID:  62044 
public computational chemistry database (PCCDB) project, http://pccdb.org 
 
 30 31  0  0  1  0  0  0  0  0999 V2000 
    0.7350    0.0961    0.4476 C   0  0  0  0  0  0  0  0  0  0  0  0 
    2.2985    0.2450   -1.4598 C   0  0  0  0  0  0  0  0  0  0  0  0 
    5.2769    2.0855    1.6080 C   0  0  0  0  0  0  0  0  0  0  0  0 
    3.1065   -0.3069    2.0021 C   0  0  0  0  0  0  0  0  0  0  0  0 
    4.3613   -1.3465    0.0780 C   0  0  0  0  0  0  0  0  0  0  0  0 
    2.9702   -1.1622    0.7088 C   0  0  2  0  0  0  0  0  0  0  0  0 
    3.0826    0.9330    1.0552 C   0  0  2  0  0  0  0  0  0  0  0  0 
    5.2959   -0.1369    0.3698 C   0  0  2  0  0  0  0  0  0  0  0  0 
    2.2262    0.0557    0.0608 C   0  0  0  0  0  0  0  0  0  0  0  0 
    4.5277    1.2148    0.5914 C   0  0  2  0  0  0  0  0  0  0  0  0 
    6.3176    0.0069   -0.6015 O   0  0  0  0  0  0  0  0  0  0  0  0 
    4.5698    1.9025   -0.6789 O   0  0  0  0  0  0  0  0  0  0  0  0 
    0.1836   -0.6795   -0.0982 H   0  0  0  0  0  0  0  0  0  0  0  0 
    0.2942    1.0641    0.1764 H   0  0  0  0  0  0  0  0  0  0  0  0 
    0.5505   -0.0596    1.5142 H   0  0  0  0  0  0  0  0  0  0  0  0 
    1.7339   -0.5566   -1.9545 H   0  0  0  0  0  0  0  0  0  0  0  0 
    3.3111    0.2470   -1.8596 H   0  0  0  0  0  0  0  0  0  0  0  0 
    1.8280    1.1927   -1.7557 H   0  0  0  0  0  0  0  0  0  0  0  0 
    5.2620    1.6442    2.6111 H   0  0  0  0  0  0  0  0  0  0  0  0 
    4.8226    3.0820    1.6675 H   0  0  0  0  0  0  0  0  0  0  0  0 
    6.3183    2.1984    1.2906 H   0  0  0  0  0  0  0  0  0  0  0  0 
    3.9951   -0.4569    2.6227 H   0  0  0  0  0  0  0  0  0  0  0  0 
    2.2301   -0.3600    2.6491 H   0  0  0  0  0  0  0  0  0  0  0  0 
    4.2839   -1.4915   -1.0049 H   0  0  0  0  0  0  0  0  0  0  0  0 
    4.8394   -2.2513    0.4732 H   0  0  0  0  0  0  0  0  0  0  0  0 
    2.4185   -2.1084    0.7686 H   0  0  0  0  0  0  0  0  0  0  0  0 
    2.6138    1.8555    1.4282 H   0  0  0  0  0  0  0  0  0  0  0  0 
    5.8219   -0.3512    1.3058 H   0  0  0  0  0  0  0  0  0  0  0  0 
    5.9602    0.6146   -1.2727 H   0  0  0  0  0  0  0  0  0  0  0  0 
    3.8124    2.5040   -0.7291 H   0  0  0  0  0  0  0  0  0  0  0  0 
  1 15  1  0  0  0  0 
  2  9  1  0  0  0  0 
  3 20  1  0  0  0  0 
  3 19  1  0  0  0  0 
  4 22  1  0  0  0  0 
  4 23  1  0  0  0  0 
  5  8  1  0  0  0  0 
  5 25  1  0  0  0  0 
  5  6  1  0  0  0  0 
  6 26  1  1  0  0  0 
  6  4  1  0  0  0  0 
  7 27  1  1  0  0  0 
  7  4  1  0  0  0  0 
  8 10  1  0  0  0  0 
  8 28  1  1  0  0  0 
  9  1  1  0  0  0  0 
  9  6  1  0  0  0  0 
  9  7  1  0  0  0  0 
 10 12  1  6  0  0  0 
 10  7  1  0  0  0  0 
 10  3  1  0  0  0  0 
 11  8  1  0  0  0  0 
 13  1  1  0  0  0  0 
 14  1  1  0  0  0  0 
 16  2  1  0  0  0  0 
 17  2  1  0  0  0  0 
 18  2  1  0  0  0  0 
 21  3  1  0  0  0  0 
 24  5  1  0  0  0  0 
 29 11  1  0  0  0  0 
 30 12  1  0  0  0  0 
M  END 
>  <HBA> 
2 
 
>  <HBD> 
2 
 
>  <TPSA> 
40.46 
 
>  <cid> 
62044 
 
>  <dipole> 
2.94 
 
>  <excitation_energy_1> 
5.985 
 
>  <excitation_energy_2> 
6.421 
 
>  <excitation_energy_3> 
6.556 
 
>  <excitation_energy_4> 
6.677 
 
>  <homo_energy> 
-6.588 
 
>  <homo_lumo_gap> 
8.12 
 
>  <logP> 
1.164 
 
>  <lumo_energy> 
1.532 
 
>  <melting_point> 
82.88 
 
>  <molecular_refractivity> 
48.06 
 
>  <oscillator_strength_1> 
0.0097 
 
>  <oscillator_strength_2> 
0.0036 
 
>  <oscillator_strength_3> 
0.0092 
 
>  <oscillator_strength_4> 
0.0309 
 
>  <open_babel_can_smiles> 
O[C@@H]1C[C@H]2C[C@@H]([C@]1(C)O)C2(C)C 
 
>  <mulliken_charges> 
30 
1   -0.46567 
2   -0.475436 
3   -0.455524 
4   -0.295754 
5   -0.281347 
6   -0.119858 
7   -0.176272 
8   0.116561 
9   0.133464 
10   0.318802 
11   -0.654691 
12   -0.67032 
13   0.144212 
14   0.137703 
15   0.144305 
16   0.137762 
17   0.164188 
18   0.124893 
19   0.140906 
20   0.130875 
21   0.16811 
22   0.136901 
23   0.14463 
24   0.143317 
25   0.137967 
26   0.115636 
27   0.107683 
28   0.134111 
29   0.413238 
30   0.399609 
 
>  <lowdin_charges> 
30 
1   -0.441585 
2   -0.458292 
3   -0.45069 
4   -0.290412 
5   -0.293877 
6   -0.131846 
7   -0.154217 
8   -0.013539 
9   0.006573 
10   0.103402 
11   -0.46264 
12   -0.462857 
13   0.151081 
14   0.146099 
15   0.147837 
16   0.149116 
17   0.156852 
18   0.142073 
19   0.149548 
20   0.144592 
21   0.163034 
22   0.142708 
23   0.151676 
24   0.14815 
25   0.14968 
26   0.135483 
27   0.131963 
28   0.14264 
29   0.34781 
30   0.349635 
 
$$$$ 
 
