PCCDB-ID:  37732 
public computational chemistry database (PCCDB) project, http://pccdb.org 
 
 24 24  0  0  0  0  0  0  0  0999 V2000 
    0.9567    2.4960   -0.1365 C   0  0  0  0  0  0  0  0  0  0  0  0 
    8.3486    2.6030    3.4509 C   0  0  0  0  0  0  0  0  0  0  0  0 
    7.1841    3.0863    4.0578 C   0  0  0  0  0  0  0  0  0  0  0  0 
    8.2447    1.8620    2.2762 C   0  0  0  0  0  0  0  0  0  0  0  0 
    5.9374    2.8316    3.4976 C   0  0  0  0  0  0  0  0  0  0  0  0 
    6.9980    1.5973    1.6997 C   0  0  0  0  0  0  0  0  0  0  0  0 
    2.8985    1.1154    0.3474 C   0  0  0  0  0  0  0  0  0  0  0  0 
    4.3899    1.1464    0.6344 C   0  0  0  0  0  0  0  0  0  0  0  0 
    5.8388    2.0850    2.3142 C   0  0  0  0  0  0  0  0  0  0  0  0 
    2.3967    2.4566    0.0838 N   0  0  0  0  0  0  0  0  0  0  0  0 
    4.5705    1.8833    1.8446 O   0  0  0  0  0  0  0  0  0  0  0  0 
    0.6360    3.5348   -0.2659 H   0  0  0  0  0  0  0  0  0  0  0  0 
    0.3577    2.0481    0.6792 H   0  0  0  0  0  0  0  0  0  0  0  0 
    0.7129    1.9555   -1.0594 H   0  0  0  0  0  0  0  0  0  0  0  0 
    9.3214    2.8036    3.8902 H   0  0  0  0  0  0  0  0  0  0  0  0 
    7.2477    3.6659    4.9751 H   0  0  0  0  0  0  0  0  0  0  0  0 
    9.1400    1.4806    1.7919 H   0  0  0  0  0  0  0  0  0  0  0  0 
    5.0243    3.1984    3.9565 H   0  0  0  0  0  0  0  0  0  0  0  0 
    6.9433    1.0194    0.7844 H   0  0  0  0  0  0  0  0  0  0  0  0 
    2.3849    0.6098    1.1885 H   0  0  0  0  0  0  0  0  0  0  0  0 
    2.7327    0.4962   -0.5448 H   0  0  0  0  0  0  0  0  0  0  0  0 
    4.9213    1.6404   -0.1896 H   0  0  0  0  0  0  0  0  0  0  0  0 
    4.7812    0.1261    0.7518 H   0  0  0  0  0  0  0  0  0  0  0  0 
    2.6370    3.0440    0.8799 H   0  0  0  0  0  0  0  0  0  0  0  0 
  1 10  1  0  0  0  0 
  1 13  1  0  0  0  0 
  2 15  1  0  0  0  0 
  2  3  2  0  0  0  0 
  3 16  1  0  0  0  0 
  4  2  1  0  0  0  0 
  5 18  1  0  0  0  0 
  5  3  1  0  0  0  0 
  6  4  2  0  0  0  0 
  6  9  1  0  0  0  0 
  7  8  1  0  0  0  0 
  7 20  1  0  0  0  0 
  8 23  1  0  0  0  0 
  8 11  1  0  0  0  0 
  9  5  2  0  0  0  0 
 10  7  1  0  0  0  0 
 10 24  1  0  0  0  0 
 11  9  1  0  0  0  0 
 12  1  1  0  0  0  0 
 14  1  1  0  0  0  0 
 17  4  1  0  0  0  0 
 19  6  1  0  0  0  0 
 21  7  1  0  0  0  0 
 22  8  1  0  0  0  0 
M  END 
>  <HBA> 
2 
 
>  <HBD> 
1 
 
>  <TPSA> 
21.26 
 
>  <cid> 
37732 
 
>  <dipole> 
0.85 
 
>  <excitation_energy_1> 
5.048 
 
>  <excitation_energy_2> 
5.405 
 
>  <excitation_energy_3> 
5.552 
 
>  <excitation_energy_4> 
5.62 
 
>  <homo_energy> 
-5.872 
 
>  <homo_lumo_gap> 
5.951 
 
>  <logP> 
1.676 
 
>  <lumo_energy> 
0.079 
 
>  <melting_point> 
34.27 
 
>  <molecular_refractivity> 
45.35 
 
>  <oscillator_strength_1> 
0.0316 
 
>  <oscillator_strength_2> 
0.0012 
 
>  <oscillator_strength_3> 
0.0024 
 
>  <oscillator_strength_4> 
0.0061 
 
>  <open_babel_can_smiles> 
CNCCOc1ccccc1 
 
>  <mulliken_charges> 
24 
1   -0.298882 
2   -0.133113 
3   -0.132779 
4   -0.137681 
5   -0.175333 
6   -0.193383 
7   -0.130325 
8   -0.041255 
9   0.381984 
10   -0.544657 
11   -0.532923 
12   0.150486 
13   0.120728 
14   0.148744 
15   0.125022 
16   0.129381 
17   0.129144 
18   0.132488 
19   0.133925 
20   0.123989 
21   0.141472 
22   0.153271 
23   0.139003 
24   0.310693 
 
>  <lowdin_charges> 
24 
1   -0.35945 
2   -0.179503 
3   -0.145889 
4   -0.147121 
5   -0.185841 
6   -0.212354 
7   -0.207528 
8   -0.131731 
9   0.10317 
10   -0.364524 
11   -0.209316 
12   0.15095 
13   0.122508 
14   0.146733 
15   0.156397 
16   0.157788 
17   0.158026 
18   0.164152 
19   0.162183 
20   0.125511 
21   0.148283 
22   0.147896 
23   0.140278 
24   0.259384 
 
$$$$ 
 
