PCCDB-ID:  34657 
public computational chemistry database (PCCDB) project, http://pccdb.org 
 
 28 28  0  0  1  0  0  0  0  0999 V2000 
    5.5206   -0.9841   -0.3874 C   0  0  0  0  0  0  0  0  0  0  0  0 
    1.6981   -3.5249   -6.0482 C   0  0  0  0  0  0  0  0  0  0  0  0 
    4.4497   -1.5526    0.5464 C   0  0  0  0  0  0  0  0  0  0  0  0 
    2.4195   -1.3948   -2.4592 C   0  0  0  0  0  0  0  0  0  0  0  0 
    2.7843   -3.4999   -1.3645 C   0  0  0  0  0  0  0  0  0  0  0  0 
    2.1712   -2.0510   -3.6696 C   0  0  0  0  0  0  0  0  0  0  0  0 
    2.5406   -4.1677   -2.5550 C   0  0  0  0  0  0  0  0  0  0  0  0 
    2.7316   -2.0937   -1.2889 C   0  0  0  0  0  0  0  0  0  0  0  0 
    2.2336   -3.4470   -3.7214 C   0  0  0  0  0  0  0  0  0  0  0  0 
    3.0125   -1.3648    0.0175 C   0  0  1  0  0  0  0  0  0  0  0  0 
    1.9848   -1.7054    1.1192 C   0  0  0  0  0  0  0  0  0  0  0  0 
    2.2417   -1.7331    2.2976 O   0  0  0  0  0  0  0  0  0  0  0  0 
    0.7167   -1.9248    0.6907 O   0  0  0  0  0  0  0  0  0  0  0  0 
    2.0126   -4.1963   -4.8372 O   0  0  0  0  0  0  0  0  0  0  0  0 
    6.5194   -1.1307    0.0378 H   0  0  0  0  0  0  0  0  0  0  0  0 
    5.3818    0.0936   -0.5421 H   0  0  0  0  0  0  0  0  0  0  0  0 
    5.5008   -1.4670   -1.3706 H   0  0  0  0  0  0  0  0  0  0  0  0 
    1.5652   -4.3071   -6.7974 H   0  0  0  0  0  0  0  0  0  0  0  0 
    2.5109   -2.8564   -6.3609 H   0  0  0  0  0  0  0  0  0  0  0  0 
    0.7692   -2.9464   -5.9584 H   0  0  0  0  0  0  0  0  0  0  0  0 
    4.5068   -1.0751    1.5291 H   0  0  0  0  0  0  0  0  0  0  0  0 
    4.6313   -2.6211    0.7188 H   0  0  0  0  0  0  0  0  0  0  0  0 
    2.3748   -0.3081   -2.4360 H   0  0  0  0  0  0  0  0  0  0  0  0 
    3.0158   -4.0788   -0.4736 H   0  0  0  0  0  0  0  0  0  0  0  0 
    1.9356   -1.4672   -4.5518 H   0  0  0  0  0  0  0  0  0  0  0  0 
    2.5795   -5.2510   -2.6109 H   0  0  0  0  0  0  0  0  0  0  0  0 
    2.8655   -0.2890   -0.1699 H   0  0  0  0  0  0  0  0  0  0  0  0 
    0.7109   -1.9384   -0.2839 H   0  0  0  0  0  0  0  0  0  0  0  0 
  1 15  1  0  0  0  0 
  1  3  1  0  0  0  0 
  2 20  1  0  0  0  0 
  2 14  1  0  0  0  0 
  3 22  1  0  0  0  0 
  3 21  1  0  0  0  0 
  4 23  1  0  0  0  0 
  4  8  2  0  0  0  0 
  5  8  1  0  0  0  0 
  5 24  1  0  0  0  0 
  6  4  1  0  0  0  0 
  7  5  2  0  0  0  0 
  8 10  1  0  0  0  0 
  9  6  2  0  0  0  0 
  9  7  1  0  0  0  0 
 10 27  1  6  0  0  0 
 10  3  1  0  0  0  0 
 10 11  1  0  0  0  0 
 11 12  2  0  0  0  0 
 13 11  1  0  0  0  0 
 14  9  1  0  0  0  0 
 16  1  1  0  0  0  0 
 17  1  1  0  0  0  0 
 18  2  1  0  0  0  0 
 19  2  1  0  0  0  0 
 25  6  1  0  0  0  0 
 26  7  1  0  0  0  0 
 28 13  1  0  0  0  0 
M  END 
>  <HBA> 
3 
 
>  <HBD> 
1 
 
>  <TPSA> 
46.53 
 
>  <cid> 
34657 
 
>  <dipole> 
5.88 
 
>  <excitation_energy_1> 
4.883 
 
>  <excitation_energy_2> 
5.33 
 
>  <excitation_energy_3> 
5.507 
 
>  <excitation_energy_4> 
5.579 
 
>  <homo_energy> 
-6.231 
 
>  <homo_lumo_gap> 
5.731 
 
>  <logP> 
2.273 
 
>  <lumo_energy> 
-0.501 
 
>  <melting_point> 
88.43 
 
>  <molecular_refractivity> 
54.09 
 
>  <oscillator_strength_1> 
0.0235 
 
>  <oscillator_strength_2> 
0.0065 
 
>  <oscillator_strength_3> 
0.1599 
 
>  <oscillator_strength_4> 
0.039 
 
>  <open_babel_can_smiles> 
CC[C@@H](c1ccc(cc1)OC)C(=O)O 
 
>  <mulliken_charges> 
28 
1   -0.452935 
2   -0.218201 
3   -0.24509 
4   -0.20187 
5   -0.173201 
6   -0.190833 
7   -0.171054 
8   0.093162 
9   0.378202 
10   -0.279627 
11   0.603314 
12   -0.450443 
13   -0.572725 
14   -0.502765 
15   0.149433 
16   0.138893 
17   0.153021 
18   0.175326 
19   0.155308 
20   0.154556 
21   0.168934 
22   0.143141 
23   0.135451 
24   0.148288 
25   0.137982 
26   0.148218 
27   0.163477 
28   0.412038 
 
>  <lowdin_charges> 
28 
1   -0.444804 
2   -0.278916 
3   -0.265204 
4   -0.160299 
5   -0.153609 
6   -0.213912 
7   -0.172001 
8   -0.048474 
9   0.104234 
10   -0.163002 
11   0.186813 
12   -0.241243 
13   -0.353106 
14   -0.193589 
15   0.153593 
16   0.143623 
17   0.151601 
18   0.166878 
19   0.148184 
20   0.146714 
21   0.162496 
22   0.145531 
23   0.156882 
24   0.166156 
25   0.166181 
26   0.169557 
27   0.163149 
28   0.356568 
 
$$$$ 
 
