PCCDB-ID:  61918 
public computational chemistry database (PCCDB) project, http://pccdb.org 
 
 21 21  0  0  0  0  0  0  0  0999 V2000 
    3.9118   -0.4904   -0.9411 C   0  0  0  0  0  0  0  0  0  0  0  0 
    4.8939   -2.2469    3.8780 C   0  0  0  0  0  0  0  0  0  0  0  0 
    2.8111   -0.4741    0.1363 C   0  0  0  0  0  0  0  0  0  0  0  0 
    3.2804    2.2952    2.4629 C   0  0  0  0  0  0  0  0  0  0  0  0 
    3.9394    1.7236    3.5524 C   0  0  0  0  0  0  0  0  0  0  0  0 
    4.3527   -1.7505    2.5521 C   0  0  0  0  0  0  0  0  0  0  0  0 
    3.2402    0.2674    1.3793 C   0  0  0  0  0  0  0  0  0  0  0  0 
    3.9329   -0.3019    2.4800 C   0  0  0  0  0  0  0  0  0  0  0  0 
    2.9269    1.5769    1.3977 N   0  0  0  0  0  0  0  0  0  0  0  0 
    4.2568    0.4317    3.5593 N   0  0  0  0  0  0  0  0  0  0  0  0 
    4.2695   -2.4897    1.5836 O   0  0  0  0  0  0  0  0  0  0  0  0 
    3.5431   -0.9836   -1.8468 H   0  0  0  0  0  0  0  0  0  0  0  0 
    4.7891   -1.0405   -0.5896 H   0  0  0  0  0  0  0  0  0  0  0  0 
    4.2141    0.5287   -1.2061 H   0  0  0  0  0  0  0  0  0  0  0  0 
    4.1590   -2.1030    4.6775 H   0  0  0  0  0  0  0  0  0  0  0  0 
    5.7815   -1.6773    4.1708 H   0  0  0  0  0  0  0  0  0  0  0  0 
    5.1392   -3.3057    3.7778 H   0  0  0  0  0  0  0  0  0  0  0  0 
    2.5350   -1.5011    0.3808 H   0  0  0  0  0  0  0  0  0  0  0  0 
    1.9317    0.0502   -0.2520 H   0  0  0  0  0  0  0  0  0  0  0  0 
    3.0240    3.3533    2.4519 H   0  0  0  0  0  0  0  0  0  0  0  0 
    4.2081    2.3109    4.4280 H   0  0  0  0  0  0  0  0  0  0  0  0 
  1 13  1  0  0  0  0 
  1  3  1  0  0  0  0 
  2 16  1  0  0  0  0 
  2 15  1  0  0  0  0 
  3 18  1  0  0  0  0 
  3  7  1  0  0  0  0 
  4  5  2  0  0  0  0 
  5 10  1  0  0  0  0 
  5 21  1  0  0  0  0 
  6  2  1  0  0  0  0 
  7  9  2  0  0  0  0 
  7  8  1  0  0  0  0 
  8  6  1  0  0  0  0 
  8 10  2  0  0  0  0 
  9  4  1  0  0  0  0 
 11  6  2  0  0  0  0 
 12  1  1  0  0  0  0 
 14  1  1  0  0  0  0 
 17  2  1  0  0  0  0 
 19  3  1  0  0  0  0 
 20  4  1  0  0  0  0 
M  END 
>  <HBA> 
3 
 
>  <HBD> 
0 
 
>  <TPSA> 
42.85 
 
>  <cid> 
61918 
 
>  <dipole> 
2.34 
 
>  <excitation_energy_1> 
3.248 
 
>  <excitation_energy_2> 
3.895 
 
>  <excitation_energy_3> 
4.215 
 
>  <excitation_energy_4> 
4.813 
 
>  <homo_energy> 
-6.648 
 
>  <homo_lumo_gap> 
4.561 
 
>  <logP> 
1.242 
 
>  <lumo_energy> 
-2.087 
 
>  <melting_point> 
73.4 
 
>  <molecular_refractivity> 
42.0 
 
>  <oscillator_strength_1> 
0.0005 
 
>  <oscillator_strength_2> 
0.0019 
 
>  <oscillator_strength_3> 
0.0014 
 
>  <oscillator_strength_4> 
0.1603 
 
>  <open_babel_can_smiles> 
CCc1nccnc1C(=O)C 
 
>  <mulliken_charges> 
21 
1   -0.45015 
2   -0.512395 
3   -0.297758 
4   0.039938 
5   0.03076 
6   0.408967 
7   0.268319 
8   0.205504 
9   -0.42779 
10   -0.454699 
11   -0.445632 
12   0.150396 
13   0.166532 
14   0.150753 
15   0.176227 
16   0.184048 
17   0.171286 
18   0.170981 
19   0.153991 
20   0.156592 
21   0.154129 
 
>  <lowdin_charges> 
21 
1   -0.438173 
2   -0.467931 
3   -0.279238 
4   -0.087883 
5   -0.114165 
6   0.163091 
7   0.070881 
8   -0.018513 
9   -0.127896 
10   -0.114319 
11   -0.231414 
12   0.155127 
13   0.159117 
14   0.149715 
15   0.176418 
16   0.180918 
17   0.167708 
18   0.167193 
19   0.15902 
20   0.164326 
21   0.166018 
 
$$$$ 
 
