PCCDB-ID:  20706 
public computational chemistry database (PCCDB) project, http://pccdb.org 
 
 22 23  0  0  1  0  0  0  0  0999 V2000 
   -1.6415   -0.0275    0.1639 C   0  0  0  0  0  0  0  0  0  0  0  0 
   -0.8097    0.8456    0.8655 C   0  0  0  0  0  0  0  0  0  0  0  0 
   -1.0791   -0.9410   -0.7297 C   0  0  0  0  0  0  0  0  0  0  0  0 
    0.5724    0.8088    0.6728 C   0  0  0  0  0  0  0  0  0  0  0  0 
    0.3027   -0.9845   -0.9148 C   0  0  0  0  0  0  0  0  0  0  0  0 
    3.6594   -0.6688    1.5838 C   0  0  0  0  0  0  0  0  0  0  0  0 
    4.2136   -1.8728    0.7874 C   0  0  0  0  0  0  0  0  0  0  0  0 
    1.1457   -0.1113   -0.2160 C   0  0  0  0  0  0  0  0  0  0  0  0 
    2.6506   -0.0763   -0.4654 C   0  0  1  0  0  0  0  0  0  0  0  0 
    3.3965    0.4389    0.6643 N   0  0  0  0  0  0  0  0  0  0  0  0 
    3.3929   -1.7950   -0.8599 S   0  0  0  0  0  0  0  0  0  0  0  0 
   -2.7178    0.0016    0.3124 H   0  0  0  0  0  0  0  0  0  0  0  0 
   -1.2355    1.5610    1.5646 H   0  0  0  0  0  0  0  0  0  0  0  0 
   -1.7164   -1.6276   -1.2809 H   0  0  0  0  0  0  0  0  0  0  0  0 
    1.2223    1.4912    1.2103 H   0  0  0  0  0  0  0  0  0  0  0  0 
    0.7310   -1.7148   -1.5947 H   0  0  0  0  0  0  0  0  0  0  0  0 
    4.3526   -0.3432    2.3661 H   0  0  0  0  0  0  0  0  0  0  0  0 
    2.7140   -0.9468    2.0604 H   0  0  0  0  0  0  0  0  0  0  0  0 
    3.9818   -2.8235    1.2751 H   0  0  0  0  0  0  0  0  0  0  0  0 
    5.2985   -1.8031    0.6567 H   0  0  0  0  0  0  0  0  0  0  0  0 
    2.8567    0.5458   -1.3415 H   0  0  0  0  0  0  0  0  0  0  0  0 
    4.2842    0.8095    0.3290 H   0  0  0  0  0  0  0  0  0  0  0  0 
  1 12  1  0  0  0  0 
  1  2  2  0  0  0  0 
  2 13  1  0  0  0  0 
  3  1  1  0  0  0  0 
  4  2  1  0  0  0  0 
  4 15  1  0  0  0  0 
  5  3  2  0  0  0  0 
  5  8  1  0  0  0  0 
  6 18  1  0  0  0  0 
  6 17  1  0  0  0  0 
  7 19  1  0  0  0  0 
  7  6  1  0  0  0  0 
  8  4  2  0  0  0  0 
  9 21  1  6  0  0  0 
  9  8  1  0  0  0  0 
  9 10  1  0  0  0  0 
 10  6  1  0  0  0  0 
 11  9  1  0  0  0  0 
 11  7  1  0  0  0  0 
 14  3  1  0  0  0  0 
 16  5  1  0  0  0  0 
 20  7  1  0  0  0  0 
 22 10  1  0  0  0  0 
M  END 
>  <HBA> 
2 
 
>  <HBD> 
1 
 
>  <TPSA> 
37.33 
 
>  <cid> 
20706 
 
>  <dipole> 
1.79 
 
>  <excitation_energy_1> 
4.676 
 
>  <excitation_energy_2> 
4.984 
 
>  <excitation_energy_3> 
5.045 
 
>  <excitation_energy_4> 
5.236 
 
>  <homo_energy> 
-5.859 
 
>  <homo_lumo_gap> 
5.804 
 
>  <logP> 
2.35 
 
>  <lumo_energy> 
-0.054 
 
>  <melting_point> 
64.55 
 
>  <molecular_refractivity> 
53.22 
 
>  <oscillator_strength_1> 
0.0044 
 
>  <oscillator_strength_2> 
0.0085 
 
>  <oscillator_strength_3> 
0.0036 
 
>  <oscillator_strength_4> 
0.0024 
 
>  <open_babel_can_smiles> 
C1CS[C@H](N1)c1ccccc1 
 
>  <mulliken_charges> 
22 
1   -0.126607 
2   -0.131237 
3   -0.135332 
4   -0.166475 
5   -0.172375 
6   -0.159487 
7   -0.417345 
8   0.159186 
9   -0.225094 
10   -0.510407 
11   0.035134 
12   0.126787 
13   0.126923 
14   0.128696 
15   0.148715 
16   0.146941 
17   0.155654 
18   0.174634 
19   0.179007 
20   0.168009 
21   0.183897 
22   0.310775 
 
>  <lowdin_charges> 
22 
1   -0.156917 
2   -0.158669 
3   -0.158302 
4   -0.165267 
5   -0.160946 
6   -0.214062 
7   -0.387259 
8   -0.022402 
9   -0.149169 
10   -0.326709 
11   0.023627 
12   0.154394 
13   0.157191 
14   0.158557 
15   0.168934 
16   0.167985 
17   0.156348 
18   0.159335 
19   0.167406 
20   0.152818 
21   0.169638 
22   0.263468 
 
$$$$ 
 
