PCCDB-ID:  26326 
public computational chemistry database (PCCDB) project, http://pccdb.org 
 
 36 35  0  0  0  0  0  0  0  0999 V2000 
    4.9420    0.5330    0.0058 C   0  0  0  0  0  0  0  0  0  0  0  0 
    2.5206   -0.1693   -0.0382 C   0  0  0  0  0  0  0  0  0  0  0  0 
    9.7158   -1.8866    0.4554 C   0  0  0  0  0  0  0  0  0  0  0  0 
   10.6823   -3.8042    1.7776 C   0  0  0  0  0  0  0  0  0  0  0  0 
    5.4482   -3.3001    2.3059 C   0  0  0  0  0  0  0  0  0  0  0  0 
    5.8597   -4.1188    1.0714 C   0  0  0  0  0  0  0  0  0  0  0  0 
    5.2127   -1.8092    2.0388 C   0  0  0  0  0  0  0  0  0  0  0  0 
    7.1658   -3.6669    0.4086 C   0  0  0  0  0  0  0  0  0  0  0  0 
    3.8271   -0.2018    0.7603 C   0  0  0  0  0  0  0  0  0  0  0  0 
    9.5994   -3.3808    0.7808 C   0  0  0  0  0  0  0  0  0  0  0  0 
    4.1993   -1.6026    1.0023 N   0  0  0  0  0  0  0  0  0  0  0  0 
    8.2819   -3.6854    1.3562 N   0  0  0  0  0  0  0  0  0  0  0  0 
    4.6529    1.5723   -0.1882 H   0  0  0  0  0  0  0  0  0  0  0  0 
    5.1367    0.0389   -0.9531 H   0  0  0  0  0  0  0  0  0  0  0  0 
    5.8775    0.5526    0.5744 H   0  0  0  0  0  0  0  0  0  0  0  0 
    2.6459   -0.6901   -0.9946 H   0  0  0  0  0  0  0  0  0  0  0  0 
    2.2120    0.8616   -0.2424 H   0  0  0  0  0  0  0  0  0  0  0  0 
    1.7058   -0.6584    0.5111 H   0  0  0  0  0  0  0  0  0  0  0  0 
   10.7115   -1.6569    0.0588 H   0  0  0  0  0  0  0  0  0  0  0  0 
    9.5536   -1.2908    1.3610 H   0  0  0  0  0  0  0  0  0  0  0  0 
    8.9824   -1.5724   -0.2945 H   0  0  0  0  0  0  0  0  0  0  0  0 
   11.6820   -3.5933    1.3830 H   0  0  0  0  0  0  0  0  0  0  0  0 
   10.6286   -4.8797    1.9911 H   0  0  0  0  0  0  0  0  0  0  0  0 
   10.5613   -3.2642    2.7238 H   0  0  0  0  0  0  0  0  0  0  0  0 
    6.2214   -3.3856    3.0774 H   0  0  0  0  0  0  0  0  0  0  0  0 
    4.5309   -3.7370    2.7295 H   0  0  0  0  0  0  0  0  0  0  0  0 
    5.0650   -4.0716    0.3186 H   0  0  0  0  0  0  0  0  0  0  0  0 
    5.9533   -5.1756    1.3649 H   0  0  0  0  0  0  0  0  0  0  0  0 
    6.1514   -1.3514    1.7086 H   0  0  0  0  0  0  0  0  0  0  0  0 
    4.9461   -1.3125    2.9930 H   0  0  0  0  0  0  0  0  0  0  0  0 
    7.0412   -2.6461    0.0318 H   0  0  0  0  0  0  0  0  0  0  0  0 
    7.3563   -4.3024   -0.4792 H   0  0  0  0  0  0  0  0  0  0  0  0 
    3.6577    0.3327    1.7175 H   0  0  0  0  0  0  0  0  0  0  0  0 
    9.7591   -3.9452   -0.1607 H   0  0  0  0  0  0  0  0  0  0  0  0 
    3.3590   -2.1098    1.2809 H   0  0  0  0  0  0  0  0  0  0  0  0 
    8.3254   -4.6177    1.7687 H   0  0  0  0  0  0  0  0  0  0  0  0 
  1 15  1  0  0  0  0 
  1  9  1  0  0  0  0 
  2 18  1  0  0  0  0 
  2  9  1  0  0  0  0 
  3 10  1  0  0  0  0 
  3 20  1  0  0  0  0 
  4 23  1  0  0  0  0 
  4 24  1  0  0  0  0 
  5 26  1  0  0  0  0 
  5 25  1  0  0  0  0 
  6 28  1  0  0  0  0 
  6  5  1  0  0  0  0 
  7  5  1  0  0  0  0 
  7 30  1  0  0  0  0 
  8  6  1  0  0  0  0 
  8 12  1  0  0  0  0 
  9 11  1  0  0  0  0 
  9 33  1  0  0  0  0 
 10 12  1  0  0  0  0 
 10  4  1  0  0  0  0 
 11 35  1  0  0  0  0 
 11  7  1  0  0  0  0 
 12 36  1  0  0  0  0 
 13  1  1  0  0  0  0 
 14  1  1  0  0  0  0 
 16  2  1  0  0  0  0 
 17  2  1  0  0  0  0 
 19  3  1  0  0  0  0 
 21  3  1  0  0  0  0 
 22  4  1  0  0  0  0 
 27  6  1  0  0  0  0 
 29  7  1  0  0  0  0 
 31  8  1  0  0  0  0 
 32  8  1  0  0  0  0 
 34 10  1  0  0  0  0 
M  END 
>  <HBA> 
2 
 
>  <HBD> 
2 
 
>  <TPSA> 
24.06 
 
>  <cid> 
26326 
 
>  <dipole> 
0.57 
 
>  <excitation_energy_1> 
5.322 
 
>  <excitation_energy_2> 
5.387 
 
>  <excitation_energy_3> 
5.735 
 
>  <excitation_energy_4> 
5.781 
 
>  <homo_energy> 
-5.747 
 
>  <homo_lumo_gap> 
7.812 
 
>  <logP> 
2.544 
 
>  <lumo_energy> 
2.065 
 
>  <melting_point> 
25.14 
 
>  <molecular_refractivity> 
55.79 
 
>  <oscillator_strength_1> 
0.0023 
 
>  <oscillator_strength_2> 
0.0128 
 
>  <oscillator_strength_3> 
0.0081 
 
>  <oscillator_strength_4> 
0.0416 
 
>  <open_babel_can_smiles> 
CC(NCCCCNC(C)C)C 
 
>  <mulliken_charges> 
36 
1   -0.438214 
2   -0.457578 
3   -0.438467 
4   -0.457361 
5   -0.266603 
6   -0.266761 
7   -0.124777 
8   -0.124753 
9   0.073405 
10   0.073349 
11   -0.557221 
12   -0.557283 
13   0.136009 
14   0.148671 
15   0.145449 
16   0.153532 
17   0.143674 
18   0.134001 
19   0.136139 
20   0.148873 
21   0.14538 
22   0.143561 
23   0.133932 
24   0.153594 
25   0.147318 
26   0.117067 
27   0.147279 
28   0.117128 
29   0.153987 
30   0.105917 
31   0.154125 
32   0.105891 
33   0.099823 
34   0.099853 
35   0.285552 
36   0.285508 
 
>  <lowdin_charges> 
36 
1   -0.448404 
2   -0.448515 
3   -0.450866 
4   -0.446049 
5   -0.282903 
6   -0.281146 
7   -0.205243 
8   -0.204646 
9   -0.054067 
10   -0.054002 
11   -0.368715 
12   -0.366716 
13   0.147112 
14   0.151405 
15   0.149833 
16   0.153146 
17   0.151175 
18   0.145106 
19   0.147896 
20   0.152028 
21   0.150739 
22   0.151369 
23   0.142426 
24   0.15331 
25   0.153306 
26   0.134453 
27   0.153312 
28   0.132565 
29   0.145514 
30   0.116013 
31   0.144747 
32   0.116418 
33   0.112369 
34   0.112248 
35   0.248307 
36   0.246475 
 
$$$$ 
 
