PCCDB-ID:  30111 
public computational chemistry database (PCCDB) project, http://pccdb.org 
 
 36 35  0  0  1  0  0  0  0  0999 V2000 
   -1.8791    0.6084    1.7875 C   0  0  0  0  0  0  0  0  0  0  0  0 
    3.2224    5.9764   -0.8690 C   0  0  0  0  0  0  0  0  0  0  0  0 
    1.2475    1.1221   -1.9244 C   0  0  0  0  0  0  0  0  0  0  0  0 
    6.2710    4.6731   -3.4419 C   0  0  0  0  0  0  0  0  0  0  0  0 
    0.4070    1.7040    1.5495 C   0  0  0  0  0  0  0  0  0  0  0  0 
    3.9705    4.9845   -3.0857 C   0  0  0  0  0  0  0  0  0  0  0  0 
    1.4795    3.4309   -0.8875 C   0  0  0  0  0  0  0  0  0  0  0  0 
   -0.9350    1.7087    2.2735 C   0  0  1  0  0  0  0  0  0  0  0  0 
    2.8847    5.0172   -2.0140 C   0  0  1  0  0  0  0  0  0  0  0  0 
    1.3678    1.9226   -0.6346 C   0  0  1  0  0  0  0  0  0  0  0  0 
   -1.4990    3.0081    2.0915 O   0  0  0  0  0  0  0  0  0  0  0  0 
    5.2278    4.7280   -2.4959 O   0  0  0  0  0  0  0  0  0  0  0  0 
    0.2003    1.6739    0.1494 O   0  0  0  0  0  0  0  0  0  0  0  0 
    2.7003    3.6773   -1.5625 O   0  0  0  0  0  0  0  0  0  0  0  0 
   -1.4392   -0.3842    1.9387 H   0  0  0  0  0  0  0  0  0  0  0  0 
   -2.0895    0.7388    0.7234 H   0  0  0  0  0  0  0  0  0  0  0  0 
   -2.8250    0.6397    2.3438 H   0  0  0  0  0  0  0  0  0  0  0  0 
    4.1412    5.6542   -0.3731 H   0  0  0  0  0  0  0  0  0  0  0  0 
    2.4139    6.0149   -0.1323 H   0  0  0  0  0  0  0  0  0  0  0  0 
    3.3724    6.9921   -1.2532 H   0  0  0  0  0  0  0  0  0  0  0  0 
    0.3170    1.3821   -2.4424 H   0  0  0  0  0  0  0  0  0  0  0  0 
    1.2317    0.0485   -1.7113 H   0  0  0  0  0  0  0  0  0  0  0  0 
    2.0911    1.3448   -2.5837 H   0  0  0  0  0  0  0  0  0  0  0  0 
    7.1958    4.4766   -2.8929 H   0  0  0  0  0  0  0  0  0  0  0  0 
    6.3764    5.6238   -3.9913 H   0  0  0  0  0  0  0  0  0  0  0  0 
    6.1142    3.8674   -4.1776 H   0  0  0  0  0  0  0  0  0  0  0  0 
    0.9874    0.8216    1.8694 H   0  0  0  0  0  0  0  0  0  0  0  0 
    0.9649    2.6013    1.8547 H   0  0  0  0  0  0  0  0  0  0  0  0 
    3.9836    5.9550   -3.6138 H   0  0  0  0  0  0  0  0  0  0  0  0 
    3.7207    4.2039   -3.8229 H   0  0  0  0  0  0  0  0  0  0  0  0 
    1.4320    3.9677    0.0712 H   0  0  0  0  0  0  0  0  0  0  0  0 
    0.6190    3.7609   -1.4937 H   0  0  0  0  0  0  0  0  0  0  0  0 
   -0.7096    1.5457    3.3426 H   0  0  0  0  0  0  0  0  0  0  0  0 
    1.9592    5.3548   -2.5135 H   0  0  0  0  0  0  0  0  0  0  0  0 
    2.2662    1.5987   -0.0865 H   0  0  0  0  0  0  0  0  0  0  0  0 
   -2.3942    2.9923    2.4634 H   0  0  0  0  0  0  0  0  0  0  0  0 
  1 15  1  0  0  0  0 
  1  8  1  0  0  0  0 
  1 17  1  0  0  0  0 
  2 18  1  0  0  0  0 
  2 19  1  0  0  0  0 
  3 22  1  0  0  0  0 
  3 10  1  0  0  0  0 
  4 24  1  0  0  0  0 
  4 12  1  0  0  0  0 
  5 28  1  0  0  0  0 
  5 27  1  0  0  0  0 
  5  8  1  0  0  0  0 
  6 12  1  0  0  0  0 
  6  9  1  0  0  0  0 
  7 10  1  0  0  0  0 
  7 31  1  0  0  0  0 
  8 33  1  1  0  0  0 
  9 34  1  6  0  0  0 
  9 14  1  0  0  0  0 
  9  2  1  0  0  0  0 
 10 35  1  1  0  0  0 
 10 13  1  0  0  0  0 
 11  8  1  0  0  0  0 
 11 36  1  0  0  0  0 
 13  5  1  0  0  0  0 
 14  7  1  0  0  0  0 
 16  1  1  0  0  0  0 
 20  2  1  0  0  0  0 
 21  3  1  0  0  0  0 
 23  3  1  0  0  0  0 
 25  4  1  0  0  0  0 
 26  4  1  0  0  0  0 
 29  6  1  0  0  0  0 
 30  6  1  0  0  0  0 
 32  7  1  0  0  0  0 
M  END 
>  <HBA> 
4 
 
>  <HBD> 
1 
 
>  <TPSA> 
47.92 
 
>  <cid> 
30111 
 
>  <dipole> 
0.46 
 
>  <excitation_energy_1> 
6.119 
 
>  <excitation_energy_2> 
6.296 
 
>  <excitation_energy_3> 
6.422 
 
>  <excitation_energy_4> 
6.486 
 
>  <homo_energy> 
-6.544 
 
>  <homo_lumo_gap> 
8.452 
 
>  <logP> 
0.824 
 
>  <lumo_energy> 
1.908 
 
>  <melting_point> 
-37.45 
 
>  <molecular_refractivity> 
54.6 
 
>  <oscillator_strength_1> 
0.0055 
 
>  <oscillator_strength_2> 
0.0018 
 
>  <oscillator_strength_3> 
0.0182 
 
>  <oscillator_strength_4> 
0.0182 
 
>  <open_babel_can_smiles> 
COC[C@@H](OC[C@@H](OC[C@@H](O)C)C)C 
 
>  <mulliken_charges> 
36 
1   -0.465389 
2   -0.463262 
3   -0.452124 
4   -0.188443 
5   -0.013653 
6   -0.016703 
7   -0.0178 
8   0.130185 
9   0.148103 
10   0.130764 
11   -0.624409 
12   -0.455146 
13   -0.489276 
14   -0.489369 
15   0.142562 
16   0.181466 
17   0.12833 
18   0.177608 
19   0.148067 
20   0.138266 
21   0.146936 
22   0.145673 
23   0.161381 
24   0.157988 
25   0.126025 
26   0.130576 
27   0.117473 
28   0.136795 
29   0.112221 
30   0.128153 
31   0.132149 
32   0.12294 
33   0.108945 
34   0.110543 
35   0.124989 
36   0.387435 
 
>  <lowdin_charges> 
36 
1   -0.459843 
2   -0.460021 
3   -0.449312 
4   -0.279188 
5   -0.136338 
6   -0.135983 
7   -0.143715 
8   -0.002975 
9   0.000713 
10   0.001511 
11   -0.46618 
12   -0.264135 
13   -0.269173 
14   -0.271708 
15   0.153849 
16   0.166221 
17   0.142509 
18   0.167087 
19   0.152787 
20   0.151884 
21   0.152562 
22   0.151575 
23   0.162551 
24   0.155187 
25   0.129302 
26   0.132489 
27   0.128658 
28   0.138947 
29   0.125461 
30   0.13531 
31   0.133776 
32   0.130681 
33   0.122561 
34   0.128251 
35   0.13417 
36   0.340532 
 
$$$$ 
 
