PCCDB-ID:  33503 
public computational chemistry database (PCCDB) project, http://pccdb.org 
 
 41 40  0  0  0  0  0  0  0  0999 V2000 
    1.7917   -2.6014   -4.5350 C   0  0  0  0  0  0  0  0  0  0  0  0 
   11.0182    3.3879   -3.1667 C   0  0  0  0  0  0  0  0  0  0  0  0 
   11.5317    1.6368   -1.4281 C   0  0  0  0  0  0  0  0  0  0  0  0 
    3.0188   -1.7707   -4.1444 C   0  0  0  0  0  0  0  0  0  0  0  0 
    4.3273   -2.3326   -4.7182 C   0  0  0  0  0  0  0  0  0  0  0  0 
    5.5787   -1.4905   -4.4182 C   0  0  0  0  0  0  0  0  0  0  0  0 
    5.9681   -1.4374   -2.9324 C   0  0  0  0  0  0  0  0  0  0  0  0 
    7.3052   -0.7312   -2.6498 C   0  0  0  0  0  0  0  0  0  0  0  0 
    7.3098    0.7699   -2.9803 C   0  0  0  0  0  0  0  0  0  0  0  0 
    8.5726    1.5244   -2.5253 C   0  0  0  0  0  0  0  0  0  0  0  0 
    9.8411    1.1186   -3.2918 C   0  0  0  0  0  0  0  0  0  0  0  0 
   12.2727    1.3392   -3.8207 C   0  0  0  0  0  0  0  0  0  0  0  0 
   11.1494    1.8779   -2.9083 C   0  0  0  0  0  0  0  0  0  0  0  0 
   12.8351    1.9852   -4.6695 O   0  0  0  0  0  0  0  0  0  0  0  0 
   12.6217    0.0322   -3.6427 O   0  0  0  0  0  0  0  0  0  0  0  0 
    0.8714   -2.1797   -4.1150 H   0  0  0  0  0  0  0  0  0  0  0  0 
    1.8805   -3.6333   -4.1731 H   0  0  0  0  0  0  0  0  0  0  0  0 
    1.6724   -2.6437   -5.6247 H   0  0  0  0  0  0  0  0  0  0  0  0 
   10.2602    3.8287   -2.5121 H   0  0  0  0  0  0  0  0  0  0  0  0 
   10.7436    3.5857   -4.2066 H   0  0  0  0  0  0  0  0  0  0  0  0 
   11.9691    3.8948   -2.9791 H   0  0  0  0  0  0  0  0  0  0  0  0 
   10.8104    2.1213   -0.7633 H   0  0  0  0  0  0  0  0  0  0  0  0 
   12.5201    2.0540   -1.2063 H   0  0  0  0  0  0  0  0  0  0  0  0 
   11.5485    0.5726   -1.1575 H   0  0  0  0  0  0  0  0  0  0  0  0 
    3.0827   -1.7158   -3.0496 H   0  0  0  0  0  0  0  0  0  0  0  0 
    2.8870   -0.7364   -4.4946 H   0  0  0  0  0  0  0  0  0  0  0  0 
    4.2202   -2.4264   -5.8084 H   0  0  0  0  0  0  0  0  0  0  0  0 
    4.4786   -3.3550   -4.3402 H   0  0  0  0  0  0  0  0  0  0  0  0 
    5.4224   -0.4724   -4.8013 H   0  0  0  0  0  0  0  0  0  0  0  0 
    6.4251   -1.9024   -4.9869 H   0  0  0  0  0  0  0  0  0  0  0  0 
    6.0275   -2.4662   -2.5485 H   0  0  0  0  0  0  0  0  0  0  0  0 
    5.1760   -0.9420   -2.3540 H   0  0  0  0  0  0  0  0  0  0  0  0 
    8.1011   -1.2436   -3.2086 H   0  0  0  0  0  0  0  0  0  0  0  0 
    7.5498   -0.8553   -1.5844 H   0  0  0  0  0  0  0  0  0  0  0  0 
    6.4387    1.2355   -2.4974 H   0  0  0  0  0  0  0  0  0  0  0  0 
    7.1732    0.9177   -4.0602 H   0  0  0  0  0  0  0  0  0  0  0  0 
    8.7142    1.3603   -1.4481 H   0  0  0  0  0  0  0  0  0  0  0  0 
    8.3973    2.5991   -2.6545 H   0  0  0  0  0  0  0  0  0  0  0  0 
    9.6659    1.2647   -4.3669 H   0  0  0  0  0  0  0  0  0  0  0  0 
   10.0036    0.0401   -3.1589 H   0  0  0  0  0  0  0  0  0  0  0  0 
   12.1000   -0.3585   -2.9234 H   0  0  0  0  0  0  0  0  0  0  0  0 
  1 17  1  0  0  0  0 
  1  4  1  0  0  0  0 
  1 16  1  0  0  0  0 
  2 21  1  0  0  0  0 
  2 13  1  0  0  0  0 
  2 19  1  0  0  0  0 
  3 23  1  0  0  0  0 
  3 24  1  0  0  0  0 
  3 22  1  0  0  0  0 
  4 25  1  0  0  0  0 
  5  6  1  0  0  0  0 
  5 28  1  0  0  0  0 
  5  4  1  0  0  0  0 
  6  7  1  0  0  0  0 
  7  8  1  0  0  0  0 
  7 31  1  0  0  0  0 
  7 32  1  0  0  0  0 
  8 34  1  0  0  0  0 
  9  8  1  0  0  0  0 
  9 10  1  0  0  0  0 
  9 35  1  0  0  0  0 
 10 37  1  0  0  0  0 
 11 40  1  0  0  0  0 
 11 13  1  0  0  0  0 
 11 10  1  0  0  0  0 
 12 15  1  0  0  0  0 
 12 13  1  0  0  0  0 
 13  3  1  0  0  0  0 
 14 12  2  0  0  0  0 
 15 41  1  0  0  0  0 
 18  1  1  0  0  0  0 
 20  2  1  0  0  0  0 
 26  4  1  0  0  0  0 
 27  5  1  0  0  0  0 
 29  6  1  0  0  0  0 
 30  6  1  0  0  0  0 
 33  8  1  0  0  0  0 
 36  9  1  0  0  0  0 
 38 10  1  0  0  0  0 
 39 11  1  0  0  0  0 
M  END 
>  <HBA> 
2 
 
>  <HBD> 
1 
 
>  <TPSA> 
37.3 
 
>  <cid> 
33503 
 
>  <dipole> 
4.46 
 
>  <excitation_energy_1> 
5.606 
 
>  <excitation_energy_2> 
6.363 
 
>  <excitation_energy_3> 
6.93 
 
>  <excitation_energy_4> 
7.157 
 
>  <homo_energy> 
-7.094 
 
>  <homo_lumo_gap> 
7.497 
 
>  <logP> 
4.238 
 
>  <lumo_energy> 
0.403 
 
>  <melting_point> 
64.63 
 
>  <molecular_refractivity> 
66.12 
 
>  <oscillator_strength_1> 
0.0033 
 
>  <oscillator_strength_2> 
0.0104 
 
>  <oscillator_strength_3> 
0.0073 
 
>  <oscillator_strength_4> 
0.0099 
 
>  <open_babel_can_smiles> 
CCCCCCCCCC(C(=O)O)(C)C 
 
>  <mulliken_charges> 
41 
1   -0.441553 
2   -0.443292 
3   -0.467262 
4   -0.248644 
5   -0.24849 
6   -0.256963 
7   -0.256179 
8   -0.259307 
9   -0.258324 
10   -0.267358 
11   -0.267381 
12   0.612309 
13   -0.033393 
14   -0.447417 
15   -0.58036 
16   0.141569 
17   0.141569 
18   0.14182 
19   0.140001 
20   0.162473 
21   0.159815 
22   0.164641 
23   0.167213 
24   0.127479 
25   0.134832 
26   0.129027 
27   0.127836 
28   0.125958 
29   0.132321 
30   0.127 
31   0.127333 
32   0.132976 
33   0.130952 
34   0.124456 
35   0.131395 
36   0.138532 
37   0.132243 
38   0.142065 
39   0.151553 
40   0.118611 
41   0.409943 
 
>  <lowdin_charges> 
41 
1   -0.441394 
2   -0.438453 
3   -0.445796 
4   -0.271353 
5   -0.271971 
6   -0.278003 
7   -0.277033 
8   -0.27782 
9   -0.27549 
10   -0.274739 
11   -0.273077 
12   0.196749 
13   -0.028826 
14   -0.238732 
15   -0.362767 
16   0.149386 
17   0.145323 
18   0.144386 
19   0.14913 
20   0.160855 
21   0.161169 
22   0.161654 
23   0.161136 
24   0.13853 
25   0.137645 
26   0.136879 
27   0.138517 
28   0.135867 
29   0.138287 
30   0.140874 
31   0.139381 
32   0.140449 
33   0.13826 
34   0.136826 
35   0.14346 
36   0.140499 
37   0.138013 
38   0.145716 
39   0.150101 
40   0.132168 
41   0.354198 
 
$$$$ 
 
