PCCDB-ID:  18507 
public computational chemistry database (PCCDB) project, http://pccdb.org 
 
 24 25  0  0  0  0  0  0  0  0999 V2000 
    1.5703   -0.3387   -0.9765 C   0  0  0  0  0  0  0  0  0  0  0  0 
    7.0157    0.8358   -1.2558 C   0  0  0  0  0  0  0  0  0  0  0  0 
    6.2236   -0.2658   -0.8516 C   0  0  0  0  0  0  0  0  0  0  0  0 
    6.4683    2.0995   -1.2872 C   0  0  0  0  0  0  0  0  0  0  0  0 
    4.9029   -0.0915   -0.5004 C   0  0  0  0  0  0  0  0  0  0  0  0 
    4.5252    3.6130   -0.9331 C   0  0  0  0  0  0  0  0  0  0  0  0 
    3.2194    3.8009   -0.5538 C   0  0  0  0  0  0  0  0  0  0  0  0 
    5.1130    2.3193   -0.9296 C   0  0  0  0  0  0  0  0  0  0  0  0 
    4.3064    1.1988   -0.5405 C   0  0  0  0  0  0  0  0  0  0  0  0 
    2.3996    2.7001   -0.1778 C   0  0  0  0  0  0  0  0  0  0  0  0 
    2.9443    1.4216   -0.2046 C   0  0  0  0  0  0  0  0  0  0  0  0 
    1.0969    2.9110    0.2681 N   0  0  0  0  0  0  0  0  0  0  0  0 
    2.1245    0.3538    0.1465 O   0  0  0  0  0  0  0  0  0  0  0  0 
    2.3561   -0.7606   -1.6142 H   0  0  0  0  0  0  0  0  0  0  0  0 
    0.9422    0.3266   -1.5847 H   0  0  0  0  0  0  0  0  0  0  0  0 
    0.9575   -1.1477   -0.5705 H   0  0  0  0  0  0  0  0  0  0  0  0 
    8.0555    0.6821   -1.5307 H   0  0  0  0  0  0  0  0  0  0  0  0 
    6.6664   -1.2576   -0.8091 H   0  0  0  0  0  0  0  0  0  0  0  0 
    7.0724    2.9544   -1.5833 H   0  0  0  0  0  0  0  0  0  0  0  0 
    4.3065   -0.9328   -0.1630 H   0  0  0  0  0  0  0  0  0  0  0  0 
    5.1335    4.4653   -1.2258 H   0  0  0  0  0  0  0  0  0  0  0  0 
    2.7914    4.8004   -0.5281 H   0  0  0  0  0  0  0  0  0  0  0  0 
    0.5873    3.6560   -0.1885 H   0  0  0  0  0  0  0  0  0  0  0  0 
    0.5575    2.0623    0.3780 H   0  0  0  0  0  0  0  0  0  0  0  0 
  1 16  1  0  0  0  0 
  1 13  1  0  0  0  0 
  2  3  1  0  0  0  0 
  3 18  1  0  0  0  0 
  3  5  2  0  0  0  0 
  4  2  2  0  0  0  0 
  4  8  1  0  0  0  0 
  5 20  1  0  0  0  0 
  6  8  2  0  0  0  0 
  6  7  1  0  0  0  0 
  7 22  1  0  0  0  0 
  7 10  2  0  0  0  0 
  8  9  1  0  0  0  0 
  9  5  1  0  0  0  0 
  9 11  2  0  0  0  0 
 10 12  1  0  0  0  0 
 11 10  1  0  0  0  0 
 11 13  1  0  0  0  0 
 12 24  1  0  0  0  0 
 14  1  1  0  0  0  0 
 15  1  1  0  0  0  0 
 17  2  1  0  0  0  0 
 19  4  1  0  0  0  0 
 21  6  1  0  0  0  0 
 23 12  1  0  0  0  0 
M  END 
>  <HBA> 
2 
 
>  <HBD> 
1 
 
>  <TPSA> 
35.25 
 
>  <cid> 
18507 
 
>  <dipole> 
2.6 
 
>  <excitation_energy_1> 
3.789 
 
>  <excitation_energy_2> 
4.335 
 
>  <excitation_energy_3> 
4.549 
 
>  <excitation_energy_4> 
5.04 
 
>  <homo_energy> 
-5.078 
 
>  <homo_lumo_gap> 
4.34 
 
>  <logP> 
3.012 
 
>  <lumo_energy> 
-0.737 
 
>  <melting_point> 
103.92 
 
>  <molecular_refractivity> 
54.84 
 
>  <oscillator_strength_1> 
0.0525 
 
>  <oscillator_strength_2> 
0.0213 
 
>  <oscillator_strength_3> 
0.0035 
 
>  <oscillator_strength_4> 
0.0465 
 
>  <open_babel_can_smiles> 
COc1c(N)ccc2c1cccc2 
 
>  <mulliken_charges> 
24 
1   -0.211803 
2   -0.137932 
3   -0.137467 
4   -0.198711 
5   -0.198188 
6   -0.195315 
7   -0.183131 
8   0.129348 
9   0.116952 
10   0.297608 
11   0.193723 
12   -0.798885 
13   -0.540786 
14   0.153898 
15   0.13668 
16   0.159552 
17   0.124194 
18   0.125134 
19   0.125331 
20   0.137768 
21   0.126937 
22   0.123266 
23   0.31886 
24   0.332967 
 
>  <lowdin_charges> 
24 
1   -0.281361 
2   -0.169389 
3   -0.155929 
4   -0.155463 
5   -0.169902 
6   -0.155422 
7   -0.183421 
8   -0.012812 
9   -0.010076 
10   0.039569 
11   0.038195 
12   -0.489324 
13   -0.242438 
14   0.147768 
15   0.138076 
16   0.156333 
17   0.154828 
18   0.155716 
19   0.156303 
20   0.164033 
21   0.158692 
22   0.156151 
23   0.277927 
24   0.281947 
 
$$$$ 
 
