PCCDB-ID:  21444 
public computational chemistry database (PCCDB) project, http://pccdb.org 
 
 19 18  0  0  0  0  0  0  0  0999 V2000 
   -0.0850    0.6048    0.3413 C   0  0  0  0  0  0  0  0  0  0  0  0 
    1.2370   -0.1678    0.4133 C   0  0  0  0  0  0  0  0  0  0  0  0 
    2.3787    0.6157   -0.2233 C   0  0  0  0  0  0  0  0  0  0  0  0 
    5.6130   -0.9737    0.6305 C   0  0  0  0  0  0  0  0  0  0  0  0 
    5.7287   -2.1108    3.0822 C   0  0  0  0  0  0  0  0  0  0  0  0 
    4.3770   -0.1035    0.8584 C   0  0  0  0  0  0  0  0  0  0  0  0 
    5.0998   -2.7962    3.7853 N   0  0  0  0  0  0  0  0  0  0  0  0 
    4.1363    0.5381    1.8521 O   0  0  0  0  0  0  0  0  0  0  0  0 
    3.6089   -0.1598   -0.2446 O   0  0  0  0  0  0  0  0  0  0  0  0 
    6.7084   -1.1329    2.0921 S   0  0  0  0  0  0  0  0  0  0  0  0 
   -0.8939    0.0314    0.8050 H   0  0  0  0  0  0  0  0  0  0  0  0 
   -0.3746    0.8099   -0.6966 H   0  0  0  0  0  0  0  0  0  0  0  0 
   -0.0157    1.5649    0.8662 H   0  0  0  0  0  0  0  0  0  0  0  0 
    1.1405   -1.1328   -0.0996 H   0  0  0  0  0  0  0  0  0  0  0  0 
    1.4922   -0.3788    1.4578 H   0  0  0  0  0  0  0  0  0  0  0  0 
    2.5650    1.5518    0.3095 H   0  0  0  0  0  0  0  0  0  0  0  0 
    2.1793    0.8298   -1.2766 H   0  0  0  0  0  0  0  0  0  0  0  0 
    6.2377   -0.5168   -0.1445 H   0  0  0  0  0  0  0  0  0  0  0  0 
    5.3176   -1.9614    0.2696 H   0  0  0  0  0  0  0  0  0  0  0  0 
  1  2  1  0  0  0  0 
  1 11  1  0  0  0  0 
  1 13  1  0  0  0  0 
  2 15  1  0  0  0  0 
  3 16  1  0  0  0  0 
  3  2  1  0  0  0  0 
  4  6  1  0  0  0  0 
  4 10  1  0  0  0  0 
  5  7  3  0  0  0  0 
  6  8  2  0  0  0  0 
  9  3  1  0  0  0  0 
  9  6  1  0  0  0  0 
 10  5  1  0  0  0  0 
 12  1  1  0  0  0  0 
 14  2  1  0  0  0  0 
 17  3  1  0  0  0  0 
 18  4  1  0  0  0  0 
 19  4  1  0  0  0  0 
M  END 
>  <HBA> 
4 
 
>  <HBD> 
0 
 
>  <TPSA> 
75.39 
 
>  <cid> 
21444 
 
>  <dipole> 
5.03 
 
>  <excitation_energy_1> 
4.962 
 
>  <excitation_energy_2> 
5.822 
 
>  <excitation_energy_3> 
5.911 
 
>  <excitation_energy_4> 
6.242 
 
>  <homo_energy> 
-7.276 
 
>  <homo_lumo_gap> 
6.485 
 
>  <logP> 
1.154 
 
>  <lumo_energy> 
-0.792 
 
>  <melting_point> 
28.75 
 
>  <molecular_refractivity> 
39.58 
 
>  <oscillator_strength_1> 
0.0001 
 
>  <oscillator_strength_2> 
0.0005 
 
>  <oscillator_strength_3> 
0.0017 
 
>  <oscillator_strength_4> 
0.001 
 
>  <open_babel_can_smiles> 
CCCOC(=O)CSC#N 
 
>  <mulliken_charges> 
19 
1   -0.455017 
2   -0.276733 
3   -0.045773 
4   -0.534758 
5   0.12944 
6   0.634023 
7   -0.377678 
8   -0.440819 
9   -0.458524 
10   0.261633 
11   0.159479 
12   0.146225 
13   0.154778 
14   0.149587 
15   0.171777 
16   0.172923 
17   0.155822 
18   0.222293 
19   0.231322 
 
>  <lowdin_charges> 
19 
1   -0.443391 
2   -0.283476 
3   -0.127591 
4   -0.399407 
5   -0.162583 
6   0.189794 
7   -0.111652 
8   -0.238159 
9   -0.188662 
10   0.282873 
11   0.160968 
12   0.147844 
13   0.152887 
14   0.149624 
15   0.159673 
16   0.16009 
17   0.153171 
18   0.200615 
19   0.197381 
 
$$$$ 
 
