PCCDB-ID:  43933 
public computational chemistry database (PCCDB) project, http://pccdb.org 
 
 32 34  0  0  0  0  0  0  0  0999 V2000 
   -1.6961    0.6497    0.4082 C   0  0  0  0  0  0  0  0  0  0  0  0 
   -1.1367   -0.6302    0.3463 C   0  0  0  0  0  0  0  0  0  0  0  0 
   -0.8754    1.7738    0.2944 C   0  0  0  0  0  0  0  0  0  0  0  0 
    0.2344   -0.7880    0.1721 C   0  0  0  0  0  0  0  0  0  0  0  0 
    0.4988    1.6249    0.1193 C   0  0  0  0  0  0  0  0  0  0  0  0 
    6.8449   -0.6451   -0.6708 C   0  0  0  0  0  0  0  0  0  0  0  0 
    5.6508   -1.3435   -0.5043 C   0  0  0  0  0  0  0  0  0  0  0  0 
    8.2395    1.4694   -0.8439 C   0  0  0  0  0  0  0  0  0  0  0  0 
    8.9127    1.7564    0.5098 C   0  0  0  0  0  0  0  0  0  0  0  0 
    5.7311    1.5181   -0.5584 C   0  0  0  0  0  0  0  0  0  0  0  0 
    6.9067    0.7665   -0.7007 C   0  0  0  0  0  0  0  0  0  0  0  0 
    1.0630    0.3410    0.0572 C   0  0  0  0  0  0  0  0  0  0  0  0 
    4.4807   -0.5929   -0.3621 C   0  0  0  0  0  0  0  0  0  0  0  0 
    4.5543    0.8066   -0.3930 C   0  0  0  0  0  0  0  0  0  0  0  0 
    2.4987    0.1529   -0.1233 C   0  0  0  0  0  0  0  0  0  0  0  0 
   10.1648    2.4923    0.3066 N   0  0  0  0  0  0  0  0  0  0  0  0 
    3.1522   -0.9695   -0.1893 N   0  0  0  0  0  0  0  0  0  0  0  0 
    3.2786    1.2884   -0.2397 O   0  0  0  0  0  0  0  0  0  0  0  0 
   -2.7675    0.7696    0.5444 H   0  0  0  0  0  0  0  0  0  0  0  0 
   -1.7724   -1.5070    0.4342 H   0  0  0  0  0  0  0  0  0  0  0  0 
   -1.3062    2.7702    0.3421 H   0  0  0  0  0  0  0  0  0  0  0  0 
    0.6836   -1.7743    0.1224 H   0  0  0  0  0  0  0  0  0  0  0  0 
    1.1386    2.4964    0.0310 H   0  0  0  0  0  0  0  0  0  0  0  0 
    7.7699   -1.2041   -0.7903 H   0  0  0  0  0  0  0  0  0  0  0  0 
    5.6226   -2.4283   -0.4894 H   0  0  0  0  0  0  0  0  0  0  0  0 
    8.9170    0.8554   -1.4532 H   0  0  0  0  0  0  0  0  0  0  0  0 
    8.1196    2.4226   -1.3710 H   0  0  0  0  0  0  0  0  0  0  0  0 
    9.0269    0.8054    1.0612 H   0  0  0  0  0  0  0  0  0  0  0  0 
    8.2460    2.3862    1.1115 H   0  0  0  0  0  0  0  0  0  0  0  0 
    5.7445    2.6034   -0.5833 H   0  0  0  0  0  0  0  0  0  0  0  0 
   10.8468    1.8867   -0.1496 H   0  0  0  0  0  0  0  0  0  0  0  0 
   10.5696    2.7388    1.2085 H   0  0  0  0  0  0  0  0  0  0  0  0 
  1 19  1  0  0  0  0 
  2  1  1  0  0  0  0 
  2 20  1  0  0  0  0 
  3 21  1  0  0  0  0 
  3  1  2  0  0  0  0 
  4  2  2  0  0  0  0 
  5  3  1  0  0  0  0 
  6  7  1  0  0  0  0 
  7 25  1  0  0  0  0 
  7 13  2  0  0  0  0 
  8 11  1  0  0  0  0 
  8  9  1  0  0  0  0 
  9 28  1  0  0  0  0 
  9 29  1  0  0  0  0 
 10 14  2  0  0  0  0 
 11  6  2  0  0  0  0 
 11 10  1  0  0  0  0 
 12  5  2  0  0  0  0 
 12  4  1  0  0  0  0 
 13 17  1  0  0  0  0 
 14 13  1  0  0  0  0 
 14 18  1  0  0  0  0 
 15 12  1  0  0  0  0 
 16  9  1  0  0  0  0 
 16 32  1  0  0  0  0 
 17 15  2  0  0  0  0 
 18 15  1  0  0  0  0 
 22  4  1  0  0  0  0 
 23  5  1  0  0  0  0 
 24  6  1  0  0  0  0 
 26  8  1  0  0  0  0 
 27  8  1  0  0  0  0 
 30 10  1  0  0  0  0 
 31 16  1  0  0  0  0 
M  END 
>  <HBA> 
3 
 
>  <HBD> 
1 
 
>  <TPSA> 
52.05 
 
>  <cid> 
43933 
 
>  <dipole> 
0.96 
 
>  <excitation_energy_1> 
4.093 
 
>  <excitation_energy_2> 
4.509 
 
>  <excitation_energy_3> 
4.674 
 
>  <excitation_energy_4> 
4.718 
 
>  <homo_energy> 
-5.861 
 
>  <homo_lumo_gap> 
4.471 
 
>  <logP> 
3.696 
 
>  <lumo_energy> 
-1.391 
 
>  <melting_point> 
159.08 
 
>  <molecular_refractivity> 
71.93 
 
>  <oscillator_strength_1> 
0.8031 
 
>  <oscillator_strength_2> 
0.0058 
 
>  <oscillator_strength_3> 
0.0072 
 
>  <oscillator_strength_4> 
0.008 
 
>  <open_babel_can_smiles> 
NCCc1ccc2c(c1)oc(n2)c1ccccc1 
 
>  <mulliken_charges> 
32 
1   -0.119778 
2   -0.138047 
3   -0.137302 
4   -0.156598 
5   -0.165336 
6   -0.194492 
7   -0.173175 
8   -0.341621 
9   -0.130031 
10   -0.245941 
11   0.15325 
12   0.068666 
13   0.251092 
14   0.344163 
15   0.484661 
16   -0.714658 
17   -0.543612 
18   -0.532575 
19   0.135442 
20   0.13725 
21   0.136249 
22   0.166521 
23   0.154285 
24   0.123763 
25   0.144296 
26   0.136412 
27   0.159084 
28   0.119666 
29   0.144457 
30   0.14355 
31   0.29251 
32   0.297849 
 
>  <lowdin_charges> 
32 
1   -0.144247 
2   -0.154576 
3   -0.153578 
4   -0.135699 
5   -0.148733 
6   -0.174368 
7   -0.153982 
8   -0.277593 
9   -0.203693 
10   -0.183707 
11   0.002411 
12   -0.020861 
13   0.006326 
14   0.074025 
15   0.130235 
16   -0.560269 
17   -0.179533 
18   -0.122866 
19   0.158958 
20   0.162348 
21   0.160652 
22   0.177174 
23   0.171134 
24   0.156717 
25   0.166698 
26   0.147334 
27   0.158001 
28   0.120137 
29   0.145967 
30   0.166881 
31   0.252786 
32   0.255921 
 
$$$$ 
 
