PCCDB-ID:  33341 
public computational chemistry database (PCCDB) project, http://pccdb.org 
 
 32 33  0  0  1  0  0  0  0  0999 V2000 
    2.8338    1.0955    1.3686 C   0  0  0  0  0  0  0  0  0  0  0  0 
    3.0743   -8.6824    0.2078 C   0  0  0  0  0  0  0  0  0  0  0  0 
    4.3109   -1.5430    0.7334 C   0  0  0  0  0  0  0  0  0  0  0  0 
    4.7429   -2.8420    0.8501 C   0  0  0  0  0  0  0  0  0  0  0  0 
    1.6784   -4.7216   -0.1674 C   0  0  0  0  0  0  0  0  0  0  0  0 
    2.0970   -6.0304   -0.0544 C   0  0  0  0  0  0  0  0  0  0  0  0 
    2.1329   -2.2818    0.0201 C   0  0  0  0  0  0  0  0  0  0  0  0 
    4.2908   -5.2809    0.6664 C   0  0  0  0  0  0  0  0  0  0  0  0 
    3.1219    0.8182   -1.1360 C   0  0  0  0  0  0  0  0  0  0  0  0 
    2.5241    0.2092    0.1508 C   0  0  1  0  0  0  0  0  0  0  0  0 
    2.9809   -1.2328    0.3190 C   0  0  0  0  0  0  0  0  0  0  0  0 
    2.5424   -3.6390    0.1295 C   0  0  0  0  0  0  0  0  0  0  0  0 
    3.8782   -3.9341    0.5555 C   0  0  0  0  0  0  0  0  0  0  0  0 
    3.4217   -6.3160    0.3686 C   0  0  0  0  0  0  0  0  0  0  0  0 
    2.7294    0.1267   -2.3092 O   0  0  0  0  0  0  0  0  0  0  0  0 
    3.9174   -7.5818    0.5077 O   0  0  0  0  0  0  0  0  0  0  0  0 
    2.4241    2.1020    1.2247 H   0  0  0  0  0  0  0  0  0  0  0  0 
    3.9120    1.2017    1.5356 H   0  0  0  0  0  0  0  0  0  0  0  0 
    2.3955    0.6775    2.2808 H   0  0  0  0  0  0  0  0  0  0  0  0 
    3.6774   -9.5751    0.3837 H   0  0  0  0  0  0  0  0  0  0  0  0 
    2.7462   -8.6702   -0.8401 H   0  0  0  0  0  0  0  0  0  0  0  0 
    2.1918   -8.7097    0.8609 H   0  0  0  0  0  0  0  0  0  0  0  0 
    4.9988   -0.7342    0.9647 H   0  0  0  0  0  0  0  0  0  0  0  0 
    5.7601   -3.0529    1.1717 H   0  0  0  0  0  0  0  0  0  0  0  0 
    0.6620   -4.5094   -0.4908 H   0  0  0  0  0  0  0  0  0  0  0  0 
    1.4093   -6.8342   -0.2904 H   0  0  0  0  0  0  0  0  0  0  0  0 
    1.1134   -2.0736   -0.2999 H   0  0  0  0  0  0  0  0  0  0  0  0 
    5.3002   -5.5206    0.9877 H   0  0  0  0  0  0  0  0  0  0  0  0 
    4.2210    0.8661   -1.0452 H   0  0  0  0  0  0  0  0  0  0  0  0 
    2.7593    1.8447   -1.2590 H   0  0  0  0  0  0  0  0  0  0  0  0 
    1.4361    0.1932    0.0057 H   0  0  0  0  0  0  0  0  0  0  0  0 
    2.9740   -0.8051   -2.1831 H   0  0  0  0  0  0  0  0  0  0  0  0 
  1 18  1  0  0  0  0 
  1 19  1  0  0  0  0 
  2 20  1  0  0  0  0 
  2 16  1  0  0  0  0 
  2 22  1  0  0  0  0 
  3  4  1  0  0  0  0 
  3 23  1  0  0  0  0 
  4 24  1  0  0  0  0 
  5  6  2  0  0  0  0 
  5 12  1  0  0  0  0 
  6 14  1  0  0  0  0 
  7 12  2  0  0  0  0 
  7 11  1  0  0  0  0 
  8 28  1  0  0  0  0 
  9 29  1  0  0  0  0 
  9 10  1  0  0  0  0 
 10 31  1  6  0  0  0 
 10 11  1  0  0  0  0 
 10  1  1  0  0  0  0 
 11  3  2  0  0  0  0 
 12 13  1  0  0  0  0 
 13  8  1  0  0  0  0 
 13  4  2  0  0  0  0 
 14 16  1  0  0  0  0 
 14  8  2  0  0  0  0 
 15 32  1  0  0  0  0 
 15  9  1  0  0  0  0 
 17  1  1  0  0  0  0 
 21  2  1  0  0  0  0 
 25  5  1  0  0  0  0 
 26  6  1  0  0  0  0 
 27  7  1  0  0  0  0 
 30  9  1  0  0  0  0 
M  END 
>  <HBA> 
2 
 
>  <HBD> 
1 
 
>  <TPSA> 
29.46 
 
>  <cid> 
33341 
 
>  <dipole> 
2.4 
 
>  <excitation_energy_1> 
3.957 
 
>  <excitation_energy_2> 
4.439 
 
>  <excitation_energy_3> 
5.128 
 
>  <excitation_energy_4> 
5.214 
 
>  <homo_energy> 
-5.516 
 
>  <homo_lumo_gap> 
4.474 
 
>  <logP> 
2.944 
 
>  <lumo_energy> 
-1.042 
 
>  <melting_point> 
75.89 
 
>  <molecular_refractivity> 
66.18 
 
>  <oscillator_strength_1> 
0.055 
 
>  <oscillator_strength_2> 
0.0114 
 
>  <oscillator_strength_3> 
0.002 
 
>  <oscillator_strength_4> 
0.003 
 
>  <open_babel_can_smiles> 
OC[C@@H](c1ccc2c(c1)ccc(c2)OC)C 
 
>  <mulliken_charges> 
32 
1   -0.456146 
2   -0.21526 
3   -0.187878 
4   -0.193754 
5   -0.204008 
6   -0.194831 
7   -0.284566 
8   -0.26186 
9   -0.016001 
10   -0.179557 
11   0.141851 
12   0.152121 
13   0.142601 
14   0.382067 
15   -0.623504 
16   -0.510048 
17   0.146816 
18   0.14547 
19   0.156141 
20   0.171486 
21   0.152445 
22   0.15227 
23   0.128049 
24   0.131184 
25   0.134145 
26   0.13438 
27   0.131048 
28   0.136331 
29   0.115786 
30   0.141693 
31   0.139446 
32   0.392084 
 
>  <lowdin_charges> 
32 
1   -0.441178 
2   -0.277364 
3   -0.167784 
4   -0.1566 
5   -0.145465 
6   -0.204964 
7   -0.172434 
8   -0.190527 
9   -0.131517 
10   -0.13874 
11   -0.021926 
12   -0.014447 
13   0.005992 
14   0.101993 
15   -0.466486 
16   -0.199905 
17   0.151307 
18   0.146096 
19   0.157437 
20   0.16418 
21   0.143808 
22   0.145265 
23   0.158103 
24   0.157416 
25   0.158629 
26   0.165279 
27   0.156313 
28   0.16557 
29   0.120701 
30   0.144495 
31   0.146569 
32   0.340183 
 
$$$$ 
 
