PCCDB-ID:  27491 
public computational chemistry database (PCCDB) project, http://pccdb.org 
 
 18 19  0  0  0  0  0  0  0  0999 V2000 
   -2.4103   -0.7428   -0.0189 C   0  0  0  0  0  0  0  0  0  0  0  0 
   -2.4322    0.6548   -0.0274 C   0  0  0  0  0  0  0  0  0  0  0  0 
   -1.1946   -1.4226   -0.0082 C   0  0  0  0  0  0  0  0  0  0  0  0 
   -1.2386    1.3726   -0.0243 C   0  0  0  0  0  0  0  0  0  0  0  0 
    0.0071   -0.7089   -0.0056 C   0  0  0  0  0  0  0  0  0  0  0  0 
   -0.0150    0.6973   -0.0134 C   0  0  0  0  0  0  0  0  0  0  0  0 
    2.4889   -0.7334    0.0063 C   0  0  0  0  0  0  0  0  0  0  0  0 
    2.4647    0.8002    0.0008 C   0  0  0  0  0  0  0  0  0  0  0  0 
    1.2496   -1.3453    0.0054 N   0  0  0  0  0  0  0  0  0  0  0  0 
    1.2068    1.3726   -0.0092 N   0  0  0  0  0  0  0  0  0  0  0  0 
    3.5289   -1.3611    0.0116 O   0  0  0  0  0  0  0  0  0  0  0  0 
    3.4844    1.4603    0.0043 O   0  0  0  0  0  0  0  0  0  0  0  0 
   -3.3387   -1.3051   -0.0203 H   0  0  0  0  0  0  0  0  0  0  0  0 
   -3.3779    1.1876   -0.0364 H   0  0  0  0  0  0  0  0  0  0  0  0 
   -1.1683   -2.5092   -0.0019 H   0  0  0  0  0  0  0  0  0  0  0  0 
   -1.2466    2.4596   -0.0306 H   0  0  0  0  0  0  0  0  0  0  0  0 
    1.2823   -2.3593    0.0049 H   0  0  0  0  0  0  0  0  0  0  0  0 
    1.2074    2.3871   -0.0145 H   0  0  0  0  0  0  0  0  0  0  0  0 
  1  3  2  0  0  0  0 
  2  4  2  0  0  0  0 
  2  1  1  0  0  0  0 
  3  5  1  0  0  0  0 
  3 15  1  0  0  0  0 
  4  6  1  0  0  0  0 
  5  9  1  0  0  0  0 
  6 10  1  0  0  0  0 
  6  5  2  0  0  0  0 
  7 11  2  0  0  0  0 
  8 12  2  0  0  0  0 
  8  7  1  0  0  0  0 
  9  7  1  0  0  0  0 
 10  8  1  0  0  0  0 
 13  1  1  0  0  0  0 
 14  2  1  0  0  0  0 
 16  4  1  0  0  0  0 
 17  9  1  0  0  0  0 
 18 10  1  0  0  0  0 
M  END 
>  <HBA> 
2 
 
>  <HBD> 
2 
 
>  <TPSA> 
65.72 
 
>  <cid> 
27491 
 
>  <dipole> 
6.27 
 
>  <excitation_energy_1> 
4.249 
 
>  <excitation_energy_2> 
4.252 
 
>  <excitation_energy_3> 
4.83 
 
>  <excitation_energy_4> 
4.893 
 
>  <homo_energy> 
-6.136 
 
>  <homo_lumo_gap> 
4.732 
 
>  <logP> 
0.216 
 
>  <lumo_energy> 
-1.404 
 
>  <melting_point> 
213.09 
 
>  <molecular_refractivity> 
45.19 
 
>  <oscillator_strength_1> 
0.0926 
 
>  <oscillator_strength_2> 
0.1676 
 
>  <oscillator_strength_3> 
0.0014 
 
>  <oscillator_strength_4> 
0.0042 
 
>  <open_babel_can_smiles> 
O=c1[nH]c2ccccc2[nH]c1=O 
 
>  <mulliken_charges> 
18 
1   -0.136155 
2   -0.136229 
3   -0.188147 
4   -0.188119 
5   0.363303 
6   0.363393 
7   0.563629 
8   0.563711 
9   -0.754814 
10   -0.755047 
11   -0.46982 
12   -0.469772 
13   0.140529 
14   0.140497 
15   0.140183 
16   0.140197 
17   0.34132 
18   0.34134 
 
>  <lowdin_charges> 
18 
1   -0.157255 
2   -0.157068 
3   -0.174245 
4   -0.174167 
5   0.035351 
6   0.035099 
7   0.134055 
8   0.134644 
9   -0.215035 
10   -0.215166 
11   -0.24702 
12   -0.247143 
13   0.165512 
14   0.165338 
15   0.161773 
16   0.161753 
17   0.296781 
18   0.296792 
 
$$$$ 
 
