PCCDB-ID:  68289 
public computational chemistry database (PCCDB) project, http://pccdb.org 
 
 16 17  0  0  0  0  0  0  0  0999 V2000 
    1.9417    1.0083    0.0007 C   0  0  0  0  0  0  0  0  0  0  0  0 
    0.6199    1.4958   -0.0020 C   0  0  0  0  0  0  0  0  0  0  0  0 
    1.1536   -1.3076   -0.0040 C   0  0  0  0  0  0  0  0  0  0  0  0 
   -2.3561   -0.5262   -0.0126 C   0  0  0  0  0  0  0  0  0  0  0  0 
    2.2006   -0.3639   -0.0003 C   0  0  0  0  0  0  0  0  0  0  0  0 
   -0.3964    0.5655   -0.0061 C   0  0  0  0  0  0  0  0  0  0  0  0 
   -0.1293   -0.8021   -0.0068 C   0  0  0  0  0  0  0  0  0  0  0  0 
    3.4735   -0.8748    0.0026 O   0  0  0  0  0  0  0  0  0  0  0  0 
   -1.7607    0.7735   -0.0097 O   0  0  0  0  0  0  0  0  0  0  0  0 
   -1.3074   -1.5054   -0.0107 O   0  0  0  0  0  0  0  0  0  0  0  0 
    2.7698    1.7133    0.0056 H   0  0  0  0  0  0  0  0  0  0  0  0 
    0.4129    2.5604   -0.0020 H   0  0  0  0  0  0  0  0  0  0  0  0 
    1.3647   -2.3701   -0.0047 H   0  0  0  0  0  0  0  0  0  0  0  0 
   -2.9646   -0.6505   -0.9168 H   0  0  0  0  0  0  0  0  0  0  0  0 
   -2.9695   -0.6523    0.8881 H   0  0  0  0  0  0  0  0  0  0  0  0 
    4.1044   -0.1386    0.0021 H   0  0  0  0  0  0  0  0  0  0  0  0 
  1 11  1  0  0  0  0 
  2 12  1  0  0  0  0 
  2  1  2  0  0  0  0 
  3  5  2  0  0  0  0 
  4 10  1  0  0  0  0 
  4  9  1  0  0  0  0 
  4 15  1  0  0  0  0 
  5  1  1  0  0  0  0 
  5  8  1  0  0  0  0 
  6  2  1  0  0  0  0 
  7  6  2  0  0  0  0 
  7  3  1  0  0  0  0 
  9  6  1  0  0  0  0 
 10  7  1  0  0  0  0 
 13  3  1  0  0  0  0 
 14  4  1  0  0  0  0 
 16  8  1  0  0  0  0 
M  END 
>  <HBA> 
3 
 
>  <HBD> 
1 
 
>  <TPSA> 
38.69 
 
>  <cid> 
68289 
 
>  <dipole> 
1.18 
 
>  <excitation_energy_1> 
4.568 
 
>  <excitation_energy_2> 
4.671 
 
>  <excitation_energy_3> 
5.102 
 
>  <excitation_energy_4> 
5.409 
 
>  <homo_energy> 
-5.26 
 
>  <homo_lumo_gap> 
5.331 
 
>  <logP> 
1.121 
 
>  <lumo_energy> 
0.071 
 
>  <melting_point> 
78.75 
 
>  <molecular_refractivity> 
34.53 
 
>  <oscillator_strength_1> 
0.0879 
 
>  <oscillator_strength_2> 
0.0003 
 
>  <oscillator_strength_3> 
0.0075 
 
>  <oscillator_strength_4> 
0.0366 
 
>  <open_babel_can_smiles> 
Oc1ccc2c(c1)OCO2 
 
>  <mulliken_charges> 
16 
1   -0.215498 
2   -0.187378 
3   -0.226734 
4   0.196643 
5   0.352289 
6   0.324897 
7   0.337257 
8   -0.64941 
9   -0.53736 
10   -0.534187 
11   0.117964 
12   0.145181 
13   0.153564 
14   0.157959 
15   0.157957 
16   0.406856 
 
>  <lowdin_charges> 
16 
1   -0.229022 
2   -0.171635 
3   -0.208206 
4   0.018521 
5   0.102692 
6   0.054747 
7   0.081976 
8   -0.385229 
9   -0.214842 
10   -0.204426 
11   0.155839 
12   0.169008 
13   0.177768 
14   0.147372 
15   0.147395 
16   0.358042 
 
$$$$ 
 
