PCCDB-ID:  73187 
public computational chemistry database (PCCDB) project, http://pccdb.org 
 
 16 15  0  0  1  0  0  0  0  0999 V2000 
    1.3999   -0.4475    0.2655 C   0  0  0  0  0  0  0  0  0  0  0  0 
    2.8244   -0.0972   -0.1880 C   0  0  1  0  0  0  0  0  0  0  0  0 
    2.8608    0.2284   -1.6991 C   0  0  0  0  0  0  0  0  0  0  0  0 
    1.8908    0.1146   -2.4040 O   0  0  0  0  0  0  0  0  0  0  0  0 
    4.0551    0.5916   -2.2093 O   0  0  0  0  0  0  0  0  0  0  0  0 
    3.6246    0.5023    2.3131 O   0  0  0  0  0  0  0  0  0  0  0  0 
    5.0869    1.2132    0.3119 O   0  0  0  0  0  0  0  0  0  0  0  0 
    2.9099    2.5671    0.8868 O   0  0  0  0  0  0  0  0  0  0  0  0 
    3.5347    1.2225    0.8605 P   0  0  0  0  0  0  0  0  0  0  0  0 
    1.0052   -1.2492   -0.3620 H   0  0  0  0  0  0  0  0  0  0  0  0 
    0.7373    0.4154    0.1579 H   0  0  0  0  0  0  0  0  0  0  0  0 
    1.3959   -0.7746    1.3085 H   0  0  0  0  0  0  0  0  0  0  0  0 
    3.4895   -0.9600   -0.0326 H   0  0  0  0  0  0  0  0  0  0  0  0 
    4.7135    0.7039   -1.4947 H   0  0  0  0  0  0  0  0  0  0  0  0 
    3.3038    1.1062    3.0048 H   0  0  0  0  0  0  0  0  0  0  0  0 
    5.5021    2.0833    0.4491 H   0  0  0  0  0  0  0  0  0  0  0  0 
  1 12  1  0  0  0  0 
  2 13  1  1  0  0  0 
  2  1  1  0  0  0  0 
  2  9  1  0  0  0  0 
  3  2  1  0  0  0  0 
  4  3  2  0  0  0  0 
  5  3  1  0  0  0  0 
  5 14  1  0  0  0  0 
  6 15  1  0  0  0  0 
  7 16  1  0  0  0  0 
  7  9  1  0  0  0  0 
  9  8  2  0  0  0  0 
  9  6  1  0  0  0  0 
 10  1  1  0  0  0  0 
 11  1  1  0  0  0  0 
M  END 
>  <HBA> 
5 
 
>  <HBD> 
3 
 
>  <TPSA> 
104.64 
 
>  <cid> 
73187 
 
>  <dipole> 
5.13 
 
>  <excitation_energy_1> 
5.631 
 
>  <excitation_energy_2> 
6.377 
 
>  <excitation_energy_3> 
6.989 
 
>  <excitation_energy_4> 
7.052 
 
>  <homo_energy> 
-7.554 
 
>  <homo_lumo_gap> 
7.524 
 
>  <logP> 
-0.363 
 
>  <lumo_energy> 
-0.03 
 
>  <melting_point> 
138.92 
 
>  <molecular_refractivity> 
29.29 
 
>  <oscillator_strength_1> 
0.0022 
 
>  <oscillator_strength_2> 
0.0093 
 
>  <oscillator_strength_3> 
0.0266 
 
>  <oscillator_strength_4> 
0.0459 
 
>  <open_babel_can_smiles> 
OC(=O)[C@@H](P(=O)(O)O)C 
 
>  <mulliken_charges> 
16 
1   -0.455715 
2   -0.434418 
3   0.615058 
4   -0.429771 
5   -0.58253 
6   -0.645915 
7   -0.686583 
8   -0.530747 
9   1.062699 
10   0.185969 
11   0.190833 
12   0.160599 
13   0.213748 
14   0.438089 
15   0.447211 
16   0.451474 
 
>  <lowdin_charges> 
16 
1   -0.436213 
2   -0.335602 
3   0.199972 
4   -0.230551 
5   -0.356699 
6   -0.571814 
7   -0.587823 
8   -0.582456 
9   1.051375 
10   0.17623 
11   0.175541 
12   0.16034 
13   0.197727 
14   0.361178 
15   0.390164 
16   0.388631 
 
$$$$ 
 
