PCCDB-ID:  69943 
public computational chemistry database (PCCDB) project, http://pccdb.org 
 
 29 28  0  0  0  0  0  0  0  0999 V2000 
    3.5640   -0.7118   -0.5125 C   0  0  0  0  0  0  0  0  0  0  0  0 
    8.7707   -1.7170    2.3717 C   0  0  0  0  0  0  0  0  0  0  0  0 
    5.4845    2.8457    5.4914 C   0  0  0  0  0  0  0  0  0  0  0  0 
    2.9434    0.2842    0.4711 C   0  0  0  0  0  0  0  0  0  0  0  0 
    7.2552   -1.6926    2.3099 C   0  0  0  0  0  0  0  0  0  0  0  0 
    5.8577    1.8939    4.3705 C   0  0  0  0  0  0  0  0  0  0  0  0 
    3.2054   -0.0536    1.9309 C   0  0  0  0  0  0  0  0  0  0  0  0 
    4.5439   -1.7893    4.0427 O   0  0  0  0  0  0  0  0  0  0  0  0 
    6.7885   -0.6587    3.2117 O   0  0  0  0  0  0  0  0  0  0  0  0 
    5.2004    0.6290    4.6275 O   0  0  0  0  0  0  0  0  0  0  0  0 
    4.6324    0.0389    2.1816 O   0  0  0  0  0  0  0  0  0  0  0  0 
    5.2217   -0.5687    3.5634 P   0  0  0  0  0  0  0  0  0  0  0  0 
    3.3358   -0.4351   -1.5475 H   0  0  0  0  0  0  0  0  0  0  0  0 
    3.1792   -1.7250   -0.3437 H   0  0  0  0  0  0  0  0  0  0  0  0 
    4.6525   -0.7441   -0.4025 H   0  0  0  0  0  0  0  0  0  0  0  0 
    9.1591   -2.4819    1.6900 H   0  0  0  0  0  0  0  0  0  0  0  0 
    9.1115   -1.9503    3.3851 H   0  0  0  0  0  0  0  0  0  0  0  0 
    9.1873   -0.7481    2.0784 H   0  0  0  0  0  0  0  0  0  0  0  0 
    5.9752    3.8134    5.3377 H   0  0  0  0  0  0  0  0  0  0  0  0 
    5.8033    2.4454    6.4588 H   0  0  0  0  0  0  0  0  0  0  0  0 
    4.4022    3.0054    5.5226 H   0  0  0  0  0  0  0  0  0  0  0  0 
    1.8534    0.3141    0.3368 H   0  0  0  0  0  0  0  0  0  0  0  0 
    3.3107    1.2981    0.2662 H   0  0  0  0  0  0  0  0  0  0  0  0 
    6.8253   -2.6508    2.6195 H   0  0  0  0  0  0  0  0  0  0  0  0 
    6.9002   -1.4582    1.2998 H   0  0  0  0  0  0  0  0  0  0  0  0 
    6.9381    1.7220    4.3320 H   0  0  0  0  0  0  0  0  0  0  0  0 
    5.5311    2.2745    3.3961 H   0  0  0  0  0  0  0  0  0  0  0  0 
    2.8733   -1.0683    2.1727 H   0  0  0  0  0  0  0  0  0  0  0  0 
    2.6873    0.6491    2.5945 H   0  0  0  0  0  0  0  0  0  0  0  0 
  1 15  1  0  0  0  0 
  1 14  1  0  0  0  0 
  1  4  1  0  0  0  0 
  2 17  1  0  0  0  0 
  3 21  1  0  0  0  0 
  3 20  1  0  0  0  0 
  4  7  1  0  0  0  0 
  5  2  1  0  0  0  0 
  5 24  1  0  0  0  0 
  5  9  1  0  0  0  0 
  6 10  1  0  0  0  0 
  6  3  1  0  0  0  0 
  7 28  1  0  0  0  0 
  7 11  1  0  0  0  0 
  7 29  1  0  0  0  0 
  9 12  1  0  0  0  0 
 11 12  1  0  0  0  0 
 12  8  2  0  0  0  0 
 12 10  1  0  0  0  0 
 13  1  1  0  0  0  0 
 16  2  1  0  0  0  0 
 18  2  1  0  0  0  0 
 19  3  1  0  0  0  0 
 22  4  1  0  0  0  0 
 23  4  1  0  0  0  0 
 25  5  1  0  0  0  0 
 26  6  1  0  0  0  0 
 27  6  1  0  0  0  0 
M  END 
>  <HBA> 
4 
 
>  <HBD> 
0 
 
>  <TPSA> 
54.57 
 
>  <cid> 
69943 
 
>  <dipole> 
3.76 
 
>  <excitation_energy_1> 
7.187 
 
>  <excitation_energy_2> 
7.34 
 
>  <excitation_energy_3> 
7.54 
 
>  <excitation_energy_4> 
7.629 
 
>  <homo_energy> 
-7.581 
 
>  <homo_lumo_gap> 
9.2 
 
>  <logP> 
2.594 
 
>  <lumo_energy> 
1.619 
 
>  <melting_point> 
-36.3 
 
>  <molecular_refractivity> 
47.68 
 
>  <oscillator_strength_1> 
0.0168 
 
>  <oscillator_strength_2> 
0.0167 
 
>  <oscillator_strength_3> 
0.0037 
 
>  <oscillator_strength_4> 
0.0077 
 
>  <open_babel_can_smiles> 
CCCOP(=O)(OCC)OCC 
 
>  <mulliken_charges> 
29 
1   -0.446117 
2   -0.456553 
3   -0.455021 
4   -0.269233 
5   -0.040242 
6   -0.039646 
7   -0.042186 
8   -0.556811 
9   -0.534702 
10   -0.509637 
11   -0.558316 
12   1.233348 
13   0.146262 
14   0.147343 
15   0.160474 
16   0.151266 
17   0.168158 
18   0.160717 
19   0.148234 
20   0.168884 
21   0.1627 
22   0.141341 
23   0.146837 
24   0.173167 
25   0.158284 
26   0.163679 
27   0.154309 
28   0.174559 
29   0.148901 
 
>  <lowdin_charges> 
29 
1   -0.442372 
2   -0.447613 
3   -0.445469 
4   -0.275499 
5   -0.115544 
6   -0.11238 
7   -0.120287 
8   -0.581006 
9   -0.398943 
10   -0.386864 
11   -0.413565 
12   1.117085 
13   0.151172 
14   0.149174 
15   0.152129 
16   0.160166 
17   0.161463 
18   0.158278 
19   0.157296 
20   0.162507 
21   0.157739 
22   0.148763 
23   0.148008 
24   0.159711 
25   0.147512 
26   0.151039 
27   0.148335 
28   0.160493 
29   0.148673 
 
$$$$ 
 
