PCCDB-ID:  19892 
public computational chemistry database (PCCDB) project, http://pccdb.org 
 
 32 31  0  0  0  0  0  0  0  0999 V2000 
    1.4681   -7.6486   -1.8956 C   0  0  0  0  0  0  0  0  0  0  0  0 
    1.9262   -6.3737   -2.6119 C   0  0  0  0  0  0  0  0  0  0  0  0 
    2.7377   -5.4319   -1.7126 C   0  0  0  0  0  0  0  0  0  0  0  0 
    3.1944   -4.1552   -2.4336 C   0  0  0  0  0  0  0  0  0  0  0  0 
    3.9475   -3.1412   -1.5539 C   0  0  0  0  0  0  0  0  0  0  0  0 
    5.3096   -3.6410   -1.0497 C   0  0  0  0  0  0  0  0  0  0  0  0 
    6.0742   -2.6402   -0.1659 C   0  0  0  0  0  0  0  0  0  0  0  0 
    6.4674   -1.3442   -0.8622 C   0  0  0  0  0  0  0  0  0  0  0  0 
    6.4609    0.1115   -3.4730 O   0  0  0  0  0  0  0  0  0  0  0  0 
    8.5146    0.5961   -2.1130 O   0  0  0  0  0  0  0  0  0  0  0  0 
    8.7377   -1.1056   -4.0705 O   0  0  0  0  0  0  0  0  0  0  0  0 
    7.3174   -1.6819   -1.9922 O   0  0  0  0  0  0  0  0  0  0  0  0 
    7.8480   -0.5834   -3.0169 P   0  0  0  0  0  0  0  0  0  0  0  0 
    0.8939   -8.2996   -2.5645 H   0  0  0  0  0  0  0  0  0  0  0  0 
    0.8335   -7.4128   -1.0327 H   0  0  0  0  0  0  0  0  0  0  0  0 
    2.3266   -8.2237   -1.5269 H   0  0  0  0  0  0  0  0  0  0  0  0 
    1.0493   -5.8380   -3.0035 H   0  0  0  0  0  0  0  0  0  0  0  0 
    2.5324   -6.6425   -3.4883 H   0  0  0  0  0  0  0  0  0  0  0  0 
    3.6106   -5.9762   -1.3258 H   0  0  0  0  0  0  0  0  0  0  0  0 
    2.1341   -5.1607   -0.8333 H   0  0  0  0  0  0  0  0  0  0  0  0 
    2.3125   -3.6594   -2.8634 H   0  0  0  0  0  0  0  0  0  0  0  0 
    3.8324   -4.4287   -3.2865 H   0  0  0  0  0  0  0  0  0  0  0  0 
    3.3164   -2.8652   -0.6955 H   0  0  0  0  0  0  0  0  0  0  0  0 
    4.0892   -2.2235   -2.1399 H   0  0  0  0  0  0  0  0  0  0  0  0 
    5.9431   -3.9064   -1.9051 H   0  0  0  0  0  0  0  0  0  0  0  0 
    5.1686   -4.5623   -0.4710 H   0  0  0  0  0  0  0  0  0  0  0  0 
    6.9856   -3.1147    0.2186 H   0  0  0  0  0  0  0  0  0  0  0  0 
    5.4666   -2.3691    0.7091 H   0  0  0  0  0  0  0  0  0  0  0  0 
    7.0302   -0.6886   -0.1895 H   0  0  0  0  0  0  0  0  0  0  0  0 
    5.5948   -0.7983   -1.2323 H   0  0  0  0  0  0  0  0  0  0  0  0 
    6.6058    0.7519   -4.1883 H   0  0  0  0  0  0  0  0  0  0  0  0 
    9.4823    0.5256   -2.1643 H   0  0  0  0  0  0  0  0  0  0  0  0 
  1 16  1  0  0  0  0 
  1 15  1  0  0  0  0 
  2  1  1  0  0  0  0 
  2  3  1  0  0  0  0 
  3 19  1  0  0  0  0 
  3 20  1  0  0  0  0 
  4  3  1  0  0  0  0 
  4  5  1  0  0  0  0 
  5  6  1  0  0  0  0 
  5 23  1  0  0  0  0 
  6 26  1  0  0  0  0 
  6  7  1  0  0  0  0 
  7 27  1  0  0  0  0 
  7 28  1  0  0  0  0 
  8 29  1  0  0  0  0 
  8  7  1  0  0  0  0 
  9 13  1  0  0  0  0 
 11 13  2  0  0  0  0 
 12  8  1  0  0  0  0 
 13 10  1  0  0  0  0 
 13 12  1  0  0  0  0 
 14  1  1  0  0  0  0 
 17  2  1  0  0  0  0 
 18  2  1  0  0  0  0 
 21  4  1  0  0  0  0 
 22  4  1  0  0  0  0 
 24  5  1  0  0  0  0 
 25  6  1  0  0  0  0 
 30  8  1  0  0  0  0 
 31  9  1  0  0  0  0 
 32 10  1  0  0  0  0 
M  END 
>  <HBA> 
4 
 
>  <HBD> 
2 
 
>  <TPSA> 
76.57 
 
>  <cid> 
19892 
 
>  <dipole> 
2.91 
 
>  <excitation_energy_1> 
6.781 
 
>  <excitation_energy_2> 
6.947 
 
>  <excitation_energy_3> 
7.205 
 
>  <excitation_energy_4> 
7.333 
 
>  <homo_energy> 
-7.951 
 
>  <homo_lumo_gap> 
8.773 
 
>  <logP> 
2.456 
 
>  <lumo_energy> 
0.822 
 
>  <melting_point> 
51.84 
 
>  <molecular_refractivity> 
52.64 
 
>  <oscillator_strength_1> 
0.0229 
 
>  <oscillator_strength_2> 
0.0163 
 
>  <oscillator_strength_3> 
0.0033 
 
>  <oscillator_strength_4> 
0.0056 
 
>  <open_babel_can_smiles> 
CCCCCCCCOP(=O)(O)O 
 
>  <mulliken_charges> 
32 
1   -0.441645 
2   -0.24713 
3   -0.248207 
4   -0.256112 
5   -0.264913 
6   -0.259759 
7   -0.283036 
8   -0.050483 
9   -0.65333 
10   -0.662814 
11   -0.535208 
12   -0.507156 
13   1.154102 
14   0.141602 
15   0.14033 
16   0.141079 
17   0.129505 
18   0.132152 
19   0.132114 
20   0.123869 
21   0.127048 
22   0.133207 
23   0.122102 
24   0.140658 
25   0.159206 
26   0.136503 
27   0.149511 
28   0.13715 
29   0.158468 
30   0.170803 
31   0.441467 
32   0.438917 
 
>  <lowdin_charges> 
32 
1   -0.447229 
2   -0.273171 
3   -0.278726 
4   -0.275969 
5   -0.280072 
6   -0.281714 
7   -0.282504 
8   -0.122387 
9   -0.565751 
10   -0.577161 
11   -0.577746 
12   -0.384074 
13   1.101879 
14   0.150573 
15   0.146213 
16   0.14683 
17   0.138945 
18   0.140308 
19   0.139351 
20   0.136274 
21   0.141121 
22   0.141671 
23   0.135538 
24   0.145144 
25   0.15413 
26   0.144647 
27   0.153447 
28   0.149746 
29   0.154674 
30   0.156079 
31   0.387009 
32   0.382925 
 
$$$$ 
 
