PCCDB-ID:  67252 
public computational chemistry database (PCCDB) project, http://pccdb.org 
 
 22 22  0  0  0  0  0  0  0  0999 V2000 
    2.4594   -0.2874    0.0771 C   0  0  0  0  0  0  0  0  0  0  0  0 
    3.5365    0.7177    0.4447 C   0  0  0  0  0  0  0  0  0  0  0  0 
    8.0889    1.9005    2.3132 C   0  0  0  0  0  0  0  0  0  0  0  0 
    7.0382    2.6501    1.7854 C   0  0  0  0  0  0  0  0  0  0  0  0 
    7.9607    0.5176    2.3867 C   0  0  0  0  0  0  0  0  0  0  0  0 
    5.8749    2.0279    1.3381 C   0  0  0  0  0  0  0  0  0  0  0  0 
    6.8027   -0.1423    1.9451 C   0  0  0  0  0  0  0  0  0  0  0  0 
    5.7377    0.6320    1.4103 C   0  0  0  0  0  0  0  0  0  0  0  0 
    6.7189   -1.6232    2.0395 C   0  0  0  0  0  0  0  0  0  0  0  0 
    5.8005   -2.3340    1.6881 O   0  0  0  0  0  0  0  0  0  0  0  0 
    7.8463   -2.1644    2.5954 O   0  0  0  0  0  0  0  0  0  0  0  0 
    4.6306   -0.0200    0.9936 O   0  0  0  0  0  0  0  0  0  0  0  0 
    1.5970    0.2294   -0.3579 H   0  0  0  0  0  0  0  0  0  0  0  0 
    2.1289   -0.8377    0.9630 H   0  0  0  0  0  0  0  0  0  0  0  0 
    2.8409   -1.0092   -0.6511 H   0  0  0  0  0  0  0  0  0  0  0  0 
    3.1656    1.4412    1.1843 H   0  0  0  0  0  0  0  0  0  0  0  0 
    3.8720    1.2776   -0.4397 H   0  0  0  0  0  0  0  0  0  0  0  0 
    8.9954    2.3851    2.6622 H   0  0  0  0  0  0  0  0  0  0  0  0 
    7.1184    3.7320    1.7157 H   0  0  0  0  0  0  0  0  0  0  0  0 
    8.7673   -0.0809    2.7925 H   0  0  0  0  0  0  0  0  0  0  0  0 
    5.0733    2.6317    0.9310 H   0  0  0  0  0  0  0  0  0  0  0  0 
    7.6798   -3.1245    2.6013 H   0  0  0  0  0  0  0  0  0  0  0  0 
  1  2  1  0  0  0  0 
  1 14  1  0  0  0  0 
  2 12  1  0  0  0  0 
  2 16  1  0  0  0  0 
  3  5  1  0  0  0  0 
  3 18  1  0  0  0  0 
  4  3  2  0  0  0  0 
  5 20  1  0  0  0  0 
  6  8  2  0  0  0  0 
  6  4  1  0  0  0  0 
  7  9  1  0  0  0  0 
  7  5  2  0  0  0  0 
  8  7  1  0  0  0  0 
  9 11  1  0  0  0  0 
 10  9  2  0  0  0  0 
 11 22  1  0  0  0  0 
 12  8  1  0  0  0  0 
 13  1  1  0  0  0  0 
 15  1  1  0  0  0  0 
 17  2  1  0  0  0  0 
 19  4  1  0  0  0  0 
 21  6  1  0  0  0  0 
M  END 
>  <HBA> 
3 
 
>  <HBD> 
1 
 
>  <TPSA> 
46.53 
 
>  <cid> 
67252 
 
>  <dipole> 
2.25 
 
>  <excitation_energy_1> 
4.354 
 
>  <excitation_energy_2> 
4.619 
 
>  <excitation_energy_3> 
5.367 
 
>  <excitation_energy_4> 
5.716 
 
>  <homo_energy> 
-6.158 
 
>  <homo_lumo_gap> 
5.059 
 
>  <logP> 
1.784 
 
>  <lumo_energy> 
-1.099 
 
>  <melting_point> 
100.09 
 
>  <molecular_refractivity> 
44.7 
 
>  <oscillator_strength_1> 
0.1057 
 
>  <oscillator_strength_2> 
0.0 
 
>  <oscillator_strength_3> 
0.1112 
 
>  <oscillator_strength_4> 
0.0006 
 
>  <open_babel_can_smiles> 
CCOc1ccccc1C(=O)O 
 
>  <mulliken_charges> 
22 
1   -0.454231 
2   -0.037169 
3   -0.135696 
4   -0.125052 
5   -0.17121 
6   -0.201844 
7   0.016326 
8   0.346123 
9   0.547003 
10   -0.46428 
11   -0.593587 
12   -0.483031 
13   0.145219 
14   0.17101 
15   0.171873 
16   0.142743 
17   0.142868 
18   0.132667 
19   0.136775 
20   0.166181 
21   0.140139 
22   0.407173 
 
>  <lowdin_charges> 
22 
1   -0.448169 
2   -0.125301 
3   -0.182147 
4   -0.125948 
5   -0.128777 
6   -0.21748 
7   -0.07866 
8   0.123814 
9   0.198388 
10   -0.263244 
11   -0.374511 
12   -0.168742 
13   0.156465 
14   0.164907 
15   0.165817 
16   0.140636 
17   0.140021 
18   0.161083 
19   0.159141 
20   0.178214 
21   0.167226 
22   0.357267 
 
$$$$ 
 
