PCCDB-ID:  17691 
public computational chemistry database (PCCDB) project, http://pccdb.org 
 
 15 15  0  0  0  0  0  0  0  0999 V2000 
    1.0922    0.0027    0.1430 C   0  0  0  0  0  0  0  0  0  0  0  0 
    3.3861   -1.2284   -0.1710 C   0  0  0  0  0  0  0  0  0  0  0  0 
    4.8513   -0.7596   -0.2580 C   0  0  0  0  0  0  0  0  0  0  0  0 
    3.3704    1.1361    0.0504 C   0  0  0  0  0  0  0  0  0  0  0  0 
    2.5817    0.0455    0.0169 C   0  0  0  0  0  0  0  0  0  0  0  0 
    4.7918    0.7718   -0.1104 C   0  0  0  0  0  0  0  0  0  0  0  0 
    5.7495    1.5231   -0.1284 O   0  0  0  0  0  0  0  0  0  0  0  0 
    0.7927   -0.6223    0.9953 H   0  0  0  0  0  0  0  0  0  0  0  0 
    0.6403   -0.4527   -0.7487 H   0  0  0  0  0  0  0  0  0  0  0  0 
    0.6620    0.9992    0.2774 H   0  0  0  0  0  0  0  0  0  0  0  0 
    3.2115   -1.9182    0.6662 H   0  0  0  0  0  0  0  0  0  0  0  0 
    3.0570   -1.7612   -1.0736 H   0  0  0  0  0  0  0  0  0  0  0  0 
    5.3280   -1.0131   -1.2109 H   0  0  0  0  0  0  0  0  0  0  0  0 
    5.4838   -1.1764    0.5330 H   0  0  0  0  0  0  0  0  0  0  0  0 
    3.0433    2.1631    0.1744 H   0  0  0  0  0  0  0  0  0  0  0  0 
  1 10  1  0  0  0  0 
  1  8  1  0  0  0  0 
  2  5  1  0  0  0  0 
  2 11  1  0  0  0  0 
  3  2  1  0  0  0  0 
  3  6  1  0  0  0  0 
  3 14  1  0  0  0  0 
  4 15  1  0  0  0  0 
  5  4  2  0  0  0  0 
  5  1  1  0  0  0  0 
  6  4  1  0  0  0  0 
  7  6  2  0  0  0  0 
  9  1  1  0  0  0  0 
 12  2  1  0  0  0  0 
 13  3  1  0  0  0  0 
M  END 
>  <HBA> 
1 
 
>  <HBD> 
0 
 
>  <TPSA> 
17.07 
 
>  <cid> 
17691 
 
>  <dipole> 
4.19 
 
>  <excitation_energy_1> 
3.825 
 
>  <excitation_energy_2> 
5.886 
 
>  <excitation_energy_3> 
6.004 
 
>  <excitation_energy_4> 
6.228 
 
>  <homo_energy> 
-6.313 
 
>  <homo_lumo_gap> 
5.276 
 
>  <logP> 
1.296 
 
>  <lumo_energy> 
-1.037 
 
>  <melting_point> 
30.62 
 
>  <molecular_refractivity> 
28.57 
 
>  <oscillator_strength_1> 
0.0004 
 
>  <oscillator_strength_2> 
0.3495 
 
>  <oscillator_strength_3> 
0.0466 
 
>  <oscillator_strength_4> 
0.0002 
 
>  <open_babel_can_smiles> 
CC1=CC(=O)CC1 
 
>  <mulliken_charges> 
15 
1   -0.519936 
2   -0.34081 
3   -0.366021 
4   -0.191397 
5   0.165114 
6   0.419924 
7   -0.477129 
8   0.168139 
9   0.168281 
10   0.16893 
11   0.15853 
12   0.158428 
13   0.174705 
14   0.174589 
15   0.138651 
 
>  <lowdin_charges> 
15 
1   -0.442998 
2   -0.282478 
3   -0.313632 
4   -0.218598 
5   0.039803 
6   0.146855 
7   -0.252662 
8   0.167263 
9   0.167291 
10   0.164729 
11   0.157909 
12   0.157768 
13   0.170725 
14   0.171687 
15   0.166338 
 
$$$$ 
 
