PCCDB-ID:  40784 
public computational chemistry database (PCCDB) project, http://pccdb.org 
 
 31 30  0  0  1  0  0  0  0  0999 V2000 
    1.3557    0.1538   -0.4782 C   0  0  0  0  0  0  0  0  0  0  0  0 
    0.5726    1.1732   -1.3173 C   0  0  0  0  0  0  0  0  0  0  0  0 
    2.8817    0.3279   -0.5252 C   0  0  0  0  0  0  0  0  0  0  0  0 
   -0.9434    1.0110   -1.1849 C   0  0  0  0  0  0  0  0  0  0  0  0 
   -3.1120    1.9057   -1.9401 C   0  0  0  0  0  0  0  0  0  0  0  0 
   -3.7298    2.5319   -0.6846 C   0  0  0  0  0  0  0  0  0  0  0  0 
    3.5262    0.0254   -1.8875 C   0  0  1  0  0  0  0  0  0  0  0  0 
    5.0233    0.4200   -1.8882 C   0  0  0  0  0  0  0  0  0  0  0  0 
    3.4035   -1.3698   -2.3574 N   0  0  0  0  0  0  0  0  0  0  0  0 
   -1.6539    2.0259   -1.9620 N   0  0  0  0  0  0  0  0  0  0  0  0 
    5.4453    1.4066   -1.3316 O   0  0  0  0  0  0  0  0  0  0  0  0 
    5.8002   -0.4157   -2.5933 O   0  0  0  0  0  0  0  0  0  0  0  0 
   -3.3937    4.3363   -0.5438 S   0  0  0  0  0  0  0  0  0  0  0  0 
    1.0880   -0.8666   -0.7911 H   0  0  0  0  0  0  0  0  0  0  0  0 
    1.0348    0.2380    0.5686 H   0  0  0  0  0  0  0  0  0  0  0  0 
    0.8458    1.0810   -2.3800 H   0  0  0  0  0  0  0  0  0  0  0  0 
    0.8465    2.1927   -1.0177 H   0  0  0  0  0  0  0  0  0  0  0  0 
    3.3456   -0.3286    0.2252 H   0  0  0  0  0  0  0  0  0  0  0  0 
    3.1576    1.3496   -0.2442 H   0  0  0  0  0  0  0  0  0  0  0  0 
   -1.2246    1.1246   -0.1302 H   0  0  0  0  0  0  0  0  0  0  0  0 
   -1.2359   -0.0188   -1.4734 H   0  0  0  0  0  0  0  0  0  0  0  0 
   -3.5083    2.4227   -2.8201 H   0  0  0  0  0  0  0  0  0  0  0  0 
   -3.4437    0.8508   -1.9971 H   0  0  0  0  0  0  0  0  0  0  0  0 
   -3.3812    2.0237    0.2202 H   0  0  0  0  0  0  0  0  0  0  0  0 
   -4.8182    2.4260   -0.7195 H   0  0  0  0  0  0  0  0  0  0  0  0 
    3.0673    0.6599   -2.6569 H   0  0  0  0  0  0  0  0  0  0  0  0 
    3.4122   -2.0154   -1.5682 H   0  0  0  0  0  0  0  0  0  0  0  0 
    2.5322   -1.5241   -2.8574 H   0  0  0  0  0  0  0  0  0  0  0  0 
   -1.3286    1.9976   -2.9255 H   0  0  0  0  0  0  0  0  0  0  0  0 
    5.1858   -1.1280   -2.9042 H   0  0  0  0  0  0  0  0  0  0  0  0 
   -2.0954    4.2173   -0.9026 H   0  0  0  0  0  0  0  0  0  0  0  0 
  1 15  1  0  0  0  0 
  2  4  1  0  0  0  0 
  2 17  1  0  0  0  0 
  2  1  1  0  0  0  0 
  3  1  1  0  0  0  0 
  3 19  1  0  0  0  0 
  3 18  1  0  0  0  0 
  4 20  1  0  0  0  0 
  5  6  1  0  0  0  0 
  6 13  1  0  0  0  0 
  6 24  1  0  0  0  0 
  7 26  1  6  0  0  0 
  7  3  1  0  0  0  0 
  8  7  1  0  0  0  0 
  8 11  2  0  0  0  0 
  9  7  1  0  0  0  0 
  9 27  1  0  0  0  0 
 10  5  1  0  0  0  0 
 10  4  1  0  0  0  0 
 12  8  1  0  0  0  0 
 14  1  1  0  0  0  0 
 16  2  1  0  0  0  0 
 21  4  1  0  0  0  0 
 22  5  1  0  0  0  0 
 23  5  1  0  0  0  0 
 25  6  1  0  0  0  0 
 28  9  1  0  0  0  0 
 29 10  1  0  0  0  0 
 30 12  1  0  0  0  0 
 31 13  1  0  0  0  0 
M  END 
>  <HBA> 
5 
 
>  <HBD> 
4 
 
>  <TPSA> 
114.15 
 
>  <cid> 
40784 
 
>  <dipole> 
6.7 
 
>  <excitation_energy_1> 
5.115 
 
>  <excitation_energy_2> 
5.311 
 
>  <excitation_energy_3> 
5.393 
 
>  <excitation_energy_4> 
5.424 
 
>  <homo_energy> 
-6.163 
 
>  <homo_lumo_gap> 
6.485 
 
>  <logP> 
1.179 
 
>  <lumo_energy> 
0.321 
 
>  <melting_point> 
150.95 
 
>  <molecular_refractivity> 
55.78 
 
>  <oscillator_strength_1> 
0.0032 
 
>  <oscillator_strength_2> 
0.0083 
 
>  <oscillator_strength_3> 
0.0011 
 
>  <oscillator_strength_4> 
0.0033 
 
>  <open_babel_can_smiles> 
SCCNCCCC[C@@H](C(=O)O)N 
 
>  <mulliken_charges> 
31 
1   -0.266178 
2   -0.272875 
3   -0.270229 
4   -0.116427 
5   -0.129274 
6   -0.397013 
7   -0.094568 
8   0.611831 
9   -0.769963 
10   -0.555931 
11   -0.465197 
12   -0.582401 
13   -0.113374 
14   0.115231 
15   0.146195 
16   0.120012 
17   0.159626 
18   0.135974 
19   0.180055 
20   0.148056 
21   0.109783 
22   0.157207 
23   0.12277 
24   0.173469 
25   0.174935 
26   0.177412 
27   0.322072 
28   0.325098 
29   0.300811 
30   0.432118 
31   0.120776 
 
>  <lowdin_charges> 
31 
1   -0.277116 
2   -0.278617 
3   -0.284866 
4   -0.199428 
5   -0.206069 
6   -0.376721 
7   -0.111755 
8   0.172646 
9   -0.547324 
10   -0.360767 
11   -0.257096 
12   -0.355352 
13   -0.108924 
14   0.130004 
15   0.14944 
16   0.130337 
17   0.153577 
18   0.147867 
19   0.169422 
20   0.142583 
21   0.114333 
22   0.155799 
23   0.125426 
24   0.15572 
25   0.166586 
26   0.166697 
27   0.268246 
28   0.271794 
29   0.256004 
30   0.360181 
31   0.127372 
 
$$$$ 
 
