PCCDB-ID:  61942 
public computational chemistry database (PCCDB) project, http://pccdb.org 
 
 26 27  0  0  1  0  0  0  0  0999 V2000 
    1.2178    0.8210   -0.1802 C   0  0  0  0  0  0  0  0  0  0  0  0 
    3.1697   -0.3296   -1.2929 C   0  0  0  0  0  0  0  0  0  0  0  0 
    5.2431    2.1845    3.0501 C   0  0  0  0  0  0  0  0  0  0  0  0 
    4.7895   -0.2767    1.1535 C   0  0  0  0  0  0  0  0  0  0  0  0 
    5.5859   -0.3091    2.5218 C   0  0  0  0  0  0  0  0  0  0  0  0 
    2.6145    0.2710   -0.0189 C   0  0  0  0  0  0  0  0  0  0  0  0 
    3.3346    0.3181    1.1284 C   0  0  0  0  0  0  0  0  0  0  0  0 
    2.7723    1.0010    2.3865 C   0  0  0  0  0  0  0  0  0  0  0  0 
    3.4820    0.2803    3.4843 C   0  0  1  0  0  0  0  0  0  0  0  0 
    4.8862    0.7430    3.3573 C   0  0  2  0  0  0  0  0  0  0  0  0 
    2.0515    1.9792    2.4170 O   0  0  0  0  0  0  0  0  0  0  0  0 
    4.2385    0.6245    4.6459 O   0  0  0  0  0  0  0  0  0  0  0  0 
    0.5543    0.0358   -0.5671 H   0  0  0  0  0  0  0  0  0  0  0  0 
    1.2211    1.6210   -0.9341 H   0  0  0  0  0  0  0  0  0  0  0  0 
    0.8031    1.2331    0.7365 H   0  0  0  0  0  0  0  0  0  0  0  0 
    2.3624   -0.7158   -1.9243 H   0  0  0  0  0  0  0  0  0  0  0  0 
    3.8835   -1.1392   -1.1219 H   0  0  0  0  0  0  0  0  0  0  0  0 
    3.6904    0.4415   -1.8798 H   0  0  0  0  0  0  0  0  0  0  0  0 
    5.4270    2.3427    1.9819 H   0  0  0  0  0  0  0  0  0  0  0  0 
    6.1640    2.4368    3.5897 H   0  0  0  0  0  0  0  0  0  0  0  0 
    4.4539    2.8659    3.3762 H   0  0  0  0  0  0  0  0  0  0  0  0 
    4.7658   -1.2987    0.7579 H   0  0  0  0  0  0  0  0  0  0  0  0 
    5.3813    0.2994    0.4306 H   0  0  0  0  0  0  0  0  0  0  0  0 
    6.6485   -0.1063    2.3407 H   0  0  0  0  0  0  0  0  0  0  0  0 
    5.5068   -1.2928    2.9945 H   0  0  0  0  0  0  0  0  0  0  0  0 
    3.3606   -0.8006    3.3910 H   0  0  0  0  0  0  0  0  0  0  0  0 
  1  6  1  0  0  0  0 
  1 15  1  0  0  0  0 
  2 17  1  0  0  0  0 
  2  6  1  0  0  0  0 
  3 21  1  0  0  0  0 
  3 20  1  0  0  0  0 
  4  5  1  0  0  0  0 
  5 25  1  0  0  0  0 
  5 10  1  0  0  0  0 
  6  7  2  0  0  0  0 
  7  4  1  0  0  0  0 
  7  8  1  0  0  0  0 
  8 11  2  0  0  0  0 
  8  9  1  0  0  0  0 
  9 26  1  6  0  0  0 
  9 12  1  0  0  0  0 
 10  3  1  6  0  0  0 
 10  9  1  0  0  0  0 
 10 12  1  0  0  0  0 
 13  1  1  0  0  0  0 
 14  1  1  0  0  0  0 
 16  2  1  0  0  0  0 
 18  2  1  0  0  0  0 
 19  3  1  0  0  0  0 
 22  4  1  0  0  0  0 
 23  4  1  0  0  0  0 
 24  5  1  0  0  0  0 
M  END 
>  <HBA> 
2 
 
>  <HBD> 
0 
 
>  <TPSA> 
29.6 
 
>  <cid> 
61942 
 
>  <dipole> 
4.47 
 
>  <excitation_energy_1> 
3.881 
 
>  <excitation_energy_2> 
5.073 
 
>  <excitation_energy_3> 
5.367 
 
>  <excitation_energy_4> 
5.764 
 
>  <homo_energy> 
-6.343 
 
>  <homo_lumo_gap> 
5.271 
 
>  <logP> 
1.843 
 
>  <lumo_energy> 
-1.072 
 
>  <melting_point> 
56.03 
 
>  <molecular_refractivity> 
46.8 
 
>  <oscillator_strength_1> 
0.0005 
 
>  <oscillator_strength_2> 
0.2119 
 
>  <oscillator_strength_3> 
0.0452 
 
>  <oscillator_strength_4> 
0.0028 
 
>  <open_babel_can_smiles> 
CC(=C1CC[C@]2([C@H](C1=O)O2)C)C 
 
>  <mulliken_charges> 
26 
1   -0.514856 
2   -0.514605 
3   -0.477093 
4   -0.345242 
5   -0.312976 
6   0.124326 
7   0.0168 
8   0.37996 
9   0.000433 
10   0.291261 
11   -0.46996 
12   -0.465986 
13   0.147892 
14   0.160702 
15   0.199635 
16   0.158937 
17   0.159394 
18   0.170378 
19   0.155877 
20   0.164531 
21   0.187205 
22   0.160006 
23   0.161739 
24   0.14563 
25   0.161224 
26   0.15479 
 
>  <lowdin_charges> 
26 
1   -0.451356 
2   -0.45023 
3   -0.448584 
4   -0.282824 
5   -0.278502 
6   0.032544 
7   -0.087084 
8   0.143118 
9   -0.073222 
10   0.104267 
11   -0.23862 
12   -0.238621 
13   0.155352 
14   0.163412 
15   0.181009 
16   0.160977 
17   0.160275 
18   0.168533 
19   0.157289 
20   0.166716 
21   0.176764 
22   0.157276 
23   0.158132 
24   0.147509 
25   0.158971 
26   0.1569 
 
$$$$ 
 
