PCCDB-ID:  25922 
public computational chemistry database (PCCDB) project, http://pccdb.org 
 
 30 30  0  0  1  0  0  0  0  0999 V2000 
    1.8411   -1.6726   -0.0911 C   0  0  0  0  0  0  0  0  0  0  0  0 
    2.7576   -1.4148    1.1083 C   0  0  0  0  0  0  0  0  0  0  0  0 
    6.6513   -2.9256   -2.9462 C   0  0  0  0  0  0  0  0  0  0  0  0 
    4.8796   -4.4843   -2.5154 C   0  0  0  0  0  0  0  0  0  0  0  0 
    6.2859   -2.1922   -1.8227 C   0  0  0  0  0  0  0  0  0  0  0  0 
    4.4936   -3.7556   -1.3898 C   0  0  0  0  0  0  0  0  0  0  0  0 
    4.0606   -2.2116    1.1010 C   0  0  0  0  0  0  0  0  0  0  0  0 
    6.3708   -4.9009   -4.5276 C   0  0  0  0  0  0  0  0  0  0  0  0 
    5.9586   -4.0911   -3.3170 C   0  0  0  0  0  0  0  0  0  0  0  0 
    5.2022   -2.6006   -1.0304 C   0  0  0  0  0  0  0  0  0  0  0  0 
    7.3656   -6.0110   -4.2213 C   0  0  1  0  0  0  0  0  0  0  0  0 
    7.6083   -7.0173   -4.9747 N   0  0  0  0  0  0  0  0  0  0  0  0 
    8.0944   -5.9395   -3.0786 O   0  0  0  0  0  0  0  0  0  0  0  0 
    6.8249   -6.9350   -6.1626 O   0  0  0  0  0  0  0  0  0  0  0  0 
    4.9232   -1.7945    0.0327 O   0  0  0  0  0  0  0  0  0  0  0  0 
    0.9466   -1.0425   -0.0385 H   0  0  0  0  0  0  0  0  0  0  0  0 
    1.5073   -2.7170   -0.1250 H   0  0  0  0  0  0  0  0  0  0  0  0 
    2.3503   -1.4499   -1.0344 H   0  0  0  0  0  0  0  0  0  0  0  0 
    2.2311   -1.6556    2.0423 H   0  0  0  0  0  0  0  0  0  0  0  0 
    3.0129   -0.3490    1.1596 H   0  0  0  0  0  0  0  0  0  0  0  0 
    7.4883   -2.5845   -3.5519 H   0  0  0  0  0  0  0  0  0  0  0  0 
    4.3156   -5.3756   -2.7808 H   0  0  0  0  0  0  0  0  0  0  0  0 
    6.8235   -1.2931   -1.5390 H   0  0  0  0  0  0  0  0  0  0  0  0 
    3.6347   -4.0875   -0.8186 H   0  0  0  0  0  0  0  0  0  0  0  0 
    3.8747   -3.2898    1.0560 H   0  0  0  0  0  0  0  0  0  0  0  0 
    4.6216   -2.0127    2.0214 H   0  0  0  0  0  0  0  0  0  0  0  0 
    6.8202   -4.2498   -5.2892 H   0  0  0  0  0  0  0  0  0  0  0  0 
    5.5046   -5.3632   -5.0102 H   0  0  0  0  0  0  0  0  0  0  0  0 
    7.7258   -5.2191   -2.5383 H   0  0  0  0  0  0  0  0  0  0  0  0 
    7.0642   -7.7651   -6.6007 H   0  0  0  0  0  0  0  0  0  0  0  0 
  1 16  1  0  0  0  0 
  1  2  1  0  0  0  0 
  2 20  1  0  0  0  0 
  2 19  1  0  0  0  0 
  3  5  1  0  0  0  0 
  4  6  2  0  0  0  0 
  5 23  1  0  0  0  0 
  5 10  2  0  0  0  0 
  6 10  1  0  0  0  0 
  6 24  1  0  0  0  0 
  7  2  1  0  0  0  0 
  7 26  1  0  0  0  0 
  8 11  1  0  0  0  0 
  8  9  1  0  0  0  0 
  9  3  2  0  0  0  0 
  9  4  1  0  0  0  0 
 10 15  1  0  0  0  0 
 11 12  1  6  0  0  0 
 11 13  1  0  0  0  0 
 13 29  1  0  0  0  0 
 14 12  1  0  0  0  0 
 15  7  1  0  0  0  0 
 17  1  1  0  0  0  0 
 18  1  1  0  0  0  0 
 21  3  1  0  0  0  0 
 22  4  1  0  0  0  0 
 25  7  1  0  0  0  0 
 27  8  1  0  0  0  0 
 28  8  1  0  0  0  0 
 30 14  1  0  0  0  0 
M  RAD  2  11   2  12   2 
M  END 
>  <HBA> 
4 
 
>  <HBD> 
2 
 
>  <TPSA> 
58.56 
 
>  <cid> 
25922 
 
>  <dipole> 
4.16 
 
>  <excitation_energy_1> 
4.808 
 
>  <excitation_energy_2> 
4.875 
 
>  <excitation_energy_3> 
5.109 
 
>  <excitation_energy_4> 
5.387 
 
>  <homo_energy> 
-5.837 
 
>  <homo_lumo_gap> 
5.407 
 
>  <logP> 
1.914 
 
>  <lumo_energy> 
-0.43 
 
>  <melting_point> 
113.74 
 
>  <molecular_refractivity> 
56.05 
 
>  <oscillator_strength_1> 
0.0214 
 
>  <oscillator_strength_2> 
0.0077 
 
>  <oscillator_strength_3> 
0.0018 
 
>  <oscillator_strength_4> 
0.1773 
 
>  <open_babel_can_smiles> 
CCCOc1ccc(cc1)C[C]([N]O)O 
 
>  <mulliken_charges> 
30 
1   -0.45236 
2   -0.262561 
3   -0.19023 
4   -0.172135 
5   -0.172011 
6   -0.184267 
7   -0.041427 
8   -0.412843 
9   0.076773 
10   0.377959 
11   0.510075 
12   -0.252307 
13   -0.59357 
14   -0.530591 
15   -0.52533 
16   0.151292 
17   0.141202 
18   0.165675 
19   0.137907 
20   0.153845 
21   0.139912 
22   0.140198 
23   0.144278 
24   0.140496 
25   0.143189 
26   0.153594 
27   0.185197 
28   0.193019 
29   0.418959 
30   0.416062 
 
>  <lowdin_charges> 
30 
1   -0.448086 
2   -0.280815 
3   -0.164973 
4   -0.150146 
5   -0.182929 
6   -0.208739 
7   -0.124562 
8   -0.301766 
9   -0.048667 
10   0.107516 
11   0.097608 
12   -0.110605 
13   -0.365087 
14   -0.401802 
15   -0.202836 
16   0.155457 
17   0.144235 
18   0.158448 
19   0.148829 
20   0.150988 
21   0.162605 
22   0.162782 
23   0.169979 
24   0.164468 
25   0.140928 
26   0.152163 
27   0.177094 
28   0.181953 
29   0.361403 
30   0.354559 
 
$$$$ 
 
