PCCDB-ID:  21240 
public computational chemistry database (PCCDB) project, http://pccdb.org 
 
 27 27  0  0  0  0  0  0  0  0999 V2000 
    2.8330   -0.6052   -0.9447 C   0  0  0  0  0  0  0  0  0  0  0  0 
    1.0153    0.2212    0.6082 C   0  0  0  0  0  0  0  0  0  0  0  0 
    9.1294    0.0538    1.1684 C   0  0  0  0  0  0  0  0  0  0  0  0 
    6.8315    1.0658    1.5499 C   0  0  0  0  0  0  0  0  0  0  0  0 
    6.9782   -1.2842    1.1003 C   0  0  0  0  0  0  0  0  0  0  0  0 
    5.4440    0.9606    1.6473 C   0  0  0  0  0  0  0  0  0  0  0  0 
    5.5913   -1.3886    1.1966 C   0  0  0  0  0  0  0  0  0  0  0  0 
    3.2865   -0.3686    1.5614 C   0  0  0  0  0  0  0  0  0  0  0  0 
    2.5251    0.1885    0.3320 C   0  0  0  0  0  0  0  0  0  0  0  0 
    7.6255   -0.0537    1.2738 C   0  0  0  0  0  0  0  0  0  0  0  0 
    4.7950   -0.2681    1.4702 C   0  0  0  0  0  0  0  0  0  0  0  0 
    2.3284   -0.1632   -1.8120 H   0  0  0  0  0  0  0  0  0  0  0  0 
    2.4854   -1.6430   -0.8523 H   0  0  0  0  0  0  0  0  0  0  0  0 
    3.9071   -0.6289   -1.1548 H   0  0  0  0  0  0  0  0  0  0  0  0 
    0.4672    0.6502   -0.2390 H   0  0  0  0  0  0  0  0  0  0  0  0 
    0.7821    0.8197    1.4972 H   0  0  0  0  0  0  0  0  0  0  0  0 
    0.6251   -0.7913    0.7762 H   0  0  0  0  0  0  0  0  0  0  0  0 
    9.4698    1.0799    1.3408 H   0  0  0  0  0  0  0  0  0  0  0  0 
    9.4855   -0.2519    0.1765 H   0  0  0  0  0  0  0  0  0  0  0  0 
    9.6314   -0.5909    1.9008 H   0  0  0  0  0  0  0  0  0  0  0  0 
    7.3064    2.0338    1.6953 H   0  0  0  0  0  0  0  0  0  0  0  0 
    7.5673   -2.1746    0.8892 H   0  0  0  0  0  0  0  0  0  0  0  0 
    4.8567    1.8493    1.8708 H   0  0  0  0  0  0  0  0  0  0  0  0 
    5.1178   -2.3587    1.0613 H   0  0  0  0  0  0  0  0  0  0  0  0 
    2.9961   -1.4182    1.7083 H   0  0  0  0  0  0  0  0  0  0  0  0 
    2.9426    0.1738    2.4530 H   0  0  0  0  0  0  0  0  0  0  0  0 
    2.8648    1.2235    0.1771 H   0  0  0  0  0  0  0  0  0  0  0  0 
  1 13  1  0  0  0  0 
  1  9  1  0  0  0  0 
  2 17  1  0  0  0  0 
  2 16  1  0  0  0  0 
  3 10  1  0  0  0  0 
  3 18  1  0  0  0  0 
  3 20  1  0  0  0  0 
  4  6  1  0  0  0  0 
  4 21  1  0  0  0  0 
  5  7  2  0  0  0  0 
  5 10  1  0  0  0  0 
  6 23  1  0  0  0  0 
  7 11  1  0  0  0  0 
  8 25  1  0  0  0  0 
  8 26  1  0  0  0  0 
  9  2  1  0  0  0  0 
  9  8  1  0  0  0  0 
 10  4  2  0  0  0  0 
 11  8  1  0  0  0  0 
 11  6  2  0  0  0  0 
 12  1  1  0  0  0  0 
 14  1  1  0  0  0  0 
 15  2  1  0  0  0  0 
 19  3  1  0  0  0  0 
 22  5  1  0  0  0  0 
 24  7  1  0  0  0  0 
 27  9  1  0  0  0  0 
M  END 
>  <HBA> 
0 
 
>  <HBD> 
0 
 
>  <TPSA> 
0.0 
 
>  <cid> 
21240 
 
>  <dipole> 
0.16 
 
>  <excitation_energy_1> 
5.158 
 
>  <excitation_energy_2> 
5.664 
 
>  <excitation_energy_3> 
5.809 
 
>  <excitation_energy_4> 
6.118 
 
>  <homo_energy> 
-6.147 
 
>  <homo_lumo_gap> 
6.231 
 
>  <logP> 
3.193 
 
>  <lumo_energy> 
0.084 
 
>  <melting_point> 
10.0 
 
>  <molecular_refractivity> 
50.8 
 
>  <oscillator_strength_1> 
0.0076 
 
>  <oscillator_strength_2> 
0.0882 
 
>  <oscillator_strength_3> 
0.004 
 
>  <oscillator_strength_4> 
0.0025 
 
>  <open_babel_can_smiles> 
CC(Cc1ccc(cc1)C)C 
 
>  <mulliken_charges> 
27 
1   -0.445661 
2   -0.440766 
3   -0.530271 
4   -0.183033 
5   -0.176827 
6   -0.17928 
7   -0.18537 
8   -0.343362 
9   -0.063568 
10   0.17693 
11   0.173826 
12   0.13884 
13   0.133579 
14   0.155764 
15   0.141248 
16   0.13846 
17   0.138738 
18   0.153274 
19   0.160719 
20   0.160635 
21   0.118931 
22   0.118909 
23   0.119717 
24   0.120906 
25   0.132831 
26   0.138585 
27   0.126246 
 
>  <lowdin_charges> 
27 
1   -0.446182 
2   -0.445733 
3   -0.442667 
4   -0.167938 
5   -0.167258 
6   -0.167174 
7   -0.167057 
8   -0.273837 
9   -0.115989 
10   -0.002755 
11   -0.005561 
12   0.148519 
13   0.14185 
14   0.154364 
15   0.149714 
16   0.146948 
17   0.144766 
18   0.154848 
19   0.159149 
20   0.160712 
21   0.152528 
22   0.153558 
23   0.153382 
24   0.153083 
25   0.14325 
26   0.149479 
27   0.136002 
 
$$$$ 
 
