PCCDB-ID:  66306 
public computational chemistry database (PCCDB) project, http://pccdb.org 
 
 27 27  0  0  0  0  0  0  0  0999 V2000 
    2.2588    1.0097   -1.0365 C   0  0  0  0  0  0  0  0  0  0  0  0 
    2.6494    0.5760   -3.5061 C   0  0  0  0  0  0  0  0  0  0  0  0 
    6.2484    2.2508   -0.5759 C   0  0  0  0  0  0  0  0  0  0  0  0 
    5.9343   -0.1211   -0.5588 C   0  0  0  0  0  0  0  0  0  0  0  0 
    6.8877    2.1485    0.8069 C   0  0  0  0  0  0  0  0  0  0  0  0 
    6.5869   -0.1691    0.8212 C   0  0  0  0  0  0  0  0  0  0  0  0 
    4.5768    1.2656   -2.0412 C   0  0  0  0  0  0  0  0  0  0  0  0 
    3.2444    0.4950   -2.0931 C   0  0  0  0  0  0  0  0  0  0  0  0 
    5.2759    1.1717   -0.7581 N   0  0  0  0  0  0  0  0  0  0  0  0 
    7.5191    0.8890    0.9937 O   0  0  0  0  0  0  0  0  0  0  0  0 
    1.3398    0.4118   -1.0282 H   0  0  0  0  0  0  0  0  0  0  0  0 
    1.9765    2.0509   -1.2436 H   0  0  0  0  0  0  0  0  0  0  0  0 
    2.7065    0.9781   -0.0389 H   0  0  0  0  0  0  0  0  0  0  0  0 
    1.7077    0.0188   -3.5682 H   0  0  0  0  0  0  0  0  0  0  0  0 
    3.3339    0.1631   -4.2569 H   0  0  0  0  0  0  0  0  0  0  0  0 
    2.4366    1.6166   -3.7847 H   0  0  0  0  0  0  0  0  0  0  0  0 
    7.0469    2.2194   -1.3441 H   0  0  0  0  0  0  0  0  0  0  0  0 
    5.7324    3.2142   -0.6701 H   0  0  0  0  0  0  0  0  0  0  0  0 
    5.1948   -0.9258   -0.6335 H   0  0  0  0  0  0  0  0  0  0  0  0 
    6.7075   -0.3029   -1.3324 H   0  0  0  0  0  0  0  0  0  0  0  0 
    6.1153    2.3034    1.5785 H   0  0  0  0  0  0  0  0  0  0  0  0 
    7.6666    2.9072    0.9307 H   0  0  0  0  0  0  0  0  0  0  0  0 
    7.1476   -1.1001    0.9498 H   0  0  0  0  0  0  0  0  0  0  0  0 
    5.8056   -0.1163    1.5977 H   0  0  0  0  0  0  0  0  0  0  0  0 
    4.3625    2.3280   -2.2202 H   0  0  0  0  0  0  0  0  0  0  0  0 
    5.2279    0.9330   -2.8752 H   0  0  0  0  0  0  0  0  0  0  0  0 
    3.4476   -0.5650   -1.8821 H   0  0  0  0  0  0  0  0  0  0  0  0 
  1 11  1  0  0  0  0 
  1 13  1  0  0  0  0 
  2  8  1  0  0  0  0 
  3  5  1  0  0  0  0 
  4  6  1  0  0  0  0 
  5 22  1  0  0  0  0 
  5 10  1  0  0  0  0 
  5 21  1  0  0  0  0 
  6 23  1  0  0  0  0 
  6 10  1  0  0  0  0 
  6 24  1  0  0  0  0 
  7  9  1  0  0  0  0 
  8  7  1  0  0  0  0 
  8 27  1  0  0  0  0 
  8  1  1  0  0  0  0 
  9  3  1  0  0  0  0 
  9  4  1  0  0  0  0 
 12  1  1  0  0  0  0 
 14  2  1  0  0  0  0 
 15  2  1  0  0  0  0 
 16  2  1  0  0  0  0 
 17  3  1  0  0  0  0 
 18  3  1  0  0  0  0 
 19  4  1  0  0  0  0 
 20  4  1  0  0  0  0 
 25  7  1  0  0  0  0 
 26  7  1  0  0  0  0 
M  END 
>  <HBA> 
2 
 
>  <HBD> 
0 
 
>  <TPSA> 
12.47 
 
>  <cid> 
66306 
 
>  <dipole> 
1.22 
 
>  <excitation_energy_1> 
5.53 
 
>  <excitation_energy_2> 
5.751 
 
>  <excitation_energy_3> 
5.823 
 
>  <excitation_energy_4> 
5.966 
 
>  <homo_energy> 
-5.837 
 
>  <homo_lumo_gap> 
8.131 
 
>  <logP> 
0.912 
 
>  <lumo_energy> 
2.294 
 
>  <melting_point> 
-11.63 
 
>  <molecular_refractivity> 
46.35 
 
>  <oscillator_strength_1> 
0.0092 
 
>  <oscillator_strength_2> 
0.0168 
 
>  <oscillator_strength_3> 
0.0752 
 
>  <oscillator_strength_4> 
0.0523 
 
>  <open_babel_can_smiles> 
CC(CN1CCOCC1)C 
 
>  <mulliken_charges> 
27 
1   -0.437357 
2   -0.444955 
3   -0.131029 
4   -0.137419 
5   -0.033348 
6   -0.03245 
7   -0.099524 
8   -0.082013 
9   -0.403362 
10   -0.467644 
11   0.135305 
12   0.132205 
13   0.158931 
14   0.143598 
15   0.140693 
16   0.138886 
17   0.118187 
18   0.138243 
19   0.142355 
20   0.117838 
21   0.127237 
22   0.143199 
23   0.14344 
24   0.127083 
25   0.127992 
26   0.108948 
27   0.124962 
 
>  <lowdin_charges> 
27 
1   -0.445271 
2   -0.444229 
3   -0.21561 
4   -0.218838 
5   -0.138759 
6   -0.138363 
7   -0.199748 
8   -0.124798 
9   -0.19068 
10   -0.273512 
11   0.145872 
12   0.141804 
13   0.156025 
14   0.150448 
15   0.148661 
16   0.144316 
17   0.12216 
18   0.148344 
19   0.150639 
20   0.122056 
21   0.131741 
22   0.151619 
23   0.150907 
24   0.131428 
25   0.139887 
26   0.119908 
27   0.133996 
 
$$$$ 
 
