PCCDB-ID:  49851 
public computational chemistry database (PCCDB) project, http://pccdb.org 
 
 35 35  0  0  1  0  0  0  0  0999 V2000 
    2.3343    1.4262    1.1103 C   0  0  0  0  0  0  0  0  0  0  0  0 
    3.0346   -1.2038   -3.1366 C   0  0  0  0  0  0  0  0  0  0  0  0 
    3.2791    0.1255   -2.8177 C   0  0  0  0  0  0  0  0  0  0  0  0 
    2.4783   -2.0695   -2.1872 C   0  0  0  0  0  0  0  0  0  0  0  0 
    2.9675    0.5980   -1.5334 C   0  0  0  0  0  0  0  0  0  0  0  0 
    1.6046   -3.8569   -0.0042 C   0  0  0  0  0  0  0  0  0  0  0  0 
    0.9876   -5.9787    1.3029 C   0  0  0  0  0  0  0  0  0  0  0  0 
    0.9755   -4.4333    1.2753 C   0  0  1  0  0  0  0  0  0  0  0  0 
    2.1469   -1.6184   -0.9032 C   0  0  0  0  0  0  0  0  0  0  0  0 
    2.4110   -0.2567   -0.5897 C   0  0  0  0  0  0  0  0  0  0  0  0 
    3.3828   -6.6018    1.6363 C   0  0  0  0  0  0  0  0  0  0  0  0 
    3.4821   -5.8326    2.6675 N   0  0  0  0  0  0  0  0  0  0  0  0 
    4.3900   -7.4107    1.1062 N   0  0  0  0  0  0  0  0  0  0  0  0 
    1.5487   -2.4119    0.0637 N   0  0  0  0  0  0  0  0  0  0  0  0 
    2.2157   -6.6708    0.9078 N   0  0  0  0  0  0  0  0  0  0  0  0 
    1.5467   -3.8563    2.4337 O   0  0  0  0  0  0  0  0  0  0  0  0 
    2.0784    0.0978    0.6962 O   0  0  0  0  0  0  0  0  0  0  0  0 
    1.7678    2.1516    0.5105 H   0  0  0  0  0  0  0  0  0  0  0  0 
    3.4039    1.6701    1.0488 H   0  0  0  0  0  0  0  0  0  0  0  0 
    2.0091    1.4865    2.1509 H   0  0  0  0  0  0  0  0  0  0  0  0 
    3.2770   -1.5842   -4.1255 H   0  0  0  0  0  0  0  0  0  0  0  0 
    3.7107    0.8029   -3.5488 H   0  0  0  0  0  0  0  0  0  0  0  0 
    2.2956   -3.1064   -2.4507 H   0  0  0  0  0  0  0  0  0  0  0  0 
    3.1643    1.6345   -1.2814 H   0  0  0  0  0  0  0  0  0  0  0  0 
    1.0390   -4.2154   -0.8773 H   0  0  0  0  0  0  0  0  0  0  0  0 
    2.6407   -4.2237   -0.1146 H   0  0  0  0  0  0  0  0  0  0  0  0 
    0.2051   -6.3550    0.6344 H   0  0  0  0  0  0  0  0  0  0  0  0 
    0.7323   -6.2916    2.3204 H   0  0  0  0  0  0  0  0  0  0  0  0 
   -0.0811   -4.1309    1.2849 H   0  0  0  0  0  0  0  0  0  0  0  0 
    4.3446   -5.9918    3.1858 H   0  0  0  0  0  0  0  0  0  0  0  0 
    5.2319   -7.4597    1.6653 H   0  0  0  0  0  0  0  0  0  0  0  0 
    4.0848   -8.3231    0.7870 H   0  0  0  0  0  0  0  0  0  0  0  0 
    1.6657   -2.0708    1.0123 H   0  0  0  0  0  0  0  0  0  0  0  0 
    2.3450   -6.8243   -0.0832 H   0  0  0  0  0  0  0  0  0  0  0  0 
    2.3443   -4.3987    2.6572 H   0  0  0  0  0  0  0  0  0  0  0  0 
  1 20  1  0  0  0  0 
  2  3  2  0  0  0  0 
  2  4  1  0  0  0  0 
  3  5  1  0  0  0  0 
  4  9  2  0  0  0  0 
  5 24  1  0  0  0  0 
  5 10  2  0  0  0  0 
  6 14  1  0  0  0  0 
  6  8  1  0  0  0  0 
  7 28  1  0  0  0  0 
  8 29  1  6  0  0  0 
  8  7  1  0  0  0  0 
  8 16  1  0  0  0  0 
  9 10  1  0  0  0  0 
  9 14  1  0  0  0  0 
 10 17  1  0  0  0  0 
 11 12  1  0  0  0  0 
 12 30  1  0  0  0  0 
 13 11  2  0  0  0  0 
 13 31  1  0  0  0  0 
 14 33  1  0  0  0  0 
 15  7  1  0  0  0  0 
 15 11  1  0  0  0  0 
 16 35  1  0  0  0  0 
 17  1  1  0  0  0  0 
 18  1  1  0  0  0  0 
 19  1  1  0  0  0  0 
 21  2  1  0  0  0  0 
 22  3  1  0  0  0  0 
 23  4  1  0  0  0  0 
 25  6  1  0  0  0  0 
 26  6  1  0  0  0  0 
 27  7  1  0  0  0  0 
 32 13  1  0  0  0  0 
 34 15  1  0  0  0  0 
M  RAD  1  12   2 
M  END 
>  <HBA> 
6 
 
>  <HBD> 
4 
 
>  <TPSA> 
105.89 
 
>  <cid> 
49851 
 
>  <dipole> 
5.27 
 
>  <excitation_energy_1> 
3.858 
 
>  <excitation_energy_2> 
4.324 
 
>  <excitation_energy_3> 
4.6 
 
>  <excitation_energy_4> 
4.65 
 
>  <homo_energy> 
-4.561 
 
>  <homo_lumo_gap> 
5.415 
 
>  <logP> 
1.215 
 
>  <lumo_energy> 
0.854 
 
>  <melting_point> 
186.96 
 
>  <molecular_refractivity> 
66.92 
 
>  <oscillator_strength_1> 
0.0058 
 
>  <oscillator_strength_2> 
0.0035 
 
>  <oscillator_strength_3> 
0.0575 
 
>  <oscillator_strength_4> 
0.0002 
 
>  <open_babel_can_smiles> 
COc1ccccc1NC[C@@H](CNC(=[NH2])[NH])O 
 
>  <mulliken_charges> 
35 
1   -0.208922 
2   -0.139078 
3   -0.148362 
4   -0.196738 
5   -0.204806 
6   -0.11008 
7   -0.169872 
8   0.129636 
9   0.316613 
10   0.333225 
11   0.645594 
12   -0.694108 
13   -0.757077 
14   -0.679372 
15   -0.599296 
16   -0.667605 
17   -0.526905 
18   0.149156 
19   0.147768 
20   0.16659 
21   0.11185 
22   0.112938 
23   0.111424 
24   0.121901 
25   0.123287 
26   0.126631 
27   0.142446 
28   0.178048 
29   0.13497 
30   0.279755 
31   0.327952 
32   0.330695 
33   0.348909 
34   0.328585 
35   0.43425 
 
>  <lowdin_charges> 
35 
1   -0.273912 
2   -0.168282 
3   -0.187337 
4   -0.210173 
5   -0.209358 
6   -0.214357 
7   -0.213415 
8   -0.013404 
9   0.039118 
10   0.070648 
11   0.139636 
12   -0.482638 
13   -0.498768 
14   -0.293185 
15   -0.297108 
16   -0.491267 
17   -0.209654 
18   0.144831 
19   0.141004 
20   0.15957 
21   0.1501 
22   0.152674 
23   0.150786 
24   0.156655 
25   0.136779 
26   0.127213 
27   0.154581 
28   0.166447 
29   0.142605 
30   0.255726 
31   0.281756 
32   0.282962 
33   0.2867 
34   0.279682 
35   0.343388 
 
$$$$ 
 
