PCCDB-ID:  23295 
public computational chemistry database (PCCDB) project, http://pccdb.org 
 
 30 30  0  0  0  0  0  0  0  0999 V2000 
    5.4791    0.4651    0.3331 C   0  0  0  0  0  0  0  0  0  0  0  0 
   -1.2438   -2.2816    0.3989 C   0  0  0  0  0  0  0  0  0  0  0  0 
    6.9065   -5.7034   -1.6822 C   0  0  0  0  0  0  0  0  0  0  0  0 
    4.2858    0.1271   -0.5765 C   0  0  0  0  0  0  0  0  0  0  0  0 
    0.0408   -2.1263    1.2198 C   0  0  0  0  0  0  0  0  0  0  0  0 
    6.3034   -4.3390   -1.4117 C   0  0  0  0  0  0  0  0  0  0  0  0 
    3.7893   -1.2816   -0.3702 C   0  0  0  0  0  0  0  0  0  0  0  0 
    2.1390   -2.7493    0.3426 C   0  0  0  0  0  0  0  0  0  0  0  0 
    4.2592   -3.4864   -0.5498 C   0  0  0  0  0  0  0  0  0  0  0  0 
    1.0210   -3.1282    0.8244 N   0  0  0  0  0  0  0  0  0  0  0  0 
    2.5994   -1.4531    0.1353 N   0  0  0  0  0  0  0  0  0  0  0  0 
    4.6877   -2.2680   -0.7412 N   0  0  0  0  0  0  0  0  0  0  0  0 
    3.0473   -3.7770   -0.0359 N   0  0  0  0  0  0  0  0  0  0  0  0 
    4.9835   -4.5631   -0.8506 O   0  0  0  0  0  0  0  0  0  0  0  0 
    5.8327    1.4830    0.1368 H   0  0  0  0  0  0  0  0  0  0  0  0 
    6.3078   -0.2278    0.1589 H   0  0  0  0  0  0  0  0  0  0  0  0 
    5.1956    0.4029    1.3896 H   0  0  0  0  0  0  0  0  0  0  0  0 
   -2.0150   -1.5861    0.7512 H   0  0  0  0  0  0  0  0  0  0  0  0 
   -1.6329   -3.3024    0.4785 H   0  0  0  0  0  0  0  0  0  0  0  0 
   -1.0547   -2.0743   -0.6605 H   0  0  0  0  0  0  0  0  0  0  0  0 
    7.9090   -5.5826   -2.1065 H   0  0  0  0  0  0  0  0  0  0  0  0 
    6.2967   -6.2680   -2.3944 H   0  0  0  0  0  0  0  0  0  0  0  0 
    6.9911   -6.2858   -0.7593 H   0  0  0  0  0  0  0  0  0  0  0  0 
    4.5927    0.2306   -1.6255 H   0  0  0  0  0  0  0  0  0  0  0  0 
    3.4538    0.8120   -0.3938 H   0  0  0  0  0  0  0  0  0  0  0  0 
   -0.1951   -2.2960    2.2800 H   0  0  0  0  0  0  0  0  0  0  0  0 
    0.4263   -1.1032    1.1270 H   0  0  0  0  0  0  0  0  0  0  0  0 
    6.1979   -3.7423   -2.3219 H   0  0  0  0  0  0  0  0  0  0  0  0 
    6.8922   -3.7584   -0.6958 H   0  0  0  0  0  0  0  0  0  0  0  0 
    2.7520   -4.7367    0.0969 H   0  0  0  0  0  0  0  0  0  0  0  0 
  1 17  1  0  0  0  0 
  2 19  1  0  0  0  0 
  2 18  1  0  0  0  0 
  2  5  1  0  0  0  0 
  3  6  1  0  0  0  0 
  3 23  1  0  0  0  0 
  4 25  1  0  0  0  0 
  4  7  1  0  0  0  0 
  4  1  1  0  0  0  0 
  5 26  1  0  0  0  0 
  6 14  1  0  0  0  0 
  6 29  1  0  0  0  0 
  7 11  2  0  0  0  0 
  8 10  1  0  0  0  0 
  9 13  1  0  0  0  0 
 10  5  1  0  0  0  0 
 11  8  2  0  0  0  0 
 12  9  2  0  0  0  0 
 12  7  1  0  0  0  0 
 13 30  1  0  0  0  0 
 13  8  1  0  0  0  0 
 14  9  1  0  0  0  0 
 15  1  1  0  0  0  0 
 16  1  1  0  0  0  0 
 20  2  1  0  0  0  0 
 21  3  1  0  0  0  0 
 22  3  1  0  0  0  0 
 24  4  1  0  0  0  0 
 27  5  1  0  0  0  0 
 28  6  1  0  0  0  0 
M  RAD  1  10   2 
M  END 
>  <HBA> 
5 
 
>  <HBD> 
1 
 
>  <TPSA> 
59.93 
 
>  <cid> 
23295 
 
>  <dipole> 
4.01 
 
>  <excitation_energy_1> 
4.14 
 
>  <excitation_energy_2> 
4.534 
 
>  <excitation_energy_3> 
4.978 
 
>  <excitation_energy_4> 
5.326 
 
>  <homo_energy> 
-5.782 
 
>  <homo_lumo_gap> 
4.98 
 
>  <logP> 
1.337 
 
>  <lumo_energy> 
-0.803 
 
>  <melting_point> 
93.34 
 
>  <molecular_refractivity> 
55.01 
 
>  <oscillator_strength_1> 
0.0548 
 
>  <oscillator_strength_2> 
0.0025 
 
>  <oscillator_strength_3> 
0.0001 
 
>  <oscillator_strength_4> 
0.0004 
 
>  <open_babel_can_smiles> 
CC[N]C1=[N]=C(N=C(N1)OCC)CC 
 
>  <mulliken_charges> 
30 
1   -0.450129 
2   -0.432741 
3   -0.463267 
4   -0.307484 
5   -0.138578 
6   -0.030195 
7   0.433752 
8   0.655284 
9   0.791933 
10   -0.508174 
11   -0.503356 
12   -0.548181 
13   -0.669479 
14   -0.49658 
15   0.148265 
16   0.161605 
17   0.153925 
18   0.132358 
19   0.147378 
20   0.142353 
21   0.15895 
22   0.166086 
23   0.166028 
24   0.154171 
25   0.162839 
26   0.132144 
27   0.151331 
28   0.170061 
29   0.168698 
30   0.351002 
 
>  <lowdin_charges> 
30 
1   -0.437656 
2   -0.44483 
3   -0.449846 
4   -0.274224 
5   -0.194027 
6   -0.115395 
7   0.121559 
8   0.110957 
9   0.195882 
10   -0.249327 
11   -0.217012 
12   -0.268168 
13   -0.210127 
14   -0.17895 
15   0.152104 
16   0.156896 
17   0.151146 
18   0.146592 
19   0.149164 
20   0.145763 
21   0.162612 
22   0.162609 
23   0.161441 
24   0.157938 
25   0.162443 
26   0.137899 
27   0.141056 
28   0.15803 
29   0.158625 
30   0.306847 
 
$$$$ 
 
