PCCDB-ID:  61914 
public computational chemistry database (PCCDB) project, http://pccdb.org 
 
 26 25  0  0  0  0  0  0  0  0999 V2000 
    2.5559    1.6375    0.8223 C   0  0  0  0  0  0  0  0  0  0  0  0 
    1.1563   -0.4699    0.9155 C   0  0  0  0  0  0  0  0  0  0  0  0 
    6.8912    1.1352   -0.6602 C   0  0  0  0  0  0  0  0  0  0  0  0 
    7.1454   -1.2729   -1.4585 C   0  0  0  0  0  0  0  0  0  0  0  0 
    2.6417   -0.0520   -1.0847 C   0  0  0  0  0  0  0  0  0  0  0  0 
    2.4762    0.1526    0.4402 C   0  0  0  0  0  0  0  0  0  0  0  0 
    6.3443    0.0190   -1.5442 C   0  0  0  0  0  0  0  0  0  0  0  0 
    3.9770    0.4290   -1.6175 C   0  0  0  0  0  0  0  0  0  0  0  0 
    4.1326    1.3596   -2.3805 O   0  0  0  0  0  0  0  0  0  0  0  0 
    4.9909   -0.3192   -1.1202 O   0  0  0  0  0  0  0  0  0  0  0  0 
    2.4589    1.7658    1.9066 H   0  0  0  0  0  0  0  0  0  0  0  0 
    1.7501    2.2086    0.3439 H   0  0  0  0  0  0  0  0  0  0  0  0 
    3.5065    2.0877    0.5155 H   0  0  0  0  0  0  0  0  0  0  0  0 
    1.0410   -0.3611    2.0003 H   0  0  0  0  0  0  0  0  0  0  0  0 
    1.1072   -1.5392    0.6778 H   0  0  0  0  0  0  0  0  0  0  0  0 
    0.2966    0.0193    0.4397 H   0  0  0  0  0  0  0  0  0  0  0  0 
    7.9171    1.3826   -0.9561 H   0  0  0  0  0  0  0  0  0  0  0  0 
    6.9017    0.8254    0.3910 H   0  0  0  0  0  0  0  0  0  0  0  0 
    6.2815    2.0374   -0.7601 H   0  0  0  0  0  0  0  0  0  0  0  0 
    8.1747   -1.1002   -1.7913 H   0  0  0  0  0  0  0  0  0  0  0  0 
    6.7033   -2.0478   -2.0927 H   0  0  0  0  0  0  0  0  0  0  0  0 
    7.1747   -1.6455   -0.4285 H   0  0  0  0  0  0  0  0  0  0  0  0 
    1.8614    0.4907   -1.6279 H   0  0  0  0  0  0  0  0  0  0  0  0 
    2.5434   -1.1197   -1.3173 H   0  0  0  0  0  0  0  0  0  0  0  0 
    3.3033   -0.3764    0.9315 H   0  0  0  0  0  0  0  0  0  0  0  0 
    6.2829    0.3679   -2.5791 H   0  0  0  0  0  0  0  0  0  0  0  0 
  1 11  1  0  0  0  0 
  2 14  1  0  0  0  0 
  3 18  1  0  0  0  0 
  4 22  1  0  0  0  0 
  5  6  1  0  0  0  0 
  6  1  1  0  0  0  0 
  6  2  1  0  0  0  0 
  6 25  1  0  0  0  0 
  7  4  1  0  0  0  0 
  7 10  1  0  0  0  0 
  7  3  1  0  0  0  0 
  8 10  1  0  0  0  0 
  8  5  1  0  0  0  0 
  9  8  2  0  0  0  0 
 12  1  1  0  0  0  0 
 13  1  1  0  0  0  0 
 15  2  1  0  0  0  0 
 16  2  1  0  0  0  0 
 17  3  1  0  0  0  0 
 19  3  1  0  0  0  0 
 20  4  1  0  0  0  0 
 21  4  1  0  0  0  0 
 23  5  1  0  0  0  0 
 24  5  1  0  0  0  0 
 26  7  1  0  0  0  0 
M  END 
>  <HBA> 
2 
 
>  <HBD> 
0 
 
>  <TPSA> 
26.3 
 
>  <cid> 
61914 
 
>  <dipole> 
1.98 
 
>  <excitation_energy_1> 
5.675 
 
>  <excitation_energy_2> 
6.833 
 
>  <excitation_energy_3> 
7.273 
 
>  <excitation_energy_4> 
7.344 
 
>  <homo_energy> 
-7.089 
 
>  <homo_lumo_gap> 
7.529 
 
>  <logP> 
1.984 
 
>  <lumo_energy> 
0.441 
 
>  <melting_point> 
-15.45 
 
>  <molecular_refractivity> 
41.85 
 
>  <oscillator_strength_1> 
0.0022 
 
>  <oscillator_strength_2> 
0.0273 
 
>  <oscillator_strength_3> 
0.0005 
 
>  <oscillator_strength_4> 
0.0067 
 
>  <open_babel_can_smiles> 
CC(CC(=O)OC(C)C)C 
 
>  <mulliken_charges> 
26 
1   -0.448784 
2   -0.442787 
3   -0.45956 
4   -0.451288 
5   -0.328204 
6   -0.080859 
7   0.130084 
8   0.6083 
9   -0.483205 
10   -0.468915 
11   0.142814 
12   0.145635 
13   0.154465 
14   0.144837 
15   0.142223 
16   0.142851 
17   0.14754 
18   0.149624 
19   0.173183 
20   0.148691 
21   0.156744 
22   0.153899 
23   0.159987 
24   0.157161 
25   0.144113 
26   0.161449 
 
>  <lowdin_charges> 
26 
1   -0.446528 
2   -0.441079 
3   -0.452499 
4   -0.446877 
5   -0.297202 
6   -0.116941 
7   0.014135 
8   0.194604 
9   -0.270698 
10   -0.201905 
11   0.148341 
12   0.150583 
13   0.153655 
14   0.14913 
15   0.147067 
16   0.14825 
17   0.155906 
18   0.151661 
19   0.165298 
20   0.155592 
21   0.15938 
22   0.154372 
23   0.163547 
24   0.162486 
25   0.146699 
26   0.153023 
 
$$$$ 
 
