PCCDB-ID:  19403 
public computational chemistry database (PCCDB) project, http://pccdb.org 
 
 26 26  0  0  0  0  0  0  0  0999 V2000 
    2.0418    2.7484    2.1267 C   0  0  0  0  0  0  0  0  0  0  0  0 
    9.9857   -2.5714   -0.9598 C   0  0  0  0  0  0  0  0  0  0  0  0 
    2.9949    2.9668    1.4212 C   0  0  0  0  0  0  0  0  0  0  0  0 
    7.6246    3.2847   -1.8265 C   0  0  0  0  0  0  0  0  0  0  0  0 
    6.4612    3.3322   -1.0526 C   0  0  0  0  0  0  0  0  0  0  0  0 
    8.3440    2.1036   -1.9783 C   0  0  0  0  0  0  0  0  0  0  0  0 
    4.1326    3.2708    0.5588 C   0  0  0  0  0  0  0  0  0  0  0  0 
    6.7363    0.9714   -0.5483 C   0  0  0  0  0  0  0  0  0  0  0  0 
    6.0178    2.1668   -0.4149 C   0  0  0  0  0  0  0  0  0  0  0  0 
    7.8801    0.9561   -1.3339 C   0  0  0  0  0  0  0  0  0  0  0  0 
    8.1679   -1.3799   -1.8547 C   0  0  0  0  0  0  0  0  0  0  0  0 
    8.7344   -2.4972   -1.6964 N   0  0  0  0  0  0  0  0  0  0  0  0 
    6.9954   -1.2556   -2.5163 O   0  0  0  0  0  0  0  0  0  0  0  0 
    4.9022    2.0834    0.3722 O   0  0  0  0  0  0  0  0  0  0  0  0 
    8.6721   -0.1879   -1.4335 O   0  0  0  0  0  0  0  0  0  0  0  0 
    1.1981    2.5474    2.7475 H   0  0  0  0  0  0  0  0  0  0  0  0 
   10.0548   -3.5533   -0.4805 H   0  0  0  0  0  0  0  0  0  0  0  0 
   10.0867   -1.7961   -0.1892 H   0  0  0  0  0  0  0  0  0  0  0  0 
   10.8408   -2.4795   -1.6430 H   0  0  0  0  0  0  0  0  0  0  0  0 
    7.9685    4.1893   -2.3201 H   0  0  0  0  0  0  0  0  0  0  0  0 
    5.9190    4.2657   -0.9624 H   0  0  0  0  0  0  0  0  0  0  0  0 
    9.2463    2.0543   -2.5775 H   0  0  0  0  0  0  0  0  0  0  0  0 
    4.7536    4.0554    1.0162 H   0  0  0  0  0  0  0  0  0  0  0  0 
    3.7784    3.6493   -0.4114 H   0  0  0  0  0  0  0  0  0  0  0  0 
    6.3832    0.0795   -0.0442 H   0  0  0  0  0  0  0  0  0  0  0  0 
    6.7534   -2.1651   -2.7655 H   0  0  0  0  0  0  0  0  0  0  0  0 
  1 16  1  0  0  0  0 
  2 17  1  0  0  0  0 
  2 18  1  0  0  0  0 
  3  1  3  0  0  0  0 
  4  5  1  0  0  0  0 
  5 21  1  0  0  0  0 
  5  9  2  0  0  0  0 
  6  4  2  0  0  0  0 
  6 10  1  0  0  0  0 
  7 23  1  0  0  0  0 
  7  3  1  0  0  0  0 
  8  9  1  0  0  0  0 
  8 25  1  0  0  0  0 
  9 14  1  0  0  0  0 
 10  8  2  0  0  0  0 
 11 12  2  0  0  0  0 
 11 15  1  0  0  0  0 
 12  2  1  0  0  0  0 
 13 11  1  0  0  0  0 
 14  7  1  0  0  0  0 
 15 10  1  0  0  0  0 
 19  2  1  0  0  0  0 
 20  4  1  0  0  0  0 
 22  6  1  0  0  0  0 
 24  7  1  0  0  0  0 
 26 13  1  0  0  0  0 
M  END 
>  <HBA> 
4 
 
>  <HBD> 
1 
 
>  <TPSA> 
47.56 
 
>  <cid> 
19403 
 
>  <dipole> 
2.37 
 
>  <excitation_energy_1> 
5.018 
 
>  <excitation_energy_2> 
5.603 
 
>  <excitation_energy_3> 
5.654 
 
>  <excitation_energy_4> 
5.715 
 
>  <homo_energy> 
-6.182 
 
>  <homo_lumo_gap> 
5.968 
 
>  <logP> 
1.808 
 
>  <lumo_energy> 
-0.215 
 
>  <melting_point> 
88.79 
 
>  <molecular_refractivity> 
55.4 
 
>  <oscillator_strength_1> 
0.0437 
 
>  <oscillator_strength_2> 
0.0129 
 
>  <oscillator_strength_3> 
0.0047 
 
>  <oscillator_strength_4> 
0.0002 
 
>  <open_babel_can_smiles> 
C#CCOc1cccc(c1)O/C(=N\C)/O 
 
>  <mulliken_charges> 
26 
1   -0.520475 
2   -0.320253 
3   0.388449 
4   -0.149871 
5   -0.188372 
6   -0.161301 
7   -0.176802 
8   -0.198746 
9   0.380639 
10   0.357916 
11   0.70324 
12   -0.478305 
13   -0.589553 
14   -0.515379 
15   -0.536982 
16   0.20167 
17   0.153529 
18   0.150666 
19   0.153379 
20   0.138523 
21   0.138571 
22   0.141756 
23   0.174103 
24   0.174758 
25   0.155026 
26   0.423814 
 
>  <lowdin_charges> 
26 
1   -0.222348 
2   -0.353812 
3   -0.043968 
4   -0.137954 
5   -0.223831 
6   -0.189547 
7   -0.11112 
8   -0.196023 
9   0.11197 
10   0.115047 
11   0.190524 
12   -0.260687 
13   -0.358865 
14   -0.19212 
15   -0.158608 
16   0.210039 
17   0.1514 
18   0.144449 
19   0.150849 
20   0.163126 
21   0.164102 
22   0.169725 
23   0.163651 
24   0.162776 
25   0.179459 
26   0.371764 
 
$$$$ 
 
