PCCDB-ID:  11714 
public computational chemistry database (PCCDB) project, http://pccdb.org 
 
 13 12  0  0  0  0  0  0  0  0999 V2000 
    0.8234   -0.0185    0.0267 C   0  0  0  0  0  0  0  0  0  0  0  0 
    4.2402   -1.0032   -0.8044 C   0  0  0  0  0  0  0  0  0  0  0  0 
    4.2406    0.9599    0.8641 C   0  0  0  0  0  0  0  0  0  0  0  0 
    2.1314   -0.0200    0.0285 C   0  0  0  0  0  0  0  0  0  0  0  0 
    3.4430   -0.0221    0.0306 C   0  0  0  0  0  0  0  0  0  0  0  0 
    0.2500    0.5821   -0.6786 H   0  0  0  0  0  0  0  0  0  0  0  0 
    0.2467   -0.6176    0.7306 H   0  0  0  0  0  0  0  0  0  0  0  0 
    4.9116   -0.4678   -1.4896 H   0  0  0  0  0  0  0  0  0  0  0  0 
    3.5916   -1.6542   -1.3962 H   0  0  0  0  0  0  0  0  0  0  0  0 
    4.8725   -1.6338   -0.1645 H   0  0  0  0  0  0  0  0  0  0  0  0 
    4.9123    0.4256    1.5498 H   0  0  0  0  0  0  0  0  0  0  0  0 
    3.5921    1.6120    1.4550 H   0  0  0  0  0  0  0  0  0  0  0  0 
    4.8726    1.5897    0.2232 H   0  0  0  0  0  0  0  0  0  0  0  0 
  1  4  2  0  0  0  0 
  1  7  1  0  0  0  0 
  2 10  1  0  0  0  0 
  2  5  1  0  0  0  0 
  3 12  1  0  0  0  0 
  3 11  1  0  0  0  0 
  4  5  2  0  0  0  0 
  5  3  1  0  0  0  0 
  6  1  1  0  0  0  0 
  8  2  1  0  0  0  0 
  9  2  1  0  0  0  0 
 13  3  1  0  0  0  0 
M  END 
>  <HBA> 
0 
 
>  <HBD> 
0 
 
>  <TPSA> 
0.0 
 
>  <cid> 
11714 
 
>  <dipole> 
0.58 
 
>  <excitation_energy_1> 
5.446 
 
>  <excitation_energy_2> 
6.049 
 
>  <excitation_energy_3> 
6.237 
 
>  <excitation_energy_4> 
6.631 
 
>  <homo_energy> 
-6.4 
 
>  <homo_lumo_gap> 
7.244 
 
>  <logP> 
1.738 
 
>  <lumo_energy> 
0.844 
 
>  <melting_point> 
-42.41 
 
>  <molecular_refractivity> 
24.38 
 
>  <oscillator_strength_1> 
0.0 
 
>  <oscillator_strength_2> 
0.0005 
 
>  <oscillator_strength_3> 
0.0 
 
>  <oscillator_strength_4> 
0.0905 
 
>  <open_babel_can_smiles> 
C=C=C(C)C 
 
>  <mulliken_charges> 
13 
1   -0.550075 
2   -0.484474 
3   -0.484533 
4   0.28385 
5   -0.021166 
6   0.157914 
7   0.157945 
8   0.153057 
9   0.163386 
10   0.153823 
11   0.152997 
12   0.163381 
13   0.153895 
 
>  <lowdin_charges> 
13 
1   -0.371096 
2   -0.433339 
3   -0.433352 
4   -0.03 
5   -0.030709 
6   0.1725 
7   0.172511 
8   0.156221 
9   0.163852 
10   0.156672 
11   0.156183 
12   0.16385 
13   0.156705 
 
$$$$ 
 
