PCCDB-ID:  10389 
public computational chemistry database (PCCDB) project, http://pccdb.org 
 
 30 31  0  0  0  0  0  0  0  0999 V2000 
    7.1130   -6.5451    1.1856 C   0  0  0  0  0  0  0  0  0  0  0  0 
    6.6037    4.9449   -2.6897 C   0  0  0  0  0  0  0  0  0  0  0  0 
    7.9763   -4.1871    0.8190 C   0  0  0  0  0  0  0  0  0  0  0  0 
    5.7552   -4.7274    0.0593 C   0  0  0  0  0  0  0  0  0  0  0  0 
    7.9736    3.1241   -1.5782 C   0  0  0  0  0  0  0  0  0  0  0  0 
    5.7409    2.5918   -2.3093 C   0  0  0  0  0  0  0  0  0  0  0  0 
    7.8411   -2.8906    0.3398 C   0  0  0  0  0  0  0  0  0  0  0  0 
    5.6080   -3.4311   -0.4252 C   0  0  0  0  0  0  0  0  0  0  0  0 
    8.1216    1.8263   -1.0942 C   0  0  0  0  0  0  0  0  0  0  0  0 
    5.8768    1.2961   -1.8319 C   0  0  0  0  0  0  0  0  0  0  0  0 
    6.9421   -5.1301    0.6868 C   0  0  0  0  0  0  0  0  0  0  0  0 
    6.7820    3.5312   -2.1903 C   0  0  0  0  0  0  0  0  0  0  0  0 
    6.6476   -2.5010   -0.2909 C   0  0  0  0  0  0  0  0  0  0  0  0 
    7.0777    0.9013   -1.2156 C   0  0  0  0  0  0  0  0  0  0  0  0 
    6.3890   -1.2121   -0.8175 N   0  0  0  0  0  0  0  0  0  0  0  0 
    7.3366   -0.3882   -0.6911 N   0  0  0  0  0  0  0  0  0  0  0  0 
    7.9096   -6.6136    1.9334 H   0  0  0  0  0  0  0  0  0  0  0  0 
    7.3758   -7.2256    0.3644 H   0  0  0  0  0  0  0  0  0  0  0  0 
    6.1898   -6.9266    1.6357 H   0  0  0  0  0  0  0  0  0  0  0  0 
    7.5671    5.4438   -2.8358 H   0  0  0  0  0  0  0  0  0  0  0  0 
    6.0274    5.5477   -1.9748 H   0  0  0  0  0  0  0  0  0  0  0  0 
    6.0599    4.9692   -3.6408 H   0  0  0  0  0  0  0  0  0  0  0  0 
    8.9013   -4.4817    1.3100 H   0  0  0  0  0  0  0  0  0  0  0  0 
    4.9388   -5.4377   -0.0494 H   0  0  0  0  0  0  0  0  0  0  0  0 
    8.7939    3.8311   -1.4800 H   0  0  0  0  0  0  0  0  0  0  0  0 
    4.8105    2.8901   -2.7881 H   0  0  0  0  0  0  0  0  0  0  0  0 
    8.6396   -2.1645    0.4439 H   0  0  0  0  0  0  0  0  0  0  0  0 
    4.6910   -3.1108   -0.9108 H   0  0  0  0  0  0  0  0  0  0  0  0 
    9.0431    1.5030   -0.6193 H   0  0  0  0  0  0  0  0  0  0  0  0 
    5.0742    0.5730   -1.9251 H   0  0  0  0  0  0  0  0  0  0  0  0 
  1 19  1  0  0  0  0 
  1 17  1  0  0  0  0 
  2 12  1  0  0  0  0 
  2 21  1  0  0  0  0 
  3 23  1  0  0  0  0 
  4 11  2  0  0  0  0 
  5 25  1  0  0  0  0 
  5  9  2  0  0  0  0 
  6 12  2  0  0  0  0 
  6 10  1  0  0  0  0 
  7 27  1  0  0  0  0 
  7  3  2  0  0  0  0 
  8 13  2  0  0  0  0 
  8  4  1  0  0  0  0 
  9 29  1  0  0  0  0 
 10 14  2  0  0  0  0 
 11  3  1  0  0  0  0 
 11  1  1  0  0  0  0 
 12  5  1  0  0  0  0 
 13  7  1  0  0  0  0 
 14  9  1  0  0  0  0 
 14 16  1  0  0  0  0 
 15 16  1  0  0  0  0 
 15 13  1  0  0  0  0 
 18  1  1  0  0  0  0 
 20  2  1  0  0  0  0 
 22  2  1  0  0  0  0 
 24  4  1  0  0  0  0 
 26  6  1  0  0  0  0 
 28  8  1  0  0  0  0 
 30 10  1  0  0  0  0 
M  RAD  2  15   2  16   2 
M  END 
>  <HBA> 
2 
 
>  <HBD> 
0 
 
>  <TPSA> 
24.72 
 
>  <cid> 
10389 
 
>  <dipole> 
0.05 
 
>  <excitation_energy_1> 
2.633 
 
>  <excitation_energy_2> 
3.512 
 
>  <excitation_energy_3> 
4.068 
 
>  <excitation_energy_4> 
4.072 
 
>  <homo_energy> 
-5.867 
 
>  <homo_lumo_gap> 
3.848 
 
>  <logP> 
4.719 
 
>  <lumo_energy> 
-2.019 
 
>  <melting_point> 
70.49 
 
>  <molecular_refractivity> 
66.99 
 
>  <oscillator_strength_1> 
0.0 
 
>  <oscillator_strength_2> 
0.9109 
 
>  <oscillator_strength_3> 
0.0355 
 
>  <oscillator_strength_4> 
0.0018 
 
>  <open_babel_can_smiles> 
Cc1ccc(cc1)[N][N]c1ccc(cc1)C 
 
>  <mulliken_charges> 
30 
1   -0.531808 
2   -0.531616 
3   -0.197466 
4   -0.188519 
5   -0.191216 
6   -0.194747 
7   -0.12126 
8   -0.1385 
9   -0.138144 
10   -0.121817 
11   0.187334 
12   0.1873 
13   0.267187 
14   0.267603 
15   -0.311827 
16   -0.311628 
17   0.158606 
18   0.169063 
19   0.161279 
20   0.158332 
21   0.16896 
22   0.161468 
23   0.127059 
24   0.126076 
25   0.126251 
26   0.127017 
27   0.153416 
28   0.139028 
29   0.139121 
30   0.15345 
 
>  <lowdin_charges> 
30 
1   -0.444183 
2   -0.44356 
3   -0.164419 
4   -0.169355 
5   -0.170689 
6   -0.163066 
7   -0.149983 
8   -0.144723 
9   -0.144797 
10   -0.149887 
11   0.011798 
12   0.011933 
13   0.006684 
14   0.006817 
15   -0.08518 
16   -0.084871 
17   0.159367 
18   0.165052 
19   0.161048 
20   0.158694 
21   0.165546 
22   0.160583 
23   0.156222 
24   0.157447 
25   0.157436 
26   0.15625 
27   0.173503 
28   0.166393 
29   0.166487 
30   0.173454 
 
$$$$ 
 
