PCCDB-ID:  33251 
public computational chemistry database (PCCDB) project, http://pccdb.org 
 
 28 27  0  0  0  0  0  0  0  0999 V2000 
    2.7724   -1.2074    1.5663 C   0  0  0  0  0  0  0  0  0  0  0  0 
   -1.0143   -3.8611   -0.8129 C   0  0  0  0  0  0  0  0  0  0  0  0 
   -1.0974   -4.2455   -3.1774 C   0  0  0  0  0  0  0  0  0  0  0  0 
    3.6037   -1.6488    0.3588 C   0  0  0  0  0  0  0  0  0  0  0  0 
    0.6491   -1.3475   -1.4890 C   0  0  0  0  0  0  0  0  0  0  0  0 
   -0.3733   -2.0940   -2.3550 C   0  0  0  0  0  0  0  0  0  0  0  0 
    2.0745   -1.8790   -1.6930 C   0  0  0  0  0  0  0  0  0  0  0  0 
    3.3556    0.1142   -1.2613 C   0  0  0  0  0  0  0  0  0  0  0  0 
    3.5806    1.2235   -1.5586 N   0  0  0  0  0  0  0  0  0  0  0  0 
   -0.4138   -3.5372   -2.1016 N   0  0  0  0  0  0  0  0  0  0  0  0 
    3.1187   -1.1595   -0.9426 N   0  0  0  0  0  0  0  0  0  0  0  0 
    3.2359   -1.5656    2.4930 H   0  0  0  0  0  0  0  0  0  0  0  0 
    1.7536   -1.6067    1.5222 H   0  0  0  0  0  0  0  0  0  0  0  0 
    2.7117   -0.1151    1.6159 H   0  0  0  0  0  0  0  0  0  0  0  0 
   -0.9859   -4.9450   -0.6590 H   0  0  0  0  0  0  0  0  0  0  0  0 
   -2.0690   -3.5302   -0.7321 H   0  0  0  0  0  0  0  0  0  0  0  0 
   -0.4527   -3.3956    0.0026 H   0  0  0  0  0  0  0  0  0  0  0  0 
   -1.0603   -5.3240   -2.9890 H   0  0  0  0  0  0  0  0  0  0  0  0 
   -0.5940   -4.0495   -4.1301 H   0  0  0  0  0  0  0  0  0  0  0  0 
   -2.1613   -3.9556   -3.2846 H   0  0  0  0  0  0  0  0  0  0  0  0 
    3.6359   -2.7415    0.2901 H   0  0  0  0  0  0  0  0  0  0  0  0 
    4.6374   -1.3046    0.4711 H   0  0  0  0  0  0  0  0  0  0  0  0 
    0.3770   -1.4012   -0.4284 H   0  0  0  0  0  0  0  0  0  0  0  0 
    0.6186   -0.2846   -1.7601 H   0  0  0  0  0  0  0  0  0  0  0  0 
   -0.0990   -1.9563   -3.4088 H   0  0  0  0  0  0  0  0  0  0  0  0 
   -1.3715   -1.6287   -2.2281 H   0  0  0  0  0  0  0  0  0  0  0  0 
    2.3319   -1.8298   -2.7585 H   0  0  0  0  0  0  0  0  0  0  0  0 
    2.1334   -2.9306   -1.4021 H   0  0  0  0  0  0  0  0  0  0  0  0 
  1 14  1  0  0  0  0 
  1 12  1  0  0  0  0 
  2 16  1  0  0  0  0 
  2 15  1  0  0  0  0 
  2 17  1  0  0  0  0 
  3 18  1  0  0  0  0 
  3 10  1  0  0  0  0 
  4 22  1  0  0  0  0 
  4  1  1  0  0  0  0 
  5 23  1  0  0  0  0 
  6 26  1  0  0  0  0 
  6 10  1  0  0  0  0 
  6  5  1  0  0  0  0 
  7  5  1  0  0  0  0 
  7 28  1  0  0  0  0 
  7 11  1  0  0  0  0 
  8 11  1  0  0  0  0 
  9  8  3  0  0  0  0 
 10  2  1  0  0  0  0 
 11  4  1  0  0  0  0 
 13  1  1  0  0  0  0 
 19  3  1  0  0  0  0 
 20  3  1  0  0  0  0 
 21  4  1  0  0  0  0 
 24  5  1  0  0  0  0 
 25  6  1  0  0  0  0 
 27  7  1  0  0  0  0 
M  END 
>  <HBA> 
3 
 
>  <HBD> 
0 
 
>  <TPSA> 
30.27 
 
>  <cid> 
33251 
 
>  <dipole> 
5.14 
 
>  <excitation_energy_1> 
5.32 
 
>  <excitation_energy_2> 
5.572 
 
>  <excitation_energy_3> 
5.679 
 
>  <excitation_energy_4> 
5.697 
 
>  <homo_energy> 
-5.987 
 
>  <homo_lumo_gap> 
7.214 
 
>  <logP> 
0.741 
 
>  <lumo_energy> 
1.227 
 
>  <melting_point> 
11.28 
 
>  <molecular_refractivity> 
46.11 
 
>  <oscillator_strength_1> 
0.0184 
 
>  <oscillator_strength_2> 
0.0034 
 
>  <oscillator_strength_3> 
0.0021 
 
>  <oscillator_strength_4> 
0.0027 
 
>  <open_babel_can_smiles> 
CCN(CCCN(C)C)C#N 
 
>  <mulliken_charges> 
28 
1   -0.44769 
2   -0.301867 
3   -0.295428 
4   -0.142167 
5   -0.28752 
6   -0.123146 
7   -0.135226 
8   0.4909 
9   -0.483736 
10   -0.369677 
11   -0.452575 
12   0.15192 
13   0.151779 
14   0.173109 
15   0.151654 
16   0.12215 
17   0.14731 
18   0.149663 
19   0.151431 
20   0.121314 
21   0.155637 
22   0.171264 
23   0.145561 
24   0.163887 
25   0.140453 
26   0.119041 
27   0.161511 
28   0.17045 
 
>  <lowdin_charges> 
28 
1   -0.45424 
2   -0.356753 
3   -0.352315 
4   -0.176415 
5   -0.292351 
6   -0.19785 
7   -0.182236 
8   -0.006249 
9   -0.191523 
10   -0.188114 
11   -0.106308 
12   0.157805 
13   0.149778 
14   0.161776 
15   0.150175 
16   0.121421 
17   0.148694 
18   0.148566 
19   0.150693 
20   0.120824 
21   0.150599 
22   0.159505 
23   0.143498 
24   0.159225 
25   0.144497 
26   0.123256 
27   0.153935 
28   0.160107 
 
$$$$ 
 
