PCCDB-ID:  41466 
public computational chemistry database (PCCDB) project, http://pccdb.org 
 
 19 19  0  0  1  0  0  0  0  0999 V2000 
    0.7517    1.2780   -0.1398 C   0  0  0  0  0  0  0  0  0  0  0  0 
    1.4507   -0.0066    0.3360 C   0  0  0  0  0  0  0  0  0  0  0  0 
   -0.7403    1.2575    0.2225 C   0  0  0  0  0  0  0  0  0  0  0  0 
   -0.7486   -1.2506    0.1504 C   0  0  0  0  0  0  0  0  0  0  0  0 
    0.7511   -1.2606   -0.2058 C   0  0  2  0  0  0  0  0  0  0  0  0 
   -2.3725    0.1299   -1.1083 N   0  0  0  0  0  0  0  0  0  0  0  0 
   -1.3564    0.0192   -0.2317 N   0  0  0  0  0  0  0  0  0  0  0  0 
    1.3655   -2.4632    0.2348 O   0  0  0  0  0  0  0  0  0  0  0  0 
   -2.8339   -0.9263   -1.5250 O   0  0  0  0  0  0  0  0  0  0  0  0 
    0.8509    1.3720   -1.2288 H   0  0  0  0  0  0  0  0  0  0  0  0 
    1.2240    2.1610    0.3067 H   0  0  0  0  0  0  0  0  0  0  0  0 
    1.4342   -0.0439    1.4379 H   0  0  0  0  0  0  0  0  0  0  0  0 
    2.5032   -0.0184    0.0321 H   0  0  0  0  0  0  0  0  0  0  0  0 
   -1.2915    2.0753   -0.2483 H   0  0  0  0  0  0  0  0  0  0  0  0 
   -0.8647    1.3408    1.3126 H   0  0  0  0  0  0  0  0  0  0  0  0 
   -0.8682   -1.3922    1.2360 H   0  0  0  0  0  0  0  0  0  0  0  0 
   -1.2904   -2.0430   -0.3670 H   0  0  0  0  0  0  0  0  0  0  0  0 
    0.8436   -1.2799   -1.2978 H   0  0  0  0  0  0  0  0  0  0  0  0 
    1.3728   -2.4533    1.2059 H   0  0  0  0  0  0  0  0  0  0  0  0 
  1  3  1  0  0  0  0 
  1 11  1  0  0  0  0 
  1  2  1  0  0  0  0 
  2 12  1  0  0  0  0 
  3 15  1  0  0  0  0 
  4 16  1  0  0  0  0 
  5 18  1  6  0  0  0 
  5  4  1  0  0  0  0 
  5  8  1  0  0  0  0 
  5  2  1  0  0  0  0 
  6  7  1  0  0  0  0 
  7  4  1  0  0  0  0 
  7  3  1  0  0  0  0 
  8 19  1  0  0  0  0 
  9  6  2  0  0  0  0 
 10  1  1  0  0  0  0 
 13  2  1  0  0  0  0 
 14  3  1  0  0  0  0 
 17  4  1  0  0  0  0 
M  END 
>  <HBA> 
4 
 
>  <HBD> 
1 
 
>  <TPSA> 
52.9 
 
>  <cid> 
41466 
 
>  <dipole> 
4.74 
 
>  <excitation_energy_1> 
3.379 
 
>  <excitation_energy_2> 
5.499 
 
>  <excitation_energy_3> 
5.67 
 
>  <excitation_energy_4> 
5.986 
 
>  <homo_energy> 
-6.098 
 
>  <homo_lumo_gap> 
5.23 
 
>  <logP> 
0.062 
 
>  <lumo_energy> 
-0.868 
 
>  <melting_point> 
36.98 
 
>  <molecular_refractivity> 
36.75 
 
>  <oscillator_strength_1> 
0.0009 
 
>  <oscillator_strength_2> 
0.1663 
 
>  <oscillator_strength_3> 
0.003 
 
>  <oscillator_strength_4> 
0.0173 
 
>  <open_babel_can_smiles> 
O=NN1CCC[C@H](C1)O 
 
>  <mulliken_charges> 
19 
1   -0.274775 
2   -0.292185 
3   -0.135004 
4   -0.173066 
5   0.138464 
6   0.15013 
7   -0.227253 
8   -0.615351 
9   -0.373614 
10   0.15514 
11   0.149342 
12   0.120366 
13   0.159928 
14   0.179571 
15   0.150067 
16   0.139702 
17   0.208184 
18   0.154215 
19   0.386137 
 
>  <lowdin_charges> 
19 
1   -0.282788 
2   -0.293869 
3   -0.200078 
4   -0.23653 
5   -0.006712 
6   0.055007 
7   -0.050442 
8   -0.445004 
9   -0.267555 
10   0.150397 
11   0.156386 
12   0.132834 
13   0.15739 
14   0.171558 
15   0.143178 
16   0.142878 
17   0.18588 
18   0.149465 
19   0.338006 
 
$$$$ 
 
