PCCDB-ID:  13842 
public computational chemistry database (PCCDB) project, http://pccdb.org 
 
 12 11  0  0  0  0  0  0  0  0999 V2000 
    1.1854    0.3798    0.3949 C   0  0  0  0  0  0  0  0  0  0  0  0 
   -0.9775    1.0523   -0.5474 C   0  0  0  0  0  0  0  0  0  0  0  0 
   -1.6445   -0.0365   -0.4749 N   0  0  0  0  0  0  0  0  0  0  0  0 
    0.2355    1.4053    0.0234 N   0  0  0  0  0  0  0  0  0  0  0  0 
    1.8188   -0.2664   -0.6920 O   0  0  0  0  0  0  0  0  0  0  0  0 
   -1.4719    2.0937   -1.2628 O   0  0  0  0  0  0  0  0  0  0  0  0 
    0.6703   -0.3359    1.0494 H   0  0  0  0  0  0  0  0  0  0  0  0 
    1.9849    0.8502    0.9695 H   0  0  0  0  0  0  0  0  0  0  0  0 
   -1.2018   -0.7324    0.1232 H   0  0  0  0  0  0  0  0  0  0  0  0 
    0.6420    2.2321   -0.3998 H   0  0  0  0  0  0  0  0  0  0  0  0 
    1.1332   -0.7418   -1.1897 H   0  0  0  0  0  0  0  0  0  0  0  0 
   -2.3419    1.7929   -1.5801 H   0  0  0  0  0  0  0  0  0  0  0  0 
  1  8  1  0  0  0  0 
  1  7  1  0  0  0  0 
  2  3  2  0  0  0  0 
  2  4  1  0  0  0  0 
  3  9  1  0  0  0  0 
  4  1  1  0  0  0  0 
  5  1  1  0  0  0  0 
  6  2  1  0  0  0  0 
 10  4  1  0  0  0  0 
 11  5  1  0  0  0  0 
 12  6  1  0  0  0  0 
M  END 
>  <HBA> 
4 
 
>  <HBD> 
3 
 
>  <TPSA> 
75.35 
 
>  <cid> 
13842 
 
>  <dipole> 
0.64 
 
>  <excitation_energy_1> 
5.88 
 
>  <excitation_energy_2> 
6.493 
 
>  <excitation_energy_3> 
6.668 
 
>  <excitation_energy_4> 
6.725 
 
>  <homo_energy> 
-6.691 
 
>  <homo_lumo_gap> 
7.913 
 
>  <logP> 
-0.304 
 
>  <lumo_energy> 
1.222 
 
>  <melting_point> 
107.86 
 
>  <molecular_refractivity> 
18.99 
 
>  <oscillator_strength_1> 
0.0032 
 
>  <oscillator_strength_2> 
0.0469 
 
>  <oscillator_strength_3> 
0.0356 
 
>  <oscillator_strength_4> 
0.0138 
 
>  <open_babel_can_smiles> 
OCNC(=N)O 
 
>  <mulliken_charges> 
12 
1   0.042708 
2   0.623811 
3   -0.65835 
4   -0.569635 
5   -0.597214 
6   -0.596978 
7   0.144257 
8   0.169448 
9   0.282331 
10   0.339173 
11   0.39751 
12   0.42294 
 
>  <lowdin_charges> 
12 
1   -0.087558 
2   0.161085 
3   -0.49504 
4   -0.306354 
5   -0.463729 
6   -0.373879 
7   0.137873 
8   0.162351 
9   0.257722 
10   0.290611 
11   0.347645 
12   0.369274 
 
$$$$ 
 
