PCCDB-ID:  8051 
public computational chemistry database (PCCDB) project, http://pccdb.org 
 
 22 21  0  0  0  0  0  0  0  0999 V2000 
    1.0752    0.2882    0.2649 C   0  0  0  0  0  0  0  0  0  0  0  0 
    6.5964   -4.4270   -2.3136 C   0  0  0  0  0  0  0  0  0  0  0  0 
    2.5751    0.0749    0.0370 C   0  0  0  0  0  0  0  0  0  0  0  0 
    2.9023   -1.2788   -0.6067 C   0  0  0  0  0  0  0  0  0  0  0  0 
    4.4028   -1.4917   -0.8401 C   0  0  0  0  0  0  0  0  0  0  0  0 
    4.7234   -2.8442   -1.4782 C   0  0  0  0  0  0  0  0  0  0  0  0 
    6.2094   -3.0751   -1.7336 C   0  0  0  0  0  0  0  0  0  0  0  0 
    7.0456   -2.2269   -1.4852 O   0  0  0  0  0  0  0  0  0  0  0  0 
    0.8746    1.2625    0.7250 H   0  0  0  0  0  0  0  0  0  0  0  0 
    0.6604   -0.4836    0.9250 H   0  0  0  0  0  0  0  0  0  0  0  0 
    0.5209    0.2461   -0.6810 H   0  0  0  0  0  0  0  0  0  0  0  0 
    6.0352   -4.6342   -3.2330 H   0  0  0  0  0  0  0  0  0  0  0  0 
    6.3506   -5.2274   -1.6038 H   0  0  0  0  0  0  0  0  0  0  0  0 
    7.6678   -4.4471   -2.5227 H   0  0  0  0  0  0  0  0  0  0  0  0 
    3.1076    0.1571    0.9950 H   0  0  0  0  0  0  0  0  0  0  0  0 
    2.9681    0.8810   -0.5985 H   0  0  0  0  0  0  0  0  0  0  0  0 
    2.3656   -1.3622   -1.5641 H   0  0  0  0  0  0  0  0  0  0  0  0 
    2.5100   -2.0858    0.0307 H   0  0  0  0  0  0  0  0  0  0  0  0 
    4.9449   -1.4076    0.1103 H   0  0  0  0  0  0  0  0  0  0  0  0 
    4.7998   -0.6930   -1.4788 H   0  0  0  0  0  0  0  0  0  0  0  0 
    4.1965   -2.9584   -2.4386 H   0  0  0  0  0  0  0  0  0  0  0  0 
    4.3514   -3.6717   -0.8542 H   0  0  0  0  0  0  0  0  0  0  0  0 
  1  9  1  0  0  0  0 
  1 10  1  0  0  0  0 
  2  7  1  0  0  0  0 
  2 13  1  0  0  0  0 
  3  1  1  0  0  0  0 
  3 15  1  0  0  0  0 
  4 18  1  0  0  0  0 
  4  3  1  0  0  0  0 
  5  4  1  0  0  0  0 
  5 19  1  0  0  0  0 
  6 22  1  0  0  0  0 
  6  5  1  0  0  0  0 
  7  8  2  0  0  0  0 
  7  6  1  0  0  0  0 
 11  1  1  0  0  0  0 
 12  2  1  0  0  0  0 
 14  2  1  0  0  0  0 
 16  3  1  0  0  0  0 
 17  4  1  0  0  0  0 
 20  5  1  0  0  0  0 
 21  6  1  0  0  0  0 
M  END 
>  <HBA> 
1 
 
>  <HBD> 
0 
 
>  <TPSA> 
17.07 
 
>  <cid> 
8051 
 
>  <dipole> 
2.59 
 
>  <excitation_energy_1> 
4.426 
 
>  <excitation_energy_2> 
6.164 
 
>  <excitation_energy_3> 
6.869 
 
>  <excitation_energy_4> 
6.937 
 
>  <homo_energy> 
-6.593 
 
>  <homo_lumo_gap> 
6.34 
 
>  <logP> 
2.156 
 
>  <lumo_energy> 
-0.253 
 
>  <melting_point> 
-5.84 
 
>  <molecular_refractivity> 
35.96 
 
>  <oscillator_strength_1> 
0.0001 
 
>  <oscillator_strength_2> 
0.0328 
 
>  <oscillator_strength_3> 
0.0004 
 
>  <oscillator_strength_4> 
0.0117 
 
>  <open_babel_can_smiles> 
CCCCCC(=O)C 
 
>  <mulliken_charges> 
22 
1   -0.441695 
2   -0.52801 
3   -0.247144 
4   -0.250049 
5   -0.245414 
6   -0.358248 
7   0.4539 
8   -0.436408 
9   0.142994 
10   0.140568 
11   0.140661 
12   0.164432 
13   0.168286 
14   0.17918 
15   0.132987 
16   0.133259 
17   0.124568 
18   0.124386 
19   0.145863 
20   0.148395 
21   0.154747 
22   0.152743 
 
>  <lowdin_charges> 
22 
1   -0.445391 
2   -0.476541 
3   -0.272611 
4   -0.276197 
5   -0.271733 
6   -0.312393 
7   0.16837 
8   -0.236919 
9   0.149687 
10   0.146901 
11   0.145868 
12   0.167178 
13   0.170434 
14   0.170937 
15   0.140258 
16   0.141533 
17   0.135832 
18   0.136822 
19   0.149251 
20   0.151635 
21   0.158709 
22   0.15837 
 
$$$$ 
 
