PCCDB-ID:  10439 
public computational chemistry database (PCCDB) project, http://pccdb.org 
 
 13 13  0  0  0  0  0  0  0  0999 V2000 
   -1.4054   -0.0683   -0.0004 C   0  0  0  0  0  0  0  0  0  0  0  0 
   -0.6219   -1.2278   -0.0011 C   0  0  0  0  0  0  0  0  0  0  0  0 
   -0.7886    1.1736    0.0150 C   0  0  0  0  0  0  0  0  0  0  0  0 
    0.7608   -1.0689    0.0102 C   0  0  0  0  0  0  0  0  0  0  0  0 
    0.6212    1.2212    0.0237 C   0  0  0  0  0  0  0  0  0  0  0  0 
    1.2986    2.4286    0.0897 N   0  0  0  0  0  0  0  0  0  0  0  0 
    1.3830    0.1166    0.0163 N   0  0  0  0  0  0  0  0  0  0  0  0 
   -2.4904   -0.1344   -0.0102 H   0  0  0  0  0  0  0  0  0  0  0  0 
   -1.0683   -2.2167   -0.0118 H   0  0  0  0  0  0  0  0  0  0  0  0 
   -1.3699    2.0916    0.0293 H   0  0  0  0  0  0  0  0  0  0  0  0 
    1.4151   -1.9399    0.0090 H   0  0  0  0  0  0  0  0  0  0  0  0 
    0.8363    3.2329   -0.3123 H   0  0  0  0  0  0  0  0  0  0  0  0 
    2.2788    2.3529   -0.1522 H   0  0  0  0  0  0  0  0  0  0  0  0 
  1  3  1  0  0  0  0 
  2  1  2  0  0  0  0 
  2  4  1  0  0  0  0 
  3  5  2  0  0  0  0 
  3 10  1  0  0  0  0 
  4  7  2  0  0  0  0 
  5  6  1  0  0  0  0 
  7  5  1  0  0  0  0 
  8  1  1  0  0  0  0 
  9  2  1  0  0  0  0 
 11  4  1  0  0  0  0 
 12  6  1  0  0  0  0 
 13  6  1  0  0  0  0 
M  END 
>  <HBA> 
2 
 
>  <HBD> 
1 
 
>  <TPSA> 
38.91 
 
>  <cid> 
10439 
 
>  <dipole> 
1.98 
 
>  <excitation_energy_1> 
4.663 
 
>  <excitation_energy_2> 
5.15 
 
>  <excitation_energy_3> 
5.179 
 
>  <excitation_energy_4> 
5.59 
 
>  <homo_energy> 
-5.736 
 
>  <homo_lumo_gap> 
5.45 
 
>  <logP> 
1.245 
 
>  <lumo_energy> 
-0.286 
 
>  <melting_point> 
67.98 
 
>  <molecular_refractivity> 
28.64 
 
>  <oscillator_strength_1> 
0.0578 
 
>  <oscillator_strength_2> 
0.0022 
 
>  <oscillator_strength_3> 
0.0114 
 
>  <oscillator_strength_4> 
0.1397 
 
>  <open_babel_can_smiles> 
Nc1ccccn1 
 
>  <mulliken_charges> 
13 
1   -0.104678 
2   -0.155628 
3   -0.169081 
4   0.041361 
5   0.464507 
6   -0.762345 
7   -0.49118 
8   0.136569 
9   0.128123 
10   0.123612 
11   0.135167 
12   0.321381 
13   0.332192 
 
>  <lowdin_charges> 
13 
1   -0.118717 
2   -0.210964 
3   -0.216573 
4   -0.079906 
5   0.10397 
6   -0.476769 
7   -0.194768 
8   0.158506 
9   0.160526 
10   0.157962 
11   0.154634 
12   0.278825 
13   0.283273 
 
$$$$ 
 
