PCCDB-ID:  12233 
public computational chemistry database (PCCDB) project, http://pccdb.org 
 
 21 20  0  0  0  0  0  0  0  0999 V2000 
    0.7506   -0.1898    0.0550 C   0  0  0  0  0  0  0  0  0  0  0  0 
    2.7666   -1.5638    0.6298 C   0  0  0  0  0  0  0  0  0  0  0  0 
    2.6391   -0.4191   -1.5974 C   0  0  0  0  0  0  0  0  0  0  0  0 
    2.9930    0.9245    0.5353 C   0  0  0  0  0  0  0  0  0  0  0  0 
    2.6668    2.3064   -0.0404 C   0  0  0  0  0  0  0  0  0  0  0  0 
    2.2810   -0.2970   -0.1025 C   0  0  0  0  0  0  0  0  0  0  0  0 
    3.4320    3.3358    0.5826 O   0  0  0  0  0  0  0  0  0  0  0  0 
    0.2597   -1.0958   -0.3212 H   0  0  0  0  0  0  0  0  0  0  0  0 
    0.3379    0.6603   -0.4999 H   0  0  0  0  0  0  0  0  0  0  0  0 
    0.4675   -0.0733    1.1088 H   0  0  0  0  0  0  0  0  0  0  0  0 
    2.2926   -2.4622    0.2157 H   0  0  0  0  0  0  0  0  0  0  0  0 
    2.5252   -1.5213    1.6992 H   0  0  0  0  0  0  0  0  0  0  0  0 
    3.8529   -1.6845    0.5365 H   0  0  0  0  0  0  0  0  0  0  0  0 
    2.2125   -1.3357   -2.0227 H   0  0  0  0  0  0  0  0  0  0  0  0 
    3.7257   -0.4593   -1.7424 H   0  0  0  0  0  0  0  0  0  0  0  0 
    2.2528    0.4230   -2.1828 H   0  0  0  0  0  0  0  0  0  0  0  0 
    2.7569    0.9384    1.6118 H   0  0  0  0  0  0  0  0  0  0  0  0 
    4.0803    0.7866    0.4616 H   0  0  0  0  0  0  0  0  0  0  0  0 
    1.5895    2.5213    0.0377 H   0  0  0  0  0  0  0  0  0  0  0  0 
    2.9315    2.3598   -1.1007 H   0  0  0  0  0  0  0  0  0  0  0  0 
    3.2259    3.3149    1.5303 H   0  0  0  0  0  0  0  0  0  0  0  0 
  1 10  1  0  0  0  0 
  2 12  1  0  0  0  0 
  3  6  1  0  0  0  0 
  4 17  1  0  0  0  0 
  5 19  1  0  0  0  0 
  5  4  1  0  0  0  0 
  5  7  1  0  0  0  0 
  6  1  1  0  0  0  0 
  6  4  1  0  0  0  0 
  6  2  1  0  0  0  0 
  7 21  1  0  0  0  0 
  8  1  1  0  0  0  0 
  9  1  1  0  0  0  0 
 11  2  1  0  0  0  0 
 13  2  1  0  0  0  0 
 14  3  1  0  0  0  0 
 15  3  1  0  0  0  0 
 16  3  1  0  0  0  0 
 18  4  1  0  0  0  0 
 20  5  1  0  0  0  0 
M  END 
>  <HBA> 
1 
 
>  <HBD> 
1 
 
>  <TPSA> 
20.23 
 
>  <cid> 
12233 
 
>  <dipole> 
1.72 
 
>  <excitation_energy_1> 
6.382 
 
>  <excitation_energy_2> 
6.971 
 
>  <excitation_energy_3> 
7.226 
 
>  <excitation_energy_4> 
7.43 
 
>  <homo_energy> 
-7.021 
 
>  <homo_lumo_gap> 
8.98 
 
>  <logP> 
1.415 
 
>  <lumo_energy> 
1.959 
 
>  <melting_point> 
10.74 
 
>  <molecular_refractivity> 
31.86 
 
>  <oscillator_strength_1> 
0.0088 
 
>  <oscillator_strength_2> 
0.0105 
 
>  <oscillator_strength_3> 
0.0112 
 
>  <oscillator_strength_4> 
0.0115 
 
>  <open_babel_can_smiles> 
OCCC(C)(C)C 
 
>  <mulliken_charges> 
21 
1   -0.446741 
2   -0.440037 
3   -0.44713 
4   -0.275069 
5   -0.033748 
6   0.096414 
7   -0.618456 
8   0.140198 
9   0.142746 
10   0.136419 
11   0.138164 
12   0.137172 
13   0.140034 
14   0.139554 
15   0.141594 
16   0.142608 
17   0.112334 
18   0.140664 
19   0.121218 
20   0.14795 
21   0.38411 
 
>  <lowdin_charges> 
21 
1   -0.445894 
2   -0.437923 
3   -0.444229 
4   -0.290786 
5   -0.134578 
6   0.015493 
7   -0.466651 
8   0.149109 
9   0.147826 
10   0.144657 
11   0.147224 
12   0.144398 
13   0.145707 
14   0.148834 
15   0.146799 
16   0.148241 
17   0.130928 
18   0.145255 
19   0.123663 
20   0.145226 
21   0.3367 
 
$$$$ 
 
