PCCDB-ID:  27252 
public computational chemistry database (PCCDB) project, http://pccdb.org 
 
 35 35  0  0  0  0  0  0  0  0999 V2000 
    3.7253   -1.4232    4.3231 C   0  0  0  0  0  0  0  0  0  0  0  0 
    3.8775   -1.7465    2.8345 C   0  0  0  0  0  0  0  0  0  0  0  0 
    5.3032    1.7261    0.1872 C   0  0  0  0  0  0  0  0  0  0  0  0 
    6.0997    2.5735    0.5215 C   0  0  0  0  0  0  0  0  0  0  0  0 
   10.1234    2.7412    0.6770 C   0  0  0  0  0  0  0  0  0  0  0  0 
   10.1186    4.1907    1.2362 C   0  0  0  0  0  0  0  0  0  0  0  0 
    5.0376   -0.9685    2.1777 C   0  0  0  0  0  0  0  0  0  0  0  0 
    4.3390    0.6774   -0.1773 C   0  0  0  0  0  0  0  0  0  0  0  0 
    7.0828    3.5982    0.8858 C   0  0  0  0  0  0  0  0  0  0  0  0 
    8.9244    2.0506    1.3924 C   0  0  0  0  0  0  0  0  0  0  0  0 
    8.9870    4.1708    2.2990 C   0  0  0  0  0  0  0  0  0  0  0  0 
    5.2277   -1.3207    0.7123 C   0  0  0  0  0  0  0  0  0  0  0  0 
    4.9487   -0.6471   -0.3258 N   0  0  0  0  0  0  0  0  0  0  0  0 
    8.0421    3.1170    1.8979 N   0  0  0  0  0  0  0  0  0  0  0  0 
    5.7569   -2.5642    0.4899 O   0  0  0  0  0  0  0  0  0  0  0  0 
    2.8902   -1.9778    4.7648 H   0  0  0  0  0  0  0  0  0  0  0  0 
    3.5368   -0.3543    4.4778 H   0  0  0  0  0  0  0  0  0  0  0  0 
    4.6328   -1.6824    4.8820 H   0  0  0  0  0  0  0  0  0  0  0  0 
    2.9462   -1.5102    2.3040 H   0  0  0  0  0  0  0  0  0  0  0  0 
    4.0319   -2.8263    2.7036 H   0  0  0  0  0  0  0  0  0  0  0  0 
   11.0628    2.2201    0.8881 H   0  0  0  0  0  0  0  0  0  0  0  0 
    9.9949    2.7367   -0.4102 H   0  0  0  0  0  0  0  0  0  0  0  0 
    9.8947    4.9142    0.4448 H   0  0  0  0  0  0  0  0  0  0  0  0 
   11.0804    4.4812    1.6712 H   0  0  0  0  0  0  0  0  0  0  0  0 
    5.9748   -1.1859    2.7116 H   0  0  0  0  0  0  0  0  0  0  0  0 
    4.8775    0.1075    2.2831 H   0  0  0  0  0  0  0  0  0  0  0  0 
    3.8878    0.9319   -1.1442 H   0  0  0  0  0  0  0  0  0  0  0  0 
    3.5118    0.6808    0.5513 H   0  0  0  0  0  0  0  0  0  0  0  0 
    6.5599    4.4601    1.3199 H   0  0  0  0  0  0  0  0  0  0  0  0 
    7.5669    3.9660   -0.0401 H   0  0  0  0  0  0  0  0  0  0  0  0 
    9.2848    1.4750    2.2548 H   0  0  0  0  0  0  0  0  0  0  0  0 
    8.3616    1.3659    0.7531 H   0  0  0  0  0  0  0  0  0  0  0  0 
    8.4723    5.1299    2.4156 H   0  0  0  0  0  0  0  0  0  0  0  0 
    9.3997    3.8976    3.2791 H   0  0  0  0  0  0  0  0  0  0  0  0 
    5.9653   -2.9767    1.3418 H   0  0  0  0  0  0  0  0  0  0  0  0 
  1 17  1  0  0  0  0 
  1 16  1  0  0  0  0 
  1 18  1  0  0  0  0 
  2  1  1  0  0  0  0 
  3  4  3  0  0  0  0 
  4  9  1  0  0  0  0 
  5 21  1  0  0  0  0 
  5  6  1  0  0  0  0 
  5 10  1  0  0  0  0 
  6 24  1  0  0  0  0 
  6 11  1  0  0  0  0 
  7 26  1  0  0  0  0 
  7 25  1  0  0  0  0 
  7  2  1  0  0  0  0 
  8  3  1  0  0  0  0 
  8 28  1  0  0  0  0 
  9 29  1  0  0  0  0 
  9 14  1  0  0  0  0 
 10 14  1  0  0  0  0 
 10 31  1  0  0  0  0 
 11 33  1  0  0  0  0 
 11 34  1  0  0  0  0 
 12  7  1  0  0  0  0 
 13  8  1  0  0  0  0 
 13 12  2  0  0  0  0 
 14 11  1  0  0  0  0 
 15 12  1  0  0  0  0 
 15 35  1  0  0  0  0 
 19  2  1  0  0  0  0 
 20  2  1  0  0  0  0 
 22  5  1  0  0  0  0 
 23  6  1  0  0  0  0 
 27  8  1  0  0  0  0 
 30  9  1  0  0  0  0 
 32 10  1  0  0  0  0 
M  END 
>  <HBA> 
3 
 
>  <HBD> 
1 
 
>  <TPSA> 
32.34 
 
>  <cid> 
27252 
 
>  <dipole> 
3.23 
 
>  <excitation_energy_1> 
5.148 
 
>  <excitation_energy_2> 
5.255 
 
>  <excitation_energy_3> 
5.383 
 
>  <excitation_energy_4> 
5.64 
 
>  <homo_energy> 
-5.772 
 
>  <homo_lumo_gap> 
6.204 
 
>  <logP> 
1.331 
 
>  <lumo_energy> 
0.433 
 
>  <melting_point> 
60.59 
 
>  <molecular_refractivity> 
65.66 
 
>  <oscillator_strength_1> 
0.0072 
 
>  <oscillator_strength_2> 
0.0124 
 
>  <oscillator_strength_3> 
0.004 
 
>  <oscillator_strength_4> 
0.0018 
 
>  <open_babel_can_smiles> 
CCC/C(=N\CC#CCN1CCCC1)/O 
 
>  <mulliken_charges> 
35 
1   -0.442117 
2   -0.2562 
3   0.002697 
4   0.106309 
5   -0.288512 
6   -0.288541 
7   -0.369151 
8   -0.304362 
9   -0.26316 
10   -0.156123 
11   -0.138019 
12   0.503359 
13   -0.407964 
14   -0.380637 
15   -0.582489 
16   0.15152 
17   0.153205 
18   0.145241 
19   0.154283 
20   0.132878 
21   0.139458 
22   0.145684 
23   0.14124 
24   0.139242 
25   0.149232 
26   0.180302 
27   0.180163 
28   0.154049 
29   0.16592 
30   0.145941 
31   0.139012 
32   0.162872 
33   0.13603 
34   0.143898 
35   0.404741 
 
>  <lowdin_charges> 
35 
1   -0.44379 
2   -0.268759 
3   -0.087292 
4   -0.081249 
5   -0.301531 
6   -0.303444 
7   -0.312249 
8   -0.186112 
9   -0.186484 
10   -0.217207 
11   -0.211126 
12   0.135753 
13   -0.207961 
14   -0.18686 
15   -0.367143 
16   0.155759 
17   0.15108 
18   0.148939 
19   0.150449 
20   0.137033 
21   0.148314 
22   0.145964 
23   0.145061 
24   0.148387 
25   0.154601 
26   0.171052 
27   0.170115 
28   0.14902 
29   0.165103 
30   0.140387 
31   0.142151 
32   0.161253 
33   0.145113 
34   0.143076 
35   0.352595 
 
$$$$ 
 
