PCCDB-ID:  6548 
public computational chemistry database (PCCDB) project, http://pccdb.org 
 
 33 32  0  0  1  0  0  0  0  0999 V2000 
    4.8645   -2.0631    1.7103 C   0  0  0  0  0  0  0  0  0  0  0  0 
   -1.3532   -3.4052   -2.5576 C   0  0  0  0  0  0  0  0  0  0  0  0 
   -0.6385   -5.8068   -2.2570 C   0  0  0  0  0  0  0  0  0  0  0  0 
    2.0289    0.1594    0.1569 C   0  0  0  0  0  0  0  0  0  0  0  0 
    4.1361   -0.8965    1.0348 C   0  0  0  0  0  0  0  0  0  0  0  0 
    0.9585   -2.6514   -0.5439 C   0  0  0  0  0  0  0  0  0  0  0  0 
    0.8235   -3.9648   -1.3276 C   0  0  0  0  0  0  0  0  0  0  0  0 
    2.4178   -2.3418   -0.1781 C   0  0  0  0  0  0  0  0  0  0  0  0 
   -0.6223   -4.3992   -1.6421 C   0  0  0  0  0  0  0  0  0  0  0  0 
    2.6316   -1.1265    0.7456 C   0  0  2  0  0  0  0  0  0  0  0  0 
    1.9482   -1.4570    1.9706 O   0  0  0  0  0  0  0  0  0  0  0  0 
    5.8670   -1.7579    2.0304 H   0  0  0  0  0  0  0  0  0  0  0  0 
    4.9830   -2.9189    1.0374 H   0  0  0  0  0  0  0  0  0  0  0  0 
    4.3103   -2.4021    2.5913 H   0  0  0  0  0  0  0  0  0  0  0  0 
   -2.3717   -3.7487   -2.7750 H   0  0  0  0  0  0  0  0  0  0  0  0 
   -0.8278   -3.2984   -3.5162 H   0  0  0  0  0  0  0  0  0  0  0  0 
   -1.4306   -2.4099   -2.1071 H   0  0  0  0  0  0  0  0  0  0  0  0 
   -1.6635   -6.1473   -2.4470 H   0  0  0  0  0  0  0  0  0  0  0  0 
   -0.1591   -6.5381   -1.5951 H   0  0  0  0  0  0  0  0  0  0  0  0 
   -0.1010   -5.8222   -3.2144 H   0  0  0  0  0  0  0  0  0  0  0  0 
    2.4665    0.3961   -0.8201 H   0  0  0  0  0  0  0  0  0  0  0  0 
    2.2245    1.0127    0.8202 H   0  0  0  0  0  0  0  0  0  0  0  0 
    0.9458    0.0669    0.0389 H   0  0  0  0  0  0  0  0  0  0  0  0 
    4.6401   -0.6301    0.0956 H   0  0  0  0  0  0  0  0  0  0  0  0 
    4.2143   -0.0069    1.6788 H   0  0  0  0  0  0  0  0  0  0  0  0 
    0.3687   -2.7107    0.3793 H   0  0  0  0  0  0  0  0  0  0  0  0 
    0.5396   -1.8266   -1.1329 H   0  0  0  0  0  0  0  0  0  0  0  0 
    1.3075   -4.7673   -0.7516 H   0  0  0  0  0  0  0  0  0  0  0  0 
    1.3864   -3.8904   -2.2718 H   0  0  0  0  0  0  0  0  0  0  0  0 
    3.0063   -2.1878   -1.0938 H   0  0  0  0  0  0  0  0  0  0  0  0 
    2.8423   -3.2195    0.3237 H   0  0  0  0  0  0  0  0  0  0  0  0 
   -1.1692   -4.4430   -0.6874 H   0  0  0  0  0  0  0  0  0  0  0  0 
    2.0140   -0.6850    2.5556 H   0  0  0  0  0  0  0  0  0  0  0  0 
  1 12  1  0  0  0  0 
  1 14  1  0  0  0  0 
  2 17  1  0  0  0  0 
  2  9  1  0  0  0  0 
  3  9  1  0  0  0  0 
  3 19  1  0  0  0  0 
  4 10  1  0  0  0  0 
  4 22  1  0  0  0  0 
  5 25  1  0  0  0  0 
  5  1  1  0  0  0  0 
  6  8  1  0  0  0  0 
  6 26  1  0  0  0  0 
  7 28  1  0  0  0  0 
  7  6  1  0  0  0  0 
  8 31  1  0  0  0  0 
  8 10  1  0  0  0  0 
  9  7  1  0  0  0  0 
  9 32  1  0  0  0  0 
 10  5  1  0  0  0  0 
 10 11  1  1  0  0  0 
 11 33  1  0  0  0  0 
 13  1  1  0  0  0  0 
 15  2  1  0  0  0  0 
 16  2  1  0  0  0  0 
 18  3  1  0  0  0  0 
 20  3  1  0  0  0  0 
 21  4  1  0  0  0  0 
 23  4  1  0  0  0  0 
 24  5  1  0  0  0  0 
 27  6  1  0  0  0  0 
 29  7  1  0  0  0  0 
 30  8  1  0  0  0  0 
M  END 
>  <HBA> 
1 
 
>  <HBD> 
1 
 
>  <TPSA> 
20.23 
 
>  <cid> 
6548 
 
>  <dipole> 
1.43 
 
>  <excitation_energy_1> 
6.299 
 
>  <excitation_energy_2> 
7.124 
 
>  <excitation_energy_3> 
7.162 
 
>  <excitation_energy_4> 
7.281 
 
>  <homo_energy> 
-7.034 
 
>  <homo_lumo_gap> 
8.792 
 
>  <logP> 
2.974 
 
>  <lumo_energy> 
1.758 
 
>  <melting_point> 
0.42 
 
>  <molecular_refractivity> 
51.38 
 
>  <oscillator_strength_1> 
0.0115 
 
>  <oscillator_strength_2> 
0.0071 
 
>  <oscillator_strength_3> 
0.0016 
 
>  <oscillator_strength_4> 
0.0231 
 
>  <open_babel_can_smiles> 
CC[C@@](CCCC(C)C)(O)C 
 
>  <mulliken_charges> 
33 
1   -0.449292 
2   -0.444785 
3   -0.44175 
4   -0.468414 
5   -0.260766 
6   -0.270817 
7   -0.248927 
8   -0.2648 
9   -0.064193 
10   0.309292 
11   -0.639719 
12   0.138021 
13   0.146446 
14   0.158239 
15   0.138153 
16   0.135452 
17   0.144295 
18   0.137536 
19   0.138897 
20   0.136541 
21   0.142154 
22   0.127385 
23   0.159747 
24   0.129091 
25   0.11414 
26   0.153542 
27   0.130486 
28   0.125312 
29   0.118698 
30   0.122608 
31   0.143952 
32   0.120851 
33   0.382627 
 
>  <lowdin_charges> 
33 
1   -0.450531 
2   -0.445152 
3   -0.444542 
4   -0.458148 
5   -0.287768 
6   -0.281213 
7   -0.275776 
8   -0.279938 
9   -0.119867 
10   0.1216 
11   -0.465358 
12   0.148338 
13   0.148924 
14   0.156049 
15   0.14652 
16   0.143562 
17   0.14761 
18   0.145704 
19   0.147966 
20   0.144043 
21   0.152161 
22   0.14316 
23   0.155597 
24   0.143426 
25   0.134282 
26   0.151335 
27   0.139522 
28   0.139778 
29   0.133671 
30   0.140866 
31   0.150846 
32   0.134804 
33   0.338532 
 
$$$$ 
 
