PCCDB-ID:  19424 
public computational chemistry database (PCCDB) project, http://pccdb.org 
 
 23 23  0  0  0  0  0  0  0  0999 V2000 
    2.9503   -1.0948   -0.9848 C   0  0  0  0  0  0  0  0  0  0  0  0 
    3.1479    2.3528    2.6749 C   0  0  0  0  0  0  0  0  0  0  0  0 
    3.6437    1.0608    2.7684 C   0  0  0  0  0  0  0  0  0  0  0  0 
    2.3091    4.2344    1.1907 C   0  0  0  0  0  0  0  0  0  0  0  0 
    3.0107    2.0883    0.2730 C   0  0  0  0  0  0  0  0  0  0  0  0 
    2.1370    5.1869    3.4804 C   0  0  0  0  0  0  0  0  0  0  0  0 
    1.4981    6.4867    1.5364 C   0  0  0  0  0  0  0  0  0  0  0  0 
    2.8246    2.9012    1.4153 C   0  0  0  0  0  0  0  0  0  0  0  0 
    2.0013    5.2495    2.0575 C   0  0  0  0  0  0  0  0  0  0  0  0 
    3.8373    0.2736    1.6258 C   0  0  0  0  0  0  0  0  0  0  0  0 
    3.5041    0.7949    0.3556 C   0  0  0  0  0  0  0  0  0  0  0  0 
    2.2416    5.1466    4.6393 N   0  0  0  0  0  0  0  0  0  0  0  0 
    1.0906    7.4887    1.1071 N   0  0  0  0  0  0  0  0  0  0  0  0 
    4.3473   -0.9839    1.6784 O   0  0  0  0  0  0  0  0  0  0  0  0 
    3.7272    0.0956   -0.7986 O   0  0  0  0  0  0  0  0  0  0  0  0 
    3.2236   -1.4749   -1.9708 H   0  0  0  0  0  0  0  0  0  0  0  0 
    1.8776   -0.8633   -0.9677 H   0  0  0  0  0  0  0  0  0  0  0  0 
    3.1780   -1.8469   -0.2242 H   0  0  0  0  0  0  0  0  0  0  0  0 
    3.0202    2.9295    3.5818 H   0  0  0  0  0  0  0  0  0  0  0  0 
    3.8981    0.6512    3.7441 H   0  0  0  0  0  0  0  0  0  0  0  0 
    2.1325    4.4753    0.1447 H   0  0  0  0  0  0  0  0  0  0  0  0 
    2.7763    2.4700   -0.7164 H   0  0  0  0  0  0  0  0  0  0  0  0 
    4.5492   -1.2096    2.6008 H   0  0  0  0  0  0  0  0  0  0  0  0 
  1 17  1  0  0  0  0 
  1 15  1  0  0  0  0 
  1 18  1  0  0  0  0 
  2  3  1  0  0  0  0 
  2 19  1  0  0  0  0 
  3 20  1  0  0  0  0 
  4  8  1  0  0  0  0 
  4  9  2  0  0  0  0 
  5 11  2  0  0  0  0 
  5  8  1  0  0  0  0 
  6 12  3  0  0  0  0 
  7  9  1  0  0  0  0 
  8  2  2  0  0  0  0 
  9  6  1  0  0  0  0 
 10 14  1  0  0  0  0 
 10  3  2  0  0  0  0 
 11 10  1  0  0  0  0 
 13  7  3  0  0  0  0 
 14 23  1  0  0  0  0 
 15 11  1  0  0  0  0 
 16  1  1  0  0  0  0 
 21  4  1  0  0  0  0 
 22  5  1  0  0  0  0 
M  END 
>  <HBA> 
4 
 
>  <HBD> 
1 
 
>  <TPSA> 
77.04 
 
>  <cid> 
19424 
 
>  <dipole> 
7.77 
 
>  <excitation_energy_1> 
3.622 
 
>  <excitation_energy_2> 
4.046 
 
>  <excitation_energy_3> 
4.79 
 
>  <excitation_energy_4> 
5.048 
 
>  <homo_energy> 
-6.495 
 
>  <homo_lumo_gap> 
3.812 
 
>  <logP> 
1.831 
 
>  <lumo_energy> 
-2.683 
 
>  <melting_point> 
143.82 
 
>  <molecular_refractivity> 
54.16 
 
>  <oscillator_strength_1> 
0.3724 
 
>  <oscillator_strength_2> 
0.3156 
 
>  <oscillator_strength_3> 
0.0364 
 
>  <oscillator_strength_4> 
0.2085 
 
>  <open_babel_can_smiles> 
N#CC(=Cc1ccc(c(c1)OC)O)C#N 
 
>  <mulliken_charges> 
23 
1   -0.22099 
2   -0.182273 
3   -0.203413 
4   -0.165656 
5   -0.240727 
6   0.313543 
7   0.282543 
8   0.168161 
9   0.111609 
10   0.331689 
11   0.342502 
12   -0.499077 
13   -0.465723 
14   -0.622593 
15   -0.518587 
16   0.170076 
17   0.146388 
18   0.171972 
19   0.182507 
20   0.143275 
21   0.177987 
22   0.155895 
23   0.420894 
 
>  <lowdin_charges> 
23 
1   -0.273309 
2   -0.137563 
3   -0.199478 
4   -0.069415 
5   -0.151243 
6   -0.002214 
7   -0.007125 
8   -0.028673 
9   -0.05779 
10   0.101411 
11   0.068999 
12   -0.108029 
13   -0.104803 
14   -0.348681 
15   -0.216812 
16   0.162248 
17   0.140902 
18   0.155215 
19   0.187806 
20   0.164959 
21   0.182922 
22   0.174896 
23   0.365776 
 
$$$$ 
 
