PCCDB-ID:  68445 
public computational chemistry database (PCCDB) project, http://pccdb.org 
 
 26 28  0  0  0  0  0  0  0  0999 V2000 
    3.6922    0.7188    0.0045 C   0  0  0  0  0  0  0  0  0  0  0  0 
   -3.6916    0.7184    0.0020 C   0  0  0  0  0  0  0  0  0  0  0  0 
    2.4888    1.4124    0.0012 C   0  0  0  0  0  0  0  0  0  0  0  0 
   -2.4883    1.4121   -0.0002 C   0  0  0  0  0  0  0  0  0  0  0  0 
    2.4816   -1.3845    0.0009 C   0  0  0  0  0  0  0  0  0  0  0  0 
   -2.4807   -1.3848   -0.0004 C   0  0  0  0  0  0  0  0  0  0  0  0 
    3.6914   -0.6852    0.0045 C   0  0  0  0  0  0  0  0  0  0  0  0 
   -3.6906   -0.6855    0.0018 C   0  0  0  0  0  0  0  0  0  0  0  0 
    1.2686    0.7268   -0.0020 C   0  0  0  0  0  0  0  0  0  0  0  0 
   -1.2680    0.7267   -0.0019 C   0  0  0  0  0  0  0  0  0  0  0  0 
    1.2767   -0.6841   -0.0022 C   0  0  0  0  0  0  0  0  0  0  0  0 
   -1.2760   -0.6842   -0.0021 C   0  0  0  0  0  0  0  0  0  0  0  0 
    0.0003    1.5003   -0.0048 C   0  0  0  0  0  0  0  0  0  0  0  0 
    0.0004   -1.4616   -0.0055 C   0  0  0  0  0  0  0  0  0  0  0  0 
    4.8379   -1.4178    0.0091 O   0  0  0  0  0  0  0  0  0  0  0  0 
   -4.8370   -1.4183    0.0031 O   0  0  0  0  0  0  0  0  0  0  0  0 
    0.0002    2.7298   -0.0088 O   0  0  0  0  0  0  0  0  0  0  0  0 
    0.0005   -2.6866   -0.0105 O   0  0  0  0  0  0  0  0  0  0  0  0 
    4.6365    1.2604    0.0070 H   0  0  0  0  0  0  0  0  0  0  0  0 
   -4.6359    1.2599    0.0036 H   0  0  0  0  0  0  0  0  0  0  0  0 
    2.4687    2.4972    0.0016 H   0  0  0  0  0  0  0  0  0  0  0  0 
   -2.4683    2.4970   -0.0011 H   0  0  0  0  0  0  0  0  0  0  0  0 
    2.4745   -2.4687    0.0006 H   0  0  0  0  0  0  0  0  0  0  0  0 
   -2.4736   -2.4689   -0.0013 H   0  0  0  0  0  0  0  0  0  0  0  0 
    5.6021   -0.8198    0.0055 H   0  0  0  0  0  0  0  0  0  0  0  0 
   -5.6013   -0.8204    0.0064 H   0  0  0  0  0  0  0  0  0  0  0  0 
  1  7  1  0  0  0  0 
  1 19  1  0  0  0  0 
  2 20  1  0  0  0  0 
  3 21  1  0  0  0  0 
  3  1  2  0  0  0  0 
  4  2  2  0  0  0  0 
  5  7  2  0  0  0  0 
  6  8  2  0  0  0  0 
  7 15  1  0  0  0  0 
  8  2  1  0  0  0  0 
  8 16  1  0  0  0  0 
  9  3  1  0  0  0  0 
 10  4  1  0  0  0  0 
 11  9  2  0  0  0  0 
 11  5  1  0  0  0  0 
 12 10  2  0  0  0  0 
 12  6  1  0  0  0  0 
 13  9  1  0  0  0  0 
 13 10  1  0  0  0  0 
 14 11  1  0  0  0  0 
 14 12  1  0  0  0  0 
 16 26  1  0  0  0  0 
 17 13  2  0  0  0  0 
 18 14  2  0  0  0  0 
 22  4  1  0  0  0  0 
 23  5  1  0  0  0  0 
 24  6  1  0  0  0  0 
 25 15  1  0  0  0  0 
M  END 
>  <HBA> 
4 
 
>  <HBD> 
2 
 
>  <TPSA> 
74.6 
 
>  <cid> 
68445 
 
>  <dipole> 
1.85 
 
>  <excitation_energy_1> 
3.021 
 
>  <excitation_energy_2> 
3.136 
 
>  <excitation_energy_3> 
3.27 
 
>  <excitation_energy_4> 
3.582 
 
>  <homo_energy> 
-6.444 
 
>  <homo_lumo_gap> 
3.842 
 
>  <logP> 
1.873 
 
>  <lumo_energy> 
-2.601 
 
>  <melting_point> 
204.83 
 
>  <molecular_refractivity> 
63.8 
 
>  <oscillator_strength_1> 
0.0 
 
>  <oscillator_strength_2> 
0.0339 
 
>  <oscillator_strength_3> 
0.0 
 
>  <oscillator_strength_4> 
0.0468 
 
>  <open_babel_can_smiles> 
O=C1c2cc(O)ccc2C(=O)c2c1cc(O)cc2 
 
>  <mulliken_charges> 
26 
1   -0.187151 
2   -0.18714 
3   -0.179864 
4   -0.179893 
5   -0.217788 
6   -0.21781 
7   0.367224 
8   0.367235 
9   0.046542 
10   0.046534 
11   0.048041 
12   0.048057 
13   0.343157 
14   0.344294 
15   -0.6308 
16   -0.6308 
17   -0.496048 
18   -0.471941 
19   0.133257 
20   0.133256 
21   0.170359 
22   0.170358 
23   0.177026 
24   0.177024 
25   0.413435 
26   0.413435 
 
>  <lowdin_charges> 
26 
1   -0.19719 
2   -0.19719 
3   -0.113623 
4   -0.113624 
5   -0.154357 
6   -0.154358 
7   0.114668 
8   0.114668 
9   -0.056057 
10   -0.056058 
11   -0.02621 
12   -0.026209 
13   0.146923 
14   0.154318 
15   -0.360731 
16   -0.360729 
17   -0.258257 
18   -0.233079 
19   0.160232 
20   0.160231 
21   0.179052 
22   0.179052 
23   0.186574 
24   0.186574 
25   0.362689 
26   0.362689 
 
$$$$ 
 
