PCCDB-ID:  16258 
public computational chemistry database (PCCDB) project, http://pccdb.org 
 
 17 18  0  0  0  0  0  0  0  0999 V2000 
   -2.4542    0.6417   -0.0298 C   0  0  0  0  0  0  0  0  0  0  0  0 
   -2.3869   -0.7613   -0.0365 C   0  0  0  0  0  0  0  0  0  0  0  0 
   -1.2846    1.3860   -0.0073 C   0  0  0  0  0  0  0  0  0  0  0  0 
   -1.1632   -1.4161   -0.0201 C   0  0  0  0  0  0  0  0  0  0  0  0 
   -0.0317    0.7458    0.0102 C   0  0  0  0  0  0  0  0  0  0  0  0 
    0.0134   -0.6588    0.0025 C   0  0  0  0  0  0  0  0  0  0  0  0 
    1.2734    1.3959    0.0374 C   0  0  0  0  0  0  0  0  0  0  0  0 
    2.4308   -0.6163    0.0369 C   0  0  0  0  0  0  0  0  0  0  0  0 
    2.3988    0.7609    0.0491 N   0  0  0  0  0  0  0  0  0  0  0  0 
    1.3654    2.7361    0.0522 O   0  0  0  0  0  0  0  0  0  0  0  0 
    3.4215   -1.2932    0.0437 O   0  0  0  0  0  0  0  0  0  0  0  0 
    1.1931   -1.3178    0.0156 O   0  0  0  0  0  0  0  0  0  0  0  0 
   -3.4171    1.1418   -0.0435 H   0  0  0  0  0  0  0  0  0  0  0  0 
   -3.3036   -1.3436   -0.0546 H   0  0  0  0  0  0  0  0  0  0  0  0 
   -1.3577    2.4719   -0.0045 H   0  0  0  0  0  0  0  0  0  0  0  0 
   -1.0888   -2.4981   -0.0250 H   0  0  0  0  0  0  0  0  0  0  0  0 
    0.4827    3.1375    0.0475 H   0  0  0  0  0  0  0  0  0  0  0  0 
  1  3  1  0  0  0  0 
  2  1  2  0  0  0  0 
  2  4  1  0  0  0  0 
  3 15  1  0  0  0  0 
  3  5  2  0  0  0  0 
  4  6  2  0  0  0  0 
  5  7  1  0  0  0  0 
  6  5  1  0  0  0  0 
  6 12  1  0  0  0  0 
  7  9  2  0  0  0  0 
  7 10  1  0  0  0  0 
  8 11  2  0  0  0  0 
  8  9  2  0  0  0  0 
 12  8  1  0  0  0  0 
 13  1  1  0  0  0  0 
 14  2  1  0  0  0  0 
 16  4  1  0  0  0  0 
 17 10  1  0  0  0  0 
M  END 
>  <HBA> 
3 
 
>  <HBD> 
1 
 
>  <TPSA> 
63.07 
 
>  <cid> 
16258 
 
>  <dipole> 
8.0 
 
>  <excitation_energy_1> 
4.223 
 
>  <excitation_energy_2> 
4.494 
 
>  <excitation_energy_3> 
4.599 
 
>  <excitation_energy_4> 
4.988 
 
>  <homo_energy> 
-6.988 
 
>  <homo_lumo_gap> 
4.849 
 
>  <logP> 
0.481 
 
>  <lumo_energy> 
-2.139 
 
>  <melting_point> 
165.04 
 
>  <molecular_refractivity> 
43.1 
 
>  <oscillator_strength_1> 
0.0814 
 
>  <oscillator_strength_2> 
0.0007 
 
>  <oscillator_strength_3> 
0.0001 
 
>  <oscillator_strength_4> 
0.0918 
 
>  <open_babel_can_smiles> 
O=[C]1=[N]=C(c2c(O1)cccc2)O 
 
>  <mulliken_charges> 
17 
1   -0.130551 
2   -0.125678 
3   -0.211701 
4   -0.170795 
5   0.100643 
6   0.335143 
7   0.478248 
8   0.688364 
9   -0.485253 
10   -0.565394 
11   -0.438194 
12   -0.507592 
13   0.148933 
14   0.155163 
15   0.132785 
16   0.168358 
17   0.427521 
 
>  <lowdin_charges> 
17 
1   -0.16264 
2   -0.122715 
3   -0.144817 
4   -0.165884 
5   -0.088349 
6   0.125178 
7   0.171553 
8   0.216232 
9   -0.184733 
10   -0.316214 
11   -0.2167 
12   -0.14786 
13   0.168629 
14   0.17163 
15   0.154147 
16   0.179977 
17   0.362564 
 
$$$$ 
 
