PCCDB-ID:  24143 
public computational chemistry database (PCCDB) project, http://pccdb.org 
 
 22 22  0  0  0  0  0  0  0  0999 V2000 
    2.2822   -1.0905    0.1809 C   0  0  0  0  0  0  0  0  0  0  0  0 
    7.4451    2.0073    0.8818 C   0  0  0  0  0  0  0  0  0  0  0  0 
    2.0192    0.2190    0.0870 C   0  0  0  0  0  0  0  0  0  0  0  0 
    6.3540    2.0342    1.9671 C   0  0  0  0  0  0  0  0  0  0  0  0 
    3.2090    3.7490    0.6426 C   0  0  0  0  0  0  0  0  0  0  0  0 
    2.4230    2.6551    0.2842 C   0  0  0  0  0  0  0  0  0  0  0  0 
    4.4720    3.5512    1.1974 C   0  0  0  0  0  0  0  0  0  0  0  0 
    4.1640    1.1692    1.0383 C   0  0  0  0  0  0  0  0  0  0  0  0 
    2.8868    1.3434    0.4761 C   0  0  0  0  0  0  0  0  0  0  0  0 
    4.9657    2.2532    1.4008 C   0  0  0  0  0  0  0  0  0  0  0  0 
    1.5556   -1.8291   -0.1438 H   0  0  0  0  0  0  0  0  0  0  0  0 
    3.2164   -1.4792    0.5773 H   0  0  0  0  0  0  0  0  0  0  0  0 
    8.4346    1.8462    1.3251 H   0  0  0  0  0  0  0  0  0  0  0  0 
    7.4712    2.9520    0.3269 H   0  0  0  0  0  0  0  0  0  0  0  0 
    7.2603    1.2040    0.1598 H   0  0  0  0  0  0  0  0  0  0  0  0 
    1.0547    0.5175   -0.3244 H   0  0  0  0  0  0  0  0  0  0  0  0 
    6.5842    2.8280    2.6891 H   0  0  0  0  0  0  0  0  0  0  0  0 
    6.3772    1.0898    2.5253 H   0  0  0  0  0  0  0  0  0  0  0  0 
    2.8334    4.7579    0.4926 H   0  0  0  0  0  0  0  0  0  0  0  0 
    1.4366    2.8133   -0.1458 H   0  0  0  0  0  0  0  0  0  0  0  0 
    5.0804    4.4070    1.4819 H   0  0  0  0  0  0  0  0  0  0  0  0 
    4.5427    0.1633    1.2030 H   0  0  0  0  0  0  0  0  0  0  0  0 
  1 12  1  0  0  0  0 
  2 13  1  0  0  0  0 
  2  4  1  0  0  0  0 
  3  1  2  0  0  0  0 
  3  9  1  0  0  0  0 
  4 18  1  0  0  0  0 
  4 17  1  0  0  0  0 
  5  7  2  0  0  0  0 
  6  9  2  0  0  0  0 
  6  5  1  0  0  0  0 
  7 10  1  0  0  0  0 
  7 21  1  0  0  0  0 
  8 22  1  0  0  0  0 
  8 10  2  0  0  0  0 
  9  8  1  0  0  0  0 
 10  4  1  0  0  0  0 
 11  1  1  0  0  0  0 
 14  2  1  0  0  0  0 
 15  2  1  0  0  0  0 
 16  3  1  0  0  0  0 
 19  5  1  0  0  0  0 
 20  6  1  0  0  0  0 
M  END 
>  <HBA> 
0 
 
>  <HBD> 
0 
 
>  <TPSA> 
0.0 
 
>  <cid> 
24143 
 
>  <dipole> 
0.42 
 
>  <excitation_energy_1> 
4.659 
 
>  <excitation_energy_2> 
4.855 
 
>  <excitation_energy_3> 
5.535 
 
>  <excitation_energy_4> 
5.692 
 
>  <homo_energy> 
-5.957 
 
>  <homo_lumo_gap> 
5.173 
 
>  <logP> 
2.892 
 
>  <lumo_energy> 
-0.784 
 
>  <melting_point> 
0.62 
 
>  <molecular_refractivity> 
46.31 
 
>  <oscillator_strength_1> 
0.0948 
 
>  <oscillator_strength_2> 
0.2793 
 
>  <oscillator_strength_3> 
0.0795 
 
>  <oscillator_strength_4> 
0.1135 
 
>  <open_babel_can_smiles> 
CCc1cccc(c1)C=C 
 
>  <mulliken_charges> 
22 
1   -0.350152 
2   -0.433564 
3   -0.118325 
4   -0.339946 
5   -0.125679 
6   -0.200912 
7   -0.183016 
8   -0.244775 
9   0.179765 
10   0.180493 
11   0.143209 
12   0.141404 
13   0.143534 
14   0.149263 
15   0.15036 
16   0.12615 
17   0.14279 
18   0.143075 
19   0.128462 
20   0.126284 
21   0.122066 
22   0.119516 
 
>  <lowdin_charges> 
22 
1   -0.335162 
2   -0.440428 
3   -0.145144 
4   -0.271811 
5   -0.153987 
6   -0.163605 
7   -0.168567 
8   -0.164497 
9   -0.002599 
10   0.003194 
11   0.163682 
12   0.156216 
13   0.14883 
14   0.150524 
15   0.151752 
16   0.153573 
17   0.149523 
18   0.148699 
19   0.156733 
20   0.154702 
21   0.155306 
22   0.153066 
 
$$$$ 
 
