PCCDB-ID:  36618 
public computational chemistry database (PCCDB) project, http://pccdb.org 
 
  9  8  0  0  0  0  0  0  0  0999 V2000 
    0.9051   -0.1103   -0.1390 C   0  0  0  0  0  0  0  0  0  0  0  0 
    3.0667   -0.7269    0.8595 C   0  0  0  0  0  0  0  0  0  0  0  0 
    3.6803   -1.2261    1.7153 N   0  0  0  0  0  0  0  0  0  0  0  0 
    3.0206    0.4569   -1.2279 N   0  0  0  0  0  0  0  0  0  0  0  0 
    2.3667   -0.1477   -0.1338 N   0  0  0  0  0  0  0  0  0  0  0  0 
    4.2186    0.4024   -1.1794 O   0  0  0  0  0  0  0  0  0  0  0  0 
    0.4956   -1.1240   -0.1490 H   0  0  0  0  0  0  0  0  0  0  0  0 
    0.6149    0.4149   -1.0509 H   0  0  0  0  0  0  0  0  0  0  0  0 
    0.5324    0.4311    0.7348 H   0  0  0  0  0  0  0  0  0  0  0  0 
  1  5  1  0  0  0  0 
  1  9  1  0  0  0  0 
  2  3  3  0  0  0  0 
  4  6  1  0  0  0  0 
  4  5  1  0  0  0  0 
  5  2  1  0  0  0  0 
  7  1  1  0  0  0  0 
  8  1  1  0  0  0  0 
M  RAD  2   4   2   6   2 
M  END 
>  <HBA> 
4 
 
>  <HBD> 
0 
 
>  <TPSA> 
56.46 
 
>  <cid> 
36618 
 
>  <dipole> 
4.37 
 
>  <excitation_energy_1> 
3.192 
 
>  <excitation_energy_2> 
4.917 
 
>  <excitation_energy_3> 
5.885 
 
>  <excitation_energy_4> 
6.125 
 
>  <homo_energy> 
-7.6 
 
>  <homo_lumo_gap> 
5.056 
 
>  <logP> 
0.081 
 
>  <lumo_energy> 
-2.544 
 
>  <melting_point> 
31.68 
 
>  <molecular_refractivity> 
19.11 
 
>  <oscillator_strength_1> 
0.0014 
 
>  <oscillator_strength_2> 
0.1035 
 
>  <oscillator_strength_3> 
0.0 
 
>  <oscillator_strength_4> 
0.0001 
 
>  <open_babel_can_smiles> 
CN(C#N)[N][O] 
 
>  <mulliken_charges> 
9 
1   -0.322701 
2   0.568181 
3   -0.401574 
4   0.196174 
5   -0.361424 
6   -0.272813 
7   0.195394 
8   0.203371 
9   0.195393 
 
>  <lowdin_charges> 
9 
1   -0.340083 
2   0.00922 
3   -0.099382 
4   0.093381 
5   -0.036623 
6   -0.158313 
7   0.173232 
8   0.183997 
9   0.17457 
 
$$$$ 
 
