PCCDB-ID:  15260 
public computational chemistry database (PCCDB) project, http://pccdb.org 
 
 34 33  0  0  1  0  0  0  0  0999 V2000 
    1.7764    0.2848   -1.7440 C   0  0  0  0  0  0  0  0  0  0  0  0 
    4.4579   -5.0217   -0.8422 C   0  0  0  0  0  0  0  0  0  0  0  0 
    1.3328   -1.1118   -1.2924 C   0  0  0  0  0  0  0  0  0  0  0  0 
    3.5718   -4.4703   -1.9667 C   0  0  0  0  0  0  0  0  0  0  0  0 
    1.2953   -2.1625   -2.4177 C   0  0  0  0  0  0  0  0  0  0  0  0 
    2.6278   -2.4049   -3.1498 C   0  0  0  0  0  0  0  0  0  0  0  0 
    6.7765    0.4822   -3.5661 C   0  0  0  0  0  0  0  0  0  0  0  0 
    6.5770   -1.0154   -3.7400 C   0  0  0  0  0  0  0  0  0  0  0  0 
    5.1203   -2.7447   -2.9891 C   0  0  0  0  0  0  0  0  0  0  0  0 
    3.7775   -2.9750   -2.2897 C   0  0  2  0  0  0  0  0  0  0  0  0 
    6.8727    0.8306   -2.1959 O   0  0  0  0  0  0  0  0  0  0  0  0 
    5.3717   -1.3472   -3.0661 O   0  0  0  0  0  0  0  0  0  0  0  0 
    1.7029    1.0052   -0.9212 H   0  0  0  0  0  0  0  0  0  0  0  0 
    1.1480    0.6533   -2.5650 H   0  0  0  0  0  0  0  0  0  0  0  0 
    2.8146    0.2880   -2.0942 H   0  0  0  0  0  0  0  0  0  0  0  0 
    4.2319   -6.0766   -0.6495 H   0  0  0  0  0  0  0  0  0  0  0  0 
    4.2951   -4.4713    0.0925 H   0  0  0  0  0  0  0  0  0  0  0  0 
    5.5252   -4.9558   -1.0816 H   0  0  0  0  0  0  0  0  0  0  0  0 
    0.3282   -1.0462   -0.8529 H   0  0  0  0  0  0  0  0  0  0  0  0 
    1.9892   -1.4550   -0.4810 H   0  0  0  0  0  0  0  0  0  0  0  0 
    2.5222   -4.6272   -1.6890 H   0  0  0  0  0  0  0  0  0  0  0  0 
    3.7270   -5.0590   -2.8835 H   0  0  0  0  0  0  0  0  0  0  0  0 
    0.5529   -1.8467   -3.1646 H   0  0  0  0  0  0  0  0  0  0  0  0 
    0.9170   -3.1073   -2.0037 H   0  0  0  0  0  0  0  0  0  0  0  0 
    2.9656   -1.4655   -3.5998 H   0  0  0  0  0  0  0  0  0  0  0  0 
    2.4475   -3.0969   -3.9862 H   0  0  0  0  0  0  0  0  0  0  0  0 
    5.9479    1.0157   -4.0602 H   0  0  0  0  0  0  0  0  0  0  0  0 
    7.7113    0.7930   -4.0445 H   0  0  0  0  0  0  0  0  0  0  0  0 
    7.4242   -1.5597   -3.2925 H   0  0  0  0  0  0  0  0  0  0  0  0 
    6.5173   -1.2871   -4.8073 H   0  0  0  0  0  0  0  0  0  0  0  0 
    5.0950   -3.1773   -4.0047 H   0  0  0  0  0  0  0  0  0  0  0  0 
    5.9431   -3.2335   -2.4447 H   0  0  0  0  0  0  0  0  0  0  0  0 
    3.8233   -2.4207   -1.3413 H   0  0  0  0  0  0  0  0  0  0  0  0 
    6.1109    0.4037   -1.7696 H   0  0  0  0  0  0  0  0  0  0  0  0 
  1  3  1  0  0  0  0 
  1 13  1  0  0  0  0 
  2 16  1  0  0  0  0 
  2 17  1  0  0  0  0 
  3 19  1  0  0  0  0 
  3 20  1  0  0  0  0 
  4 21  1  0  0  0  0 
  4  2  1  0  0  0  0 
  5 24  1  0  0  0  0 
  5  3  1  0  0  0  0 
  6  5  1  0  0  0  0 
  6 10  1  0  0  0  0 
  7 11  1  0  0  0  0 
  8  7  1  0  0  0  0 
  8 29  1  0  0  0  0 
  8 12  1  0  0  0  0 
  9 32  1  0  0  0  0 
  9 10  1  0  0  0  0 
 10  4  1  0  0  0  0 
 10 33  1  1  0  0  0 
 11 34  1  0  0  0  0 
 12  9  1  0  0  0  0 
 14  1  1  0  0  0  0 
 15  1  1  0  0  0  0 
 18  2  1  0  0  0  0 
 22  4  1  0  0  0  0 
 23  5  1  0  0  0  0 
 25  6  1  0  0  0  0 
 26  6  1  0  0  0  0 
 27  7  1  0  0  0  0 
 28  7  1  0  0  0  0 
 30  8  1  0  0  0  0 
 31  9  1  0  0  0  0 
M  END 
>  <HBA> 
2 
 
>  <HBD> 
1 
 
>  <TPSA> 
29.46 
 
>  <cid> 
15260 
 
>  <dipole> 
2.33 
 
>  <excitation_energy_1> 
6.679 
 
>  <excitation_energy_2> 
6.753 
 
>  <excitation_energy_3> 
6.891 
 
>  <excitation_energy_4> 
6.967 
 
>  <homo_energy> 
-7.064 
 
>  <homo_lumo_gap> 
9.149 
 
>  <logP> 
2.212 
 
>  <lumo_energy> 
2.084 
 
>  <melting_point> 
-19.55 
 
>  <molecular_refractivity> 
52.43 
 
>  <oscillator_strength_1> 
0.0147 
 
>  <oscillator_strength_2> 
0.0057 
 
>  <oscillator_strength_3> 
0.0093 
 
>  <oscillator_strength_4> 
0.0075 
 
>  <open_babel_can_smiles> 
CCCC[C@H](COCCO)CC 
 
>  <mulliken_charges> 
34 
1   -0.449883 
2   -0.450347 
3   -0.248962 
4   -0.267087 
5   -0.260072 
6   -0.273104 
7   -0.035694 
8   -0.03112 
9   -0.013136 
10   -0.089791 
11   -0.62224 
12   -0.497509 
13   0.140985 
14   0.139555 
15   0.155331 
16   0.145359 
17   0.145738 
18   0.145724 
19   0.130491 
20   0.131757 
21   0.142203 
22   0.129375 
23   0.128446 
24   0.128325 
25   0.154539 
26   0.12131 
27   0.129814 
28   0.144289 
29   0.130641 
30   0.121022 
31   0.116668 
32   0.125851 
33   0.131911 
34   0.39961 
 
>  <lowdin_charges> 
34 
1   -0.450372 
2   -0.444299 
3   -0.275954 
4   -0.27425 
5   -0.279459 
6   -0.2839 
7   -0.139835 
8   -0.147388 
9   -0.130037 
10   -0.135887 
11   -0.470425 
12   -0.283648 
13   0.150018 
14   0.146417 
15   0.149688 
16   0.150432 
17   0.148302 
18   0.144293 
19   0.141282 
20   0.138433 
21   0.145349 
22   0.139058 
23   0.142461 
24   0.138328 
25   0.15213 
26   0.139191 
27   0.132848 
28   0.150294 
29   0.134223 
30   0.129609 
31   0.125254 
32   0.132347 
33   0.141583 
34   0.343916 
 
$$$$ 
 
