PCCDB-ID:  8867 
public computational chemistry database (PCCDB) project, http://pccdb.org 
 
 18 17  0  0  1  0  0  0  0  0999 V2000 
    0.1440   -1.5183    0.6564 C   0  0  0  0  0  0  0  0  0  0  0  0 
    3.1019   -1.4282   -1.9261 C   0  0  0  0  0  0  0  0  0  0  0  0 
    1.4801   -1.8695   -0.0037 C   0  0  0  0  0  0  0  0  0  0  0  0 
    1.7463   -1.1127   -1.3038 C   0  0  2  0  0  0  0  0  0  0  0  0 
    0.1930   -0.7778   -3.2033 C   0  0  0  0  0  0  0  0  0  0  0  0 
    0.6895   -1.5312   -2.2294 O   0  0  0  0  0  0  0  0  0  0  0  0 
   -0.9371   -1.3785   -4.2391 S   0  0  0  0  0  0  0  0  0  0  0  0 
    0.8279    0.9091   -3.2865 S   0  0  0  0  0  0  0  0  0  0  0  0 
    0.0074   -2.0903    1.5801 H   0  0  0  0  0  0  0  0  0  0  0  0 
   -0.6939   -1.7465   -0.0094 H   0  0  0  0  0  0  0  0  0  0  0  0 
    0.0940   -0.4531    0.9130 H   0  0  0  0  0  0  0  0  0  0  0  0 
    3.9034   -1.1054   -1.2527 H   0  0  0  0  0  0  0  0  0  0  0  0 
    3.2327   -0.9128   -2.8818 H   0  0  0  0  0  0  0  0  0  0  0  0 
    3.2018   -2.5056   -2.0936 H   0  0  0  0  0  0  0  0  0  0  0  0 
    1.5283   -2.9449   -0.2164 H   0  0  0  0  0  0  0  0  0  0  0  0 
    2.3101   -1.6448    0.6787 H   0  0  0  0  0  0  0  0  0  0  0  0 
    1.6379   -0.0359   -1.1237 H   0  0  0  0  0  0  0  0  0  0  0  0 
    0.0430    1.2378   -4.3279 H   0  0  0  0  0  0  0  0  0  0  0  0 
  1 11  1  0  0  0  0 
  1  9  1  0  0  0  0 
  2  4  1  0  0  0  0 
  2 12  1  0  0  0  0 
  3  1  1  0  0  0  0 
  3 16  1  0  0  0  0 
  4 17  1  1  0  0  0 
  4  3  1  0  0  0  0 
  5  6  1  0  0  0  0 
  6  4  1  0  0  0  0 
  7  5  2  0  0  0  0 
  8  5  1  0  0  0  0 
 10  1  1  0  0  0  0 
 13  2  1  0  0  0  0 
 14  2  1  0  0  0  0 
 15  3  1  0  0  0  0 
 18  8  1  0  0  0  0 
M  END 
>  <HBA> 
3 
 
>  <HBD> 
1 
 
>  <TPSA> 
80.12 
 
>  <cid> 
8867 
 
>  <dipole> 
3.99 
 
>  <excitation_energy_1> 
3.335 
 
>  <excitation_energy_2> 
4.631 
 
>  <excitation_energy_3> 
4.971 
 
>  <excitation_energy_4> 
5.115 
 
>  <homo_energy> 
-6.071 
 
>  <homo_lumo_gap> 
4.759 
 
>  <logP> 
2.016 
 
>  <lumo_energy> 
-1.312 
 
>  <melting_point> 
15.77 
 
>  <molecular_refractivity> 
42.95 
 
>  <oscillator_strength_1> 
0.0001 
 
>  <oscillator_strength_2> 
0.0168 
 
>  <oscillator_strength_3> 
0.1465 
 
>  <oscillator_strength_4> 
0.0009 
 
>  <open_babel_can_smiles> 
C[C@@H](OC(=S)S)CC 
 
>  <mulliken_charges> 
18 
1   -0.456165 
2   -0.456026 
3   -0.261366 
4   0.086919 
5   0.065034 
6   -0.382951 
7   -0.177454 
8   -0.005049 
9   0.15258 
10   0.176025 
11   0.145573 
12   0.15717 
13   0.176304 
14   0.169061 
15   0.157999 
16   0.144955 
17   0.166786 
18   0.140605 
 
>  <lowdin_charges> 
18 
1   -0.447116 
2   -0.451546 
3   -0.276369 
4   0.009567 
5   -0.103852 
6   -0.14863 
7   -0.143186 
8   -0.015686 
9   0.156668 
10   0.164097 
11   0.147732 
12   0.163362 
13   0.167586 
14   0.162552 
15   0.15434 
16   0.153448 
17   0.152683 
18   0.154349 
 
$$$$ 
 
