PCCDB-ID:  66991 
public computational chemistry database (PCCDB) project, http://pccdb.org 
 
 21 21  0  0  0  0  0  0  0  0999 V2000 
    3.2596   -0.9330    0.5796 C   0  0  0  0  0  0  0  0  0  0  0  0 
    3.7415    4.3180   -4.4827 C   0  0  0  0  0  0  0  0  0  0  0  0 
    2.3580    4.2223   -4.6463 C   0  0  0  0  0  0  0  0  0  0  0  0 
    4.3671    3.4828   -3.5640 C   0  0  0  0  0  0  0  0  0  0  0  0 
    4.2507    1.6448   -1.8250 C   0  0  0  0  0  0  0  0  0  0  0  0 
    1.6728    3.2891   -3.8730 C   0  0  0  0  0  0  0  0  0  0  0  0 
    3.2814    0.7443   -1.0697 C   0  0  0  0  0  0  0  0  0  0  0  0 
    3.5939    2.5696   -2.8290 C   0  0  0  0  0  0  0  0  0  0  0  0 
    2.2644    2.4788   -2.9844 N   0  0  0  0  0  0  0  0  0  0  0  0 
    4.0518   -0.0511   -0.1831 O   0  0  0  0  0  0  0  0  0  0  0  0 
    3.9356   -1.5025    1.2235 H   0  0  0  0  0  0  0  0  0  0  0  0 
    2.6980   -1.6355   -0.0581 H   0  0  0  0  0  0  0  0  0  0  0  0 
    2.5361   -0.3920    1.2119 H   0  0  0  0  0  0  0  0  0  0  0  0 
    4.3210    5.0320   -5.0622 H   0  0  0  0  0  0  0  0  0  0  0  0 
    1.8253    4.8535   -5.3512 H   0  0  0  0  0  0  0  0  0  0  0  0 
    5.4420    3.5302   -3.4100 H   0  0  0  0  0  0  0  0  0  0  0  0 
    4.9902    1.0123   -2.3351 H   0  0  0  0  0  0  0  0  0  0  0  0 
    4.8213    2.2364   -1.0965 H   0  0  0  0  0  0  0  0  0  0  0  0 
    0.5930    3.1814   -3.9665 H   0  0  0  0  0  0  0  0  0  0  0  0 
    2.7138    0.1119   -1.7693 H   0  0  0  0  0  0  0  0  0  0  0  0 
    2.5449    1.3462   -0.5149 H   0  0  0  0  0  0  0  0  0  0  0  0 
  1 13  1  0  0  0  0 
  1 11  1  0  0  0  0 
  2  4  1  0  0  0  0 
  3  2  2  0  0  0  0 
  3  6  1  0  0  0  0 
  4 16  1  0  0  0  0 
  4  8  2  0  0  0  0 
  5 18  1  0  0  0  0 
  5  7  1  0  0  0  0 
  6  9  2  0  0  0  0 
  7 21  1  0  0  0  0 
  7 10  1  0  0  0  0 
  8  5  1  0  0  0  0 
  9  8  1  0  0  0  0 
 10  1  1  0  0  0  0 
 12  1  1  0  0  0  0 
 14  2  1  0  0  0  0 
 15  3  1  0  0  0  0 
 17  5  1  0  0  0  0 
 19  6  1  0  0  0  0 
 20  7  1  0  0  0  0 
M  END 
>  <HBA> 
2 
 
>  <HBD> 
0 
 
>  <TPSA> 
22.12 
 
>  <cid> 
66991 
 
>  <dipole> 
1.58 
 
>  <excitation_energy_1> 
4.918 
 
>  <excitation_energy_2> 
5.129 
 
>  <excitation_energy_3> 
5.391 
 
>  <excitation_energy_4> 
5.509 
 
>  <homo_energy> 
-6.672 
 
>  <homo_lumo_gap> 
6.147 
 
>  <logP> 
1.27 
 
>  <lumo_energy> 
-0.525 
 
>  <melting_point> 
12.38 
 
>  <molecular_refractivity> 
39.9 
 
>  <oscillator_strength_1> 
0.0025 
 
>  <oscillator_strength_2> 
0.0002 
 
>  <oscillator_strength_3> 
0.0404 
 
>  <oscillator_strength_4> 
0.007 
 
>  <open_babel_can_smiles> 
COCCc1ccccn1 
 
>  <mulliken_charges> 
21 
1   -0.187605 
2   -0.104117 
3   -0.143216 
4   -0.163362 
5   -0.357575 
6   0.038787 
7   -0.00034 
8   0.308387 
9   -0.476077 
10   -0.471329 
11   0.153691 
12   0.127974 
13   0.127883 
14   0.1423 
15   0.13651 
16   0.134305 
17   0.165421 
18   0.163988 
19   0.139491 
20   0.133675 
21   0.131209 
 
>  <lowdin_charges> 
21 
1   -0.283815 
2   -0.128212 
3   -0.182745 
4   -0.178789 
5   -0.289568 
6   -0.085685 
7   -0.130629 
8   0.056385 
9   -0.161853 
10   -0.274863 
11   0.154181 
12   0.131926 
13   0.131697 
14   0.164165 
15   0.164981 
16   0.160631 
17   0.164016 
18   0.163373 
19   0.153473 
20   0.136364 
21   0.134966 
 
$$$$ 
 
