PCCDB-ID:  13713 
public computational chemistry database (PCCDB) project, http://pccdb.org 
 
 27 29  0  0  0  0  0  0  0  0999 V2000 
   -3.7035   -0.6244    0.0141 C   0  0  0  0  0  0  0  0  0  0  0  0 
   -3.6388    0.7752   -0.0156 C   0  0  0  0  0  0  0  0  0  0  0  0 
   -2.5273   -1.3610    0.0225 C   0  0  0  0  0  0  0  0  0  0  0  0 
   -2.4094    1.4143   -0.0363 C   0  0  0  0  0  0  0  0  0  0  0  0 
    3.6820   -0.6418   -0.0525 C   0  0  0  0  0  0  0  0  0  0  0  0 
    2.5064   -1.3668   -0.0244 C   0  0  0  0  0  0  0  0  0  0  0  0 
    2.4044    1.4137   -0.0740 C   0  0  0  0  0  0  0  0  0  0  0  0 
    3.6443    0.7712   -0.0776 C   0  0  0  0  0  0  0  0  0  0  0  0 
   -1.2621   -0.7502    0.0021 C   0  0  0  0  0  0  0  0  0  0  0  0 
    1.2458   -0.7432   -0.0224 C   0  0  0  0  0  0  0  0  0  0  0  0 
   -1.2184    0.6642   -0.0281 C   0  0  0  0  0  0  0  0  0  0  0  0 
    1.2179    0.6659   -0.0502 C   0  0  0  0  0  0  0  0  0  0  0  0 
    0.0027   -1.5377    0.0108 C   0  0  0  0  0  0  0  0  0  0  0  0 
    4.8273    1.5021   -0.1607 N   0  0  0  0  0  0  0  0  0  0  0  0 
    0.0990   -2.8250    0.0440 N   0  0  0  0  0  0  0  0  0  0  0  0 
   -0.0027    1.3190   -0.0490 N   0  0  0  0  0  0  0  0  0  0  0  0 
   -4.6645   -1.1296    0.0302 H   0  0  0  0  0  0  0  0  0  0  0  0 
   -4.5508    1.3658   -0.0228 H   0  0  0  0  0  0  0  0  0  0  0  0 
   -2.5892   -2.4455    0.0445 H   0  0  0  0  0  0  0  0  0  0  0  0 
   -2.3534    2.5006   -0.0597 H   0  0  0  0  0  0  0  0  0  0  0  0 
    4.6423   -1.1516   -0.0604 H   0  0  0  0  0  0  0  0  0  0  0  0 
    2.5224   -2.4511   -0.0024 H   0  0  0  0  0  0  0  0  0  0  0  0 
    2.3551    2.5010   -0.0972 H   0  0  0  0  0  0  0  0  0  0  0  0 
    5.6515    1.0268    0.1845 H   0  0  0  0  0  0  0  0  0  0  0  0 
    4.7765    2.4574    0.1697 H   0  0  0  0  0  0  0  0  0  0  0  0 
   -0.8213   -3.2698    0.0649 H   0  0  0  0  0  0  0  0  0  0  0  0 
   -0.0067    2.3284   -0.0798 H   0  0  0  0  0  0  0  0  0  0  0  0 
  1  3  2  0  0  0  0 
  1 17  1  0  0  0  0 
  2  1  1  0  0  0  0 
  3 19  1  0  0  0  0 
  4 11  1  0  0  0  0 
  4  2  2  0  0  0  0 
  5  6  2  0  0  0  0 
  6 10  1  0  0  0  0 
  6 22  1  0  0  0  0 
  7 12  1  0  0  0  0 
  8  7  2  0  0  0  0 
  8  5  1  0  0  0  0 
  9 13  1  0  0  0  0 
  9  3  1  0  0  0  0 
 10 13  1  0  0  0  0 
 11  9  2  0  0  0  0 
 12 16  1  0  0  0  0 
 12 10  2  0  0  0  0 
 13 15  2  0  0  0  0 
 14  8  1  0  0  0  0 
 14 25  1  0  0  0  0 
 14 24  1  0  0  0  0 
 15 26  1  0  0  0  0 
 16 11  1  0  0  0  0 
 18  2  1  0  0  0  0 
 20  4  1  0  0  0  0 
 21  5  1  0  0  0  0 
 23  7  1  0  0  0  0 
 27 16  1  0  0  0  0 
M  END 
>  <HBA> 
3 
 
>  <HBD> 
2 
 
>  <TPSA> 
64.93 
 
>  <cid> 
13713 
 
>  <dipole> 
4.59 
 
>  <excitation_energy_1> 
3.508 
 
>  <excitation_energy_2> 
3.971 
 
>  <excitation_energy_3> 
4.206 
 
>  <excitation_energy_4> 
4.373 
 
>  <homo_energy> 
-5.048 
 
>  <homo_lumo_gap> 
4.046 
 
>  <logP> 
3.715 
 
>  <lumo_energy> 
-1.001 
 
>  <melting_point> 
208.81 
 
>  <molecular_refractivity> 
68.06 
 
>  <oscillator_strength_1> 
0.0955 
 
>  <oscillator_strength_2> 
0.0331 
 
>  <oscillator_strength_3> 
0.1917 
 
>  <oscillator_strength_4> 
0.0002 
 
>  <open_babel_can_smiles> 
Nc1ccc2c(c1)[nH]c1c(c2=N)cccc1 
 
>  <mulliken_charges> 
27 
1   -0.137122 
2   -0.132109 
3   -0.214856 
4   -0.185695 
5   -0.176049 
6   -0.198002 
7   -0.252051 
8   0.328879 
9   0.109478 
10   0.088843 
11   0.348557 
12   0.344523 
13   0.232532 
14   -0.793919 
15   -0.669824 
16   -0.847148 
17   0.129766 
18   0.132988 
19   0.132916 
20   0.122818 
21   0.117947 
22   0.168815 
23   0.106718 
24   0.324979 
25   0.321058 
26   0.276044 
27   0.319912 
 
>  <lowdin_charges> 
27 
1   -0.177184 
2   -0.140565 
3   -0.13706 
4   -0.191406 
5   -0.212595 
6   -0.11172 
7   -0.244986 
8   0.075722 
9   -0.057969 
10   -0.06976 
11   0.06375 
12   0.069036 
13   0.054012 
14   -0.479868 
15   -0.415046 
16   -0.212789 
17   0.15931 
18   0.160936 
19   0.155392 
20   0.152278 
21   0.154137 
22   0.17932 
23   0.146091 
24   0.279413 
25   0.275316 
26   0.241889 
27   0.284349 
 
$$$$ 
 
