PCCDB-ID:  37126 
public computational chemistry database (PCCDB) project, http://pccdb.org 
 
 21 20  0  0  0  0  0  0  0  0999 V2000 
    0.3713   -0.3810   -0.7667 C   0  0  0  0  0  0  0  0  0  0  0  0 
    2.9137   -0.5866    1.2671 C   0  0  0  0  0  0  0  0  0  0  0  0 
    2.5826    0.3531    0.0702 C   0  0  0  0  0  0  0  0  0  0  0  0 
    4.4094   -0.6694    1.5987 C   0  0  0  0  0  0  0  0  0  0  0  0 
    2.4732   -1.0808   -1.8907 C   0  0  0  0  0  0  0  0  0  0  0  0 
    3.7186   -1.3831   -1.6908 N   0  0  0  0  0  0  0  0  0  0  0  0 
    1.7075   -1.5491   -2.9604 N   0  0  0  0  0  0  0  0  0  0  0  0 
    1.8073   -0.2657   -1.0061 N   0  0  0  0  0  0  0  0  0  0  0  0 
    4.8389   -0.4612    2.7125 O   0  0  0  0  0  0  0  0  0  0  0  0 
    5.2095   -0.9939    0.5764 O   0  0  0  0  0  0  0  0  0  0  0  0 
   -0.1123    0.6013   -0.8366 H   0  0  0  0  0  0  0  0  0  0  0  0 
    0.1767   -0.7862    0.2358 H   0  0  0  0  0  0  0  0  0  0  0  0 
   -0.0838   -1.0567   -1.4904 H   0  0  0  0  0  0  0  0  0  0  0  0 
    2.5675   -1.6007    1.0300 H   0  0  0  0  0  0  0  0  0  0  0  0 
    2.4045   -0.2682    2.1790 H   0  0  0  0  0  0  0  0  0  0  0  0 
    3.5001    0.7474   -0.3716 H   0  0  0  0  0  0  0  0  0  0  0  0 
    1.9997    1.2100    0.4220 H   0  0  0  0  0  0  0  0  0  0  0  0 
    4.1349   -1.8586   -2.4889 H   0  0  0  0  0  0  0  0  0  0  0  0 
    2.2389   -2.0643   -3.6506 H   0  0  0  0  0  0  0  0  0  0  0  0 
    1.0926   -0.8660   -3.3878 H   0  0  0  0  0  0  0  0  0  0  0  0 
    4.6785   -1.1612   -0.2618 H   0  0  0  0  0  0  0  0  0  0  0  0 
  1 12  1  0  0  0  0 
  2  4  1  0  0  0  0 
  2 15  1  0  0  0  0 
  3 17  1  0  0  0  0 
  3  2  1  0  0  0  0 
  4  9  2  0  0  0  0 
  5  6  1  0  0  0  0 
  5  8  1  0  0  0  0 
  7  5  2  0  0  0  0 
  8  1  1  0  0  0  0 
  8  3  1  0  0  0  0 
 10  4  1  0  0  0  0 
 11  1  1  0  0  0  0 
 13  1  1  0  0  0  0 
 14  2  1  0  0  0  0 
 16  3  1  0  0  0  0 
 18  6  1  0  0  0  0 
 19  7  1  0  0  0  0 
 20  7  1  0  0  0  0 
 21 10  1  0  0  0  0 
M  RAD  1   6   2 
M  END 
>  <HBA> 
5 
 
>  <HBD> 
3 
 
>  <TPSA> 
90.41 
 
>  <cid> 
37126 
 
>  <dipole> 
9.1 
 
>  <excitation_energy_1> 
5.228 
 
>  <excitation_energy_2> 
5.537 
 
>  <excitation_energy_3> 
5.794 
 
>  <excitation_energy_4> 
5.921 
 
>  <homo_energy> 
-6.24 
 
>  <homo_lumo_gap> 
6.895 
 
>  <logP> 
0.086 
 
>  <lumo_energy> 
0.656 
 
>  <melting_point> 
139.44 
 
>  <molecular_refractivity> 
37.11 
 
>  <oscillator_strength_1> 
0.0075 
 
>  <oscillator_strength_2> 
0.0017 
 
>  <oscillator_strength_3> 
0.0005 
 
>  <oscillator_strength_4> 
0.0021 
 
>  <open_babel_can_smiles> 
OC(=O)CCN(C(=[NH2])[NH])C 
 
>  <mulliken_charges> 
21 
1   -0.332035 
2   -0.374784 
3   -0.169791 
4   0.567062 
5   0.657453 
6   -0.722649 
7   -0.760645 
8   -0.408848 
9   -0.465222 
10   -0.607327 
11   0.162192 
12   0.169159 
13   0.180191 
14   0.173598 
15   0.170234 
16   0.188746 
17   0.157493 
18   0.287054 
19   0.3315 
20   0.3347 
21   0.461919 
 
>  <lowdin_charges> 
21 
1   -0.356436 
2   -0.332027 
3   -0.199885 
4   0.181429 
5   0.143296 
6   -0.492571 
7   -0.496623 
8   -0.117448 
9   -0.272224 
10   -0.381035 
11   0.151909 
12   0.154051 
13   0.170406 
14   0.168446 
15   0.167799 
16   0.170243 
17   0.156751 
18   0.259743 
19   0.284799 
20   0.286791 
21   0.352587 
 
$$$$ 
 
