PCCDB-ID:  70259 
public computational chemistry database (PCCDB) project, http://pccdb.org 
 
 15 15  0  0  0  0  0  0  0  0999 V2000 
    0.9380   -0.0636    0.0887 C   0  0  0  0  0  0  0  0  0  0  0  0 
    5.7053   -1.6614    0.1102 C   0  0  0  0  0  0  0  0  0  0  0  0 
    3.3179    1.0459    0.0821 C   0  0  0  0  0  0  0  0  0  0  0  0 
    2.4298   -0.0010    0.0905 C   0  0  0  0  0  0  0  0  0  0  0  0 
    4.5477   -0.7157    0.0993 C   0  0  0  0  0  0  0  0  0  0  0  0 
    4.6231    0.5993    0.0879 N   0  0  0  0  0  0  0  0  0  0  0  0 
    3.2373   -1.1285    0.1014 N   0  0  0  0  0  0  0  0  0  0  0  0 
    0.5262    0.9496    0.1062 H   0  0  0  0  0  0  0  0  0  0  0  0 
    0.5425   -0.5953    0.9648 H   0  0  0  0  0  0  0  0  0  0  0  0 
    0.5424   -0.5647   -0.8054 H   0  0  0  0  0  0  0  0  0  0  0  0 
    6.6276   -1.0770    0.1221 H   0  0  0  0  0  0  0  0  0  0  0  0 
    5.7193   -2.3079   -0.7770 H   0  0  0  0  0  0  0  0  0  0  0  0 
    5.6986   -2.3123    0.9942 H   0  0  0  0  0  0  0  0  0  0  0  0 
    3.0858    2.1031    0.0755 H   0  0  0  0  0  0  0  0  0  0  0  0 
    2.9138   -2.0854    0.1126 H   0  0  0  0  0  0  0  0  0  0  0  0 
  1  4  1  0  0  0  0 
  1  8  1  0  0  0  0 
  1  9  1  0  0  0  0 
  2 11  1  0  0  0  0 
  2 13  1  0  0  0  0 
  3  6  1  0  0  0  0 
  3  4  2  0  0  0  0 
  4  7  1  0  0  0  0 
  5  7  1  0  0  0  0 
  5  2  1  0  0  0  0 
  6  5  2  0  0  0  0 
  7 15  1  0  0  0  0 
 10  1  1  0  0  0  0 
 12  2  1  0  0  0  0 
 14  3  1  0  0  0  0 
M  END 
>  <HBA> 
1 
 
>  <HBD> 
1 
 
>  <TPSA> 
28.68 
 
>  <cid> 
70259 
 
>  <dipole> 
3.71 
 
>  <excitation_energy_1> 
4.89 
 
>  <excitation_energy_2> 
5.56 
 
>  <excitation_energy_3> 
5.974 
 
>  <excitation_energy_4> 
6.027 
 
>  <homo_energy> 
-5.581 
 
>  <homo_lumo_gap> 
6.563 
 
>  <logP> 
1.026 
 
>  <lumo_energy> 
0.982 
 
>  <melting_point> 
74.77 
 
>  <molecular_refractivity> 
28.52 
 
>  <oscillator_strength_1> 
0.0002 
 
>  <oscillator_strength_2> 
0.0004 
 
>  <oscillator_strength_3> 
0.0087 
 
>  <oscillator_strength_4> 
0.181 
 
>  <open_babel_can_smiles> 
Cc1ncc([nH]1)C 
 
>  <mulliken_charges> 
15 
1   -0.534492 
2   -0.531601 
3   -0.083234 
4   0.332903 
5   0.482221 
6   -0.468961 
7   -0.639987 
8   0.173262 
9   0.15816 
10   0.159227 
11   0.191328 
12   0.158724 
13   0.157933 
14   0.123066 
15   0.32145 
 
>  <lowdin_charges> 
15 
1   -0.442878 
2   -0.449121 
3   -0.173856 
4   -0.010444 
5   0.049172 
6   -0.202939 
7   -0.198081 
8   0.170368 
9   0.157765 
10   0.15796 
11   0.181794 
12   0.15949 
13   0.159188 
14   0.155212 
15   0.286369 
 
$$$$ 
 
