PCCDB-ID:  67443 
public computational chemistry database (PCCDB) project, http://pccdb.org 
 
 13 15  0  0  1  0  0  0  0  0999 V2000 
   -1.3077    0.6707    0.0237 C   0  0  0  0  0  0  0  0  0  0  0  0 
    0.0714    1.3182   -0.1034 C   0  0  2  0  0  0  0  0  0  0  0  0 
   -1.0596   -0.8315   -0.1138 C   0  0  1  0  0  0  0  0  0  0  0  0 
    1.0891    0.2708   -0.3253 C   0  0  2  0  0  0  0  0  0  0  0  0 
    0.3808   -1.0754   -0.3317 C   0  0  1  0  0  0  0  0  0  0  0  0 
    1.0060    0.9659    0.9239 O   0  0  0  0  0  0  0  0  0  0  0  0 
   -0.2441   -1.4098    0.9125 O   0  0  0  0  0  0  0  0  0  0  0  0 
   -1.9559    1.0157   -0.7919 H   0  0  0  0  0  0  0  0  0  0  0  0 
   -1.7939    0.9219    0.9728 H   0  0  0  0  0  0  0  0  0  0  0  0 
    0.1653    2.3349   -0.4839 H   0  0  0  0  0  0  0  0  0  0  0  0 
   -1.8428   -1.4819   -0.5024 H   0  0  0  0  0  0  0  0  0  0  0  0 
    2.0010    0.4168   -0.9002 H   0  0  0  0  0  0  0  0  0  0  0  0 
    0.7795   -1.9055   -0.9109 H   0  0  0  0  0  0  0  0  0  0  0  0 
  1  9  1  0  0  0  0 
  2 10  1  6  0  0  0 
  2  1  1  0  0  0  0 
  2  6  1  0  0  0  0 
  3 11  1  6  0  0  0 
  3  1  1  0  0  0  0 
  3  7  1  0  0  0  0 
  4 12  1  6  0  0  0 
  4  2  1  0  0  0  0 
  4  6  1  0  0  0  0 
  5 13  1  6  0  0  0 
  5  4  1  0  0  0  0 
  5  3  1  0  0  0  0 
  5  7  1  0  0  0  0 
  8  1  1  0  0  0  0 
M  END 
>  <HBA> 
2 
 
>  <HBD> 
0 
 
>  <TPSA> 
25.06 
 
>  <cid> 
67443 
 
>  <dipole> 
3.5 
 
>  <excitation_energy_1> 
6.711 
 
>  <excitation_energy_2> 
6.744 
 
>  <excitation_energy_3> 
6.867 
 
>  <excitation_energy_4> 
6.9 
 
>  <homo_energy> 
-7.138 
 
>  <homo_lumo_gap> 
8.691 
 
>  <logP> 
-0.075 
 
>  <lumo_energy> 
1.554 
 
>  <melting_point> 
23.94 
 
>  <molecular_refractivity> 
21.98 
 
>  <oscillator_strength_1> 
0.0151 
 
>  <oscillator_strength_2> 
0.0018 
 
>  <oscillator_strength_3> 
0.0062 
 
>  <oscillator_strength_4> 
0.0483 
 
>  <open_babel_can_smiles> 
O1[C@@H]2[C@H]1[C@H]1[C@@H](C2)O1 
 
>  <mulliken_charges> 
13 
1   -0.275431 
2   0.038166 
3   0.038274 
4   0.076194 
5   0.076485 
6   -0.431034 
7   -0.431288 
8   0.143519 
9   0.177776 
10   0.148349 
11   0.148313 
12   0.14533 
13   0.145348 
 
>  <lowdin_charges> 
13 
1   -0.293889 
2   -0.027312 
3   -0.030354 
4   -0.0421 
5   -0.043903 
6   -0.260476 
7   -0.260526 
8   0.159463 
9   0.171656 
10   0.153104 
11   0.155423 
12   0.158941 
13   0.159976 
 
$$$$ 
 
