PCCDB-ID:  70322 
public computational chemistry database (PCCDB) project, http://pccdb.org 
 
 20 21  0  0  0  0  0  0  0  0999 V2000 
    3.2583    1.1976    0.0429 C   0  0  0  0  0  0  0  0  0  0  0  0 
    6.0753   -4.8286    0.2532 C   0  0  0  0  0  0  0  0  0  0  0  0 
    4.8518   -5.5307    0.1561 C   0  0  0  0  0  0  0  0  0  0  0  0 
    6.1238   -3.4398    0.2598 C   0  0  0  0  0  0  0  0  0  0  0  0 
    3.6400   -4.8628    0.0602 C   0  0  0  0  0  0  0  0  0  0  0  0 
    2.4325   -0.0800   -0.0299 C   0  0  0  0  0  0  0  0  0  0  0  0 
    4.8989   -2.7710    0.1633 C   0  0  0  0  0  0  0  0  0  0  0  0 
    3.6603   -3.4580    0.0641 C   0  0  0  0  0  0  0  0  0  0  0  0 
    3.1713   -1.3730    0.0280 C   0  0  0  0  0  0  0  0  0  0  0  0 
    4.5549   -1.4378    0.1378 N   0  0  0  0  0  0  0  0  0  0  0  0 
    2.6144   -2.5648   -0.0177 N   0  0  0  0  0  0  0  0  0  0  0  0 
    1.2212   -0.0556   -0.1298 O   0  0  0  0  0  0  0  0  0  0  0  0 
    3.9901    1.2463   -0.7740 H   0  0  0  0  0  0  0  0  0  0  0  0 
    3.8076    1.2589    0.9915 H   0  0  0  0  0  0  0  0  0  0  0  0 
    2.5853    2.0531   -0.0315 H   0  0  0  0  0  0  0  0  0  0  0  0 
    7.0022   -5.3906    0.3258 H   0  0  0  0  0  0  0  0  0  0  0  0 
    4.8683   -6.6168    0.1547 H   0  0  0  0  0  0  0  0  0  0  0  0 
    7.0675   -2.9069    0.3335 H   0  0  0  0  0  0  0  0  0  0  0  0 
    2.6960   -5.3929   -0.0153 H   0  0  0  0  0  0  0  0  0  0  0  0 
    5.1907   -0.6561    0.1884 H   0  0  0  0  0  0  0  0  0  0  0  0 
  1 14  1  0  0  0  0 
  2  4  1  0  0  0  0 
  2 16  1  0  0  0  0 
  3  2  2  0  0  0  0 
  4 18  1  0  0  0  0 
  5  8  2  0  0  0  0 
  5  3  1  0  0  0  0 
  6  9  1  0  0  0  0 
  6  1  1  0  0  0  0 
  7  4  2  0  0  0  0 
  8  7  1  0  0  0  0 
  9 10  1  0  0  0  0 
 10  7  1  0  0  0  0 
 10 20  1  0  0  0  0 
 11  9  2  0  0  0  0 
 11  8  1  0  0  0  0 
 12  6  2  0  0  0  0 
 13  1  1  0  0  0  0 
 15  1  1  0  0  0  0 
 17  3  1  0  0  0  0 
 19  5  1  0  0  0  0 
M  END 
>  <HBA> 
2 
 
>  <HBD> 
1 
 
>  <TPSA> 
45.75 
 
>  <cid> 
70322 
 
>  <dipole> 
5.54 
 
>  <excitation_energy_1> 
3.67 
 
>  <excitation_energy_2> 
4.03 
 
>  <excitation_energy_3> 
4.288 
 
>  <excitation_energy_4> 
4.604 
 
>  <homo_energy> 
-6.37 
 
>  <homo_lumo_gap> 
4.561 
 
>  <logP> 
1.766 
 
>  <lumo_energy> 
-1.81 
 
>  <melting_point> 
146.33 
 
>  <molecular_refractivity> 
46.29 
 
>  <oscillator_strength_1> 
0.0001 
 
>  <oscillator_strength_2> 
0.0264 
 
>  <oscillator_strength_3> 
0.4233 
 
>  <oscillator_strength_4> 
0.0011 
 
>  <open_babel_can_smiles> 
CC(=O)c1nc2c([nH]1)cccc2 
 
>  <mulliken_charges> 
20 
1   -0.56322 
2   -0.145987 
3   -0.142309 
4   -0.16724 
5   -0.171979 
6   0.428987 
7   0.359863 
8   0.23065 
9   0.451501 
10   -0.763485 
11   -0.512152 
12   -0.421456 
13   0.167094 
14   0.169648 
15   0.195897 
16   0.133997 
17   0.133191 
18   0.131947 
19   0.150256 
20   0.334795 
 
>  <lowdin_charges> 
20 
1   -0.481473 
2   -0.150957 
3   -0.164607 
4   -0.187137 
5   -0.147838 
6   0.145887 
7   0.026832 
8   0.010802 
9   0.035611 
10   -0.205579 
11   -0.148098 
12   -0.201662 
13   0.166749 
14   0.167753 
15   0.183507 
16   0.161219 
17   0.158832 
18   0.160599 
19   0.172085 
20   0.297473 
 
$$$$ 
 
