PCCDB-ID:  68085 
public computational chemistry database (PCCDB) project, http://pccdb.org 
 
 24 26  0  0  0  0  0  0  0  0999 V2000 
    2.9950   -1.2042    0.3462 C   0  0  0  0  0  0  0  0  0  0  0  0 
    1.2921    4.0315    1.0510 C   0  0  0  0  0  0  0  0  0  0  0  0 
    1.8634    5.0887    0.3019 C   0  0  0  0  0  0  0  0  0  0  0  0 
    1.7221    2.7372    0.8656 C   0  0  0  0  0  0  0  0  0  0  0  0 
    2.8539    4.8342   -0.6188 C   0  0  0  0  0  0  0  0  0  0  0  0 
    4.9973   -0.1767   -1.7999 C   0  0  0  0  0  0  0  0  0  0  0  0 
    5.8213    0.3900   -2.7092 C   0  0  0  0  0  0  0  0  0  0  0  0 
    2.7440    2.4416   -0.0764 C   0  0  0  0  0  0  0  0  0  0  0  0 
    4.2164    0.9084   -1.2339 C   0  0  0  0  0  0  0  0  0  0  0  0 
    3.3237    3.5124   -0.8374 C   0  0  0  0  0  0  0  0  0  0  0  0 
    3.2122    1.1056   -0.2900 C   0  0  0  0  0  0  0  0  0  0  0  0 
    4.6807    2.0873   -1.9039 C   0  0  0  0  0  0  0  0  0  0  0  0 
    4.3089    3.3244   -1.7657 N   0  0  0  0  0  0  0  0  0  0  0  0 
    2.6113    0.1594    0.4698 O   0  0  0  0  0  0  0  0  0  0  0  0 
    5.6621    1.7483   -2.8023 O   0  0  0  0  0  0  0  0  0  0  0  0 
    2.3710   -1.7507    1.0554 H   0  0  0  0  0  0  0  0  0  0  0  0 
    4.0501   -1.3453    0.6061 H   0  0  0  0  0  0  0  0  0  0  0  0 
    2.8068   -1.5797   -0.6659 H   0  0  0  0  0  0  0  0  0  0  0  0 
    0.5094    4.2443    1.7739 H   0  0  0  0  0  0  0  0  0  0  0  0 
    1.5161    6.1066    0.4576 H   0  0  0  0  0  0  0  0  0  0  0  0 
    1.2894    1.9234    1.4366 H   0  0  0  0  0  0  0  0  0  0  0  0 
    3.3086    5.6267   -1.2046 H   0  0  0  0  0  0  0  0  0  0  0  0 
    4.9591   -1.2294   -1.5687 H   0  0  0  0  0  0  0  0  0  0  0  0 
    6.5705   -0.0289   -3.3644 H   0  0  0  0  0  0  0  0  0  0  0  0 
  1 14  1  0  0  0  0 
  1 17  1  0  0  0  0 
  1 16  1  0  0  0  0 
  2 19  1  0  0  0  0 
  3 20  1  0  0  0  0 
  3  2  2  0  0  0  0 
  4  2  1  0  0  0  0 
  4 21  1  0  0  0  0 
  5  3  1  0  0  0  0 
  6 23  1  0  0  0  0 
  6  9  1  0  0  0  0 
  7  6  2  0  0  0  0 
  8  4  2  0  0  0  0 
  9 11  2  0  0  0  0 
 10  5  2  0  0  0  0 
 10  8  1  0  0  0  0 
 11  8  1  0  0  0  0 
 11 14  1  0  0  0  0 
 12 13  2  0  0  0  0 
 12  9  1  0  0  0  0 
 13 10  1  0  0  0  0 
 15  7  1  0  0  0  0 
 15 12  1  0  0  0  0 
 18  1  1  0  0  0  0 
 22  5  1  0  0  0  0 
 24  7  1  0  0  0  0 
M  END 
>  <HBA> 
3 
 
>  <HBD> 
0 
 
>  <TPSA> 
35.26 
 
>  <cid> 
68085 
 
>  <dipole> 
4.18 
 
>  <excitation_energy_1> 
3.891 
 
>  <excitation_energy_2> 
4.284 
 
>  <excitation_energy_3> 
4.883 
 
>  <excitation_energy_4> 
5.026 
 
>  <homo_energy> 
-5.527 
 
>  <homo_lumo_gap> 
4.283 
 
>  <logP> 
2.99 
 
>  <lumo_energy> 
-1.244 
 
>  <melting_point> 
113.83 
 
>  <molecular_refractivity> 
58.01 
 
>  <oscillator_strength_1> 
0.1117 
 
>  <oscillator_strength_2> 
0.0144 
 
>  <oscillator_strength_3> 
0.0005 
 
>  <oscillator_strength_4> 
0.0066 
 
>  <open_babel_can_smiles> 
COc1c2ccccc2nc2c1cco2 
 
>  <mulliken_charges> 
24 
1   -0.221366 
2   -0.139157 
3   -0.132961 
4   -0.173769 
5   -0.160822 
6   -0.220574 
7   0.088741 
8   0.072959 
9   0.064525 
10   0.236642 
11   0.273651 
12   0.496775 
13   -0.587737 
14   -0.503254 
15   -0.457717 
16   0.176464 
17   0.164228 
18   0.16418 
19   0.129274 
20   0.131548 
21   0.146248 
22   0.143853 
23   0.142636 
24   0.165631 
 
>  <lowdin_charges> 
24 
1   -0.272164 
2   -0.163524 
3   -0.150846 
4   -0.152391 
5   -0.159199 
6   -0.222343 
7   -0.049511 
8   -0.045912 
9   -0.091054 
10   0.049961 
11   0.113699 
12   0.122831 
13   -0.165056 
14   -0.179461 
15   -0.109936 
16   0.167848 
17   0.151534 
18   0.1523 
19   0.158676 
20   0.158766 
21   0.168824 
22   0.170662 
23   0.169725 
24   0.17657 
 
$$$$ 
 
