PCCDB-ID:  21400 
public computational chemistry database (PCCDB) project, http://pccdb.org 
 
 33 33  0  0  0  0  0  0  0  0999 V2000 
    2.4106   -0.0921    1.4678 C   0  0  0  0  0  0  0  0  0  0  0  0 
    1.8534   -3.5175   -0.0060 C   0  0  0  0  0  0  0  0  0  0  0  0 
    8.7836   -3.6074   -0.9754 C   0  0  0  0  0  0  0  0  0  0  0  0 
    2.1665   -0.0956   -0.0496 C   0  0  0  0  0  0  0  0  0  0  0  0 
    1.7910   -2.3680   -1.0247 C   0  0  0  0  0  0  0  0  0  0  0  0 
    6.2913   -0.3602   -1.1599 C   0  0  0  0  0  0  0  0  0  0  0  0 
    5.9371   -2.5396   -2.0808 C   0  0  0  0  0  0  0  0  0  0  0  0 
    4.9529   -0.2909   -0.7932 C   0  0  0  0  0  0  0  0  0  0  0  0 
    4.5893   -2.4722   -1.7343 C   0  0  0  0  0  0  0  0  0  0  0  0 
    8.9894   -2.4075   -1.8758 C   0  0  0  0  0  0  0  0  0  0  0  0 
    6.8251   -1.4932   -1.7915 C   0  0  0  0  0  0  0  0  0  0  0  0 
    4.0498   -1.3427   -1.0796 C   0  0  0  0  0  0  0  0  0  0  0  0 
    8.1752   -1.4852   -2.1833 N   0  0  0  0  0  0  0  0  0  0  0  0 
    2.6928   -1.2531   -0.7632 N   0  0  0  0  0  0  0  0  0  0  0  0 
   10.2487   -2.2988   -2.4008 O   0  0  0  0  0  0  0  0  0  0  0  0 
    2.0226    0.8320    1.9138 H   0  0  0  0  0  0  0  0  0  0  0  0 
    3.4784   -0.1598    1.6985 H   0  0  0  0  0  0  0  0  0  0  0  0 
    1.9091   -0.9379    1.9500 H   0  0  0  0  0  0  0  0  0  0  0  0 
    1.1767   -4.3278   -0.3041 H   0  0  0  0  0  0  0  0  0  0  0  0 
    1.5560   -3.1770    0.9915 H   0  0  0  0  0  0  0  0  0  0  0  0 
    2.8654   -3.9279    0.0676 H   0  0  0  0  0  0  0  0  0  0  0  0 
    9.5663   -3.6340   -0.2057 H   0  0  0  0  0  0  0  0  0  0  0  0 
    8.8462   -4.5433   -1.5450 H   0  0  0  0  0  0  0  0  0  0  0  0 
    7.8110   -3.5675   -0.4835 H   0  0  0  0  0  0  0  0  0  0  0  0 
    2.5798    0.8184   -0.4939 H   0  0  0  0  0  0  0  0  0  0  0  0 
    1.0884   -0.0578   -0.2412 H   0  0  0  0  0  0  0  0  0  0  0  0 
    0.7729   -1.9642   -1.0504 H   0  0  0  0  0  0  0  0  0  0  0  0 
    1.9831   -2.7562   -2.0331 H   0  0  0  0  0  0  0  0  0  0  0  0 
    6.9524    0.4747   -0.9453 H   0  0  0  0  0  0  0  0  0  0  0  0 
    6.2993   -3.4145   -2.6150 H   0  0  0  0  0  0  0  0  0  0  0  0 
    4.6110    0.6038   -0.2870 H   0  0  0  0  0  0  0  0  0  0  0  0 
    3.9575   -3.3142   -1.9904 H   0  0  0  0  0  0  0  0  0  0  0  0 
   10.7949   -3.0258   -2.0649 H   0  0  0  0  0  0  0  0  0  0  0  0 
  1 17  1  0  0  0  0 
  1 16  1  0  0  0  0 
  1 18  1  0  0  0  0 
  2 21  1  0  0  0  0 
  2 20  1  0  0  0  0 
  3 24  1  0  0  0  0 
  3 22  1  0  0  0  0 
  4  1  1  0  0  0  0 
  5 14  1  0  0  0  0 
  5  2  1  0  0  0  0 
  6 29  1  0  0  0  0 
  6  8  2  0  0  0  0 
  7 11  2  0  0  0  0 
  7  9  1  0  0  0  0 
  8 31  1  0  0  0  0 
  9 12  2  0  0  0  0 
 10  3  1  0  0  0  0 
 11  6  1  0  0  0  0 
 12  8  1  0  0  0  0 
 12 14  1  0  0  0  0 
 13 10  2  0  0  0  0 
 13 11  1  0  0  0  0 
 14  4  1  0  0  0  0 
 15 33  1  0  0  0  0 
 15 10  1  0  0  0  0 
 19  2  1  0  0  0  0 
 23  3  1  0  0  0  0 
 25  4  1  0  0  0  0 
 26  4  1  0  0  0  0 
 27  5  1  0  0  0  0 
 28  5  1  0  0  0  0 
 30  7  1  0  0  0  0 
 32  9  1  0  0  0  0 
M  END 
>  <HBA> 
3 
 
>  <HBD> 
1 
 
>  <TPSA> 
32.34 
 
>  <cid> 
21400 
 
>  <dipole> 
3.93 
 
>  <excitation_energy_1> 
3.994 
 
>  <excitation_energy_2> 
4.052 
 
>  <excitation_energy_3> 
4.153 
 
>  <excitation_energy_4> 
4.283 
 
>  <homo_energy> 
-4.563 
 
>  <homo_lumo_gap> 
4.795 
 
>  <logP> 
2.564 
 
>  <lumo_energy> 
0.231 
 
>  <melting_point> 
67.62 
 
>  <molecular_refractivity> 
64.58 
 
>  <oscillator_strength_1> 
0.0777 
 
>  <oscillator_strength_2> 
0.1232 
 
>  <oscillator_strength_3> 
0.1232 
 
>  <oscillator_strength_4> 
0.0239 
 
>  <open_babel_can_smiles> 
CCN(c1ccc(cc1)/N=C(/O)\C)CC 
 
>  <mulliken_charges> 
33 
1   -0.444751 
2   -0.444406 
3   -0.555681 
4   -0.141783 
5   -0.141142 
6   -0.162926 
7   -0.171717 
8   -0.202234 
9   -0.205864 
10   0.477739 
11   0.242592 
12   0.370094 
13   -0.474852 
14   -0.483279 
15   -0.574254 
16   0.140631 
17   0.161993 
18   0.148497 
19   0.139997 
20   0.149343 
21   0.16013 
22   0.163297 
23   0.173454 
24   0.197264 
25   0.152147 
26   0.140068 
27   0.140293 
28   0.150749 
29   0.128602 
30   0.118285 
31   0.122977 
32   0.120903 
33   0.403834 
 
>  <lowdin_charges> 
33 
1   -0.459217 
2   -0.458669 
3   -0.48527 
4   -0.192207 
5   -0.192641 
6   -0.161197 
7   -0.179525 
8   -0.207652 
9   -0.213242 
10   0.141465 
11   0.017886 
12   0.054325 
13   -0.174139 
14   -0.119485 
15   -0.369148 
16   0.150999 
17   0.155737 
18   0.150578 
19   0.151083 
20   0.149564 
21   0.155703 
22   0.163939 
23   0.168281 
24   0.183193 
25   0.1473 
26   0.144893 
27   0.146156 
28   0.145296 
29   0.162075 
30   0.153957 
31   0.158139 
32   0.157496 
33   0.354325 
 
$$$$ 
 
