PCCDB-ID:  8097 
public computational chemistry database (PCCDB) project, http://pccdb.org 
 
 36 35  0  0  0  0  0  0  0  0999 V2000 
    0.9537   -0.5208    2.2161 C   0  0  0  0  0  0  0  0  0  0  0  0 
    2.6430   -2.0687    1.5164 C   0  0  0  0  0  0  0  0  0  0  0  0 
    8.9823    0.1387    6.5999 C   0  0  0  0  0  0  0  0  0  0  0  0 
   10.6752    1.4083    5.4772 C   0  0  0  0  0  0  0  0  0  0  0  0 
    5.0768    0.5637    2.7439 C   0  0  0  0  0  0  0  0  0  0  0  0 
    6.6092    0.5773    2.8063 C   0  0  0  0  0  0  0  0  0  0  0  0 
    4.5295    0.3606    1.3257 C   0  0  0  0  0  0  0  0  0  0  0  0 
    7.1561    0.7928    4.2240 C   0  0  0  0  0  0  0  0  0  0  0  0 
    2.9971    0.3227    1.2525 C   0  0  0  0  0  0  0  0  0  0  0  0 
    8.6878    0.7764    4.2702 C   0  0  0  0  0  0  0  0  0  0  0  0 
    2.3844   -0.7397    2.0540 N   0  0  0  0  0  0  0  0  0  0  0  0 
    9.2473    1.1386    5.5739 N   0  0  0  0  0  0  0  0  0  0  0  0 
    0.5336   -1.2936    2.8694 H   0  0  0  0  0  0  0  0  0  0  0  0 
    0.3951   -0.5451    1.2585 H   0  0  0  0  0  0  0  0  0  0  0  0 
    0.7777    0.4531    2.6856 H   0  0  0  0  0  0  0  0  0  0  0  0 
    2.1912   -2.8215    2.1716 H   0  0  0  0  0  0  0  0  0  0  0  0 
    3.7181   -2.2654    1.4776 H   0  0  0  0  0  0  0  0  0  0  0  0 
    2.2313   -2.2119    0.4964 H   0  0  0  0  0  0  0  0  0  0  0  0 
    9.4063    0.4737    7.5528 H   0  0  0  0  0  0  0  0  0  0  0  0 
    9.4186   -0.8535    6.3625 H   0  0  0  0  0  0  0  0  0  0  0  0 
    7.9059    0.0104    6.7429 H   0  0  0  0  0  0  0  0  0  0  0  0 
   11.0548    1.7402    6.4501 H   0  0  0  0  0  0  0  0  0  0  0  0 
   10.8535    2.2100    4.7521 H   0  0  0  0  0  0  0  0  0  0  0  0 
   11.2700    0.5262    5.1639 H   0  0  0  0  0  0  0  0  0  0  0  0 
    4.6881    1.5115    3.1457 H   0  0  0  0  0  0  0  0  0  0  0  0 
    4.6822   -0.2247    3.3966 H   0  0  0  0  0  0  0  0  0  0  0  0 
    6.9963    1.3654    2.1430 H   0  0  0  0  0  0  0  0  0  0  0  0 
    6.9961   -0.3722    2.4065 H   0  0  0  0  0  0  0  0  0  0  0  0 
    4.9545   -0.5554    0.8926 H   0  0  0  0  0  0  0  0  0  0  0  0 
    4.8706    1.1797    0.6767 H   0  0  0  0  0  0  0  0  0  0  0  0 
    6.7450    0.0158    4.8820 H   0  0  0  0  0  0  0  0  0  0  0  0 
    6.8064    1.7550    4.6207 H   0  0  0  0  0  0  0  0  0  0  0  0 
    2.6812    0.2575    0.1902 H   0  0  0  0  0  0  0  0  0  0  0  0 
    2.6103    1.2769    1.6332 H   0  0  0  0  0  0  0  0  0  0  0  0 
    9.0631    1.5093    3.5439 H   0  0  0  0  0  0  0  0  0  0  0  0 
    9.0585   -0.2149    3.9315 H   0  0  0  0  0  0  0  0  0  0  0  0 
  1 15  1  0  0  0  0 
  1 13  1  0  0  0  0 
  2 11  1  0  0  0  0 
  2 16  1  0  0  0  0 
  3 21  1  0  0  0  0 
  3 19  1  0  0  0  0 
  4 12  1  0  0  0  0 
  4 22  1  0  0  0  0 
  5  6  1  0  0  0  0 
  5 25  1  0  0  0  0 
  5 26  1  0  0  0  0 
  6  8  1  0  0  0  0 
  7  5  1  0  0  0  0 
  8 10  1  0  0  0  0 
  8 32  1  0  0  0  0 
  8 31  1  0  0  0  0 
  9  7  1  0  0  0  0 
  9 34  1  0  0  0  0 
  9 11  1  0  0  0  0 
 10 12  1  0  0  0  0 
 11  1  1  0  0  0  0 
 12  3  1  0  0  0  0 
 14  1  1  0  0  0  0 
 17  2  1  0  0  0  0 
 18  2  1  0  0  0  0 
 20  3  1  0  0  0  0 
 23  4  1  0  0  0  0 
 24  4  1  0  0  0  0 
 27  6  1  0  0  0  0 
 28  6  1  0  0  0  0 
 29  7  1  0  0  0  0 
 30  7  1  0  0  0  0 
 33  9  1  0  0  0  0 
 35 10  1  0  0  0  0 
 36 10  1  0  0  0  0 
M  END 
>  <HBA> 
2 
 
>  <HBD> 
0 
 
>  <TPSA> 
6.48 
 
>  <cid> 
8097 
 
>  <dipole> 
0.84 
 
>  <excitation_energy_1> 
5.269 
 
>  <excitation_energy_2> 
5.332 
 
>  <excitation_energy_3> 
5.637 
 
>  <excitation_energy_4> 
5.65 
 
>  <homo_energy> 
-5.576 
 
>  <homo_lumo_gap> 
7.802 
 
>  <logP> 
1.67 
 
>  <lumo_energy> 
2.226 
 
>  <melting_point> 
-23.95 
 
>  <molecular_refractivity> 
55.98 
 
>  <oscillator_strength_1> 
0.0353 
 
>  <oscillator_strength_2> 
0.0236 
 
>  <oscillator_strength_3> 
0.0087 
 
>  <oscillator_strength_4> 
0.0039 
 
>  <open_babel_can_smiles> 
CN(CCCCCCN(C)C)C 
 
>  <mulliken_charges> 
36 
1   -0.291993 
2   -0.300035 
3   -0.299909 
4   -0.291684 
5   -0.244878 
6   -0.257837 
7   -0.273849 
8   -0.264398 
9   -0.112685 
10   -0.106331 
11   -0.361276 
12   -0.367902 
13   0.145988 
14   0.115067 
15   0.148089 
16   0.147145 
17   0.152411 
18   0.115023 
19   0.14587 
20   0.113193 
21   0.154292 
22   0.145367 
23   0.146561 
24   0.114138 
25   0.123889 
26   0.150055 
27   0.125003 
28   0.125829 
29   0.131492 
30   0.129361 
31   0.132765 
32   0.141859 
33   0.105301 
34   0.131522 
35   0.130189 
36   0.102366 
 
>  <lowdin_charges> 
36 
1   -0.356299 
2   -0.357246 
3   -0.35601 
4   -0.357029 
5   -0.276448 
6   -0.274786 
7   -0.283009 
8   -0.281428 
9   -0.197757 
10   -0.199964 
11   -0.183606 
12   -0.183843 
13   0.149589 
14   0.118805 
15   0.148758 
16   0.151046 
17   0.148678 
18   0.117947 
19   0.149089 
20   0.117129 
21   0.149522 
22   0.147962 
23   0.14883 
24   0.118822 
25   0.137495 
26   0.149804 
27   0.136825 
28   0.136562 
29   0.139107 
30   0.144221 
31   0.141136 
32   0.146206 
33   0.113943 
34   0.141885 
35   0.142341 
36   0.111724 
 
$$$$ 
 
