PCCDB-ID:  41892 
public computational chemistry database (PCCDB) project, http://pccdb.org 
 
 28 30  0  0  1  0  0  0  0  0999 V2000 
    3.6132   -0.6338    0.0164 C   0  0  0  0  0  0  0  0  0  0  0  0 
    3.5694    0.7823    0.0100 C   0  0  0  0  0  0  0  0  0  0  0  0 
    2.4468   -1.3650    0.0127 C   0  0  0  0  0  0  0  0  0  0  0  0 
    2.3597    1.4395    0.0000 C   0  0  0  0  0  0  0  0  0  0  0  0 
   -0.0373   -1.4428    0.0100 C   0  0  0  0  0  0  0  0  0  0  0  0 
   -0.1248    1.3616   -0.0251 C   0  0  0  0  0  0  0  0  0  0  0  0 
   -4.8525    1.3673   -0.0751 C   0  0  0  0  0  0  0  0  0  0  0  0 
   -3.5814   -0.8129    0.3512 C   0  0  0  0  0  0  0  0  0  0  0  0 
    1.1812   -0.7186    0.0024 C   0  0  0  0  0  0  0  0  0  0  0  0 
    1.1371    0.7154   -0.0040 C   0  0  0  0  0  0  0  0  0  0  0  0 
   -3.6376    0.5065   -0.4026 C   0  0  2  0  0  0  0  0  0  0  0  0 
   -1.2495   -0.7912    0.0019 C   0  0  0  0  0  0  0  0  0  0  0  0 
   -1.2920    0.6338   -0.0281 C   0  0  0  0  0  0  0  0  0  0  0  0 
   -4.8220    2.5923   -0.7803 O   0  0  0  0  0  0  0  0  0  0  0  0 
   -2.4018   -1.5372    0.0023 O   0  0  0  0  0  0  0  0  0  0  0  0 
   -2.4940    1.3016   -0.0404 O   0  0  0  0  0  0  0  0  0  0  0  0 
    4.5738   -1.1417    0.0245 H   0  0  0  0  0  0  0  0  0  0  0  0 
    4.4967    1.3488    0.0127 H   0  0  0  0  0  0  0  0  0  0  0  0 
    2.4776   -2.4520    0.0176 H   0  0  0  0  0  0  0  0  0  0  0  0 
    2.3230    2.5264   -0.0050 H   0  0  0  0  0  0  0  0  0  0  0  0 
   -0.0306   -2.5288    0.0279 H   0  0  0  0  0  0  0  0  0  0  0  0 
   -0.1847    2.4461   -0.0450 H   0  0  0  0  0  0  0  0  0  0  0  0 
   -4.8973    1.5265    1.0148 H   0  0  0  0  0  0  0  0  0  0  0  0 
   -5.7667    0.8481   -0.3811 H   0  0  0  0  0  0  0  0  0  0  0  0 
   -4.4221   -1.4591    0.0855 H   0  0  0  0  0  0  0  0  0  0  0  0 
   -3.6004   -0.6282    1.4348 H   0  0  0  0  0  0  0  0  0  0  0  0 
   -3.6016    0.3143   -1.4841 H   0  0  0  0  0  0  0  0  0  0  0  0 
   -3.9609    2.9964   -0.5828 H   0  0  0  0  0  0  0  0  0  0  0  0 
  1 17  1  0  0  0  0 
  2 18  1  0  0  0  0 
  2  1  2  0  0  0  0 
  3  1  1  0  0  0  0 
  3 19  1  0  0  0  0 
  4  2  1  0  0  0  0 
  5 21  1  0  0  0  0 
  6 10  1  0  0  0  0 
  7 23  1  0  0  0  0 
  8 26  1  0  0  0  0 
  9  5  1  0  0  0  0 
  9  3  2  0  0  0  0 
 10  4  2  0  0  0  0 
 10  9  1  0  0  0  0 
 11 27  1  6  0  0  0 
 11  7  1  0  0  0  0 
 11 16  1  0  0  0  0 
 11  8  1  0  0  0  0 
 12 15  1  0  0  0  0 
 12  5  2  0  0  0  0 
 13  6  2  0  0  0  0 
 13 12  1  0  0  0  0 
 14 28  1  0  0  0  0 
 14  7  1  0  0  0  0 
 15  8  1  0  0  0  0 
 16 13  1  0  0  0  0 
 20  4  1  0  0  0  0 
 22  6  1  0  0  0  0 
 24  7  1  0  0  0  0 
 25  8  1  0  0  0  0 
M  END 
>  <HBA> 
3 
 
>  <HBD> 
1 
 
>  <TPSA> 
38.69 
 
>  <cid> 
41892 
 
>  <dipole> 
1.13 
 
>  <excitation_energy_1> 
4.185 
 
>  <excitation_energy_2> 
4.208 
 
>  <excitation_energy_3> 
5.27 
 
>  <excitation_energy_4> 
5.299 
 
>  <homo_energy> 
-5.578 
 
>  <homo_lumo_gap> 
4.656 
 
>  <logP> 
1.972 
 
>  <lumo_energy> 
-0.922 
 
>  <melting_point> 
100.4 
 
>  <molecular_refractivity> 
60.79 
 
>  <oscillator_strength_1> 
0.0459 
 
>  <oscillator_strength_2> 
0.0413 
 
>  <oscillator_strength_3> 
0.1279 
 
>  <oscillator_strength_4> 
0.0309 
 
>  <open_babel_can_smiles> 
OC[C@@H]1COc2c(O1)cc1c(c2)cccc1 
 
>  <mulliken_charges> 
28 
1   -0.138632 
2   -0.139066 
3   -0.19362 
4   -0.193837 
5   -0.284264 
6   -0.28404 
7   -0.035163 
8   -0.052275 
9   0.144753 
10   0.144373 
11   0.082428 
12   0.347727 
13   0.356663 
14   -0.617114 
15   -0.527981 
16   -0.564463 
17   0.127585 
18   0.127549 
19   0.128379 
20   0.127495 
21   0.140886 
22   0.135448 
23   0.131933 
24   0.151382 
25   0.162131 
26   0.154608 
27   0.160438 
28   0.406678 
 
>  <lowdin_charges> 
28 
1   -0.162162 
2   -0.162941 
3   -0.156792 
4   -0.157117 
5   -0.181072 
6   -0.182675 
7   -0.136903 
8   -0.13896 
9   -0.001385 
10   -0.001905 
11   -0.02445 
12   0.067086 
13   0.066973 
14   -0.457421 
15   -0.202005 
16   -0.218618 
17   0.157675 
18   0.158 
19   0.154937 
20   0.154477 
21   0.166627 
22   0.164031 
23   0.132144 
24   0.154882 
25   0.164053 
26   0.145701 
27   0.149305 
28   0.348516 
 
$$$$ 
 
