PCCDB-ID:  11086 
public computational chemistry database (PCCDB) project, http://pccdb.org 
 
 19 19  0  0  0  0  0  0  0  0999 V2000 
    0.8364    0.0933   -0.5570 C   0  0  0  0  0  0  0  0  0  0  0  0 
    4.8431    1.8901    1.9725 C   0  0  0  0  0  0  0  0  0  0  0  0 
    4.5851    3.2180    1.6122 C   0  0  0  0  0  0  0  0  0  0  0  0 
    4.0447    0.8892    1.4442 C   0  0  0  0  0  0  0  0  0  0  0  0 
    3.5585    3.5145    0.7291 C   0  0  0  0  0  0  0  0  0  0  0  0 
    2.1783   -0.0449    0.1511 C   0  0  0  0  0  0  0  0  0  0  0  0 
    2.9762    1.1565    0.5635 C   0  0  0  0  0  0  0  0  0  0  0  0 
    2.7410    2.5048    0.1800 C   0  0  0  0  0  0  0  0  0  0  0  0 
    1.7154    2.9019   -0.6804 N   0  0  0  0  0  0  0  0  0  0  0  0 
    2.5841   -1.1704    0.4126 O   0  0  0  0  0  0  0  0  0  0  0  0 
    0.2312    0.9141   -0.1613 H   0  0  0  0  0  0  0  0  0  0  0  0 
    0.3060   -0.8552   -0.4521 H   0  0  0  0  0  0  0  0  0  0  0  0 
    0.9850    0.2670   -1.6331 H   0  0  0  0  0  0  0  0  0  0  0  0 
    5.6512    1.6483    2.6561 H   0  0  0  0  0  0  0  0  0  0  0  0 
    5.1930    4.0248    2.0137 H   0  0  0  0  0  0  0  0  0  0  0  0 
    4.2094   -0.1510    1.7039 H   0  0  0  0  0  0  0  0  0  0  0  0 
    3.3737    4.5474    0.4404 H   0  0  0  0  0  0  0  0  0  0  0  0 
    1.8198    3.8470   -1.0293 H   0  0  0  0  0  0  0  0  0  0  0  0 
    1.4714    2.2628   -1.4228 H   0  0  0  0  0  0  0  0  0  0  0  0 
  1 12  1  0  0  0  0 
  1 11  1  0  0  0  0 
  1  6  1  0  0  0  0 
  2 14  1  0  0  0  0 
  3  2  1  0  0  0  0 
  3 15  1  0  0  0  0 
  4 16  1  0  0  0  0 
  4  2  2  0  0  0  0 
  5  3  2  0  0  0  0 
  6 10  2  0  0  0  0 
  6  7  1  0  0  0  0 
  7  4  1  0  0  0  0 
  8  7  2  0  0  0  0 
  8  5  1  0  0  0  0 
  9  8  1  0  0  0  0 
 13  1  1  0  0  0  0 
 17  5  1  0  0  0  0 
 18  9  1  0  0  0  0 
 19  9  1  0  0  0  0 
M  END 
>  <HBA> 
2 
 
>  <HBD> 
1 
 
>  <TPSA> 
43.09 
 
>  <cid> 
11086 
 
>  <dipole> 
4.02 
 
>  <excitation_energy_1> 
3.841 
 
>  <excitation_energy_2> 
3.959 
 
>  <excitation_energy_3> 
4.995 
 
>  <excitation_energy_4> 
5.064 
 
>  <homo_energy> 
-5.84 
 
>  <homo_lumo_gap> 
4.621 
 
>  <logP> 
2.053 
 
>  <lumo_energy> 
-1.219 
 
>  <melting_point> 
88.37 
 
>  <molecular_refractivity> 
41.04 
 
>  <oscillator_strength_1> 
0.0006 
 
>  <oscillator_strength_2> 
0.0864 
 
>  <oscillator_strength_3> 
0.0354 
 
>  <oscillator_strength_4> 
0.0906 
 
>  <open_babel_can_smiles> 
CC(=O)c1ccccc1N 
 
>  <mulliken_charges> 
19 
1   -0.564919 
2   -0.135028 
3   -0.126405 
4   -0.172795 
5   -0.174136 
6   0.408092 
7   0.041748 
8   0.248656 
9   -0.797979 
10   -0.461294 
11   0.188043 
12   0.183537 
13   0.158343 
14   0.130628 
15   0.133889 
16   0.166116 
17   0.119469 
18   0.326246 
19   0.327788 
 
>  <lowdin_charges> 
19 
1   -0.480701 
2   -0.183897 
3   -0.131605 
4   -0.116819 
5   -0.201741 
6   0.160309 
7   -0.094968 
8   0.071626 
9   -0.481899 
10   -0.25721 
11   0.173941 
12   0.176493 
13   0.160273 
14   0.159961 
15   0.161291 
16   0.176927 
17   0.151951 
18   0.276874 
19   0.279194 
 
$$$$ 
 
