PCCDB-ID:  39434 
public computational chemistry database (PCCDB) project, http://pccdb.org 
 
 25 25  0  0  0  0  0  0  0  0999 V2000 
    6.1720    1.4939   -4.8931 C   0  0  0  0  0  0  0  0  0  0  0  0 
    6.2754    0.9928   -3.6672 C   0  0  0  0  0  0  0  0  0  0  0  0 
    2.5158   -3.3666   -0.3715 C   0  0  0  0  0  0  0  0  0  0  0  0 
    3.8929   -3.9079   -0.8611 C   0  0  0  0  0  0  0  0  0  0  0  0 
    2.8354   -2.0997    0.4600 C   0  0  0  0  0  0  0  0  0  0  0  0 
    4.9553   -2.9270   -0.3048 C   0  0  0  0  0  0  0  0  0  0  0  0 
    4.0476   -0.7630   -1.3420 C   0  0  0  0  0  0  0  0  0  0  0  0 
    4.1995   -1.6019   -0.0638 C   0  0  0  0  0  0  0  0  0  0  0  0 
    5.3469   -0.1485   -1.8166 C   0  0  0  0  0  0  0  0  0  0  0  0 
    6.3769   -0.0731   -1.1887 O   0  0  0  0  0  0  0  0  0  0  0  0 
    5.1941    0.3529   -3.0847 O   0  0  0  0  0  0  0  0  0  0  0  0 
    7.0221    1.9922   -5.3443 H   0  0  0  0  0  0  0  0  0  0  0  0 
    5.2545    1.4182   -5.4675 H   0  0  0  0  0  0  0  0  0  0  0  0 
    7.1598    1.0356   -3.0424 H   0  0  0  0  0  0  0  0  0  0  0  0 
    1.9671   -4.1063    0.2206 H   0  0  0  0  0  0  0  0  0  0  0  0 
    1.8753   -3.1176   -1.2254 H   0  0  0  0  0  0  0  0  0  0  0  0 
    3.9257   -3.9378   -1.9562 H   0  0  0  0  0  0  0  0  0  0  0  0 
    4.0787   -4.9316   -0.5201 H   0  0  0  0  0  0  0  0  0  0  0  0 
    2.9417   -2.3653    1.5192 H   0  0  0  0  0  0  0  0  0  0  0  0 
    2.0463   -1.3406    0.3998 H   0  0  0  0  0  0  0  0  0  0  0  0 
    5.8227   -2.8101   -0.9621 H   0  0  0  0  0  0  0  0  0  0  0  0 
    5.3359   -3.2929    0.6567 H   0  0  0  0  0  0  0  0  0  0  0  0 
    3.3480    0.0688   -1.1737 H   0  0  0  0  0  0  0  0  0  0  0  0 
    3.6200   -1.3412   -2.1701 H   0  0  0  0  0  0  0  0  0  0  0  0 
    4.7154   -0.9869    0.6810 H   0  0  0  0  0  0  0  0  0  0  0  0 
  1  2  2  0  0  0  0 
  2 11  1  0  0  0  0 
  2 14  1  0  0  0  0 
  3 15  1  0  0  0  0 
  3  5  1  0  0  0  0 
  4 18  1  0  0  0  0 
  4  3  1  0  0  0  0 
  4  6  1  0  0  0  0 
  5 19  1  0  0  0  0 
  6  8  1  0  0  0  0 
  6 22  1  0  0  0  0 
  7 23  1  0  0  0  0 
  7  8  1  0  0  0  0 
  8  5  1  0  0  0  0 
  8 25  1  0  0  0  0 
  9  7  1  0  0  0  0 
  9 10  2  0  0  0  0 
 11  9  1  0  0  0  0 
 12  1  1  0  0  0  0 
 13  1  1  0  0  0  0 
 16  3  1  0  0  0  0 
 17  4  1  0  0  0  0 
 20  5  1  0  0  0  0 
 21  6  1  0  0  0  0 
 24  7  1  0  0  0  0 
M  END 
>  <HBA> 
2 
 
>  <HBD> 
0 
 
>  <TPSA> 
26.3 
 
>  <cid> 
39434 
 
>  <dipole> 
1.48 
 
>  <excitation_energy_1> 
5.649 
 
>  <excitation_energy_2> 
5.904 
 
>  <excitation_energy_3> 
6.413 
 
>  <excitation_energy_4> 
6.798 
 
>  <homo_energy> 
-6.754 
 
>  <homo_lumo_gap> 
6.506 
 
>  <logP> 
2.253 
 
>  <lumo_energy> 
-0.248 
 
>  <melting_point> 
-14.13 
 
>  <molecular_refractivity> 
44.07 
 
>  <oscillator_strength_1> 
0.0006 
 
>  <oscillator_strength_2> 
0.3263 
 
>  <oscillator_strength_3> 
0.033 
 
>  <oscillator_strength_4> 
0.032 
 
>  <open_babel_can_smiles> 
C=COC(=O)CC1CCCC1 
 
>  <mulliken_charges> 
25 
1   -0.389105 
2   0.15542 
3   -0.274623 
4   -0.276466 
5   -0.275863 
6   -0.273981 
7   -0.375113 
8   -0.086117 
9   0.631302 
10   -0.465553 
11   -0.462438 
12   0.154379 
13   0.154757 
14   0.18234 
15   0.139081 
16   0.136677 
17   0.136767 
18   0.13937 
19   0.138256 
20   0.130284 
21   0.146943 
22   0.138173 
23   0.176863 
24   0.174036 
25   0.144613 
 
>  <lowdin_charges> 
25 
1   -0.364827 
2   -0.03738 
3   -0.290583 
4   -0.286771 
5   -0.282504 
6   -0.283588 
7   -0.30454 
8   -0.129604 
9   0.210085 
10   -0.250098 
11   -0.156917 
12   0.173476 
13   0.169637 
14   0.174546 
15   0.148463 
16   0.1428 
17   0.140054 
18   0.146575 
19   0.143843 
20   0.143024 
21   0.150866 
22   0.146003 
23   0.173821 
24   0.170203 
25   0.153415 
 
$$$$ 
 
