PCCDB-ID:  29227 
public computational chemistry database (PCCDB) project, http://pccdb.org 
 
 22 21  0  0  0  0  0  0  0  0999 V2000 
    3.4278    0.7939   -1.4163 C   0  0  0  0  0  0  0  0  0  0  0  0 
    3.6860   -3.2246    1.8854 C   0  0  0  0  0  0  0  0  0  0  0  0 
    3.5621    0.2587    0.0113 C   0  0  0  0  0  0  0  0  0  0  0  0 
    3.6874   -1.7152    1.6329 C   0  0  0  0  0  0  0  0  0  0  0  0 
    2.2961   -1.8140   -0.3983 C   0  0  0  0  0  0  0  0  0  0  0  0 
    4.7683   -1.8857   -0.6713 C   0  0  0  0  0  0  0  0  0  0  0  0 
    3.5673   -1.2962    0.1351 C   0  0  0  0  0  0  0  0  0  0  0  0 
    1.3158   -2.2460   -0.8500 N   0  0  0  0  0  0  0  0  0  0  0  0 
    5.9870   -1.6144   -0.4472 N   0  0  0  0  0  0  0  0  0  0  0  0 
    4.4918   -2.7502   -1.6726 O   0  0  0  0  0  0  0  0  0  0  0  0 
    3.4398    1.8886   -1.4095 H   0  0  0  0  0  0  0  0  0  0  0  0 
    2.4870    0.4734   -1.8768 H   0  0  0  0  0  0  0  0  0  0  0  0 
    4.2543    0.4544   -2.0493 H   0  0  0  0  0  0  0  0  0  0  0  0 
    3.7837   -3.4257    2.9571 H   0  0  0  0  0  0  0  0  0  0  0  0 
    4.5218   -3.7154    1.3758 H   0  0  0  0  0  0  0  0  0  0  0  0 
    2.7541   -3.6879    1.5432 H   0  0  0  0  0  0  0  0  0  0  0  0 
    2.7465    0.6405    0.6370 H   0  0  0  0  0  0  0  0  0  0  0  0 
    4.4951    0.6190    0.4604 H   0  0  0  0  0  0  0  0  0  0  0  0 
    4.6153   -1.2726    2.0141 H   0  0  0  0  0  0  0  0  0  0  0  0 
    2.8654   -1.2387    2.1803 H   0  0  0  0  0  0  0  0  0  0  0  0 
    6.0838   -0.9569    0.3271 H   0  0  0  0  0  0  0  0  0  0  0  0 
    3.5328   -2.8814   -1.7647 H   0  0  0  0  0  0  0  0  0  0  0  0 
  1 11  1  0  0  0  0 
  1  3  1  0  0  0  0 
  2 14  1  0  0  0  0 
  3  7  1  0  0  0  0 
  3 18  1  0  0  0  0 
  3 17  1  0  0  0  0 
  4  2  1  0  0  0  0 
  4 19  1  0  0  0  0 
  4 20  1  0  0  0  0 
  5  7  1  0  0  0  0 
  6  9  2  0  0  0  0 
  6  7  1  0  0  0  0 
  7  4  1  0  0  0  0 
  8  5  3  0  0  0  0 
  9 21  1  0  0  0  0 
 10  6  1  0  0  0  0 
 12  1  1  0  0  0  0 
 13  1  1  0  0  0  0 
 15  2  1  0  0  0  0 
 16  2  1  0  0  0  0 
 22 10  1  0  0  0  0 
M  END 
>  <HBA> 
3 
 
>  <HBD> 
1 
 
>  <TPSA> 
66.88 
 
>  <cid> 
29227 
 
>  <dipole> 
3.73 
 
>  <excitation_energy_1> 
6.08 
 
>  <excitation_energy_2> 
6.582 
 
>  <excitation_energy_3> 
6.594 
 
>  <excitation_energy_4> 
6.875 
 
>  <homo_energy> 
-7.51 
 
>  <homo_lumo_gap> 
7.578 
 
>  <logP> 
1.502 
 
>  <lumo_energy> 
0.068 
 
>  <melting_point> 
101.0 
 
>  <molecular_refractivity> 
38.16 
 
>  <oscillator_strength_1> 
0.0013 
 
>  <oscillator_strength_2> 
0.0087 
 
>  <oscillator_strength_3> 
0.0196 
 
>  <oscillator_strength_4> 
0.0005 
 
>  <open_babel_can_smiles> 
CCC(C(=N)O)(C#N)CC 
 
>  <mulliken_charges> 
22 
1   -0.471697 
2   -0.472081 
3   -0.253713 
4   -0.252924 
5   0.337195 
6   0.506259 
7   -0.08564 
8   -0.48869 
9   -0.581048 
10   -0.580786 
11   0.159853 
12   0.169516 
13   0.175176 
14   0.1599 
15   0.17573 
16   0.169286 
17   0.15853 
18   0.148866 
19   0.149135 
20   0.158428 
21   0.290808 
22   0.427897 
 
>  <lowdin_charges> 
22 
1   -0.452315 
2   -0.452858 
3   -0.259894 
4   -0.260046 
5   -0.024203 
6   0.131552 
7   -0.03439 
8   -0.124943 
9   -0.390272 
10   -0.343067 
11   0.159676 
12   0.161012 
13   0.164561 
14   0.160112 
15   0.164896 
16   0.160977 
17   0.15717 
18   0.151772 
19   0.152059 
20   0.157169 
21   0.257656 
22   0.363375 
 
$$$$ 
 
