PCCDB-ID:  26156 
public computational chemistry database (PCCDB) project, http://pccdb.org 
 
 20 21  0  0  0  0  0  0  0  0999 V2000 
    1.1045    0.2330    0.0185 C   0  0  0  0  0  0  0  0  0  0  0  0 
    4.9033   -3.4040    0.0140 C   0  0  0  0  0  0  0  0  0  0  0  0 
    3.5200   -3.5908    0.0191 C   0  0  0  0  0  0  0  0  0  0  0  0 
    5.4427   -2.1099    0.0089 C   0  0  0  0  0  0  0  0  0  0  0  0 
    2.6399   -2.5015    0.0181 C   0  0  0  0  0  0  0  0  0  0  0  0 
    4.8328    0.4633    0.0040 C   0  0  0  0  0  0  0  0  0  0  0  0 
    4.5829   -1.0220    0.0085 C   0  0  0  0  0  0  0  0  0  0  0  0 
    3.1946   -1.2254    0.0133 C   0  0  0  0  0  0  0  0  0  0  0  0 
    3.4327    1.0676    0.0071 C   0  0  0  0  0  0  0  0  0  0  0  0 
    2.5443    0.0312    0.0112 N   0  0  0  0  0  0  0  0  0  0  0  0 
    3.0404    2.6780    0.0058 S   0  0  0  0  0  0  0  0  0  0  0  0 
    0.6019   -0.7340    0.0189 H   0  0  0  0  0  0  0  0  0  0  0  0 
    0.8043    0.8060   -0.8639 H   0  0  0  0  0  0  0  0  0  0  0  0 
    0.8124    0.8027    0.9057 H   0  0  0  0  0  0  0  0  0  0  0  0 
    5.5651   -4.2650    0.0141 H   0  0  0  0  0  0  0  0  0  0  0  0 
    3.1124   -4.5978    0.0231 H   0  0  0  0  0  0  0  0  0  0  0  0 
    6.5198   -1.9632    0.0051 H   0  0  0  0  0  0  0  0  0  0  0  0 
    1.5671   -2.6639    0.0219 H   0  0  0  0  0  0  0  0  0  0  0  0 
    5.3848    0.8114   -0.8772 H   0  0  0  0  0  0  0  0  0  0  0  0 
    5.3903    0.8157    0.8800 H   0  0  0  0  0  0  0  0  0  0  0  0 
  1 12  1  0  0  0  0 
  1 14  1  0  0  0  0 
  2 15  1  0  0  0  0 
  2  3  2  0  0  0  0 
  3 16  1  0  0  0  0 
  4  2  1  0  0  0  0 
  5  3  1  0  0  0  0 
  5 18  1  0  0  0  0 
  6  9  1  0  0  0  0 
  6  7  1  0  0  0  0 
  6 20  1  0  0  0  0 
  7  4  2  0  0  0  0 
  7  8  1  0  0  0  0 
  8  5  2  0  0  0  0 
  9 10  1  0  0  0  0 
 10  8  1  0  0  0  0 
 10  1  1  0  0  0  0 
 11  9  2  0  0  0  0 
 13  1  1  0  0  0  0 
 17  4  1  0  0  0  0 
 19  6  1  0  0  0  0 
M  END 
>  <HBA> 
2 
 
>  <HBD> 
0 
 
>  <TPSA> 
35.33 
 
>  <cid> 
26156 
 
>  <dipole> 
4.26 
 
>  <excitation_energy_1> 
3.241 
 
>  <excitation_energy_2> 
4.122 
 
>  <excitation_energy_3> 
4.445 
 
>  <excitation_energy_4> 
4.492 
 
>  <homo_energy> 
-5.652 
 
>  <homo_lumo_gap> 
4.501 
 
>  <logP> 
2.071 
 
>  <lumo_energy> 
-1.151 
 
>  <melting_point> 
70.44 
 
>  <molecular_refractivity> 
54.23 
 
>  <oscillator_strength_1> 
0.0002 
 
>  <oscillator_strength_2> 
0.2462 
 
>  <oscillator_strength_3> 
0.0001 
 
>  <oscillator_strength_4> 
0.1548 
 
>  <open_babel_can_smiles> 
S=C1Cc2c(N1C)cccc2 
 
>  <mulliken_charges> 
20 
1   -0.320715 
2   -0.131143 
3   -0.141587 
4   -0.204012 
5   -0.168242 
6   -0.403915 
7   0.098357 
8   0.336861 
9   0.166472 
10   -0.487337 
11   -0.255869 
12   0.164867 
13   0.196667 
14   0.196396 
15   0.133637 
16   0.136254 
17   0.136625 
18   0.140318 
19   0.203175 
20   0.203192 
 
>  <lowdin_charges> 
20 
1   -0.346875 
2   -0.167268 
3   -0.145973 
4   -0.150045 
5   -0.186003 
6   -0.281892 
7   -0.025125 
8   0.042101 
9   -0.049334 
10   -0.02576 
11   -0.203739 
12   0.162388 
13   0.177572 
14   0.177325 
15   0.161774 
16   0.16124 
17   0.160272 
18   0.160857 
19   0.189223 
20   0.189261 
 
$$$$ 
 
