PCCDB-ID:  67284 
public computational chemistry database (PCCDB) project, http://pccdb.org 
 
 24 24  0  0  0  0  0  0  0  0999 V2000 
    3.4514    1.1153    0.3797 C   0  0  0  0  0  0  0  0  0  0  0  0 
    7.1334   -4.7992    1.5477 C   0  0  0  0  0  0  0  0  0  0  0  0 
    1.8666   -5.0531    0.2602 C   0  0  0  0  0  0  0  0  0  0  0  0 
    5.0378   -1.1801    0.8641 C   0  0  0  0  0  0  0  0  0  0  0  0 
    5.7548   -2.3679    1.0957 C   0  0  0  0  0  0  0  0  0  0  0  0 
    3.0550   -2.5050    0.4413 C   0  0  0  0  0  0  0  0  0  0  0  0 
    3.6893   -1.2527    0.5372 C   0  0  0  0  0  0  0  0  0  0  0  0 
    5.1450   -3.6114    1.0038 C   0  0  0  0  0  0  0  0  0  0  0  0 
    3.7656   -3.6760    0.6691 C   0  0  0  0  0  0  0  0  0  0  0  0 
    2.8784   -0.1760    0.2861 O   0  0  0  0  0  0  0  0  0  0  0  0 
    5.7602   -4.8157    1.2091 O   0  0  0  0  0  0  0  0  0  0  0  0 
    3.2373   -4.9297    0.5977 O   0  0  0  0  0  0  0  0  0  0  0  0 
    2.6465    1.8195    0.1592 H   0  0  0  0  0  0  0  0  0  0  0  0 
    4.2623    1.2528   -0.3489 H   0  0  0  0  0  0  0  0  0  0  0  0 
    3.8404    1.3141    1.3878 H   0  0  0  0  0  0  0  0  0  0  0  0 
    7.4249   -5.8442    1.6708 H   0  0  0  0  0  0  0  0  0  0  0  0 
    7.3144   -4.2598    2.4882 H   0  0  0  0  0  0  0  0  0  0  0  0 
    7.7428   -4.3446    0.7538 H   0  0  0  0  0  0  0  0  0  0  0  0 
    1.6567   -6.1243    0.2527 H   0  0  0  0  0  0  0  0  0  0  0  0 
    1.6553   -4.6338   -0.7327 H   0  0  0  0  0  0  0  0  0  0  0  0 
    1.2218   -4.5613    1.0010 H   0  0  0  0  0  0  0  0  0  0  0  0 
    5.5525   -0.2304    0.9452 H   0  0  0  0  0  0  0  0  0  0  0  0 
    6.8062   -2.2964    1.3496 H   0  0  0  0  0  0  0  0  0  0  0  0 
    2.0029   -2.5200    0.1855 H   0  0  0  0  0  0  0  0  0  0  0  0 
  1 15  1  0  0  0  0 
  2 16  1  0  0  0  0 
  2 17  1  0  0  0  0 
  3 12  1  0  0  0  0 
  3 21  1  0  0  0  0 
  4 22  1  0  0  0  0 
  4  5  2  0  0  0  0 
  5 23  1  0  0  0  0 
  6  7  2  0  0  0  0 
  6  9  1  0  0  0  0 
  7  4  1  0  0  0  0 
  8  5  1  0  0  0  0 
  8 11  1  0  0  0  0 
  9  8  2  0  0  0  0 
 10  1  1  0  0  0  0 
 10  7  1  0  0  0  0 
 11  2  1  0  0  0  0 
 12  9  1  0  0  0  0 
 13  1  1  0  0  0  0 
 14  1  1  0  0  0  0 
 18  2  1  0  0  0  0 
 19  3  1  0  0  0  0 
 20  3  1  0  0  0  0 
 24  6  1  0  0  0  0 
M  END 
>  <HBA> 
3 
 
>  <HBD> 
0 
 
>  <TPSA> 
27.69 
 
>  <cid> 
67284 
 
>  <dipole> 
1.33 
 
>  <excitation_energy_1> 
4.73 
 
>  <excitation_energy_2> 
4.757 
 
>  <excitation_energy_3> 
5.092 
 
>  <excitation_energy_4> 
5.122 
 
>  <homo_energy> 
-5.056 
 
>  <homo_lumo_gap> 
5.489 
 
>  <logP> 
1.712 
 
>  <lumo_energy> 
0.433 
 
>  <melting_point> 
20.64 
 
>  <molecular_refractivity> 
45.92 
 
>  <oscillator_strength_1> 
0.0766 
 
>  <oscillator_strength_2> 
0.0002 
 
>  <oscillator_strength_3> 
0.0006 
 
>  <oscillator_strength_4> 
0.0106 
 
>  <open_babel_can_smiles> 
COc1ccc(c(c1)OC)OC 
 
>  <mulliken_charges> 
24 
1   -0.210089 
2   -0.210486 
3   -0.212861 
4   -0.211608 
5   -0.213718 
6   -0.265099 
7   0.377908 
8   0.337871 
9   0.34171 
10   -0.515785 
11   -0.50305 
12   -0.500261 
13   0.165102 
14   0.147967 
15   0.14807 
16   0.167017 
17   0.146083 
18   0.146049 
19   0.168606 
20   0.151411 
21   0.151297 
22   0.124447 
23   0.130197 
24   0.139224 
 
>  <lowdin_charges> 
24 
1   -0.277604 
2   -0.275515 
3   -0.27475 
4   -0.230066 
5   -0.199897 
6   -0.233015 
7   0.094055 
8   0.063013 
9   0.088577 
10   -0.206239 
11   -0.194217 
12   -0.186772 
13   0.161177 
14   0.143143 
15   0.142151 
16   0.160075 
17   0.141323 
18   0.142659 
19   0.160465 
20   0.144312 
21   0.146188 
22   0.160418 
23   0.160844 
24   0.169677 
 
$$$$ 
 
