PCCDB-ID:  31631 
public computational chemistry database (PCCDB) project, http://pccdb.org 
 
 26 28  0  0  0  0  0  0  0  0999 V2000 
   -3.6457   -0.6532   -0.0796 C   0  0  0  0  0  0  0  0  0  0  0  0 
   -3.5837    0.7661   -0.0131 C   0  0  0  0  0  0  0  0  0  0  0  0 
    3.6575   -0.6403   -0.0999 C   0  0  0  0  0  0  0  0  0  0  0  0 
   -2.4923   -1.3969   -0.0894 C   0  0  0  0  0  0  0  0  0  0  0  0 
    2.5121   -1.3935   -0.1061 C   0  0  0  0  0  0  0  0  0  0  0  0 
   -2.3715    1.4038    0.0278 C   0  0  0  0  0  0  0  0  0  0  0  0 
    3.5972    0.7747   -0.0276 C   0  0  0  0  0  0  0  0  0  0  0  0 
   -1.2108   -0.7704   -0.0363 C   0  0  0  0  0  0  0  0  0  0  0  0 
    1.2325   -0.7624   -0.0445 C   0  0  0  0  0  0  0  0  0  0  0  0 
   -1.1462    0.6674    0.0092 C   0  0  0  0  0  0  0  0  0  0  0  0 
    2.3842    1.4222    0.0194 C   0  0  0  0  0  0  0  0  0  0  0  0 
    0.0129   -1.4879   -0.0207 C   0  0  0  0  0  0  0  0  0  0  0  0 
    1.1473    0.6750    0.0038 C   0  0  0  0  0  0  0  0  0  0  0  0 
    0.0195   -2.8711   -0.0270 N   0  0  0  0  0  0  0  0  0  0  0  0 
    0.0015    1.3653    0.0431 N   0  0  0  0  0  0  0  0  0  0  0  0 
    2.2651    2.7748    0.0776 O   0  0  0  0  0  0  0  0  0  0  0  0 
   -4.6111   -1.1488   -0.1310 H   0  0  0  0  0  0  0  0  0  0  0  0 
   -4.5050    1.3423   -0.0024 H   0  0  0  0  0  0  0  0  0  0  0  0 
    4.6285   -1.1240   -0.1587 H   0  0  0  0  0  0  0  0  0  0  0  0 
   -2.5685   -2.4777   -0.1755 H   0  0  0  0  0  0  0  0  0  0  0  0 
    2.5913   -2.4720   -0.2030 H   0  0  0  0  0  0  0  0  0  0  0  0 
   -2.2914    2.4855    0.0689 H   0  0  0  0  0  0  0  0  0  0  0  0 
    4.5191    1.3537   -0.0192 H   0  0  0  0  0  0  0  0  0  0  0  0 
   -0.8156   -3.3187    0.3237 H   0  0  0  0  0  0  0  0  0  0  0  0 
    0.8582   -3.3099    0.3260 H   0  0  0  0  0  0  0  0  0  0  0  0 
    3.1567    3.1581    0.0759 H   0  0  0  0  0  0  0  0  0  0  0  0 
  1  2  1  0  0  0  0 
  2 18  1  0  0  0  0 
  2  6  2  0  0  0  0 
  3  7  1  0  0  0  0 
  4  1  2  0  0  0  0 
  4  8  1  0  0  0  0 
  5  3  2  0  0  0  0 
  5  9  1  0  0  0  0 
  6 22  1  0  0  0  0 
  7 23  1  0  0  0  0 
  7 11  2  0  0  0  0 
  8 12  1  0  0  0  0 
  8 10  2  0  0  0  0 
  9 12  2  0  0  0  0 
  9 13  1  0  0  0  0 
 10  6  1  0  0  0  0 
 10 15  1  0  0  0  0 
 11 16  1  0  0  0  0 
 13 11  1  0  0  0  0 
 13 15  2  0  0  0  0 
 14 12  1  0  0  0  0 
 14 24  1  0  0  0  0 
 14 25  1  0  0  0  0 
 17  1  1  0  0  0  0 
 19  3  1  0  0  0  0 
 20  4  1  0  0  0  0 
 21  5  1  0  0  0  0 
 26 16  1  0  0  0  0 
M  END 
>  <HBA> 
3 
 
>  <HBD> 
2 
 
>  <TPSA> 
59.14 
 
>  <cid> 
31631 
 
>  <dipole> 
3.31 
 
>  <excitation_energy_1> 
3.068 
 
>  <excitation_energy_2> 
3.827 
 
>  <excitation_energy_3> 
3.91 
 
>  <excitation_energy_4> 
4.155 
 
>  <homo_energy> 
-4.985 
 
>  <homo_lumo_gap> 
3.459 
 
>  <logP> 
3.257 
 
>  <lumo_energy> 
-1.527 
 
>  <melting_point> 
199.63 
 
>  <molecular_refractivity> 
65.68 
 
>  <oscillator_strength_1> 
0.0932 
 
>  <oscillator_strength_2> 
0.0158 
 
>  <oscillator_strength_3> 
0.0007 
 
>  <oscillator_strength_4> 
0.0118 
 
>  <open_babel_can_smiles> 
Oc1cccc2c1nc1ccccc1c2N 
 
>  <mulliken_charges> 
26 
1   -0.138261 
2   -0.13619 
3   -0.139452 
4   -0.198861 
5   -0.205592 
6   -0.149378 
7   -0.211457 
8   0.127723 
9   0.132575 
10   0.246318 
11   0.330169 
12   0.187872 
13   0.205695 
14   -0.791058 
15   -0.605592 
16   -0.613335 
17   0.128787 
18   0.131478 
19   0.128528 
20   0.119606 
21   0.116184 
22   0.145398 
23   0.115668 
24   0.333608 
25   0.33437 
26   0.405194 
 
>  <lowdin_charges> 
26 
1   -0.161264 
2   -0.155756 
3   -0.150955 
4   -0.162224 
5   -0.188375 
6   -0.146501 
7   -0.226826 
8   -0.054612 
9   -0.050293 
10   0.04926 
11   0.105834 
12   0.080436 
13   0.028877 
14   -0.466522 
15   -0.171168 
16   -0.348073 
17   0.157987 
18   0.159915 
19   0.158525 
20   0.149092 
21   0.149205 
22   0.168759 
23   0.153605 
24   0.282397 
25   0.282957 
26   0.355719 
 
$$$$ 
 
