PCCDB-ID:  70006 
public computational chemistry database (PCCDB) project, http://pccdb.org 
 
 21 22  0  0  0  0  0  0  0  0999 V2000 
   -1.4787    0.0219    0.0572 C   0  0  0  0  0  0  0  0  0  0  0  0 
   -0.7667    1.2041   -0.1635 C   0  0  0  0  0  0  0  0  0  0  0  0 
   -0.7834   -1.1696    0.2617 C   0  0  0  0  0  0  0  0  0  0  0  0 
    0.6252    1.1972   -0.1996 C   0  0  0  0  0  0  0  0  0  0  0  0 
    0.6125   -1.1896    0.2447 C   0  0  0  0  0  0  0  0  0  0  0  0 
    4.8827   -0.4328   -0.3466 C   0  0  0  0  0  0  0  0  0  0  0  0 
    4.6852    0.8405    0.2327 C   0  0  0  0  0  0  0  0  0  0  0  0 
    1.3179   -0.0043   -0.0015 C   0  0  0  0  0  0  0  0  0  0  0  0 
    3.6051   -0.9389   -0.5125 C   0  0  0  0  0  0  0  0  0  0  0  0 
    3.1807   -2.1714   -1.0143 N   0  0  0  0  0  0  0  0  0  0  0  0 
    3.4059    1.1268    0.4180 N   0  0  0  0  0  0  0  0  0  0  0  0 
    2.7367    0.0104   -0.0301 N   0  0  0  0  0  0  0  0  0  0  0  0 
   -2.5648    0.0325    0.0772 H   0  0  0  0  0  0  0  0  0  0  0  0 
   -1.2985    2.1394   -0.3159 H   0  0  0  0  0  0  0  0  0  0  0  0 
   -1.3250   -2.0918    0.4546 H   0  0  0  0  0  0  0  0  0  0  0  0 
    1.1911    2.1062   -0.3653 H   0  0  0  0  0  0  0  0  0  0  0  0 
    1.1510   -2.1090    0.4460 H   0  0  0  0  0  0  0  0  0  0  0  0 
    5.8113   -0.9153   -0.6163 H   0  0  0  0  0  0  0  0  0  0  0  0 
    5.4371    1.5643    0.5214 H   0  0  0  0  0  0  0  0  0  0  0  0 
    3.9104   -2.6211   -1.5564 H   0  0  0  0  0  0  0  0  0  0  0  0 
    2.3266   -2.1144   -1.5617 H   0  0  0  0  0  0  0  0  0  0  0  0 
  1 13  1  0  0  0  0 
  1  3  2  0  0  0  0 
  2  1  1  0  0  0  0 
  3 15  1  0  0  0  0 
  4  2  2  0  0  0  0 
  4  8  1  0  0  0  0 
  5  3  1  0  0  0  0 
  5 17  1  0  0  0  0 
  6  7  1  0  0  0  0 
  7 11  2  0  0  0  0 
  7 19  1  0  0  0  0 
  8  5  2  0  0  0  0 
  9  6  2  0  0  0  0 
  9 12  1  0  0  0  0 
 10  9  1  0  0  0  0 
 12  8  1  0  0  0  0 
 12 11  1  0  0  0  0 
 14  2  1  0  0  0  0 
 16  4  1  0  0  0  0 
 18  6  1  0  0  0  0 
 20 10  1  0  0  0  0 
 21 10  1  0  0  0  0 
M  END 
>  <HBA> 
3 
 
>  <HBD> 
1 
 
>  <TPSA> 
43.84 
 
>  <cid> 
70006 
 
>  <dipole> 
3.2 
 
>  <excitation_energy_1> 
4.506 
 
>  <excitation_energy_2> 
4.637 
 
>  <excitation_energy_3> 
4.832 
 
>  <excitation_energy_4> 
4.95 
 
>  <homo_energy> 
-5.595 
 
>  <homo_lumo_gap> 
5.244 
 
>  <logP> 
2.036 
 
>  <lumo_energy> 
-0.351 
 
>  <melting_point> 
103.39 
 
>  <molecular_refractivity> 
47.97 
 
>  <oscillator_strength_1> 
0.0264 
 
>  <oscillator_strength_2> 
0.0032 
 
>  <oscillator_strength_3> 
0.0021 
 
>  <oscillator_strength_4> 
0.0044 
 
>  <open_babel_can_smiles> 
Nc1ccnn1c1ccccc1 
 
>  <mulliken_charges> 
21 
1   -0.12301 
2   -0.141516 
3   -0.142337 
4   -0.140478 
5   -0.185806 
6   -0.288022 
7   0.058731 
8   0.29316 
9   0.518511 
10   -0.783772 
11   -0.3033 
12   -0.42598 
13   0.131147 
14   0.135797 
15   0.134043 
16   0.165156 
17   0.169589 
18   0.124368 
19   0.140148 
20   0.332548 
21   0.331022 
 
>  <lowdin_charges> 
21 
1   -0.159743 
2   -0.149034 
3   -0.152563 
4   -0.158924 
5   -0.186682 
6   -0.28397 
7   -0.129471 
8   0.047622 
9   0.07355 
10   -0.489013 
11   -0.171039 
12   0.03119 
13   0.157108 
14   0.161237 
15   0.160303 
16   0.179353 
17   0.175247 
18   0.16372 
19   0.163719 
20   0.285452 
21   0.281936 
 
$$$$ 
 
