PCCDB-ID:  21884 
public computational chemistry database (PCCDB) project, http://pccdb.org 
 
 20 21  0  0  0  0  0  0  0  0999 V2000 
    1.0310   -0.0232    0.0110 C   0  0  0  0  0  0  0  0  0  0  0  0 
    8.0711   -2.2680    0.0405 C   0  0  0  0  0  0  0  0  0  0  0  0 
    3.2676    1.1710    0.0186 C   0  0  0  0  0  0  0  0  0  0  0  0 
    4.6652    1.2157    0.0244 C   0  0  0  0  0  0  0  0  0  0  0  0 
    3.2325   -1.2604    0.0202 C   0  0  0  0  0  0  0  0  0  0  0  0 
    2.5444   -0.0399    0.0168 C   0  0  0  0  0  0  0  0  0  0  0  0 
    6.7120   -1.6650    0.0340 C   0  0  0  0  0  0  0  0  0  0  0  0 
    4.6265   -1.2356    0.0253 C   0  0  0  0  0  0  0  0  0  0  0  0 
    5.3062   -0.0110    0.0278 C   0  0  0  0  0  0  0  0  0  0  0  0 
    5.5684   -2.2706    0.0295 N   0  0  0  0  0  0  0  0  0  0  0  0 
    6.6539   -0.2863    0.0335 O   0  0  0  0  0  0  0  0  0  0  0  0 
    0.6431    1.0002    0.0133 H   0  0  0  0  0  0  0  0  0  0  0  0 
    0.6206   -0.5361    0.8896 H   0  0  0  0  0  0  0  0  0  0  0  0 
    0.6273   -0.5295   -0.8745 H   0  0  0  0  0  0  0  0  0  0  0  0 
    7.9798   -3.3551    0.0339 H   0  0  0  0  0  0  0  0  0  0  0  0 
    8.6311   -1.9578    0.9302 H   0  0  0  0  0  0  0  0  0  0  0  0 
    8.6441   -1.9476   -0.8371 H   0  0  0  0  0  0  0  0  0  0  0  0 
    2.7157    2.1073    0.0145 H   0  0  0  0  0  0  0  0  0  0  0  0 
    5.2098    2.1540    0.0265 H   0  0  0  0  0  0  0  0  0  0  0  0 
    2.6992   -2.2069    0.0195 H   0  0  0  0  0  0  0  0  0  0  0  0 
  1 12  1  0  0  0  0 
  1  6  1  0  0  0  0 
  1 13  1  0  0  0  0 
  2 16  1  0  0  0  0 
  3  4  1  0  0  0  0 
  4 19  1  0  0  0  0 
  4  9  2  0  0  0  0 
  5  8  2  0  0  0  0 
  6  3  2  0  0  0  0 
  6  5  1  0  0  0  0 
  7  2  1  0  0  0  0 
  8  9  1  0  0  0  0 
  8 10  1  0  0  0  0 
  9 11  1  0  0  0  0 
 10  7  2  0  0  0  0 
 11  7  1  0  0  0  0 
 14  1  1  0  0  0  0 
 15  2  1  0  0  0  0 
 17  2  1  0  0  0  0 
 18  3  1  0  0  0  0 
 20  5  1  0  0  0  0 
M  END 
>  <HBA> 
2 
 
>  <HBD> 
0 
 
>  <TPSA> 
26.03 
 
>  <cid> 
21884 
 
>  <dipole> 
0.97 
 
>  <excitation_energy_1> 
4.883 
 
>  <excitation_energy_2> 
5.344 
 
>  <excitation_energy_3> 
5.894 
 
>  <excitation_energy_4> 
5.954 
 
>  <homo_energy> 
-6.202 
 
>  <homo_lumo_gap> 
5.641 
 
>  <logP> 
2.445 
 
>  <lumo_energy> 
-0.561 
 
>  <melting_point> 
72.06 
 
>  <molecular_refractivity> 
43.94 
 
>  <oscillator_strength_1> 
0.0778 
 
>  <oscillator_strength_2> 
0.1583 
 
>  <oscillator_strength_3> 
0.0 
 
>  <oscillator_strength_4> 
0.0009 
 
>  <open_babel_can_smiles> 
Cc1ccc2c(c1)nc(o2)C 
 
>  <mulliken_charges> 
20 
1   -0.529296 
2   -0.532592 
3   -0.198355 
4   -0.183987 
5   -0.227112 
6   0.163761 
7   0.508927 
8   0.239266 
9   0.32727 
10   -0.508168 
11   -0.502731 
12   0.153704 
13   0.163247 
14   0.163313 
15   0.192573 
16   0.181792 
17   0.181675 
18   0.125668 
19   0.144578 
20   0.136469 
 
>  <lowdin_charges> 
20 
1   -0.442239 
2   -0.442994 
3   -0.168393 
4   -0.17675 
5   -0.167129 
6   -0.003874 
7   0.136215 
8   0.008493 
9   0.067586 
10   -0.18327 
11   -0.132367 
12   0.15523 
13   0.161338 
14   0.161301 
15   0.181534 
16   0.176185 
17   0.176213 
18   0.157603 
19   0.169577 
20   0.165741 
 
$$$$ 
 
