PCCDB-ID:  7344 
public computational chemistry database (PCCDB) project, http://pccdb.org 
 
 18 17  0  0  1  0  0  0  0  0999 V2000 
    2.0850    1.6503   -2.4541 C   0  0  0  0  0  0  0  0  0  0  0  0 
    5.3944   -1.2915   -1.0872 C   0  0  0  0  0  0  0  0  0  0  0  0 
    2.3489    1.7416   -0.9597 C   0  0  0  0  0  0  0  0  0  0  0  0 
    5.5462   -0.0485   -0.1992 C   0  0  2  0  0  0  0  0  0  0  0  0 
    4.6138    1.0716   -0.6558 C   0  0  0  0  0  0  0  0  0  0  0  0 
    6.8758    0.4223   -0.2126 O   0  0  0  0  0  0  0  0  0  0  0  0 
    5.0300    2.1325   -1.0840 O   0  0  0  0  0  0  0  0  0  0  0  0 
    3.3199    0.7477   -0.5337 O   0  0  0  0  0  0  0  0  0  0  0  0 
    1.2974    2.3593   -2.7336 H   0  0  0  0  0  0  0  0  0  0  0  0 
    1.7554    0.6439   -2.7316 H   0  0  0  0  0  0  0  0  0  0  0  0 
    2.9858    1.8987   -3.0223 H   0  0  0  0  0  0  0  0  0  0  0  0 
    4.3821   -1.7021   -1.0245 H   0  0  0  0  0  0  0  0  0  0  0  0 
    6.1088   -2.0517   -0.7585 H   0  0  0  0  0  0  0  0  0  0  0  0 
    5.6173   -1.0430   -2.1305 H   0  0  0  0  0  0  0  0  0  0  0  0 
    1.4557    1.5055   -0.3770 H   0  0  0  0  0  0  0  0  0  0  0  0 
    2.7172    2.7308   -0.6781 H   0  0  0  0  0  0  0  0  0  0  0  0 
    5.2633   -0.3112    0.8313 H   0  0  0  0  0  0  0  0  0  0  0  0 
    6.8402    1.3093   -0.6176 H   0  0  0  0  0  0  0  0  0  0  0  0 
  1  3  1  0  0  0  0 
  2 12  1  0  0  0  0 
  2 13  1  0  0  0  0 
  2  4  1  0  0  0  0 
  3 16  1  0  0  0  0 
  3  8  1  0  0  0  0 
  3 15  1  0  0  0  0 
  4 17  1  1  0  0  0 
  5  8  1  0  0  0  0 
  5  4  1  0  0  0  0 
  6  4  1  0  0  0  0 
  7  5  2  0  0  0  0 
  9  1  1  0  0  0  0 
 10  1  1  0  0  0  0 
 11  1  1  0  0  0  0 
 14  2  1  0  0  0  0 
 18  6  1  0  0  0  0 
M  END 
>  <HBA> 
3 
 
>  <HBD> 
1 
 
>  <TPSA> 
46.53 
 
>  <cid> 
7344 
 
>  <dipole> 
3.08 
 
>  <excitation_energy_1> 
5.998 
 
>  <excitation_energy_2> 
6.175 
 
>  <excitation_energy_3> 
6.932 
 
>  <excitation_energy_4> 
7.449 
 
>  <homo_energy> 
-7.192 
 
>  <homo_lumo_gap> 
7.208 
 
>  <logP> 
-0.07 
 
>  <lumo_energy> 
0.016 
 
>  <melting_point> 
5.16 
 
>  <molecular_refractivity> 
28.6 
 
>  <oscillator_strength_1> 
0.0012 
 
>  <oscillator_strength_2> 
0.03 
 
>  <oscillator_strength_3> 
0.0091 
 
>  <oscillator_strength_4> 
0.0103 
 
>  <open_babel_can_smiles> 
CCOC(=O)[C@H](O)C 
 
>  <mulliken_charges> 
18 
1   -0.463594 
2   -0.450097 
3   -0.050153 
4   0.08793 
5   0.595508 
6   -0.63725 
7   -0.496618 
8   -0.453507 
9   0.15575 
10   0.161386 
11   0.178022 
12   0.154072 
13   0.168639 
14   0.152436 
15   0.159746 
16   0.175683 
17   0.152924 
18   0.409122 
 
>  <lowdin_charges> 
18 
1   -0.454988 
2   -0.448664 
3   -0.125758 
4   -0.01945 
5   0.184927 
6   -0.461024 
7   -0.276247 
8   -0.181083 
9   0.162757 
10   0.157756 
11   0.166758 
12   0.157101 
13   0.165758 
14   0.154126 
15   0.156666 
16   0.160809 
17   0.151495 
18   0.349063 
 
$$$$ 
 
