PCCDB-ID:  34288 
public computational chemistry database (PCCDB) project, http://pccdb.org 
 
 22 22  0  0  0  0  0  0  0  0999 V2000 
    2.2049   -1.0666    0.7599 C   0  0  0  0  0  0  0  0  0  0  0  0 
    2.7974    1.3565    0.6670 C   0  0  0  0  0  0  0  0  0  0  0  0 
    3.5121   -1.4915   -3.2543 C   0  0  0  0  0  0  0  0  0  0  0  0 
    4.0460   -0.4217   -3.9636 C   0  0  0  0  0  0  0  0  0  0  0  0 
    3.0344   -1.3299   -1.9532 C   0  0  0  0  0  0  0  0  0  0  0  0 
    3.6220    1.0056   -2.0349 C   0  0  0  0  0  0  0  0  0  0  0  0 
    4.6668    1.9979   -4.0483 C   0  0  0  0  0  0  0  0  0  0  0  0 
    4.0976    0.8305   -3.3378 C   0  0  0  0  0  0  0  0  0  0  0  0 
    3.0654   -0.0702   -1.3100 C   0  0  0  0  0  0  0  0  0  0  0  0 
    2.5633    0.1014   -0.0263 N   0  0  0  0  0  0  0  0  0  0  0  0 
    5.1097    1.9777   -5.1809 O   0  0  0  0  0  0  0  0  0  0  0  0 
    1.8239   -0.7407    1.7297 H   0  0  0  0  0  0  0  0  0  0  0  0 
    3.0569   -1.7431    0.9348 H   0  0  0  0  0  0  0  0  0  0  0  0 
    1.4098   -1.6423    0.2707 H   0  0  0  0  0  0  0  0  0  0  0  0 
    2.3202    1.3164    1.6479 H   0  0  0  0  0  0  0  0  0  0  0  0 
    2.3542    2.1971    0.1194 H   0  0  0  0  0  0  0  0  0  0  0  0 
    3.8681    1.5724    0.8140 H   0  0  0  0  0  0  0  0  0  0  0  0 
    3.4648   -2.4773   -3.7097 H   0  0  0  0  0  0  0  0  0  0  0  0 
    4.4248   -0.5277   -4.9743 H   0  0  0  0  0  0  0  0  0  0  0  0 
    2.6342   -2.1943   -1.4369 H   0  0  0  0  0  0  0  0  0  0  0  0 
    3.6903    1.9940   -1.5929 H   0  0  0  0  0  0  0  0  0  0  0  0 
    4.6666    2.9430   -3.4582 H   0  0  0  0  0  0  0  0  0  0  0  0 
  1 13  1  0  0  0  0 
  1 12  1  0  0  0  0 
  2 17  1  0  0  0  0 
  2 15  1  0  0  0  0 
  3  5  2  0  0  0  0 
  4  8  2  0  0  0  0 
  4  3  1  0  0  0  0 
  5 20  1  0  0  0  0 
  5  9  1  0  0  0  0 
  6 21  1  0  0  0  0 
  6  9  2  0  0  0  0 
  7 22  1  0  0  0  0 
  7  8  1  0  0  0  0 
  8  6  1  0  0  0  0 
  9 10  1  0  0  0  0 
 10  2  1  0  0  0  0 
 10  1  1  0  0  0  0 
 11  7  2  0  0  0  0 
 14  1  1  0  0  0  0 
 16  2  1  0  0  0  0 
 18  3  1  0  0  0  0 
 19  4  1  0  0  0  0 
M  END 
>  <HBA> 
2 
 
>  <HBD> 
0 
 
>  <TPSA> 
20.31 
 
>  <cid> 
34288 
 
>  <dipole> 
5.3 
 
>  <excitation_energy_1> 
3.38 
 
>  <excitation_energy_2> 
3.738 
 
>  <excitation_energy_3> 
4.691 
 
>  <excitation_energy_4> 
4.798 
 
>  <homo_energy> 
-5.423 
 
>  <homo_lumo_gap> 
4.019 
 
>  <logP> 
1.565 
 
>  <lumo_energy> 
-1.404 
 
>  <melting_point> 
47.44 
 
>  <molecular_refractivity> 
46.04 
 
>  <oscillator_strength_1> 
0.0406 
 
>  <oscillator_strength_2> 
0.0001 
 
>  <oscillator_strength_3> 
0.0291 
 
>  <oscillator_strength_4> 
0.009 
 
>  <open_babel_can_smiles> 
O=Cc1cccc(c1)N(C)C 
 
>  <mulliken_charges> 
22 
1   -0.313174 
2   -0.311535 
3   -0.136788 
4   -0.169946 
5   -0.184568 
6   -0.25862 
7   0.194258 
8   0.100646 
9   0.371386 
10   -0.475329 
11   -0.411488 
12   0.157476 
13   0.153988 
14   0.164973 
15   0.157714 
16   0.165127 
17   0.153627 
18   0.133408 
19   0.152644 
20   0.130572 
21   0.131014 
22   0.094616 
 
>  <lowdin_charges> 
22 
1   -0.352129 
2   -0.349126 
3   -0.143607 
4   -0.158444 
5   -0.192914 
6   -0.195637 
7   0.044237 
8   -0.045193 
9   0.05984 
10   -0.118554 
11   -0.229181 
12   0.158797 
13   0.143921 
14   0.154857 
15   0.15869 
16   0.154774 
17   0.141338 
18   0.159339 
19   0.171365 
20   0.163174 
21   0.160632 
22   0.113822 
 
$$$$ 
 
