PCCDB-ID:  25794 
public computational chemistry database (PCCDB) project, http://pccdb.org 
 
 19 18  0  0  0  0  0  0  0  0999 V2000 
    0.7127   -1.1075    0.6241 C   0  0  0  0  0  0  0  0  0  0  0  0 
    1.5372    1.3595   -3.1052 C   0  0  0  0  0  0  0  0  0  0  0  0 
    2.1878   -0.4012   -1.3625 C   0  0  0  0  0  0  0  0  0  0  0  0 
    1.4486   -0.1025   -0.1417 N   0  0  0  0  0  0  0  0  0  0  0  0 
    1.5372   -0.0135   -2.6024 N   0  0  0  0  0  0  0  0  0  0  0  0 
    1.7323    1.0823    0.5042 N   0  0  0  0  0  0  0  0  0  0  0  0 
    0.5167   -0.8294   -3.0566 N   0  0  0  0  0  0  0  0  0  0  0  0 
    2.4277    1.9072   -0.0982 O   0  0  0  0  0  0  0  0  0  0  0  0 
    1.2534    1.2248    1.6262 O   0  0  0  0  0  0  0  0  0  0  0  0 
    0.3890   -1.9352   -2.5208 O   0  0  0  0  0  0  0  0  0  0  0  0 
   -0.1622   -0.3971   -3.9831 O   0  0  0  0  0  0  0  0  0  0  0  0 
    0.5203   -1.9400   -0.0513 H   0  0  0  0  0  0  0  0  0  0  0  0 
   -0.2372   -0.6930    0.9661 H   0  0  0  0  0  0  0  0  0  0  0  0 
    1.2838   -1.4420    1.4970 H   0  0  0  0  0  0  0  0  0  0  0  0 
    2.4058    1.8579   -2.6778 H   0  0  0  0  0  0  0  0  0  0  0  0 
    0.6318    1.8987   -2.8069 H   0  0  0  0  0  0  0  0  0  0  0  0 
    1.6025    1.3509   -4.1939 H   0  0  0  0  0  0  0  0  0  0  0  0 
    2.3538   -1.4757   -1.3934 H   0  0  0  0  0  0  0  0  0  0  0  0 
    3.1403    0.1246   -1.3287 H   0  0  0  0  0  0  0  0  0  0  0  0 
  1 13  1  0  0  0  0 
  1 14  1  0  0  0  0 
  2 16  1  0  0  0  0 
  2 15  1  0  0  0  0 
  2  5  1  0  0  0  0 
  3 19  1  0  0  0  0 
  3  4  1  0  0  0  0 
  4  6  1  0  0  0  0 
  4  1  1  0  0  0  0 
  5  3  1  0  0  0  0 
  6  9  2  0  0  0  0 
  7  5  1  0  0  0  0 
  7 10  2  0  0  0  0 
  8  6  2  0  0  0  0 
 11  7  2  0  0  0  0 
 12  1  1  0  0  0  0 
 17  2  1  0  0  0  0 
 18  3  1  0  0  0  0 
M  END 
>  <HBA> 
2 
 
>  <HBD> 
0 
 
>  <TPSA> 
98.12 
 
>  <cid> 
25794 
 
>  <dipole> 
2.17 
 
>  <excitation_energy_1> 
4.565 
 
>  <excitation_energy_2> 
4.6 
 
>  <excitation_energy_3> 
5.237 
 
>  <excitation_energy_4> 
5.265 
 
>  <homo_energy> 
-7.785 
 
>  <homo_lumo_gap> 
6.15 
 
>  <logP> 
0.237 
 
>  <lumo_energy> 
-1.635 
 
>  <melting_point> 
42.21 
 
>  <molecular_refractivity> 
38.54 
 
>  <oscillator_strength_1> 
0.0 
 
>  <oscillator_strength_2> 
0.0012 
 
>  <oscillator_strength_3> 
0.0249 
 
>  <oscillator_strength_4> 
0.0071 
 
>  <open_babel_can_smiles> 
CN(N(=O)=O)CN(N(=O)=O)C 
 
>  <mulliken_charges> 
19 
1   -0.320907 
2   -0.309794 
3   -0.037669 
4   -0.253342 
5   -0.256068 
6   0.645796 
7   0.650104 
8   -0.442407 
9   -0.411723 
10   -0.440968 
11   -0.407994 
12   0.203693 
13   0.198502 
14   0.181413 
15   0.194261 
16   0.186025 
17   0.194777 
18   0.213277 
19   0.213026 
 
>  <lowdin_charges> 
19 
1   -0.359566 
2   -0.353471 
3   -0.140518 
4   -0.079788 
5   -0.077196 
6   0.338392 
7   0.339484 
8   -0.291068 
9   -0.257028 
10   -0.287318 
11   -0.254087 
12   0.183852 
13   0.177855 
14   0.165044 
15   0.180826 
16   0.167601 
17   0.173599 
18   0.186151 
19   0.187235 
 
$$$$ 
 
