PCCDB-ID:  36486 
public computational chemistry database (PCCDB) project, http://pccdb.org 
 
 27 28  0  0  1  0  0  0  0  0999 V2000 
    0.9896    0.0960   -0.0511 C   0  0  0  0  0  0  0  0  0  0  0  0 
    3.2317    1.2889   -0.0562 C   0  0  0  0  0  0  0  0  0  0  0  0 
    4.6240    1.2681   -0.0470 C   0  0  0  0  0  0  0  0  0  0  0  0 
    5.3308   -2.4837    0.0667 C   0  0  0  0  0  0  0  0  0  0  0  0 
    6.8085   -2.4019   -0.3377 C   0  0  0  0  0  0  0  0  0  0  0  0 
    3.2176   -1.1059   -0.0151 C   0  0  0  0  0  0  0  0  0  0  0  0 
    6.8560    0.0878   -0.0584 C   0  0  0  0  0  0  0  0  0  0  0  0 
    2.5014    0.0947   -0.0413 C   0  0  0  0  0  0  0  0  0  0  0  0 
    4.6169   -1.1442   -0.0039 C   0  0  0  0  0  0  0  0  0  0  0  0 
    5.3379    0.0638   -0.0257 C   0  0  0  0  0  0  0  0  0  0  0  0 
    7.5094   -1.2307    0.3712 C   0  0  2  0  0  0  0  0  0  0  0  0 
    8.9586   -1.1381    0.1551 N   0  0  0  0  0  0  0  0  0  0  0  0 
    0.5925    1.1152   -0.0941 H   0  0  0  0  0  0  0  0  0  0  0  0 
    0.5806   -0.3822    0.8480 H   0  0  0  0  0  0  0  0  0  0  0  0 
    0.5922   -0.4528   -0.9142 H   0  0  0  0  0  0  0  0  0  0  0  0 
    2.7062    2.2411   -0.0752 H   0  0  0  0  0  0  0  0  0  0  0  0 
    5.1735    2.2075   -0.0583 H   0  0  0  0  0  0  0  0  0  0  0  0 
    5.2672   -2.8652    1.0975 H   0  0  0  0  0  0  0  0  0  0  0  0 
    4.8038   -3.2190   -0.5545 H   0  0  0  0  0  0  0  0  0  0  0  0 
    6.8971   -2.2616   -1.4258 H   0  0  0  0  0  0  0  0  0  0  0  0 
    7.3145   -3.3465   -0.0965 H   0  0  0  0  0  0  0  0  0  0  0  0 
    2.6698   -2.0480   -0.0012 H   0  0  0  0  0  0  0  0  0  0  0  0 
    7.2412    0.9046    0.5630 H   0  0  0  0  0  0  0  0  0  0  0  0 
    7.1888    0.3118   -1.0859 H   0  0  0  0  0  0  0  0  0  0  0  0 
    7.3627   -1.3528    1.4547 H   0  0  0  0  0  0  0  0  0  0  0  0 
    9.1446   -1.0616   -0.8461 H   0  0  0  0  0  0  0  0  0  0  0  0 
    9.4038   -2.0057    0.4543 H   0  0  0  0  0  0  0  0  0  0  0  0 
  1  8  1  0  0  0  0 
  1 14  1  0  0  0  0 
  2  3  2  0  0  0  0 
  2  8  1  0  0  0  0 
  3 10  1  0  0  0  0 
  4 18  1  0  0  0  0 
  5 21  1  0  0  0  0 
  5  4  1  0  0  0  0 
  5 11  1  0  0  0  0 
  6  9  1  0  0  0  0 
  6 22  1  0  0  0  0 
  7 10  1  0  0  0  0 
  7 11  1  0  0  0  0 
  7 23  1  0  0  0  0 
  8  6  2  0  0  0  0 
  9  4  1  0  0  0  0 
 10  9  2  0  0  0  0 
 11 25  1  1  0  0  0 
 12 11  1  0  0  0  0 
 12 27  1  0  0  0  0 
 13  1  1  0  0  0  0 
 15  1  1  0  0  0  0 
 16  2  1  0  0  0  0 
 17  3  1  0  0  0  0 
 19  4  1  0  0  0  0 
 20  5  1  0  0  0  0 
 24  7  1  0  0  0  0 
 26 12  1  0  0  0  0 
M  END 
>  <HBA> 
1 
 
>  <HBD> 
1 
 
>  <TPSA> 
26.02 
 
>  <cid> 
36486 
 
>  <dipole> 
1.52 
 
>  <excitation_energy_1> 
5.02 
 
>  <excitation_energy_2> 
5.533 
 
>  <excitation_energy_3> 
5.58 
 
>  <excitation_energy_4> 
5.653 
 
>  <homo_energy> 
-6.038 
 
>  <homo_lumo_gap> 
6.133 
 
>  <logP> 
2.511 
 
>  <lumo_energy> 
0.095 
 
>  <melting_point> 
92.33 
 
>  <molecular_refractivity> 
51.55 
 
>  <oscillator_strength_1> 
0.0189 
 
>  <oscillator_strength_2> 
0.0203 
 
>  <oscillator_strength_3> 
0.0155 
 
>  <oscillator_strength_4> 
0.005 
 
>  <open_babel_can_smiles> 
N[C@@H]1CCc2c(C1)ccc(c2)C 
 
>  <mulliken_charges> 
27 
1   -0.53077 
2   -0.185871 
3   -0.189214 
4   -0.346009 
5   -0.272831 
6   -0.245727 
7   -0.334438 
8   0.185157 
9   0.124922 
10   0.119634 
11   0.016779 
12   -0.712441 
13   0.152822 
14   0.160017 
15   0.159334 
16   0.116844 
17   0.118827 
18   0.15032 
19   0.144384 
20   0.127318 
21   0.122653 
22   0.109453 
23   0.158897 
24   0.138096 
25   0.132953 
26   0.286919 
27   0.291973 
 
>  <lowdin_charges> 
27 
1   -0.443173 
2   -0.172718 
3   -0.163222 
4   -0.276963 
5   -0.292186 
6   -0.175277 
7   -0.276574 
8   -0.001409 
9   -0.014374 
10   -0.020109 
11   -0.067349 
12   -0.545386 
13   0.154766 
14   0.159592 
15   0.15955 
16   0.152326 
17   0.153327 
18   0.150096 
19   0.153248 
20   0.135722 
21   0.139876 
22   0.149019 
23   0.160414 
24   0.145401 
25   0.136713 
26   0.24671 
27   0.251979 
 
$$$$ 
 
