PCCDB-ID:  17412 
public computational chemistry database (PCCDB) project, http://pccdb.org 
 
 18 18  0  0  0  0  0  0  0  0999 V2000 
    0.9234    0.1976    0.4755 C   0  0  0  0  0  0  0  0  0  0  0  0 
    5.1835    0.0984   -0.4153 C   0  0  0  0  0  0  0  0  0  0  0  0 
    4.4764   -1.0919   -0.3706 C   0  0  0  0  0  0  0  0  0  0  0  0 
    3.1359    1.2848    0.1120 C   0  0  0  0  0  0  0  0  0  0  0  0 
    2.3977    0.1008    0.1641 C   0  0  0  0  0  0  0  0  0  0  0  0 
    4.5058    1.2990   -0.1703 C   0  0  0  0  0  0  0  0  0  0  0  0 
    3.1070   -1.0982   -0.0864 C   0  0  0  0  0  0  0  0  0  0  0  0 
    2.4595   -2.4123   -0.0638 N   0  0  0  0  0  0  0  0  0  0  0  0 
    5.1206    2.5101   -0.1934 O   0  0  0  0  0  0  0  0  0  0  0  0 
    3.1532   -3.4019   -0.3129 O   0  0  0  0  0  0  0  0  0  0  0  0 
    1.2562   -2.4746    0.2010 O   0  0  0  0  0  0  0  0  0  0  0  0 
    0.6455    1.2465    0.6139 H   0  0  0  0  0  0  0  0  0  0  0  0 
    0.6667   -0.3596    1.3806 H   0  0  0  0  0  0  0  0  0  0  0  0 
    0.3141   -0.2295   -0.3256 H   0  0  0  0  0  0  0  0  0  0  0  0 
    6.2484    0.0964   -0.6359 H   0  0  0  0  0  0  0  0  0  0  0  0 
    4.9673   -2.0387   -0.5546 H   0  0  0  0  0  0  0  0  0  0  0  0 
    2.6438    2.2347    0.2942 H   0  0  0  0  0  0  0  0  0  0  0  0 
    6.0616    2.3912   -0.3982 H   0  0  0  0  0  0  0  0  0  0  0  0 
  1 12  1  0  0  0  0 
  1 13  1  0  0  0  0 
  2  3  2  0  0  0  0 
  2  6  1  0  0  0  0 
  3  7  1  0  0  0  0 
  4  5  1  0  0  0  0 
  4 17  1  0  0  0  0 
  5  1  1  0  0  0  0 
  6  4  2  0  0  0  0 
  7  8  1  0  0  0  0 
  7  5  2  0  0  0  0 
  8 11  2  0  0  0  0 
  9  6  1  0  0  0  0 
 10  8  2  0  0  0  0 
 14  1  1  0  0  0  0 
 15  2  1  0  0  0  0 
 16  3  1  0  0  0  0 
 18  9  1  0  0  0  0 
M  END 
>  <HBA> 
1 
 
>  <HBD> 
1 
 
>  <TPSA> 
66.05 
 
>  <cid> 
17412 
 
>  <dipole> 
4.92 
 
>  <excitation_energy_1> 
3.731 
 
>  <excitation_energy_2> 
4.247 
 
>  <excitation_energy_3> 
4.328 
 
>  <excitation_energy_4> 
4.334 
 
>  <homo_energy> 
-6.827 
 
>  <homo_lumo_gap> 
4.708 
 
>  <logP> 
2.132 
 
>  <lumo_energy> 
-2.12 
 
>  <melting_point> 
87.92 
 
>  <molecular_refractivity> 
42.25 
 
>  <oscillator_strength_1> 
0.0001 
 
>  <oscillator_strength_2> 
0.2529 
 
>  <oscillator_strength_3> 
0.023 
 
>  <oscillator_strength_4> 
0.0013 
 
>  <open_babel_can_smiles> 
Oc1ccc(c(c1)C)N(=O)=O 
 
>  <mulliken_charges> 
18 
1   -0.501298 
2   -0.204961 
3   -0.156963 
4   -0.239594 
5   0.165889 
6   0.383969 
7   0.214867 
8   0.371992 
9   -0.62876 
10   -0.406757 
11   -0.411436 
12   0.14903 
13   0.185647 
14   0.185027 
15   0.137367 
16   0.188718 
17   0.150954 
18   0.416308 
 
>  <lowdin_charges> 
18 
1   -0.437753 
2   -0.209639 
3   -0.124039 
4   -0.192931 
5   0.038639 
6   0.121079 
7   -0.029037 
8   0.306545 
9   -0.354368 
10   -0.262201 
11   -0.24994 
12   0.152057 
13   0.176744 
14   0.177142 
15   0.16096 
16   0.19079 
17   0.173447 
18   0.362506 
 
$$$$ 
 
