PCCDB-ID:  51357 
public computational chemistry database (PCCDB) project, http://pccdb.org 
 
 27 28  0  0  0  0  0  0  0  0999 V2000 
    0.4817   -0.5111   -0.1116 C   0  0  0  0  0  0  0  0  0  0  0  0 
    9.6098    2.1369    0.5676 C   0  0  0  0  0  0  0  0  0  0  0  0 
    5.1919   -1.6442   -0.2142 C   0  0  0  0  0  0  0  0  0  0  0  0 
    6.4054   -0.9602   -0.2174 C   0  0  0  0  0  0  0  0  0  0  0  0 
    2.6639    0.9200   -0.1253 C   0  0  0  0  0  0  0  0  0  0  0  0 
    1.9421   -0.2340   -0.1356 C   0  0  0  0  0  0  0  0  0  0  0  0 
    8.2895    1.4865    0.8884 C   0  0  0  0  0  0  0  0  0  0  0  0 
    4.0513    0.5385   -0.1541 C   0  0  0  0  0  0  0  0  0  0  0  0 
    4.0453   -0.8689   -0.1801 C   0  0  0  0  0  0  0  0  0  0  0  0 
    6.4504    0.4388   -0.1915 C   0  0  0  0  0  0  0  0  0  0  0  0 
    5.2874    1.2316   -0.1662 C   0  0  0  0  0  0  0  0  0  0  0  0 
    5.2477    2.7141   -0.1526 C   0  0  0  0  0  0  0  0  0  0  0  0 
    7.7809    1.3871    1.9748 O   0  0  0  0  0  0  0  0  0  0  0  0 
    4.2231    3.3683   -0.0789 O   0  0  0  0  0  0  0  0  0  0  0  0 
    6.4545    3.3305   -0.2463 O   0  0  0  0  0  0  0  0  0  0  0  0 
    2.7627   -1.3420   -0.1697 O   0  0  0  0  0  0  0  0  0  0  0  0 
    7.7207    1.0023   -0.2677 O   0  0  0  0  0  0  0  0  0  0  0  0 
   -0.0769    0.4277   -0.0861 H   0  0  0  0  0  0  0  0  0  0  0  0 
    0.2069   -1.1045    0.7690 H   0  0  0  0  0  0  0  0  0  0  0  0 
    0.1718   -1.0776   -0.9983 H   0  0  0  0  0  0  0  0  0  0  0  0 
   10.1181    2.4065    1.4940 H   0  0  0  0  0  0  0  0  0  0  0  0 
    9.4265    3.0352   -0.0311 H   0  0  0  0  0  0  0  0  0  0  0  0 
   10.2359    1.4658   -0.0281 H   0  0  0  0  0  0  0  0  0  0  0  0 
    5.1448   -2.7278   -0.2342 H   0  0  0  0  0  0  0  0  0  0  0  0 
    7.3462   -1.4988   -0.2423 H   0  0  0  0  0  0  0  0  0  0  0  0 
    2.2746    1.9245   -0.0985 H   0  0  0  0  0  0  0  0  0  0  0  0 
    6.2441    4.2829   -0.2108 H   0  0  0  0  0  0  0  0  0  0  0  0 
  1 18  1  0  0  0  0 
  1 19  1  0  0  0  0 
  2  7  1  0  0  0  0 
  2 21  1  0  0  0  0 
  3  9  1  0  0  0  0 
  4  3  2  0  0  0  0 
  4 10  1  0  0  0  0 
  5 26  1  0  0  0  0 
  6  5  2  0  0  0  0 
  6  1  1  0  0  0  0 
  7 13  2  0  0  0  0 
  8  5  1  0  0  0  0 
  9 16  1  0  0  0  0 
  9  8  2  0  0  0  0 
 10 11  2  0  0  0  0 
 11  8  1  0  0  0  0 
 11 12  1  0  0  0  0 
 12 14  2  0  0  0  0 
 15 27  1  0  0  0  0 
 15 12  1  0  0  0  0 
 16  6  1  0  0  0  0 
 17 10  1  0  0  0  0 
 17  7  1  0  0  0  0 
 20  1  1  0  0  0  0 
 22  2  1  0  0  0  0 
 23  2  1  0  0  0  0 
 24  3  1  0  0  0  0 
 25  4  1  0  0  0  0 
M  END 
>  <HBA> 
5 
 
>  <HBD> 
1 
 
>  <TPSA> 
76.74 
 
>  <cid> 
51357 
 
>  <dipole> 
1.75 
 
>  <excitation_energy_1> 
4.01 
 
>  <excitation_energy_2> 
4.515 
 
>  <excitation_energy_3> 
4.765 
 
>  <excitation_energy_4> 
5.215 
 
>  <homo_energy> 
-6.125 
 
>  <homo_lumo_gap> 
4.574 
 
>  <logP> 
2.365 
 
>  <lumo_energy> 
-1.551 
 
>  <melting_point> 
170.89 
 
>  <molecular_refractivity> 
59.64 
 
>  <oscillator_strength_1> 
0.2003 
 
>  <oscillator_strength_2> 
0.0874 
 
>  <oscillator_strength_3> 
0.0001 
 
>  <oscillator_strength_4> 
0.009 
 
>  <open_babel_can_smiles> 
CC(=O)Oc1ccc2c(c1C(=O)O)cc(o2)C 
 
>  <mulliken_charges> 
27 
1   -0.534844 
2   -0.527491 
3   -0.18709 
4   -0.175151 
5   -0.229971 
6   0.34879 
7   0.609484 
8   0.032442 
9   0.335177 
10   0.313619 
11   0.03155 
12   0.561501 
13   -0.444625 
14   -0.4848 
15   -0.588318 
16   -0.511508 
17   -0.524314 
18   0.176281 
19   0.179463 
20   0.178016 
21   0.182173 
22   0.190497 
23   0.180231 
24   0.15695 
25   0.145235 
26   0.17589 
27   0.410812 
 
>  <lowdin_charges> 
27 
1   -0.441843 
2   -0.465678 
3   -0.145759 
4   -0.173883 
5   -0.218391 
6   0.101733 
7   0.214332 
8   0.000558 
9   0.07943 
10   0.115355 
11   -0.066539 
12   0.206965 
13   -0.240083 
14   -0.277167 
15   -0.353335 
16   -0.119888 
17   -0.167878 
18   0.173835 
19   0.173147 
20   0.172426 
21   0.176023 
22   0.183239 
23   0.178311 
24   0.174006 
25   0.17228 
26   0.1886 
27   0.360204 
 
$$$$ 
 
