PCCDB-ID:  10113 
public computational chemistry database (PCCDB) project, http://pccdb.org 
 
 10  9  0  0  0  0  0  0  0  0999 V2000 
    0.8260   -0.4633    0.0087 C   0  0  0  0  0  0  0  0  0  0  0  0 
   -0.0729    0.3038   -0.9891 C   0  0  0  0  0  0  0  0  0  0  0  0 
    0.4149   -0.2899    1.2808 N   0  0  0  0  0  0  0  0  0  0  0  0 
    0.3365    0.1282   -2.2614 N   0  0  0  0  0  0  0  0  0  0  0  0 
    1.7828   -1.1326   -0.3643 O   0  0  0  0  0  0  0  0  0  0  0  0 
   -1.0285    0.9748   -0.6159 O   0  0  0  0  0  0  0  0  0  0  0  0 
   -0.3947    0.2925    1.4494 H   0  0  0  0  0  0  0  0  0  0  0  0 
    0.9091   -0.7327    2.0408 H   0  0  0  0  0  0  0  0  0  0  0  0 
    1.1461   -0.4542   -2.4301 H   0  0  0  0  0  0  0  0  0  0  0  0 
   -0.1574    0.5715   -3.0214 H   0  0  0  0  0  0  0  0  0  0  0  0 
  1  3  1  0  0  0  0 
  2  6  2  0  0  0  0 
  2  1  1  0  0  0  0 
  3  7  1  0  0  0  0 
  3  8  1  0  0  0  0 
  4  2  1  0  0  0  0 
  5  1  2  0  0  0  0 
  9  4  1  0  0  0  0 
 10  4  1  0  0  0  0 
M  END 
>  <HBA> 
4 
 
>  <HBD> 
2 
 
>  <TPSA> 
86.18 
 
>  <cid> 
10113 
 
>  <dipole> 
0.0 
 
>  <excitation_energy_1> 
4.143 
 
>  <excitation_energy_2> 
5.852 
 
>  <excitation_energy_3> 
5.888 
 
>  <excitation_energy_4> 
6.236 
 
>  <homo_energy> 
-6.64 
 
>  <homo_lumo_gap> 
5.709 
 
>  <logP> 
-0.642 
 
>  <lumo_energy> 
-0.931 
 
>  <melting_point> 
127.37 
 
>  <molecular_refractivity> 
17.54 
 
>  <oscillator_strength_1> 
0.0 
 
>  <oscillator_strength_2> 
0.0 
 
>  <oscillator_strength_3> 
0.0 
 
>  <oscillator_strength_4> 
0.0 
 
>  <open_babel_can_smiles> 
NC(=O)C(=O)N 
 
>  <mulliken_charges> 
10 
1   0.54522 
2   0.54496 
3   -0.739927 
4   -0.739882 
5   -0.523288 
6   -0.523261 
7   0.369624 
8   0.348465 
9   0.369624 
10   0.348466 
 
>  <lowdin_charges> 
10 
1   0.131648 
2   0.131635 
3   -0.432088 
4   -0.43209 
5   -0.306325 
6   -0.306327 
7   0.308085 
8   0.298688 
9   0.308084 
10   0.298688 
 
$$$$ 
 
