PCCDB-ID:  7060 
public computational chemistry database (PCCDB) project, http://pccdb.org 
 
 20 21  0  0  0  0  0  0  0  0999 V2000 
    0.9811   -0.0625   -0.1765 C   0  0  0  0  0  0  0  0  0  0  0  0 
    7.3246   -1.1431    0.1877 C   0  0  0  0  0  0  0  0  0  0  0  0 
    6.5925   -2.3534    0.1112 C   0  0  0  0  0  0  0  0  0  0  0  0 
    6.6670    0.0675    0.1769 C   0  0  0  0  0  0  0  0  0  0  0  0 
    5.2174   -2.3370    0.0262 C   0  0  0  0  0  0  0  0  0  0  0  0 
    3.1389    1.2712   -0.0126 C   0  0  0  0  0  0  0  0  0  0  0  0 
    4.5067    1.3230    0.0731 C   0  0  0  0  0  0  0  0  0  0  0  0 
    2.4860    0.0041   -0.0832 C   0  0  0  0  0  0  0  0  0  0  0  0 
    5.2521    0.1154    0.0899 C   0  0  0  0  0  0  0  0  0  0  0  0 
    4.5117   -1.1057    0.0138 C   0  0  0  0  0  0  0  0  0  0  0  0 
    3.1477   -1.1384   -0.0710 N   0  0  0  0  0  0  0  0  0  0  0  0 
    0.6173    0.4533   -1.0743 H   0  0  0  0  0  0  0  0  0  0  0  0 
    0.5092    0.4236    0.6869 H   0  0  0  0  0  0  0  0  0  0  0  0 
    0.6595   -1.1051   -0.2142 H   0  0  0  0  0  0  0  0  0  0  0  0 
    8.4086   -1.1741    0.2546 H   0  0  0  0  0  0  0  0  0  0  0  0 
    7.1249   -3.3007    0.1205 H   0  0  0  0  0  0  0  0  0  0  0  0 
    7.2226    1.0009    0.2352 H   0  0  0  0  0  0  0  0  0  0  0  0 
    4.6359   -3.2517   -0.0329 H   0  0  0  0  0  0  0  0  0  0  0  0 
    2.5455    2.1814   -0.0282 H   0  0  0  0  0  0  0  0  0  0  0  0 
    5.0288    2.2759    0.1278 H   0  0  0  0  0  0  0  0  0  0  0  0 
  1  8  1  0  0  0  0 
  1 13  1  0  0  0  0 
  2 15  1  0  0  0  0 
  3 16  1  0  0  0  0 
  3  2  2  0  0  0  0 
  4  2  1  0  0  0  0 
  4 17  1  0  0  0  0 
  5  3  1  0  0  0  0 
  6  7  2  0  0  0  0 
  7  9  1  0  0  0  0 
  7 20  1  0  0  0  0 
  8 11  2  0  0  0  0 
  8  6  1  0  0  0  0 
  9  4  2  0  0  0  0 
 10  5  2  0  0  0  0 
 10  9  1  0  0  0  0 
 11 10  1  0  0  0  0 
 12  1  1  0  0  0  0 
 14  1  1  0  0  0  0 
 18  5  1  0  0  0  0 
 19  6  1  0  0  0  0 
M  END 
>  <HBA> 
1 
 
>  <HBD> 
0 
 
>  <TPSA> 
12.89 
 
>  <cid> 
7060 
 
>  <dipole> 
1.73 
 
>  <excitation_energy_1> 
4.349 
 
>  <excitation_energy_2> 
4.409 
 
>  <excitation_energy_3> 
4.499 
 
>  <excitation_energy_4> 
5.177 
 
>  <homo_energy> 
-6.191 
 
>  <homo_lumo_gap> 
4.95 
 
>  <logP> 
2.543 
 
>  <lumo_energy> 
-1.241 
 
>  <melting_point> 
67.99 
 
>  <molecular_refractivity> 
46.71 
 
>  <oscillator_strength_1> 
0.0013 
 
>  <oscillator_strength_2> 
0.0336 
 
>  <oscillator_strength_3> 
0.03 
 
>  <oscillator_strength_4> 
0.0 
 
>  <open_babel_can_smiles> 
Cc1ccc2c(n1)cccc2 
 
>  <mulliken_charges> 
20 
1   -0.522591 
2   -0.133167 
3   -0.137384 
4   -0.197418 
5   -0.144622 
6   -0.176358 
7   -0.147753 
8   0.315842 
9   0.154281 
10   0.236732 
11   -0.553519 
12   0.160508 
13   0.160273 
14   0.17769 
15   0.132099 
16   0.13326 
17   0.130696 
18   0.141822 
19   0.13108 
20   0.138529 
 
>  <lowdin_charges> 
20 
1   -0.449774 
2   -0.155437 
3   -0.153481 
4   -0.157795 
5   -0.153302 
6   -0.186847 
7   -0.127404 
8   0.060321 
9   -0.018755 
10   0.042474 
11   -0.162836 
12   0.162188 
13   0.162314 
14   0.170246 
15   0.157425 
16   0.160365 
17   0.15788 
18   0.168933 
19   0.162093 
20   0.161391 
 
$$$$ 
 
