PCCDB-ID:  16658 
public computational chemistry database (PCCDB) project, http://pccdb.org 
 
 19 19  0  0  0  0  0  0  0  0999 V2000 
    0.7457    1.2938   -0.2266 C   0  0  0  0  0  0  0  0  0  0  0  0 
    1.4659    0.0206    0.2440 C   0  0  0  0  0  0  0  0  0  0  0  0 
   -0.7181    1.2849    0.2411 C   0  0  0  0  0  0  0  0  0  0  0  0 
    0.6782   -1.2300   -0.1836 C   0  0  0  0  0  0  0  0  0  0  0  0 
   -1.4103   -0.0211   -0.1852 C   0  0  0  0  0  0  0  0  0  0  0  0 
   -0.7533   -1.2934    1.7241 N   0  0  0  0  0  0  0  0  0  0  0  0 
   -0.7320   -1.2568    0.2418 N   0  0  0  0  0  0  0  0  0  0  0  0 
    0.7761    1.3432   -1.3263 H   0  0  0  0  0  0  0  0  0  0  0  0 
    1.2632    2.1889    0.1408 H   0  0  0  0  0  0  0  0  0  0  0  0 
    1.5575    0.0320    1.3360 H   0  0  0  0  0  0  0  0  0  0  0  0 
    2.4817   -0.0280   -0.1699 H   0  0  0  0  0  0  0  0  0  0  0  0 
   -1.2653    2.1413   -0.1747 H   0  0  0  0  0  0  0  0  0  0  0  0 
   -0.7554    1.3714    1.3330 H   0  0  0  0  0  0  0  0  0  0  0  0 
    1.1604   -2.1434    0.1896 H   0  0  0  0  0  0  0  0  0  0  0  0 
    0.6655   -1.3067   -1.2794 H   0  0  0  0  0  0  0  0  0  0  0  0 
   -1.4710   -0.0717   -1.2809 H   0  0  0  0  0  0  0  0  0  0  0  0 
   -2.4426   -0.0570    0.1878 H   0  0  0  0  0  0  0  0  0  0  0  0 
   -0.3633   -2.2150    1.9427 H   0  0  0  0  0  0  0  0  0  0  0  0 
   -1.7474   -1.4071    1.9433 H   0  0  0  0  0  0  0  0  0  0  0  0 
  1  9  1  0  0  0  0 
  1  3  1  0  0  0  0 
  1  2  1  0  0  0  0 
  2 10  1  0  0  0  0 
  3 13  1  0  0  0  0 
  4 14  1  0  0  0  0 
  4  7  1  0  0  0  0 
  4  2  1  0  0  0  0 
  5 17  1  0  0  0  0 
  5  3  1  0  0  0  0 
  5  7  1  0  0  0  0 
  6 18  1  0  0  0  0 
  6 19  1  0  0  0  0 
  7  6  1  0  0  0  0 
  8  1  1  0  0  0  0 
 11  2  1  0  0  0  0 
 12  3  1  0  0  0  0 
 15  4  1  0  0  0  0 
 16  5  1  0  0  0  0 
M  END 
>  <HBA> 
2 
 
>  <HBD> 
1 
 
>  <TPSA> 
29.26 
 
>  <cid> 
16658 
 
>  <dipole> 
0.37 
 
>  <excitation_energy_1> 
4.423 
 
>  <excitation_energy_2> 
5.041 
 
>  <excitation_energy_3> 
5.144 
 
>  <excitation_energy_4> 
5.201 
 
>  <homo_energy> 
-4.904 
 
>  <homo_lumo_gap> 
6.928 
 
>  <logP> 
0.984 
 
>  <lumo_energy> 
2.025 
 
>  <melting_point> 
53.56 
 
>  <molecular_refractivity> 
33.55 
 
>  <oscillator_strength_1> 
0.0006 
 
>  <oscillator_strength_2> 
0.0096 
 
>  <oscillator_strength_3> 
0.0114 
 
>  <oscillator_strength_4> 
0.0025 
 
>  <open_babel_can_smiles> 
NN1CCCCC1 
 
>  <mulliken_charges> 
19 
1   -0.261385 
2   -0.254901 
3   -0.254491 
4   -0.136121 
5   -0.136738 
6   -0.58781 
7   -0.312984 
8   0.121456 
9   0.131051 
10   0.153978 
11   0.124168 
12   0.12414 
13   0.15373 
14   0.128222 
15   0.138581 
16   0.138768 
17   0.128265 
18   0.301089 
19   0.300984 
 
>  <lowdin_charges> 
19 
1   -0.274992 
2   -0.291006 
3   -0.293171 
4   -0.210126 
5   -0.208292 
6   -0.488886 
7   -0.155528 
8   0.131187 
9   0.143852 
10   0.149598 
11   0.141482 
12   0.143171 
13   0.149503 
14   0.139857 
15   0.14155 
16   0.141615 
17   0.138072 
18   0.251473 
19   0.250641 
 
$$$$ 
 
