PCCDB-ID:  66969 
public computational chemistry database (PCCDB) project, http://pccdb.org 
 
 19 18  0  0  0  0  0  0  0  0999 V2000 
    0.7666    0.0255    0.1514 C   0  0  0  0  0  0  0  0  0  0  0  0 
    2.1917    0.3731    2.2226 C   0  0  0  0  0  0  0  0  0  0  0  0 
    4.4453   -2.8121    0.0451 C   0  0  0  0  0  0  0  0  0  0  0  0 
    5.8837   -3.0818    0.0745 C   0  0  0  0  0  0  0  0  0  0  0  0 
    4.1008   -1.4183    0.5920 C   0  0  0  0  0  0  0  0  0  0  0  0 
    2.1755    0.0185    0.7333 C   0  0  0  0  0  0  0  0  0  0  0  0 
    7.0278   -3.2766    0.1053 N   0  0  0  0  0  0  0  0  0  0  0  0 
    2.6993   -1.2957    0.4961 O   0  0  0  0  0  0  0  0  0  0  0  0 
    0.3087    1.0137    0.2658 H   0  0  0  0  0  0  0  0  0  0  0  0 
    0.1385   -0.7082    0.6689 H   0  0  0  0  0  0  0  0  0  0  0  0 
    0.7883   -0.2299   -0.9125 H   0  0  0  0  0  0  0  0  0  0  0  0 
    1.7764    1.3744    2.3816 H   0  0  0  0  0  0  0  0  0  0  0  0 
    3.2071    0.3671    2.6327 H   0  0  0  0  0  0  0  0  0  0  0  0 
    1.5885   -0.3456    2.7888 H   0  0  0  0  0  0  0  0  0  0  0  0 
    3.9207   -3.5716    0.6361 H   0  0  0  0  0  0  0  0  0  0  0  0 
    4.0788   -2.8956   -0.9843 H   0  0  0  0  0  0  0  0  0  0  0  0 
    4.6089   -0.6426   -0.0025 H   0  0  0  0  0  0  0  0  0  0  0  0 
    4.4549   -1.3299    1.6295 H   0  0  0  0  0  0  0  0  0  0  0  0 
    2.7982    0.7445    0.1835 H   0  0  0  0  0  0  0  0  0  0  0  0 
  1  9  1  0  0  0  0 
  1 10  1  0  0  0  0 
  1  6  1  0  0  0  0 
  2 12  1  0  0  0  0 
  2 13  1  0  0  0  0 
  2 14  1  0  0  0  0 
  3  4  1  0  0  0  0 
  3  5  1  0  0  0  0 
  3 15  1  0  0  0  0 
  4  7  3  0  0  0  0 
  5 18  1  0  0  0  0 
  6  2  1  0  0  0  0 
  8  5  1  0  0  0  0 
  8  6  1  0  0  0  0 
 11  1  1  0  0  0  0 
 16  3  1  0  0  0  0 
 17  5  1  0  0  0  0 
 19  6  1  0  0  0  0 
M  END 
>  <HBA> 
2 
 
>  <HBD> 
0 
 
>  <TPSA> 
33.02 
 
>  <cid> 
66969 
 
>  <dipole> 
3.98 
 
>  <excitation_energy_1> 
6.613 
 
>  <excitation_energy_2> 
7.058 
 
>  <excitation_energy_3> 
7.226 
 
>  <excitation_energy_4> 
7.284 
 
>  <homo_energy> 
-7.304 
 
>  <homo_lumo_gap> 
8.174 
 
>  <logP> 
1.325 
 
>  <lumo_energy> 
0.871 
 
>  <melting_point> 
-1.61 
 
>  <molecular_refractivity> 
31.79 
 
>  <oscillator_strength_1> 
0.0062 
 
>  <oscillator_strength_2> 
0.0121 
 
>  <oscillator_strength_3> 
0.0035 
 
>  <oscillator_strength_4> 
0.022 
 
>  <open_babel_can_smiles> 
CC(OCCC#N)C 
 
>  <mulliken_charges> 
19 
1   -0.448231 
2   -0.45845 
3   -0.354494 
4   0.344174 
5   -0.004978 
6   0.15554 
7   -0.469703 
8   -0.486696 
9   0.145246 
10   0.155667 
11   0.155632 
12   0.14827 
13   0.149755 
14   0.155543 
15   0.206119 
16   0.204373 
17   0.140625 
18   0.145069 
19   0.11654 
 
>  <lowdin_charges> 
19 
1   -0.44651 
2   -0.459718 
3   -0.276658 
4   -0.01921 
5   -0.120765 
6   0.01027 
7   -0.125326 
8   -0.276536 
9   0.154321 
10   0.157815 
11   0.156451 
12   0.156182 
13   0.152053 
14   0.157471 
15   0.189382 
16   0.18626 
17   0.139152 
18   0.137605 
19   0.127761 
 
$$$$ 
 
