PCCDB-ID:  28455 
public computational chemistry database (PCCDB) project, http://pccdb.org 
 
 32 31  0  0  1  0  0  0  0  0999 V2000 
    0.1302    0.5031    3.5174 C   0  0  0  0  0  0  0  0  0  0  0  0 
    6.9860   -3.3296    1.1356 C   0  0  0  0  0  0  0  0  0  0  0  0 
    7.6633    1.0139    2.3681 C   0  0  0  0  0  0  0  0  0  0  0  0 
    1.2632    0.3088    2.5045 C   0  0  0  0  0  0  0  0  0  0  0  0 
    6.8127   -2.0238    1.9198 C   0  0  0  0  0  0  0  0  0  0  0  0 
    2.6556    0.5592    3.0981 C   0  0  0  0  0  0  0  0  0  0  0  0 
    3.7983    0.3529    2.0947 C   0  0  0  0  0  0  0  0  0  0  0  0 
    6.5242   -0.8244    1.0044 C   0  0  0  0  0  0  0  0  0  0  0  0 
    5.1860    0.6132    2.6972 C   0  0  0  0  0  0  0  0  0  0  0  0 
    6.3599    0.5488    1.6974 C   0  0  1  0  0  0  0  0  0  0  0  0 
   -0.8504    0.3210    3.0628 H   0  0  0  0  0  0  0  0  0  0  0  0 
    0.1271    1.5246    3.9177 H   0  0  0  0  0  0  0  0  0  0  0  0 
    0.2362   -0.1832    4.3667 H   0  0  0  0  0  0  0  0  0  0  0  0 
    7.1893   -4.1748    1.8033 H   0  0  0  0  0  0  0  0  0  0  0  0 
    7.8192   -3.2582    0.4254 H   0  0  0  0  0  0  0  0  0  0  0  0 
    6.0832   -3.5693    0.5599 H   0  0  0  0  0  0  0  0  0  0  0  0 
    8.5091    0.9662    1.6712 H   0  0  0  0  0  0  0  0  0  0  0  0 
    7.9153    0.3973    3.2393 H   0  0  0  0  0  0  0  0  0  0  0  0 
    7.5755    2.0498    2.7168 H   0  0  0  0  0  0  0  0  0  0  0  0 
    1.1086    0.9814    1.6487 H   0  0  0  0  0  0  0  0  0  0  0  0 
    1.2206   -0.7123    2.0992 H   0  0  0  0  0  0  0  0  0  0  0  0 
    7.7196   -1.8358    2.5095 H   0  0  0  0  0  0  0  0  0  0  0  0 
    5.9973   -2.1473    2.6451 H   0  0  0  0  0  0  0  0  0  0  0  0 
    2.8052   -0.1059    3.9619 H   0  0  0  0  0  0  0  0  0  0  0  0 
    2.7008    1.5845    3.4950 H   0  0  0  0  0  0  0  0  0  0  0  0 
    3.6465    1.0186    1.2316 H   0  0  0  0  0  0  0  0  0  0  0  0 
    3.7451   -0.6715    1.7008 H   0  0  0  0  0  0  0  0  0  0  0  0 
    5.6222   -1.0419    0.4157 H   0  0  0  0  0  0  0  0  0  0  0  0 
    7.3414   -0.7387    0.2727 H   0  0  0  0  0  0  0  0  0  0  0  0 
    5.3629   -0.0927    3.5217 H   0  0  0  0  0  0  0  0  0  0  0  0 
    5.1863    1.6121    3.1579 H   0  0  0  0  0  0  0  0  0  0  0  0 
    6.1358    1.2696    0.8952 H   0  0  0  0  0  0  0  0  0  0  0  0 
  1 12  1  0  0  0  0 
  1 13  1  0  0  0  0 
  2 14  1  0  0  0  0 
  2  5  1  0  0  0  0 
  3 19  1  0  0  0  0 
  3 18  1  0  0  0  0 
  4  6  1  0  0  0  0 
  4  1  1  0  0  0  0 
  5 22  1  0  0  0  0 
  5 23  1  0  0  0  0 
  6 25  1  0  0  0  0 
  6 24  1  0  0  0  0 
  7  9  1  0  0  0  0 
  7  6  1  0  0  0  0 
  8 10  1  0  0  0  0 
  8  5  1  0  0  0  0 
  9 31  1  0  0  0  0 
  9 30  1  0  0  0  0 
 10 32  1  6  0  0  0 
 10  3  1  0  0  0  0 
 10  9  1  0  0  0  0 
 11  1  1  0  0  0  0 
 15  2  1  0  0  0  0 
 16  2  1  0  0  0  0 
 17  3  1  0  0  0  0 
 20  4  1  0  0  0  0 
 21  4  1  0  0  0  0 
 26  7  1  0  0  0  0 
 27  7  1  0  0  0  0 
 28  8  1  0  0  0  0 
 29  8  1  0  0  0  0 
M  END 
>  <HBA> 
0 
 
>  <HBD> 
0 
 
>  <TPSA> 
0.0 
 
>  <cid> 
28455 
 
>  <dipole> 
0.05 
 
>  <excitation_energy_1> 
7.57 
 
>  <excitation_energy_2> 
7.687 
 
>  <excitation_energy_3> 
7.769 
 
>  <excitation_energy_4> 
7.87 
 
>  <homo_energy> 
-8.008 
 
>  <homo_lumo_gap> 
10.18 
 
>  <logP> 
4.003 
 
>  <lumo_energy> 
2.171 
 
>  <melting_point> 
-29.22 
 
>  <molecular_refractivity> 
50.18 
 
>  <oscillator_strength_1> 
0.019 
 
>  <oscillator_strength_2> 
0.0033 
 
>  <oscillator_strength_3> 
0.0247 
 
>  <oscillator_strength_4> 
0.0007 
 
>  <open_babel_can_smiles> 
CCCCC[C@H](CCC)C 
 
>  <mulliken_charges> 
32 
1   -0.441069 
2   -0.441375 
3   -0.449991 
4   -0.246555 
5   -0.255323 
6   -0.246019 
7   -0.259685 
8   -0.254067 
9   -0.254022 
10   -0.070554 
11   0.140891 
12   0.140853 
13   0.140788 
14   0.14031 
15   0.140952 
16   0.140303 
17   0.137434 
18   0.142121 
19   0.138738 
20   0.12955 
21   0.129162 
22   0.134575 
23   0.134122 
24   0.125788 
25   0.125917 
26   0.125646 
27   0.131768 
28   0.129394 
29   0.123105 
30   0.127846 
31   0.123801 
32   0.115594 
 
>  <lowdin_charges> 
32 
1   -0.443581 
2   -0.444798 
3   -0.446674 
4   -0.27187 
5   -0.277882 
6   -0.273485 
7   -0.276293 
8   -0.280452 
9   -0.277732 
10   -0.124715 
11   0.148362 
12   0.145137 
13   0.146348 
14   0.148893 
15   0.146231 
16   0.145861 
17   0.146919 
18   0.146313 
19   0.146351 
20   0.138887 
21   0.137324 
22   0.141019 
23   0.140318 
24   0.137309 
25   0.135844 
26   0.137415 
27   0.137846 
28   0.139814 
29   0.138863 
30   0.138156 
31   0.138374 
32   0.135898 
 
$$$$ 
 
