PCCDB-ID:  41985 
public computational chemistry database (PCCDB) project, http://pccdb.org 
 
 30 33  0  0  1  0  0  0  0  0999 V2000 
   -1.3347   -0.5235    0.7919 C   0  0  0  0  0  0  0  0  0  0  0  0 
   -1.0407   -0.2375   -0.5409 C   0  0  0  0  0  0  0  0  0  0  0  0 
   -0.3127   -0.4731    1.7419 C   0  0  0  0  0  0  0  0  0  0  0  0 
    0.2601    0.0961   -0.9237 C   0  0  0  0  0  0  0  0  0  0  0  0 
    0.9862   -0.1421    1.3583 C   0  0  0  0  0  0  0  0  0  0  0  0 
    5.0599    2.8658   -0.0862 C   0  0  0  0  0  0  0  0  0  0  0  0 
    5.7685   -1.1511   -0.2344 C   0  0  0  0  0  0  0  0  0  0  0  0 
    3.7485    3.0163   -0.3339 C   0  0  0  0  0  0  0  0  0  0  0  0 
    4.5822   -1.7772   -0.3486 C   0  0  0  0  0  0  0  0  0  0  0  0 
    1.2941    0.1482    0.0193 C   0  0  0  0  0  0  0  0  0  0  0  0 
    4.9158    1.5238    0.6209 C   0  0  2  0  0  0  0  0  0  0  0  0 
    5.1174    0.2453   -0.2105 C   0  0  2  0  0  0  0  0  0  0  0  0 
    3.3312    1.7451    0.3953 C   0  0  2  0  0  0  0  0  0  0  0  0 
    3.8091   -0.5107    0.0496 C   0  0  1  0  0  0  0  0  0  0  0  0 
    2.7171    0.4992   -0.4030 C   0  0  1  0  0  0  0  0  0  0  0  0 
    2.7300    0.7156   -1.8118 O   0  0  0  0  0  0  0  0  0  0  0  0 
   -2.3476   -0.7820    1.0893 H   0  0  0  0  0  0  0  0  0  0  0  0 
   -1.8267   -0.2724   -1.2912 H   0  0  0  0  0  0  0  0  0  0  0  0 
   -0.5256   -0.6911    2.7854 H   0  0  0  0  0  0  0  0  0  0  0  0 
    0.4875    0.3194   -1.9589 H   0  0  0  0  0  0  0  0  0  0  0  0 
    1.7629   -0.1083    2.1183 H   0  0  0  0  0  0  0  0  0  0  0  0 
    5.9293    3.4860   -0.2922 H   0  0  0  0  0  0  0  0  0  0  0  0 
    6.8002   -1.4857   -0.2880 H   0  0  0  0  0  0  0  0  0  0  0  0 
    3.1668    3.7986   -0.8152 H   0  0  0  0  0  0  0  0  0  0  0  0 
    4.2890   -2.8053   -0.5353 H   0  0  0  0  0  0  0  0  0  0  0  0 
    5.2471    1.4730    1.6644 H   0  0  0  0  0  0  0  0  0  0  0  0 
    5.1150    0.5677   -1.2579 H   0  0  0  0  0  0  0  0  0  0  0  0 
    2.7688    1.9247    1.3167 H   0  0  0  0  0  0  0  0  0  0  0  0 
    3.6764   -0.5793    1.1382 H   0  0  0  0  0  0  0  0  0  0  0  0 
    3.2955    1.4843   -1.9861 H   0  0  0  0  0  0  0  0  0  0  0  0 
  1 17  1  0  0  0  0 
  1  3  2  0  0  0  0 
  2  1  1  0  0  0  0 
  3 19  1  0  0  0  0 
  4  2  2  0  0  0  0 
  4 10  1  0  0  0  0 
  5  3  1  0  0  0  0 
  5 21  1  0  0  0  0 
  6 11  1  0  0  0  0 
  7 12  1  0  0  0  0 
  8  6  2  0  0  0  0 
  8 13  1  0  0  0  0 
  9  7  2  0  0  0  0 
  9 14  1  0  0  0  0 
 10  5  2  0  0  0  0 
 11 26  1  1  0  0  0 
 12 27  1  6  0  0  0 
 12 14  1  0  0  0  0 
 12 11  1  0  0  0  0 
 13 11  1  0  0  0  0 
 13 28  1  1  0  0  0 
 14 29  1  1  0  0  0 
 15 16  1  6  0  0  0 
 15 10  1  0  0  0  0 
 15 14  1  0  0  0  0 
 15 13  1  0  0  0  0 
 18  2  1  0  0  0  0 
 20  4  1  0  0  0  0 
 22  6  1  0  0  0  0 
 23  7  1  0  0  0  0 
 24  8  1  0  0  0  0 
 25  9  1  0  0  0  0 
 30 16  1  0  0  0  0 
M  END 
>  <HBA> 
1 
 
>  <HBD> 
1 
 
>  <TPSA> 
20.23 
 
>  <cid> 
41985 
 
>  <dipole> 
2.0 
 
>  <excitation_energy_1> 
5.085 
 
>  <excitation_energy_2> 
5.235 
 
>  <excitation_energy_3> 
5.43 
 
>  <excitation_energy_4> 
5.506 
 
>  <homo_energy> 
-6.12 
 
>  <homo_lumo_gap> 
5.932 
 
>  <logP> 
2.492 
 
>  <lumo_energy> 
-0.188 
 
>  <melting_point> 
114.72 
 
>  <molecular_refractivity> 
63.62 
 
>  <oscillator_strength_1> 
0.0275 
 
>  <oscillator_strength_2> 
0.0008 
 
>  <oscillator_strength_3> 
0.0387 
 
>  <oscillator_strength_4> 
0.0119 
 
>  <open_babel_can_smiles> 
O[C@@]1([C@@H]2C=C[C@@H]2[C@@H]2[C@@H]1C=C2)c1ccccc1 
 
>  <mulliken_charges> 
30 
1   -0.127363 
2   -0.132859 
3   -0.136597 
4   -0.168709 
5   -0.196738 
6   -0.096414 
7   -0.14672 
8   -0.159292 
9   -0.119053 
10   0.127278 
11   -0.152757 
12   -0.126869 
13   -0.186369 
14   -0.118568 
15   0.249358 
16   -0.669621 
17   0.124451 
18   0.125708 
19   0.124646 
20   0.152412 
21   0.122375 
22   0.133747 
23   0.129056 
24   0.137151 
25   0.13307 
26   0.136125 
27   0.14402 
28   0.15387 
29   0.145404 
30   0.39926 
 
>  <lowdin_charges> 
30 
1   -0.16158 
2   -0.157666 
3   -0.156571 
4   -0.160002 
5   -0.175555 
6   -0.1495 
7   -0.164705 
8   -0.186649 
9   -0.155252 
10   -0.01109 
11   -0.131434 
12   -0.141727 
13   -0.142652 
14   -0.132197 
15   0.114856 
16   -0.449718 
17   0.154559 
18   0.156432 
19   0.153811 
20   0.170018 
21   0.152422 
22   0.155506 
23   0.154261 
24   0.15849 
25   0.157713 
26   0.147201 
27   0.150468 
28   0.15834 
29   0.150182 
30   0.342041 
 
$$$$ 
 
