PCCDB-ID:  36820 
public computational chemistry database (PCCDB) project, http://pccdb.org 
 
 33 34  0  0  1  0  0  0  0  0999 V2000 
    1.7965    0.1121   -3.2612 C   0  0  0  0  0  0  0  0  0  0  0  0 
    2.5751   -0.6648   -2.5090 C   0  0  0  0  0  0  0  0  0  0  0  0 
    7.0910    0.7767    1.7881 C   0  0  0  0  0  0  0  0  0  0  0  0 
    5.7522    1.4409    2.2134 C   0  0  0  0  0  0  0  0  0  0  0  0 
    6.8053    0.0577    0.4395 C   0  0  0  0  0  0  0  0  0  0  0  0 
    4.8861    1.4373    0.9401 C   0  0  0  0  0  0  0  0  0  0  0  0 
    3.1679   -0.2496   -1.1879 C   0  0  0  0  0  0  0  0  0  0  0  0 
    5.2679    0.0965    0.2771 C   0  0  0  0  0  0  0  0  0  0  0  0 
    5.2393    0.8307   -2.1901 C   0  0  0  0  0  0  0  0  0  0  0  0 
    5.3043   -1.5505   -1.6100 C   0  0  0  0  0  0  0  0  0  0  0  0 
    6.7596   -0.6305   -3.1606 C   0  0  0  0  0  0  0  0  0  0  0  0 
    4.7355   -0.1966   -1.1733 C   0  0  2  0  0  0  0  0  0  0  0  0 
    6.1422    0.6419   -3.0664 N   0  0  0  0  0  0  0  0  0  0  0  0 
    6.1991   -1.7495   -2.4906 N   0  0  0  0  0  0  0  0  0  0  0  0 
    4.6889    2.0663   -2.1529 O   0  0  0  0  0  0  0  0  0  0  0  0 
    4.8263   -2.6460   -0.9725 O   0  0  0  0  0  0  0  0  0  0  0  0 
    7.7574   -0.7693   -3.8308 O   0  0  0  0  0  0  0  0  0  0  0  0 
    1.3982   -0.2324   -4.2109 H   0  0  0  0  0  0  0  0  0  0  0  0 
    1.5279    1.1234   -2.9621 H   0  0  0  0  0  0  0  0  0  0  0  0 
    2.8239   -1.6689   -2.8511 H   0  0  0  0  0  0  0  0  0  0  0  0 
    7.4413    0.0749    2.5515 H   0  0  0  0  0  0  0  0  0  0  0  0 
    7.8805    1.5238    1.6624 H   0  0  0  0  0  0  0  0  0  0  0  0 
    5.8868    2.4481    2.6196 H   0  0  0  0  0  0  0  0  0  0  0  0 
    5.2603    0.8449    2.9918 H   0  0  0  0  0  0  0  0  0  0  0  0 
    7.1960   -0.9637    0.4126 H   0  0  0  0  0  0  0  0  0  0  0  0 
    7.2776    0.6001   -0.3875 H   0  0  0  0  0  0  0  0  0  0  0  0 
    5.1840    2.2760    0.2989 H   0  0  0  0  0  0  0  0  0  0  0  0 
    3.8162    1.5341    1.1597 H   0  0  0  0  0  0  0  0  0  0  0  0 
    2.8369   -0.9368   -0.3941 H   0  0  0  0  0  0  0  0  0  0  0  0 
    2.7565    0.7212   -0.8870 H   0  0  0  0  0  0  0  0  0  0  0  0 
    4.8428   -0.6962    0.9133 H   0  0  0  0  0  0  0  0  0  0  0  0 
    4.0124    2.1124   -1.4610 H   0  0  0  0  0  0  0  0  0  0  0  0 
    4.1679   -2.3909   -0.3082 H   0  0  0  0  0  0  0  0  0  0  0  0 
  1 19  1  0  0  0  0 
  1  2  2  0  0  0  0 
  2  7  1  0  0  0  0 
  3  4  1  0  0  0  0 
  3 21  1  0  0  0  0 
  4 23  1  0  0  0  0 
  4 24  1  0  0  0  0 
  5  3  1  0  0  0  0 
  6 28  1  0  0  0  0 
  6  4  1  0  0  0  0 
  7 30  1  0  0  0  0 
  7 29  1  0  0  0  0 
  8  5  1  0  0  0  0 
  8 31  1  0  0  0  0 
  8  6  1  0  0  0  0 
  9 15  1  0  0  0  0 
  9 12  1  0  0  0  0 
 10 12  1  0  0  0  0 
 10 16  1  0  0  0  0 
 11 13  2  0  0  0  0 
 11 14  1  0  0  0  0 
 12  7  1  6  0  0  0 
 12  8  1  0  0  0  0 
 13  9  2  0  0  0  0 
 14 10  2  0  0  0  0 
 15 32  1  0  0  0  0 
 16 33  1  0  0  0  0 
 17 11  2  0  0  0  0 
 18  1  1  0  0  0  0 
 20  2  1  0  0  0  0 
 22  3  1  0  0  0  0 
 25  5  1  0  0  0  0 
 26  5  1  0  0  0  0 
 27  6  1  0  0  0  0 
M  END 
>  <HBA> 
5 
 
>  <HBD> 
2 
 
>  <TPSA> 
75.27 
 
>  <cid> 
36820 
 
>  <dipole> 
9.89 
 
>  <excitation_energy_1> 
3.995 
 
>  <excitation_energy_2> 
4.199 
 
>  <excitation_energy_3> 
5.223 
 
>  <excitation_energy_4> 
5.399 
 
>  <homo_energy> 
-6.838 
 
>  <homo_lumo_gap> 
5.382 
 
>  <logP> 
1.763 
 
>  <lumo_energy> 
-1.456 
 
>  <melting_point> 
141.56 
 
>  <molecular_refractivity> 
69.26 
 
>  <oscillator_strength_1> 
0.0003 
 
>  <oscillator_strength_2> 
0.0002 
 
>  <oscillator_strength_3> 
0.0018 
 
>  <oscillator_strength_4> 
0.0042 
 
>  <open_babel_can_smiles> 
C=CC[C@@]1(C2CCCC2)C(=N[C](=[N]=C1O)=O)O 
 
>  <mulliken_charges> 
33 
1   -0.328397 
2   -0.042914 
3   -0.278313 
4   -0.272271 
5   -0.301156 
6   -0.314894 
7   -0.362791 
8   -0.084459 
9   0.541841 
10   0.54869 
11   0.618102 
12   -0.142434 
13   -0.465549 
14   -0.468125 
15   -0.574255 
16   -0.582664 
17   -0.432065 
18   0.1629 
19   0.142162 
20   0.162853 
21   0.149218 
22   0.155361 
23   0.1499 
24   0.142304 
25   0.168927 
26   0.170731 
27   0.154555 
28   0.138817 
29   0.144367 
30   0.146229 
31   0.118074 
32   0.418869 
33   0.416387 
 
>  <lowdin_charges> 
33 
1   -0.311483 
2   -0.162174 
3   -0.285222 
4   -0.279285 
5   -0.293068 
6   -0.299562 
7   -0.275284 
8   -0.12708 
9   0.151281 
10   0.146014 
11   0.169163 
12   -0.060742 
13   -0.181178 
14   -0.182145 
15   -0.328885 
16   -0.333899 
17   -0.210179 
18   0.171108 
19   0.155979 
20   0.166678 
21   0.152734 
22   0.155254 
23   0.152934 
24   0.146076 
25   0.160883 
26   0.160227 
27   0.150546 
28   0.142768 
29   0.14956 
30   0.149946 
31   0.136426 
32   0.35557 
33   0.357038 
 
$$$$ 
 
