PCCDB-ID:  18604 
public computational chemistry database (PCCDB) project, http://pccdb.org 
 
 43 43  0  0  1  0  0  0  0  0999 V2000 
    4.6929    1.6892   -4.0098 C   0  0  0  0  0  0  0  0  0  0  0  0 
    5.9765    1.1325   -3.3815 C   0  0  0  0  0  0  0  0  0  0  0  0 
    5.7723   -0.1222   -2.5145 C   0  0  0  0  0  0  0  0  0  0  0  0 
    5.3310   -1.3687   -3.2959 C   0  0  0  0  0  0  0  0  0  0  0  0 
    5.0975   -2.6164   -2.4241 C   0  0  0  0  0  0  0  0  0  0  0  0 
    6.3343   -3.1820   -1.7029 C   0  0  0  0  0  0  0  0  0  0  0  0 
    7.4376   -3.7056   -2.6333 C   0  0  0  0  0  0  0  0  0  0  0  0 
    8.6093   -4.3476   -1.8779 C   0  0  0  0  0  0  0  0  0  0  0  0 
    9.7102   -4.8803   -2.8062 C   0  0  0  0  0  0  0  0  0  0  0  0 
   10.9390   -5.4568   -2.0835 C   0  0  0  0  0  0  0  0  0  0  0  0 
   10.6565   -6.7188   -1.2556 C   0  0  0  0  0  0  0  0  0  0  0  0 
   11.9229   -7.2985   -0.6130 C   0  0  0  0  0  0  0  0  0  0  0  0 
   10.5278   -9.3242    0.3618 C   0  0  0  0  0  0  0  0  0  0  0  0 
   11.6967   -8.4308    0.3695 C   0  0  2  0  0  0  0  0  0  0  0  0 
   10.6437   -8.2746    1.3330 O   0  0  0  0  0  0  0  0  0  0  0  0 
    4.8964    2.6100   -4.5685 H   0  0  0  0  0  0  0  0  0  0  0  0 
    3.9486    1.9259   -3.2388 H   0  0  0  0  0  0  0  0  0  0  0  0 
    4.2341    0.9784   -4.7059 H   0  0  0  0  0  0  0  0  0  0  0  0 
    6.4351    1.9156   -2.7628 H   0  0  0  0  0  0  0  0  0  0  0  0 
    6.7046    0.9084   -4.1743 H   0  0  0  0  0  0  0  0  0  0  0  0 
    5.0291    0.0965   -1.7324 H   0  0  0  0  0  0  0  0  0  0  0  0 
    6.7118   -0.3361   -1.9880 H   0  0  0  0  0  0  0  0  0  0  0  0 
    6.0758   -1.5884   -4.0741 H   0  0  0  0  0  0  0  0  0  0  0  0 
    4.3967   -1.1513   -3.8297 H   0  0  0  0  0  0  0  0  0  0  0  0 
    4.6668   -3.4083   -3.0535 H   0  0  0  0  0  0  0  0  0  0  0  0 
    4.3314   -2.3794   -1.6716 H   0  0  0  0  0  0  0  0  0  0  0  0 
    6.0043   -4.0044   -1.0521 H   0  0  0  0  0  0  0  0  0  0  0  0 
    6.7576   -2.4231   -1.0303 H   0  0  0  0  0  0  0  0  0  0  0  0 
    7.8217   -2.8880   -3.2593 H   0  0  0  0  0  0  0  0  0  0  0  0 
    7.0057   -4.4422   -3.3277 H   0  0  0  0  0  0  0  0  0  0  0  0 
    8.2241   -5.1602   -1.2469 H   0  0  0  0  0  0  0  0  0  0  0  0 
    9.0453   -3.6088   -1.1885 H   0  0  0  0  0  0  0  0  0  0  0  0 
   10.0426   -4.0641   -3.4635 H   0  0  0  0  0  0  0  0  0  0  0  0 
    9.2861   -5.6489   -3.4697 H   0  0  0  0  0  0  0  0  0  0  0  0 
   11.3705   -4.6845   -1.4297 H   0  0  0  0  0  0  0  0  0  0  0  0 
   11.7125   -5.6865   -2.8309 H   0  0  0  0  0  0  0  0  0  0  0  0 
   10.1929   -7.4740   -1.9060 H   0  0  0  0  0  0  0  0  0  0  0  0 
    9.9343   -6.4989   -0.4615 H   0  0  0  0  0  0  0  0  0  0  0  0 
   12.4553   -6.4984   -0.0779 H   0  0  0  0  0  0  0  0  0  0  0  0 
   12.6158   -7.6532   -1.3904 H   0  0  0  0  0  0  0  0  0  0  0  0 
   10.6216  -10.3373    0.7554 H   0  0  0  0  0  0  0  0  0  0  0  0 
    9.7362   -9.1885   -0.3737 H   0  0  0  0  0  0  0  0  0  0  0  0 
   12.6156   -8.8332    0.8045 H   0  0  0  0  0  0  0  0  0  0  0  0 
  1  2  1  0  0  0  0 
  1 17  1  0  0  0  0 
  2 19  1  0  0  0  0 
  2  3  1  0  0  0  0 
  3 22  1  0  0  0  0 
  3 21  1  0  0  0  0 
  4  3  1  0  0  0  0 
  4  5  1  0  0  0  0 
  5  6  1  0  0  0  0 
  5 26  1  0  0  0  0 
  6 27  1  0  0  0  0 
  6 28  1  0  0  0  0 
  7  8  1  0  0  0  0 
  7  6  1  0  0  0  0 
  8 31  1  0  0  0  0 
  8 32  1  0  0  0  0 
  9 10  1  0  0  0  0 
  9  8  1  0  0  0  0 
 10 35  1  0  0  0  0 
 10 11  1  0  0  0  0 
 11 12  1  0  0  0  0 
 11 38  1  0  0  0  0 
 12 39  1  0  0  0  0 
 12 14  1  0  0  0  0 
 13 14  1  0  0  0  0 
 13 41  1  0  0  0  0 
 13 15  1  0  0  0  0 
 14 43  1  1  0  0  0 
 14 15  1  0  0  0  0 
 16  1  1  0  0  0  0 
 18  1  1  0  0  0  0 
 20  2  1  0  0  0  0 
 23  4  1  0  0  0  0 
 24  4  1  0  0  0  0 
 25  5  1  0  0  0  0 
 29  7  1  0  0  0  0 
 30  7  1  0  0  0  0 
 33  9  1  0  0  0  0 
 34  9  1  0  0  0  0 
 36 10  1  0  0  0  0 
 37 11  1  0  0  0  0 
 40 12  1  0  0  0  0 
 42 13  1  0  0  0  0 
M  END 
>  <HBA> 
1 
 
>  <HBD> 
0 
 
>  <TPSA> 
12.53 
 
>  <cid> 
18604 
 
>  <dipole> 
1.82 
 
>  <excitation_energy_1> 
6.787 
 
>  <excitation_energy_2> 
7.001 
 
>  <excitation_energy_3> 
7.069 
 
>  <excitation_energy_4> 
7.139 
 
>  <homo_energy> 
-7.083 
 
>  <homo_lumo_gap> 
9.323 
 
>  <logP> 
4.696 
 
>  <lumo_energy> 
2.24 
 
>  <melting_point> 
-18.25 
 
>  <molecular_refractivity> 
68.38 
 
>  <oscillator_strength_1> 
0.0334 
 
>  <oscillator_strength_2> 
0.0061 
 
>  <oscillator_strength_3> 
0.0058 
 
>  <oscillator_strength_4> 
0.0042 
 
>  <open_babel_can_smiles> 
CCCCCCCCCCCC[C@@H]1CO1 
 
>  <mulliken_charges> 
43 
1   -0.442785 
2   -0.248811 
3   -0.250202 
4   -0.257059 
5   -0.258085 
6   -0.256977 
7   -0.25404 
8   -0.25523 
9   -0.255454 
10   -0.258318 
11   -0.270974 
12   -0.276564 
13   -0.110012 
14   0.097895 
15   -0.446803 
16   0.141054 
17   0.140269 
18   0.145979 
19   0.129562 
20   0.128388 
21   0.124707 
22   0.131273 
23   0.129936 
24   0.13107 
25   0.125084 
26   0.12627 
27   0.127757 
28   0.132001 
29   0.130852 
30   0.125115 
31   0.135029 
32   0.127095 
33   0.127141 
34   0.125299 
35   0.129415 
36   0.125486 
37   0.126277 
38   0.163536 
39   0.145227 
40   0.136288 
41   0.146578 
42   0.150521 
43   0.13621 
 
>  <lowdin_charges> 
43 
1   -0.44955 
2   -0.274882 
3   -0.278867 
4   -0.281316 
5   -0.277975 
6   -0.2804 
7   -0.278554 
8   -0.278695 
9   -0.277103 
10   -0.27608 
11   -0.282909 
12   -0.282577 
13   -0.16933 
14   -0.023646 
15   -0.292997 
16   0.149325 
17   0.146437 
18   0.14814 
19   0.142273 
20   0.138799 
21   0.137179 
22   0.140731 
23   0.138426 
24   0.141848 
25   0.140365 
26   0.140653 
27   0.141685 
28   0.139885 
29   0.138944 
30   0.137817 
31   0.141306 
32   0.13895 
33   0.141134 
34   0.137942 
35   0.139902 
36   0.139728 
37   0.138533 
38   0.154463 
39   0.151829 
40   0.149157 
41   0.15058 
42   0.152953 
43   0.145898 
 
$$$$ 
 
