PCCDB-ID:  12507 
public computational chemistry database (PCCDB) project, http://pccdb.org 
 
 20 20  0  0  0  0  0  0  0  0999 V2000 
    1.0331    0.3887    0.3236 C   0  0  0  0  0  0  0  0  0  0  0  0 
    4.2558   -6.0662   -0.7421 C   0  0  0  0  0  0  0  0  0  0  0  0 
    2.2602    0.1211   -0.1425 C   0  0  0  0  0  0  0  0  0  0  0  0 
    2.2473   -2.4094   -0.0447 C   0  0  0  0  0  0  0  0  0  0  0  0 
    4.1866   -1.2648   -0.8739 C   0  0  0  0  0  0  0  0  0  0  0  0 
    2.8713   -3.6374   -0.2546 C   0  0  0  0  0  0  0  0  0  0  0  0 
    4.8240   -2.4781   -1.0906 C   0  0  0  0  0  0  0  0  0  0  0  0 
    2.8826   -1.1949   -0.3468 C   0  0  0  0  0  0  0  0  0  0  0  0 
    4.1695   -3.6784   -0.7824 C   0  0  0  0  0  0  0  0  0  0  0  0 
    4.8736   -4.8215   -1.0272 O   0  0  0  0  0  0  0  0  0  0  0  0 
    0.6882    1.4127    0.4286 H   0  0  0  0  0  0  0  0  0  0  0  0 
    0.3291   -0.3866    0.6143 H   0  0  0  0  0  0  0  0  0  0  0  0 
    4.9818   -6.8317   -1.0225 H   0  0  0  0  0  0  0  0  0  0  0  0 
    3.3380   -6.2059   -1.3284 H   0  0  0  0  0  0  0  0  0  0  0  0 
    4.0201   -6.1653    0.3259 H   0  0  0  0  0  0  0  0  0  0  0  0 
    2.8963    0.9646   -0.4131 H   0  0  0  0  0  0  0  0  0  0  0  0 
    1.2414   -2.4048    0.3655 H   0  0  0  0  0  0  0  0  0  0  0  0 
    4.7084   -0.3421   -1.1181 H   0  0  0  0  0  0  0  0  0  0  0  0 
    2.3425   -4.5502   -0.0047 H   0  0  0  0  0  0  0  0  0  0  0  0 
    5.8294   -2.5236   -1.4975 H   0  0  0  0  0  0  0  0  0  0  0  0 
  1 11  1  0  0  0  0 
  1 12  1  0  0  0  0 
  2 15  1  0  0  0  0 
  3  1  2  0  0  0  0 
  4 17  1  0  0  0  0 
  5  8  1  0  0  0  0 
  6  4  1  0  0  0  0 
  6 19  1  0  0  0  0 
  7  5  2  0  0  0  0 
  7  9  1  0  0  0  0 
  8  3  1  0  0  0  0 
  8  4  2  0  0  0  0 
  9  6  2  0  0  0  0 
 10  9  1  0  0  0  0 
 10  2  1  0  0  0  0 
 13  2  1  0  0  0  0 
 14  2  1  0  0  0  0 
 16  3  1  0  0  0  0 
 18  5  1  0  0  0  0 
 20  7  1  0  0  0  0 
M  END 
>  <HBA> 
1 
 
>  <HBD> 
0 
 
>  <TPSA> 
9.23 
 
>  <cid> 
12507 
 
>  <dipole> 
1.53 
 
>  <excitation_energy_1> 
4.436 
 
>  <excitation_energy_2> 
4.754 
 
>  <excitation_energy_3> 
5.159 
 
>  <excitation_energy_4> 
5.476 
 
>  <homo_energy> 
-5.499 
 
>  <homo_lumo_gap> 
4.917 
 
>  <logP> 
2.338 
 
>  <lumo_energy> 
-0.582 
 
>  <melting_point> 
2.56 
 
>  <molecular_refractivity> 
43.02 
 
>  <oscillator_strength_1> 
0.257 
 
>  <oscillator_strength_2> 
0.2089 
 
>  <oscillator_strength_3> 
0.008 
 
>  <oscillator_strength_4> 
0.0008 
 
>  <open_babel_can_smiles> 
COc1ccc(cc1)C=C 
 
>  <mulliken_charges> 
20 
1   -0.35585 
2   -0.215219 
3   -0.116588 
4   -0.194468 
5   -0.20179 
6   -0.1937 
7   -0.171217 
8   0.173593 
9   0.375283 
10   -0.505522 
11   0.14073 
12   0.136765 
13   0.170424 
14   0.152712 
15   0.152684 
16   0.124134 
17   0.128683 
18   0.129762 
19   0.131451 
20   0.138133 
 
>  <lowdin_charges> 
20 
1   -0.343664 
2   -0.276629 
3   -0.145647 
4   -0.140684 
5   -0.149979 
6   -0.21147 
7   -0.180792 
8   -0.023198 
9   0.102348 
10   -0.197124 
11   0.160702 
12   0.155056 
13   0.164203 
14   0.14568 
15   0.143827 
16   0.153896 
17   0.157132 
18   0.157882 
19   0.162505 
20   0.165956 
 
$$$$ 
 
