PCCDB-ID:  11543 
public computational chemistry database (PCCDB) project, http://pccdb.org 
 
 21 20  0  0  0  0  0  0  0  0999 V2000 
    0.9051   -1.6080    1.1709 C   0  0  0  0  0  0  0  0  0  0  0  0 
    5.2798   -0.9595   -1.2799 C   0  0  0  0  0  0  0  0  0  0  0  0 
    5.4136   -0.8818    1.2380 C   0  0  0  0  0  0  0  0  0  0  0  0 
    2.4230   -1.7820    1.2907 C   0  0  0  0  0  0  0  0  0  0  0  0 
    3.1690   -1.2385    0.0645 C   0  0  0  0  0  0  0  0  0  0  0  0 
    4.6874   -1.4983    0.0318 C   0  0  0  0  0  0  0  0  0  0  0  0 
    4.8279   -2.9308    0.0627 O   0  0  0  0  0  0  0  0  0  0  0  0 
    0.3881   -2.0027    2.0531 H   0  0  0  0  0  0  0  0  0  0  0  0 
    0.5137   -2.1356    0.2923 H   0  0  0  0  0  0  0  0  0  0  0  0 
    0.6306   -0.5503    1.0700 H   0  0  0  0  0  0  0  0  0  0  0  0 
    5.1686    0.1286   -1.3546 H   0  0  0  0  0  0  0  0  0  0  0  0 
    4.7818   -1.4204   -2.1393 H   0  0  0  0  0  0  0  0  0  0  0  0 
    6.3519   -1.1884   -1.3443 H   0  0  0  0  0  0  0  0  0  0  0  0 
    5.2618    0.2030    1.2855 H   0  0  0  0  0  0  0  0  0  0  0  0 
    6.4948   -1.0603    1.1665 H   0  0  0  0  0  0  0  0  0  0  0  0 
    5.0620   -1.3228    2.1750 H   0  0  0  0  0  0  0  0  0  0  0  0 
    2.6694   -2.8427    1.4123 H   0  0  0  0  0  0  0  0  0  0  0  0 
    2.7706   -1.2737    2.1999 H   0  0  0  0  0  0  0  0  0  0  0  0 
    3.0006   -0.1559   -0.0239 H   0  0  0  0  0  0  0  0  0  0  0  0 
    2.7420   -1.6957   -0.8387 H   0  0  0  0  0  0  0  0  0  0  0  0 
    5.7781   -3.1284    0.0562 H   0  0  0  0  0  0  0  0  0  0  0  0 
  1  4  1  0  0  0  0 
  1  8  1  0  0  0  0 
  2  6  1  0  0  0  0 
  3 14  1  0  0  0  0 
  3 16  1  0  0  0  0 
  4 17  1  0  0  0  0 
  4 18  1  0  0  0  0 
  5  4  1  0  0  0  0 
  6  7  1  0  0  0  0 
  6  5  1  0  0  0  0 
  6  3  1  0  0  0  0 
  9  1  1  0  0  0  0 
 10  1  1  0  0  0  0 
 11  2  1  0  0  0  0 
 12  2  1  0  0  0  0 
 13  2  1  0  0  0  0 
 15  3  1  0  0  0  0 
 19  5  1  0  0  0  0 
 20  5  1  0  0  0  0 
 21  7  1  0  0  0  0 
M  END 
>  <HBA> 
1 
 
>  <HBD> 
1 
 
>  <TPSA> 
20.23 
 
>  <cid> 
11543 
 
>  <dipole> 
1.47 
 
>  <excitation_energy_1> 
6.392 
 
>  <excitation_energy_2> 
7.317 
 
>  <excitation_energy_3> 
7.419 
 
>  <excitation_energy_4> 
7.534 
 
>  <homo_energy> 
-7.045 
 
>  <homo_lumo_gap> 
8.833 
 
>  <logP> 
1.557 
 
>  <lumo_energy> 
1.788 
 
>  <melting_point> 
3.08 
 
>  <molecular_refractivity> 
32.16 
 
>  <oscillator_strength_1> 
0.021 
 
>  <oscillator_strength_2> 
0.0062 
 
>  <oscillator_strength_3> 
0.0049 
 
>  <oscillator_strength_4> 
0.0013 
 
>  <open_babel_can_smiles> 
CCCC(O)(C)C 
 
>  <mulliken_charges> 
21 
1   -0.444046 
2   -0.452688 
3   -0.46202 
4   -0.257853 
5   -0.245597 
6   0.305287 
7   -0.637321 
8   0.140557 
9   0.142362 
10   0.136939 
11   0.139822 
12   0.153438 
13   0.126629 
14   0.141233 
15   0.127453 
16   0.159841 
17   0.158861 
18   0.127322 
19   0.122236 
20   0.135363 
21   0.382181 
 
>  <lowdin_charges> 
21 
1   -0.443726 
2   -0.452805 
3   -0.45596 
4   -0.274889 
5   -0.276233 
6   0.124786 
7   -0.465224 
8   0.149238 
9   0.147006 
10   0.142228 
11   0.148904 
12   0.156303 
13   0.140662 
14   0.150118 
15   0.141119 
16   0.157542 
17   0.151962 
18   0.13794 
19   0.138317 
20   0.146978 
21   0.335733 
 
$$$$ 
 
