PCCDB-ID:  33037 
public computational chemistry database (PCCDB) project, http://pccdb.org 
 
 24 23  0  0  1  0  0  0  0  0999 V2000 
   -3.1290   -0.0535    2.8882 C   0  0  1  0  0  0  0  0  0  0  0  0 
   -1.6298   -0.0817    2.5574 C   0  0  1  0  0  0  0  0  0  0  0  0 
   -3.9020   -1.2831    2.3770 C   0  0  1  0  0  0  0  0  0  0  0  0 
   -1.2831    0.2814    1.1127 C   0  0  2  0  0  0  0  0  0  0  0  0 
   -5.4164   -1.1722    2.6618 C   0  0  0  0  0  0  0  0  0  0  0  0 
    0.2404    0.1709    0.9028 C   0  0  0  0  0  0  0  0  0  0  0  0 
   -3.2776   -0.0804    4.3119 O   0  0  0  0  0  0  0  0  0  0  0  0 
   -1.0386    0.9189    3.4159 O   0  0  0  0  0  0  0  0  0  0  0  0 
   -3.7194   -1.4674    0.9973 O   0  0  0  0  0  0  0  0  0  0  0  0 
   -1.7126    1.6038    0.7790 O   0  0  0  0  0  0  0  0  0  0  0  0 
   -6.2100   -1.4375    1.7828 O   0  0  0  0  0  0  0  0  0  0  0  0 
   -5.7930   -0.8126    3.8877 O   0  0  0  0  0  0  0  0  0  0  0  0 
    0.9465   -0.5997    1.5144 O   0  0  0  0  0  0  0  0  0  0  0  0 
    0.7185    1.0201   -0.0184 O   0  0  0  0  0  0  0  0  0  0  0  0 
   -3.5703    0.8632    2.4722 H   0  0  0  0  0  0  0  0  0  0  0  0 
   -1.2155   -1.0679    2.7908 H   0  0  0  0  0  0  0  0  0  0  0  0 
   -3.5285   -2.1542    2.9430 H   0  0  0  0  0  0  0  0  0  0  0  0 
   -1.7941   -0.3977    0.4247 H   0  0  0  0  0  0  0  0  0  0  0  0 
   -2.6100    0.5327    4.6699 H   0  0  0  0  0  0  0  0  0  0  0  0 
   -0.1078    0.6687    3.5424 H   0  0  0  0  0  0  0  0  0  0  0  0 
   -4.6232   -1.6011    0.6404 H   0  0  0  0  0  0  0  0  0  0  0  0 
   -1.4819    2.1548    1.5511 H   0  0  0  0  0  0  0  0  0  0  0  0 
   -4.9969   -0.5398    4.4026 H   0  0  0  0  0  0  0  0  0  0  0  0 
   -0.0345    1.5915   -0.2822 H   0  0  0  0  0  0  0  0  0  0  0  0 
  1 15  1  6  0  0  0 
  1  7  1  0  0  0  0 
  2 16  1  1  0  0  0 
  2  1  1  0  0  0  0 
  2  8  1  0  0  0  0 
  3  5  1  0  0  0  0 
  3  1  1  0  0  0  0 
  3 17  1  1  0  0  0 
  4 18  1  6  0  0  0 
  4  2  1  0  0  0  0 
  5 12  1  0  0  0  0 
  6  4  1  0  0  0  0 
  6 13  2  0  0  0  0 
  7 19  1  0  0  0  0 
  8 20  1  0  0  0  0 
  9  3  1  0  0  0  0 
 10  4  1  0  0  0  0 
 10 22  1  0  0  0  0 
 11  5  2  0  0  0  0 
 12 23  1  0  0  0  0 
 14  6  1  0  0  0  0 
 21  9  1  0  0  0  0 
 24 14  1  0  0  0  0 
M  END 
>  <HBA> 
8 
 
>  <HBD> 
6 
 
>  <TPSA> 
155.52 
 
>  <cid> 
33037 
 
>  <dipole> 
3.54 
 
>  <excitation_energy_1> 
5.469 
 
>  <excitation_energy_2> 
5.916 
 
>  <excitation_energy_3> 
6.307 
 
>  <excitation_energy_4> 
6.661 
 
>  <homo_energy> 
-7.557 
 
>  <homo_lumo_gap> 
7.236 
 
>  <logP> 
-3.401 
 
>  <lumo_energy> 
-0.321 
 
>  <melting_point> 
202.23 
 
>  <molecular_refractivity> 
39.15 
 
>  <oscillator_strength_1> 
0.0009 
 
>  <oscillator_strength_2> 
0.0006 
 
>  <oscillator_strength_3> 
0.0023 
 
>  <oscillator_strength_4> 
0.0173 
 
>  <open_babel_can_smiles> 
O[C@H]([C@H](C(=O)O)O)[C@@H]([C@@H](C(=O)O)O)O 
 
>  <mulliken_charges> 
24 
1   0.120802 
2   0.062824 
3   0.045987 
4   0.005264 
5   0.586954 
6   0.583326 
7   -0.678538 
8   -0.672421 
9   -0.646351 
10   -0.640363 
11   -0.469667 
12   -0.574322 
13   -0.465258 
14   -0.567165 
15   0.153608 
16   0.177601 
17   0.164841 
18   0.234463 
19   0.431788 
20   0.428596 
21   0.424016 
22   0.411301 
23   0.451619 
24   0.431093 
 
>  <lowdin_charges> 
24 
1   -0.019867 
2   -0.025463 
3   -0.050386 
4   -0.067289 
5   0.183358 
6   0.170306 
7   -0.467522 
8   -0.470651 
9   -0.453152 
10   -0.45108 
11   -0.255081 
12   -0.337133 
13   -0.26021 
14   -0.336585 
15   0.148565 
16   0.165495 
17   0.156146 
18   0.197032 
19   0.362736 
20   0.365195 
21   0.358319 
22   0.350352 
23   0.36989 
24   0.367024 
 
$$$$ 
 
