PCCDB-ID:  17870 
public computational chemistry database (PCCDB) project, http://pccdb.org 
 
 27 29  0  0  0  0  0  0  0  0999 V2000 
    1.0675    0.0113   -0.0045 C   0  0  0  0  0  0  0  0  0  0  0  0 
    3.1969   -3.6096    1.1388 C   0  0  0  0  0  0  0  0  0  0  0  0 
    6.4531    2.7415    0.2140 C   0  0  0  0  0  0  0  0  0  0  0  0 
    4.3798   -3.9267    0.4685 C   0  0  0  0  0  0  0  0  0  0  0  0 
    7.3316    1.8239   -0.3677 C   0  0  0  0  0  0  0  0  0  0  0  0 
    2.6238   -2.3510    0.9743 C   0  0  0  0  0  0  0  0  0  0  0  0 
    5.0902    2.4630    0.2654 C   0  0  0  0  0  0  0  0  0  0  0  0 
    4.9904   -2.9767   -0.3484 C   0  0  0  0  0  0  0  0  0  0  0  0 
    6.8391    0.6227   -0.8790 C   0  0  0  0  0  0  0  0  0  0  0  0 
    2.5799   -0.0393   -0.0314 C   0  0  0  0  0  0  0  0  0  0  0  0 
    3.2190   -1.3719    0.1590 C   0  0  0  0  0  0  0  0  0  0  0  0 
    4.5724    1.2528   -0.2274 C   0  0  0  0  0  0  0  0  0  0  0  0 
    4.4157   -1.7162   -0.4958 C   0  0  0  0  0  0  0  0  0  0  0  0 
    5.4787    0.3423   -0.8012 C   0  0  0  0  0  0  0  0  0  0  0  0 
    3.1823    1.0874   -0.1883 N   0  0  0  0  0  0  0  0  0  0  0  0 
    5.0191   -0.8379   -1.3806 O   0  0  0  0  0  0  0  0  0  0  0  0 
    0.6329   -0.7167   -0.6995 H   0  0  0  0  0  0  0  0  0  0  0  0 
    0.7427    1.0176   -0.2742 H   0  0  0  0  0  0  0  0  0  0  0  0 
    0.6740   -0.2203    0.9938 H   0  0  0  0  0  0  0  0  0  0  0  0 
    2.7165   -4.3426    1.7803 H   0  0  0  0  0  0  0  0  0  0  0  0 
    6.8272    3.6819    0.6086 H   0  0  0  0  0  0  0  0  0  0  0  0 
    4.8259   -4.9113    0.5780 H   0  0  0  0  0  0  0  0  0  0  0  0 
    8.3935    2.0430   -0.4325 H   0  0  0  0  0  0  0  0  0  0  0  0 
    1.6986   -2.1192    1.4919 H   0  0  0  0  0  0  0  0  0  0  0  0 
    4.3860    3.1750    0.6848 H   0  0  0  0  0  0  0  0  0  0  0  0 
    5.9050   -3.1949   -0.8902 H   0  0  0  0  0  0  0  0  0  0  0  0 
    7.4933   -0.1074   -1.3454 H   0  0  0  0  0  0  0  0  0  0  0  0 
  1 19  1  0  0  0  0 
  2 20  1  0  0  0  0 
  3  7  1  0  0  0  0 
  3 21  1  0  0  0  0 
  4 22  1  0  0  0  0 
  4  2  2  0  0  0  0 
  5  3  2  0  0  0  0 
  6  2  1  0  0  0  0 
  6 24  1  0  0  0  0 
  7 25  1  0  0  0  0 
  8  4  1  0  0  0  0 
  9 14  2  0  0  0  0 
  9  5  1  0  0  0  0 
 10  1  1  0  0  0  0 
 10 11  1  0  0  0  0 
 11  6  2  0  0  0  0 
 12 15  1  0  0  0  0 
 12  7  2  0  0  0  0 
 13  8  2  0  0  0  0 
 13 11  1  0  0  0  0 
 14 12  1  0  0  0  0 
 15 10  2  0  0  0  0 
 16 14  1  0  0  0  0 
 16 13  1  0  0  0  0 
 17  1  1  0  0  0  0 
 18  1  1  0  0  0  0 
 23  5  1  0  0  0  0 
 26  8  1  0  0  0  0 
 27  9  1  0  0  0  0 
M  END 
>  <HBA> 
2 
 
>  <HBD> 
0 
 
>  <TPSA> 
21.59 
 
>  <cid> 
17870 
 
>  <dipole> 
2.27 
 
>  <excitation_energy_1> 
3.585 
 
>  <excitation_energy_2> 
4.217 
 
>  <excitation_energy_3> 
4.522 
 
>  <excitation_energy_4> 
4.667 
 
>  <homo_energy> 
-5.829 
 
>  <homo_lumo_gap> 
4.406 
 
>  <logP> 
3.369 
 
>  <lumo_energy> 
-1.423 
 
>  <melting_point> 
94.41 
 
>  <molecular_refractivity> 
68.34 
 
>  <oscillator_strength_1> 
0.0888 
 
>  <oscillator_strength_2> 
0.0061 
 
>  <oscillator_strength_3> 
0.0289 
 
>  <oscillator_strength_4> 
0.0828 
 
>  <open_babel_can_smiles> 
CC1=Nc2ccccc2Oc2c1cccc2 
 
>  <mulliken_charges> 
27 
1   -0.513467 
2   -0.124415 
3   -0.130359 
4   -0.137154 
5   -0.140661 
6   -0.206341 
7   -0.165884 
8   -0.156695 
9   -0.170842 
10   0.244356 
11   0.127009 
12   0.271305 
13   0.277746 
14   0.302145 
15   -0.512048 
16   -0.576053 
17   0.166196 
18   0.181608 
19   0.162419 
20   0.135673 
21   0.130651 
22   0.140163 
23   0.132603 
24   0.137805 
25   0.141043 
26   0.145043 
27   0.138153 
 
>  <lowdin_charges> 
27 
1   -0.448455 
2   -0.165669 
3   -0.162386 
4   -0.139391 
5   -0.152994 
6   -0.145449 
7   -0.15312 
8   -0.172284 
9   -0.17516 
10   0.077032 
11   -0.05167 
12   0.01544 
13   0.109201 
14   0.08496 
15   -0.151935 
16   -0.182718 
17   0.164894 
18   0.173452 
19   0.161534 
20   0.163137 
21   0.159676 
22   0.162801 
23   0.158425 
24   0.163364 
25   0.16869 
26   0.170523 
27   0.168101 
 
$$$$ 
 
