PCCDB-ID:  12051 
public computational chemistry database (PCCDB) project, http://pccdb.org 
 
 18 17  0  0  0  0  0  0  0  0999 V2000 
    3.3993    1.1869    1.2378 C   0  0  0  0  0  0  0  0  0  0  0  0 
    1.6205    0.9976   -2.7968 C   0  0  0  0  0  0  0  0  0  0  0  0 
    3.2809    0.3713   -0.0532 C   0  0  0  0  0  0  0  0  0  0  0  0 
    2.5235    1.8846   -1.9325 C   0  0  0  0  0  0  0  0  0  0  0  0 
    4.8846    1.2319   -1.6716 C   0  0  0  0  0  0  0  0  0  0  0  0 
    3.5890    1.1544   -1.2525 N   0  0  0  0  0  0  0  0  0  0  0  0 
    5.8322    0.6719   -1.1423 O   0  0  0  0  0  0  0  0  0  0  0  0 
    3.1424    0.5665    2.1041 H   0  0  0  0  0  0  0  0  0  0  0  0 
    2.7275    2.0532    1.2321 H   0  0  0  0  0  0  0  0  0  0  0  0 
    4.4256    1.5440    1.3638 H   0  0  0  0  0  0  0  0  0  0  0  0 
    0.8397    1.6014   -3.2734 H   0  0  0  0  0  0  0  0  0  0  0  0 
    1.1266    0.2227   -2.2007 H   0  0  0  0  0  0  0  0  0  0  0  0 
    2.2013    0.5016   -3.5816 H   0  0  0  0  0  0  0  0  0  0  0  0 
    2.2696   -0.0353   -0.1626 H   0  0  0  0  0  0  0  0  0  0  0  0 
    3.9802   -0.4681   -0.0281 H   0  0  0  0  0  0  0  0  0  0  0  0 
    1.9243    2.4153   -1.1810 H   0  0  0  0  0  0  0  0  0  0  0  0 
    2.9921    2.6542   -2.5563 H   0  0  0  0  0  0  0  0  0  0  0  0 
    4.9973    1.8710   -2.5707 H   0  0  0  0  0  0  0  0  0  0  0  0 
  1 10  1  0  0  0  0 
  1  8  1  0  0  0  0 
  2 12  1  0  0  0  0 
  2  4  1  0  0  0  0 
  3 15  1  0  0  0  0 
  3  1  1  0  0  0  0 
  4  6  1  0  0  0  0 
  4 16  1  0  0  0  0 
  5  6  1  0  0  0  0 
  5  7  2  0  0  0  0 
  6  3  1  0  0  0  0 
  9  1  1  0  0  0  0 
 11  2  1  0  0  0  0 
 13  2  1  0  0  0  0 
 14  3  1  0  0  0  0 
 17  4  1  0  0  0  0 
 18  5  1  0  0  0  0 
M  END 
>  <HBA> 
2 
 
>  <HBD> 
0 
 
>  <TPSA> 
20.31 
 
>  <cid> 
12051 
 
>  <dipole> 
3.88 
 
>  <excitation_energy_1> 
5.588 
 
>  <excitation_energy_2> 
5.944 
 
>  <excitation_energy_3> 
6.28 
 
>  <excitation_energy_4> 
6.396 
 
>  <homo_energy> 
-6.485 
 
>  <homo_lumo_gap> 
7.372 
 
>  <logP> 
1.121 
 
>  <lumo_energy> 
0.887 
 
>  <melting_point> 
-1.87 
 
>  <molecular_refractivity> 
29.63 
 
>  <oscillator_strength_1> 
0.0013 
 
>  <oscillator_strength_2> 
0.025 
 
>  <oscillator_strength_3> 
0.0507 
 
>  <oscillator_strength_4> 
0.0063 
 
>  <open_babel_can_smiles> 
CCN(C=O)CC 
 
>  <mulliken_charges> 
18 
1   -0.445048 
2   -0.439836 
3   -0.147897 
4   -0.151724 
5   0.347941 
6   -0.348521 
7   -0.476861 
8   0.147711 
9   0.142435 
10   0.176151 
11   0.150303 
12   0.15557 
13   0.15857 
14   0.14183 
15   0.182576 
16   0.152814 
17   0.155952 
18   0.098032 
 
>  <lowdin_charges> 
18 
1   -0.451183 
2   -0.456929 
3   -0.195533 
4   -0.196941 
5   0.040339 
6   -0.102353 
7   -0.307368 
8   0.155298 
9   0.147141 
10   0.164013 
11   0.157154 
12   0.15457 
13   0.15756 
14   0.144637 
15   0.169846 
16   0.148915 
17   0.154831 
18   0.116002 
 
$$$$ 
 
