PCCDB-ID:  25605 
public computational chemistry database (PCCDB) project, http://pccdb.org 
 
 24 23  0  0  0  0  0  0  0  0999 V2000 
    2.5557   -0.6563   -1.4942 C   0  0  0  0  0  0  0  0  0  0  0  0 
    2.0580    0.3832   -4.3001 C   0  0  0  0  0  0  0  0  0  0  0  0 
    0.6185    0.7528   -4.7494 C   0  0  0  0  0  0  0  0  0  0  0  0 
    2.4477    1.1535   -3.0440 C   0  0  0  0  0  0  0  0  0  0  0  0 
    0.4225    0.7746   -6.2527 C   0  0  0  0  0  0  0  0  0  0  0  0 
    2.6671    0.7319   -1.8743 N   0  0  0  0  0  0  0  0  0  0  0  0 
    1.0542   -0.4558   -6.9144 N   0  0  0  0  0  0  0  0  0  0  0  0 
   -1.0709    0.8044   -6.6353 N   0  0  0  0  0  0  0  0  0  0  0  0 
    1.0111    2.0266   -6.9366 N   0  0  0  0  0  0  0  0  0  0  0  0 
    2.5332    2.5048   -3.2438 O   0  0  0  0  0  0  0  0  0  0  0  0 
    0.6800   -1.5186   -6.4477 O   0  0  0  0  0  0  0  0  0  0  0  0 
    1.8800   -0.2682   -7.7902 O   0  0  0  0  0  0  0  0  0  0  0  0 
   -1.7182    1.6429   -6.0265 O   0  0  0  0  0  0  0  0  0  0  0  0 
   -1.4569    0.0316   -7.4893 O   0  0  0  0  0  0  0  0  0  0  0  0 
    0.5693    2.2930   -8.0361 O   0  0  0  0  0  0  0  0  0  0  0  0 
    1.8735    2.6421   -6.3206 O   0  0  0  0  0  0  0  0  0  0  0  0 
    3.5216   -0.9964   -1.1013 H   0  0  0  0  0  0  0  0  0  0  0  0 
    2.2472   -1.3583   -2.2852 H   0  0  0  0  0  0  0  0  0  0  0  0 
    1.8352   -0.7416   -0.6716 H   0  0  0  0  0  0  0  0  0  0  0  0 
    2.7847    0.6319   -5.0818 H   0  0  0  0  0  0  0  0  0  0  0  0 
    2.1231   -0.6933   -4.1395 H   0  0  0  0  0  0  0  0  0  0  0  0 
    0.3217    1.7384   -4.3835 H   0  0  0  0  0  0  0  0  0  0  0  0 
   -0.0945    0.0311   -4.3423 H   0  0  0  0  0  0  0  0  0  0  0  0 
    2.4990    2.7003   -4.1954 H   0  0  0  0  0  0  0  0  0  0  0  0 
  1 17  1  0  0  0  0 
  1 19  1  0  0  0  0 
  2 21  1  0  0  0  0 
  2  4  1  0  0  0  0 
  3 22  1  0  0  0  0 
  3 23  1  0  0  0  0 
  3  2  1  0  0  0  0 
  4  6  2  0  0  0  0 
  5  3  1  0  0  0  0 
  6  1  1  0  0  0  0 
  7 11  2  0  0  0  0 
  7  5  1  0  0  0  0 
  8  5  1  0  0  0  0 
  8 13  2  0  0  0  0 
  9 16  2  0  0  0  0 
  9  5  1  0  0  0  0 
 10  4  1  0  0  0  0 
 12  7  2  0  0  0  0 
 14  8  2  0  0  0  0 
 15  9  2  0  0  0  0 
 18  1  1  0  0  0  0 
 20  2  1  0  0  0  0 
 24 10  1  0  0  0  0 
M  END 
>  <HBA> 
2 
 
>  <HBD> 
1 
 
>  <TPSA> 
166.56 
 
>  <cid> 
25605 
 
>  <dipole> 
1.74 
 
>  <excitation_energy_1> 
2.578 
 
>  <excitation_energy_2> 
2.762 
 
>  <excitation_energy_3> 
2.816 
 
>  <excitation_energy_4> 
3.026 
 
>  <homo_energy> 
-7.037 
 
>  <homo_lumo_gap> 
3.195 
 
>  <logP> 
0.957 
 
>  <lumo_energy> 
-3.842 
 
>  <melting_point> 
125.96 
 
>  <molecular_refractivity> 
53.5 
 
>  <oscillator_strength_1> 
0.0 
 
>  <oscillator_strength_2> 
0.0024 
 
>  <oscillator_strength_3> 
0.0052 
 
>  <oscillator_strength_4> 
0.0001 
 
>  <open_babel_can_smiles> 
C/N=C(\CCC(N(=O)=O)(N(=O)=O)N(=O)=O)/O 
 
>  <mulliken_charges> 
24 
1   -0.329569 
2   -0.396493 
3   -0.295327 
4   0.486399 
5   0.308203 
6   -0.392299 
7   0.486191 
8   0.497606 
9   0.507223 
10   -0.593138 
11   -0.327419 
12   -0.325185 
13   -0.340591 
14   -0.314674 
15   -0.301731 
16   -0.376078 
17   0.17005 
18   0.121507 
19   0.16782 
20   0.186775 
21   0.193784 
22   0.22593 
23   0.214062 
24   0.426956 
 
>  <lowdin_charges> 
24 
1   -0.356846 
2   -0.318508 
3   -0.28422 
4   0.120081 
5   0.096541 
6   -0.185325 
7   0.292698 
8   0.294925 
9   0.294465 
10   -0.37249 
11   -0.188132 
12   -0.181968 
13   -0.196936 
14   -0.17135 
15   -0.161862 
16   -0.20866 
17   0.160455 
18   0.125486 
19   0.159768 
20   0.169606 
21   0.173098 
22   0.194135 
23   0.193863 
24   0.351173 
 
$$$$ 
 
