PCCDB-ID:  13032 
public computational chemistry database (PCCDB) project, http://pccdb.org 
 
 23 23  0  0  0  0  0  0  0  0999 V2000 
    2.0067    0.8407    1.1749 C   0  0  0  0  0  0  0  0  0  0  0  0 
    2.1239   -1.4321    0.0462 C   0  0  0  0  0  0  0  0  0  0  0  0 
    6.8419    3.1261   -0.1838 C   0  0  0  0  0  0  0  0  0  0  0  0 
    6.1990    2.9083   -1.4057 C   0  0  0  0  0  0  0  0  0  0  0  0 
    6.4256    2.3971    0.9298 C   0  0  0  0  0  0  0  0  0  0  0  0 
    5.1637    1.9860   -1.5093 C   0  0  0  0  0  0  0  0  0  0  0  0 
    5.3882    1.4688    0.8394 C   0  0  0  0  0  0  0  0  0  0  0  0 
    2.9226   -0.2274    0.5527 C   0  0  0  0  0  0  0  0  0  0  0  0 
    4.7379    1.2430   -0.3891 C   0  0  0  0  0  0  0  0  0  0  0  0 
    3.7382    0.2839   -0.5504 N   0  0  0  0  0  0  0  0  0  0  0  0 
    1.4551    0.4351    2.0315 H   0  0  0  0  0  0  0  0  0  0  0  0 
    1.2748    1.1944    0.4378 H   0  0  0  0  0  0  0  0  0  0  0  0 
    2.5847    1.7045    1.5180 H   0  0  0  0  0  0  0  0  0  0  0  0 
    1.5366   -1.8762    0.8567 H   0  0  0  0  0  0  0  0  0  0  0  0 
    2.7902   -2.1970   -0.3645 H   0  0  0  0  0  0  0  0  0  0  0  0 
    1.4211   -1.1307   -0.7426 H   0  0  0  0  0  0  0  0  0  0  0  0 
    7.6481    3.8491   -0.1031 H   0  0  0  0  0  0  0  0  0  0  0  0 
    6.5034    3.4646   -2.2890 H   0  0  0  0  0  0  0  0  0  0  0  0 
    6.9099    2.5508    1.8912 H   0  0  0  0  0  0  0  0  0  0  0  0 
    4.6757    1.8236   -2.4688 H   0  0  0  0  0  0  0  0  0  0  0  0 
    5.0928    0.9155    1.7247 H   0  0  0  0  0  0  0  0  0  0  0  0 
    3.6155   -0.5888    1.3224 H   0  0  0  0  0  0  0  0  0  0  0  0 
    3.2115    0.3995   -1.4092 H   0  0  0  0  0  0  0  0  0  0  0  0 
  1 13  1  0  0  0  0 
  1 11  1  0  0  0  0 
  2  8  1  0  0  0  0 
  2 14  1  0  0  0  0 
  3 17  1  0  0  0  0 
  3  5  2  0  0  0  0 
  4  3  1  0  0  0  0 
  5 19  1  0  0  0  0 
  6  4  2  0  0  0  0 
  6  9  1  0  0  0  0 
  7  5  1  0  0  0  0 
  7 21  1  0  0  0  0 
  8  1  1  0  0  0  0 
  8 22  1  0  0  0  0 
  9  7  2  0  0  0  0 
 10  9  1  0  0  0  0 
 10  8  1  0  0  0  0 
 12  1  1  0  0  0  0 
 15  2  1  0  0  0  0 
 16  2  1  0  0  0  0 
 18  4  1  0  0  0  0 
 20  6  1  0  0  0  0 
 23 10  1  0  0  0  0 
M  END 
>  <HBA> 
1 
 
>  <HBD> 
1 
 
>  <TPSA> 
12.03 
 
>  <cid> 
13032 
 
>  <dipole> 
1.75 
 
>  <excitation_energy_1> 
4.521 
 
>  <excitation_energy_2> 
4.704 
 
>  <excitation_energy_3> 
4.999 
 
>  <excitation_energy_4> 
5.162 
 
>  <homo_energy> 
-5.121 
 
>  <homo_lumo_gap> 
5.429 
 
>  <logP> 
2.58 
 
>  <lumo_energy> 
0.307 
 
>  <melting_point> 
36.54 
 
>  <molecular_refractivity> 
45.36 
 
>  <oscillator_strength_1> 
0.0338 
 
>  <oscillator_strength_2> 
0.0027 
 
>  <oscillator_strength_3> 
0.0063 
 
>  <oscillator_strength_4> 
0.1779 
 
>  <open_babel_can_smiles> 
CC(Nc1ccccc1)C 
 
>  <mulliken_charges> 
23 
1   -0.441447 
2   -0.454448 
3   -0.139636 
4   -0.13283 
5   -0.138885 
6   -0.194488 
7   -0.182249 
8   0.045735 
9   0.362665 
10   -0.6551 
11   0.14081 
12   0.137044 
13   0.161641 
14   0.14998 
15   0.160768 
16   0.136954 
17   0.118179 
18   0.122565 
19   0.122328 
20   0.110841 
21   0.120903 
22   0.144473 
23   0.304196 
 
>  <lowdin_charges> 
23 
1   -0.461617 
2   -0.449722 
3   -0.191481 
4   -0.147902 
5   -0.146196 
6   -0.204252 
7   -0.213064 
8   -0.054439 
9   0.064219 
10   -0.297554 
11   0.151271 
12   0.147574 
13   0.159903 
14   0.15643 
15   0.159692 
16   0.145656 
17   0.153878 
18   0.155285 
19   0.154109 
20   0.148914 
21   0.155524 
22   0.145962 
23   0.267809 
 
$$$$ 
 
