PCCDB-ID:  8207 
public computational chemistry database (PCCDB) project, http://pccdb.org 
 
 42 41  0  0  0  0  0  0  0  0999 V2000 
    4.1175   -2.2937    1.0352 C   0  0  0  0  0  0  0  0  0  0  0  0 
    4.3680   -0.8297    0.6588 C   0  0  0  0  0  0  0  0  0  0  0  0 
    5.6548   -0.2650    1.2808 C   0  0  0  0  0  0  0  0  0  0  0  0 
    5.9657    1.2075    0.9302 C   0  0  0  0  0  0  0  0  0  0  0  0 
    6.8767    1.4358   -0.2904 C   0  0  0  0  0  0  0  0  0  0  0  0 
    6.3135    0.9832   -1.6461 C   0  0  0  0  0  0  0  0  0  0  0  0 
    7.2100    1.3574   -2.8434 C   0  0  0  0  0  0  0  0  0  0  0  0 
    8.5272    0.5551   -2.9785 C   0  0  0  0  0  0  0  0  0  0  0  0 
    8.4776   -0.6267   -3.9668 C   0  0  0  0  0  0  0  0  0  0  0  0 
    7.5061   -1.7738   -3.6252 C   0  0  0  0  0  0  0  0  0  0  0  0 
    7.8399   -2.6061   -2.3660 C   0  0  0  0  0  0  0  0  0  0  0  0 
    8.7440   -3.8319   -2.5853 C   0  0  0  0  0  0  0  0  0  0  0  0 
   10.1723   -3.5356   -3.0286 C   0  0  0  0  0  0  0  0  0  0  0  0 
   10.8882   -4.7684   -3.0073 O   0  0  0  0  0  0  0  0  0  0  0  0 
    3.1821   -2.6656    0.6015 H   0  0  0  0  0  0  0  0  0  0  0  0 
    4.0526   -2.4178    2.1235 H   0  0  0  0  0  0  0  0  0  0  0  0 
    4.9296   -2.9395    0.6784 H   0  0  0  0  0  0  0  0  0  0  0  0 
    3.5173   -0.2168    0.9892 H   0  0  0  0  0  0  0  0  0  0  0  0 
    4.4014   -0.7352   -0.4335 H   0  0  0  0  0  0  0  0  0  0  0  0 
    6.5086   -0.8982    0.9953 H   0  0  0  0  0  0  0  0  0  0  0  0 
    5.5684   -0.3613    2.3722 H   0  0  0  0  0  0  0  0  0  0  0  0 
    6.4561    1.6782    1.7926 H   0  0  0  0  0  0  0  0  0  0  0  0 
    5.0218    1.7552    0.7899 H   0  0  0  0  0  0  0  0  0  0  0  0 
    7.8389    0.9370   -0.1042 H   0  0  0  0  0  0  0  0  0  0  0  0 
    7.1039    2.5103   -0.3524 H   0  0  0  0  0  0  0  0  0  0  0  0 
    5.3261    1.4459   -1.7879 H   0  0  0  0  0  0  0  0  0  0  0  0 
    6.1447   -0.1003   -1.6363 H   0  0  0  0  0  0  0  0  0  0  0  0 
    7.4455    2.4279   -2.7652 H   0  0  0  0  0  0  0  0  0  0  0  0 
    6.6324    1.2494   -3.7723 H   0  0  0  0  0  0  0  0  0  0  0  0 
    8.8561    0.2058   -1.9908 H   0  0  0  0  0  0  0  0  0  0  0  0 
    9.3209    1.2302   -3.3243 H   0  0  0  0  0  0  0  0  0  0  0  0 
    9.4944   -1.0249   -4.0792 H   0  0  0  0  0  0  0  0  0  0  0  0 
    8.2024   -0.2310   -4.9552 H   0  0  0  0  0  0  0  0  0  0  0  0 
    7.4464   -2.4512   -4.4891 H   0  0  0  0  0  0  0  0  0  0  0  0 
    6.4989   -1.3516   -3.5173 H   0  0  0  0  0  0  0  0  0  0  0  0 
    6.9006   -2.9762   -1.9349 H   0  0  0  0  0  0  0  0  0  0  0  0 
    8.2821   -1.9614   -1.5936 H   0  0  0  0  0  0  0  0  0  0  0  0 
    8.2854   -4.5058   -3.3214 H   0  0  0  0  0  0  0  0  0  0  0  0 
    8.8100   -4.3990   -1.6476 H   0  0  0  0  0  0  0  0  0  0  0  0 
   10.6305   -2.7981   -2.3471 H   0  0  0  0  0  0  0  0  0  0  0  0 
   10.1823   -3.0984   -4.0391 H   0  0  0  0  0  0  0  0  0  0  0  0 
   11.7860   -4.5964   -3.3288 H   0  0  0  0  0  0  0  0  0  0  0  0 
  1 16  1  0  0  0  0 
  2 18  1  0  0  0  0 
  2  1  1  0  0  0  0 
  2  3  1  0  0  0  0 
  3 21  1  0  0  0  0 
  4  3  1  0  0  0  0 
  4 22  1  0  0  0  0 
  5 24  1  0  0  0  0 
  5  4  1  0  0  0  0 
  6 27  1  0  0  0  0 
  6  5  1  0  0  0  0 
  7 28  1  0  0  0  0 
  7  6  1  0  0  0  0 
  8  7  1  0  0  0  0 
  8 30  1  0  0  0  0 
  9 10  1  0  0  0  0 
  9  8  1  0  0  0  0 
 10 35  1  0  0  0  0 
 10 11  1  0  0  0  0 
 11 36  1  0  0  0  0 
 11 37  1  0  0  0  0 
 12 11  1  0  0  0  0 
 12 39  1  0  0  0  0 
 13 14  1  0  0  0  0 
 13 12  1  0  0  0  0 
 13 40  1  0  0  0  0 
 15  1  1  0  0  0  0 
 17  1  1  0  0  0  0 
 19  2  1  0  0  0  0 
 20  3  1  0  0  0  0 
 23  4  1  0  0  0  0 
 25  5  1  0  0  0  0 
 26  6  1  0  0  0  0 
 29  7  1  0  0  0  0 
 31  8  1  0  0  0  0 
 32  9  1  0  0  0  0 
 33  9  1  0  0  0  0 
 34 10  1  0  0  0  0 
 38 12  1  0  0  0  0 
 41 13  1  0  0  0  0 
 42 14  1  0  0  0  0 
M  END 
>  <HBA> 
1 
 
>  <HBD> 
1 
 
>  <TPSA> 
20.23 
 
>  <cid> 
8207 
 
>  <dipole> 
1.58 
 
>  <excitation_energy_1> 
6.294 
 
>  <excitation_energy_2> 
7.028 
 
>  <excitation_energy_3> 
7.209 
 
>  <excitation_energy_4> 
7.303 
 
>  <homo_energy> 
-7.102 
 
>  <homo_lumo_gap> 
8.879 
 
>  <logP> 
4.29 
 
>  <lumo_energy> 
1.777 
 
>  <melting_point> 
-12.59 
 
>  <molecular_refractivity> 
65.77 
 
>  <oscillator_strength_1> 
0.0006 
 
>  <oscillator_strength_2> 
0.0014 
 
>  <oscillator_strength_3> 
0.0122 
 
>  <oscillator_strength_4> 
0.0129 
 
>  <open_babel_can_smiles> 
CCCCCCCCCCCCCO 
 
>  <mulliken_charges> 
42 
1   -0.443889 
2   -0.253515 
3   -0.248345 
4   -0.26033 
5   -0.255498 
6   -0.26532 
7   -0.260158 
8   -0.260763 
9   -0.267222 
10   -0.262824 
11   -0.272704 
12   -0.262685 
13   -0.028152 
14   -0.622165 
15   0.140974 
16   0.140959 
17   0.142086 
18   0.129813 
19   0.138034 
20   0.128116 
21   0.127572 
22   0.128202 
23   0.127657 
24   0.12976 
25   0.124942 
26   0.12601 
27   0.146816 
28   0.128444 
29   0.129492 
30   0.136582 
31   0.129478 
32   0.129382 
33   0.128468 
34   0.130587 
35   0.136836 
36   0.136093 
37   0.134834 
38   0.141427 
39   0.145767 
40   0.113606 
41   0.122434 
42   0.3892 
 
>  <lowdin_charges> 
42 
1   -0.444538 
2   -0.274611 
3   -0.277289 
4   -0.278381 
5   -0.274339 
6   -0.279686 
7   -0.277794 
8   -0.283605 
9   -0.278136 
10   -0.283556 
11   -0.28332 
12   -0.281735 
13   -0.1392 
14   -0.473364 
15   0.149078 
16   0.144021 
17   0.146582 
18   0.138724 
19   0.139097 
20   0.138264 
21   0.138296 
22   0.14385 
23   0.138368 
24   0.136196 
25   0.136474 
26   0.138927 
27   0.140984 
28   0.138881 
29   0.140818 
30   0.139104 
31   0.14474 
32   0.137776 
33   0.139392 
34   0.142336 
35   0.142651 
36   0.14687 
37   0.14072 
38   0.1468 
39   0.15087 
40   0.12287 
41   0.12487 
42   0.341998 
 
$$$$ 
 
