PCCDB-ID:  22320 
public computational chemistry database (PCCDB) project, http://pccdb.org 
 
 20 19  0  0  0  0  0  0  0  0999 V2000 
    2.1703   -1.1853   -2.6545 C   0  0  0  0  0  0  0  0  0  0  0  0 
    2.4856    1.2843   -2.4486 C   0  0  0  0  0  0  0  0  0  0  0  0 
    5.8562    0.3533    0.0288 C   0  0  0  0  0  0  0  0  0  0  0  0 
    5.7802   -0.4077   -2.2494 C   0  0  0  0  0  0  0  0  0  0  0  0 
    3.7504   -0.3475   -0.9275 C   0  0  0  0  0  0  0  0  0  0  0  0 
    2.7671   -0.1456   -2.0631 C   0  0  0  0  0  0  0  0  0  0  0  0 
    5.0545    0.2717   -1.1835 N   0  0  0  0  0  0  0  0  0  0  0  0 
    1.4362   -1.0508   -3.4454 H   0  0  0  0  0  0  0  0  0  0  0  0 
    2.3898   -2.2102   -2.3645 H   0  0  0  0  0  0  0  0  0  0  0  0 
    1.7722    1.3480   -3.2760 H   0  0  0  0  0  0  0  0  0  0  0  0 
    3.4110    1.7967   -2.7343 H   0  0  0  0  0  0  0  0  0  0  0  0 
    2.0746    1.8437   -1.5964 H   0  0  0  0  0  0  0  0  0  0  0  0 
    6.7962    0.8732   -0.1871 H   0  0  0  0  0  0  0  0  0  0  0  0 
    6.1080   -0.6382    0.4563 H   0  0  0  0  0  0  0  0  0  0  0  0 
    5.3188    0.9258    0.7928 H   0  0  0  0  0  0  0  0  0  0  0  0 
    6.7056    0.1360   -2.4686 H   0  0  0  0  0  0  0  0  0  0  0  0 
    5.1710   -0.4342   -3.1574 H   0  0  0  0  0  0  0  0  0  0  0  0 
    6.0485   -1.4519   -1.9903 H   0  0  0  0  0  0  0  0  0  0  0  0 
    3.8447   -1.4286   -0.7024 H   0  0  0  0  0  0  0  0  0  0  0  0 
    3.3423    0.1299   -0.0248 H   0  0  0  0  0  0  0  0  0  0  0  0 
  1  9  1  0  0  0  0 
  1  6  2  0  0  0  0 
  2  6  1  0  0  0  0 
  2 12  1  0  0  0  0 
  3 14  1  0  0  0  0 
  3 15  1  0  0  0  0 
  4 18  1  0  0  0  0 
  4  7  1  0  0  0  0 
  5 19  1  0  0  0  0 
  5 20  1  0  0  0  0 
  6  5  1  0  0  0  0 
  7  5  1  0  0  0  0 
  7  3  1  0  0  0  0 
  8  1  1  0  0  0  0 
 10  2  1  0  0  0  0 
 11  2  1  0  0  0  0 
 13  3  1  0  0  0  0 
 16  4  1  0  0  0  0 
 17  4  1  0  0  0  0 
M  END 
>  <HBA> 
1 
 
>  <HBD> 
0 
 
>  <TPSA> 
3.24 
 
>  <cid> 
22320 
 
>  <dipole> 
0.47 
 
>  <excitation_energy_1> 
5.065 
 
>  <excitation_energy_2> 
5.365 
 
>  <excitation_energy_3> 
5.878 
 
>  <excitation_energy_4> 
6.018 
 
>  <homo_energy> 
-5.731 
 
>  <homo_lumo_gap> 
6.395 
 
>  <logP> 
1.124 
 
>  <lumo_energy> 
0.664 
 
>  <melting_point> 
-41.11 
 
>  <molecular_refractivity> 
33.38 
 
>  <oscillator_strength_1> 
0.0002 
 
>  <oscillator_strength_2> 
0.0219 
 
>  <oscillator_strength_3> 
0.011 
 
>  <oscillator_strength_4> 
0.0542 
 
>  <open_babel_can_smiles> 
CN(CC(=C)C)C 
 
>  <mulliken_charges> 
20 
1   -0.398545 
2   -0.502019 
3   -0.291484 
4   -0.300572 
5   -0.182616 
6   0.221807 
7   -0.36636 
8   0.132932 
9   0.133218 
10   0.14588 
11   0.172946 
12   0.148283 
13   0.147975 
14   0.116678 
15   0.147431 
16   0.146344 
17   0.160042 
18   0.11497 
19   0.113227 
20   0.139862 
 
>  <lowdin_charges> 
20 
1   -0.359991 
2   -0.443072 
3   -0.357149 
4   -0.359145 
5   -0.195087 
6   0.004115 
7   -0.184093 
8   0.154526 
9   0.152895 
10   0.153608 
11   0.166447 
12   0.155682 
13   0.149579 
14   0.119495 
15   0.149982 
16   0.148943 
17   0.156665 
18   0.11814 
19   0.11985 
20   0.148611 
 
$$$$ 
 
