PCCDB-ID:  26444 
public computational chemistry database (PCCDB) project, http://pccdb.org 
 
 15 15  0  0  0  0  0  0  0  0999 V2000 
    3.4484   -0.1232    1.1242 C   0  0  0  0  0  0  0  0  0  0  0  0 
    2.5559   -0.1108   -0.1287 C   0  0  0  0  0  0  0  0  0  0  0  0 
    2.8698    1.0026   -1.0827 C   0  0  0  0  0  0  0  0  0  0  0  0 
    3.2245    3.1837   -2.2885 C   0  0  0  0  0  0  0  0  0  0  0  0 
    3.2949    4.3912   -2.6852 N   0  0  0  0  0  0  0  0  0  0  0  0 
    3.3298    0.7992   -2.2691 N   0  0  0  0  0  0  0  0  0  0  0  0 
    3.5502    1.9858   -2.9154 N   0  0  0  0  0  0  0  0  0  0  0  0 
    2.6436    2.7163   -0.6543 S   0  0  0  0  0  0  0  0  0  0  0  0 
    3.1758   -0.9617    1.7735 H   0  0  0  0  0  0  0  0  0  0  0  0 
    3.3410    0.7999    1.7039 H   0  0  0  0  0  0  0  0  0  0  0  0 
    4.5032   -0.2297    0.8506 H   0  0  0  0  0  0  0  0  0  0  0  0 
    1.5017   -0.0425    0.1712 H   0  0  0  0  0  0  0  0  0  0  0  0 
    2.6737   -1.0446   -0.6884 H   0  0  0  0  0  0  0  0  0  0  0  0 
    3.6559    4.4586   -3.6398 H   0  0  0  0  0  0  0  0  0  0  0  0 
    3.8245    1.9329   -3.8858 H   0  0  0  0  0  0  0  0  0  0  0  0 
  1 10  1  0  0  0  0 
  1  9  1  0  0  0  0 
  2 12  1  0  0  0  0 
  2  1  1  0  0  0  0 
  3  8  1  0  0  0  0 
  3  2  1  0  0  0  0 
  4  8  1  0  0  0  0 
  5  4  2  0  0  0  0 
  6  3  2  0  0  0  0 
  7  4  1  0  0  0  0 
  7  6  1  0  0  0  0 
 11  1  1  0  0  0  0 
 13  2  1  0  0  0  0 
 14  5  1  0  0  0  0 
 15  7  1  0  0  0  0 
M  END 
>  <HBA> 
4 
 
>  <HBD> 
1 
 
>  <TPSA> 
80.04 
 
>  <cid> 
26444 
 
>  <dipole> 
2.61 
 
>  <excitation_energy_1> 
4.683 
 
>  <excitation_energy_2> 
4.906 
 
>  <excitation_energy_3> 
5.017 
 
>  <excitation_energy_4> 
5.727 
 
>  <homo_energy> 
-5.831 
 
>  <homo_lumo_gap> 
5.614 
 
>  <logP> 
1.264 
 
>  <lumo_energy> 
-0.218 
 
>  <melting_point> 
86.89 
 
>  <molecular_refractivity> 
34.09 
 
>  <oscillator_strength_1> 
0.0039 
 
>  <oscillator_strength_2> 
0.0927 
 
>  <oscillator_strength_3> 
0.0133 
 
>  <oscillator_strength_4> 
0.0034 
 
>  <open_babel_can_smiles> 
CCc1n[nH]c(=N)s1 
 
>  <mulliken_charges> 
15 
1   -0.450786 
2   -0.325026 
3   0.117195 
4   0.320865 
5   -0.640108 
6   -0.245847 
7   -0.445935 
8   0.217259 
9   0.155681 
10   0.162917 
11   0.16437 
12   0.165339 
13   0.177808 
14   0.280339 
15   0.345931 
 
>  <lowdin_charges> 
15 
1   -0.44072 
2   -0.269329 
3   -0.095419 
4   -0.021511 
5   -0.435995 
6   -0.115926 
7   -0.207015 
8   0.230942 
9   0.157836 
10   0.157394 
11   0.156966 
12   0.160227 
13   0.17084 
14   0.256759 
15   0.294951 
 
$$$$ 
 
