PCCDB-ID:  35834 
public computational chemistry database (PCCDB) project, http://pccdb.org 
 
 25 26  0  0  1  0  0  0  0  0999 V2000 
    5.1320   -0.0026    1.0413 C   0  0  0  0  0  0  0  0  0  0  0  0 
   -0.2223    2.1991    2.1267 C   0  0  0  0  0  0  0  0  0  0  0  0 
    0.9286    4.1163    1.0101 C   0  0  0  0  0  0  0  0  0  0  0  0 
    0.1656    2.8243    3.5006 C   0  0  0  0  0  0  0  0  0  0  0  0 
    1.2759    4.6732    2.4238 C   0  0  0  0  0  0  0  0  0  0  0  0 
    2.4572    2.6783    2.9124 C   0  0  0  0  0  0  0  0  0  0  0  0 
    0.8937    2.5684    1.1135 C   0  0  1  0  0  0  0  0  0  0  0  0 
    2.2115    2.1264    1.7113 C   0  0  0  0  0  0  0  0  0  0  0  0 
    3.0954    1.1816    0.9964 C   0  0  0  0  0  0  0  0  0  0  0  0 
    1.4513    3.5758    3.4188 N   0  0  0  0  0  0  0  0  0  0  0  0 
    2.8443    0.6950   -0.0906 O   0  0  0  0  0  0  0  0  0  0  0  0 
    4.2306    0.9094    1.6850 O   0  0  0  0  0  0  0  0  0  0  0  0 
    5.9766   -0.1085    1.7231 H   0  0  0  0  0  0  0  0  0  0  0  0 
    5.4635    0.3968    0.0788 H   0  0  0  0  0  0  0  0  0  0  0  0 
    4.6497   -0.9697    0.8745 H   0  0  0  0  0  0  0  0  0  0  0  0 
   -1.1849    2.5862    1.7703 H   0  0  0  0  0  0  0  0  0  0  0  0 
   -0.3174    1.1106    2.2020 H   0  0  0  0  0  0  0  0  0  0  0  0 
    1.6729    4.4285    0.2698 H   0  0  0  0  0  0  0  0  0  0  0  0 
   -0.0462    4.4831    0.6661 H   0  0  0  0  0  0  0  0  0  0  0  0 
    0.2797    2.0565    4.2711 H   0  0  0  0  0  0  0  0  0  0  0  0 
   -0.5950    3.5297    3.8529 H   0  0  0  0  0  0  0  0  0  0  0  0 
    0.4852    5.3283    2.8056 H   0  0  0  0  0  0  0  0  0  0  0  0 
    2.2016    5.2556    2.4077 H   0  0  0  0  0  0  0  0  0  0  0  0 
    3.3421    2.5003    3.5177 H   0  0  0  0  0  0  0  0  0  0  0  0 
    0.7258    2.1021    0.1409 H   0  0  0  0  0  0  0  0  0  0  0  0 
  1 12  1  0  0  0  0 
  1 13  1  0  0  0  0 
  2 17  1  0  0  0  0 
  2  4  1  0  0  0  0 
  3  7  1  0  0  0  0 
  3  5  1  0  0  0  0 
  4 21  1  0  0  0  0 
  4 20  1  0  0  0  0 
  5 22  1  0  0  0  0 
  5 10  1  0  0  0  0 
  6 10  1  0  0  0  0 
  6 24  1  0  0  0  0 
  7 25  1  6  0  0  0 
  7  8  1  0  0  0  0 
  7  2  1  0  0  0  0 
  8  6  2  0  0  0  0 
  9 12  1  0  0  0  0 
  9  8  1  0  0  0  0 
 10  4  1  0  0  0  0 
 11  9  2  0  0  0  0 
 14  1  1  0  0  0  0 
 15  1  1  0  0  0  0 
 16  2  1  0  0  0  0 
 18  3  1  0  0  0  0 
 19  3  1  0  0  0  0 
 23  5  1  0  0  0  0 
M  END 
>  <HBA> 
3 
 
>  <HBD> 
0 
 
>  <TPSA> 
29.54 
 
>  <cid> 
35834 
 
>  <dipole> 
0.77 
 
>  <excitation_energy_1> 
3.734 
 
>  <excitation_energy_2> 
4.912 
 
>  <excitation_energy_3> 
5.522 
 
>  <excitation_energy_4> 
5.646 
 
>  <homo_energy> 
-6.041 
 
>  <homo_lumo_gap> 
4.977 
 
>  <logP> 
0.707 
 
>  <lumo_energy> 
-1.064 
 
>  <melting_point> 
44.89 
 
>  <molecular_refractivity> 
48.77 
 
>  <oscillator_strength_1> 
0.0 
 
>  <oscillator_strength_2> 
0.0 
 
>  <oscillator_strength_3> 
0.0214 
 
>  <oscillator_strength_4> 
0.2282 
 
>  <open_babel_can_smiles> 
COC(=O)C1=CN2CC[C@H]1CC2 
 
>  <mulliken_charges> 
25 
1   -0.215752 
2   -0.277511 
3   -0.277459 
4   -0.145839 
5   -0.145891 
6   -0.057556 
7   -0.177797 
8   0.11721 
9   0.577408 
10   -0.413611 
11   -0.493278 
12   -0.463368 
13   0.162904 
14   0.169423 
15   0.169514 
16   0.136722 
17   0.146599 
18   0.146567 
19   0.136707 
20   0.151684 
21   0.145237 
22   0.145219 
23   0.15171 
24   0.153856 
25   0.157302 
 
>  <lowdin_charges> 
25 
1   -0.277857 
2   -0.292551 
3   -0.296027 
4   -0.20859 
5   -0.206894 
6   -0.079319 
7   -0.124642 
8   -0.062039 
9   0.190284 
10   -0.181289 
11   -0.269191 
12   -0.193302 
13   0.160108 
14   0.15858 
15   0.158404 
16   0.145365 
17   0.148232 
18   0.151194 
19   0.145329 
20   0.151764 
21   0.149516 
22   0.149422 
23   0.15113 
24   0.168291 
25   0.164081 
 
$$$$ 
 
