PCCDB-ID:  68514 
public computational chemistry database (PCCDB) project, http://pccdb.org 
 
 18 18  0  0  0  0  0  0  0  0999 V2000 
    1.2803   -0.3666   -0.6693 C   0  0  0  0  0  0  0  0  0  0  0  0 
    2.2056    0.1433    0.1522 C   0  0  0  0  0  0  0  0  0  0  0  0 
    4.7155   -0.5132    2.8999 C   0  0  0  0  0  0  0  0  0  0  0  0 
    3.9296    0.1260    1.9402 C   0  0  0  0  0  0  0  0  0  0  0  0 
    4.6050   -1.8865    3.0971 C   0  0  0  0  0  0  0  0  0  0  0  0 
    2.9010   -1.9699    1.3485 C   0  0  0  0  0  0  0  0  0  0  0  0 
    3.0096   -0.5844    1.1483 C   0  0  0  0  0  0  0  0  0  0  0  0 
    3.6921   -2.5873    2.3083 C   0  0  0  0  0  0  0  0  0  0  0  0 
    3.5604   -4.0434    2.5008 N   0  0  0  0  0  0  0  0  0  0  0  0 
    4.2599   -4.5697    3.3657 O   0  0  0  0  0  0  0  0  0  0  0  0 
    2.7601   -4.6469    1.7869 O   0  0  0  0  0  0  0  0  0  0  0  0 
    0.7469    0.2694   -1.3686 H   0  0  0  0  0  0  0  0  0  0  0  0 
    1.0166   -1.4206   -0.6819 H   0  0  0  0  0  0  0  0  0  0  0  0 
    2.4079    1.2127    0.1019 H   0  0  0  0  0  0  0  0  0  0  0  0 
    5.4174    0.0621    3.4961 H   0  0  0  0  0  0  0  0  0  0  0  0 
    4.0276    1.1994    1.7976 H   0  0  0  0  0  0  0  0  0  0  0  0 
    5.1977   -2.4144    3.8332 H   0  0  0  0  0  0  0  0  0  0  0  0 
    2.2147   -2.5778    0.7730 H   0  0  0  0  0  0  0  0  0  0  0  0 
  1  2  2  0  0  0  0 
  2  7  1  0  0  0  0 
  3  5  1  0  0  0  0 
  3 15  1  0  0  0  0 
  4  3  2  0  0  0  0 
  5 17  1  0  0  0  0 
  6  8  1  0  0  0  0 
  7  6  2  0  0  0  0 
  7  4  1  0  0  0  0 
  8  9  1  0  0  0  0 
  8  5  2  0  0  0  0 
  9 10  2  0  0  0  0 
 11  9  2  0  0  0  0 
 12  1  1  0  0  0  0 
 13  1  1  0  0  0  0 
 14  2  1  0  0  0  0 
 16  4  1  0  0  0  0 
 18  6  1  0  0  0  0 
M  END 
>  <HBA> 
0 
 
>  <HBD> 
0 
 
>  <TPSA> 
45.82 
 
>  <cid> 
68514 
 
>  <dipole> 
4.59 
 
>  <excitation_energy_1> 
3.507 
 
>  <excitation_energy_2> 
3.749 
 
>  <excitation_energy_3> 
4.27 
 
>  <excitation_energy_4> 
4.57 
 
>  <homo_energy> 
-6.713 
 
>  <homo_lumo_gap> 
4.299 
 
>  <logP> 
2.761 
 
>  <lumo_energy> 
-2.414 
 
>  <melting_point> 
36.25 
 
>  <molecular_refractivity> 
45.35 
 
>  <oscillator_strength_1> 
0.016 
 
>  <oscillator_strength_2> 
0.0 
 
>  <oscillator_strength_3> 
0.0003 
 
>  <oscillator_strength_4> 
0.11 
 
>  <open_babel_can_smiles> 
C=Cc1cccc(c1)N(=O)=O 
 
>  <mulliken_charges> 
18 
1   -0.34161 
2   -0.119305 
3   -0.137725 
4   -0.175706 
5   -0.15176 
6   -0.211924 
7   0.163003 
8   0.273838 
9   0.383473 
10   -0.39301 
11   -0.393976 
12   0.154726 
13   0.154746 
14   0.135231 
15   0.150352 
16   0.144996 
17   0.183329 
18   0.181324 
 
>  <lowdin_charges> 
18 
1   -0.314648 
2   -0.148465 
3   -0.147785 
4   -0.136911 
5   -0.14212 
6   -0.137478 
7   0.00492 
8   0.005661 
9   0.31173 
10   -0.246173 
11   -0.247634 
12   0.170168 
13   0.161469 
14   0.15676 
15   0.170056 
16   0.163108 
17   0.189512 
18   0.187832 
 
$$$$ 
 
