PCCDB-ID:  32786 
public computational chemistry database (PCCDB) project, http://pccdb.org 
 
 24 24  0  0  0  0  0  0  0  0999 V2000 
    0.8656    0.2076    0.0355 C   0  0  0  0  0  0  0  0  0  0  0  0 
    5.2247    2.7966    0.0686 C   0  0  0  0  0  0  0  0  0  0  0  0 
    7.2927   -3.3465   -0.3087 C   0  0  0  0  0  0  0  0  0  0  0  0 
    3.0864    1.4333    0.0427 C   0  0  0  0  0  0  0  0  0  0  0  0 
    3.1022   -0.9643   -0.0869 C   0  0  0  0  0  0  0  0  0  0  0  0 
    5.1889    0.2729   -0.0683 C   0  0  0  0  0  0  0  0  0  0  0  0 
    2.3767    0.2263   -0.0053 C   0  0  0  0  0  0  0  0  0  0  0  0 
    4.4859    1.4786    0.0136 C   0  0  0  0  0  0  0  0  0  0  0  0 
    4.5013   -0.9456   -0.1188 C   0  0  0  0  0  0  0  0  0  0  0  0 
    5.2080   -2.2550   -0.2074 C   0  0  0  0  0  0  0  0  0  0  0  0 
    4.6557   -3.3374   -0.2516 O   0  0  0  0  0  0  0  0  0  0  0  0 
    6.5558   -2.1178   -0.2341 O   0  0  0  0  0  0  0  0  0  0  0  0 
    0.4531    1.2214    0.0421 H   0  0  0  0  0  0  0  0  0  0  0  0 
    0.4976   -0.3082    0.9311 H   0  0  0  0  0  0  0  0  0  0  0  0 
    0.4490   -0.3187   -0.8316 H   0  0  0  0  0  0  0  0  0  0  0  0 
    4.5315    3.6420    0.1198 H   0  0  0  0  0  0  0  0  0  0  0  0 
    5.8582    2.9372   -0.8158 H   0  0  0  0  0  0  0  0  0  0  0  0 
    5.8815    2.8501    0.9456 H   0  0  0  0  0  0  0  0  0  0  0  0 
    8.3442   -3.0567   -0.3142 H   0  0  0  0  0  0  0  0  0  0  0  0 
    7.0402   -3.8927   -1.2215 H   0  0  0  0  0  0  0  0  0  0  0  0 
    7.0734   -3.9800    0.5549 H   0  0  0  0  0  0  0  0  0  0  0  0 
    2.5314    2.3677    0.1052 H   0  0  0  0  0  0  0  0  0  0  0  0 
    2.5965   -1.9245   -0.1270 H   0  0  0  0  0  0  0  0  0  0  0  0 
    6.2736    0.2748   -0.0943 H   0  0  0  0  0  0  0  0  0  0  0  0 
  1 13  1  0  0  0  0 
  1 14  1  0  0  0  0 
  2 16  1  0  0  0  0 
  2 18  1  0  0  0  0 
  3 12  1  0  0  0  0 
  3 21  1  0  0  0  0 
  4 22  1  0  0  0  0 
  5  7  1  0  0  0  0 
  6  8  2  0  0  0  0 
  7  1  1  0  0  0  0 
  7  4  2  0  0  0  0 
  8  4  1  0  0  0  0 
  8  2  1  0  0  0  0 
  9  5  2  0  0  0  0 
  9  6  1  0  0  0  0 
 10  9  1  0  0  0  0 
 11 10  2  0  0  0  0 
 12 10  1  0  0  0  0 
 15  1  1  0  0  0  0 
 17  2  1  0  0  0  0 
 19  3  1  0  0  0  0 
 20  3  1  0  0  0  0 
 23  5  1  0  0  0  0 
 24  6  1  0  0  0  0 
M  END 
>  <HBA> 
2 
 
>  <HBD> 
0 
 
>  <TPSA> 
26.3 
 
>  <cid> 
32786 
 
>  <dipole> 
2.01 
 
>  <excitation_energy_1> 
4.62 
 
>  <excitation_energy_2> 
4.91 
 
>  <excitation_energy_3> 
5.249 
 
>  <excitation_energy_4> 
6.095 
 
>  <homo_energy> 
-6.49 
 
>  <homo_lumo_gap> 
5.47 
 
>  <logP> 
2.09 
 
>  <lumo_energy> 
-1.02 
 
>  <melting_point> 
38.94 
 
>  <molecular_refractivity> 
47.65 
 
>  <oscillator_strength_1> 
0.0232 
 
>  <oscillator_strength_2> 
0.0001 
 
>  <oscillator_strength_3> 
0.1723 
 
>  <oscillator_strength_4> 
0.5325 
 
>  <open_babel_can_smiles> 
COC(=O)c1cc(C)cc(c1)C 
 
>  <mulliken_charges> 
24 
1   -0.529896 
2   -0.530472 
3   -0.215084 
4   -0.228858 
5   -0.21398 
6   -0.219551 
7   0.177156 
8   0.179543 
9   0.057256 
10   0.59274 
11   -0.494104 
12   -0.468638 
13   0.15413 
14   0.167137 
15   0.166244 
16   0.155348 
17   0.164924 
18   0.165081 
19   0.161894 
20   0.170379 
21   0.170352 
22   0.119424 
23   0.153094 
24   0.145883 
 
>  <lowdin_charges> 
24 
1   -0.442655 
2   -0.443042 
3   -0.276777 
4   -0.165857 
5   -0.146827 
6   -0.1531 
7   0.002815 
8   0.000968 
9   -0.042739 
10   0.198802 
11   -0.272158 
12   -0.194717 
13   0.155599 
14   0.163937 
15   0.163839 
16   0.157307 
17   0.162554 
18   0.16258 
19   0.15736 
20   0.159734 
21   0.160055 
22   0.153656 
23   0.17286 
24   0.165804 
 
$$$$ 
 
