PCCDB-ID:  28165 
public computational chemistry database (PCCDB) project, http://pccdb.org 
 
 36 35  0  0  1  0  0  0  0  0999 V2000 
    4.2593    3.6084   -1.2884 C   0  0  0  0  0  0  0  0  0  0  0  0 
   -2.5723    1.5108   -0.3803 C   0  0  0  0  0  0  0  0  0  0  0  0 
   -2.3335    4.1528    4.3542 C   0  0  0  0  0  0  0  0  0  0  0  0 
    4.0434    1.5184    1.7911 C   0  0  0  0  0  0  0  0  0  0  0  0 
    3.3100    4.3559   -0.3357 C   0  0  0  0  0  0  0  0  0  0  0  0 
   -1.0552    1.5568   -0.4706 C   0  0  0  0  0  0  0  0  0  0  0  0 
   -2.0057    3.7911    2.9169 C   0  0  0  0  0  0  0  0  0  0  0  0 
    1.6787    2.2676    2.2998 C   0  0  0  0  0  0  0  0  0  0  0  0 
    2.8360    2.3272    1.2778 C   0  0  1  0  0  0  0  0  0  0  0  0 
    3.2746    3.7952    1.0747 C   0  0  0  0  0  0  0  0  0  0  0  0 
    3.5896    4.4608    2.0445 O   0  0  0  0  0  0  0  0  0  0  0  0 
    0.1701    4.0319    0.6948 O   0  0  0  0  0  0  0  0  0  0  0  0 
   -0.4522    1.5053    0.8441 O   0  0  0  0  0  0  0  0  0  0  0  0 
   -0.7924    3.0015    2.9233 O   0  0  0  0  0  0  0  0  0  0  0  0 
    0.1072    2.8405    1.5896 P   0  0  0  0  0  0  0  0  0  0  0  0 
    4.2153    4.0527   -2.2883 H   0  0  0  0  0  0  0  0  0  0  0  0 
    3.9939    2.5496   -1.3883 H   0  0  0  0  0  0  0  0  0  0  0  0 
    5.2980    3.6654   -0.9439 H   0  0  0  0  0  0  0  0  0  0  0  0 
   -3.0050    1.4516   -1.3859 H   0  0  0  0  0  0  0  0  0  0  0  0 
   -2.9648    2.4113    0.1043 H   0  0  0  0  0  0  0  0  0  0  0  0 
   -2.9003    0.6366    0.1911 H   0  0  0  0  0  0  0  0  0  0  0  0 
   -3.2636    4.7307    4.3924 H   0  0  0  0  0  0  0  0  0  0  0  0 
   -1.5314    4.7547    4.7923 H   0  0  0  0  0  0  0  0  0  0  0  0 
   -2.4600    3.2495    4.9592 H   0  0  0  0  0  0  0  0  0  0  0  0 
    3.7673    0.4705    1.9529 H   0  0  0  0  0  0  0  0  0  0  0  0 
    4.3986    1.9392    2.7369 H   0  0  0  0  0  0  0  0  0  0  0  0 
    4.8735    1.5427    1.0761 H   0  0  0  0  0  0  0  0  0  0  0  0 
    2.2812    4.3117   -0.7150 H   0  0  0  0  0  0  0  0  0  0  0  0 
    3.5950    5.4095   -0.2588 H   0  0  0  0  0  0  0  0  0  0  0  0 
   -0.7149    2.4589   -0.9870 H   0  0  0  0  0  0  0  0  0  0  0  0 
   -0.6696    0.6798   -0.9996 H   0  0  0  0  0  0  0  0  0  0  0  0 
   -1.8477    4.6807    2.2991 H   0  0  0  0  0  0  0  0  0  0  0  0 
   -2.8085    3.1918    2.4698 H   0  0  0  0  0  0  0  0  0  0  0  0 
    1.9258    2.9083    3.1520 H   0  0  0  0  0  0  0  0  0  0  0  0 
    1.5309    1.2477    2.6711 H   0  0  0  0  0  0  0  0  0  0  0  0 
    2.5063    1.9021    0.3225 H   0  0  0  0  0  0  0  0  0  0  0  0 
  1 18  1  0  0  0  0 
  1  5  1  0  0  0  0 
  2 20  1  0  0  0  0 
  2 21  1  0  0  0  0 
  3 22  1  0  0  0  0 
  3 23  1  0  0  0  0 
  3 24  1  0  0  0  0 
  4 25  1  0  0  0  0 
  4 26  1  0  0  0  0 
  5 29  1  0  0  0  0 
  5 10  1  0  0  0  0 
  6  2  1  0  0  0  0 
  6 13  1  0  0  0  0 
  7 14  1  0  0  0  0 
  7  3  1  0  0  0  0 
  8 35  1  0  0  0  0 
  8 34  1  0  0  0  0 
  9 36  1  6  0  0  0 
  9  4  1  0  0  0  0 
  9  8  1  0  0  0  0 
 10  9  1  0  0  0  0 
 10 11  2  0  0  0  0 
 12 15  2  0  0  0  0 
 13 15  1  0  0  0  0 
 15  8  1  0  0  0  0 
 15 14  1  0  0  0  0 
 16  1  1  0  0  0  0 
 17  1  1  0  0  0  0 
 19  2  1  0  0  0  0 
 27  4  1  0  0  0  0 
 28  5  1  0  0  0  0 
 30  6  1  0  0  0  0 
 31  6  1  0  0  0  0 
 32  7  1  0  0  0  0 
 33  7  1  0  0  0  0 
M  END 
>  <HBA> 
4 
 
>  <HBD> 
0 
 
>  <TPSA> 
62.41 
 
>  <cid> 
28165 
 
>  <dipole> 
3.58 
 
>  <excitation_energy_1> 
4.292 
 
>  <excitation_energy_2> 
5.951 
 
>  <excitation_energy_3> 
6.358 
 
>  <excitation_energy_4> 
6.441 
 
>  <homo_energy> 
-6.378 
 
>  <homo_lumo_gap> 
6.144 
 
>  <logP> 
2.868 
 
>  <lumo_energy> 
-0.234 
 
>  <melting_point> 
-10.3 
 
>  <molecular_refractivity> 
61.22 
 
>  <oscillator_strength_1> 
0.0003 
 
>  <oscillator_strength_2> 
0.0016 
 
>  <oscillator_strength_3> 
0.0013 
 
>  <oscillator_strength_4> 
0.0033 
 
>  <open_babel_can_smiles> 
CCOP(=O)(C[C@@H](C(=O)CC)C)OCC 
 
>  <mulliken_charges> 
36 
1   -0.462925 
2   -0.455371 
3   -0.455617 
4   -0.458933 
5   -0.347802 
6   -0.044749 
7   -0.041544 
8   -0.48732 
9   -0.166966 
10   0.480324 
11   -0.461911 
12   -0.605019 
13   -0.544831 
14   -0.524866 
15   1.14886 
16   0.157179 
17   0.148433 
18   0.156464 
19   0.150423 
20   0.159543 
21   0.162133 
22   0.149525 
23   0.168387 
24   0.162695 
25   0.148586 
26   0.172016 
27   0.15313 
28   0.19346 
29   0.161086 
30   0.174545 
31   0.14994 
32   0.175144 
33   0.148849 
34   0.207696 
35   0.185892 
36   0.143544 
 
>  <lowdin_charges> 
36 
1   -0.440817 
2   -0.454565 
3   -0.4485 
4   -0.437642 
5   -0.302319 
6   -0.121 
7   -0.119213 
8   -0.442276 
9   -0.152088 
10   0.175916 
11   -0.242865 
12   -0.615334 
13   -0.413404 
14   -0.400892 
15   1.057589 
16   0.157308 
17   0.146647 
18   0.151265 
19   0.157936 
20   0.155839 
21   0.159399 
22   0.158166 
23   0.16326 
24   0.159775 
25   0.151249 
26   0.163163 
27   0.154215 
28   0.177616 
29   0.160677 
30   0.162373 
31   0.149378 
32   0.16152 
33   0.14426 
34   0.192339 
35   0.181854 
36   0.14917 
 
$$$$ 
 
