PCCDB-ID:  58321 
public computational chemistry database (PCCDB) project, http://pccdb.org 
 
 31 32  0  0  1  0  0  0  0  0999 V2000 
    1.9385    1.8549    0.3523 C   0  0  0  0  0  0  0  0  0  0  0  0 
    2.3602    0.3942    0.3841 C   0  0  0  0  0  0  0  0  0  0  0  0 
    8.1009   -0.3629    4.5988 C   0  0  0  0  0  0  0  0  0  0  0  0 
    5.8221   -0.0235    5.6038 C   0  0  0  0  0  0  0  0  0  0  0  0 
    8.3566    1.1647    4.8128 C   0  0  0  0  0  0  0  0  0  0  0  0 
    6.1712    1.4903    5.7562 C   0  0  0  0  0  0  0  0  0  0  0  0 
    6.5114    1.7297    3.3910 C   0  0  0  0  0  0  0  0  0  0  0  0 
    6.5873   -0.5700    4.3809 C   0  0  1  0  0  0  0  0  0  0  0  0 
    6.1979    0.2259    3.1298 C   0  0  1  0  0  0  0  0  0  0  0  0 
    4.3346    0.3515    1.6819 C   0  0  0  0  0  0  0  0  0  0  0  0 
    7.1105    1.9423    4.7143 N   0  0  2  0  0  0  0  0  0  0  0  0 
    4.9999    0.8381    0.7905 O   0  0  0  0  0  0  0  0  0  0  0  0 
    3.0255    0.0610    1.6260 O   0  0  0  0  0  0  0  0  0  0  0  0 
    4.7813   -0.0000    2.8959 O   0  0  0  0  0  0  0  0  0  0  0  0 
    1.3552    2.0533   -0.5543 H   0  0  0  0  0  0  0  0  0  0  0  0 
    2.8152    2.5087    0.3456 H   0  0  0  0  0  0  0  0  0  0  0  0 
    1.3179    2.0988    1.2207 H   0  0  0  0  0  0  0  0  0  0  0  0 
    3.0259    0.1538   -0.4485 H   0  0  0  0  0  0  0  0  0  0  0  0 
    1.4957   -0.2735    0.3612 H   0  0  0  0  0  0  0  0  0  0  0  0 
    8.4250   -0.9451    5.4696 H   0  0  0  0  0  0  0  0  0  0  0  0 
    8.6648   -0.7404    3.7364 H   0  0  0  0  0  0  0  0  0  0  0  0 
    4.7467   -0.1700    5.4652 H   0  0  0  0  0  0  0  0  0  0  0  0 
    6.1139   -0.5897    6.4966 H   0  0  0  0  0  0  0  0  0  0  0  0 
    9.0580    1.5545    4.0662 H   0  0  0  0  0  0  0  0  0  0  0  0 
    8.7953    1.3568    5.7983 H   0  0  0  0  0  0  0  0  0  0  0  0 
    6.6289    1.6972    6.7303 H   0  0  0  0  0  0  0  0  0  0  0  0 
    5.2703    2.1100    5.6851 H   0  0  0  0  0  0  0  0  0  0  0  0 
    5.5859    2.3122    3.3297 H   0  0  0  0  0  0  0  0  0  0  0  0 
    7.1951    2.1164    2.6286 H   0  0  0  0  0  0  0  0  0  0  0  0 
    6.3596   -1.6302    4.2263 H   0  0  0  0  0  0  0  0  0  0  0  0 
    6.7355   -0.1405    2.2507 H   0  0  0  0  0  0  0  0  0  0  0  0 
  1  2  1  0  0  0  0 
  1 17  1  0  0  0  0 
  2 13  1  0  0  0  0 
  3  5  1  0  0  0  0 
  3 20  1  0  0  0  0 
  4  6  1  0  0  0  0 
  4 23  1  0  0  0  0 
  5 25  1  0  0  0  0 
  6 26  1  0  0  0  0 
  8 30  1  6  0  0  0 
  8  3  1  0  0  0  0 
  8  4  1  0  0  0  0 
  9 31  1  6  0  0  0 
  9  7  1  0  0  0  0 
  9  8  1  0  0  0  0 
 10 14  1  0  0  0  0 
 11  7  1  6  0  0  0 
 11  5  1  0  0  0  0 
 11  6  1  0  0  0  0 
 12 10  2  0  0  0  0 
 13 10  1  0  0  0  0 
 14  9  1  0  0  0  0 
 15  1  1  0  0  0  0 
 16  1  1  0  0  0  0 
 18  2  1  0  0  0  0 
 19  2  1  0  0  0  0 
 21  3  1  0  0  0  0 
 22  4  1  0  0  0  0 
 24  5  1  0  0  0  0 
 27  6  1  0  0  0  0 
 28  7  1  0  0  0  0 
 29  7  1  0  0  0  0 
M  END 
>  <HBA> 
4 
 
>  <HBD> 
0 
 
>  <TPSA> 
38.77 
 
>  <cid> 
58321 
 
>  <dipole> 
1.05 
 
>  <excitation_energy_1> 
5.089 
 
>  <excitation_energy_2> 
5.591 
 
>  <excitation_energy_3> 
5.662 
 
>  <excitation_energy_4> 
5.775 
 
>  <homo_energy> 
-5.655 
 
>  <homo_lumo_gap> 
6.83 
 
>  <logP> 
1.192 
 
>  <lumo_energy> 
1.176 
 
>  <melting_point> 
32.4 
 
>  <molecular_refractivity> 
55.53 
 
>  <oscillator_strength_1> 
0.0083 
 
>  <oscillator_strength_2> 
0.0132 
 
>  <oscillator_strength_3> 
0.0198 
 
>  <oscillator_strength_4> 
0.0074 
 
>  <open_babel_can_smiles> 
CCOC(=O)O[C@H]1CN2CC[C@H]1CC2 
 
>  <mulliken_charges> 
31 
1   -0.463824 
2   -0.043411 
3   -0.291482 
4   -0.289881 
5   -0.148572 
6   -0.148476 
7   -0.166991 
8   -0.124273 
9   0.131733 
10   0.798111 
11   -0.372952 
12   -0.502059 
13   -0.4594 
14   -0.483713 
15   0.150807 
16   0.177005 
17   0.159868 
18   0.171088 
19   0.156302 
20   0.140356 
21   0.137586 
22   0.160018 
23   0.133789 
24   0.144253 
25   0.143254 
26   0.140832 
27   0.145474 
28   0.154302 
29   0.158371 
30   0.137256 
31   0.15463 
 
>  <lowdin_charges> 
31 
1   -0.457475 
2   -0.124392 
3   -0.303201 
4   -0.302659 
5   -0.21242 
6   -0.211579 
7   -0.22169 
8   -0.133474 
9   -0.012143 
10   0.232203 
11   -0.182125 
12   -0.301734 
13   -0.183153 
14   -0.180981 
15   0.1597 
16   0.166193 
17   0.158026 
18   0.159535 
19   0.15467 
20   0.149056 
21   0.145835 
22   0.15424 
23   0.145121 
24   0.147742 
25   0.146136 
26   0.144661 
27   0.147605 
28   0.155777 
29   0.157757 
30   0.149169 
31   0.1536 
 
$$$$ 
 
