PCCDB-ID:  34203 
public computational chemistry database (PCCDB) project, http://pccdb.org 
 
 25 24  0  0  1  0  0  0  0  0999 V2000 
    1.1974   -0.0216    0.5813 C   0  0  0  0  0  0  0  0  0  0  0  0 
    6.7536   -1.1896   -4.6345 C   0  0  0  0  0  0  0  0  0  0  0  0 
    2.6974   -0.0447    0.2702 C   0  0  0  0  0  0  0  0  0  0  0  0 
    6.3453   -0.7815   -3.2153 C   0  0  0  0  0  0  0  0  0  0  0  0 
    3.0104   -0.5036   -1.1597 C   0  0  0  0  0  0  0  0  0  0  0  0 
    4.5097   -0.5119   -1.4787 C   0  0  0  0  0  0  0  0  0  0  0  0 
    4.8552   -1.0255   -2.8871 C   0  0  2  0  0  0  0  0  0  0  0  0 
    4.4210   -2.4277   -3.0080 N   0  0  0  0  0  0  0  0  0  0  0  0 
    1.0051    0.3071    1.6093 H   0  0  0  0  0  0  0  0  0  0  0  0 
    0.7530   -1.0171    0.4606 H   0  0  0  0  0  0  0  0  0  0  0  0 
    0.6640    0.6610   -0.0919 H   0  0  0  0  0  0  0  0  0  0  0  0 
    7.8118   -0.9746   -4.8196 H   0  0  0  0  0  0  0  0  0  0  0  0 
    6.1680   -0.6466   -5.3873 H   0  0  0  0  0  0  0  0  0  0  0  0 
    6.6050   -2.2624   -4.8067 H   0  0  0  0  0  0  0  0  0  0  0  0 
    3.2081   -0.7085    0.9829 H   0  0  0  0  0  0  0  0  0  0  0  0 
    3.1202    0.9573    0.4346 H   0  0  0  0  0  0  0  0  0  0  0  0 
    6.5686    0.2849   -3.0704 H   0  0  0  0  0  0  0  0  0  0  0  0 
    6.9616   -1.3249   -2.4825 H   0  0  0  0  0  0  0  0  0  0  0  0 
    2.4946    0.1575   -1.8728 H   0  0  0  0  0  0  0  0  0  0  0  0 
    2.6061   -1.5084   -1.3295 H   0  0  0  0  0  0  0  0  0  0  0  0 
    5.0391   -1.1348   -0.7395 H   0  0  0  0  0  0  0  0  0  0  0  0 
    4.9167    0.5028   -1.3625 H   0  0  0  0  0  0  0  0  0  0  0  0 
    4.2536   -0.4570   -3.6131 H   0  0  0  0  0  0  0  0  0  0  0  0 
    5.0154   -3.0149   -2.4205 H   0  0  0  0  0  0  0  0  0  0  0  0 
    4.5572   -2.7555   -3.9626 H   0  0  0  0  0  0  0  0  0  0  0  0 
  1  9  1  0  0  0  0 
  2  4  1  0  0  0  0 
  3 16  1  0  0  0  0 
  3  1  1  0  0  0  0 
  3 15  1  0  0  0  0 
  4 17  1  0  0  0  0 
  4  7  1  0  0  0  0 
  4 18  1  0  0  0  0 
  5  3  1  0  0  0  0 
  6 22  1  0  0  0  0 
  6  5  1  0  0  0  0 
  6 21  1  0  0  0  0 
  7 23  1  6  0  0  0 
  7  6  1  0  0  0  0 
  8  7  1  0  0  0  0 
  8 24  1  0  0  0  0 
 10  1  1  0  0  0  0 
 11  1  1  0  0  0  0 
 12  2  1  0  0  0  0 
 13  2  1  0  0  0  0 
 14  2  1  0  0  0  0 
 19  5  1  0  0  0  0 
 20  5  1  0  0  0  0 
 25  8  1  0  0  0  0 
M  END 
>  <HBA> 
1 
 
>  <HBD> 
1 
 
>  <TPSA> 
26.02 
 
>  <cid> 
34203 
 
>  <dipole> 
1.42 
 
>  <excitation_energy_1> 
5.738 
 
>  <excitation_energy_2> 
6.254 
 
>  <excitation_energy_3> 
6.452 
 
>  <excitation_energy_4> 
6.6 
 
>  <homo_energy> 
-6.215 
 
>  <homo_lumo_gap> 
8.245 
 
>  <logP> 
2.614 
 
>  <lumo_energy> 
2.03 
 
>  <melting_point> 
27.02 
 
>  <molecular_refractivity> 
38.47 
 
>  <oscillator_strength_1> 
0.0295 
 
>  <oscillator_strength_2> 
0.0065 
 
>  <oscillator_strength_3> 
0.0091 
 
>  <oscillator_strength_4> 
0.0 
 
>  <open_babel_can_smiles> 
CCCC[C@@H](CC)N 
 
>  <mulliken_charges> 
25 
1   -0.440194 
2   -0.449624 
3   -0.247228 
4   -0.249747 
5   -0.243244 
6   -0.250587 
7   0.024393 
8   -0.711204 
9   0.138096 
10   0.142139 
11   0.139652 
12   0.146638 
13   0.143055 
14   0.130791 
15   0.126522 
16   0.124815 
17   0.12929 
18   0.12131 
19   0.11943 
20   0.156563 
21   0.116996 
22   0.124599 
23   0.123234 
24   0.286213 
25   0.298093 
 
>  <lowdin_charges> 
25 
1   -0.444279 
2   -0.448183 
3   -0.272825 
4   -0.290489 
5   -0.276712 
6   -0.277792 
7   -0.067727 
8   -0.551571 
9   0.146327 
10   0.146211 
11   0.146708 
12   0.151358 
13   0.148033 
14   0.138834 
15   0.138041 
16   0.134853 
17   0.140684 
18   0.136826 
19   0.136346 
20   0.151972 
21   0.135356 
22   0.138536 
23   0.1363 
24   0.250098 
25   0.253096 
 
$$$$ 
 
