PCCDB-ID:  38521 
public computational chemistry database (PCCDB) project, http://pccdb.org 
 
 34 35  0  0  1  0  0  0  0  0999 V2000 
    2.6945    0.0058   -0.1267 C   0  0  0  0  0  0  0  0  0  0  0  0 
    1.7289    0.7359   -1.0725 C   0  0  0  0  0  0  0  0  0  0  0  0 
    2.0324   -1.2334    0.4952 C   0  0  0  0  0  0  0  0  0  0  0  0 
    0.4156    1.0964   -0.3602 C   0  0  0  0  0  0  0  0  0  0  0  0 
    0.7167   -0.8748    1.2047 C   0  0  0  0  0  0  0  0  0  0  0  0 
   -3.7249   -0.4300    0.8698 C   0  0  0  0  0  0  0  0  0  0  0  0 
   -2.0158   -0.6551   -1.0970 C   0  0  0  0  0  0  0  0  0  0  0  0 
   -2.5389    0.1695    0.1089 C   0  0  2  0  0  0  0  0  0  0  0  0 
   -3.8157   -2.9033    0.8340 C   0  0  0  0  0  0  0  0  0  0  0  0 
   -0.2455   -0.1422    0.2720 C   0  0  0  0  0  0  0  0  0  0  0  0 
   -4.5030   -2.8959   -0.2535 N   0  0  0  0  0  0  0  0  0  0  0  0 
   -3.3362   -4.0286    1.5208 N   0  0  0  0  0  0  0  0  0  0  0  0 
   -3.4410   -1.7261    1.4632 N   0  0  0  0  0  0  0  0  0  0  0  0 
   -0.6980   -1.0536   -0.7223 O   0  0  0  0  0  0  0  0  0  0  0  0 
   -1.4168    0.2275    1.0015 O   0  0  0  0  0  0  0  0  0  0  0  0 
    3.0086    0.6922    0.6743 H   0  0  0  0  0  0  0  0  0  0  0  0 
    3.6056   -0.2837   -0.6653 H   0  0  0  0  0  0  0  0  0  0  0  0 
    1.5012    0.0891   -1.9298 H   0  0  0  0  0  0  0  0  0  0  0  0 
    2.1971    1.6435   -1.4736 H   0  0  0  0  0  0  0  0  0  0  0  0 
    2.7147   -1.7170    1.2053 H   0  0  0  0  0  0  0  0  0  0  0  0 
    1.8196   -1.9677   -0.2921 H   0  0  0  0  0  0  0  0  0  0  0  0 
   -0.2863    1.5706   -1.0573 H   0  0  0  0  0  0  0  0  0  0  0  0 
    0.6056    1.8213    0.4422 H   0  0  0  0  0  0  0  0  0  0  0  0 
    0.9142   -0.2226    2.0653 H   0  0  0  0  0  0  0  0  0  0  0  0 
    0.2134   -1.7740    1.5770 H   0  0  0  0  0  0  0  0  0  0  0  0 
   -4.5782   -0.5483    0.1985 H   0  0  0  0  0  0  0  0  0  0  0  0 
   -4.0064    0.2678    1.6688 H   0  0  0  0  0  0  0  0  0  0  0  0 
   -1.9976   -0.0441   -2.0103 H   0  0  0  0  0  0  0  0  0  0  0  0 
   -2.6095   -1.5525   -1.2821 H   0  0  0  0  0  0  0  0  0  0  0  0 
   -2.8127    1.1872   -0.2064 H   0  0  0  0  0  0  0  0  0  0  0  0 
   -4.7948   -3.8405   -0.5075 H   0  0  0  0  0  0  0  0  0  0  0  0 
   -3.7309   -4.9037    1.1995 H   0  0  0  0  0  0  0  0  0  0  0  0 
   -3.3799   -3.9487    2.5314 H   0  0  0  0  0  0  0  0  0  0  0  0 
   -2.5438   -1.7613    1.9334 H   0  0  0  0  0  0  0  0  0  0  0  0 
  1  3  1  0  0  0  0 
  1 16  1  0  0  0  0 
  2  4  1  0  0  0  0 
  2  1  1  0  0  0  0 
  3  5  1  0  0  0  0 
  3 20  1  0  0  0  0 
  4 10  1  0  0  0  0 
  4 23  1  0  0  0  0 
  5 25  1  0  0  0  0 
  5 24  1  0  0  0  0 
  6 13  1  0  0  0  0 
  6 27  1  0  0  0  0 
  7 14  1  0  0  0  0 
  7  8  1  0  0  0  0 
  8 30  1  6  0  0  0 
  8  6  1  0  0  0  0 
  8 15  1  0  0  0  0 
  9 13  1  0  0  0  0 
  9 12  2  0  0  0  0 
 10 15  1  0  0  0  0 
 10  5  1  0  0  0  0 
 11  9  1  0  0  0  0 
 12 33  1  0  0  0  0 
 13 34  1  0  0  0  0 
 14 10  1  0  0  0  0 
 17  1  1  0  0  0  0 
 18  2  1  0  0  0  0 
 19  2  1  0  0  0  0 
 21  3  1  0  0  0  0 
 22  4  1  0  0  0  0 
 26  6  1  0  0  0  0 
 28  7  1  0  0  0  0 
 29  7  1  0  0  0  0 
 31 11  1  0  0  0  0 
 32 12  1  0  0  0  0 
M  RAD  1  11   2 
M  END 
>  <HBA> 
5 
 
>  <HBD> 
2 
 
>  <TPSA> 
82.86 
 
>  <cid> 
38521 
 
>  <dipole> 
1.78 
 
>  <excitation_energy_1> 
5.191 
 
>  <excitation_energy_2> 
5.832 
 
>  <excitation_energy_3> 
5.914 
 
>  <excitation_energy_4> 
6.024 
 
>  <homo_energy> 
-5.935 
 
>  <homo_lumo_gap> 
7.472 
 
>  <logP> 
1.736 
 
>  <lumo_energy> 
1.537 
 
>  <melting_point> 
135.42 
 
>  <molecular_refractivity> 
57.26 
 
>  <oscillator_strength_1> 
0.0024 
 
>  <oscillator_strength_2> 
0.0168 
 
>  <oscillator_strength_3> 
0.0098 
 
>  <oscillator_strength_4> 
0.0255 
 
>  <open_babel_can_smiles> 
[NH]C(=[NH2])NC[C@@H]1COC2(O1)CCCCC2 
 
>  <mulliken_charges> 
34 
1   -0.261142 
2   -0.262782 
3   -0.267753 
4   -0.27674 
5   -0.28621 
6   -0.151577 
7   -0.076072 
8   0.117921 
9   0.602367 
10   0.539857 
11   -0.659313 
12   -0.755535 
13   -0.600684 
14   -0.508641 
15   -0.54599 
16   0.126203 
17   0.131897 
18   0.146927 
19   0.129763 
20   0.13024 
21   0.153557 
22   0.130771 
23   0.137685 
24   0.138654 
25   0.139917 
26   0.190811 
27   0.147213 
28   0.128371 
29   0.197086 
30   0.124812 
31   0.264769 
32   0.319307 
33   0.322993 
34   0.331319 
 
>  <lowdin_charges> 
34 
1   -0.279346 
2   -0.280643 
3   -0.280407 
4   -0.300432 
5   -0.286795 
6   -0.209972 
7   -0.156948 
8   -0.019701 
9   0.130361 
10   0.204939 
11   -0.494601 
12   -0.505256 
13   -0.301323 
14   -0.266142 
15   -0.272142 
16   0.137082 
17   0.145166 
18   0.148172 
19   0.14466 
20   0.145659 
21   0.151328 
22   0.14878 
23   0.148859 
24   0.14987 
25   0.151788 
26   0.179001 
27   0.150487 
28   0.13366 
29   0.174533 
30   0.1339 
31   0.245733 
32   0.275946 
33   0.276448 
34   0.277335 
 
$$$$ 
 
