PCCDB-ID:  15301 
public computational chemistry database (PCCDB) project, http://pccdb.org 
 
 13 12  0  0  0  0  0  0  0  0999 V2000 
    1.4258   -0.2574    0.8737 C   0  0  0  0  0  0  0  0  0  0  0  0 
    5.2531   -1.7541   -1.9799 C   0  0  0  0  0  0  0  0  0  0  0  0 
    2.5980   -0.0279    0.2639 C   0  0  0  0  0  0  0  0  0  0  0  0 
    4.4914   -0.7655   -1.1494 C   0  0  0  0  0  0  0  0  0  0  0  0 
    3.3190   -1.0051   -0.5392 C   0  0  0  0  0  0  0  0  0  0  0  0 
    0.9282    0.5076    1.4619 H   0  0  0  0  0  0  0  0  0  0  0  0 
    0.9252   -1.2206    0.8028 H   0  0  0  0  0  0  0  0  0  0  0  0 
    6.2486   -1.9471   -1.5562 H   0  0  0  0  0  0  0  0  0  0  0  0 
    5.4172   -1.3762   -2.9985 H   0  0  0  0  0  0  0  0  0  0  0  0 
    4.7252   -2.7107   -2.0537 H   0  0  0  0  0  0  0  0  0  0  0  0 
    3.0650    0.9530    0.3616 H   0  0  0  0  0  0  0  0  0  0  0  0 
    4.9420    0.2229   -1.0417 H   0  0  0  0  0  0  0  0  0  0  0  0 
    2.8579   -1.9893   -0.6387 H   0  0  0  0  0  0  0  0  0  0  0  0 
  1  6  1  0  0  0  0 
  2  8  1  0  0  0  0 
  2  4  1  0  0  0  0 
  3 11  1  0  0  0  0 
  3  1  2  0  0  0  0 
  4 12  1  0  0  0  0 
  4  5  2  0  0  0  0 
  5  3  1  0  0  0  0 
  7  1  1  0  0  0  0 
  9  2  1  0  0  0  0 
 10  2  1  0  0  0  0 
 13  5  1  0  0  0  0 
M  END 
>  <HBA> 
0 
 
>  <HBD> 
0 
 
>  <TPSA> 
0.0 
 
>  <cid> 
15301 
 
>  <dipole> 
0.58 
 
>  <excitation_energy_1> 
5.549 
 
>  <excitation_energy_2> 
5.774 
 
>  <excitation_energy_3> 
5.982 
 
>  <excitation_energy_4> 
6.01 
 
>  <homo_energy> 
-5.924 
 
>  <homo_lumo_gap> 
5.51 
 
>  <logP> 
1.748 
 
>  <lumo_energy> 
-0.414 
 
>  <melting_point> 
-36.71 
 
>  <molecular_refractivity> 
25.2 
 
>  <oscillator_strength_1> 
0.7576 
 
>  <oscillator_strength_2> 
0.0014 
 
>  <oscillator_strength_3> 
0.001 
 
>  <oscillator_strength_4> 
0.01 
 
>  <open_babel_can_smiles> 
C/C=C/C=C 
 
>  <mulliken_charges> 
13 
1   -0.359349 
2   -0.489892 
3   -0.059058 
4   -0.104581 
5   -0.10023 
6   0.140654 
7   0.137536 
8   0.158397 
9   0.157877 
10   0.154709 
11   0.12265 
12   0.124337 
13   0.116951 
 
>  <lowdin_charges> 
13 
1   -0.34206 
2   -0.436939 
3   -0.140373 
4   -0.152627 
5   -0.165454 
6   0.16131 
7   0.155298 
8   0.158175 
9   0.157686 
10   0.155585 
11   0.151526 
12   0.148544 
13   0.149328 
 
$$$$ 
 
