PCCDB-ID:  10024 
public computational chemistry database (PCCDB) project, http://pccdb.org 
 
 19 18  0  0  0  0  0  0  0  0999 V2000 
    1.1163    1.2206   -3.2749 C   0  0  0  0  0  0  0  0  0  0  0  0 
    6.2736    4.0152   -2.8922 C   0  0  0  0  0  0  0  0  0  0  0  0 
    2.6031    0.9558   -3.1113 C   0  0  0  0  0  0  0  0  0  0  0  0 
    5.2147    3.3437   -2.0348 C   0  0  0  0  0  0  0  0  0  0  0  0 
    4.3510    1.1936   -1.5244 C   0  0  0  0  0  0  0  0  0  0  0  0 
    2.9993    1.4253   -1.8222 O   0  0  0  0  0  0  0  0  0  0  0  0 
    5.2498    1.9412   -2.3009 O   0  0  0  0  0  0  0  0  0  0  0  0 
    0.7723    0.8733   -4.2555 H   0  0  0  0  0  0  0  0  0  0  0  0 
    0.9056    2.2921   -3.1939 H   0  0  0  0  0  0  0  0  0  0  0  0 
    0.5433    0.7002   -2.5006 H   0  0  0  0  0  0  0  0  0  0  0  0 
    6.2766    5.0968   -2.7174 H   0  0  0  0  0  0  0  0  0  0  0  0 
    6.0775    3.8370   -3.9546 H   0  0  0  0  0  0  0  0  0  0  0  0 
    7.2681    3.6218   -2.6576 H   0  0  0  0  0  0  0  0  0  0  0  0 
    3.1820    1.4658   -3.8927 H   0  0  0  0  0  0  0  0  0  0  0  0 
    2.8200   -0.1224   -3.1923 H   0  0  0  0  0  0  0  0  0  0  0  0 
    4.2167    3.7447   -2.2563 H   0  0  0  0  0  0  0  0  0  0  0  0 
    5.4091    3.5192   -0.9636 H   0  0  0  0  0  0  0  0  0  0  0  0 
    4.6198    0.1429   -1.7047 H   0  0  0  0  0  0  0  0  0  0  0  0 
    4.4562    1.4360   -0.4572 H   0  0  0  0  0  0  0  0  0  0  0  0 
  1  9  1  0  0  0  0 
  1  3  1  0  0  0  0 
  1 10  1  0  0  0  0 
  2 11  1  0  0  0  0 
  2 13  1  0  0  0  0 
  2  4  1  0  0  0  0 
  3  6  1  0  0  0  0 
  4 17  1  0  0  0  0 
  5 19  1  0  0  0  0 
  6  5  1  0  0  0  0 
  7  4  1  0  0  0  0 
  7  5  1  0  0  0  0 
  8  1  1  0  0  0  0 
 12  2  1  0  0  0  0 
 14  3  1  0  0  0  0 
 15  3  1  0  0  0  0 
 16  4  1  0  0  0  0 
 18  5  1  0  0  0  0 
M  END 
>  <HBA> 
2 
 
>  <HBD> 
0 
 
>  <TPSA> 
18.46 
 
>  <cid> 
10024 
 
>  <dipole> 
0.33 
 
>  <excitation_energy_1> 
6.964 
 
>  <excitation_energy_2> 
7.035 
 
>  <excitation_energy_3> 
7.347 
 
>  <excitation_energy_4> 
7.357 
 
>  <homo_energy> 
-7.168 
 
>  <homo_lumo_gap> 
9.761 
 
>  <logP> 
1.017 
 
>  <lumo_energy> 
2.593 
 
>  <melting_point> 
-43.8 
 
>  <molecular_refractivity> 
28.32 
 
>  <oscillator_strength_1> 
0.0031 
 
>  <oscillator_strength_2> 
0.0127 
 
>  <oscillator_strength_3> 
0.0045 
 
>  <oscillator_strength_4> 
0.0146 
 
>  <open_babel_can_smiles> 
CCOCOCC 
 
>  <mulliken_charges> 
19 
1   -0.453357 
2   -0.453178 
3   -0.019034 
4   -0.018926 
5   0.187326 
6   -0.468299 
7   -0.468205 
8   0.143502 
9   0.156975 
10   0.157041 
11   0.143489 
12   0.156965 
13   0.156961 
14   0.141105 
15   0.12059 
16   0.14101 
17   0.12054 
18   0.127744 
19   0.127752 
 
>  <lowdin_charges> 
19 
1   -0.447511 
2   -0.444278 
3   -0.127664 
4   -0.124922 
5   -0.022723 
6   -0.273257 
7   -0.272804 
8   0.153782 
9   0.154654 
10   0.157288 
11   0.152306 
12   0.154733 
13   0.155504 
14   0.137965 
15   0.125339 
16   0.136094 
17   0.125548 
18   0.130214 
19   0.12973 
 
$$$$ 
 
