PCCDB-ID:  16543 
public computational chemistry database (PCCDB) project, http://pccdb.org 
 
 24 26  0  0  0  0  0  0  0  0999 V2000 
   -3.0319   -1.2142    0.0003 C   0  0  0  0  0  0  0  0  0  0  0  0 
    3.0069   -1.1590   -0.0003 C   0  0  0  0  0  0  0  0  0  0  0  0 
   -3.4893    0.1065    0.0008 C   0  0  0  0  0  0  0  0  0  0  0  0 
    3.4360    0.1733    0.0002 C   0  0  0  0  0  0  0  0  0  0  0  0 
   -1.6613   -1.4971    0.0002 C   0  0  0  0  0  0  0  0  0  0  0  0 
    1.6437   -1.4738   -0.0002 C   0  0  0  0  0  0  0  0  0  0  0  0 
   -2.5880    1.1775    0.0009 C   0  0  0  0  0  0  0  0  0  0  0  0 
    2.5091    1.2208    0.0006 C   0  0  0  0  0  0  0  0  0  0  0  0 
   -0.7571   -0.4395    0.0006 C   0  0  0  0  0  0  0  0  0  0  0  0 
    0.7162   -0.4345    0.0007 C   0  0  0  0  0  0  0  0  0  0  0  0 
   -1.2211    0.9010    0.0009 C   0  0  0  0  0  0  0  0  0  0  0  0 
    1.1544    0.9071    0.0011 C   0  0  0  0  0  0  0  0  0  0  0  0 
   -0.0359    1.7873    0.0013 C   0  0  0  0  0  0  0  0  0  0  0  0 
    0.0987    3.0683    0.0026 N   0  0  0  0  0  0  0  0  0  0  0  0 
   -1.1284    3.7360    0.0030 O   0  0  0  0  0  0  0  0  0  0  0  0 
   -3.7480   -2.0317   -0.0006 H   0  0  0  0  0  0  0  0  0  0  0  0 
    3.7418   -1.9595   -0.0004 H   0  0  0  0  0  0  0  0  0  0  0  0 
   -4.5573    0.3061    0.0021 H   0  0  0  0  0  0  0  0  0  0  0  0 
    4.4996    0.3956    0.0000 H   0  0  0  0  0  0  0  0  0  0  0  0 
   -1.3141   -2.5271   -0.0001 H   0  0  0  0  0  0  0  0  0  0  0  0 
    1.3208   -2.5117   -0.0012 H   0  0  0  0  0  0  0  0  0  0  0  0 
   -2.9420    2.2004    0.0003 H   0  0  0  0  0  0  0  0  0  0  0  0 
    2.8325    2.2574    0.0004 H   0  0  0  0  0  0  0  0  0  0  0  0 
   -0.8565    4.6672    0.0030 H   0  0  0  0  0  0  0  0  0  0  0  0 
  1  3  1  0  0  0  0 
  2  6  2  0  0  0  0 
  2  4  1  0  0  0  0 
  3  7  2  0  0  0  0 
  3 18  1  0  0  0  0 
  4  8  2  0  0  0  0 
  5  1  2  0  0  0  0 
  5  9  1  0  0  0  0 
  6 10  1  0  0  0  0 
  8 12  1  0  0  0  0 
  9 10  1  0  0  0  0 
  9 11  2  0  0  0  0 
 10 12  2  0  0  0  0 
 11  7  1  0  0  0  0 
 11 13  1  0  0  0  0 
 12 13  1  0  0  0  0 
 13 14  2  0  0  0  0 
 14 15  1  0  0  0  0 
 15 24  1  0  0  0  0 
 16  1  1  0  0  0  0 
 17  2  1  0  0  0  0 
 19  4  1  0  0  0  0 
 20  5  1  0  0  0  0 
 21  6  1  0  0  0  0 
 22  7  1  0  0  0  0 
 23  8  1  0  0  0  0 
M  END 
>  <HBA> 
2 
 
>  <HBD> 
1 
 
>  <TPSA> 
32.59 
 
>  <cid> 
16543 
 
>  <dipole> 
0.27 
 
>  <excitation_energy_1> 
3.393 
 
>  <excitation_energy_2> 
4.151 
 
>  <excitation_energy_3> 
4.305 
 
>  <excitation_energy_4> 
4.638 
 
>  <homo_energy> 
-5.927 
 
>  <homo_lumo_gap> 
4.21 
 
>  <logP> 
2.894 
 
>  <lumo_energy> 
-1.717 
 
>  <melting_point> 
145.28 
 
>  <molecular_refractivity> 
59.3 
 
>  <oscillator_strength_1> 
0.011 
 
>  <oscillator_strength_2> 
0.07 
 
>  <oscillator_strength_3> 
0.1109 
 
>  <oscillator_strength_4> 
0.0012 
 
>  <open_babel_can_smiles> 
ON=C1c2ccccc2c2c1cccc2 
 
>  <mulliken_charges> 
24 
1   -0.13009 
2   -0.135044 
3   -0.137084 
4   -0.1363 
5   -0.192391 
6   -0.191151 
7   -0.179495 
8   -0.183368 
9   0.047435 
10   0.064412 
11   0.11057 
12   0.106054 
13   0.234371 
14   -0.311255 
15   -0.488927 
16   0.132505 
17   0.131004 
18   0.131647 
19   0.131397 
20   0.133006 
21   0.131741 
22   0.161509 
23   0.146454 
24   0.423 
 
>  <lowdin_charges> 
24 
1   -0.146218 
2   -0.152284 
3   -0.158384 
4   -0.155358 
5   -0.160628 
6   -0.158629 
7   -0.142095 
8   -0.142387 
9   0.00212 
10   -0.006997 
11   -0.026575 
12   -0.011895 
13   0.018417 
14   -0.053251 
15   -0.35652 
16   0.160385 
17   0.159865 
18   0.157842 
19   0.157633 
20   0.158282 
21   0.157503 
22   0.173548 
23   0.167073 
24   0.358553 
 
$$$$ 
 
