PCCDB-ID:  9233 
public computational chemistry database (PCCDB) project, http://pccdb.org 
 
 19 20  0  0  1  0  0  0  0  0999 V2000 
   -1.2505   -0.7864   -0.5128 C   0  0  0  0  0  0  0  0  0  0  0  0 
   -1.2567    0.7788   -0.5107 C   0  0  0  0  0  0  0  0  0  0  0  0 
    1.2599   -0.7787   -0.5216 C   0  0  0  0  0  0  0  0  0  0  0  0 
    1.2536    0.7865   -0.5232 C   0  0  0  0  0  0  0  0  0  0  0  0 
    0.0096   -0.0001    1.3669 C   0  0  0  0  0  0  0  0  0  0  0  0 
    0.0088   -1.1335    0.3174 C   0  0  1  0  0  0  0  0  0  0  0  0 
    0.0015    1.1335    0.3177 C   0  0  2  0  0  0  0  0  0  0  0  0 
   -1.2037   -1.2089   -1.5229 H   0  0  0  0  0  0  0  0  0  0  0  0 
   -2.1540   -1.1855   -0.0370 H   0  0  0  0  0  0  0  0  0  0  0  0 
   -2.1620    1.1690   -0.0309 H   0  0  0  0  0  0  0  0  0  0  0  0 
   -1.2164    1.2047   -1.5197 H   0  0  0  0  0  0  0  0  0  0  0  0 
    2.1691   -1.1690   -0.0493 H   0  0  0  0  0  0  0  0  0  0  0  0 
    1.2111   -1.2044   -1.5302 H   0  0  0  0  0  0  0  0  0  0  0  0 
    1.1984    1.2093   -1.5328 H   0  0  0  0  0  0  0  0  0  0  0  0 
    2.1610    1.1855   -0.0548 H   0  0  0  0  0  0  0  0  0  0  0  0 
    0.9042    0.0025    2.0006 H   0  0  0  0  0  0  0  0  0  0  0  0 
   -0.8796   -0.0030    2.0081 H   0  0  0  0  0  0  0  0  0  0  0  0 
    0.0132   -2.1552    0.7093 H   0  0  0  0  0  0  0  0  0  0  0  0 
    0.0003    2.1551    0.7098 H   0  0  0  0  0  0  0  0  0  0  0  0 
  1  2  1  0  0  0  0 
  1  9  1  0  0  0  0 
  1  6  1  0  0  0  0 
  2 10  1  0  0  0  0 
  2  7  1  0  0  0  0 
  3 12  1  0  0  0  0 
  3  6  1  0  0  0  0 
  4  3  1  0  0  0  0 
  4 15  1  0  0  0  0 
  4  7  1  0  0  0  0 
  5 16  1  0  0  0  0 
  5 17  1  0  0  0  0 
  6 18  1  1  0  0  0 
  6  5  1  0  0  0  0 
  7 19  1  1  0  0  0 
  7  5  1  0  0  0  0 
  8  1  1  0  0  0  0 
 11  2  1  0  0  0  0 
 13  3  1  0  0  0  0 
 14  4  1  0  0  0  0 
M  END 
>  <HBA> 
0 
 
>  <HBD> 
0 
 
>  <TPSA> 
0.0 
 
>  <cid> 
9233 
 
>  <dipole> 
0.06 
 
>  <excitation_energy_1> 
7.138 
 
>  <excitation_energy_2> 
7.472 
 
>  <excitation_energy_3> 
7.739 
 
>  <excitation_energy_4> 
7.774 
 
>  <homo_energy> 
-7.739 
 
>  <homo_lumo_gap> 
9.897 
 
>  <logP> 
2.196 
 
>  <lumo_energy> 
2.158 
 
>  <melting_point> 
17.93 
 
>  <molecular_refractivity> 
31.54 
 
>  <oscillator_strength_1> 
0.0 
 
>  <oscillator_strength_2> 
0.0016 
 
>  <oscillator_strength_3> 
0.0225 
 
>  <oscillator_strength_4> 
0.0 
 
>  <open_babel_can_smiles> 
C1C[C@@H]2C[C@H]1CC2 
 
>  <mulliken_charges> 
19 
1   -0.268536 
2   -0.268589 
3   -0.26852 
4   -0.268662 
5   -0.268214 
6   -0.097044 
7   -0.096993 
8   0.130709 
9   0.132562 
10   0.132528 
11   0.130684 
12   0.132534 
13   0.130693 
14   0.130727 
15   0.132577 
16   0.128724 
17   0.128715 
18   0.113051 
19   0.113054 
 
>  <lowdin_charges> 
19 
1   -0.285851 
2   -0.285804 
3   -0.285768 
4   -0.285835 
5   -0.286998 
6   -0.133079 
7   -0.133076 
8   0.140764 
9   0.143232 
10   0.143173 
11   0.140767 
12   0.143143 
13   0.140781 
14   0.140783 
15   0.143205 
16   0.14197 
17   0.142006 
18   0.138292 
19   0.138295 
 
$$$$ 
 
