PCCDB-ID:  17363 
public computational chemistry database (PCCDB) project, http://pccdb.org 
 
 32 31  0  0  1  0  0  0  0  0999 V2000 
    1.1535   -0.3107   -1.7557 C   0  0  0  0  0  0  0  0  0  0  0  0 
    2.2960   -0.1339    1.2129 C   0  0  0  0  0  0  0  0  0  0  0  0 
    1.9373    4.1621   -0.1789 C   0  0  0  0  0  0  0  0  0  0  0  0 
    0.6874    0.6153   -0.6241 C   0  0  0  0  0  0  0  0  0  0  0  0 
    3.9248    3.6255   -1.6911 C   0  0  0  0  0  0  0  0  0  0  0  0 
    3.7208    4.7881   -2.6843 C   0  0  0  0  0  0  0  0  0  0  0  0 
    2.9527    1.8160   -0.2420 C   0  0  0  0  0  0  0  0  0  0  0  0 
    1.7687    1.0539    0.3897 C   0  0  2  0  0  0  0  0  0  0  0  0 
    2.6274    3.0956   -1.0437 C   0  0  1  0  0  0  0  0  0  0  0  0 
    4.9976    5.1588   -3.4273 C   0  0  0  0  0  0  0  0  0  0  0  0 
    5.1534    5.0586   -4.6176 O   0  0  0  0  0  0  0  0  0  0  0  0 
    6.0186    5.6209   -2.6472 O   0  0  0  0  0  0  0  0  0  0  0  0 
    0.3066   -0.5866   -2.3940 H   0  0  0  0  0  0  0  0  0  0  0  0 
    1.5903   -1.2400   -1.3732 H   0  0  0  0  0  0  0  0  0  0  0  0 
    1.9029    0.1662   -2.3981 H   0  0  0  0  0  0  0  0  0  0  0  0 
    1.4754   -0.6768    1.6971 H   0  0  0  0  0  0  0  0  0  0  0  0 
    2.9804    0.2051    1.9997 H   0  0  0  0  0  0  0  0  0  0  0  0 
    2.8460   -0.8480    0.5878 H   0  0  0  0  0  0  0  0  0  0  0  0 
    1.7007    5.0649   -0.7524 H   0  0  0  0  0  0  0  0  0  0  0  0 
    2.5801    4.4548    0.6621 H   0  0  0  0  0  0  0  0  0  0  0  0 
    0.9952    3.7922    0.2378 H   0  0  0  0  0  0  0  0  0  0  0  0 
   -0.1135    0.1126   -0.0642 H   0  0  0  0  0  0  0  0  0  0  0  0 
    0.2240    1.5077   -1.0658 H   0  0  0  0  0  0  0  0  0  0  0  0 
    4.6192    3.9245   -0.8903 H   0  0  0  0  0  0  0  0  0  0  0  0 
    4.4145    2.8007   -2.2251 H   0  0  0  0  0  0  0  0  0  0  0  0 
    3.3450    5.6797   -2.1647 H   0  0  0  0  0  0  0  0  0  0  0  0 
    2.9829    4.5153   -3.4435 H   0  0  0  0  0  0  0  0  0  0  0  0 
    3.5057    1.1288   -0.8983 H   0  0  0  0  0  0  0  0  0  0  0  0 
    3.6527    2.0832    0.5644 H   0  0  0  0  0  0  0  0  0  0  0  0 
    1.2694    1.7314    1.0976 H   0  0  0  0  0  0  0  0  0  0  0  0 
    1.9457    2.8288   -1.8644 H   0  0  0  0  0  0  0  0  0  0  0  0 
    5.7409    5.6474   -1.7168 H   0  0  0  0  0  0  0  0  0  0  0  0 
  1 14  1  0  0  0  0 
  1  4  1  0  0  0  0 
  2 16  1  0  0  0  0 
  2 17  1  0  0  0  0 
  3 21  1  0  0  0  0 
  3 20  1  0  0  0  0 
  4 22  1  0  0  0  0 
  4  8  1  0  0  0  0 
  5  9  1  0  0  0  0 
  5 24  1  0  0  0  0 
  6 26  1  0  0  0  0 
  6  5  1  0  0  0  0 
  7  8  1  0  0  0  0 
  7 29  1  0  0  0  0 
  8 30  1  1  0  0  0 
  8  2  1  0  0  0  0 
  9 31  1  6  0  0  0 
  9  7  1  0  0  0  0 
  9  3  1  0  0  0  0 
 10  6  1  0  0  0  0 
 10 12  1  0  0  0  0 
 11 10  2  0  0  0  0 
 12 32  1  0  0  0  0 
 13  1  1  0  0  0  0 
 15  1  1  0  0  0  0 
 18  2  1  0  0  0  0 
 19  3  1  0  0  0  0 
 23  4  1  0  0  0  0 
 25  5  1  0  0  0  0 
 27  6  1  0  0  0  0 
 28  7  1  0  0  0  0 
M  END 
>  <HBA> 
2 
 
>  <HBD> 
1 
 
>  <TPSA> 
37.3 
 
>  <cid> 
17363 
 
>  <dipole> 
4.71 
 
>  <excitation_energy_1> 
5.629 
 
>  <excitation_energy_2> 
6.436 
 
>  <excitation_energy_3> 
7.091 
 
>  <excitation_energy_4> 
7.248 
 
>  <homo_energy> 
-7.184 
 
>  <homo_lumo_gap> 
7.529 
 
>  <logP> 
2.924 
 
>  <lumo_energy> 
0.346 
 
>  <melting_point> 
47.94 
 
>  <molecular_refractivity> 
51.96 
 
>  <oscillator_strength_1> 
0.0023 
 
>  <oscillator_strength_2> 
0.0119 
 
>  <oscillator_strength_3> 
0.0005 
 
>  <oscillator_strength_4> 
0.0017 
 
>  <open_babel_can_smiles> 
CC[C@H](C[C@H](CCC(=O)O)C)C 
 
>  <mulliken_charges> 
32 
1   -0.452215 
2   -0.450657 
3   -0.460708 
4   -0.256763 
5   -0.272564 
6   -0.384975 
7   -0.258255 
8   -0.073573 
9   -0.077589 
10   0.589194 
11   -0.43632 
12   -0.565377 
13   0.145645 
14   0.147979 
15   0.145436 
16   0.140986 
17   0.140208 
18   0.1444 
19   0.145769 
20   0.137874 
21   0.156623 
22   0.130875 
23   0.132135 
24   0.118356 
25   0.157355 
26   0.15948 
27   0.178262 
28   0.131883 
29   0.122767 
30   0.122254 
31   0.133243 
32   0.408273 
 
>  <lowdin_charges> 
32 
1   -0.45202 
2   -0.448809 
3   -0.451238 
4   -0.279635 
5   -0.276507 
6   -0.319102 
7   -0.280792 
8   -0.128465 
9   -0.126845 
10   0.190237 
11   -0.236144 
12   -0.360741 
13   0.153327 
14   0.149106 
15   0.147768 
16   0.149567 
17   0.149073 
18   0.148331 
19   0.149425 
20   0.146012 
21   0.155319 
22   0.14356 
23   0.140407 
24   0.133013 
25   0.155114 
26   0.159023 
27   0.173114 
28   0.143327 
29   0.139831 
30   0.138767 
31   0.141346 
32   0.35463 
 
$$$$ 
 
