PCCDB-ID:  55488 
public computational chemistry database (PCCDB) project, http://pccdb.org 
 
 30 32  0  0  0  0  0  0  0  0999 V2000 
    0.7907   -0.1953   -0.0378 C   0  0  0  0  0  0  0  0  0  0  0  0 
    7.7165    3.3688    0.1908 C   0  0  0  0  0  0  0  0  0  0  0  0 
    7.9741    2.0557   -0.5565 C   0  0  0  0  0  0  0  0  0  0  0  0 
    6.3404    3.9396   -0.1789 C   0  0  0  0  0  0  0  0  0  0  0  0 
    6.9419    0.9942   -0.1547 C   0  0  0  0  0  0  0  0  0  0  0  0 
    3.8798    3.3500   -0.1002 C   0  0  0  0  0  0  0  0  0  0  0  0 
    2.8056    2.4772   -0.0790 C   0  0  0  0  0  0  0  0  0  0  0  0 
    2.2834   -0.1013   -0.0663 C   0  0  0  0  0  0  0  0  0  0  0  0 
    5.2274    2.9076   -0.1301 C   0  0  0  0  0  0  0  0  0  0  0  0 
    3.0820    1.0976   -0.0838 C   0  0  0  0  0  0  0  0  0  0  0  0 
    5.5291    1.5390   -0.1365 C   0  0  0  0  0  0  0  0  0  0  0  0 
    4.4249    0.6847   -0.1096 C   0  0  0  0  0  0  0  0  0  0  0  0 
    3.2084   -1.1138   -0.0822 C   0  0  0  0  0  0  0  0  0  0  0  0 
    3.0207   -2.5257   -0.0771 N   0  0  0  0  0  0  0  0  0  0  0  0 
    1.8458   -2.9211   -0.0508 O   0  0  0  0  0  0  0  0  0  0  0  0 
    4.0175   -3.2476   -0.0987 O   0  0  0  0  0  0  0  0  0  0  0  0 
    4.5036   -0.6812   -0.1076 O   0  0  0  0  0  0  0  0  0  0  0  0 
    0.3428    0.8023   -0.0419 H   0  0  0  0  0  0  0  0  0  0  0  0 
    0.4469   -0.7317    0.8522 H   0  0  0  0  0  0  0  0  0  0  0  0 
    0.4149   -0.7539   -0.9006 H   0  0  0  0  0  0  0  0  0  0  0  0 
    8.4948    4.1062   -0.0381 H   0  0  0  0  0  0  0  0  0  0  0  0 
    7.7619    3.1857    1.2735 H   0  0  0  0  0  0  0  0  0  0  0  0 
    8.9843    1.6826   -0.3524 H   0  0  0  0  0  0  0  0  0  0  0  0 
    7.9164    2.2372   -1.6389 H   0  0  0  0  0  0  0  0  0  0  0  0 
    6.3865    4.3585   -1.1961 H   0  0  0  0  0  0  0  0  0  0  0  0 
    6.0861    4.7815    0.4777 H   0  0  0  0  0  0  0  0  0  0  0  0 
    7.1838    0.6066    0.8461 H   0  0  0  0  0  0  0  0  0  0  0  0 
    6.9924    0.1276   -0.8246 H   0  0  0  0  0  0  0  0  0  0  0  0 
    3.6934    4.4213   -0.0919 H   0  0  0  0  0  0  0  0  0  0  0  0 
    1.7854    2.8482   -0.0544 H   0  0  0  0  0  0  0  0  0  0  0  0 
  1 19  1  0  0  0  0 
  2 22  1  0  0  0  0 
  3 23  1  0  0  0  0 
  3  5  1  0  0  0  0 
  3  2  1  0  0  0  0 
  4  9  1  0  0  0  0 
  4  2  1  0  0  0  0 
  4 26  1  0  0  0  0 
  5 11  1  0  0  0  0 
  5 27  1  0  0  0  0 
  6 29  1  0  0  0  0 
  6  7  2  0  0  0  0 
  7 30  1  0  0  0  0 
  8  1  1  0  0  0  0 
  9  6  1  0  0  0  0 
 10  7  1  0  0  0  0 
 10  8  1  0  0  0  0 
 11  9  2  0  0  0  0 
 11 12  1  0  0  0  0 
 12 17  1  0  0  0  0 
 12 10  2  0  0  0  0 
 13 14  1  0  0  0  0 
 13  8  2  0  0  0  0 
 14 15  2  0  0  0  0 
 16 14  2  0  0  0  0 
 17 13  1  0  0  0  0 
 18  1  1  0  0  0  0 
 20  1  1  0  0  0  0 
 21  2  1  0  0  0  0 
 24  3  1  0  0  0  0 
 25  4  1  0  0  0  0 
 28  5  1  0  0  0  0 
M  END 
>  <HBA> 
1 
 
>  <HBD> 
0 
 
>  <TPSA> 
58.96 
 
>  <cid> 
55488 
 
>  <dipole> 
5.85 
 
>  <excitation_energy_1> 
3.505 
 
>  <excitation_energy_2> 
3.738 
 
>  <excitation_energy_3> 
3.842 
 
>  <excitation_energy_4> 
4.257 
 
>  <homo_energy> 
-6.359 
 
>  <homo_lumo_gap> 
3.981 
 
>  <logP> 
4.051 
 
>  <lumo_energy> 
-2.378 
 
>  <melting_point> 
122.45 
 
>  <molecular_refractivity> 
67.43 
 
>  <oscillator_strength_1> 
0.1149 
 
>  <oscillator_strength_2> 
0.0001 
 
>  <oscillator_strength_3> 
0.3292 
 
>  <oscillator_strength_4> 
0.0003 
 
>  <open_babel_can_smiles> 
O=N(=O)c1oc2c(c1C)ccc1c2CCCC1 
 
>  <mulliken_charges> 
30 
1   -0.508311 
2   -0.268691 
3   -0.269267 
4   -0.348143 
5   -0.334815 
6   -0.189627 
7   -0.203214 
8   0.126766 
9   0.105654 
10   0.092056 
11   0.063395 
12   0.251047 
13   0.459152 
14   0.322235 
15   -0.417186 
16   -0.394093 
17   -0.500192 
18   0.15655 
19   0.190593 
20   0.190923 
21   0.139256 
22   0.141843 
23   0.141919 
24   0.141323 
25   0.157616 
26   0.151103 
27   0.163459 
28   0.168018 
29   0.129109 
30   0.141518 
 
>  <lowdin_charges> 
30 
1   -0.434423 
2   -0.275197 
3   -0.272327 
4   -0.276007 
5   -0.272502 
6   -0.165344 
7   -0.152956 
8   0.004186 
9   -0.0011 
10   -0.041354 
11   -0.031098 
12   0.094743 
13   0.064831 
14   0.302344 
15   -0.264711 
16   -0.243104 
17   -0.094186 
18   0.158509 
19   0.181007 
20   0.181346 
21   0.149705 
22   0.142067 
23   0.149537 
24   0.141827 
25   0.154563 
26   0.155933 
27   0.158399 
28   0.164682 
29   0.157568 
30   0.163062 
 
$$$$ 
 
