PCCDB-ID:  25123 
public computational chemistry database (PCCDB) project, http://pccdb.org 
 
 26 26  0  0  0  0  0  0  0  0999 V2000 
    1.2731   -1.0502   -1.1839 C   0  0  0  0  0  0  0  0  0  0  0  0 
    0.3176    4.5083    1.0839 C   0  0  0  0  0  0  0  0  0  0  0  0 
    0.0717    3.7089   -1.2475 C   0  0  0  0  0  0  0  0  0  0  0  0 
    4.8026   -1.2436    0.2793 C   0  0  0  0  0  0  0  0  0  0  0  0 
    5.0528    0.0937    0.5811 C   0  0  0  0  0  0  0  0  0  0  0  0 
    3.5796   -1.5994   -0.2959 C   0  0  0  0  0  0  0  0  0  0  0  0 
    4.0821    1.0592    0.3140 C   0  0  0  0  0  0  0  0  0  0  0  0 
    1.6187    2.6019    0.2823 C   0  0  0  0  0  0  0  0  0  0  0  0 
    2.5917   -0.6512   -0.5697 C   0  0  0  0  0  0  0  0  0  0  0  0 
    2.8418    0.7040   -0.2447 C   0  0  0  0  0  0  0  0  0  0  0  0 
    1.8495    1.6495   -0.5488 N   0  0  0  0  0  0  0  0  0  0  0  0 
    0.7930    3.6547    0.0125 N   0  0  0  0  0  0  0  0  0  0  0  0 
    1.2865   -2.0995   -1.4963 H   0  0  0  0  0  0  0  0  0  0  0  0 
    1.0390   -0.4260   -2.0533 H   0  0  0  0  0  0  0  0  0  0  0  0 
    0.4430   -0.9182   -0.4781 H   0  0  0  0  0  0  0  0  0  0  0  0 
    0.3107    5.5555    0.7583 H   0  0  0  0  0  0  0  0  0  0  0  0 
    0.9810    4.4212    1.9489 H   0  0  0  0  0  0  0  0  0  0  0  0 
   -0.7026    4.2437    1.4028 H   0  0  0  0  0  0  0  0  0  0  0  0 
   -0.0521    4.7542   -1.5522 H   0  0  0  0  0  0  0  0  0  0  0  0 
   -0.9239    3.2474   -1.1667 H   0  0  0  0  0  0  0  0  0  0  0  0 
    0.6430    3.1673   -2.0018 H   0  0  0  0  0  0  0  0  0  0  0  0 
    5.5557   -2.0029    0.4723 H   0  0  0  0  0  0  0  0  0  0  0  0 
    6.0065    0.3919    1.0095 H   0  0  0  0  0  0  0  0  0  0  0  0 
    3.3857   -2.6416   -0.5412 H   0  0  0  0  0  0  0  0  0  0  0  0 
    4.2927    2.1082    0.5064 H   0  0  0  0  0  0  0  0  0  0  0  0 
    2.0776    2.6522    1.2787 H   0  0  0  0  0  0  0  0  0  0  0  0 
  1  9  1  0  0  0  0 
  1 15  1  0  0  0  0 
  2 18  1  0  0  0  0 
  2 17  1  0  0  0  0 
  3 20  1  0  0  0  0 
  3 12  1  0  0  0  0 
  4 22  1  0  0  0  0 
  4  5  2  0  0  0  0 
  5 23  1  0  0  0  0 
  6  4  1  0  0  0  0 
  7 25  1  0  0  0  0 
  7  5  1  0  0  0  0 
  8 26  1  0  0  0  0 
  9  6  2  0  0  0  0 
  9 10  1  0  0  0  0 
 10  7  2  0  0  0  0 
 11 10  1  0  0  0  0 
 11  8  2  0  0  0  0 
 12  8  1  0  0  0  0 
 12  2  1  0  0  0  0 
 13  1  1  0  0  0  0 
 14  1  1  0  0  0  0 
 16  2  1  0  0  0  0 
 19  3  1  0  0  0  0 
 21  3  1  0  0  0  0 
 24  6  1  0  0  0  0 
M  END 
>  <HBA> 
2 
 
>  <HBD> 
0 
 
>  <TPSA> 
15.6 
 
>  <cid> 
25123 
 
>  <dipole> 
3.44 
 
>  <excitation_energy_1> 
4.54 
 
>  <excitation_energy_2> 
4.766 
 
>  <excitation_energy_3> 
4.819 
 
>  <excitation_energy_4> 
5.274 
 
>  <homo_energy> 
-5.241 
 
>  <homo_lumo_gap> 
5.263 
 
>  <logP> 
2.216 
 
>  <lumo_energy> 
0.022 
 
>  <melting_point> 
34.7 
 
>  <molecular_refractivity> 
53.13 
 
>  <oscillator_strength_1> 
0.2953 
 
>  <oscillator_strength_2> 
0.0092 
 
>  <oscillator_strength_3> 
0.0852 
 
>  <oscillator_strength_4> 
0.1108 
 
>  <open_babel_can_smiles> 
CN(/C=N/c1ccccc1C)C 
 
>  <mulliken_charges> 
26 
1   -0.512785 
2   -0.30988 
3   -0.310019 
4   -0.126575 
5   -0.144529 
6   -0.199382 
7   -0.163475 
8   0.258747 
9   0.147373 
10   0.220708 
11   -0.529785 
12   -0.369806 
13   0.139486 
14   0.166631 
15   0.153155 
16   0.160587 
17   0.164998 
18   0.156182 
19   0.14923 
20   0.15295 
21   0.19984 
22   0.117933 
23   0.119331 
24   0.115017 
25   0.115759 
26   0.128311 
 
>  <lowdin_charges> 
26 
1   -0.438693 
2   -0.345393 
3   -0.351985 
4   -0.175601 
5   -0.161371 
6   -0.166074 
7   -0.192162 
8   -0.024355 
9   -0.01409 
10   0.036742 
11   -0.222746 
12   -0.092187 
13   0.147748 
14   0.164495 
15   0.157315 
16   0.152056 
17   0.161578 
18   0.14473 
19   0.149914 
20   0.146536 
21   0.182259 
22   0.154039 
23   0.152691 
24   0.149756 
25   0.150237 
26   0.134559 
 
$$$$ 
 
