PCCDB-ID:  22459 
public computational chemistry database (PCCDB) project, http://pccdb.org 
 
 11 11  0  0  0  0  0  0  0  0999 V2000 
    0.9187   -0.0064   -0.0654 C   0  0  0  0  0  0  0  0  0  0  0  0 
    4.3501   -0.5937   -0.0628 C   0  0  0  0  0  0  0  0  0  0  0  0 
    3.1826    1.1392   -0.0658 C   0  0  0  0  0  0  0  0  0  0  0  0 
    4.4513    0.7647   -0.0628 N   0  0  0  0  0  0  0  0  0  0  0  0 
    3.1137   -1.0741   -0.0656 N   0  0  0  0  0  0  0  0  0  0  0  0 
    2.3672    0.0610   -0.0685 N   0  0  0  0  0  0  0  0  0  0  0  0 
    0.5204    1.0106   -0.0661 H   0  0  0  0  0  0  0  0  0  0  0  0 
    0.5707   -0.5336    0.8269 H   0  0  0  0  0  0  0  0  0  0  0  0 
    0.5669   -0.5361   -0.9547 H   0  0  0  0  0  0  0  0  0  0  0  0 
    5.2102   -1.2498   -0.0606 H   0  0  0  0  0  0  0  0  0  0  0  0 
    2.8137    2.1563   -0.0674 H   0  0  0  0  0  0  0  0  0  0  0  0 
  1  8  1  0  0  0  0 
  2 10  1  0  0  0  0 
  3  4  1  0  0  0  0 
  4  2  2  0  0  0  0 
  5  2  1  0  0  0  0 
  6  3  1  0  0  0  0 
  6  5  1  0  0  0  0 
  6  1  1  0  0  0  0 
  7  1  1  0  0  0  0 
  9  1  1  0  0  0  0 
 11  3  1  0  0  0  0 
M  RAD  1   5   2 
M  END 
>  <HBA> 
3 
 
>  <HBD> 
0 
 
>  <TPSA> 
30.71 
 
>  <cid> 
22459 
 
>  <dipole> 
3.28 
 
>  <excitation_energy_1> 
6.157 
 
>  <excitation_energy_2> 
6.533 
 
>  <excitation_energy_3> 
6.687 
 
>  <excitation_energy_4> 
6.978 
 
>  <homo_energy> 
-7.159 
 
>  <homo_lumo_gap> 
7.38 
 
>  <logP> 
-0.185 
 
>  <lumo_energy> 
0.22 
 
>  <melting_point> 
36.49 
 
>  <molecular_refractivity> 
21.28 
 
>  <oscillator_strength_1> 
0.0043 
 
>  <oscillator_strength_2> 
0.0006 
 
>  <oscillator_strength_3> 
0.1041 
 
>  <oscillator_strength_4> 
0.0151 
 
>  <open_babel_can_smiles> 
CN1CN=C[N]1 
 
>  <mulliken_charges> 
11 
1   -0.308948 
2   0.159128 
3   0.211245 
4   -0.434592 
5   -0.274573 
6   -0.225433 
7   0.170463 
8   0.190454 
9   0.190391 
10   0.156665 
11   0.165199 
 
>  <lowdin_charges> 
11 
1   -0.343256 
2   -0.1015 
3   -0.092201 
4   -0.192862 
5   -0.16313 
6   0.037073 
7   0.166484 
8   0.173327 
9   0.173328 
10   0.169806 
11   0.172932 
 
$$$$ 
 
