PCCDB-ID:  19259 
public computational chemistry database (PCCDB) project, http://pccdb.org 
 
 30 31  0  0  0  0  0  0  0  0999 V2000 
   -1.4191   -0.3968    0.4497 C   0  0  0  0  0  0  0  0  0  0  0  0 
   -0.7774    0.7679    0.8794 C   0  0  0  0  0  0  0  0  0  0  0  0 
   -0.6760   -1.3945   -0.1765 C   0  0  0  0  0  0  0  0  0  0  0  0 
    0.5909    0.9287    0.6773 C   0  0  0  0  0  0  0  0  0  0  0  0 
    0.6984   -1.2314   -0.3789 C   0  0  0  0  0  0  0  0  0  0  0  0 
    3.0844    1.3928   -1.1012 C   0  0  0  0  0  0  0  0  0  0  0  0 
    3.5931   -1.0506   -0.7886 C   0  0  0  0  0  0  0  0  0  0  0  0 
    4.5461    1.5965   -1.5225 C   0  0  0  0  0  0  0  0  0  0  0  0 
    5.0504   -0.7367   -1.1434 C   0  0  0  0  0  0  0  0  0  0  0  0 
    1.3546   -0.0650    0.0380 C   0  0  0  0  0  0  0  0  0  0  0  0 
    3.4715    0.4435    1.2341 C   0  0  0  0  0  0  0  0  0  0  0  0 
    2.8636    0.1721   -0.1644 C   0  0  0  0  0  0  0  0  0  0  0  0 
    5.0750    0.3602   -2.1102 N   0  0  0  0  0  0  0  0  0  0  0  0 
    4.1266    1.4116    1.5349 O   0  0  0  0  0  0  0  0  0  0  0  0 
    3.2373   -0.5215    2.1635 O   0  0  0  0  0  0  0  0  0  0  0  0 
   -2.4866   -0.5242    0.6065 H   0  0  0  0  0  0  0  0  0  0  0  0 
   -1.3430    1.5514    1.3763 H   0  0  0  0  0  0  0  0  0  0  0  0 
   -1.1608   -2.3069   -0.5134 H   0  0  0  0  0  0  0  0  0  0  0  0 
    1.0777    1.8351    1.0289 H   0  0  0  0  0  0  0  0  0  0  0  0 
    1.2483   -2.0245   -0.8739 H   0  0  0  0  0  0  0  0  0  0  0  0 
    2.4778    1.2274   -1.9991 H   0  0  0  0  0  0  0  0  0  0  0  0 
    2.7202    2.3034   -0.6159 H   0  0  0  0  0  0  0  0  0  0  0  0 
    3.5498   -1.9203   -0.1214 H   0  0  0  0  0  0  0  0  0  0  0  0 
    3.0810   -1.3194   -1.7191 H   0  0  0  0  0  0  0  0  0  0  0  0 
    5.1277    1.9386   -0.6533 H   0  0  0  0  0  0  0  0  0  0  0  0 
    4.5864    2.3840   -2.2846 H   0  0  0  0  0  0  0  0  0  0  0  0 
    5.5037   -1.6216   -1.6049 H   0  0  0  0  0  0  0  0  0  0  0  0 
    5.6233   -0.5189   -0.2218 H   0  0  0  0  0  0  0  0  0  0  0  0 
    6.0314    0.5174   -2.4217 H   0  0  0  0  0  0  0  0  0  0  0  0 
    2.5830   -1.1529    1.8159 H   0  0  0  0  0  0  0  0  0  0  0  0 
  1 16  1  0  0  0  0 
  1  2  2  0  0  0  0 
  2 17  1  0  0  0  0 
  3  1  1  0  0  0  0 
  4  2  1  0  0  0  0 
  4 19  1  0  0  0  0 
  5  3  2  0  0  0  0 
  5 10  1  0  0  0  0 
  6 22  1  0  0  0  0 
  6 12  1  0  0  0  0 
  7 12  1  0  0  0  0 
  7 23  1  0  0  0  0 
  8  6  1  0  0  0  0 
  8 25  1  0  0  0  0 
  9  7  1  0  0  0  0 
  9 28  1  0  0  0  0 
 10  4  2  0  0  0  0 
 11 14  2  0  0  0  0 
 11 15  1  0  0  0  0 
 12 10  1  0  0  0  0 
 12 11  1  0  0  0  0 
 13  8  1  0  0  0  0 
 13  9  1  0  0  0  0 
 18  3  1  0  0  0  0 
 20  5  1  0  0  0  0 
 21  6  1  0  0  0  0 
 24  7  1  0  0  0  0 
 26  8  1  0  0  0  0 
 27  9  1  0  0  0  0 
 29 13  1  0  0  0  0 
 30 15  1  0  0  0  0 
M  END 
>  <HBA> 
3 
 
>  <HBD> 
2 
 
>  <TPSA> 
49.33 
 
>  <cid> 
19259 
 
>  <dipole> 
3.21 
 
>  <excitation_energy_1> 
4.851 
 
>  <excitation_energy_2> 
4.941 
 
>  <excitation_energy_3> 
5.237 
 
>  <excitation_energy_4> 
5.335 
 
>  <homo_energy> 
-5.987 
 
>  <homo_lumo_gap> 
5.521 
 
>  <logP> 
1.721 
 
>  <lumo_energy> 
-0.465 
 
>  <melting_point> 
137.69 
 
>  <molecular_refractivity> 
61.7 
 
>  <oscillator_strength_1> 
0.0006 
 
>  <oscillator_strength_2> 
0.0001 
 
>  <oscillator_strength_3> 
0.0025 
 
>  <oscillator_strength_4> 
0.0007 
 
>  <open_babel_can_smiles> 
OC(=O)C1(CCNCC1)c1ccccc1 
 
>  <mulliken_charges> 
30 
1   -0.124628 
2   -0.13192 
3   -0.130796 
4   -0.17054 
5   -0.196164 
6   -0.251719 
7   -0.283422 
8   -0.14871 
9   -0.142475 
10   0.098388 
11   0.615536 
12   -0.10977 
13   -0.551992 
14   -0.456452 
15   -0.575805 
16   0.135855 
17   0.13893 
18   0.13556 
19   0.151979 
20   0.136626 
21   0.147557 
22   0.149382 
23   0.128144 
24   0.161417 
25   0.15557 
26   0.135567 
27   0.139598 
28   0.133473 
29   0.298208 
30   0.412603 
 
>  <lowdin_charges> 
30 
1   -0.151389 
2   -0.150418 
3   -0.153429 
4   -0.16012 
5   -0.180848 
6   -0.272762 
7   -0.283383 
8   -0.213888 
9   -0.207228 
10   -0.020626 
11   0.190858 
12   -0.033552 
13   -0.368383 
14   -0.240667 
15   -0.355237 
16   0.159239 
17   0.163461 
18   0.160729 
19   0.166888 
20   0.163452 
21   0.153914 
22   0.156959 
23   0.142279 
24   0.157592 
25   0.139786 
26   0.146836 
27   0.148837 
28   0.126352 
29   0.254586 
30   0.360164 
 
$$$$ 
 
