PCCDB-ID:  16324 
public computational chemistry database (PCCDB) project, http://pccdb.org 
 
 21 20  0  0  0  0  0  0  0  0999 V2000 
    1.6907    0.5592   -1.9271 C   0  0  0  0  0  0  0  0  0  0  0  0 
    6.1539   -5.3031   -0.4347 C   0  0  0  0  0  0  0  0  0  0  0  0 
    1.4372   -0.3869   -0.7489 C   0  0  0  0  0  0  0  0  0  0  0  0 
    5.6493   -4.0741   -0.5391 C   0  0  0  0  0  0  0  0  0  0  0  0 
    1.8609   -1.8338   -1.0254 C   0  0  0  0  0  0  0  0  0  0  0  0 
    5.0879   -3.5120   -1.8113 C   0  0  0  0  0  0  0  0  0  0  0  0 
    3.3655   -2.0142   -1.1177 C   0  0  0  0  0  0  0  0  0  0  0  0 
    4.1958   -1.2253   -0.7159 O   0  0  0  0  0  0  0  0  0  0  0  0 
    3.6730   -3.2016   -1.6888 O   0  0  0  0  0  0  0  0  0  0  0  0 
    1.3562    1.5758   -1.6924 H   0  0  0  0  0  0  0  0  0  0  0  0 
    1.1519    0.2295   -2.8245 H   0  0  0  0  0  0  0  0  0  0  0  0 
    2.7576    0.6064   -2.1678 H   0  0  0  0  0  0  0  0  0  0  0  0 
    6.5775   -5.6710    0.4959 H   0  0  0  0  0  0  0  0  0  0  0  0 
    6.1702   -5.9892   -1.2795 H   0  0  0  0  0  0  0  0  0  0  0  0 
    0.3692   -0.3848   -0.4971 H   0  0  0  0  0  0  0  0  0  0  0  0 
    1.9738   -0.0260    0.1356 H   0  0  0  0  0  0  0  0  0  0  0  0 
    5.6434   -3.4019    0.3167 H   0  0  0  0  0  0  0  0  0  0  0  0 
    1.4057   -2.2199   -1.9453 H   0  0  0  0  0  0  0  0  0  0  0  0 
    1.5155   -2.4972   -0.2199 H   0  0  0  0  0  0  0  0  0  0  0  0 
    5.1399   -4.2402   -2.6238 H   0  0  0  0  0  0  0  0  0  0  0  0 
    5.6135   -2.5969   -2.1009 H   0  0  0  0  0  0  0  0  0  0  0  0 
  1 10  1  0  0  0  0 
  1  3  1  0  0  0  0 
  2 13  1  0  0  0  0 
  3 15  1  0  0  0  0 
  3 16  1  0  0  0  0 
  4  2  2  0  0  0  0 
  4 17  1  0  0  0  0 
  5  3  1  0  0  0  0 
  5 19  1  0  0  0  0 
  6  9  1  0  0  0  0 
  6  4  1  0  0  0  0 
  7  5  1  0  0  0  0 
  7  8  2  0  0  0  0 
  9  7  1  0  0  0  0 
 11  1  1  0  0  0  0 
 12  1  1  0  0  0  0 
 14  2  1  0  0  0  0 
 18  5  1  0  0  0  0 
 20  6  1  0  0  0  0 
 21  6  1  0  0  0  0 
M  END 
>  <HBA> 
2 
 
>  <HBD> 
0 
 
>  <TPSA> 
26.3 
 
>  <cid> 
16324 
 
>  <dipole> 
1.51 
 
>  <excitation_energy_1> 
5.798 
 
>  <excitation_energy_2> 
6.476 
 
>  <excitation_energy_3> 
6.689 
 
>  <excitation_energy_4> 
6.937 
 
>  <homo_energy> 
-7.23 
 
>  <homo_lumo_gap> 
7.339 
 
>  <logP> 
1.516 
 
>  <lumo_energy> 
0.109 
 
>  <melting_point> 
-35.38 
 
>  <molecular_refractivity> 
36.57 
 
>  <oscillator_strength_1> 
0.0008 
 
>  <oscillator_strength_2> 
0.019 
 
>  <oscillator_strength_3> 
0.0414 
 
>  <oscillator_strength_4> 
0.1047 
 
>  <open_babel_can_smiles> 
CCCC(=O)OCC=C 
 
>  <mulliken_charges> 
21 
1   -0.449885 
2   -0.330784 
3   -0.245124 
4   -0.06141 
5   -0.355458 
6   -0.094717 
7   0.624432 
8   -0.484368 
9   -0.459442 
10   0.145204 
11   0.136866 
12   0.164728 
13   0.149474 
14   0.142299 
15   0.132651 
16   0.157486 
17   0.157483 
18   0.165992 
19   0.173709 
20   0.155469 
21   0.175395 
 
>  <lowdin_charges> 
21 
1   -0.446324 
2   -0.322291 
3   -0.268494 
4   -0.159174 
5   -0.3041 
6   -0.127712 
7   0.201219 
8   -0.274586 
9   -0.19691 
10   0.151077 
11   0.144015 
12   0.155894 
13   0.16379 
14   0.157665 
15   0.142805 
16   0.155695 
17   0.166702 
18   0.165295 
19   0.173192 
20   0.157442 
21   0.1648 
 
$$$$ 
 
