PCCDB-ID:  7597 
public computational chemistry database (PCCDB) project, http://pccdb.org 
 
 26 27  0  0  0  0  0  0  0  0999 V2000 
    9.1718    0.9174    2.8060 C   0  0  0  0  0  0  0  0  0  0  0  0 
   -0.6815   -0.8263    2.2537 C   0  0  0  0  0  0  0  0  0  0  0  0 
    8.5296    2.0361    3.3397 C   0  0  0  0  0  0  0  0  0  0  0  0 
    8.4497   -0.2576    2.5878 C   0  0  0  0  0  0  0  0  0  0  0  0 
   -0.2821   -1.1258    3.5574 C   0  0  0  0  0  0  0  0  0  0  0  0 
    0.1765   -0.1158    1.4118 C   0  0  0  0  0  0  0  0  0  0  0  0 
    7.1705    1.9836    3.6497 C   0  0  0  0  0  0  0  0  0  0  0  0 
    7.0905   -0.3274    2.8970 C   0  0  0  0  0  0  0  0  0  0  0  0 
    0.9714   -0.7216    4.0173 C   0  0  0  0  0  0  0  0  0  0  0  0 
    1.4317    0.2995    1.8587 C   0  0  0  0  0  0  0  0  0  0  0  0 
    6.4673    0.8037    3.4208 C   0  0  0  0  0  0  0  0  0  0  0  0 
    1.8138   -0.0176    3.1608 C   0  0  0  0  0  0  0  0  0  0  0  0 
    4.1738    0.2819    3.0384 C   0  0  0  0  0  0  0  0  0  0  0  0 
    4.3204   -0.2084    1.9488 O   0  0  0  0  0  0  0  0  0  0  0  0 
    5.1304    0.8055    3.8367 O   0  0  0  0  0  0  0  0  0  0  0  0 
    3.0171    0.4260    3.7226 O   0  0  0  0  0  0  0  0  0  0  0  0 
   10.2298    0.9594    2.5639 H   0  0  0  0  0  0  0  0  0  0  0  0 
   -1.6571   -1.1424    1.8959 H   0  0  0  0  0  0  0  0  0  0  0  0 
    9.0839    2.9535    3.5168 H   0  0  0  0  0  0  0  0  0  0  0  0 
    8.9447   -1.1325    2.1759 H   0  0  0  0  0  0  0  0  0  0  0  0 
   -0.9444   -1.6748    4.2209 H   0  0  0  0  0  0  0  0  0  0  0  0 
   -0.1304    0.1229    0.3974 H   0  0  0  0  0  0  0  0  0  0  0  0 
    6.6490    2.8382    4.0686 H   0  0  0  0  0  0  0  0  0  0  0  0 
    6.5254   -1.2346    2.7241 H   0  0  0  0  0  0  0  0  0  0  0  0 
    1.3041   -0.9386    5.0272 H   0  0  0  0  0  0  0  0  0  0  0  0 
    2.1024    0.8463    1.2079 H   0  0  0  0  0  0  0  0  0  0  0  0 
  1  3  1  0  0  0  0 
  2  5  2  0  0  0  0 
  3 19  1  0  0  0  0 
  3  7  2  0  0  0  0 
  4  1  2  0  0  0  0 
  4  8  1  0  0  0  0 
  5  9  1  0  0  0  0 
  5 21  1  0  0  0  0 
  6 10  2  0  0  0  0 
  6  2  1  0  0  0  0 
  7 23  1  0  0  0  0 
  8 11  2  0  0  0  0 
  9 25  1  0  0  0  0 
 10 12  1  0  0  0  0 
 11  7  1  0  0  0  0 
 11 15  1  0  0  0  0 
 12 16  1  0  0  0  0 
 12  9  2  0  0  0  0 
 13 16  1  0  0  0  0 
 13 15  1  0  0  0  0 
 14 13  2  0  0  0  0 
 17  1  1  0  0  0  0 
 18  2  1  0  0  0  0 
 20  4  1  0  0  0  0 
 22  6  1  0  0  0  0 
 24  8  1  0  0  0  0 
 26 10  1  0  0  0  0 
M  END 
>  <HBA> 
3 
 
>  <HBD> 
0 
 
>  <TPSA> 
35.53 
 
>  <cid> 
7597 
 
>  <dipole> 
0.28 
 
>  <excitation_energy_1> 
5.279 
 
>  <excitation_energy_2> 
5.292 
 
>  <excitation_energy_3> 
5.586 
 
>  <excitation_energy_4> 
5.787 
 
>  <homo_energy> 
-6.602 
 
>  <homo_lumo_gap> 
6.286 
 
>  <logP> 
3.264 
 
>  <lumo_energy> 
-0.316 
 
>  <melting_point> 
71.81 
 
>  <molecular_refractivity> 
59.54 
 
>  <oscillator_strength_1> 
0.0015 
 
>  <oscillator_strength_2> 
0.0021 
 
>  <oscillator_strength_3> 
0.2859 
 
>  <oscillator_strength_4> 
0.0001 
 
>  <open_babel_can_smiles> 
O=C(Oc1ccccc1)Oc1ccccc1 
 
>  <mulliken_charges> 
26 
1   -0.121534 
2   -0.121293 
3   -0.139637 
4   -0.14487 
5   -0.140063 
6   -0.144858 
7   -0.160046 
8   -0.135206 
9   -0.159415 
10   -0.134971 
11   0.335576 
12   0.335601 
13   0.77549 
14   -0.458024 
15   -0.51001 
16   -0.510249 
17   0.1338 
18   0.133812 
19   0.137644 
20   0.13913 
21   0.137773 
22   0.139152 
23   0.147217 
24   0.159133 
25   0.147155 
26   0.158693 
 
>  <lowdin_charges> 
26 
1   -0.15837 
2   -0.159737 
3   -0.148884 
4   -0.1477 
5   -0.150112 
6   -0.145983 
7   -0.170736 
8   -0.167765 
9   -0.169021 
10   -0.167859 
11   0.106218 
12   0.104639 
13   0.243628 
14   -0.254421 
15   -0.140241 
16   -0.140211 
17   0.158984 
18   0.16025 
19   0.162341 
20   0.163309 
21   0.163554 
22   0.161676 
23   0.171627 
24   0.177018 
25   0.169943 
26   0.177853 
 
$$$$ 
 
