PCCDB-ID:  11898 
public computational chemistry database (PCCDB) project, http://pccdb.org 
 
 19 19  0  0  0  0  0  0  0  0999 V2000 
    0.9825    0.2018    0.4630 C   0  0  0  0  0  0  0  0  0  0  0  0 
    5.2474    0.1128   -0.3890 C   0  0  0  0  0  0  0  0  0  0  0  0 
    4.5424   -1.0743   -0.3577 C   0  0  0  0  0  0  0  0  0  0  0  0 
    3.1977    1.2932    0.1240 C   0  0  0  0  0  0  0  0  0  0  0  0 
    2.4600    0.1099    0.1631 C   0  0  0  0  0  0  0  0  0  0  0  0 
    4.5781    1.3283   -0.1461 C   0  0  0  0  0  0  0  0  0  0  0  0 
    3.1681   -1.0897   -0.0858 C   0  0  0  0  0  0  0  0  0  0  0  0 
    5.2694    2.5230   -0.1244 N   0  0  0  0  0  0  0  0  0  0  0  0 
    2.5204   -2.3965   -0.0783 N   0  0  0  0  0  0  0  0  0  0  0  0 
    3.2145   -3.3905   -0.3163 O   0  0  0  0  0  0  0  0  0  0  0  0 
    1.3103   -2.4585    0.1642 O   0  0  0  0  0  0  0  0  0  0  0  0 
    0.6997    1.2490    0.6090 H   0  0  0  0  0  0  0  0  0  0  0  0 
    0.7199   -0.3652    1.3602 H   0  0  0  0  0  0  0  0  0  0  0  0 
    0.3807   -0.2188   -0.3470 H   0  0  0  0  0  0  0  0  0  0  0  0 
    6.3144    0.1095   -0.5952 H   0  0  0  0  0  0  0  0  0  0  0  0 
    5.0377   -2.0189   -0.5428 H   0  0  0  0  0  0  0  0  0  0  0  0 
    2.6807    2.2306    0.3153 H   0  0  0  0  0  0  0  0  0  0  0  0 
    6.1631    2.5475   -0.5957 H   0  0  0  0  0  0  0  0  0  0  0  0 
    4.7310    3.3717   -0.2319 H   0  0  0  0  0  0  0  0  0  0  0  0 
  1 12  1  0  0  0  0 
  1 13  1  0  0  0  0 
  2  3  2  0  0  0  0 
  2  6  1  0  0  0  0 
  3  7  1  0  0  0  0 
  4  5  1  0  0  0  0 
  4 17  1  0  0  0  0 
  5  1  1  0  0  0  0 
  6  8  1  0  0  0  0 
  6  4  2  0  0  0  0 
  7  9  1  0  0  0  0 
  7  5  2  0  0  0  0 
  9 11  2  0  0  0  0 
 10  9  2  0  0  0  0 
 14  1  1  0  0  0  0 
 15  2  1  0  0  0  0 
 16  3  1  0  0  0  0 
 18  8  1  0  0  0  0 
 19  8  1  0  0  0  0 
M  END 
>  <HBA> 
1 
 
>  <HBD> 
1 
 
>  <TPSA> 
71.84 
 
>  <cid> 
11898 
 
>  <dipole> 
6.84 
 
>  <excitation_energy_1> 
3.733 
 
>  <excitation_energy_2> 
3.944 
 
>  <excitation_energy_3> 
4.333 
 
>  <excitation_energy_4> 
4.356 
 
>  <homo_energy> 
-6.185 
 
>  <homo_lumo_gap> 
4.321 
 
>  <logP> 
2.59 
 
>  <lumo_energy> 
-1.864 
 
>  <melting_point> 
97.11 
 
>  <molecular_refractivity> 
44.63 
 
>  <oscillator_strength_1> 
0.0 
 
>  <oscillator_strength_2> 
0.3265 
 
>  <oscillator_strength_3> 
0.0094 
 
>  <oscillator_strength_4> 
0.0004 
 
>  <open_babel_can_smiles> 
Nc1ccc(c(c1)C)N(=O)=O 
 
>  <mulliken_charges> 
19 
1   -0.500003 
2   -0.187804 
3   -0.158322 
4   -0.258253 
5   0.166911 
6   0.371294 
7   0.212032 
8   -0.796246 
9   0.365732 
10   -0.413599 
11   -0.420516 
12   0.141277 
13   0.18487 
14   0.183398 
15   0.133019 
16   0.182931 
17   0.124344 
18   0.334586 
19   0.334353 
 
>  <lowdin_charges> 
19 
1   -0.437996 
2   -0.198056 
3   -0.125146 
4   -0.210599 
5   0.038334 
6   0.083151 
7   -0.037439 
8   -0.463886 
9   0.30596 
10   -0.269808 
11   -0.259471 
12   0.147793 
13   0.176281 
14   0.176038 
15   0.159062 
16   0.188298 
17   0.157028 
18   0.285065 
19   0.28539 
 
$$$$ 
 
