PCCDB-ID:  13020 
public computational chemistry database (PCCDB) project, http://pccdb.org 
 
 23 23  0  0  1  0  0  0  0  0999 V2000 
    0.4787    1.5430   -1.3533 C   0  0  0  0  0  0  0  0  0  0  0  0 
   -4.3726    1.3578   -2.4914 C   0  0  0  0  0  0  0  0  0  0  0  0 
   -0.6139    1.7101   -2.4254 C   0  0  0  0  0  0  0  0  0  0  0  0 
   -3.0227    1.1949   -3.2045 C   0  0  0  0  0  0  0  0  0  0  0  0 
    0.3281    2.3794   -0.0739 C   0  0  0  0  0  0  0  0  0  0  0  0 
   -4.0346    2.3523   -1.3683 C   0  0  0  0  0  0  0  0  0  0  0  0 
   -2.0282    1.2754   -2.0420 C   0  0  2  0  0  0  0  0  0  0  0  0 
   -0.6944    1.9270    0.7947 O   0  0  0  0  0  0  0  0  0  0  0  0 
   -2.6172    2.2486   -1.1475 O   0  0  0  0  0  0  0  0  0  0  0  0 
    1.4423    1.8000   -1.8166 H   0  0  0  0  0  0  0  0  0  0  0  0 
    0.5459    0.4867   -1.0585 H   0  0  0  0  0  0  0  0  0  0  0  0 
   -4.6962    0.3987   -2.0708 H   0  0  0  0  0  0  0  0  0  0  0  0 
   -5.1705    1.7220   -3.1455 H   0  0  0  0  0  0  0  0  0  0  0  0 
   -0.3219    1.1185   -3.3044 H   0  0  0  0  0  0  0  0  0  0  0  0 
   -0.6635    2.7574   -2.7553 H   0  0  0  0  0  0  0  0  0  0  0  0 
   -2.8468    2.0245   -3.9015 H   0  0  0  0  0  0  0  0  0  0  0  0 
   -2.9382    0.2574   -3.7628 H   0  0  0  0  0  0  0  0  0  0  0  0 
    0.1909    3.4420   -0.3403 H   0  0  0  0  0  0  0  0  0  0  0  0 
    1.2611    2.3115    0.4980 H   0  0  0  0  0  0  0  0  0  0  0  0 
   -4.5651    2.1349   -0.4339 H   0  0  0  0  0  0  0  0  0  0  0  0 
   -4.2583    3.3874   -1.6562 H   0  0  0  0  0  0  0  0  0  0  0  0 
   -1.9871    0.3051   -1.5213 H   0  0  0  0  0  0  0  0  0  0  0  0 
   -1.5413    2.1193    0.3481 H   0  0  0  0  0  0  0  0  0  0  0  0 
  1 11  1  0  0  0  0 
  1  5  1  0  0  0  0 
  2 12  1  0  0  0  0 
  2  6  1  0  0  0  0 
  3  7  1  0  0  0  0 
  3  1  1  0  0  0  0 
  4  2  1  0  0  0  0 
  4  7  1  0  0  0  0 
  5 19  1  0  0  0  0 
  5  8  1  0  0  0  0 
  6  9  1  0  0  0  0 
  6 20  1  0  0  0  0 
  7 22  1  1  0  0  0 
  7  9  1  0  0  0  0 
 10  1  1  0  0  0  0 
 13  2  1  0  0  0  0 
 14  3  1  0  0  0  0 
 15  3  1  0  0  0  0 
 16  4  1  0  0  0  0 
 17  4  1  0  0  0  0 
 18  5  1  0  0  0  0 
 21  6  1  0  0  0  0 
 23  8  1  0  0  0  0 
M  END 
>  <HBA> 
2 
 
>  <HBD> 
1 
 
>  <TPSA> 
29.46 
 
>  <cid> 
13020 
 
>  <dipole> 
3.68 
 
>  <excitation_energy_1> 
6.26 
 
>  <excitation_energy_2> 
6.486 
 
>  <excitation_energy_3> 
6.528 
 
>  <excitation_energy_4> 
6.698 
 
>  <homo_energy> 
-6.43 
 
>  <homo_lumo_gap> 
8.509 
 
>  <logP> 
0.938 
 
>  <lumo_energy> 
2.079 
 
>  <melting_point> 
5.02 
 
>  <molecular_refractivity> 
35.9 
 
>  <oscillator_strength_1> 
0.0032 
 
>  <oscillator_strength_2> 
0.0073 
 
>  <oscillator_strength_3> 
0.0112 
 
>  <oscillator_strength_4> 
0.0066 
 
>  <open_babel_can_smiles> 
OCCC[C@@H]1CCCO1 
 
>  <mulliken_charges> 
23 
1   -0.2756 
2   -0.319041 
3   -0.274953 
4   -0.297415 
5   -0.021819 
6   -0.005021 
7   0.163546 
8   -0.652569 
9   -0.529616 
10   0.124808 
11   0.139597 
12   0.151814 
13   0.151218 
14   0.134595 
15   0.138737 
16   0.14602 
17   0.147877 
18   0.110139 
19   0.132475 
20   0.145056 
21   0.141357 
22   0.128369 
23   0.420426 
 
>  <lowdin_charges> 
23 
1   -0.294571 
2   -0.294994 
3   -0.28452 
4   -0.289883 
5   -0.133749 
6   -0.127973 
7   0.001613 
8   -0.494785 
9   -0.295677 
10   0.144545 
11   0.143785 
12   0.150548 
13   0.157134 
14   0.150241 
15   0.145433 
16   0.149211 
17   0.155161 
18   0.119262 
19   0.141055 
20   0.144652 
21   0.139414 
22   0.132196 
23   0.341901 
 
$$$$ 
 
