PCCDB-ID:  13204 
public computational chemistry database (PCCDB) project, http://pccdb.org 
 
 18 18  0  0  1  0  0  0  0  0999 V2000 
    1.0829    0.1213   -0.0343 C   0  0  0  0  0  0  0  0  0  0  0  0 
    4.6343   -1.1949    0.8169 C   0  0  0  0  0  0  0  0  0  0  0  0 
    3.1054   -1.2101    0.7823 C   0  0  0  0  0  0  0  0  0  0  0  0 
    5.1110    0.1318    1.4154 C   0  0  0  0  0  0  0  0  0  0  0  0 
    2.5951   -0.0457   -0.0596 C   0  0  2  0  0  0  0  0  0  0  0  0 
    4.3832    1.3737    0.9117 C   0  0  0  0  0  0  0  0  0  0  0  0 
    4.8352    2.4854    1.0470 O   0  0  0  0  0  0  0  0  0  0  0  0 
    3.1435    1.2309    0.3718 O   0  0  0  0  0  0  0  0  0  0  0  0 
    0.5953   -0.7706   -0.4432 H   0  0  0  0  0  0  0  0  0  0  0  0 
    0.7841    0.9872   -0.6323 H   0  0  0  0  0  0  0  0  0  0  0  0 
    0.7305    0.2739    0.9915 H   0  0  0  0  0  0  0  0  0  0  0  0 
    5.0230   -1.3102   -0.2041 H   0  0  0  0  0  0  0  0  0  0  0  0 
    5.0267   -2.0356    1.3999 H   0  0  0  0  0  0  0  0  0  0  0  0 
    2.7016   -1.1309    1.8015 H   0  0  0  0  0  0  0  0  0  0  0  0 
    2.7262   -2.1462    0.3553 H   0  0  0  0  0  0  0  0  0  0  0  0 
    6.1799    0.3041    1.2612 H   0  0  0  0  0  0  0  0  0  0  0  0 
    4.9555    0.1246    2.5037 H   0  0  0  0  0  0  0  0  0  0  0  0 
    2.9290   -0.1882   -1.0977 H   0  0  0  0  0  0  0  0  0  0  0  0 
  1 11  1  0  0  0  0 
  2 13  1  0  0  0  0 
  2  4  1  0  0  0  0 
  3  2  1  0  0  0  0 
  3 14  1  0  0  0  0 
  4 17  1  0  0  0  0 
  5 18  1  6  0  0  0 
  5  1  1  0  0  0  0 
  5  8  1  0  0  0  0 
  5  3  1  0  0  0  0 
  6  7  2  0  0  0  0 
  6  4  1  0  0  0  0 
  8  6  1  0  0  0  0 
  9  1  1  0  0  0  0 
 10  1  1  0  0  0  0 
 12  2  1  0  0  0  0 
 15  3  1  0  0  0  0 
 16  4  1  0  0  0  0 
M  END 
>  <HBA> 
2 
 
>  <HBD> 
0 
 
>  <TPSA> 
26.3 
 
>  <cid> 
13204 
 
>  <dipole> 
4.58 
 
>  <excitation_energy_1> 
5.456 
 
>  <excitation_energy_2> 
6.606 
 
>  <excitation_energy_3> 
7.016 
 
>  <excitation_energy_4> 
7.037 
 
>  <homo_energy> 
-6.972 
 
>  <homo_lumo_gap> 
7.328 
 
>  <logP> 
1.102 
 
>  <lumo_energy> 
0.356 
 
>  <melting_point> 
8.46 
 
>  <molecular_refractivity> 
30.13 
 
>  <oscillator_strength_1> 
0.0011 
 
>  <oscillator_strength_2> 
0.0024 
 
>  <oscillator_strength_3> 
0.0757 
 
>  <oscillator_strength_4> 
0.0044 
 
>  <open_babel_can_smiles> 
C[C@@H]1CCCC(=O)O1 
 
>  <mulliken_charges> 
18 
1   -0.453511 
2   -0.278076 
3   -0.285493 
4   -0.366559 
5   0.142863 
6   0.593716 
7   -0.451499 
8   -0.461687 
9   0.146644 
10   0.169903 
11   0.157757 
12   0.146614 
13   0.148232 
14   0.144989 
15   0.147529 
16   0.180364 
17   0.179039 
18   0.139175 
 
>  <lowdin_charges> 
18 
1   -0.44727 
2   -0.27972 
3   -0.290453 
4   -0.308982 
5   0.013925 
6   0.193243 
7   -0.24761 
8   -0.199695 
9   0.156481 
10   0.166468 
11   0.157076 
12   0.145561 
13   0.15398 
14   0.147096 
15   0.157105 
16   0.173519 
17   0.171137 
18   0.138138 
 
$$$$ 
 
