PCCDB-ID:  10687 
public computational chemistry database (PCCDB) project, http://pccdb.org 
 
 19 19  0  0  0  0  0  0  0  0999 V2000 
    0.9857   -0.0301   -0.2077 C   0  0  0  0  0  0  0  0  0  0  0  0 
    2.4653   -2.6636   -0.2753 C   0  0  0  0  0  0  0  0  0  0  0  0 
    4.5996    1.0553    0.3020 C   0  0  0  0  0  0  0  0  0  0  0  0 
    3.2163    1.0803    0.1458 C   0  0  0  0  0  0  0  0  0  0  0  0 
    5.2803   -0.1599    0.2722 C   0  0  0  0  0  0  0  0  0  0  0  0 
    2.4887   -0.1046   -0.0433 C   0  0  0  0  0  0  0  0  0  0  0  0 
    3.1633   -1.3389   -0.0765 C   0  0  0  0  0  0  0  0  0  0  0  0 
    4.5603   -1.3410    0.0850 C   0  0  0  0  0  0  0  0  0  0  0  0 
    5.1768   -2.5676    0.0483 O   0  0  0  0  0  0  0  0  0  0  0  0 
    0.6397    1.0058   -0.1398 H   0  0  0  0  0  0  0  0  0  0  0  0 
    0.4594   -0.6051    0.5641 H   0  0  0  0  0  0  0  0  0  0  0  0 
    0.6591   -0.4233   -1.1786 H   0  0  0  0  0  0  0  0  0  0  0  0 
    1.3930   -2.5431   -0.4395 H   0  0  0  0  0  0  0  0  0  0  0  0 
    2.6047   -3.3176    0.5947 H   0  0  0  0  0  0  0  0  0  0  0  0 
    2.8840   -3.2033   -1.1331 H   0  0  0  0  0  0  0  0  0  0  0  0 
    5.1514    1.9801    0.4470 H   0  0  0  0  0  0  0  0  0  0  0  0 
    2.6874    2.0295    0.1701 H   0  0  0  0  0  0  0  0  0  0  0  0 
    6.3619   -0.1952    0.3937 H   0  0  0  0  0  0  0  0  0  0  0  0 
    6.1305   -2.4383    0.1656 H   0  0  0  0  0  0  0  0  0  0  0  0 
  1 10  1  0  0  0  0 
  1  6  1  0  0  0  0 
  1 11  1  0  0  0  0 
  2  7  1  0  0  0  0 
  2 14  1  0  0  0  0 
  3 16  1  0  0  0  0 
  4 17  1  0  0  0  0 
  4  3  2  0  0  0  0 
  5  3  1  0  0  0  0 
  5 18  1  0  0  0  0 
  6  4  1  0  0  0  0 
  7  6  2  0  0  0  0 
  7  8  1  0  0  0  0 
  8  5  2  0  0  0  0 
  9  8  1  0  0  0  0 
  9 19  1  0  0  0  0 
 12  1  1  0  0  0  0 
 13  2  1  0  0  0  0 
 15  2  1  0  0  0  0 
M  END 
>  <HBA> 
1 
 
>  <HBD> 
1 
 
>  <TPSA> 
20.23 
 
>  <cid> 
10687 
 
>  <dipole> 
0.87 
 
>  <excitation_energy_1> 
5.015 
 
>  <excitation_energy_2> 
5.069 
 
>  <excitation_energy_3> 
5.665 
 
>  <excitation_energy_4> 
5.702 
 
>  <homo_energy> 
-5.747 
 
>  <homo_lumo_gap> 
5.932 
 
>  <logP> 
2.009 
 
>  <lumo_energy> 
0.185 
 
>  <melting_point> 
52.97 
 
>  <molecular_refractivity> 
38.4 
 
>  <oscillator_strength_1> 
0.0335 
 
>  <oscillator_strength_2> 
0.0003 
 
>  <oscillator_strength_3> 
0.0062 
 
>  <oscillator_strength_4> 
0.003 
 
>  <open_babel_can_smiles> 
Cc1c(C)cccc1O 
 
>  <mulliken_charges> 
19 
1   -0.537665 
2   -0.516006 
3   -0.13466 
4   -0.187945 
5   -0.192716 
6   0.123643 
7   0.07784 
8   0.298301 
9   -0.645398 
10   0.153235 
11   0.16132 
12   0.16146 
13   0.147657 
14   0.165388 
15   0.166666 
16   0.125474 
17   0.11533 
18   0.112062 
19   0.406013 
 
>  <lowdin_charges> 
19 
1   -0.443521 
2   -0.441035 
3   -0.15232 
4   -0.190958 
5   -0.216397 
6   0.000634 
7   -0.038571 
8   0.094201 
9   -0.381679 
10   0.155185 
11   0.160187 
12   0.158821 
13   0.154559 
14   0.16363 
15   0.164755 
16   0.156954 
17   0.152505 
18   0.148381 
19   0.354671 
 
$$$$ 
 
