PCCDB-ID:  10709 
public computational chemistry database (PCCDB) project, http://pccdb.org 
 
 19 19  0  0  0  0  0  0  0  0999 V2000 
   -1.0729    0.3974    0.0349 C   0  0  0  0  0  0  0  0  0  0  0  0 
   -0.4698    1.6501   -0.0298 C   0  0  0  0  0  0  0  0  0  0  0  0 
    1.1010   -0.6596    0.0220 C   0  0  0  0  0  0  0  0  0  0  0  0 
   -0.2926   -0.7639    0.0860 C   0  0  0  0  0  0  0  0  0  0  0  0 
    0.9182    1.7470   -0.0656 C   0  0  0  0  0  0  0  0  0  0  0  0 
    1.7018    0.5908   -0.0623 C   0  0  0  0  0  0  0  0  0  0  0  0 
   -1.0107   -2.0871    0.1515 C   0  0  0  0  0  0  0  0  0  0  0  0 
    1.5038    3.1010    0.0000 N   0  0  0  0  0  0  0  0  0  0  0  0 
    3.1645    0.6251   -0.2556 N   0  0  0  0  0  0  0  0  0  0  0  0 
   -2.1582   -2.2127   -0.1978 O   0  0  0  0  0  0  0  0  0  0  0  0 
   -0.3098   -3.1478    0.6186 O   0  0  0  0  0  0  0  0  0  0  0  0 
    0.9691    3.9640   -0.6873 O   0  0  0  0  0  0  0  0  0  0  0  0 
    2.4327    3.2621    0.7818 O   0  0  0  0  0  0  0  0  0  0  0  0 
    3.8137   -0.2529    0.3067 O   0  0  0  0  0  0  0  0  0  0  0  0 
    3.6091    1.4901   -0.9993 O   0  0  0  0  0  0  0  0  0  0  0  0 
   -2.1528    0.3006    0.0538 H   0  0  0  0  0  0  0  0  0  0  0  0 
   -1.0578    2.5605   -0.0434 H   0  0  0  0  0  0  0  0  0  0  0  0 
    1.7490   -1.5291   -0.0096 H   0  0  0  0  0  0  0  0  0  0  0  0 
    0.5335   -2.8699    1.0121 H   0  0  0  0  0  0  0  0  0  0  0  0 
  1 16  1  0  0  0  0 
  1  4  1  0  0  0  0 
  2  1  2  0  0  0  0 
  3  4  2  0  0  0  0 
  4  7  1  0  0  0  0 
  5  6  2  0  0  0  0 
  5  2  1  0  0  0  0 
  5  8  1  0  0  0  0 
  6  3  1  0  0  0  0 
  7 11  1  0  0  0  0 
  8 13  2  0  0  0  0 
  9  6  1  0  0  0  0 
  9 14  2  0  0  0  0 
 10  7  2  0  0  0  0 
 11 19  1  0  0  0  0 
 12  8  2  0  0  0  0 
 15  9  2  0  0  0  0 
 17  2  1  0  0  0  0 
 18  3  1  0  0  0  0 
M  END 
>  <HBA> 
2 
 
>  <HBD> 
1 
 
>  <TPSA> 
128.94 
 
>  <cid> 
10709 
 
>  <dipole> 
2.53 
 
>  <excitation_energy_1> 
3.617 
 
>  <excitation_energy_2> 
3.773 
 
>  <excitation_energy_3> 
4.022 
 
>  <excitation_energy_4> 
4.163 
 
>  <homo_energy> 
-8.237 
 
>  <homo_lumo_gap> 
4.678 
 
>  <logP> 
2.248 
 
>  <lumo_energy> 
-3.559 
 
>  <melting_point> 
174.24 
 
>  <molecular_refractivity> 
51.05 
 
>  <oscillator_strength_1> 
0.0177 
 
>  <oscillator_strength_2> 
0.0248 
 
>  <oscillator_strength_3> 
0.0043 
 
>  <oscillator_strength_4> 
0.0007 
 
>  <open_babel_can_smiles> 
O=N(=O)c1cc(ccc1N(=O)=O)C(=O)O 
 
>  <mulliken_charges> 
19 
1   -0.143622 
2   -0.145193 
3   -0.22096 
4   0.054484 
5   0.273535 
6   0.281673 
7   0.570823 
8   0.370182 
9   0.369417 
10   -0.426448 
11   -0.561701 
12   -0.355384 
13   -0.357328 
14   -0.366634 
15   -0.358397 
16   0.199636 
17   0.202089 
18   0.19167 
19   0.422159 
 
>  <lowdin_charges> 
19 
1   -0.099805 
2   -0.125996 
3   -0.142741 
4   -0.035266 
5   0.037588 
6   0.02639 
7   0.192343 
8   0.309236 
9   0.311572 
10   -0.217548 
11   -0.337004 
12   -0.2165 
13   -0.21098 
14   -0.228134 
15   -0.209552 
16   0.194564 
17   0.197154 
18   0.189437 
19   0.365243 
 
$$$$ 
 
