PCCDB-ID:  7377 
public computational chemistry database (PCCDB) project, http://pccdb.org 
 
 19 19  0  0  0  0  0  0  0  0999 V2000 
   -0.6569    0.7481    1.1206 C   0  0  0  0  0  0  0  0  0  0  0  0 
   -1.3727   -0.2496    0.4627 C   0  0  0  0  0  0  0  0  0  0  0  0 
    0.7149    0.9002    0.9200 C   0  0  0  0  0  0  0  0  0  0  0  0 
    0.6520   -0.9839   -0.6335 C   0  0  0  0  0  0  0  0  0  0  0  0 
   -0.7306   -1.1285   -0.4274 C   0  0  0  0  0  0  0  0  0  0  0  0 
    1.3439    0.0154    0.0433 C   0  0  0  0  0  0  0  0  0  0  0  0 
   -1.4350   -2.1559   -1.0532 N   0  0  0  0  0  0  0  0  0  0  0  0 
    3.7939   -0.6196    1.0942 N   0  0  0  0  0  0  0  0  0  0  0  0 
    3.4356   -0.5928   -1.4505 O   0  0  0  0  0  0  0  0  0  0  0  0 
    3.4711    1.5886   -0.0996 O   0  0  0  0  0  0  0  0  0  0  0  0 
    3.1075    0.1756   -0.2436 S   0  0  0  0  0  0  0  0  0  0  0  0 
   -1.1801    1.4218    1.7936 H   0  0  0  0  0  0  0  0  0  0  0  0 
   -2.4415   -0.3531    0.6349 H   0  0  0  0  0  0  0  0  0  0  0  0 
    1.2777    1.6851    1.4115 H   0  0  0  0  0  0  0  0  0  0  0  0 
    1.1812   -1.6318   -1.3252 H   0  0  0  0  0  0  0  0  0  0  0  0 
   -2.4277   -1.9938   -1.1667 H   0  0  0  0  0  0  0  0  0  0  0  0 
   -1.0146   -2.5130   -1.9020 H   0  0  0  0  0  0  0  0  0  0  0  0 
    4.2089   -1.4997    0.7941 H   0  0  0  0  0  0  0  0  0  0  0  0 
    4.4979   -0.0083    1.5039 H   0  0  0  0  0  0  0  0  0  0  0  0 
  1 12  1  0  0  0  0 
  2 13  1  0  0  0  0 
  2  1  2  0  0  0  0 
  3  1  1  0  0  0  0 
  3 14  1  0  0  0  0 
  4  5  2  0  0  0  0 
  4  6  1  0  0  0  0 
  5  2  1  0  0  0  0 
  6  3  2  0  0  0  0 
  7  5  1  0  0  0  0 
  8 19  1  0  0  0  0 
  9 11  2  0  0  0  0 
 11 10  2  0  0  0  0 
 11  6  1  0  0  0  0 
 11  8  1  0  0  0  0 
 15  4  1  0  0  0  0 
 16  7  1  0  0  0  0 
 17  7  1  0  0  0  0 
 18  8  1  0  0  0  0 
M  END 
>  <HBA> 
4 
 
>  <HBD> 
2 
 
>  <TPSA> 
94.56 
 
>  <cid> 
7377 
 
>  <dipole> 
3.82 
 
>  <excitation_energy_1> 
4.411 
 
>  <excitation_energy_2> 
5.045 
 
>  <excitation_energy_3> 
5.3 
 
>  <excitation_energy_4> 
5.512 
 
>  <homo_energy> 
-5.919 
 
>  <homo_lumo_gap> 
5.138 
 
>  <logP> 
2.279 
 
>  <lumo_energy> 
-0.781 
 
>  <melting_point> 
141.87 
 
>  <molecular_refractivity> 
41.84 
 
>  <oscillator_strength_1> 
0.0538 
 
>  <oscillator_strength_2> 
0.0071 
 
>  <oscillator_strength_3> 
0.0583 
 
>  <oscillator_strength_4> 
0.0058 
 
>  <open_babel_can_smiles> 
Nc1cccc(c1)S(=O)(=O)N 
 
>  <mulliken_charges> 
19 
1   -0.135647 
2   -0.16039 
3   -0.142616 
4   -0.190454 
5   0.318994 
6   -0.143857 
7   -0.787544 
8   -0.814265 
9   -0.53434 
10   -0.541141 
11   1.167946 
12   0.14063 
13   0.127956 
14   0.16577 
15   0.166696 
16   0.325295 
17   0.328326 
18   0.352261 
19   0.356381 
 
>  <lowdin_charges> 
19 
1   -0.139974 
2   -0.184156 
3   -0.167012 
4   -0.18675 
5   0.066046 
6   -0.167276 
7   -0.480263 
8   -0.696144 
9   -0.597255 
10   -0.592417 
11   1.308195 
12   0.16534 
13   0.156393 
14   0.179681 
15   0.179208 
16   0.277454 
17   0.280636 
18   0.297455 
19   0.300841 
 
$$$$ 
 
