PCCDB-ID:  28115 
public computational chemistry database (PCCDB) project, http://pccdb.org 
 
 13 13  0  0  0  0  0  0  0  0999 V2000 
   -1.1930   -0.7014    0.0392 C   0  0  0  0  0  0  0  0  0  0  0  0 
    0.0050   -1.4293    0.0680 C   0  0  0  0  0  0  0  0  0  0  0  0 
   -1.1190    0.6845   -0.0202 C   0  0  0  0  0  0  0  0  0  0  0  0 
    1.2012   -0.7342    0.0365 C   0  0  0  0  0  0  0  0  0  0  0  0 
    1.1644    0.6783   -0.0222 C   0  0  0  0  0  0  0  0  0  0  0  0 
    0.0388    1.3663   -0.0497 N   0  0  0  0  0  0  0  0  0  0  0  0 
    2.4573   -1.2956    0.0560 O   0  0  0  0  0  0  0  0  0  0  0  0 
    2.3229    1.3822   -0.0531 O   0  0  0  0  0  0  0  0  0  0  0  0 
   -2.1523   -1.2080    0.0623 H   0  0  0  0  0  0  0  0  0  0  0  0 
    0.0007   -2.5169    0.1137 H   0  0  0  0  0  0  0  0  0  0  0  0 
   -2.0235    1.2882   -0.0449 H   0  0  0  0  0  0  0  0  0  0  0  0 
    2.3864   -2.2608    0.1147 H   0  0  0  0  0  0  0  0  0  0  0  0 
    3.0557    0.7432   -0.0223 H   0  0  0  0  0  0  0  0  0  0  0  0 
  1  9  1  0  0  0  0 
  1  2  1  0  0  0  0 
  2 10  1  0  0  0  0 
  3  1  2  0  0  0  0 
  4  7  1  0  0  0  0 
  4  2  2  0  0  0  0 
  5  4  1  0  0  0  0 
  6  5  2  0  0  0  0 
  6  3  1  0  0  0  0 
  7 12  1  0  0  0  0 
  8 13  1  0  0  0  0 
  8  5  1  0  0  0  0 
 11  3  1  0  0  0  0 
M  END 
>  <HBA> 
2 
 
>  <HBD> 
2 
 
>  <TPSA> 
53.09 
 
>  <cid> 
28115 
 
>  <dipole> 
4.63 
 
>  <excitation_energy_1> 
4.902 
 
>  <excitation_energy_2> 
4.915 
 
>  <excitation_energy_3> 
5.269 
 
>  <excitation_energy_4> 
5.748 
 
>  <homo_energy> 
-5.987 
 
>  <homo_lumo_gap> 
5.587 
 
>  <logP> 
0.081 
 
>  <lumo_energy> 
-0.4 
 
>  <melting_point> 
126.01 
 
>  <molecular_refractivity> 
29.09 
 
>  <oscillator_strength_1> 
0.0782 
 
>  <oscillator_strength_2> 
0.0225 
 
>  <oscillator_strength_3> 
0.0037 
 
>  <oscillator_strength_4> 
0.0016 
 
>  <open_babel_can_smiles> 
Oc1ncccc1O 
 
>  <mulliken_charges> 
13 
1   -0.153399 
2   -0.156789 
3   0.027587 
4   0.289526 
5   0.482881 
6   -0.464115 
7   -0.674476 
8   -0.606116 
9   0.135204 
10   0.132591 
11   0.142009 
12   0.417734 
13   0.427363 
 
>  <lowdin_charges> 
13 
1   -0.190744 
2   -0.178147 
3   -0.095981 
4   0.042006 
5   0.114215 
6   -0.15175 
7   -0.394147 
8   -0.356009 
9   0.1646 
10   0.157492 
11   0.158706 
12   0.363982 
13   0.365778 
 
$$$$ 
 
