PCCDB-ID:  43110 
public computational chemistry database (PCCDB) project, http://pccdb.org 
 
 29 31  0  0  1  0  0  0  0  0999 V2000 
    1.2577    0.0563    0.7597 C   0  0  0  0  0  0  0  0  0  0  0  0 
    6.0534    4.1161   -1.3884 C   0  0  0  0  0  0  0  0  0  0  0  0 
    5.1510    4.3834   -0.3552 C   0  0  0  0  0  0  0  0  0  0  0  0 
    6.5465    2.8227   -1.5608 C   0  0  0  0  0  0  0  0  0  0  0  0 
    4.7491    3.3652    0.5072 C   0  0  0  0  0  0  0  0  0  0  0  0 
    6.1392    1.8009   -0.7010 C   0  0  0  0  0  0  0  0  0  0  0  0 
    5.8195    2.2776    4.5191 C   0  0  0  0  0  0  0  0  0  0  0  0 
    2.7510    0.0019    0.5479 C   0  0  0  0  0  0  0  0  0  0  0  0 
    5.2449    2.0651    0.3419 C   0  0  0  0  0  0  0  0  0  0  0  0 
    4.8223    0.9440    1.2698 C   0  0  1  0  0  0  0  0  0  0  0  0 
    6.6050    0.6186    3.2366 C   0  0  1  0  0  0  0  0  0  0  0  0 
    5.3457    1.0751    2.6752 C   0  0  1  0  0  0  0  0  0  0  0  0 
    3.3288   -0.7105   -0.2405 O   0  0  0  0  0  0  0  0  0  0  0  0 
    6.9892    1.5081    4.2289 O   0  0  0  0  0  0  0  0  0  0  0  0 
    4.9734    2.2236    3.3667 O   0  0  0  0  0  0  0  0  0  0  0  0 
    3.3782    0.8793    1.3788 O   0  0  0  0  0  0  0  0  0  0  0  0 
    5.3971   -0.1216    3.4934 O   0  0  0  0  0  0  0  0  0  0  0  0 
    0.7723   -0.6707    0.1079 H   0  0  0  0  0  0  0  0  0  0  0  0 
    0.8866    1.0624    0.5379 H   0  0  0  0  0  0  0  0  0  0  0  0 
    1.0178   -0.1577    1.8060 H   0  0  0  0  0  0  0  0  0  0  0  0 
    6.3654    4.9127   -2.0585 H   0  0  0  0  0  0  0  0  0  0  0  0 
    4.7617    5.3890   -0.2200 H   0  0  0  0  0  0  0  0  0  0  0  0 
    7.2403    2.6049   -2.3682 H   0  0  0  0  0  0  0  0  0  0  0  0 
    4.0513    3.5712    1.3118 H   0  0  0  0  0  0  0  0  0  0  0  0 
    6.5094    0.7893   -0.8491 H   0  0  0  0  0  0  0  0  0  0  0  0 
    6.1067    3.3143    4.7085 H   0  0  0  0  0  0  0  0  0  0  0  0 
    5.2966    1.8443    5.3779 H   0  0  0  0  0  0  0  0  0  0  0  0 
    5.1756   -0.0118    0.8779 H   0  0  0  0  0  0  0  0  0  0  0  0 
    7.4373    0.1032    2.7703 H   0  0  0  0  0  0  0  0  0  0  0  0 
  1 20  1  0  0  0  0 
  2  3  1  0  0  0  0 
  3 22  1  0  0  0  0 
  3  5  2  0  0  0  0 
  4  2  2  0  0  0  0 
  4  6  1  0  0  0  0 
  5 24  1  0  0  0  0 
  6  9  2  0  0  0  0 
  7 26  1  0  0  0  0 
  7 27  1  0  0  0  0 
  8  1  1  0  0  0  0 
  8 16  1  0  0  0  0 
  9  5  1  0  0  0  0 
  9 10  1  0  0  0  0 
 10 28  1  6  0  0  0 
 10 16  1  0  0  0  0 
 11 29  1  6  0  0  0 
 11 17  1  0  0  0  0 
 11 14  1  0  0  0  0 
 12 10  1  6  0  0  0 
 12 11  1  0  0  0  0 
 12 15  1  0  0  0  0 
 12 17  1  0  0  0  0 
 13  8  2  0  0  0  0 
 14  7  1  0  0  0  0 
 15  7  1  0  0  0  0 
 18  1  1  0  0  0  0 
 19  1  1  0  0  0  0 
 21  2  1  0  0  0  0 
 23  4  1  0  0  0  0 
 25  6  1  0  0  0  0 
M  END 
>  <HBA> 
5 
 
>  <HBD> 
0 
 
>  <TPSA> 
57.29 
 
>  <cid> 
43110 
 
>  <dipole> 
2.26 
 
>  <excitation_energy_1> 
5.307 
 
>  <excitation_energy_2> 
5.835 
 
>  <excitation_energy_3> 
5.888 
 
>  <excitation_energy_4> 
5.946 
 
>  <homo_energy> 
-6.844 
 
>  <homo_lumo_gap> 
6.463 
 
>  <logP> 
1.348 
 
>  <lumo_energy> 
-0.381 
 
>  <melting_point> 
45.6 
 
>  <molecular_refractivity> 
55.79 
 
>  <oscillator_strength_1> 
0.002 
 
>  <oscillator_strength_2> 
0.0002 
 
>  <oscillator_strength_3> 
0.0301 
 
>  <oscillator_strength_4> 
0.0268 
 
>  <open_babel_can_smiles> 
CC(=O)O[C@H]([C@@]12OCO[C@H]2O1)c1ccccc1 
 
>  <mulliken_charges> 
29 
1   -0.526457 
2   -0.124208 
3   -0.133106 
4   -0.131694 
5   -0.162624 
6   -0.177833 
7   0.185184 
8   0.614559 
9   0.150224 
10   -0.02443 
11   0.268608 
12   0.495478 
13   -0.461142 
14   -0.476377 
15   -0.497474 
16   -0.460921 
17   -0.479704 
18   0.184093 
19   0.185056 
20   0.188005 
21   0.13325 
22   0.133254 
23   0.134579 
24   0.154502 
25   0.137531 
26   0.165235 
27   0.166584 
28   0.186186 
29   0.173641 
 
>  <lowdin_charges> 
29 
1   -0.462951 
2   -0.152266 
3   -0.15475 
4   -0.154925 
5   -0.149337 
6   -0.155814 
7   0.002092 
8   0.209309 
9   -0.020984 
10   0.002978 
11   0.05156 
12   0.165902 
13   -0.257408 
14   -0.227615 
15   -0.226429 
16   -0.191808 
17   -0.284899 
18   0.178061 
19   0.179347 
20   0.180042 
21   0.160518 
22   0.158551 
23   0.160752 
24   0.170203 
25   0.160206 
26   0.157513 
27   0.148638 
28   0.178264 
29   0.175251 
 
$$$$ 
 
