PCCDB-ID:  27508 
public computational chemistry database (PCCDB) project, http://pccdb.org 
 
 23 24  0  0  0  0  0  0  0  0999 V2000 
    0.9919   -0.4963    0.4240 C   0  0  0  0  0  0  0  0  0  0  0  0 
    2.3881   -0.0188    0.7819 C   0  0  0  0  0  0  0  0  0  0  0  0 
    6.5412    0.2625    1.7939 C   0  0  0  0  0  0  0  0  0  0  0  0 
    5.1783    0.2318    1.4646 C   0  0  0  0  0  0  0  0  0  0  0  0 
    7.2868   -0.9086    1.9235 C   0  0  0  0  0  0  0  0  0  0  0  0 
    4.5337   -0.9905    1.2575 C   0  0  0  0  0  0  0  0  0  0  0  0 
    6.6388   -2.1267    1.7164 C   0  0  0  0  0  0  0  0  0  0  0  0 
    5.2816   -2.1677    1.3882 C   0  0  0  0  0  0  0  0  0  0  0  0 
    5.6986   -4.4954    1.3868 C   0  0  0  0  0  0  0  0  0  0  0  0 
    5.5537   -5.7569    1.2950 N   0  0  0  0  0  0  0  0  0  0  0  0 
    4.7921   -3.4564    1.2168 N   0  0  0  0  0  0  0  0  0  0  0  0 
    3.2169   -1.1738    0.9312 O   0  0  0  0  0  0  0  0  0  0  0  0 
    7.2986   -3.7703    1.8032 S   0  0  0  0  0  0  0  0  0  0  0  0 
    0.3223    0.3617    0.3028 H   0  0  0  0  0  0  0  0  0  0  0  0 
    0.5895   -1.1405    1.2122 H   0  0  0  0  0  0  0  0  0  0  0  0 
    1.0043   -1.0608   -0.5137 H   0  0  0  0  0  0  0  0  0  0  0  0 
    2.3807    0.5530    1.7204 H   0  0  0  0  0  0  0  0  0  0  0  0 
    2.7974    0.6286   -0.0061 H   0  0  0  0  0  0  0  0  0  0  0  0 
    7.0226    1.2233    1.9503 H   0  0  0  0  0  0  0  0  0  0  0  0 
    4.6307    1.1624    1.3714 H   0  0  0  0  0  0  0  0  0  0  0  0 
    8.3410   -0.8736    2.1785 H   0  0  0  0  0  0  0  0  0  0  0  0 
    4.5929   -6.0122    1.0545 H   0  0  0  0  0  0  0  0  0  0  0  0 
    3.8255   -3.6252    0.9761 H   0  0  0  0  0  0  0  0  0  0  0  0 
  1  2  1  0  0  0  0 
  1 15  1  0  0  0  0 
  2 12  1  0  0  0  0 
  2 17  1  0  0  0  0 
  3  5  2  0  0  0  0 
  3 19  1  0  0  0  0 
  4  3  1  0  0  0  0 
  5 21  1  0  0  0  0 
  6  8  1  0  0  0  0 
  6  4  2  0  0  0  0 
  7 13  1  0  0  0  0 
  7  5  1  0  0  0  0 
  8  7  2  0  0  0  0 
  9 13  1  0  0  0  0 
 10  9  2  0  0  0  0 
 11  9  1  0  0  0  0 
 11  8  1  0  0  0  0 
 12  6  1  0  0  0  0 
 14  1  1  0  0  0  0 
 16  1  1  0  0  0  0 
 18  2  1  0  0  0  0 
 20  4  1  0  0  0  0 
 22 10  1  0  0  0  0 
 23 11  1  0  0  0  0 
M  END 
>  <HBA> 
4 
 
>  <HBD> 
1 
 
>  <TPSA> 
76.38 
 
>  <cid> 
27508 
 
>  <dipole> 
5.61 
 
>  <excitation_energy_1> 
4.505 
 
>  <excitation_energy_2> 
4.568 
 
>  <excitation_energy_3> 
4.66 
 
>  <excitation_energy_4> 
4.79 
 
>  <homo_energy> 
-5.363 
 
>  <homo_lumo_gap> 
5.358 
 
>  <logP> 
2.858 
 
>  <lumo_energy> 
-0.005 
 
>  <melting_point> 
117.99 
 
>  <molecular_refractivity> 
55.32 
 
>  <oscillator_strength_1> 
0.0005 
 
>  <oscillator_strength_2> 
0.0302 
 
>  <oscillator_strength_3> 
0.0005 
 
>  <oscillator_strength_4> 
0.0821 
 
>  <open_babel_can_smiles> 
CCOc1cccc2c1[nH]c(=N)s2 
 
>  <mulliken_charges> 
23 
1   -0.460578 
2   -0.029754 
3   -0.126638 
4   -0.216382 
5   -0.191668 
6   0.371969 
7   -0.152026 
8   0.323187 
9   0.326887 
10   -0.638876 
11   -0.691561 
12   -0.547663 
13   0.22895 
14   0.155149 
15   0.163693 
16   0.163718 
17   0.147196 
18   0.147192 
19   0.132039 
20   0.137097 
21   0.141529 
22   0.277279 
23   0.339261 
 
>  <lowdin_charges> 
23 
1   -0.449451 
2   -0.122955 
3   -0.159077 
4   -0.213226 
5   -0.174528 
6   0.08071 
7   -0.143246 
8   0.018546 
9   -0.009487 
10   -0.432602 
11   -0.237428 
12   -0.217309 
13   0.250101 
14   0.161479 
15   0.160972 
16   0.159877 
17   0.141824 
18   0.142847 
19   0.161209 
20   0.165059 
21   0.165032 
22   0.254018 
23   0.297636 
 
$$$$ 
 
