PCCDB-ID:  61696 
public computational chemistry database (PCCDB) project, http://pccdb.org 
 
 34 35  0  0  1  0  0  0  0  0999 V2000 
    1.6795    0.0573   -0.1814 C   0  0  0  0  0  0  0  0  0  0  0  0 
    5.4199    2.0982    0.1823 C   0  0  0  0  0  0  0  0  0  0  0  0 
    3.8527    2.7445    2.0069 C   0  0  0  0  0  0  0  0  0  0  0  0 
    4.1136   -1.9248    2.8323 C   0  0  0  0  0  0  0  0  0  0  0  0 
    7.0259    0.4552    2.0969 C   0  0  0  0  0  0  0  0  0  0  0  0 
    6.2970   -0.9075    1.8847 C   0  0  0  0  0  0  0  0  0  0  0  0 
    5.1611    0.3741    3.5613 C   0  0  0  0  0  0  0  0  0  0  0  0 
    3.0275   -0.4380   -0.6770 C   0  0  0  0  0  0  0  0  0  0  0  0 
    5.9004    1.3667    2.6361 C   0  0  2  0  0  0  0  0  0  0  0  0 
    4.0993    0.2487    1.4540 C   0  0  2  0  0  0  0  0  0  0  0  0 
    4.8295    1.6513    1.5292 C   0  0  0  0  0  0  0  0  0  0  0  0 
    4.8691   -0.6596    2.4483 C   0  0  2  0  0  0  0  0  0  0  0  0 
    3.1786   -0.9321   -1.7684 O   0  0  0  0  0  0  0  0  0  0  0  0 
    4.1099   -0.3375    0.1412 O   0  0  0  0  0  0  0  0  0  0  0  0 
    1.3427   -0.5072    0.6953 H   0  0  0  0  0  0  0  0  0  0  0  0 
    1.7077    1.1159    0.0963 H   0  0  0  0  0  0  0  0  0  0  0  0 
    0.9623   -0.0837   -0.9902 H   0  0  0  0  0  0  0  0  0  0  0  0 
    6.0541    2.9818    0.3251 H   0  0  0  0  0  0  0  0  0  0  0  0 
    4.6230    2.3747   -0.5174 H   0  0  0  0  0  0  0  0  0  0  0  0 
    6.0143    1.3217   -0.3022 H   0  0  0  0  0  0  0  0  0  0  0  0 
    4.3676    3.7089    2.0948 H   0  0  0  0  0  0  0  0  0  0  0  0 
    3.4098    2.5161    2.9824 H   0  0  0  0  0  0  0  0  0  0  0  0 
    3.0304    2.8767    1.2923 H   0  0  0  0  0  0  0  0  0  0  0  0 
    4.6768   -2.5094    3.5692 H   0  0  0  0  0  0  0  0  0  0  0  0 
    3.9490   -2.5644    1.9569 H   0  0  0  0  0  0  0  0  0  0  0  0 
    3.1337   -1.6916    3.2690 H   0  0  0  0  0  0  0  0  0  0  0  0 
    7.4979    0.8367    1.1883 H   0  0  0  0  0  0  0  0  0  0  0  0 
    7.8154    0.3647    2.8516 H   0  0  0  0  0  0  0  0  0  0  0  0 
    6.7815   -1.7123    2.4492 H   0  0  0  0  0  0  0  0  0  0  0  0 
    6.2644   -1.2179    0.8373 H   0  0  0  0  0  0  0  0  0  0  0  0 
    4.2566    0.7765    4.0310 H   0  0  0  0  0  0  0  0  0  0  0  0 
    5.8025   -0.0334    4.3516 H   0  0  0  0  0  0  0  0  0  0  0  0 
    6.2668    2.2843    3.1087 H   0  0  0  0  0  0  0  0  0  0  0  0 
    3.0650    0.3469    1.7958 H   0  0  0  0  0  0  0  0  0  0  0  0 
  1 16  1  0  0  0  0 
  1 15  1  0  0  0  0 
  2 18  1  0  0  0  0 
  2 11  1  0  0  0  0 
  3 21  1  0  0  0  0 
  3 22  1  0  0  0  0 
  4 26  1  0  0  0  0 
  4 24  1  0  0  0  0 
  5  9  1  0  0  0  0 
  5 28  1  0  0  0  0 
  6  5  1  0  0  0  0 
  6 12  1  0  0  0  0 
  6 29  1  0  0  0  0 
  7 31  1  0  0  0  0 
  7 32  1  0  0  0  0 
  8  1  1  0  0  0  0 
  8 14  1  0  0  0  0 
  9 33  1  1  0  0  0 
  9  7  1  0  0  0  0 
 10 11  1  0  0  0  0 
 10 34  1  1  0  0  0 
 10 12  1  0  0  0  0 
 11  3  1  0  0  0  0 
 11  9  1  0  0  0  0 
 12  4  1  1  0  0  0 
 12  7  1  0  0  0  0 
 13  8  2  0  0  0  0 
 14 10  1  0  0  0  0 
 17  1  1  0  0  0  0 
 19  2  1  0  0  0  0 
 20  2  1  0  0  0  0 
 23  3  1  0  0  0  0 
 25  4  1  0  0  0  0 
 27  5  1  0  0  0  0 
 30  6  1  0  0  0  0 
M  END 
>  <HBA> 
2 
 
>  <HBD> 
0 
 
>  <TPSA> 
26.3 
 
>  <cid> 
61696 
 
>  <dipole> 
4.03 
 
>  <excitation_energy_1> 
5.629 
 
>  <excitation_energy_2> 
6.569 
 
>  <excitation_energy_3> 
6.748 
 
>  <excitation_energy_4> 
6.99 
 
>  <homo_energy> 
-7.108 
 
>  <homo_lumo_gap> 
7.521 
 
>  <logP> 
2.764 
 
>  <lumo_energy> 
0.414 
 
>  <melting_point> 
64.42 
 
>  <molecular_refractivity> 
56.34 
 
>  <oscillator_strength_1> 
0.0006 
 
>  <oscillator_strength_2> 
0.0131 
 
>  <oscillator_strength_3> 
0.0092 
 
>  <oscillator_strength_4> 
0.1131 
 
>  <open_babel_can_smiles> 
CC(=O)O[C@H]1[C@@]2(C)CC[C@@H](C1(C)C)C2 
 
>  <mulliken_charges> 
34 
1   -0.566726 
2   -0.459212 
3   -0.471839 
4   -0.479118 
5   -0.282629 
6   -0.290707 
7   -0.294123 
8   0.594335 
9   -0.099546 
10   0.115233 
11   0.090121 
12   0.082147 
13   -0.442661 
14   -0.462393 
15   0.180851 
16   0.179691 
17   0.193533 
18   0.140165 
19   0.140207 
20   0.169596 
21   0.147916 
22   0.144017 
23   0.140627 
24   0.146095 
25   0.159028 
26   0.133282 
27   0.142874 
28   0.134471 
29   0.133578 
30   0.16808 
31   0.131163 
32   0.13662 
33   0.112332 
34   0.132992 
 
>  <lowdin_charges> 
34 
1   -0.483741 
2   -0.447179 
3   -0.445669 
4   -0.446317 
5   -0.286728 
6   -0.289071 
7   -0.288407 
8   0.196303 
9   -0.132515 
10   -0.00541 
11   -0.004645 
12   -0.001498 
13   -0.245518 
14   -0.180746 
15   0.174102 
16   0.169673 
17   0.18329 
18   0.150111 
19   0.150639 
20   0.162727 
21   0.151714 
22   0.14674 
23   0.145488 
24   0.154207 
25   0.15772 
26   0.144155 
27   0.149182 
28   0.145481 
29   0.146259 
30   0.15787 
31   0.141935 
32   0.148337 
33   0.140309 
34   0.141201 
 
$$$$ 
 
