PCCDB-ID:  19808 
public computational chemistry database (PCCDB) project, http://pccdb.org 
 
 17 16  0  0  0  0  0  0  0  0999 V2000 
    2.3029    1.1222   -1.8201 C   0  0  0  0  0  0  0  0  0  0  0  0 
    2.3139    0.2581   -0.5683 C   0  0  0  0  0  0  0  0  0  0  0  0 
    5.8008   -0.1341    0.6048 C   0  0  0  0  0  0  0  0  0  0  0  0 
    4.5806   -0.4106   -0.2599 C   0  0  0  0  0  0  0  0  0  0  0  0 
    8.0052   -0.6902    0.9932 N   0  0  0  0  0  0  0  0  0  0  0  0 
    4.5132   -1.2087   -1.1639 O   0  0  0  0  0  0  0  0  0  0  0  0 
    3.5654    0.3847    0.1505 O   0  0  0  0  0  0  0  0  0  0  0  0 
    6.8519   -0.9676    0.1679 O   0  0  0  0  0  0  0  0  0  0  0  0 
    1.3198    1.0659   -2.3017 H   0  0  0  0  0  0  0  0  0  0  0  0 
    3.0545    0.7745   -2.5343 H   0  0  0  0  0  0  0  0  0  0  0  0 
    2.5052    2.1695   -1.5726 H   0  0  0  0  0  0  0  0  0  0  0  0 
    2.1542   -0.7951   -0.8123 H   0  0  0  0  0  0  0  0  0  0  0  0 
    1.5571    0.5828    0.1500 H   0  0  0  0  0  0  0  0  0  0  0  0 
    5.5420   -0.3196    1.6574 H   0  0  0  0  0  0  0  0  0  0  0  0 
    6.0634    0.9305    0.5232 H   0  0  0  0  0  0  0  0  0  0  0  0 
    8.7360   -0.5055    0.3024 H   0  0  0  0  0  0  0  0  0  0  0  0 
    8.2336   -1.6082    1.3825 H   0  0  0  0  0  0  0  0  0  0  0  0 
  1 11  1  0  0  0  0 
  1  2  1  0  0  0  0 
  2 13  1  0  0  0  0 
  2  7  1  0  0  0  0 
  3 14  1  0  0  0  0 
  4  7  1  0  0  0  0 
  4  3  1  0  0  0  0 
  5 17  1  0  0  0  0 
  6  4  2  0  0  0  0 
  8  3  1  0  0  0  0 
  8  5  1  0  0  0  0 
  9  1  1  0  0  0  0 
 10  1  1  0  0  0  0 
 12  2  1  0  0  0  0 
 15  3  1  0  0  0  0 
 16  5  1  0  0  0  0 
M  END 
>  <HBA> 
4 
 
>  <HBD> 
1 
 
>  <TPSA> 
61.55 
 
>  <cid> 
19808 
 
>  <dipole> 
1.34 
 
>  <excitation_energy_1> 
5.808 
 
>  <excitation_energy_2> 
6.488 
 
>  <excitation_energy_3> 
6.606 
 
>  <excitation_energy_4> 
6.708 
 
>  <homo_energy> 
-7.048 
 
>  <homo_lumo_gap> 
7.459 
 
>  <logP> 
0.14 
 
>  <lumo_energy> 
0.411 
 
>  <melting_point> 
34.85 
 
>  <molecular_refractivity> 
26.42 
 
>  <oscillator_strength_1> 
0.0004 
 
>  <oscillator_strength_2> 
0.0326 
 
>  <oscillator_strength_3> 
0.018 
 
>  <oscillator_strength_4> 
0.0087 
 
>  <open_babel_can_smiles> 
CCOC(=O)CON 
 
>  <mulliken_charges> 
17 
1   -0.462284 
2   -0.044232 
3   -0.045226 
4   0.592976 
5   -0.476415 
6   -0.461479 
7   -0.464385 
8   -0.41373 
9   0.150804 
10   0.178078 
11   0.157123 
12   0.171208 
13   0.153344 
14   0.161118 
15   0.162071 
16   0.321083 
17   0.319946 
 
>  <lowdin_charges> 
17 
1   -0.454421 
2   -0.126387 
3   -0.153455 
4   0.187605 
5   -0.399163 
6   -0.246845 
7   -0.20028 
8   -0.232508 
9   0.158737 
10   0.167212 
11   0.154827 
12   0.157546 
13   0.153932 
14   0.154997 
15   0.155062 
16   0.262759 
17   0.260382 
 
$$$$ 
 
