PCCDB-ID:  58704 
public computational chemistry database (PCCDB) project, http://pccdb.org 
 
 23 24  0  0  1  0  0  0  0  0999 V2000 
   -1.3152    1.3958   -0.0653 C   0  0  0  0  0  0  0  0  0  0  0  0 
   -2.5086    0.6732   -0.1543 C   0  0  0  0  0  0  0  0  0  0  0  0 
    2.3501    0.6977   -0.4381 C   0  0  0  0  0  0  0  0  0  0  0  0 
   -0.0923    0.7400    0.0334 C   0  0  0  0  0  0  0  0  0  0  0  0 
   -2.4678   -0.7146   -0.1303 C   0  0  0  0  0  0  0  0  0  0  0  0 
    1.2125    1.4953    0.2008 C   0  0  1  0  0  0  0  0  0  0  0  0 
   -0.0406   -0.6724    0.0578 C   0  0  0  0  0  0  0  0  0  0  0  0 
   -1.2415   -1.3874   -0.0241 C   0  0  0  0  0  0  0  0  0  0  0  0 
    1.3067   -1.3087    0.1769 C   0  0  0  0  0  0  0  0  0  0  0  0 
    2.4108   -0.6954   -0.0120 N   0  0  0  0  0  0  0  0  0  0  0  0 
   -3.5668   -1.5416   -0.2017 O   0  0  0  0  0  0  0  0  0  0  0  0 
    1.4719    1.7758    1.5803 O   0  0  0  0  0  0  0  0  0  0  0  0 
   -1.2431   -2.7603   -0.0004 O   0  0  0  0  0  0  0  0  0  0  0  0 
    1.3790   -2.6108    0.5449 O   0  0  0  0  0  0  0  0  0  0  0  0 
   -1.3423    2.4815   -0.0727 H   0  0  0  0  0  0  0  0  0  0  0  0 
   -3.4637    1.1874   -0.2395 H   0  0  0  0  0  0  0  0  0  0  0  0 
    3.3024    1.1789   -0.1892 H   0  0  0  0  0  0  0  0  0  0  0  0 
    2.2493    0.7340   -1.5346 H   0  0  0  0  0  0  0  0  0  0  0  0 
    1.1344    2.4794   -0.2729 H   0  0  0  0  0  0  0  0  0  0  0  0 
   -4.3784   -1.0130   -0.2241 H   0  0  0  0  0  0  0  0  0  0  0  0 
    1.7256    0.9336    1.9942 H   0  0  0  0  0  0  0  0  0  0  0  0 
   -2.1687   -3.0621   -0.0152 H   0  0  0  0  0  0  0  0  0  0  0  0 
    0.4875   -3.0035    0.5432 H   0  0  0  0  0  0  0  0  0  0  0  0 
  1  4  2  0  0  0  0 
  2  5  2  0  0  0  0 
  2  1  1  0  0  0  0 
  3 17  1  0  0  0  0 
  3 10  1  0  0  0  0 
  3  6  1  0  0  0  0 
  4  7  1  0  0  0  0 
  4  6  1  0  0  0  0 
  5  8  1  0  0  0  0 
  6 19  1  6  0  0  0 
  6 12  1  0  0  0  0 
  7  9  1  0  0  0  0 
  8 13  1  0  0  0  0 
  8  7  2  0  0  0  0 
  9 14  1  0  0  0  0 
 10  9  2  0  0  0  0 
 11  5  1  0  0  0  0 
 12 21  1  0  0  0  0 
 15  1  1  0  0  0  0 
 16  2  1  0  0  0  0 
 18  3  1  0  0  0  0 
 20 11  1  0  0  0  0 
 22 13  1  0  0  0  0 
 23 14  1  0  0  0  0 
M  END 
>  <HBA> 
5 
 
>  <HBD> 
4 
 
>  <TPSA> 
89.79 
 
>  <cid> 
58704 
 
>  <dipole> 
6.84 
 
>  <excitation_energy_1> 
4.212 
 
>  <excitation_energy_2> 
4.442 
 
>  <excitation_energy_3> 
4.73 
 
>  <excitation_energy_4> 
4.929 
 
>  <homo_energy> 
-6.267 
 
>  <homo_lumo_gap> 
5.14 
 
>  <logP> 
0.203 
 
>  <lumo_energy> 
-1.127 
 
>  <melting_point> 
193.38 
 
>  <molecular_refractivity> 
51.41 
 
>  <oscillator_strength_1> 
0.0004 
 
>  <oscillator_strength_2> 
0.0657 
 
>  <oscillator_strength_3> 
0.1019 
 
>  <oscillator_strength_4> 
0.0004 
 
>  <open_babel_can_smiles> 
OC1=NC[C@@H](c2c1c(O)c(cc2)O)O 
 
>  <mulliken_charges> 
23 
1   -0.197795 
2   -0.186703 
3   -0.164688 
4   0.108509 
5   0.328108 
6   0.01797 
7   0.026632 
8   0.250564 
9   0.452831 
10   -0.445895 
11   -0.682912 
12   -0.614117 
13   -0.692546 
14   -0.617704 
15   0.141334 
16   0.132429 
17   0.157467 
18   0.146511 
19   0.136455 
20   0.424025 
21   0.394978 
22   0.444588 
23   0.439961 
 
>  <lowdin_charges> 
23 
1   -0.156758 
2   -0.190465 
3   -0.216195 
4   -0.016275 
5   0.061597 
6   -0.011766 
7   -0.073954 
8   0.080248 
9   0.12425 
10   -0.218772 
11   -0.397932 
12   -0.460123 
13   -0.384473 
14   -0.368353 
15   0.164147 
16   0.161135 
17   0.156513 
18   0.148374 
19   0.150486 
20   0.370771 
21   0.344824 
22   0.373902 
23   0.35882 
 
$$$$ 
 
