PCCDB-ID:  71648 
public computational chemistry database (PCCDB) project, http://pccdb.org 
 
 18 18  0  0  0  0  0  0  0  0999 V2000 
    3.0783   -1.2416    0.2071 C   0  0  0  0  0  0  0  0  0  0  0  0 
    4.2638    3.3461   -1.5164 C   0  0  0  0  0  0  0  0  0  0  0  0 
    2.5394    2.3455   -0.1234 C   0  0  0  0  0  0  0  0  0  0  0  0 
    4.3023    0.9509   -1.0678 C   0  0  0  0  0  0  0  0  0  0  0  0 
    3.1047    3.4592   -0.7349 C   0  0  0  0  0  0  0  0  0  0  0  0 
    4.8487    2.0885   -1.6707 C   0  0  0  0  0  0  0  0  0  0  0  0 
    3.1449    1.0937   -0.2957 C   0  0  0  0  0  0  0  0  0  0  0  0 
    2.4820    4.6620   -0.5419 O   0  0  0  0  0  0  0  0  0  0  0  0 
    5.9822    1.9006   -2.4147 O   0  0  0  0  0  0  0  0  0  0  0  0 
    2.5242    0.0578    0.3381 O   0  0  0  0  0  0  0  0  0  0  0  0 
    2.4304   -1.9018    0.7869 H   0  0  0  0  0  0  0  0  0  0  0  0 
    4.0984   -1.2880    0.6102 H   0  0  0  0  0  0  0  0  0  0  0  0 
    3.0900   -1.5719   -0.8398 H   0  0  0  0  0  0  0  0  0  0  0  0 
    4.7007    4.2236   -1.9913 H   0  0  0  0  0  0  0  0  0  0  0  0 
    1.6435    2.4407    0.4780 H   0  0  0  0  0  0  0  0  0  0  0  0 
    4.7924   -0.0015   -1.2201 H   0  0  0  0  0  0  0  0  0  0  0  0 
    2.9768    5.3513   -1.0108 H   0  0  0  0  0  0  0  0  0  0  0  0 
    6.2577    2.7518   -2.7881 H   0  0  0  0  0  0  0  0  0  0  0  0 
  1 10  1  0  0  0  0 
  1 12  1  0  0  0  0 
  1 11  1  0  0  0  0 
  2  5  1  0  0  0  0 
  3 15  1  0  0  0  0 
  4  7  2  0  0  0  0 
  5  8  1  0  0  0  0 
  5  3  2  0  0  0  0 
  6  2  2  0  0  0  0 
  6  4  1  0  0  0  0 
  7  3  1  0  0  0  0 
  7 10  1  0  0  0  0 
  9  6  1  0  0  0  0 
 13  1  1  0  0  0  0 
 14  2  1  0  0  0  0 
 16  4  1  0  0  0  0 
 17  8  1  0  0  0  0 
 18  9  1  0  0  0  0 
M  END 
>  <HBA> 
3 
 
>  <HBD> 
2 
 
>  <TPSA> 
49.69 
 
>  <cid> 
71648 
 
>  <dipole> 
2.23 
 
>  <excitation_energy_1> 
4.906 
 
>  <excitation_energy_2> 
5.058 
 
>  <excitation_energy_3> 
5.071 
 
>  <excitation_energy_4> 
5.263 
 
>  <homo_energy> 
-5.671 
 
>  <homo_lumo_gap> 
6.248 
 
>  <logP> 
1.106 
 
>  <lumo_energy> 
0.577 
 
>  <melting_point> 
90.37 
 
>  <molecular_refractivity> 
36.98 
 
>  <oscillator_strength_1> 
0.0004 
 
>  <oscillator_strength_2> 
0.0018 
 
>  <oscillator_strength_3> 
0.001 
 
>  <oscillator_strength_4> 
0.0005 
 
>  <open_babel_can_smiles> 
COc1cc(O)cc(c1)O 
 
>  <mulliken_charges> 
18 
1   -0.213299 
2   -0.286694 
3   -0.226937 
4   -0.250544 
5   0.366671 
6   0.361922 
7   0.383502 
8   -0.647074 
9   -0.647084 
10   -0.510641 
11   0.168477 
12   0.153539 
13   0.153518 
14   0.101082 
15   0.142703 
16   0.13725 
17   0.406489 
18   0.40712 
 
>  <lowdin_charges> 
18 
1   -0.275849 
2   -0.297353 
3   -0.238115 
4   -0.268682 
5   0.1222 
6   0.124299 
7   0.122785 
8   -0.378439 
9   -0.37846 
10   -0.195366 
11   0.163705 
12   0.145109 
13   0.144983 
14   0.14794 
15   0.175349 
16   0.171246 
17   0.357972 
18   0.356678 
 
$$$$ 
 
