PCCDB-ID:  11432 
public computational chemistry database (PCCDB) project, http://pccdb.org 
 
 10 10  0  0  0  0  0  0  0  0999 V2000 
   -1.1243   -0.0103   -0.0849 C   0  0  0  0  0  0  0  0  0  0  0  0 
    0.9409    0.6350    0.0458 C   0  0  0  0  0  0  0  0  0  0  0  0 
   -0.8230    2.4257   -0.1743 N   0  0  0  0  0  0  0  0  0  0  0  0 
   -0.3872   -1.0864    0.0227 N   0  0  0  0  0  0  0  0  0  0  0  0 
    0.9373   -0.6715    0.1065 N   0  0  0  0  0  0  0  0  0  0  0  0 
   -0.3412    1.1114   -0.0762 N   0  0  0  0  0  0  0  0  0  0  0  0 
   -2.2001    0.0377   -0.1706 H   0  0  0  0  0  0  0  0  0  0  0  0 
    1.8107    1.2771    0.0837 H   0  0  0  0  0  0  0  0  0  0  0  0 
   -0.5336    2.9450    0.6526 H   0  0  0  0  0  0  0  0  0  0  0  0 
   -0.4104    2.8675   -0.9940 H   0  0  0  0  0  0  0  0  0  0  0  0 
  1  6  1  0  0  0  0 
  1  4  2  0  0  0  0 
  2  8  1  0  0  0  0 
  2  5  2  0  0  0  0 
  3  6  1  0  0  0  0 
  3  9  1  0  0  0  0 
  4  5  1  0  0  0  0 
  6  2  1  0  0  0  0 
  7  1  1  0  0  0  0 
 10  3  1  0  0  0  0 
M  END 
>  <HBA> 
4 
 
>  <HBD> 
1 
 
>  <TPSA> 
56.73 
 
>  <cid> 
11432 
 
>  <dipole> 
5.85 
 
>  <excitation_energy_1> 
5.583 
 
>  <excitation_energy_2> 
5.861 
 
>  <excitation_energy_3> 
6.197 
 
>  <excitation_energy_4> 
6.37 
 
>  <homo_energy> 
-6.776 
 
>  <homo_lumo_gap> 
7.086 
 
>  <logP> 
-0.427 
 
>  <lumo_energy> 
0.31 
 
>  <melting_point> 
78.27 
 
>  <molecular_refractivity> 
20.16 
 
>  <oscillator_strength_1> 
0.0007 
 
>  <oscillator_strength_2> 
0.0039 
 
>  <oscillator_strength_3> 
0.001 
 
>  <oscillator_strength_4> 
0.0149 
 
>  <open_babel_can_smiles> 
Nn1cnnc1 
 
>  <mulliken_charges> 
10 
1   0.240202 
2   0.203375 
3   -0.570819 
4   -0.302181 
5   -0.294653 
6   -0.307157 
7   0.181232 
8   0.16985 
9   0.340068 
10   0.340084 
 
>  <lowdin_charges> 
10 
1   -0.091964 
2   -0.122167 
3   -0.44203 
4   -0.139659 
5   -0.13197 
6   0.01432 
7   0.181404 
8   0.175426 
9   0.278303 
10   0.278339 
 
$$$$ 
 
