PCCDB-ID:  19960 
public computational chemistry database (PCCDB) project, http://pccdb.org 
 
 23 22  0  0  0  0  0  0  0  0999 V2000 
    1.2174   -0.0826   -0.4835 C   0  0  0  0  0  0  0  0  0  0  0  0 
    1.3616   -0.5090   -1.9585 C   0  0  0  0  0  0  0  0  0  0  0  0 
    2.4454    0.5634    0.1849 C   0  0  0  0  0  0  0  0  0  0  0  0 
    2.1111   -1.8244   -2.2130 C   0  0  0  0  0  0  0  0  0  0  0  0 
    3.5781   -0.3842    0.5947 C   0  0  0  0  0  0  0  0  0  0  0  0 
    2.0554   -2.2535   -3.6743 C   0  0  0  0  0  0  0  0  0  0  0  0 
    4.6071    0.3589    1.3336 N   0  0  0  0  0  0  0  0  0  0  0  0 
    2.7859   -3.4699   -3.8038 O   0  0  0  0  0  0  0  0  0  0  0  0 
    0.8841   -0.9451    0.1129 H   0  0  0  0  0  0  0  0  0  0  0  0 
    0.3989    0.6474   -0.4328 H   0  0  0  0  0  0  0  0  0  0  0  0 
    1.8407    0.3051   -2.5224 H   0  0  0  0  0  0  0  0  0  0  0  0 
    0.3497   -0.6088   -2.3780 H   0  0  0  0  0  0  0  0  0  0  0  0 
    2.1003    1.0768    1.0955 H   0  0  0  0  0  0  0  0  0  0  0  0 
    2.8594    1.3479   -0.4622 H   0  0  0  0  0  0  0  0  0  0  0  0 
    1.6801   -2.6281   -1.6010 H   0  0  0  0  0  0  0  0  0  0  0  0 
    3.1656   -1.7444   -1.9283 H   0  0  0  0  0  0  0  0  0  0  0  0 
    4.0617   -0.8079   -0.2916 H   0  0  0  0  0  0  0  0  0  0  0  0 
    3.1486   -1.2360    1.1558 H   0  0  0  0  0  0  0  0  0  0  0  0 
    2.4860   -1.4625   -4.3116 H   0  0  0  0  0  0  0  0  0  0  0  0 
    1.0049   -2.3859   -3.9847 H   0  0  0  0  0  0  0  0  0  0  0  0 
    4.2213    0.6796    2.2216 H   0  0  0  0  0  0  0  0  0  0  0  0 
    5.3776   -0.2636    1.5723 H   0  0  0  0  0  0  0  0  0  0  0  0 
    2.7522   -3.7394   -4.7340 H   0  0  0  0  0  0  0  0  0  0  0  0 
  1 10  1  0  0  0  0 
  1  9  1  0  0  0  0 
  1  3  1  0  0  0  0 
  2  1  1  0  0  0  0 
  3  5  1  0  0  0  0 
  3 13  1  0  0  0  0 
  4  2  1  0  0  0  0 
  4 16  1  0  0  0  0 
  4 15  1  0  0  0  0 
  5 18  1  0  0  0  0 
  5  7  1  0  0  0  0 
  6  4  1  0  0  0  0 
  7 22  1  0  0  0  0 
  7 21  1  0  0  0  0 
  8  6  1  0  0  0  0 
 11  2  1  0  0  0  0 
 12  2  1  0  0  0  0 
 14  3  1  0  0  0  0 
 17  5  1  0  0  0  0 
 19  6  1  0  0  0  0 
 20  6  1  0  0  0  0 
 23  8  1  0  0  0  0 
M  END 
>  <HBA> 
2 
 
>  <HBD> 
2 
 
>  <TPSA> 
46.25 
 
>  <cid> 
19960 
 
>  <dipole> 
1.11 
 
>  <excitation_energy_1> 
5.573 
 
>  <excitation_energy_2> 
6.159 
 
>  <excitation_energy_3> 
6.206 
 
>  <excitation_energy_4> 
6.332 
 
>  <homo_energy> 
-6.188 
 
>  <homo_lumo_gap> 
8.3 
 
>  <logP> 
1.198 
 
>  <lumo_energy> 
2.112 
 
>  <melting_point> 
46.3 
 
>  <molecular_refractivity> 
34.83 
 
>  <oscillator_strength_1> 
0.0134 
 
>  <oscillator_strength_2> 
0.0003 
 
>  <oscillator_strength_3> 
0.0013 
 
>  <oscillator_strength_4> 
0.0007 
 
>  <open_babel_can_smiles> 
NCCCCCCO 
 
>  <mulliken_charges> 
23 
1   -0.263143 
2   -0.260846 
3   -0.244204 
4   -0.265973 
5   -0.136315 
6   -0.028136 
7   -0.718002 
8   -0.62079 
9   0.127681 
10   0.130581 
11   0.130772 
12   0.127258 
13   0.121153 
14   0.143948 
15   0.14193 
16   0.153813 
17   0.147404 
18   0.109405 
19   0.11575 
20   0.114373 
21   0.289168 
22   0.294418 
23   0.389755 
 
>  <lowdin_charges> 
23 
1   -0.277769 
2   -0.276506 
3   -0.280532 
4   -0.283853 
5   -0.210047 
6   -0.132974 
7   -0.559795 
8   -0.4735 
9   0.139275 
10   0.14537 
11   0.140571 
12   0.139056 
13   0.13811 
14   0.148397 
15   0.147456 
16   0.148065 
17   0.143989 
18   0.115664 
19   0.123892 
20   0.120209 
21   0.248818 
22   0.254652 
23   0.341452 
 
$$$$ 
 
