PCCDB-ID:  70126 
public computational chemistry database (PCCDB) project, http://pccdb.org 
 
 22 22  0  0  0  0  0  0  0  0999 V2000 
    0.8850    0.0957   -0.0522 C   0  0  0  0  0  0  0  0  0  0  0  0 
    5.2391    2.6704    0.0391 C   0  0  0  0  0  0  0  0  0  0  0  0 
    6.5108   -2.3313    0.5690 C   0  0  0  0  0  0  0  0  0  0  0  0 
    3.0970    1.3255    0.0053 C   0  0  0  0  0  0  0  0  0  0  0  0 
    3.1062   -1.0735    0.2169 C   0  0  0  0  0  0  0  0  0  0  0  0 
    5.1966    0.1566    0.2530 C   0  0  0  0  0  0  0  0  0  0  0  0 
    2.3922    0.1099    0.0628 C   0  0  0  0  0  0  0  0  0  0  0  0 
    4.4865    1.3603    0.0985 C   0  0  0  0  0  0  0  0  0  0  0  0 
    4.5068   -1.0545    0.3125 C   0  0  0  0  0  0  0  0  0  0  0  0 
    5.0987   -2.2785    0.4636 O   0  0  0  0  0  0  0  0  0  0  0  0 
    0.4231    0.7799    0.6700 H   0  0  0  0  0  0  0  0  0  0  0  0 
    0.4789   -0.9049    0.1253 H   0  0  0  0  0  0  0  0  0  0  0  0 
    0.5585    0.4156   -1.0501 H   0  0  0  0  0  0  0  0  0  0  0  0 
    4.5586    3.5157   -0.1019 H   0  0  0  0  0  0  0  0  0  0  0  0 
    5.9609    2.6804   -0.7874 H   0  0  0  0  0  0  0  0  0  0  0  0 
    5.8068    2.8484    0.9614 H   0  0  0  0  0  0  0  0  0  0  0  0 
    6.7643   -3.3872    0.6828 H   0  0  0  0  0  0  0  0  0  0  0  0 
    6.8730   -1.7756    1.4445 H   0  0  0  0  0  0  0  0  0  0  0  0 
    6.9998   -1.9370   -0.3321 H   0  0  0  0  0  0  0  0  0  0  0  0 
    2.5463    2.2565   -0.1130 H   0  0  0  0  0  0  0  0  0  0  0  0 
    2.5998   -2.0332    0.2677 H   0  0  0  0  0  0  0  0  0  0  0  0 
    6.2786    0.1862    0.3263 H   0  0  0  0  0  0  0  0  0  0  0  0 
  1  7  1  0  0  0  0 
  1 12  1  0  0  0  0 
  1 11  1  0  0  0  0 
  2  8  1  0  0  0  0 
  2 16  1  0  0  0  0 
  3 17  1  0  0  0  0 
  3 18  1  0  0  0  0 
  4  7  2  0  0  0  0 
  4  8  1  0  0  0  0 
  5 21  1  0  0  0  0 
  5  9  2  0  0  0  0 
  6  9  1  0  0  0  0 
  6 22  1  0  0  0  0 
  7  5  1  0  0  0  0 
  8  6  2  0  0  0  0 
  9 10  1  0  0  0  0 
 10  3  1  0  0  0  0 
 13  1  1  0  0  0  0 
 14  2  1  0  0  0  0 
 15  2  1  0  0  0  0 
 19  3  1  0  0  0  0 
 20  4  1  0  0  0  0 
M  END 
>  <HBA> 
1 
 
>  <HBD> 
0 
 
>  <TPSA> 
9.23 
 
>  <cid> 
70126 
 
>  <dipole> 
1.21 
 
>  <excitation_energy_1> 
4.959 
 
>  <excitation_energy_2> 
5.399 
 
>  <excitation_energy_3> 
5.584 
 
>  <excitation_energy_4> 
5.731 
 
>  <homo_energy> 
-5.695 
 
>  <homo_lumo_gap> 
5.94 
 
>  <logP> 
2.312 
 
>  <lumo_energy> 
0.245 
 
>  <melting_point> 
18.1 
 
>  <molecular_refractivity> 
42.87 
 
>  <oscillator_strength_1> 
0.0319 
 
>  <oscillator_strength_2> 
0.006 
 
>  <oscillator_strength_3> 
0.0404 
 
>  <oscillator_strength_4> 
0.0034 
 
>  <open_babel_can_smiles> 
COc1cc(C)cc(c1)C 
 
>  <mulliken_charges> 
22 
1   -0.530571 
2   -0.529825 
3   -0.211197 
4   -0.241187 
5   -0.238585 
6   -0.255005 
7   0.185154 
8   0.178997 
9   0.385105 
10   -0.51087 
11   0.158826 
12   0.155093 
13   0.161741 
14   0.154461 
15   0.158728 
16   0.159284 
17   0.166729 
18   0.149595 
19   0.149575 
20   0.108394 
21   0.126201 
22   0.119359 
 
>  <lowdin_charges> 
22 
1   -0.441428 
2   -0.442447 
3   -0.276666 
4   -0.201926 
5   -0.200758 
6   -0.229383 
7   0.011896 
8   0.012175 
9   0.103966 
10   -0.201769 
11   0.16018 
12   0.1561 
13   0.159803 
14   0.15687 
15   0.159 
16   0.158994 
17   0.15977 
18   0.144428 
19   0.144388 
20   0.149848 
21   0.161654 
22   0.155305 
 
$$$$ 
 
