PCCDB-ID:  51071 
public computational chemistry database (PCCDB) project, http://pccdb.org 
 
 43 44  0  0  0  0  0  0  0  0999 V2000 
    4.2261   -5.9834   -2.5821 C   0  0  0  0  0  0  0  0  0  0  0  0 
    4.4204   -2.1999   -2.5614 C   0  0  0  0  0  0  0  0  0  0  0  0 
    8.9307   -0.1114   -1.0999 C   0  0  0  0  0  0  0  0  0  0  0  0 
    5.4948   -5.1414   -2.7314 C   0  0  0  0  0  0  0  0  0  0  0  0 
    4.6469   -3.2223   -1.4323 C   0  0  0  0  0  0  0  0  0  0  0  0 
   12.1269   -4.8706    1.1973 C   0  0  0  0  0  0  0  0  0  0  0  0 
   10.9333   -5.6635    0.6505 C   0  0  0  0  0  0  0  0  0  0  0  0 
   12.4143   -3.6693    0.2825 C   0  0  0  0  0  0  0  0  0  0  0  0 
    7.4830   -2.9328   -0.3576 C   0  0  0  0  0  0  0  0  0  0  0  0 
    9.6655   -4.8046    0.6361 C   0  0  0  0  0  0  0  0  0  0  0  0 
    7.0657   -3.6375   -1.6662 C   0  0  0  0  0  0  0  0  0  0  0  0 
   10.9735   -1.5945   -0.4358 C   0  0  0  0  0  0  0  0  0  0  0  0 
    9.5760   -1.3838   -0.6276 C   0  0  0  0  0  0  0  0  0  0  0  0 
   11.1630   -2.8958   -0.0243 C   0  0  0  0  0  0  0  0  0  0  0  0 
    8.9397   -2.5761   -0.3216 C   0  0  0  0  0  0  0  0  0  0  0  0 
    5.7177   -4.2087   -1.6218 N   0  0  0  0  0  0  0  0  0  0  0  0 
    9.9189   -3.5007    0.0278 N   0  0  0  0  0  0  0  0  0  0  0  0 
    4.2095   -6.7711   -3.3438 H   0  0  0  0  0  0  0  0  0  0  0  0 
    3.3123   -5.3928   -2.7068 H   0  0  0  0  0  0  0  0  0  0  0  0 
    4.1958   -6.4574   -1.5949 H   0  0  0  0  0  0  0  0  0  0  0  0 
    3.6016   -1.5220   -2.2925 H   0  0  0  0  0  0  0  0  0  0  0  0 
    4.1495   -2.6856   -3.5055 H   0  0  0  0  0  0  0  0  0  0  0  0 
    5.3089   -1.5858   -2.7457 H   0  0  0  0  0  0  0  0  0  0  0  0 
    9.4565    0.7661   -0.7048 H   0  0  0  0  0  0  0  0  0  0  0  0 
    7.8857   -0.0384   -0.7765 H   0  0  0  0  0  0  0  0  0  0  0  0 
    8.9358   -0.0206   -2.1951 H   0  0  0  0  0  0  0  0  0  0  0  0 
    5.4867   -4.6374   -3.7176 H   0  0  0  0  0  0  0  0  0  0  0  0 
    6.3583   -5.8178   -2.7476 H   0  0  0  0  0  0  0  0  0  0  0  0 
    3.7160   -3.7720   -1.2556 H   0  0  0  0  0  0  0  0  0  0  0  0 
    4.8519   -2.6876   -0.4987 H   0  0  0  0  0  0  0  0  0  0  0  0 
   13.0133   -5.5117    1.2688 H   0  0  0  0  0  0  0  0  0  0  0  0 
   11.8990   -4.5216    2.2140 H   0  0  0  0  0  0  0  0  0  0  0  0 
   10.7423   -6.5585    1.2542 H   0  0  0  0  0  0  0  0  0  0  0  0 
   11.1583   -6.0035   -0.3695 H   0  0  0  0  0  0  0  0  0  0  0  0 
   12.8664   -4.0437   -0.6500 H   0  0  0  0  0  0  0  0  0  0  0  0 
   13.1580   -3.0025    0.7344 H   0  0  0  0  0  0  0  0  0  0  0  0 
    7.2096   -3.5828    0.4843 H   0  0  0  0  0  0  0  0  0  0  0  0 
    6.9075   -2.0098   -0.2281 H   0  0  0  0  0  0  0  0  0  0  0  0 
    9.3065   -4.6635    1.6669 H   0  0  0  0  0  0  0  0  0  0  0  0 
    8.8677   -5.3106    0.0832 H   0  0  0  0  0  0  0  0  0  0  0  0 
    7.7557   -4.4723   -1.8418 H   0  0  0  0  0  0  0  0  0  0  0  0 
    7.2210   -2.9396   -2.5104 H   0  0  0  0  0  0  0  0  0  0  0  0 
   11.7583   -0.8652   -0.5974 H   0  0  0  0  0  0  0  0  0  0  0  0 
  1 20  1  0  0  0  0 
  2 21  1  0  0  0  0 
  2  5  1  0  0  0  0 
  3 25  1  0  0  0  0 
  3 24  1  0  0  0  0 
  3 13  1  0  0  0  0 
  4  1  1  0  0  0  0 
  4 16  1  0  0  0  0 
  5 29  1  0  0  0  0 
  5 30  1  0  0  0  0 
  6 31  1  0  0  0  0 
  6 32  1  0  0  0  0 
  7  6  1  0  0  0  0 
  7 33  1  0  0  0  0 
  8 36  1  0  0  0  0 
  8  6  1  0  0  0  0 
  9 15  1  0  0  0  0 
  9 38  1  0  0  0  0 
  9 37  1  0  0  0  0 
 10  7  1  0  0  0  0 
 10 39  1  0  0  0  0 
 11 16  1  0  0  0  0 
 11  9  1  0  0  0  0 
 12 14  2  0  0  0  0 
 13 12  1  0  0  0  0 
 13 15  2  0  0  0  0 
 14 17  1  0  0  0  0 
 14  8  1  0  0  0  0 
 15 17  1  0  0  0  0 
 16  5  1  0  0  0  0 
 17 10  1  0  0  0  0 
 18  1  1  0  0  0  0 
 19  1  1  0  0  0  0 
 22  2  1  0  0  0  0 
 23  2  1  0  0  0  0 
 26  3  1  0  0  0  0 
 27  4  1  0  0  0  0 
 28  4  1  0  0  0  0 
 34  7  1  0  0  0  0 
 35  8  1  0  0  0  0 
 40 10  1  0  0  0  0 
 41 11  1  0  0  0  0 
 42 11  1  0  0  0  0 
 43 12  1  0  0  0  0 
M  END 
>  <HBA> 
2 
 
>  <HBD> 
0 
 
>  <TPSA> 
8.17 
 
>  <cid> 
51071 
 
>  <dipole> 
1.56 
 
>  <excitation_energy_1> 
4.369 
 
>  <excitation_energy_2> 
4.639 
 
>  <excitation_energy_3> 
4.818 
 
>  <excitation_energy_4> 
4.862 
 
>  <homo_energy> 
-4.841 
 
>  <homo_lumo_gap> 
6.104 
 
>  <logP> 
3.017 
 
>  <lumo_energy> 
1.263 
 
>  <melting_point> 
40.56 
 
>  <molecular_refractivity> 
75.02 
 
>  <oscillator_strength_1> 
0.0071 
 
>  <oscillator_strength_2> 
0.0197 
 
>  <oscillator_strength_3> 
0.0122 
 
>  <oscillator_strength_4> 
0.0011 
 
>  <open_babel_can_smiles> 
CCN(CCc1c(C)cc2n1CCCC2)CC 
 
>  <mulliken_charges> 
43 
1   -0.457461 
2   -0.461233 
3   -0.535413 
4   -0.10306 
5   -0.138569 
6   -0.270463 
7   -0.284149 
8   -0.329908 
9   -0.36596 
10   -0.130423 
11   -0.106164 
12   -0.280087 
13   0.079217 
14   0.328989 
15   0.263485 
16   -0.388835 
17   -0.511164 
18   0.142472 
19   0.147856 
20   0.154028 
21   0.141749 
22   0.148236 
23   0.150978 
24   0.149896 
25   0.144697 
26   0.151817 
27   0.112766 
28   0.132345 
29   0.141566 
30   0.143649 
31   0.136611 
32   0.140211 
33   0.141993 
34   0.145649 
35   0.146736 
36   0.14968 
37   0.146715 
38   0.1517 
39   0.151221 
40   0.160004 
41   0.134426 
42   0.120018 
43   0.104177 
 
>  <lowdin_charges> 
43 
1   -0.452394 
2   -0.467815 
3   -0.436896 
4   -0.19599 
5   -0.207832 
6   -0.275915 
7   -0.280048 
8   -0.275727 
9   -0.285144 
10   -0.192134 
11   -0.202716 
12   -0.243811 
13   -0.057709 
14   -0.006377 
15   -0.023527 
16   -0.194904 
17   -0.026551 
18   0.153473 
19   0.148307 
20   0.153377 
21   0.153281 
22   0.149149 
23   0.150699 
24   0.154911 
25   0.148731 
26   0.150154 
27   0.115862 
28   0.142052 
29   0.145433 
30   0.145102 
31   0.14737 
32   0.142739 
33   0.152037 
34   0.14573 
35   0.147912 
36   0.157705 
37   0.151669 
38   0.154868 
39   0.142374 
40   0.156275 
41   0.142016 
42   0.122166 
43   0.152099 
 
$$$$ 
 
