PCCDB-ID:  8358 
public computational chemistry database (PCCDB) project, http://pccdb.org 
 
 21 22  0  0  0  0  0  0  0  0999 V2000 
    2.4165    0.7394   -0.0647 C   0  0  0  0  0  0  0  0  0  0  0  0 
    1.2222    1.4177   -0.0072 C   0  0  0  0  0  0  0  0  0  0  0  0 
    2.4420   -0.6729   -0.0867 C   0  0  0  0  0  0  0  0  0  0  0  0 
   -1.2573    1.3571    0.0555 C   0  0  0  0  0  0  0  0  0  0  0  0 
   -2.4418    0.6576    0.0422 C   0  0  0  0  0  0  0  0  0  0  0  0 
   -1.2252   -1.4362   -0.0901 C   0  0  0  0  0  0  0  0  0  0  0  0 
   -0.0022    0.6967    0.0023 C   0  0  0  0  0  0  0  0  0  0  0  0 
   -2.4251   -0.7558   -0.0403 C   0  0  0  0  0  0  0  0  0  0  0  0 
    0.0065   -0.7359   -0.0532 C   0  0  0  0  0  0  0  0  0  0  0  0 
    1.2730   -1.4154   -0.0735 C   0  0  0  0  0  0  0  0  0  0  0  0 
    1.3016   -2.8166   -0.1368 N   0  0  0  0  0  0  0  0  0  0  0  0 
   -3.5835   -1.4867   -0.0811 O   0  0  0  0  0  0  0  0  0  0  0  0 
    3.3568    1.2841   -0.0761 H   0  0  0  0  0  0  0  0  0  0  0  0 
    1.1962    2.5037    0.0270 H   0  0  0  0  0  0  0  0  0  0  0  0 
    3.3988   -1.1911   -0.1040 H   0  0  0  0  0  0  0  0  0  0  0  0 
   -1.2724    2.4432    0.1056 H   0  0  0  0  0  0  0  0  0  0  0  0 
   -3.3938    1.1844    0.0853 H   0  0  0  0  0  0  0  0  0  0  0  0 
   -1.2547   -2.5150   -0.1964 H   0  0  0  0  0  0  0  0  0  0  0  0 
    2.2202   -3.2052    0.0442 H   0  0  0  0  0  0  0  0  0  0  0  0 
    0.6093   -3.2741    0.4456 H   0  0  0  0  0  0  0  0  0  0  0  0 
   -4.3385   -0.8789   -0.0649 H   0  0  0  0  0  0  0  0  0  0  0  0 
  1  2  2  0  0  0  0 
  2  7  1  0  0  0  0 
  2 14  1  0  0  0  0 
  3 10  2  0  0  0  0 
  3  1  1  0  0  0  0 
  4 16  1  0  0  0  0 
  5  4  1  0  0  0  0 
  5 17  1  0  0  0  0 
  6  9  2  0  0  0  0 
  6  8  1  0  0  0  0 
  7  4  2  0  0  0  0 
  8  5  2  0  0  0  0 
  9  7  1  0  0  0  0 
 10  9  1  0  0  0  0 
 11 10  1  0  0  0  0 
 11 19  1  0  0  0  0 
 11 20  1  0  0  0  0 
 12 21  1  0  0  0  0 
 12  8  1  0  0  0  0 
 13  1  1  0  0  0  0 
 15  3  1  0  0  0  0 
 18  6  1  0  0  0  0 
M  END 
>  <HBA> 
2 
 
>  <HBD> 
2 
 
>  <TPSA> 
46.25 
 
>  <cid> 
8358 
 
>  <dipole> 
1.3 
 
>  <excitation_energy_1> 
3.703 
 
>  <excitation_energy_2> 
4.197 
 
>  <excitation_energy_3> 
4.459 
 
>  <excitation_energy_4> 
4.591 
 
>  <homo_energy> 
-4.961 
 
>  <homo_lumo_gap> 
4.25 
 
>  <logP> 
2.709 
 
>  <lumo_energy> 
-0.71 
 
>  <melting_point> 
138.78 
 
>  <molecular_refractivity> 
50.38 
 
>  <oscillator_strength_1> 
0.0751 
 
>  <oscillator_strength_2> 
0.0163 
 
>  <oscillator_strength_3> 
0.0017 
 
>  <oscillator_strength_4> 
0.0027 
 
>  <open_babel_can_smiles> 
Oc1ccc2c(c1)c(N)ccc2 
 
>  <mulliken_charges> 
21 
1   -0.143842 
2   -0.196625 
3   -0.185733 
4   -0.203578 
5   -0.193491 
6   -0.255065 
7   0.127541 
8   0.35805 
9   0.112234 
10   0.22819 
11   -0.784327 
12   -0.648207 
13   0.123131 
14   0.118966 
15   0.111216 
16   0.132138 
17   0.11866 
18   0.135637 
19   0.31749 
20   0.320977 
21   0.406638 
 
>  <lowdin_charges> 
21 
1   -0.156977 
2   -0.181217 
3   -0.20886 
4   -0.141681 
5   -0.206687 
6   -0.200823 
7   -0.006652 
8   0.099029 
9   -0.014482 
10   0.053212 
11   -0.4917 
12   -0.382392 
13   0.156273 
14   0.151937 
15   0.150702 
16   0.157094 
17   0.153502 
18   0.163847 
19   0.272496 
20   0.275837 
21   0.357541 
 
$$$$ 
 
