PCCDB-ID:  70249 
public computational chemistry database (PCCDB) project, http://pccdb.org 
 
 31 30  0  0  0  0  0  0  0  0999 V2000 
    2.1928   -0.5291    1.3131 C   0  0  0  0  0  0  0  0  0  0  0  0 
    4.6316    2.7141   -7.9617 C   0  0  0  0  0  0  0  0  0  0  0  0 
    1.4477    0.1544    0.1601 C   0  0  0  0  0  0  0  0  0  0  0  0 
    5.7777    2.0659   -7.7283 C   0  0  0  0  0  0  0  0  0  0  0  0 
    2.1218    0.0031   -1.2136 C   0  0  0  0  0  0  0  0  0  0  0  0 
    3.4779    0.7114   -1.3443 C   0  0  0  0  0  0  0  0  0  0  0  0 
    4.0950    0.5857   -2.7436 C   0  0  0  0  0  0  0  0  0  0  0  0 
    5.4489    1.3015   -2.8703 C   0  0  0  0  0  0  0  0  0  0  0  0 
    6.1609    1.1107   -4.2189 C   0  0  0  0  0  0  0  0  0  0  0  0 
    5.4359    1.7526   -5.3953 C   0  0  0  0  0  0  0  0  0  0  0  0 
    6.2504    1.5759   -6.5549 O   0  0  0  0  0  0  0  0  0  0  0  0 
    1.6369   -0.4324    2.2527 H   0  0  0  0  0  0  0  0  0  0  0  0 
    3.1860   -0.0952    1.4740 H   0  0  0  0  0  0  0  0  0  0  0  0 
    2.3269   -1.6002    1.1154 H   0  0  0  0  0  0  0  0  0  0  0  0 
    4.4094    3.0388   -8.9716 H   0  0  0  0  0  0  0  0  0  0  0  0 
    3.9011    2.9410   -7.1942 H   0  0  0  0  0  0  0  0  0  0  0  0 
    1.3257    1.2235    0.3862 H   0  0  0  0  0  0  0  0  0  0  0  0 
    0.4324   -0.2602    0.0990 H   0  0  0  0  0  0  0  0  0  0  0  0 
    6.4902    1.8572   -8.5225 H   0  0  0  0  0  0  0  0  0  0  0  0 
    1.4436    0.3960   -1.9846 H   0  0  0  0  0  0  0  0  0  0  0  0 
    2.2483   -1.0669   -1.4375 H   0  0  0  0  0  0  0  0  0  0  0  0 
    4.1852    0.3074   -0.6070 H   0  0  0  0  0  0  0  0  0  0  0  0 
    3.3545    1.7766   -1.0964 H   0  0  0  0  0  0  0  0  0  0  0  0 
    3.3856    0.9822   -3.4838 H   0  0  0  0  0  0  0  0  0  0  0  0 
    4.2257   -0.4791   -2.9880 H   0  0  0  0  0  0  0  0  0  0  0  0 
    6.1153    0.9351   -2.0775 H   0  0  0  0  0  0  0  0  0  0  0  0 
    5.3132    2.3758   -2.6761 H   0  0  0  0  0  0  0  0  0  0  0  0 
    6.2912    0.0405   -4.4266 H   0  0  0  0  0  0  0  0  0  0  0  0 
    7.1672    1.5445   -4.1668 H   0  0  0  0  0  0  0  0  0  0  0  0 
    5.2769    2.8275   -5.2197 H   0  0  0  0  0  0  0  0  0  0  0  0 
    4.4535    1.2933   -5.5705 H   0  0  0  0  0  0  0  0  0  0  0  0 
  1 13  1  0  0  0  0 
  1 12  1  0  0  0  0 
  2  4  2  0  0  0  0 
  2 16  1  0  0  0  0 
  3 17  1  0  0  0  0 
  3  1  1  0  0  0  0 
  4 11  1  0  0  0  0 
  5  3  1  0  0  0  0 
  6  5  1  0  0  0  0 
  6 23  1  0  0  0  0 
  6 22  1  0  0  0  0 
  7  6  1  0  0  0  0 
  8  7  1  0  0  0  0 
  8 27  1  0  0  0  0 
  8 26  1  0  0  0  0 
  9 29  1  0  0  0  0 
  9  8  1  0  0  0  0 
 10 30  1  0  0  0  0 
 10  9  1  0  0  0  0 
 11 10  1  0  0  0  0 
 14  1  1  0  0  0  0 
 15  2  1  0  0  0  0 
 18  3  1  0  0  0  0 
 19  4  1  0  0  0  0 
 20  5  1  0  0  0  0 
 21  5  1  0  0  0  0 
 24  7  1  0  0  0  0 
 25  7  1  0  0  0  0 
 28  9  1  0  0  0  0 
 31 10  1  0  0  0  0 
M  END 
>  <HBA> 
1 
 
>  <HBD> 
0 
 
>  <TPSA> 
9.23 
 
>  <cid> 
70249 
 
>  <dipole> 
1.15 
 
>  <excitation_energy_1> 
5.799 
 
>  <excitation_energy_2> 
6.046 
 
>  <excitation_energy_3> 
6.12 
 
>  <excitation_energy_4> 
6.328 
 
>  <homo_energy> 
-6.038 
 
>  <homo_lumo_gap> 
7.325 
 
>  <logP> 
3.507 
 
>  <lumo_energy> 
1.287 
 
>  <melting_point> 
-58.77 
 
>  <molecular_refractivity> 
50.8 
 
>  <oscillator_strength_1> 
0.0421 
 
>  <oscillator_strength_2> 
0.0015 
 
>  <oscillator_strength_3> 
0.0046 
 
>  <oscillator_strength_4> 
0.0023 
 
>  <open_babel_can_smiles> 
CCCCCCCCOC=C 
 
>  <mulliken_charges> 
31 
1   -0.443285 
2   -0.402052 
3   -0.248317 
4   0.157963 
5   -0.249908 
6   -0.253588 
7   -0.256644 
8   -0.267069 
9   -0.275872 
10   -0.029006 
11   -0.452783 
12   0.142387 
13   0.145822 
14   0.140656 
15   0.139394 
16   0.139285 
17   0.129325 
18   0.130979 
19   0.139595 
20   0.126948 
21   0.126705 
22   0.132985 
23   0.126791 
24   0.130766 
25   0.130831 
26   0.136106 
27   0.130527 
28   0.145199 
29   0.147652 
30   0.136101 
31   0.142506 
 
>  <lowdin_charges> 
31 
1   -0.445014 
2   -0.433387 
3   -0.270291 
4   -0.035931 
5   -0.275124 
6   -0.275775 
7   -0.276852 
8   -0.274704 
9   -0.278864 
10   -0.125965 
11   -0.198501 
12   0.149848 
13   0.146385 
14   0.144207 
15   0.16672 
16   0.161353 
17   0.136843 
18   0.140959 
19   0.158177 
20   0.140744 
21   0.135761 
22   0.140735 
23   0.135837 
24   0.138524 
25   0.13781 
26   0.146226 
27   0.137464 
28   0.146816 
29   0.151517 
30   0.135336 
31   0.139147 
 
$$$$ 
 
