PCCDB-ID:  11475 
public computational chemistry database (PCCDB) project, http://pccdb.org 
 
 20 20  0  0  0  0  0  0  0  0999 V2000 
    1.0608   -0.3839    0.0072 C   0  0  0  0  0  0  0  0  0  0  0  0 
    2.5522   -0.0079    0.0714 C   0  0  0  0  0  0  0  0  0  0  0  0 
    3.1264    3.4782   -1.3677 C   0  0  0  0  0  0  0  0  0  0  0  0 
    2.8262    2.4543   -0.4688 C   0  0  0  0  0  0  0  0  0  0  0  0 
    3.5200    3.1917   -2.6723 C   0  0  0  0  0  0  0  0  0  0  0  0 
    3.3156    0.8335   -2.1861 C   0  0  0  0  0  0  0  0  0  0  0  0 
    2.9176    1.1165   -0.8764 C   0  0  0  0  0  0  0  0  0  0  0  0 
    3.6203    1.8569   -3.0980 C   0  0  0  0  0  0  0  0  0  0  0  0 
    4.0776    1.5502   -4.3858 N   0  0  0  0  0  0  0  0  0  0  0  0 
    0.8304   -1.1969    0.7058 H   0  0  0  0  0  0  0  0  0  0  0  0 
    0.7826   -0.7119   -1.0007 H   0  0  0  0  0  0  0  0  0  0  0  0 
    0.4294    0.4743    0.2629 H   0  0  0  0  0  0  0  0  0  0  0  0 
    3.1573   -0.8943   -0.1580 H   0  0  0  0  0  0  0  0  0  0  0  0 
    2.8048    0.2847    1.0984 H   0  0  0  0  0  0  0  0  0  0  0  0 
    3.0564    4.5154   -1.0488 H   0  0  0  0  0  0  0  0  0  0  0  0 
    2.5236    2.6906    0.5484 H   0  0  0  0  0  0  0  0  0  0  0  0 
    3.7602    3.9967   -3.3635 H   0  0  0  0  0  0  0  0  0  0  0  0 
    3.3982   -0.2039   -2.5082 H   0  0  0  0  0  0  0  0  0  0  0  0 
    3.9199    2.2776   -5.0727 H   0  0  0  0  0  0  0  0  0  0  0  0 
    3.7783    0.6481   -4.7358 H   0  0  0  0  0  0  0  0  0  0  0  0 
  1  2  1  0  0  0  0 
  1 12  1  0  0  0  0 
  1 10  1  0  0  0  0 
  2 14  1  0  0  0  0 
  3 15  1  0  0  0  0 
  3  4  2  0  0  0  0 
  4 16  1  0  0  0  0 
  5  3  1  0  0  0  0 
  6  7  2  0  0  0  0 
  7  4  1  0  0  0  0 
  7  2  1  0  0  0  0 
  8  5  2  0  0  0  0 
  8  6  1  0  0  0  0 
  9  8  1  0  0  0  0 
 11  1  1  0  0  0  0 
 13  2  1  0  0  0  0 
 17  5  1  0  0  0  0 
 18  6  1  0  0  0  0 
 19  9  1  0  0  0  0 
 20  9  1  0  0  0  0 
M  END 
>  <HBA> 
1 
 
>  <HBD> 
1 
 
>  <TPSA> 
26.02 
 
>  <cid> 
11475 
 
>  <dipole> 
1.63 
 
>  <excitation_energy_1> 
4.669 
 
>  <excitation_energy_2> 
4.715 
 
>  <excitation_energy_3> 
5.298 
 
>  <excitation_energy_4> 
5.41 
 
>  <homo_energy> 
-5.325 
 
>  <homo_lumo_gap> 
5.611 
 
>  <logP> 
2.412 
 
>  <lumo_energy> 
0.286 
 
>  <melting_point> 
56.65 
 
>  <molecular_refractivity> 
40.62 
 
>  <oscillator_strength_1> 
0.033 
 
>  <oscillator_strength_2> 
0.0111 
 
>  <oscillator_strength_3> 
0.0047 
 
>  <oscillator_strength_4> 
0.0412 
 
>  <open_babel_can_smiles> 
CCc1cccc(c1)N 
 
>  <mulliken_charges> 
20 
1   -0.431848 
2   -0.340068 
3   -0.133103 
4   -0.192745 
5   -0.176563 
6   -0.231964 
7   0.175146 
8   0.312857 
9   -0.787837 
10   0.140764 
11   0.145664 
12   0.1494 
13   0.140014 
14   0.141889 
15   0.122746 
16   0.112578 
17   0.112335 
18   0.106255 
19   0.317341 
20   0.317141 
 
>  <lowdin_charges> 
20 
1   -0.441043 
2   -0.269651 
3   -0.143842 
4   -0.197976 
5   -0.208485 
6   -0.212389 
7   0.010358 
8   0.063186 
9   -0.493512 
10   0.148466 
11   0.148175 
12   0.151287 
13   0.147529 
14   0.147472 
15   0.153727 
16   0.150163 
17   0.151766 
18   0.146608 
19   0.274635 
20   0.273526 
 
$$$$ 
 
