PCCDB-ID:  66581 
public computational chemistry database (PCCDB) project, http://pccdb.org 
 
 22 22  0  0  0  0  0  0  0  0999 V2000 
    0.4401   -0.7653   -0.1841 C   0  0  0  0  0  0  0  0  0  0  0  0 
    4.3609    0.8912    0.3580 C   0  0  0  0  0  0  0  0  0  0  0  0 
    3.1714   -3.9780    0.2020 C   0  0  0  0  0  0  0  0  0  0  0  0 
    4.5218   -3.7332    0.0218 C   0  0  0  0  0  0  0  0  0  0  0  0 
    2.2435   -2.9303    0.1125 C   0  0  0  0  0  0  0  0  0  0  0  0 
    6.4213   -2.1809   -0.4211 C   0  0  0  0  0  0  0  0  0  0  0  0 
    4.9695   -2.4261   -0.2403 C   0  0  0  0  0  0  0  0  0  0  0  0 
    2.6687   -1.6286   -0.1585 C   0  0  0  0  0  0  0  0  0  0  0  0 
    4.0498   -1.3701   -0.3293 C   0  0  0  0  0  0  0  0  0  0  0  0 
    7.2667   -3.0552   -0.3395 O   0  0  0  0  0  0  0  0  0  0  0  0 
    1.8398   -0.5518   -0.2921 O   0  0  0  0  0  0  0  0  0  0  0  0 
    4.4968   -0.1153   -0.6530 O   0  0  0  0  0  0  0  0  0  0  0  0 
   -0.0227    0.2096   -0.3458 H   0  0  0  0  0  0  0  0  0  0  0  0 
    0.1638   -1.1387    0.8108 H   0  0  0  0  0  0  0  0  0  0  0  0 
    0.0822   -1.4687   -0.9468 H   0  0  0  0  0  0  0  0  0  0  0  0 
    4.8013    1.7970   -0.0638 H   0  0  0  0  0  0  0  0  0  0  0  0 
    4.9115    0.6059    1.2637 H   0  0  0  0  0  0  0  0  0  0  0  0 
    3.3107    1.0697    0.6032 H   0  0  0  0  0  0  0  0  0  0  0  0 
    2.8164   -4.9838    0.4077 H   0  0  0  0  0  0  0  0  0  0  0  0 
    5.2625   -4.5240    0.0796 H   0  0  0  0  0  0  0  0  0  0  0  0 
    1.1885   -3.1423    0.2449 H   0  0  0  0  0  0  0  0  0  0  0  0 
    6.7040   -1.1351   -0.6399 H   0  0  0  0  0  0  0  0  0  0  0  0 
  1 14  1  0  0  0  0 
  2 18  1  0  0  0  0 
  2 17  1  0  0  0  0 
  3 19  1  0  0  0  0 
  4 20  1  0  0  0  0 
  4  3  2  0  0  0  0 
  5  3  1  0  0  0  0 
  5 21  1  0  0  0  0 
  6 10  2  0  0  0  0 
  6  7  1  0  0  0  0 
  7  4  1  0  0  0  0 
  8  5  2  0  0  0  0 
  9  7  2  0  0  0  0 
  9  8  1  0  0  0  0 
 11  1  1  0  0  0  0 
 11  8  1  0  0  0  0 
 12  9  1  0  0  0  0 
 12  2  1  0  0  0  0 
 13  1  1  0  0  0  0 
 15  1  1  0  0  0  0 
 16  2  1  0  0  0  0 
 22  6  1  0  0  0  0 
M  END 
>  <HBA> 
3 
 
>  <HBD> 
0 
 
>  <TPSA> 
35.53 
 
>  <cid> 
66581 
 
>  <dipole> 
5.29 
 
>  <excitation_energy_1> 
3.559 
 
>  <excitation_energy_2> 
3.95 
 
>  <excitation_energy_3> 
4.865 
 
>  <excitation_energy_4> 
5.312 
 
>  <homo_energy> 
-6.147 
 
>  <homo_lumo_gap> 
4.656 
 
>  <logP> 
1.516 
 
>  <lumo_energy> 
-1.491 
 
>  <melting_point> 
49.3 
 
>  <molecular_refractivity> 
44.81 
 
>  <oscillator_strength_1> 
0.0005 
 
>  <oscillator_strength_2> 
0.0546 
 
>  <oscillator_strength_3> 
0.1286 
 
>  <oscillator_strength_4> 
0.0098 
 
>  <open_babel_can_smiles> 
COc1cccc(c1OC)C=O 
 
>  <mulliken_charges> 
22 
1   -0.218752 
2   -0.216789 
3   -0.132105 
4   -0.179455 
5   -0.200528 
6   0.201105 
7   0.048191 
8   0.359508 
9   0.251368 
10   -0.41526 
11   -0.508907 
12   -0.520642 
13   0.174733 
14   0.154822 
15   0.158547 
16   0.165567 
17   0.145111 
18   0.169606 
19   0.137197 
20   0.160873 
21   0.140873 
22   0.124937 
 
>  <lowdin_charges> 
22 
1   -0.275869 
2   -0.275015 
3   -0.154584 
4   -0.144145 
5   -0.191443 
6   0.05064 
7   -0.071321 
8   0.074745 
9   0.083851 
10   -0.235509 
11   -0.194494 
12   -0.218487 
13   0.165507 
14   0.146046 
15   0.150229 
16   0.160493 
17   0.142195 
18   0.152814 
19   0.16161 
20   0.177052 
21   0.164766 
22   0.13092 
 
$$$$ 
 
