PCCDB-ID:  18034 
public computational chemistry database (PCCDB) project, http://pccdb.org 
 
 24 24  0  0  0  0  0  0  0  0999 V2000 
    5.7518   -0.1586   -3.0907 C   0  0  0  0  0  0  0  0  0  0  0  0 
    6.9013    0.7379   -2.6703 C   0  0  0  0  0  0  0  0  0  0  0  0 
    9.5645    3.3528    0.7446 C   0  0  0  0  0  0  0  0  0  0  0  0 
    7.3152    2.7582    0.0980 C   0  0  0  0  0  0  0  0  0  0  0  0 
    7.6759    4.7500    1.5727 C   0  0  0  0  0  0  0  0  0  0  0  0 
   11.4880    1.9954   -0.0248 C   0  0  0  0  0  0  0  0  0  0  0  0 
    8.1962    3.6051    0.7988 C   0  0  0  0  0  0  0  0  0  0  0  0 
   10.0554    2.2630    0.0154 C   0  0  0  0  0  0  0  0  0  0  0  0 
    7.7671    1.6703   -0.6363 C   0  0  0  0  0  0  0  0  0  0  0  0 
    9.1578    1.4006   -0.6766 C   0  0  0  0  0  0  0  0  0  0  0  0 
    8.3684    5.5332    2.1959 O   0  0  0  0  0  0  0  0  0  0  0  0 
   12.0021    1.0520   -0.6299 O   0  0  0  0  0  0  0  0  0  0  0  0 
    9.5908    0.3355   -1.3591 O   0  0  0  0  0  0  0  0  0  0  0  0 
    6.8555    0.8446   -1.2299 O   0  0  0  0  0  0  0  0  0  0  0  0 
    5.7422   -0.2688   -4.1806 H   0  0  0  0  0  0  0  0  0  0  0  0 
    4.7925    0.2633   -2.7746 H   0  0  0  0  0  0  0  0  0  0  0  0 
    5.8571   -1.1518   -2.6431 H   0  0  0  0  0  0  0  0  0  0  0  0 
    6.7992    1.7431   -3.1028 H   0  0  0  0  0  0  0  0  0  0  0  0 
    7.8640    0.3215   -2.9807 H   0  0  0  0  0  0  0  0  0  0  0  0 
   10.2439    4.0104    1.2808 H   0  0  0  0  0  0  0  0  0  0  0  0 
    6.2431    2.9379    0.1266 H   0  0  0  0  0  0  0  0  0  0  0  0 
    6.5690    4.8599    1.5528 H   0  0  0  0  0  0  0  0  0  0  0  0 
   12.1300    2.7021    0.5335 H   0  0  0  0  0  0  0  0  0  0  0  0 
   10.5814    0.3150   -1.2712 H   0  0  0  0  0  0  0  0  0  0  0  0 
  1 16  1  0  0  0  0 
  1  2  1  0  0  0  0 
  1 17  1  0  0  0  0 
  2 14  1  0  0  0  0 
  3  7  1  0  0  0  0 
  3 20  1  0  0  0  0 
  4 21  1  0  0  0  0 
  4  7  2  0  0  0  0 
  5 11  2  0  0  0  0 
  6  8  1  0  0  0  0 
  6 23  1  0  0  0  0 
  7  5  1  0  0  0  0 
  8  3  2  0  0  0  0 
  9  4  1  0  0  0  0 
 10  9  2  0  0  0  0 
 10  8  1  0  0  0  0 
 12  6  2  0  0  0  0 
 13 24  1  0  0  0  0 
 13 10  1  0  0  0  0 
 14  9  1  0  0  0  0 
 15  1  1  0  0  0  0 
 18  2  1  0  0  0  0 
 19  2  1  0  0  0  0 
 22  5  1  0  0  0  0 
M  END 
>  <HBA> 
4 
 
>  <HBD> 
1 
 
>  <TPSA> 
63.6 
 
>  <cid> 
18034 
 
>  <dipole> 
2.34 
 
>  <excitation_energy_1> 
3.638 
 
>  <excitation_energy_2> 
3.768 
 
>  <excitation_energy_3> 
3.9 
 
>  <excitation_energy_4> 
4.22 
 
>  <homo_energy> 
-6.536 
 
>  <homo_lumo_gap> 
4.278 
 
>  <logP> 
1.416 
 
>  <lumo_energy> 
-2.259 
 
>  <melting_point> 
118.28 
 
>  <molecular_refractivity> 
50.54 
 
>  <oscillator_strength_1> 
0.0334 
 
>  <oscillator_strength_2> 
0.0003 
 
>  <oscillator_strength_3> 
0.0023 
 
>  <oscillator_strength_4> 
0.0003 
 
>  <open_babel_can_smiles> 
CCOc1cc(C=O)cc(c1O)C=O 
 
>  <mulliken_charges> 
24 
1   -0.456314 
2   -0.037961 
3   -0.230866 
4   -0.23007 
5   0.195336 
6   0.212637 
7   0.089965 
8   0.054742 
9   0.355837 
10   0.281615 
11   -0.411324 
12   -0.463552 
13   -0.632727 
14   -0.532609 
15   0.150384 
16   0.158867 
17   0.167034 
18   0.132879 
19   0.16898 
20   0.173256 
21   0.15525 
22   0.106485 
23   0.143378 
24   0.448778 
 
>  <lowdin_charges> 
24 
1   -0.444784 
2   -0.119194 
3   -0.109213 
4   -0.134666 
5   0.049355 
6   0.057377 
7   -0.074355 
8   -0.102478 
9   0.065738 
10   0.121046 
11   -0.232068 
12   -0.261068 
13   -0.341465 
14   -0.222154 
15   0.156612 
16   0.157146 
17   0.16106 
18   0.134332 
19   0.151999 
20   0.18227 
21   0.173678 
22   0.116739 
23   0.14469 
24   0.369403 
 
$$$$ 
 
