PCCDB-ID:  25418 
public computational chemistry database (PCCDB) project, http://pccdb.org 
 
 14 13  0  0  0  0  0  0  0  0999 V2000 
    1.5110    0.7266    0.8933 C   0  0  0  0  0  0  0  0  0  0  0  0 
    1.4463   -0.3373   -2.3353 C   0  0  0  0  0  0  0  0  0  0  0  0 
    2.5086    0.0534   -0.0547 C   0  0  0  0  0  0  0  0  0  0  0  0 
    1.5823   -2.1030   -0.7599 N   0  0  0  0  0  0  0  0  0  0  0  0 
    1.8623   -0.8206   -1.0336 N   0  0  0  0  0  0  0  0  0  0  0  0 
    1.9030   -2.4758    0.3667 O   0  0  0  0  0  0  0  0  0  0  0  0 
    2.0433    1.3685    1.6040 H   0  0  0  0  0  0  0  0  0  0  0  0 
    0.9594   -0.0297    1.4581 H   0  0  0  0  0  0  0  0  0  0  0  0 
    0.7929    1.3483    0.3471 H   0  0  0  0  0  0  0  0  0  0  0  0 
    0.7161    0.4760   -2.2412 H   0  0  0  0  0  0  0  0  0  0  0  0 
    0.9860   -1.1745   -2.8637 H   0  0  0  0  0  0  0  0  0  0  0  0 
    2.3063    0.0284   -2.9097 H   0  0  0  0  0  0  0  0  0  0  0  0 
    3.2010   -0.5737    0.5131 H   0  0  0  0  0  0  0  0  0  0  0  0 
    3.0858    0.7964   -0.6153 H   0  0  0  0  0  0  0  0  0  0  0  0 
  1  8  1  0  0  0  0 
  1  7  1  0  0  0  0 
  2 10  1  0  0  0  0 
  2  5  1  0  0  0  0 
  3 13  1  0  0  0  0 
  3  1  1  0  0  0  0 
  4  6  2  0  0  0  0 
  5  4  1  0  0  0  0 
  5  3  1  0  0  0  0 
  9  1  1  0  0  0  0 
 11  2  1  0  0  0  0 
 12  2  1  0  0  0  0 
 14  3  1  0  0  0  0 
M  END 
>  <HBA> 
3 
 
>  <HBD> 
0 
 
>  <TPSA> 
32.67 
 
>  <cid> 
25418 
 
>  <dipole> 
3.97 
 
>  <excitation_energy_1> 
3.402 
 
>  <excitation_energy_2> 
5.59 
 
>  <excitation_energy_3> 
5.846 
 
>  <excitation_energy_4> 
6.227 
 
>  <homo_energy> 
-5.995 
 
>  <homo_lumo_gap> 
5.263 
 
>  <logP> 
0.62 
 
>  <lumo_energy> 
-0.732 
 
>  <melting_point> 
-2.88 
 
>  <molecular_refractivity> 
24.17 
 
>  <oscillator_strength_1> 
0.0013 
 
>  <oscillator_strength_2> 
0.0085 
 
>  <oscillator_strength_3> 
0.156 
 
>  <oscillator_strength_4> 
0.0047 
 
>  <open_babel_can_smiles> 
CN(N=O)CC 
 
>  <mulliken_charges> 
14 
1   -0.445595 
2   -0.310788 
3   -0.149054 
4   0.145253 
5   -0.197632 
6   -0.384086 
7   0.153967 
8   0.180968 
9   0.147394 
10   0.165578 
11   0.191819 
12   0.164257 
13   0.187662 
14   0.150258 
 
>  <lowdin_charges> 
14 
1   -0.452162 
2   -0.357235 
3   -0.216667 
4   0.049462 
5   -0.042463 
6   -0.278342 
7   0.159642 
8   0.168762 
9   0.15129 
10   0.155658 
11   0.178123 
12   0.156269 
13   0.173495 
14   0.154169 
 
$$$$ 
 
