PCCDB-ID:  14352 
public computational chemistry database (PCCDB) project, http://pccdb.org 
 
 26 27  0  0  0  0  0  0  0  0999 V2000 
   -0.3338   -0.2537    1.1413 C   0  0  0  0  0  0  0  0  0  0  0  0 
   -0.2677   -1.2454    0.1602 C   0  0  0  0  0  0  0  0  0  0  0  0 
    0.2938    0.9738    0.9423 C   0  0  0  0  0  0  0  0  0  0  0  0 
    0.4491   -1.0004   -1.0061 C   0  0  0  0  0  0  0  0  0  0  0  0 
    1.4375    3.3348   -1.5894 C   0  0  0  0  0  0  0  0  0  0  0  0 
    2.3107    3.2373    0.6458 C   0  0  0  0  0  0  0  0  0  0  0  0 
    1.9289    4.6250   -1.7307 C   0  0  0  0  0  0  0  0  0  0  0  0 
    2.8143    4.5261    0.5118 C   0  0  0  0  0  0  0  0  0  0  0  0 
    1.6177    2.6092   -0.4006 C   0  0  0  0  0  0  0  0  0  0  0  0 
    2.6326    5.2445   -0.6819 C   0  0  0  0  0  0  0  0  0  0  0  0 
    1.0362    1.2567   -0.2189 C   0  0  0  0  0  0  0  0  0  0  0  0 
    1.1066    0.2191   -1.1690 C   0  0  0  0  0  0  0  0  0  0  0  0 
    3.1820    6.5143   -0.8427 N   0  0  0  0  0  0  0  0  0  0  0  0 
    1.9414    0.3352   -2.3798 N   0  0  0  0  0  0  0  0  0  0  0  0 
    3.0419    0.8688   -2.2737 O   0  0  0  0  0  0  0  0  0  0  0  0 
    1.4919   -0.1523   -3.4195 O   0  0  0  0  0  0  0  0  0  0  0  0 
   -0.8948   -0.4273    2.0554 H   0  0  0  0  0  0  0  0  0  0  0  0 
   -0.7666   -2.1994    0.3003 H   0  0  0  0  0  0  0  0  0  0  0  0 
    0.1884    1.7586    1.6853 H   0  0  0  0  0  0  0  0  0  0  0  0 
    0.5282   -1.7449   -1.7898 H   0  0  0  0  0  0  0  0  0  0  0  0 
    0.8847    2.8917   -2.4134 H   0  0  0  0  0  0  0  0  0  0  0  0 
    2.4801    2.6989    1.5745 H   0  0  0  0  0  0  0  0  0  0  0  0 
    1.7713    5.1627   -2.6628 H   0  0  0  0  0  0  0  0  0  0  0  0 
    3.3654    4.9796    1.3326 H   0  0  0  0  0  0  0  0  0  0  0  0 
    2.7541    7.0883   -1.5579 H   0  0  0  0  0  0  0  0  0  0  0  0 
    3.3473    7.0313    0.0113 H   0  0  0  0  0  0  0  0  0  0  0  0 
  1 17  1  0  0  0  0 
  2 18  1  0  0  0  0 
  2  1  2  0  0  0  0 
  3  1  1  0  0  0  0 
  3 19  1  0  0  0  0 
  4  2  1  0  0  0  0 
  5  9  1  0  0  0  0 
  6 22  1  0  0  0  0 
  7  5  2  0  0  0  0 
  7 10  1  0  0  0  0 
  8  6  1  0  0  0  0 
  8 24  1  0  0  0  0 
  9 11  1  0  0  0  0 
  9  6  2  0  0  0  0 
 10  8  2  0  0  0  0 
 11  3  2  0  0  0  0 
 12  4  2  0  0  0  0 
 12 11  1  0  0  0  0 
 13 10  1  0  0  0  0 
 13 26  1  0  0  0  0 
 14 15  2  0  0  0  0 
 14 12  1  0  0  0  0 
 16 14  2  0  0  0  0 
 20  4  1  0  0  0  0 
 21  5  1  0  0  0  0 
 23  7  1  0  0  0  0 
 25 13  1  0  0  0  0 
M  END 
>  <HBA> 
1 
 
>  <HBD> 
1 
 
>  <TPSA> 
71.84 
 
>  <cid> 
14352 
 
>  <dipole> 
5.02 
 
>  <excitation_energy_1> 
2.685 
 
>  <excitation_energy_2> 
3.701 
 
>  <excitation_energy_3> 
3.951 
 
>  <excitation_energy_4> 
4.176 
 
>  <homo_energy> 
-5.494 
 
>  <homo_lumo_gap> 
3.489 
 
>  <logP> 
3.948 
 
>  <lumo_energy> 
-2.005 
 
>  <melting_point> 
130.54 
 
>  <molecular_refractivity> 
65.1 
 
>  <oscillator_strength_1> 
0.0346 
 
>  <oscillator_strength_2> 
0.0173 
 
>  <oscillator_strength_3> 
0.0004 
 
>  <oscillator_strength_4> 
0.1238 
 
>  <open_babel_can_smiles> 
Nc1ccc(cc1)c1ccccc1N(=O)=O 
 
>  <mulliken_charges> 
26 
1   -0.112992 
2   -0.1428 
3   -0.190147 
4   -0.136901 
5   -0.163536 
6   -0.175468 
7   -0.177424 
8   -0.179169 
9   0.09529 
10   0.32485 
11   0.090873 
12   0.205245 
13   -0.789319 
14   0.335699 
15   -0.369606 
16   -0.386027 
17   0.142529 
18   0.144846 
19   0.145836 
20   0.174022 
21   0.139264 
22   0.132659 
23   0.124198 
24   0.120969 
25   0.323971 
26   0.323137 
 
>  <lowdin_charges> 
26 
1   -0.138258 
2   -0.155074 
3   -0.156772 
4   -0.140002 
5   -0.139331 
6   -0.145027 
7   -0.195582 
8   -0.20031 
9   -0.030887 
10   0.069852 
11   0.017701 
12   0.003104 
13   -0.484017 
14   0.301054 
15   -0.227165 
16   -0.253509 
17   0.164773 
18   0.165933 
19   0.167838 
20   0.182835 
21   0.162421 
22   0.160113 
23   0.156668 
24   0.155875 
25   0.279598 
26   0.278168 
 
$$$$ 
 
