PCCDB-ID:  46216 
public computational chemistry database (PCCDB) project, http://pccdb.org 
 
 33 33  0  0  1  0  0  0  0  0999 V2000 
    5.3618    1.2732   -4.0065 C   0  0  0  0  0  0  0  0  0  0  0  0 
    6.3576   -4.0286   -3.6185 C   0  0  0  0  0  0  0  0  0  0  0  0 
    5.4977    0.1097   -4.9969 C   0  0  0  0  0  0  0  0  0  0  0  0 
    8.0965   -6.3330    0.6683 C   0  0  0  0  0  0  0  0  0  0  0  0 
    8.9121   -6.1996   -0.4563 C   0  0  0  0  0  0  0  0  0  0  0  0 
    7.1841   -5.3230    0.9809 C   0  0  0  0  0  0  0  0  0  0  0  0 
    8.8148   -5.0686   -1.2703 C   0  0  0  0  0  0  0  0  0  0  0  0 
    7.0925   -4.1914    0.1715 C   0  0  0  0  0  0  0  0  0  0  0  0 
    5.3910   -1.2835   -4.3655 C   0  0  0  0  0  0  0  0  0  0  0  0 
    6.4526   -2.8158   -2.6906 C   0  0  1  0  0  0  0  0  0  0  0  0 
    7.8998   -4.0547   -0.9653 C   0  0  0  0  0  0  0  0  0  0  0  0 
    7.7560   -2.8243   -1.8384 C   0  0  1  0  0  0  0  0  0  0  0  0 
    6.5075   -1.5526   -3.4537 N   0  0  0  0  0  0  0  0  0  0  0  0 
    8.8762   -2.6903   -2.6954 O   0  0  0  0  0  0  0  0  0  0  0  0 
    5.3684    2.2346   -4.5316 H   0  0  0  0  0  0  0  0  0  0  0  0 
    6.1860    1.3025   -3.2832 H   0  0  0  0  0  0  0  0  0  0  0  0 
    4.4221    1.2085   -3.4435 H   0  0  0  0  0  0  0  0  0  0  0  0 
    6.4012   -4.9511   -3.0332 H   0  0  0  0  0  0  0  0  0  0  0  0 
    7.1892   -4.0356   -4.3305 H   0  0  0  0  0  0  0  0  0  0  0  0 
    5.4182   -4.0345   -4.1790 H   0  0  0  0  0  0  0  0  0  0  0  0 
    6.4565    0.1815   -5.5260 H   0  0  0  0  0  0  0  0  0  0  0  0 
    4.7100    0.1941   -5.7566 H   0  0  0  0  0  0  0  0  0  0  0  0 
    8.1746   -7.2131    1.3015 H   0  0  0  0  0  0  0  0  0  0  0  0 
    9.6308   -6.9777   -0.7013 H   0  0  0  0  0  0  0  0  0  0  0  0 
    6.5509   -5.4110    1.8600 H   0  0  0  0  0  0  0  0  0  0  0  0 
    9.4525   -4.9534   -2.1397 H   0  0  0  0  0  0  0  0  0  0  0  0 
    6.3903   -3.4010    0.4305 H   0  0  0  0  0  0  0  0  0  0  0  0 
    5.4120   -2.0308   -5.1649 H   0  0  0  0  0  0  0  0  0  0  0  0 
    4.4095   -1.3828   -3.8619 H   0  0  0  0  0  0  0  0  0  0  0  0 
    5.5906   -2.8352   -1.9992 H   0  0  0  0  0  0  0  0  0  0  0  0 
    7.6934   -1.9453   -1.1669 H   0  0  0  0  0  0  0  0  0  0  0  0 
    6.5491   -0.7934   -2.7733 H   0  0  0  0  0  0  0  0  0  0  0  0 
    8.5588   -2.0944   -3.4034 H   0  0  0  0  0  0  0  0  0  0  0  0 
  1 17  1  0  0  0  0 
  1 16  1  0  0  0  0 
  2 18  1  0  0  0  0 
  2 10  1  0  0  0  0 
  3  9  1  0  0  0  0 
  3  1  1  0  0  0  0 
  4  6  1  0  0  0  0 
  4 23  1  0  0  0  0 
  5  4  2  0  0  0  0 
  6 25  1  0  0  0  0 
  7 11  2  0  0  0  0 
  7  5  1  0  0  0  0 
  8 27  1  0  0  0  0 
  8  6  2  0  0  0  0 
  9 29  1  0  0  0  0 
  9 13  1  0  0  0  0 
 10 30  1  1  0  0  0 
 10 12  1  0  0  0  0 
 11  8  1  0  0  0  0 
 12 31  1  1  0  0  0 
 12 11  1  0  0  0  0 
 13 32  1  0  0  0  0 
 13 10  1  0  0  0  0 
 14 12  1  0  0  0  0 
 15  1  1  0  0  0  0 
 19  2  1  0  0  0  0 
 20  2  1  0  0  0  0 
 21  3  1  0  0  0  0 
 22  3  1  0  0  0  0 
 24  5  1  0  0  0  0 
 26  7  1  0  0  0  0 
 28  9  1  0  0  0  0 
 33 14  1  0  0  0  0 
M  END 
>  <HBA> 
2 
 
>  <HBD> 
2 
 
>  <TPSA> 
32.26 
 
>  <cid> 
46216 
 
>  <dipole> 
2.75 
 
>  <excitation_energy_1> 
5.268 
 
>  <excitation_energy_2> 
5.575 
 
>  <excitation_energy_3> 
5.756 
 
>  <excitation_energy_4> 
5.818 
 
>  <homo_energy> 
-6.267 
 
>  <homo_lumo_gap> 
6.387 
 
>  <logP> 
2.499 
 
>  <lumo_energy> 
0.12 
 
>  <melting_point> 
49.63 
 
>  <molecular_refractivity> 
59.41 
 
>  <oscillator_strength_1> 
0.002 
 
>  <oscillator_strength_2> 
0.0321 
 
>  <oscillator_strength_3> 
0.0229 
 
>  <oscillator_strength_4> 
0.0159 
 
>  <open_babel_can_smiles> 
CCCN[C@H]([C@@H](c1ccccc1)O)C 
 
>  <mulliken_charges> 
33 
1   -0.454832 
2   -0.457522 
3   -0.261047 
4   -0.127654 
5   -0.133802 
6   -0.133746 
7   -0.168226 
8   -0.179633 
9   -0.110401 
10   0.029525 
11   0.127538 
12   0.085944 
13   -0.597343 
14   -0.651914 
15   0.152656 
16   0.14374 
17   0.145013 
18   0.165645 
19   0.15556 
20   0.144694 
21   0.146497 
22   0.138048 
23   0.125579 
24   0.127531 
25   0.12571 
26   0.153698 
27   0.117253 
28   0.150142 
29   0.112484 
30   0.112334 
31   0.10885 
32   0.304047 
33   0.40363 
 
>  <lowdin_charges> 
33 
1   -0.450702 
2   -0.45595 
3   -0.278491 
4   -0.16207 
5   -0.156396 
6   -0.157319 
7   -0.158214 
8   -0.170618 
9   -0.202047 
10   -0.079411 
11   -0.011811 
12   -0.003964 
13   -0.369477 
14   -0.466564 
15   0.155632 
16   0.145662 
17   0.14775 
18   0.165274 
19   0.15689 
20   0.150934 
21   0.148182 
22   0.148242 
23   0.156123 
24   0.157081 
25   0.155777 
26   0.171412 
27   0.151805 
28   0.149497 
29   0.118172 
30   0.12453 
31   0.124441 
32   0.253734 
33   0.341896 
 
$$$$ 
 
