PCCDB-ID:  36652 
public computational chemistry database (PCCDB) project, http://pccdb.org 
 
 11 10  0  0  0  0  0  0  0  0999 V2000 
    1.0023   -0.0225   -0.0253 C   0  0  0  0  0  0  0  0  0  0  0  0 
    4.4478   -1.1073    0.8806 C   0  0  0  0  0  0  0  0  0  0  0  0 
    2.9783   -1.0635    0.9099 C   0  0  0  0  0  0  0  0  0  0  0  0 
    5.6078   -1.1241    0.8785 N   0  0  0  0  0  0  0  0  0  0  0  0 
    2.4598   -0.0996   -0.0552 N   0  0  0  0  0  0  0  0  0  0  0  0 
    0.6727    0.7514   -0.7242 H   0  0  0  0  0  0  0  0  0  0  0  0 
    0.5775    0.2020    0.9706 H   0  0  0  0  0  0  0  0  0  0  0  0 
    0.5817   -0.9774   -0.3614 H   0  0  0  0  0  0  0  0  0  0  0  0 
    2.6635   -0.8773    1.9553 H   0  0  0  0  0  0  0  0  0  0  0  0 
    2.5994   -2.0596    0.6460 H   0  0  0  0  0  0  0  0  0  0  0  0 
    2.8597    0.8160    0.1393 H   0  0  0  0  0  0  0  0  0  0  0  0 
  1  7  1  0  0  0  0 
  2  3  1  0  0  0  0 
  3  9  1  0  0  0  0 
  4  2  3  0  0  0  0 
  5  1  1  0  0  0  0 
  5 11  1  0  0  0  0 
  5  3  1  0  0  0  0 
  6  1  1  0  0  0  0 
  8  1  1  0  0  0  0 
 10  3  1  0  0  0  0 
M  END 
>  <HBA> 
2 
 
>  <HBD> 
1 
 
>  <TPSA> 
35.82 
 
>  <cid> 
36652 
 
>  <dipole> 
4.22 
 
>  <excitation_energy_1> 
5.59 
 
>  <excitation_energy_2> 
6.313 
 
>  <excitation_energy_3> 
6.539 
 
>  <excitation_energy_4> 
6.687 
 
>  <homo_energy> 
-6.757 
 
>  <homo_lumo_gap> 
7.279 
 
>  <logP> 
0.12 
 
>  <lumo_energy> 
0.522 
 
>  <melting_point> 
36.51 
 
>  <molecular_refractivity> 
19.09 
 
>  <oscillator_strength_1> 
0.0012 
 
>  <oscillator_strength_2> 
0.0229 
 
>  <oscillator_strength_3> 
0.0069 
 
>  <oscillator_strength_4> 
0.0128 
 
>  <open_babel_can_smiles> 
CNCC#N 
 
>  <mulliken_charges> 
11 
1   -0.306347 
2   0.350047 
3   -0.178268 
4   -0.466505 
5   -0.534003 
6   0.165939 
7   0.129309 
8   0.161187 
9   0.16734 
10   0.196804 
11   0.314498 
 
>  <lowdin_charges> 
11 
1   -0.360266 
2   -0.018533 
3   -0.192113 
4   -0.115455 
5   -0.349374 
6   0.162027 
7   0.126052 
8   0.153695 
9   0.15124 
10   0.178582 
11   0.264145 
 
$$$$ 
 
