PCCDB-ID:  34722 
public computational chemistry database (PCCDB) project, http://pccdb.org 
 
 29 29  0  0  1  0  0  0  0  0999 V2000 
    3.5807    0.2276    1.0982 C   0  0  0  0  0  0  0  0  0  0  0  0 
    2.2674    1.4020   -0.7302 C   0  0  0  0  0  0  0  0  0  0  0  0 
    2.0647   -4.5089   -0.4701 C   0  0  0  0  0  0  0  0  0  0  0  0 
    4.3231   -3.8568   -1.3880 C   0  0  0  0  0  0  0  0  0  0  0  0 
    2.2075   -2.8169   -2.4094 C   0  0  0  0  0  0  0  0  0  0  0  0 
    2.4792    0.0890    0.0374 C   0  0  0  0  0  0  0  0  0  0  0  0 
    1.7359   -1.4136   -1.9855 C   0  0  2  0  0  0  0  0  0  0  0  0 
    2.7940   -1.0577   -0.9264 C   0  0  2  0  0  0  0  0  0  0  0  0 
    2.8835   -3.3974   -1.1294 C   0  0  0  0  0  0  0  0  0  0  0  0 
    0.4193   -1.4230   -1.4407 O   0  0  0  0  0  0  0  0  0  0  0  0 
    2.9084   -2.2856   -0.1917 O   0  0  0  0  0  0  0  0  0  0  0  0 
    3.3320    1.0213    1.8123 H   0  0  0  0  0  0  0  0  0  0  0  0 
    4.5416    0.4872    0.6342 H   0  0  0  0  0  0  0  0  0  0  0  0 
    3.7148   -0.7065    1.6504 H   0  0  0  0  0  0  0  0  0  0  0  0 
    2.0750    2.2254   -0.0330 H   0  0  0  0  0  0  0  0  0  0  0  0 
    1.4133    1.3348   -1.4116 H   0  0  0  0  0  0  0  0  0  0  0  0 
    3.1567    1.6689   -1.3165 H   0  0  0  0  0  0  0  0  0  0  0  0 
    2.0584   -5.4097   -1.0939 H   0  0  0  0  0  0  0  0  0  0  0  0 
    1.0260   -4.1945   -0.3198 H   0  0  0  0  0  0  0  0  0  0  0  0 
    2.4901   -4.7674    0.5055 H   0  0  0  0  0  0  0  0  0  0  0  0 
    4.3464   -4.6778   -2.1146 H   0  0  0  0  0  0  0  0  0  0  0  0 
    4.7884   -4.2034   -0.4591 H   0  0  0  0  0  0  0  0  0  0  0  0 
    4.9289   -3.0356   -1.7869 H   0  0  0  0  0  0  0  0  0  0  0  0 
    2.9293   -2.7426   -3.2312 H   0  0  0  0  0  0  0  0  0  0  0  0 
    1.3637   -3.4196   -2.7572 H   0  0  0  0  0  0  0  0  0  0  0  0 
    1.5398   -0.1615    0.5470 H   0  0  0  0  0  0  0  0  0  0  0  0 
    1.7071   -0.7109   -2.8222 H   0  0  0  0  0  0  0  0  0  0  0  0 
    3.7469   -0.8349   -1.4414 H   0  0  0  0  0  0  0  0  0  0  0  0 
    0.4808   -1.8770   -0.5835 H   0  0  0  0  0  0  0  0  0  0  0  0 
  1 14  1  0  0  0  0 
  1 12  1  0  0  0  0 
  2 15  1  0  0  0  0 
  2  6  1  0  0  0  0 
  3 19  1  0  0  0  0 
  3 20  1  0  0  0  0 
  4  9  1  0  0  0  0 
  4 22  1  0  0  0  0 
  5  7  1  0  0  0  0 
  5  9  1  0  0  0  0 
  6 26  1  0  0  0  0 
  6  1  1  0  0  0  0 
  7 27  1  6  0  0  0 
  7 10  1  0  0  0  0 
  7  8  1  0  0  0  0 
  8 28  1  6  0  0  0 
  8 11  1  0  0  0  0 
  8  6  1  0  0  0  0 
  9  3  1  0  0  0  0 
  9 11  1  0  0  0  0 
 10 29  1  0  0  0  0 
 13  1  1  0  0  0  0 
 16  2  1  0  0  0  0 
 17  2  1  0  0  0  0 
 18  3  1  0  0  0  0 
 21  4  1  0  0  0  0 
 23  4  1  0  0  0  0 
 24  5  1  0  0  0  0 
 25  5  1  0  0  0  0 
M  END 
>  <HBA> 
2 
 
>  <HBD> 
1 
 
>  <TPSA> 
29.46 
 
>  <cid> 
34722 
 
>  <dipole> 
1.37 
 
>  <excitation_energy_1> 
6.154 
 
>  <excitation_energy_2> 
6.472 
 
>  <excitation_energy_3> 
6.681 
 
>  <excitation_energy_4> 
6.832 
 
>  <homo_energy> 
-6.653 
 
>  <homo_lumo_gap> 
8.493 
 
>  <logP> 
1.571 
 
>  <lumo_energy> 
1.84 
 
>  <melting_point> 
14.71 
 
>  <molecular_refractivity> 
45.55 
 
>  <oscillator_strength_1> 
0.0114 
 
>  <oscillator_strength_2> 
0.013 
 
>  <oscillator_strength_3> 
0.0033 
 
>  <oscillator_strength_4> 
0.0041 
 
>  <open_babel_can_smiles> 
CC([C@H]1OC(C[C@H]1O)(C)C)C 
 
>  <mulliken_charges> 
29 
1   -0.446484 
2   -0.459657 
3   -0.45767 
4   -0.456603 
5   -0.342675 
6   -0.075085 
7   0.123929 
8   0.125628 
9   0.345156 
10   -0.633611 
11   -0.538655 
12   0.137715 
13   0.133646 
14   0.16447 
15   0.144783 
16   0.161927 
17   0.135718 
18   0.144465 
19   0.139069 
20   0.155539 
21   0.140677 
22   0.152042 
23   0.145366 
24   0.140224 
25   0.157616 
26   0.12239 
27   0.137846 
28   0.105034 
29   0.3972 
 
>  <lowdin_charges> 
29 
1   -0.445661 
2   -0.447607 
3   -0.445988 
4   -0.453062 
5   -0.312676 
6   -0.126344 
7   -0.016464 
8   -0.019616 
9   0.12689 
10   -0.460015 
11   -0.288831 
12   0.147955 
13   0.143365 
14   0.15984 
15   0.152714 
16   0.157759 
17   0.144306 
18   0.153404 
19   0.146644 
20   0.157138 
21   0.151269 
22   0.155631 
23   0.152295 
24   0.152199 
25   0.161134 
26   0.14083 
27   0.148114 
28   0.12445 
29   0.340329 
 
$$$$ 
 
