PCCDB-ID:  33744 
public computational chemistry database (PCCDB) project, http://pccdb.org 
 
 27 26  0  0  0  0  0  0  0  0999 V2000 
    2.7679    2.2747    1.3456 C   0  0  0  0  0  0  0  0  0  0  0  0 
    6.3848   -5.7576    0.0626 C   0  0  0  0  0  0  0  0  0  0  0  0 
    3.6770    1.8730    0.2190 C   0  0  0  0  0  0  0  0  0  0  0  0 
    5.3535   -4.6586   -0.2131 C   0  0  0  0  0  0  0  0  0  0  0  0 
    3.6881    0.6770   -0.3764 C   0  0  0  0  0  0  0  0  0  0  0  0 
    5.9883   -3.3010   -0.5409 C   0  0  0  0  0  0  0  0  0  0  0  0 
    4.6084    0.2817   -1.5013 C   0  0  0  0  0  0  0  0  0  0  0  0 
    4.9629   -2.1935   -0.8168 C   0  0  0  0  0  0  0  0  0  0  0  0 
    5.6083   -0.8405   -1.1446 C   0  0  0  0  0  0  0  0  0  0  0  0 
    2.1431    3.1349    1.0680 H   0  0  0  0  0  0  0  0  0  0  0  0 
    3.3408    2.5793    2.2322 H   0  0  0  0  0  0  0  0  0  0  0  0 
    2.1027    1.4548    1.6377 H   0  0  0  0  0  0  0  0  0  0  0  0 
    5.9006   -6.7131    0.2949 H   0  0  0  0  0  0  0  0  0  0  0  0 
    7.0268   -5.4942    0.9122 H   0  0  0  0  0  0  0  0  0  0  0  0 
    7.0362   -5.9169   -0.8057 H   0  0  0  0  0  0  0  0  0  0  0  0 
    4.3769    2.6368   -0.1271 H   0  0  0  0  0  0  0  0  0  0  0  0 
    4.6943   -4.5484    0.6599 H   0  0  0  0  0  0  0  0  0  0  0  0 
    4.7051   -4.9656   -1.0461 H   0  0  0  0  0  0  0  0  0  0  0  0 
    2.9829   -0.0818   -0.0319 H   0  0  0  0  0  0  0  0  0  0  0  0 
    6.6484   -3.4111   -1.4144 H   0  0  0  0  0  0  0  0  0  0  0  0 
    6.6380   -2.9949    0.2927 H   0  0  0  0  0  0  0  0  0  0  0  0 
    5.1699    1.1649   -1.8326 H   0  0  0  0  0  0  0  0  0  0  0  0 
    4.0100   -0.0483   -2.3651 H   0  0  0  0  0  0  0  0  0  0  0  0 
    4.3051   -2.0899    0.0573 H   0  0  0  0  0  0  0  0  0  0  0  0 
    4.3154   -2.4987   -1.6529 H   0  0  0  0  0  0  0  0  0  0  0  0 
    6.2225   -0.5127   -0.2944 H   0  0  0  0  0  0  0  0  0  0  0  0 
    6.2965   -0.9716   -1.9920 H   0  0  0  0  0  0  0  0  0  0  0  0 
  1 12  1  0  0  0  0 
  1 11  1  0  0  0  0 
  2 13  1  0  0  0  0 
  2 14  1  0  0  0  0 
  3  1  1  0  0  0  0 
  4  2  1  0  0  0  0 
  4 17  1  0  0  0  0 
  5 19  1  0  0  0  0 
  5  3  2  0  0  0  0 
  6  4  1  0  0  0  0 
  6 21  1  0  0  0  0 
  7  9  1  0  0  0  0 
  7  5  1  0  0  0  0 
  8  6  1  0  0  0  0 
  8 24  1  0  0  0  0 
  9  8  1  0  0  0  0 
  9 26  1  0  0  0  0 
 10  1  1  0  0  0  0 
 15  2  1  0  0  0  0 
 16  3  1  0  0  0  0 
 18  4  1  0  0  0  0 
 20  6  1  0  0  0  0 
 22  7  1  0  0  0  0 
 23  7  1  0  0  0  0 
 25  8  1  0  0  0  0 
 27  9  1  0  0  0  0 
M  END 
>  <HBA> 
0 
 
>  <HBD> 
0 
 
>  <TPSA> 
0.0 
 
>  <cid> 
33744 
 
>  <dipole> 
0.06 
 
>  <excitation_energy_1> 
6.08 
 
>  <excitation_energy_2> 
6.29 
 
>  <excitation_energy_3> 
6.473 
 
>  <excitation_energy_4> 
6.691 
 
>  <homo_energy> 
-6.384 
 
>  <homo_lumo_gap> 
7.244 
 
>  <logP> 
3.533 
 
>  <lumo_energy> 
0.86 
 
>  <melting_point> 
-18.76 
 
>  <molecular_refractivity> 
44.9 
 
>  <oscillator_strength_1> 
0.0311 
 
>  <oscillator_strength_2> 
0.0176 
 
>  <oscillator_strength_3> 
0.0489 
 
>  <oscillator_strength_4> 
0.0724 
 
>  <open_babel_can_smiles> 
CCCCCC/C=C/C 
 
>  <mulliken_charges> 
27 
1   -0.485496 
2   -0.441147 
3   -0.093166 
4   -0.246962 
5   -0.085064 
6   -0.245235 
7   -0.307108 
8   -0.254686 
9   -0.249655 
10   0.152811 
11   0.152509 
12   0.150116 
13   0.14096 
14   0.141027 
15   0.140877 
16   0.115671 
17   0.129655 
18   0.129397 
19   0.116049 
20   0.125792 
21   0.127252 
22   0.133593 
23   0.135271 
24   0.132421 
25   0.124876 
26   0.133339 
27   0.126902 
 
>  <lowdin_charges> 
27 
1   -0.440999 
2   -0.445368 
3   -0.16811 
4   -0.27346 
5   -0.173336 
6   -0.275261 
7   -0.272939 
8   -0.278583 
9   -0.274455 
10   0.155693 
11   0.155554 
12   0.154144 
13   0.148702 
14   0.146668 
15   0.146461 
16   0.145354 
17   0.138862 
18   0.139169 
19   0.145595 
20   0.137123 
21   0.138505 
22   0.14672 
23   0.145106 
24   0.139911 
25   0.137136 
26   0.141817 
27   0.139992 
 
$$$$ 
 
