PCCDB-ID:  42960 
public computational chemistry database (PCCDB) project, http://pccdb.org 
 
 30 31  0  0  0  0  0  0  0  0999 V2000 
    1.1985    0.3398   -0.4540 C   0  0  0  0  0  0  0  0  0  0  0  0 
    3.3090   -3.6807    0.7108 C   0  0  0  0  0  0  0  0  0  0  0  0 
    8.2927    3.0511    0.3543 C   0  0  0  0  0  0  0  0  0  0  0  0 
    7.0294    3.5601    0.6659 C   0  0  0  0  0  0  0  0  0  0  0  0 
    8.4148    1.7119   -0.0203 C   0  0  0  0  0  0  0  0  0  0  0  0 
    5.9063    2.7384    0.6185 C   0  0  0  0  0  0  0  0  0  0  0  0 
    7.2909    0.8897   -0.0881 C   0  0  0  0  0  0  0  0  0  0  0  0 
    2.6228    0.0585   -0.1037 C   0  0  0  0  0  0  0  0  0  0  0  0 
    2.5388   -2.4088    0.3770 C   0  0  0  0  0  0  0  0  0  0  0  0 
    6.0111    1.3835    0.2402 C   0  0  0  0  0  0  0  0  0  0  0  0 
    3.2593   -1.1374    0.2695 C   0  0  0  0  0  0  0  0  0  0  0  0 
    4.6571   -0.8274    0.4517 C   0  0  0  0  0  0  0  0  0  0  0  0 
    4.8330    0.5255    0.1827 C   0  0  0  0  0  0  0  0  0  0  0  0 
    5.6768   -1.7188    0.8204 N   0  0  0  0  0  0  0  0  0  0  0  0 
    3.5674    1.0265   -0.1340 N   0  0  0  0  0  0  0  0  0  0  0  0 
    1.3229   -2.4736    0.1977 O   0  0  0  0  0  0  0  0  0  0  0  0 
    0.8624   -0.2961   -1.2786 H   0  0  0  0  0  0  0  0  0  0  0  0 
    1.0705    1.3908   -0.7400 H   0  0  0  0  0  0  0  0  0  0  0  0 
    0.5342    0.1195    0.3873 H   0  0  0  0  0  0  0  0  0  0  0  0 
    4.2197   -3.7797    0.1106 H   0  0  0  0  0  0  0  0  0  0  0  0 
    2.6532   -4.5370    0.5405 H   0  0  0  0  0  0  0  0  0  0  0  0 
    3.6014   -3.6831    1.7710 H   0  0  0  0  0  0  0  0  0  0  0  0 
    9.1692    3.6912    0.4002 H   0  0  0  0  0  0  0  0  0  0  0  0 
    6.9196    4.5998    0.9636 H   0  0  0  0  0  0  0  0  0  0  0  0 
    9.3889    1.3070   -0.2828 H   0  0  0  0  0  0  0  0  0  0  0  0 
    4.9386    3.1414    0.9081 H   0  0  0  0  0  0  0  0  0  0  0  0 
    7.3942   -0.1318   -0.4429 H   0  0  0  0  0  0  0  0  0  0  0  0 
    5.3732   -2.4218    1.4838 H   0  0  0  0  0  0  0  0  0  0  0  0 
    6.4899   -1.2355    1.1903 H   0  0  0  0  0  0  0  0  0  0  0  0 
    3.4054    1.9656   -0.4684 H   0  0  0  0  0  0  0  0  0  0  0  0 
  1  8  1  0  0  0  0 
  1 19  1  0  0  0  0 
  2 22  1  0  0  0  0 
  3 23  1  0  0  0  0 
  3  4  2  0  0  0  0 
  4 24  1  0  0  0  0 
  5  3  1  0  0  0  0 
  6  4  1  0  0  0  0 
  6 26  1  0  0  0  0 
  7  5  2  0  0  0  0 
  7 10  1  0  0  0  0 
  8 11  2  0  0  0  0 
  9  2  1  0  0  0  0 
 10  6  2  0  0  0  0 
 11  9  1  0  0  0  0 
 11 12  1  0  0  0  0 
 12 14  1  0  0  0  0 
 13 10  1  0  0  0  0 
 13 12  2  0  0  0  0 
 14 29  1  0  0  0  0 
 14 28  1  0  0  0  0 
 15  8  1  0  0  0  0 
 15 13  1  0  0  0  0 
 16  9  2  0  0  0  0 
 17  1  1  0  0  0  0 
 18  1  1  0  0  0  0 
 20  2  1  0  0  0  0 
 21  2  1  0  0  0  0 
 25  5  1  0  0  0  0 
 27  7  1  0  0  0  0 
 30 15  1  0  0  0  0 
M  END 
>  <HBA> 
2 
 
>  <HBD> 
2 
 
>  <TPSA> 
58.88 
 
>  <cid> 
42960 
 
>  <dipole> 
3.44 
 
>  <excitation_energy_1> 
3.804 
 
>  <excitation_energy_2> 
3.934 
 
>  <excitation_energy_3> 
4.0 
 
>  <excitation_energy_4> 
4.149 
 
>  <homo_energy> 
-4.961 
 
>  <homo_lumo_gap> 
4.509 
 
>  <logP> 
3.356 
 
>  <lumo_energy> 
-0.452 
 
>  <melting_point> 
178.76 
 
>  <molecular_refractivity> 
65.79 
 
>  <oscillator_strength_1> 
0.0156 
 
>  <oscillator_strength_2> 
0.066 
 
>  <oscillator_strength_3> 
0.3564 
 
>  <oscillator_strength_4> 
0.0003 
 
>  <open_babel_can_smiles> 
CC(=O)c1c(C)[nH]c(c1N)c1ccccc1 
 
>  <mulliken_charges> 
30 
1   -0.49816 
2   -0.560718 
3   -0.131185 
4   -0.131234 
5   -0.135159 
6   -0.187453 
7   -0.209502 
8   0.323458 
9   0.4022 
10   0.124794 
11   -0.000833 
12   0.133858 
13   0.225065 
14   -0.81156 
15   -0.70047 
16   -0.498605 
17   0.190271 
18   0.129161 
19   0.188349 
20   0.181871 
21   0.176859 
22   0.155213 
23   0.129327 
24   0.130227 
25   0.1318 
26   0.119536 
27   0.152601 
28   0.32148 
29   0.32198 
30   0.32683 
 
>  <lowdin_charges> 
30 
1   -0.438919 
2   -0.478054 
3   -0.167972 
4   -0.148735 
5   -0.151087 
6   -0.177908 
7   -0.178039 
8   0.060135 
9   0.154103 
10   -0.00498 
11   -0.135119 
12   0.019065 
13   -0.049991 
14   -0.495052 
15   -0.162277 
16   -0.282203 
17   0.180488 
18   0.145011 
19   0.179356 
20   0.171155 
21   0.17311 
22   0.158648 
23   0.158855 
24   0.156649 
25   0.158418 
26   0.151504 
27   0.16442 
28   0.27446 
29   0.275868 
30   0.289091 
 
$$$$ 
 
