PCCDB-ID:  15600 
public computational chemistry database (PCCDB) project, http://pccdb.org 
 
 32 31  0  0  0  0  0  0  0  0999 V2000 
    3.0218   -4.0003    1.4932 C   0  0  0  0  0  0  0  0  0  0  0  0 
   10.5206   -0.6085   -3.5923 C   0  0  0  0  0  0  0  0  0  0  0  0 
    3.8897   -2.9086    0.8578 C   0  0  0  0  0  0  0  0  0  0  0  0 
    9.3900   -0.0713   -4.4781 C   0  0  0  0  0  0  0  0  0  0  0  0 
    3.2124   -2.2201   -0.3351 C   0  0  0  0  0  0  0  0  0  0  0  0 
    8.1205    0.3398   -3.7134 C   0  0  0  0  0  0  0  0  0  0  0  0 
    4.0313   -1.0814   -0.9658 C   0  0  0  0  0  0  0  0  0  0  0  0 
    7.3729   -0.8174   -3.0371 C   0  0  0  0  0  0  0  0  0  0  0  0 
    5.3276   -1.5277   -1.6577 C   0  0  0  0  0  0  0  0  0  0  0  0 
    6.0809   -0.3764   -2.3361 C   0  0  0  0  0  0  0  0  0  0  0  0 
    3.5296   -4.4722    2.3421 H   0  0  0  0  0  0  0  0  0  0  0  0 
    2.7823   -4.7887    0.7686 H   0  0  0  0  0  0  0  0  0  0  0  0 
    2.0721   -3.5900    1.8587 H   0  0  0  0  0  0  0  0  0  0  0  0 
   11.4153   -0.8294   -4.1856 H   0  0  0  0  0  0  0  0  0  0  0  0 
   10.2332   -1.5315   -3.0762 H   0  0  0  0  0  0  0  0  0  0  0  0 
   10.8025    0.1242   -2.8252 H   0  0  0  0  0  0  0  0  0  0  0  0 
    4.8450   -3.3480    0.5423 H   0  0  0  0  0  0  0  0  0  0  0  0 
    4.1375   -2.1512    1.6158 H   0  0  0  0  0  0  0  0  0  0  0  0 
    9.1277   -0.8270   -5.2330 H   0  0  0  0  0  0  0  0  0  0  0  0 
    9.7599    0.7991   -5.0368 H   0  0  0  0  0  0  0  0  0  0  0  0 
    2.2430   -1.8197   -0.0051 H   0  0  0  0  0  0  0  0  0  0  0  0 
    2.9811   -2.9715   -1.1053 H   0  0  0  0  0  0  0  0  0  0  0  0 
    7.4353    0.8408   -4.4122 H   0  0  0  0  0  0  0  0  0  0  0  0 
    8.3841    1.0927   -2.9548 H   0  0  0  0  0  0  0  0  0  0  0  0 
    4.2691   -0.3362   -0.1915 H   0  0  0  0  0  0  0  0  0  0  0  0 
    3.4032   -0.5601   -1.7023 H   0  0  0  0  0  0  0  0  0  0  0  0 
    8.0273   -1.3096   -2.3043 H   0  0  0  0  0  0  0  0  0  0  0  0 
    7.1331   -1.5821   -3.7920 H   0  0  0  0  0  0  0  0  0  0  0  0 
    5.0883   -2.2969   -2.4083 H   0  0  0  0  0  0  0  0  0  0  0  0 
    5.9956   -2.0104   -0.9309 H   0  0  0  0  0  0  0  0  0  0  0  0 
    5.4193    0.1107   -3.0681 H   0  0  0  0  0  0  0  0  0  0  0  0 
    6.3184    0.3924   -1.5851 H   0  0  0  0  0  0  0  0  0  0  0  0 
  1 13  1  0  0  0  0 
  1 11  1  0  0  0  0 
  2 15  1  0  0  0  0 
  2 16  1  0  0  0  0 
  3  1  1  0  0  0  0 
  3 18  1  0  0  0  0 
  4  6  1  0  0  0  0 
  4  2  1  0  0  0  0 
  5 21  1  0  0  0  0 
  5  3  1  0  0  0  0 
  6  8  1  0  0  0  0 
  6 24  1  0  0  0  0 
  7  5  1  0  0  0  0 
  7 25  1  0  0  0  0 
  8 10  1  0  0  0  0 
  8 27  1  0  0  0  0 
  9  7  1  0  0  0  0 
  9 30  1  0  0  0  0 
 10  9  1  0  0  0  0 
 10 32  1  0  0  0  0 
 12  1  1  0  0  0  0 
 14  2  1  0  0  0  0 
 17  3  1  0  0  0  0 
 19  4  1  0  0  0  0 
 20  4  1  0  0  0  0 
 22  5  1  0  0  0  0 
 23  6  1  0  0  0  0 
 26  7  1  0  0  0  0 
 28  8  1  0  0  0  0 
 29  9  1  0  0  0  0 
 31 10  1  0  0  0  0 
M  END 
>  <HBA> 
0 
 
>  <HBD> 
0 
 
>  <TPSA> 
0.0 
 
>  <cid> 
15600 
 
>  <dipole> 
0.06 
 
>  <excitation_energy_1> 
7.687 
 
>  <excitation_energy_2> 
7.811 
 
>  <excitation_energy_3> 
7.885 
 
>  <excitation_energy_4> 
7.972 
 
>  <homo_energy> 
-7.978 
 
>  <homo_lumo_gap> 
10.447 
 
>  <logP> 
4.147 
 
>  <lumo_energy> 
2.468 
 
>  <melting_point> 
-29.22 
 
>  <molecular_refractivity> 
50.18 
 
>  <oscillator_strength_1> 
0.0075 
 
>  <oscillator_strength_2> 
0.0042 
 
>  <oscillator_strength_3> 
0.0013 
 
>  <oscillator_strength_4> 
0.0002 
 
>  <open_babel_can_smiles> 
CCCCCCCCCC 
 
>  <mulliken_charges> 
32 
1   -0.44156 
2   -0.442948 
3   -0.247797 
4   -0.248241 
5   -0.246752 
6   -0.248243 
7   -0.254879 
8   -0.253125 
9   -0.253814 
10   -0.252305 
11   0.140636 
12   0.140902 
13   0.140527 
14   0.141178 
15   0.145923 
16   0.139919 
17   0.135324 
18   0.128399 
19   0.128728 
20   0.129612 
21   0.125588 
22   0.124945 
23   0.126241 
24   0.12505 
25   0.125469 
26   0.126236 
27   0.13081 
28   0.125052 
29   0.125163 
30   0.131557 
31   0.125823 
32   0.12658 
 
>  <lowdin_charges> 
32 
1   -0.44582 
2   -0.448721 
3   -0.275383 
4   -0.274553 
5   -0.276024 
6   -0.277684 
7   -0.277558 
8   -0.278644 
9   -0.278666 
10   -0.275504 
11   0.149457 
12   0.146748 
13   0.145569 
14   0.149603 
15   0.147177 
16   0.146259 
17   0.139974 
18   0.13878 
19   0.138944 
20   0.141906 
21   0.139157 
22   0.137476 
23   0.140822 
24   0.137381 
25   0.137678 
26   0.141157 
27   0.139962 
28   0.137282 
29   0.137311 
30   0.139934 
31   0.137914 
32   0.138065 
 
$$$$ 
 
