PCCDB-ID:  72927 
public computational chemistry database (PCCDB) project, http://pccdb.org 
 
 25 25  0  0  0  0  0  0  0  0999 V2000 
    0.7027   -1.1104    0.3399 C   0  0  0  0  0  0  0  0  0  0  0  0 
    0.4974    0.3809    0.0320 C   0  0  0  0  0  0  0  0  0  0  0  0 
    1.4413   -5.5335   -0.6166 C   0  0  0  0  0  0  0  0  0  0  0  0 
    1.8921   -1.7494   -0.4062 C   0  0  0  0  0  0  0  0  0  0  0  0 
    1.3220   -4.1790   -0.9214 C   0  0  0  0  0  0  0  0  0  0  0  0 
    1.6659    1.2949    0.4245 C   0  0  0  0  0  0  0  0  0  0  0  0 
    2.2503   -5.9046    0.4578 C   0  0  0  0  0  0  0  0  0  0  0  0 
    2.7927   -3.7302    0.9006 C   0  0  0  0  0  0  0  0  0  0  0  0 
    2.0084   -3.2344   -0.1507 C   0  0  0  0  0  0  0  0  0  0  0  0 
    2.0087    1.1357    1.8429 N   0  0  0  0  0  0  0  0  0  0  0  0 
    2.9217   -5.0249    1.2111 N   0  0  0  0  0  0  0  0  0  0  0  0 
   -0.2145   -1.6550    0.0786 H   0  0  0  0  0  0  0  0  0  0  0  0 
    0.8535   -1.2398    1.4171 H   0  0  0  0  0  0  0  0  0  0  0  0 
   -0.4081    0.7232    0.5549 H   0  0  0  0  0  0  0  0  0  0  0  0 
    0.2974    0.5190   -1.0402 H   0  0  0  0  0  0  0  0  0  0  0  0 
    0.9230   -6.2884   -1.2011 H   0  0  0  0  0  0  0  0  0  0  0  0 
    2.8204   -1.2574   -0.0936 H   0  0  0  0  0  0  0  0  0  0  0  0 
    1.7840   -1.5695   -1.4851 H   0  0  0  0  0  0  0  0  0  0  0  0 
    0.7039   -3.8545   -1.7564 H   0  0  0  0  0  0  0  0  0  0  0  0 
    1.4068    2.3309    0.1393 H   0  0  0  0  0  0  0  0  0  0  0  0 
    2.5561    1.0308   -0.1596 H   0  0  0  0  0  0  0  0  0  0  0  0 
    2.3687   -6.9538    0.7246 H   0  0  0  0  0  0  0  0  0  0  0  0 
    3.3518   -3.0333    1.5256 H   0  0  0  0  0  0  0  0  0  0  0  0 
    1.2395    1.4748    2.4204 H   0  0  0  0  0  0  0  0  0  0  0  0 
    2.8117    1.7182    2.0739 H   0  0  0  0  0  0  0  0  0  0  0  0 
  1 13  1  0  0  0  0 
  2  1  1  0  0  0  0 
  2  6  1  0  0  0  0 
  2 14  1  0  0  0  0 
  3  7  1  0  0  0  0 
  4  9  1  0  0  0  0 
  4 17  1  0  0  0  0 
  4  1  1  0  0  0  0 
  5  3  2  0  0  0  0 
  5  9  1  0  0  0  0 
  6 10  1  0  0  0  0 
  7 22  1  0  0  0  0 
  7 11  2  0  0  0  0 
  8 11  1  0  0  0  0 
  8 23  1  0  0  0  0 
  9  8  2  0  0  0  0 
 10 25  1  0  0  0  0 
 10 24  1  0  0  0  0 
 12  1  1  0  0  0  0 
 15  2  1  0  0  0  0 
 16  3  1  0  0  0  0 
 18  4  1  0  0  0  0 
 19  5  1  0  0  0  0 
 20  6  1  0  0  0  0 
 21  6  1  0  0  0  0 
M  END 
>  <HBA> 
2 
 
>  <HBD> 
1 
 
>  <TPSA> 
38.91 
 
>  <cid> 
72927 
 
>  <dipole> 
3.47 
 
>  <excitation_energy_1> 
4.831 
 
>  <excitation_energy_2> 
5.165 
 
>  <excitation_energy_3> 
5.345 
 
>  <excitation_energy_4> 
5.476 
 
>  <homo_energy> 
-6.403 
 
>  <homo_lumo_gap> 
6.022 
 
>  <logP> 
2.063 
 
>  <lumo_energy> 
-0.381 
 
>  <melting_point> 
74.91 
 
>  <molecular_refractivity> 
46.33 
 
>  <oscillator_strength_1> 
0.0045 
 
>  <oscillator_strength_2> 
0.0002 
 
>  <oscillator_strength_3> 
0.0578 
 
>  <oscillator_strength_4> 
0.0004 
 
>  <open_babel_can_smiles> 
NCCCCc1cccnc1 
 
>  <mulliken_charges> 
25 
1   -0.236865 
2   -0.263977 
3   -0.138915 
4   -0.354715 
5   -0.148591 
6   -0.137471 
7   0.03547 
8   -0.01008 
9   0.152206 
10   -0.713876 
11   -0.41045 
12   0.128028 
13   0.160771 
14   0.12748 
15   0.128978 
16   0.132814 
17   0.156748 
18   0.134372 
19   0.132685 
20   0.114584 
21   0.141585 
22   0.136785 
23   0.140849 
24   0.293163 
25   0.298421 
 
>  <lowdin_charges> 
25 
1   -0.272401 
2   -0.28061 
3   -0.177979 
4   -0.272404 
5   -0.141657 
6   -0.206524 
7   -0.094905 
8   -0.103001 
9   -0.016316 
10   -0.562469 
11   -0.1486 
12   0.141337 
13   0.154109 
14   0.140661 
15   0.140255 
16   0.163113 
17   0.156009 
18   0.142952 
19   0.158302 
20   0.118778 
21   0.141064 
22   0.152623 
23   0.157212 
24   0.253356 
25   0.257097 
 
$$$$ 
 
