PCCDB-ID:  67180 
public computational chemistry database (PCCDB) project, http://pccdb.org 
 
 12 11  0  0  0  0  0  0  0  0999 V2000 
    1.0781   -0.0681    0.0142 C   0  0  0  0  0  0  0  0  0  0  0  0 
    3.3267   -0.7178    1.1559 C   0  0  0  0  0  0  0  0  0  0  0  0 
    2.5820   -0.0534    0.0264 C   0  0  0  0  0  0  0  0  0  0  0  0 
    3.1544    0.5423   -0.9543 N   0  0  0  0  0  0  0  0  0  0  0  0 
    4.5636    0.4864   -0.8309 O   0  0  0  0  0  0  0  0  0  0  0  0 
    0.7002   -1.0991    0.0100 H   0  0  0  0  0  0  0  0  0  0  0  0 
    0.6956    0.4518   -0.8673 H   0  0  0  0  0  0  0  0  0  0  0  0 
    0.6778    0.4156    0.9149 H   0  0  0  0  0  0  0  0  0  0  0  0 
    2.6386   -1.1212    1.9038 H   0  0  0  0  0  0  0  0  0  0  0  0 
    4.0043   -0.0052    1.6392 H   0  0  0  0  0  0  0  0  0  0  0  0 
    3.9536   -1.5324    0.7746 H   0  0  0  0  0  0  0  0  0  0  0  0 
    4.8502    0.9721   -1.6195 H   0  0  0  0  0  0  0  0  0  0  0  0 
  1  3  1  0  0  0  0 
  1  8  1  0  0  0  0 
  2 10  1  0  0  0  0 
  2  9  1  0  0  0  0 
  3  2  1  0  0  0  0 
  4  5  1  0  0  0  0 
  4  3  2  0  0  0  0 
  6  1  1  0  0  0  0 
  7  1  1  0  0  0  0 
 11  2  1  0  0  0  0 
 12  5  1  0  0  0  0 
M  END 
>  <HBA> 
2 
 
>  <HBD> 
1 
 
>  <TPSA> 
32.59 
 
>  <cid> 
67180 
 
>  <dipole> 
0.67 
 
>  <excitation_energy_1> 
6.124 
 
>  <excitation_energy_2> 
6.217 
 
>  <excitation_energy_3> 
6.568 
 
>  <excitation_energy_4> 
6.735 
 
>  <homo_energy> 
-6.517 
 
>  <homo_lumo_gap> 
7.002 
 
>  <logP> 
0.856 
 
>  <lumo_energy> 
0.484 
 
>  <melting_point> 
47.2 
 
>  <molecular_refractivity> 
20.95 
 
>  <oscillator_strength_1> 
0.0031 
 
>  <oscillator_strength_2> 
0.0051 
 
>  <oscillator_strength_3> 
0.0003 
 
>  <oscillator_strength_4> 
0.2133 
 
>  <open_babel_can_smiles> 
ON=C(C)C 
 
>  <mulliken_charges> 
12 
1   -0.505535 
2   -0.501833 
3   0.329101 
4   -0.219995 
5   -0.520396 
6   0.159525 
7   0.174449 
8   0.159347 
9   0.149473 
10   0.181668 
11   0.180202 
12   0.413993 
 
>  <lowdin_charges> 
12 
1   -0.44171 
2   -0.461366 
3   0.025636 
4   -0.081443 
5   -0.393505 
6   0.159205 
7   0.169704 
8   0.16056 
9   0.158265 
10   0.175999 
11   0.175165 
12   0.353489 
 
$$$$ 
 
