PCCDB-ID:  7581 
public computational chemistry database (PCCDB) project, http://pccdb.org 
 
 24 25  0  0  0  0  0  0  0  0999 V2000 
   -1.8709   -0.9321   -0.0944 C   0  0  0  0  0  0  0  0  0  0  0  0 
   -1.2712   -0.4122   -1.2410 C   0  0  0  0  0  0  0  0  0  0  0  0 
   -1.0721   -1.3248    0.9830 C   0  0  0  0  0  0  0  0  0  0  0  0 
    4.0754   -3.8181   -1.3728 C   0  0  0  0  0  0  0  0  0  0  0  0 
    4.4164   -4.3158   -0.1153 C   0  0  0  0  0  0  0  0  0  0  0  0 
    0.1186   -0.2864   -1.3083 C   0  0  0  0  0  0  0  0  0  0  0  0 
    0.3144   -1.1983    0.9134 C   0  0  0  0  0  0  0  0  0  0  0  0 
    3.4371   -2.5834   -1.4544 C   0  0  0  0  0  0  0  0  0  0  0  0 
    4.0971   -3.5449    1.0018 C   0  0  0  0  0  0  0  0  0  0  0  0 
    2.4420   -0.5405   -0.3069 C   0  0  0  0  0  0  0  0  0  0  0  0 
    0.9271   -0.6759   -0.2350 C   0  0  0  0  0  0  0  0  0  0  0  0 
    3.1593   -1.8783   -0.2757 C   0  0  0  0  0  0  0  0  0  0  0  0 
    3.4872   -2.3550    0.9366 N   0  0  0  0  0  0  0  0  0  0  0  0 
   -2.9519   -1.0299   -0.0381 H   0  0  0  0  0  0  0  0  0  0  0  0 
   -1.8823   -0.1025   -2.0851 H   0  0  0  0  0  0  0  0  0  0  0  0 
   -1.5316   -1.7297    1.8813 H   0  0  0  0  0  0  0  0  0  0  0  0 
    4.3040   -4.3807   -2.2742 H   0  0  0  0  0  0  0  0  0  0  0  0 
    4.9161   -5.2729    0.0001 H   0  0  0  0  0  0  0  0  0  0  0  0 
    0.5787    0.1248   -2.2045 H   0  0  0  0  0  0  0  0  0  0  0  0 
    0.9362   -1.5119    1.7476 H   0  0  0  0  0  0  0  0  0  0  0  0 
    3.1529   -2.1668   -2.4168 H   0  0  0  0  0  0  0  0  0  0  0  0 
    4.3467   -3.8957    2.0022 H   0  0  0  0  0  0  0  0  0  0  0  0 
    2.8014    0.0471    0.5450 H   0  0  0  0  0  0  0  0  0  0  0  0 
    2.7130    0.0020   -1.2198 H   0  0  0  0  0  0  0  0  0  0  0  0 
  1 14  1  0  0  0  0 
  1  3  2  0  0  0  0 
  2  1  1  0  0  0  0 
  3 16  1  0  0  0  0 
  4  5  1  0  0  0  0 
  5 18  1  0  0  0  0 
  5  9  2  0  0  0  0 
  6  2  2  0  0  0  0 
  6 11  1  0  0  0  0 
  7  3  1  0  0  0  0 
  7 20  1  0  0  0  0 
  8  4  2  0  0  0  0 
  8 12  1  0  0  0  0 
  9 22  1  0  0  0  0 
 10 12  1  0  0  0  0 
 10 11  1  0  0  0  0 
 10 23  1  0  0  0  0 
 11  7  2  0  0  0  0 
 12 13  2  0  0  0  0 
 13  9  1  0  0  0  0 
 15  2  1  0  0  0  0 
 17  4  1  0  0  0  0 
 19  6  1  0  0  0  0 
 21  8  1  0  0  0  0 
 24 10  1  0  0  0  0 
M  END 
>  <HBA> 
1 
 
>  <HBD> 
0 
 
>  <TPSA> 
12.89 
 
>  <cid> 
7581 
 
>  <dipole> 
1.9 
 
>  <excitation_energy_1> 
4.802 
 
>  <excitation_energy_2> 
5.052 
 
>  <excitation_energy_3> 
5.087 
 
>  <excitation_energy_4> 
5.165 
 
>  <homo_energy> 
-6.357 
 
>  <homo_lumo_gap> 
5.728 
 
>  <logP> 
2.672 
 
>  <lumo_energy> 
-0.629 
 
>  <melting_point> 
53.05 
 
>  <molecular_refractivity> 
53.69 
 
>  <oscillator_strength_1> 
0.0269 
 
>  <oscillator_strength_2> 
0.0387 
 
>  <oscillator_strength_3> 
0.0029 
 
>  <oscillator_strength_4> 
0.001 
 
>  <open_babel_can_smiles> 
c1ccc(cc1)Cc1ccccn1 
 
>  <mulliken_charges> 
24 
1   -0.13052 
2   -0.127251 
3   -0.128672 
4   -0.101689 
5   -0.141578 
6   -0.189062 
7   -0.174287 
8   -0.160425 
9   0.037679 
10   -0.418066 
11   0.168932 
12   0.308548 
13   -0.463555 
14   0.12619 
15   0.126056 
16   0.128 
17   0.142449 
18   0.137031 
19   0.117998 
20   0.14902 
21   0.134082 
22   0.139974 
23   0.173235 
24   0.14591 
 
>  <lowdin_charges> 
24 
1   -0.158997 
2   -0.158034 
3   -0.154776 
4   -0.126808 
5   -0.178743 
6   -0.171991 
7   -0.162129 
8   -0.17908 
9   -0.087291 
10   -0.278239 
11   0.00063 
12   0.059688 
13   -0.162125 
14   0.154101 
15   0.156864 
16   0.157186 
17   0.163557 
18   0.163485 
19   0.152024 
20   0.167588 
21   0.162177 
22   0.155566 
23   0.171471 
24   0.153877 
 
$$$$ 
 
