PCCDB-ID:  66116 
public computational chemistry database (PCCDB) project, http://pccdb.org 
 
 38 37  0  0  0  0  0  0  0  0999 V2000 
    0.7279    0.1715   -0.1859 C   0  0  0  0  0  0  0  0  0  0  0  0 
    2.6495    1.2082    1.0447 C   0  0  0  0  0  0  0  0  0  0  0  0 
    2.6487   -1.2605    0.5510 C   0  0  0  0  0  0  0  0  0  0  0  0 
    8.7383    0.9144   -4.0404 C   0  0  0  0  0  0  0  0  0  0  0  0 
    6.8026   -0.0855   -5.2798 C   0  0  0  0  0  0  0  0  0  0  0  0 
    6.8310    2.3761   -4.7532 C   0  0  0  0  0  0  0  0  0  0  0  0 
    4.4610    0.4067   -1.4068 C   0  0  0  0  0  0  0  0  0  0  0  0 
    5.0058    0.6915   -2.8154 C   0  0  0  0  0  0  0  0  0  0  0  0 
    2.9259    0.4048   -1.3577 C   0  0  0  0  0  0  0  0  0  0  0  0 
    6.5408    0.6890   -2.8659 C   0  0  0  0  0  0  0  0  0  0  0  0 
    2.2561    0.1305    0.0153 C   0  0  0  0  0  0  0  0  0  0  0  0 
    7.2101    0.9740   -4.2371 C   0  0  0  0  0  0  0  0  0  0  0  0 
    0.2004   -0.0109    0.7585 H   0  0  0  0  0  0  0  0  0  0  0  0 
    0.4017   -0.5912   -0.9040 H   0  0  0  0  0  0  0  0  0  0  0  0 
    0.4041    1.1484   -0.5664 H   0  0  0  0  0  0  0  0  0  0  0  0 
    2.1185    1.0520    1.9919 H   0  0  0  0  0  0  0  0  0  0  0  0 
    2.3955    2.2127    0.6830 H   0  0  0  0  0  0  0  0  0  0  0  0 
    3.7230    1.1924    1.2637 H   0  0  0  0  0  0  0  0  0  0  0  0 
    2.1110   -1.4848    1.4805 H   0  0  0  0  0  0  0  0  0  0  0  0 
    3.7206   -1.3274    0.7681 H   0  0  0  0  0  0  0  0  0  0  0  0 
    2.4029   -2.0474   -0.1733 H   0  0  0  0  0  0  0  0  0  0  0  0 
    9.2655    1.1070   -4.9830 H   0  0  0  0  0  0  0  0  0  0  0  0 
    9.0532   -0.0718   -3.6767 H   0  0  0  0  0  0  0  0  0  0  0  0 
    9.0738    1.6619   -3.3107 H   0  0  0  0  0  0  0  0  0  0  0  0 
    7.3351    0.0761   -6.2252 H   0  0  0  0  0  0  0  0  0  0  0  0 
    5.7294   -0.0528   -5.4979 H   0  0  0  0  0  0  0  0  0  0  0  0 
    7.0437   -1.0977   -4.9312 H   0  0  0  0  0  0  0  0  0  0  0  0 
    7.3649    2.6049   -5.6839 H   0  0  0  0  0  0  0  0  0  0  0  0 
    7.0918    3.1510   -4.0211 H   0  0  0  0  0  0  0  0  0  0  0  0 
    5.7586    2.4589   -4.9617 H   0  0  0  0  0  0  0  0  0  0  0  0 
    4.8607    1.1592   -0.7134 H   0  0  0  0  0  0  0  0  0  0  0  0 
    4.8503   -0.5620   -1.0646 H   0  0  0  0  0  0  0  0  0  0  0  0 
    4.6186    1.6616   -3.1562 H   0  0  0  0  0  0  0  0  0  0  0  0 
    4.6037   -0.0591   -3.5094 H   0  0  0  0  0  0  0  0  0  0  0  0 
    2.5551   -0.3441   -2.0740 H   0  0  0  0  0  0  0  0  0  0  0  0 
    2.5636    1.3765   -1.7262 H   0  0  0  0  0  0  0  0  0  0  0  0 
    6.9000   -0.2874   -2.5069 H   0  0  0  0  0  0  0  0  0  0  0  0 
    6.9152    1.4298   -2.1431 H   0  0  0  0  0  0  0  0  0  0  0  0 
  1 11  1  0  0  0  0 
  1 13  1  0  0  0  0 
  2 18  1  0  0  0  0 
  2 16  1  0  0  0  0 
  3 20  1  0  0  0  0 
  3 19  1  0  0  0  0 
  4 23  1  0  0  0  0 
  4 24  1  0  0  0  0 
  5 27  1  0  0  0  0 
  5 12  1  0  0  0  0 
  6 12  1  0  0  0  0 
  6 29  1  0  0  0  0 
  7  9  1  0  0  0  0 
  7 32  1  0  0  0  0 
  7 31  1  0  0  0  0 
  8  7  1  0  0  0  0 
  9 11  1  0  0  0  0 
 10  8  1  0  0  0  0 
 10 37  1  0  0  0  0 
 10 38  1  0  0  0  0 
 11  3  1  0  0  0  0 
 11  2  1  0  0  0  0 
 12  4  1  0  0  0  0 
 12 10  1  0  0  0  0 
 14  1  1  0  0  0  0 
 15  1  1  0  0  0  0 
 17  2  1  0  0  0  0 
 21  3  1  0  0  0  0 
 22  4  1  0  0  0  0 
 25  5  1  0  0  0  0 
 26  5  1  0  0  0  0 
 28  6  1  0  0  0  0 
 30  6  1  0  0  0  0 
 33  8  1  0  0  0  0 
 34  8  1  0  0  0  0 
 35  9  1  0  0  0  0 
 36  9  1  0  0  0  0 
M  END 
>  <HBA> 
0 
 
>  <HBD> 
0 
 
>  <TPSA> 
0.0 
 
>  <cid> 
66116 
 
>  <dipole> 
0.0 
 
>  <excitation_energy_1> 
7.339 
 
>  <excitation_energy_2> 
7.586 
 
>  <excitation_energy_3> 
7.732 
 
>  <excitation_energy_4> 
7.767 
 
>  <homo_energy> 
-7.807 
 
>  <homo_lumo_gap> 
9.919 
 
>  <logP> 
4.639 
 
>  <lumo_energy> 
2.112 
 
>  <melting_point> 
6.83 
 
>  <molecular_refractivity> 
59.28 
 
>  <oscillator_strength_1> 
0.0 
 
>  <oscillator_strength_2> 
0.1019 
 
>  <oscillator_strength_3> 
0.0006 
 
>  <oscillator_strength_4> 
0.0 
 
>  <open_babel_can_smiles> 
CC(CCCCC(C)(C)C)(C)C 
 
>  <mulliken_charges> 
38 
1   -0.440654 
2   -0.445116 
3   -0.445171 
4   -0.440663 
5   -0.44519 
6   -0.445007 
7   -0.265511 
8   -0.265562 
9   -0.247847 
10   -0.247802 
11   0.103039 
12   0.102911 
13   0.135784 
14   0.136321 
15   0.136294 
16   0.136421 
17   0.135742 
18   0.141988 
19   0.136392 
20   0.142081 
21   0.135696 
22   0.13579 
23   0.136308 
24   0.136322 
25   0.136405 
26   0.142068 
27   0.135744 
28   0.136397 
29   0.135682 
30   0.142009 
31   0.131101 
32   0.131142 
33   0.131079 
34   0.131171 
35   0.121191 
36   0.121124 
37   0.121152 
38   0.121171 
 
>  <lowdin_charges> 
38 
1   -0.44273 
2   -0.441866 
3   -0.443778 
4   -0.442676 
5   -0.441789 
6   -0.4438 
7   -0.278947 
8   -0.278944 
9   -0.275333 
10   -0.275293 
11   0.015058 
12   0.015059 
13   0.145597 
14   0.146508 
15   0.145366 
16   0.146503 
17   0.144965 
18   0.145478 
19   0.146736 
20   0.145572 
21   0.146383 
22   0.145621 
23   0.145257 
24   0.146541 
25   0.14652 
26   0.145542 
27   0.144866 
28   0.146727 
29   0.146415 
30   0.145506 
31   0.140305 
32   0.139121 
33   0.139049 
34   0.140365 
35   0.138157 
36   0.136909 
37   0.136879 
38   0.138151 
 
$$$$ 
 
