PCCDB-ID:  67151 
public computational chemistry database (PCCDB) project, http://pccdb.org 
 
 30 30  0  0  0  0  0  0  0  0999 V2000 
    0.1511    0.6601   -0.7300 C   0  0  0  0  0  0  0  0  0  0  0  0 
    0.7073   -0.0112    0.5242 C   0  0  0  0  0  0  0  0  0  0  0  0 
   -1.8558   -0.6410   -0.5359 C   0  0  0  0  0  0  0  0  0  0  0  0 
   -1.2975   -1.3182    0.7134 C   0  0  0  0  0  0  0  0  0  0  0  0 
   -1.9105    1.4590   -1.7883 C   0  0  0  0  0  0  0  0  0  0  0  0 
    0.7536   -2.1105    1.7842 C   0  0  0  0  0  0  0  0  0  0  0  0 
   -3.2637    2.0385   -1.3628 C   0  0  0  0  0  0  0  0  0  0  0  0 
    0.6786   -3.6165    1.5123 C   0  0  0  0  0  0  0  0  0  0  0  0 
   -1.3114    0.7126   -0.6750 N   0  0  0  0  0  0  0  0  0  0  0  0 
    0.1668   -1.3656    0.6630 N   0  0  0  0  0  0  0  0  0  0  0  0 
   -3.1244    2.7894   -0.1723 O   0  0  0  0  0  0  0  0  0  0  0  0 
    1.2576   -3.9174    0.2574 O   0  0  0  0  0  0  0  0  0  0  0  0 
    0.5061    0.1071   -1.6203 H   0  0  0  0  0  0  0  0  0  0  0  0 
    0.5367    1.6836   -0.7956 H   0  0  0  0  0  0  0  0  0  0  0  0 
    0.4661    0.6150    1.4040 H   0  0  0  0  0  0  0  0  0  0  0  0 
    1.7982   -0.0760    0.4477 H   0  0  0  0  0  0  0  0  0  0  0  0 
   -2.9460   -0.5852   -0.4556 H   0  0  0  0  0  0  0  0  0  0  0  0 
   -1.6163   -1.2582   -1.4228 H   0  0  0  0  0  0  0  0  0  0  0  0 
   -1.6906   -2.3382    0.7735 H   0  0  0  0  0  0  0  0  0  0  0  0 
   -1.6469   -0.7714    1.6100 H   0  0  0  0  0  0  0  0  0  0  0  0 
   -1.2421    2.2942   -2.0255 H   0  0  0  0  0  0  0  0  0  0  0  0 
   -2.0106    0.8435   -2.7013 H   0  0  0  0  0  0  0  0  0  0  0  0 
    1.8107   -1.8301    1.8501 H   0  0  0  0  0  0  0  0  0  0  0  0 
    0.2805   -1.8570    2.7508 H   0  0  0  0  0  0  0  0  0  0  0  0 
   -4.0087    1.2323   -1.2442 H   0  0  0  0  0  0  0  0  0  0  0  0 
   -3.6403    2.7112   -2.1413 H   0  0  0  0  0  0  0  0  0  0  0  0 
   -0.3663   -3.9685    1.5671 H   0  0  0  0  0  0  0  0  0  0  0  0 
    1.2401   -4.1600    2.2803 H   0  0  0  0  0  0  0  0  0  0  0  0 
   -2.4966    2.2672    0.3625 H   0  0  0  0  0  0  0  0  0  0  0  0 
    0.9679   -3.1845   -0.3187 H   0  0  0  0  0  0  0  0  0  0  0  0 
  1  9  1  0  0  0  0 
  1  2  1  0  0  0  0 
  2 10  1  0  0  0  0 
  2 15  1  0  0  0  0 
  3 17  1  0  0  0  0 
  3  4  1  0  0  0  0 
  4 19  1  0  0  0  0 
  4 20  1  0  0  0  0 
  5  7  1  0  0  0  0 
  5  9  1  0  0  0  0 
  6 23  1  0  0  0  0 
  6 24  1  0  0  0  0 
  7 25  1  0  0  0  0 
  7 11  1  0  0  0  0 
  8 27  1  0  0  0  0 
  8  6  1  0  0  0  0 
  8 28  1  0  0  0  0 
  9  3  1  0  0  0  0 
 10  4  1  0  0  0  0 
 10  6  1  0  0  0  0 
 11 29  1  0  0  0  0 
 12  8  1  0  0  0  0 
 13  1  1  0  0  0  0 
 14  1  1  0  0  0  0 
 16  2  1  0  0  0  0 
 18  3  1  0  0  0  0 
 21  5  1  0  0  0  0 
 22  5  1  0  0  0  0 
 26  7  1  0  0  0  0 
 30 12  1  0  0  0  0 
M  END 
>  <HBA> 
4 
 
>  <HBD> 
2 
 
>  <TPSA> 
46.94 
 
>  <cid> 
67151 
 
>  <dipole> 
0.29 
 
>  <excitation_energy_1> 
5.879 
 
>  <excitation_energy_2> 
5.883 
 
>  <excitation_energy_3> 
5.98 
 
>  <excitation_energy_4> 
6.012 
 
>  <homo_energy> 
-6.37 
 
>  <homo_lumo_gap> 
8.267 
 
>  <logP> 
-1.536 
 
>  <lumo_energy> 
1.897 
 
>  <melting_point> 
37.2 
 
>  <molecular_refractivity> 
54.4 
 
>  <oscillator_strength_1> 
0.0042 
 
>  <oscillator_strength_2> 
0.0148 
 
>  <oscillator_strength_3> 
0.001 
 
>  <oscillator_strength_4> 
0.1741 
 
>  <open_babel_can_smiles> 
OCCN1CCN(CC1)CCO 
 
>  <mulliken_charges> 
30 
1   -0.12423 
2   -0.12364 
3   -0.130664 
4   -0.130631 
5   -0.144979 
6   -0.14444 
7   -0.020108 
8   -0.020595 
9   -0.425492 
10   -0.425875 
11   -0.627028 
12   -0.627222 
13   0.124719 
14   0.147795 
15   0.124625 
16   0.147644 
17   0.151234 
18   0.125425 
19   0.1514 
20   0.125289 
21   0.149209 
22   0.121511 
23   0.149249 
24   0.121272 
25   0.117334 
26   0.142209 
27   0.11763 
28   0.14235 
29   0.392901 
30   0.393108 
 
>  <lowdin_charges> 
30 
1   -0.20378 
2   -0.202756 
3   -0.204919 
4   -0.205978 
5   -0.22117 
6   -0.218911 
7   -0.141145 
8   -0.138549 
9   -0.1946 
10   -0.194812 
11   -0.477489 
12   -0.477222 
13   0.126549 
14   0.151465 
15   0.126544 
16   0.150011 
17   0.15103 
18   0.126646 
19   0.152448 
20   0.126537 
21   0.152426 
22   0.129761 
23   0.150167 
24   0.129111 
25   0.121789 
26   0.148436 
27   0.119939 
28   0.14862 
29   0.335098 
30   0.334753 
 
$$$$ 
 
