PCCDB-ID:  21781 
public computational chemistry database (PCCDB) project, http://pccdb.org 
 
 38 38  0  0  1  0  0  0  0  0999 V2000 
   11.3185   -0.2704    5.7957 C   0  0  0  0  0  0  0  0  0  0  0  0 
   10.2009    3.5782    1.2477 C   0  0  0  0  0  0  0  0  0  0  0  0 
   10.8383   -1.6284    6.3211 C   0  0  0  0  0  0  0  0  0  0  0  0 
    9.0784    4.1253    2.1355 C   0  0  0  0  0  0  0  0  0  0  0  0 
    9.7570   -1.5673    7.4143 C   0  0  0  0  0  0  0  0  0  0  0  0 
    8.4379    3.0497    3.0226 C   0  0  0  0  0  0  0  0  0  0  0  0 
    8.3660   -1.1313    6.9630 C   0  0  0  0  0  0  0  0  0  0  0  0 
    7.3149    3.6026    3.9006 C   0  0  0  0  0  0  0  0  0  0  0  0 
    7.1184    0.7432    6.2032 C   0  0  2  0  0  0  0  0  0  0  0  0 
    7.2931    2.2639    5.9001 C   0  0  2  0  0  0  0  0  0  0  0  0 
    5.8345    1.8427    7.5824 C   0  0  0  0  0  0  0  0  0  0  0  0 
    6.0580    0.6375    7.2035 N   0  0  0  0  0  0  0  0  0  0  0  0 
    6.6029    2.8561    7.0447 N   0  0  0  0  0  0  0  0  0  0  0  0 
    4.9228    2.2077    8.4976 O   0  0  0  0  0  0  0  0  0  0  0  0 
    8.3658    0.2645    6.6653 O   0  0  0  0  0  0  0  0  0  0  0  0 
    6.6707    2.5887    4.6759 O   0  0  0  0  0  0  0  0  0  0  0  0 
   12.1145   -0.3996    5.0523 H   0  0  0  0  0  0  0  0  0  0  0  0 
   11.7198    0.3447    6.6108 H   0  0  0  0  0  0  0  0  0  0  0  0 
   10.5007    0.2900    5.3355 H   0  0  0  0  0  0  0  0  0  0  0  0 
   10.6371    4.3680    0.6260 H   0  0  0  0  0  0  0  0  0  0  0  0 
    9.8297    2.7928    0.5783 H   0  0  0  0  0  0  0  0  0  0  0  0 
   11.0074    3.1446    1.8512 H   0  0  0  0  0  0  0  0  0  0  0  0 
   11.7007   -2.1774    6.7239 H   0  0  0  0  0  0  0  0  0  0  0  0 
   10.4610   -2.2336    5.4836 H   0  0  0  0  0  0  0  0  0  0  0  0 
    8.3046    4.5855    1.5046 H   0  0  0  0  0  0  0  0  0  0  0  0 
    9.4751    4.9323    2.7681 H   0  0  0  0  0  0  0  0  0  0  0  0 
   10.0810   -0.9060    8.2295 H   0  0  0  0  0  0  0  0  0  0  0  0 
    9.6466   -2.5690    7.8527 H   0  0  0  0  0  0  0  0  0  0  0  0 
    9.2083    2.5905    3.6582 H   0  0  0  0  0  0  0  0  0  0  0  0 
    8.0248    2.2433    2.4026 H   0  0  0  0  0  0  0  0  0  0  0  0 
    7.6301   -1.3332    7.7516 H   0  0  0  0  0  0  0  0  0  0  0  0 
    8.0556   -1.7007    6.0691 H   0  0  0  0  0  0  0  0  0  0  0  0 
    6.5268    4.0373    3.2755 H   0  0  0  0  0  0  0  0  0  0  0  0 
    7.6943    4.4045    4.5539 H   0  0  0  0  0  0  0  0  0  0  0  0 
    6.8268    0.2094    5.2872 H   0  0  0  0  0  0  0  0  0  0  0  0 
    8.3503    2.5454    5.8911 H   0  0  0  0  0  0  0  0  0  0  0  0 
    6.1860    3.7734    6.9407 H   0  0  0  0  0  0  0  0  0  0  0  0 
    4.4968    1.3831    8.7911 H   0  0  0  0  0  0  0  0  0  0  0  0 
  1  3  1  0  0  0  0 
  1 18  1  0  0  0  0 
  2 22  1  0  0  0  0 
  2  4  1  0  0  0  0 
  3 23  1  0  0  0  0 
  3  5  1  0  0  0  0 
  4 26  1  0  0  0  0 
  4  6  1  0  0  0  0 
  5 28  1  0  0  0  0 
  5 27  1  0  0  0  0 
  6 29  1  0  0  0  0 
  6  8  1  0  0  0  0 
  7  5  1  0  0  0  0 
  7 31  1  0  0  0  0 
  8 34  1  0  0  0  0 
  8 16  1  0  0  0  0 
  9 35  1  6  0  0  0 
  9 15  1  0  0  0  0 
  9 12  1  0  0  0  0 
 10 36  1  6  0  0  0 
 10  9  1  0  0  0  0 
 10 13  1  0  0  0  0 
 11 14  1  0  0  0  0 
 12 11  2  0  0  0  0 
 13 11  1  0  0  0  0 
 14 38  1  0  0  0  0 
 15  7  1  0  0  0  0 
 16 10  1  0  0  0  0 
 17  1  1  0  0  0  0 
 19  1  1  0  0  0  0 
 20  2  1  0  0  0  0 
 21  2  1  0  0  0  0 
 24  3  1  0  0  0  0 
 25  4  1  0  0  0  0 
 30  6  1  0  0  0  0 
 32  7  1  0  0  0  0 
 33  8  1  0  0  0  0 
 37 13  1  0  0  0  0 
M  END 
>  <HBA> 
5 
 
>  <HBD> 
2 
 
>  <TPSA> 
59.59 
 
>  <cid> 
21781 
 
>  <dipole> 
1.71 
 
>  <excitation_energy_1> 
5.685 
 
>  <excitation_energy_2> 
6.084 
 
>  <excitation_energy_3> 
6.277 
 
>  <excitation_energy_4> 
6.29 
 
>  <homo_energy> 
-6.253 
 
>  <homo_lumo_gap> 
7.532 
 
>  <logP> 
2.242 
 
>  <lumo_energy> 
1.279 
 
>  <melting_point> 
60.88 
 
>  <molecular_refractivity> 
69.07 
 
>  <oscillator_strength_1> 
0.0038 
 
>  <oscillator_strength_2> 
0.0113 
 
>  <oscillator_strength_3> 
0.0233 
 
>  <oscillator_strength_4> 
0.0349 
 
>  <open_babel_can_smiles> 
CCCCO[C@H]1N=C(N[C@@H]1OCCCC)O 
 
>  <mulliken_charges> 
38 
1   -0.437401 
2   -0.441113 
3   -0.247441 
4   -0.258024 
5   -0.273096 
6   -0.268698 
7   -0.010209 
8   -0.036984 
9   0.230693 
10   0.225535 
11   0.680723 
12   -0.50397 
13   -0.602108 
14   -0.607794 
15   -0.488261 
16   -0.487352 
17   0.130085 
18   0.137606 
19   0.159444 
20   0.144789 
21   0.145835 
22   0.146728 
23   0.128889 
24   0.126369 
25   0.134417 
26   0.133583 
27   0.143459 
28   0.129927 
29   0.14495 
30   0.146969 
31   0.147541 
32   0.111671 
33   0.146812 
34   0.121869 
35   0.13543 
36   0.155203 
37   0.32923 
38   0.424692 
 
>  <lowdin_charges> 
38 
1   -0.451947 
2   -0.44575 
3   -0.273179 
4   -0.27538 
5   -0.282659 
6   -0.29382 
7   -0.131015 
8   -0.137032 
9   0.043207 
10   0.040771 
11   0.159599 
12   -0.303084 
13   -0.301712 
14   -0.35163 
15   -0.269646 
16   -0.265633 
17   0.14333 
18   0.146124 
19   0.154039 
20   0.152126 
21   0.149686 
22   0.150082 
23   0.140908 
24   0.137785 
25   0.141877 
26   0.140968 
27   0.149193 
28   0.146438 
29   0.146236 
30   0.150222 
31   0.144235 
32   0.124703 
33   0.149643 
34   0.12897 
35   0.136374 
36   0.146859 
37   0.285285 
38   0.37383 
 
$$$$ 
 
