PCCDB-ID:  15367 
public computational chemistry database (PCCDB) project, http://pccdb.org 
 
 16 16  0  0  0  0  0  0  0  0999 V2000 
    0.7177    1.2438   -0.2165 C   0  0  0  0  0  0  0  0  0  0  0  0 
    1.4791   -0.0171    0.2224 C   0  0  0  0  0  0  0  0  0  0  0  0 
   -0.7510    1.2570    0.2367 C   0  0  0  0  0  0  0  0  0  0  0  0 
    0.8554   -1.3078   -0.3174 C   0  0  0  0  0  0  0  0  0  0  0  0 
   -1.5519    0.0670   -0.3007 C   0  0  0  0  0  0  0  0  0  0  0  0 
   -0.8772   -1.5531    0.2471 S   0  0  0  0  0  0  0  0  0  0  0  0 
    0.7575    1.3253   -1.3133 H   0  0  0  0  0  0  0  0  0  0  0  0 
    1.2277    2.1323    0.1765 H   0  0  0  0  0  0  0  0  0  0  0  0 
    1.5127   -0.0663    1.3184 H   0  0  0  0  0  0  0  0  0  0  0  0 
    2.5192    0.0445   -0.1277 H   0  0  0  0  0  0  0  0  0  0  0  0 
   -1.2297    2.1860   -0.1037 H   0  0  0  0  0  0  0  0  0  0  0  0 
   -0.7992    1.2550    1.3333 H   0  0  0  0  0  0  0  0  0  0  0  0 
    1.4058   -2.1879    0.0300 H   0  0  0  0  0  0  0  0  0  0  0  0 
    0.8768   -1.3179   -1.4145 H   0  0  0  0  0  0  0  0  0  0  0  0 
   -1.5846    0.0868   -1.3975 H   0  0  0  0  0  0  0  0  0  0  0  0 
   -2.5855    0.0921    0.0589 H   0  0  0  0  0  0  0  0  0  0  0  0 
  1  8  1  0  0  0  0 
  1  2  1  0  0  0  0 
  1  3  1  0  0  0  0 
  2  9  1  0  0  0  0 
  3 12  1  0  0  0  0 
  4 13  1  0  0  0  0 
  4  2  1  0  0  0  0 
  4  6  1  0  0  0  0 
  5 16  1  0  0  0  0 
  5  3  1  0  0  0  0 
  5  6  1  0  0  0  0 
  7  1  1  0  0  0  0 
 10  2  1  0  0  0  0 
 11  3  1  0  0  0  0 
 14  4  1  0  0  0  0 
 15  5  1  0  0  0  0 
M  END 
>  <HBA> 
1 
 
>  <HBD> 
0 
 
>  <TPSA> 
25.3 
 
>  <cid> 
15367 
 
>  <dipole> 
1.92 
 
>  <excitation_energy_1> 
5.163 
 
>  <excitation_energy_2> 
5.323 
 
>  <excitation_energy_3> 
5.816 
 
>  <excitation_energy_4> 
5.964 
 
>  <homo_energy> 
-5.815 
 
>  <homo_lumo_gap> 
7.045 
 
>  <logP> 
1.903 
 
>  <lumo_energy> 
1.23 
 
>  <melting_point> 
5.65 
 
>  <molecular_refractivity> 
31.63 
 
>  <oscillator_strength_1> 
0.0009 
 
>  <oscillator_strength_2> 
0.0203 
 
>  <oscillator_strength_3> 
0.0308 
 
>  <oscillator_strength_4> 
0.0156 
 
>  <open_babel_can_smiles> 
C1CCCSC1 
 
>  <mulliken_charges> 
16 
1   -0.255875 
2   -0.25223 
3   -0.251991 
4   -0.41034 
5   -0.41029 
6   0.072426 
7   0.129032 
8   0.137514 
9   0.149119 
10   0.13705 
11   0.137006 
12   0.148996 
13   0.171828 
14   0.162994 
15   0.162962 
16   0.1718 
 
>  <lowdin_charges> 
16 
1   -0.277249 
2   -0.277203 
3   -0.278892 
4   -0.374736 
5   -0.37271 
6   0.079118 
7   0.135578 
8   0.147823 
9   0.147003 
10   0.145346 
11   0.146827 
12   0.146958 
13   0.16781 
14   0.149098 
15   0.149063 
16   0.166166 
 
$$$$ 
 
