PCCDB-ID:  12009 
public computational chemistry database (PCCDB) project, http://pccdb.org 
 
 15 15  0  0  0  0  0  0  0  0999 V2000 
    1.0926   -0.0335    0.0211 C   0  0  0  0  0  0  0  0  0  0  0  0 
    4.5762   -1.3138   -0.2273 C   0  0  0  0  0  0  0  0  0  0  0  0 
    3.2164   -1.2776   -0.1177 C   0  0  0  0  0  0  0  0  0  0  0  0 
    5.2264   -0.0428   -0.3189 C   0  0  0  0  0  0  0  0  0  0  0  0 
    3.2427    1.1562   -0.1936 C   0  0  0  0  0  0  0  0  0  0  0  0 
    4.6108    1.1052   -0.3052 N   0  0  0  0  0  0  0  0  0  0  0  0 
    2.5474   -0.1031   -0.0990 N   0  0  0  0  0  0  0  0  0  0  0  0 
    6.5728    0.0224   -0.4305 O   0  0  0  0  0  0  0  0  0  0  0  0 
    2.5770    2.1776   -0.1685 O   0  0  0  0  0  0  0  0  0  0  0  0 
    0.6900   -1.0464    0.0921 H   0  0  0  0  0  0  0  0  0  0  0  0 
    0.6725    0.4773   -0.8487 H   0  0  0  0  0  0  0  0  0  0  0  0 
    0.8218    0.5409    0.9102 H   0  0  0  0  0  0  0  0  0  0  0  0 
    5.1127   -2.2553   -0.2435 H   0  0  0  0  0  0  0  0  0  0  0  0 
    2.6154   -2.1787   -0.0423 H   0  0  0  0  0  0  0  0  0  0  0  0 
    6.9397   -0.8757   -0.4324 H   0  0  0  0  0  0  0  0  0  0  0  0 
  1 10  1  0  0  0  0 
  1 12  1  0  0  0  0 
  2  3  2  0  0  0  0 
  3  7  1  0  0  0  0 
  3 14  1  0  0  0  0 
  4  6  2  0  0  0  0 
  4  2  1  0  0  0  0 
  5  9  2  0  0  0  0 
  5  7  1  0  0  0  0 
  6  5  1  0  0  0  0 
  7  1  1  0  0  0  0 
  8  4  1  0  0  0  0 
 11  1  1  0  0  0  0 
 13  2  1  0  0  0  0 
 15  8  1  0  0  0  0 
M  END 
>  <HBA> 
3 
 
>  <HBD> 
1 
 
>  <TPSA> 
54.86 
 
>  <cid> 
12009 
 
>  <dipole> 
7.22 
 
>  <excitation_energy_1> 
4.607 
 
>  <excitation_energy_2> 
4.779 
 
>  <excitation_energy_3> 
5.053 
 
>  <excitation_energy_4> 
5.405 
 
>  <homo_energy> 
-6.384 
 
>  <homo_lumo_gap> 
5.268 
 
>  <logP> 
-0.926 
 
>  <lumo_energy> 
-1.116 
 
>  <melting_point> 
123.64 
 
>  <molecular_refractivity> 
32.58 
 
>  <oscillator_strength_1> 
0.0775 
 
>  <oscillator_strength_2> 
0.0007 
 
>  <oscillator_strength_3> 
0.0009 
 
>  <oscillator_strength_4> 
0.0118 
 
>  <open_babel_can_smiles> 
Cn1ccc(nc1=O)O 
 
>  <mulliken_charges> 
15 
1   -0.310441 
2   -0.26388 
3   0.120367 
4   0.524548 
5   0.700201 
6   -0.509958 
7   -0.442407 
8   -0.578065 
9   -0.509063 
10   0.152088 
11   0.19532 
12   0.195777 
13   0.141187 
14   0.171466 
15   0.412861 
 
>  <lowdin_charges> 
15 
1   -0.341898 
2   -0.287511 
3   -0.048546 
4   0.165663 
5   0.171599 
6   -0.195879 
7   -0.044797 
8   -0.335189 
9   -0.293824 
10   0.154908 
11   0.176416 
12   0.17642 
13   0.169558 
14   0.173527 
15   0.359552 
 
$$$$ 
 
