PCCDB-ID:  21496 
public computational chemistry database (PCCDB) project, http://pccdb.org 
 
 36 37  0  0  0  0  0  0  0  0999 V2000 
   -1.4190   -2.5773    0.0582 C   0  0  0  0  0  0  0  0  0  0  0  0 
    8.8724    4.1074   -0.9438 C   0  0  0  0  0  0  0  0  0  0  0  0 
   -0.7282   -2.6334   -1.1537 C   0  0  0  0  0  0  0  0  0  0  0  0 
   -0.7039   -2.5484    1.2567 C   0  0  0  0  0  0  0  0  0  0  0  0 
    8.3924    3.8423    0.3399 C   0  0  0  0  0  0  0  0  0  0  0  0 
    8.8134    3.1108   -1.9196 C   0  0  0  0  0  0  0  0  0  0  0  0 
    0.6670   -2.6582   -1.1638 C   0  0  0  0  0  0  0  0  0  0  0  0 
    0.6913   -2.5735    1.2405 C   0  0  0  0  0  0  0  0  0  0  0  0 
    7.8557    2.5900    0.6420 C   0  0  0  0  0  0  0  0  0  0  0  0 
    8.2759    1.8603   -1.6118 C   0  0  0  0  0  0  0  0  0  0  0  0 
    2.9120   -2.6171    0.0171 C   0  0  0  0  0  0  0  0  0  0  0  0 
    7.1700    0.2361   -0.0085 C   0  0  0  0  0  0  0  0  0  0  0  0 
    3.4885   -1.1936   -0.0521 C   0  0  0  0  0  0  0  0  0  0  0  0 
    5.6575    0.2061   -0.2824 C   0  0  0  0  0  0  0  0  0  0  0  0 
    1.3984   -2.6261    0.0314 C   0  0  0  0  0  0  0  0  0  0  0  0 
    7.7868    1.5810   -0.3283 C   0  0  0  0  0  0  0  0  0  0  0  0 
    5.0125   -1.1480   -0.0051 C   0  0  0  0  0  0  0  0  0  0  0  0 
    5.6774   -2.1376    0.2417 O   0  0  0  0  0  0  0  0  0  0  0  0 
   -2.5055   -2.5604    0.0686 H   0  0  0  0  0  0  0  0  0  0  0  0 
    9.2926    5.0812   -1.1808 H   0  0  0  0  0  0  0  0  0  0  0  0 
   -1.2758   -2.6651   -2.0922 H   0  0  0  0  0  0  0  0  0  0  0  0 
   -1.2323   -2.5133    2.2060 H   0  0  0  0  0  0  0  0  0  0  0  0 
    8.4419    4.6085    1.1095 H   0  0  0  0  0  0  0  0  0  0  0  0 
    9.1927    3.3041   -2.9199 H   0  0  0  0  0  0  0  0  0  0  0  0 
    1.1979   -2.7098   -2.1124 H   0  0  0  0  0  0  0  0  0  0  0  0 
    1.2416   -2.5589    2.1793 H   0  0  0  0  0  0  0  0  0  0  0  0 
    7.4908    2.3886    1.6473 H   0  0  0  0  0  0  0  0  0  0  0  0 
    8.2415    1.0858   -2.3756 H   0  0  0  0  0  0  0  0  0  0  0  0 
    3.3071   -3.1108    0.9110 H   0  0  0  0  0  0  0  0  0  0  0  0 
    3.2865   -3.1919   -0.8378 H   0  0  0  0  0  0  0  0  0  0  0  0 
    7.6471   -0.5545   -0.5971 H   0  0  0  0  0  0  0  0  0  0  0  0 
    7.3442   -0.0206    1.0427 H   0  0  0  0  0  0  0  0  0  0  0  0 
    3.1105   -0.5890    0.7864 H   0  0  0  0  0  0  0  0  0  0  0  0 
    3.1416   -0.6726   -0.9556 H   0  0  0  0  0  0  0  0  0  0  0  0 
    5.4563    0.4632   -1.3335 H   0  0  0  0  0  0  0  0  0  0  0  0 
    5.1370    0.9779    0.3021 H   0  0  0  0  0  0  0  0  0  0  0  0 
  1 19  1  0  0  0  0 
  1  4  2  0  0  0  0 
  2  5  2  0  0  0  0 
  3  1  1  0  0  0  0 
  4 22  1  0  0  0  0 
  5  9  1  0  0  0  0 
  5 23  1  0  0  0  0 
  6 10  2  0  0  0  0 
  6  2  1  0  0  0  0 
  7  3  2  0  0  0  0 
  7 15  1  0  0  0  0 
  8  4  1  0  0  0  0 
  8 26  1  0  0  0  0 
  9 27  1  0  0  0  0 
 10 16  1  0  0  0  0 
 11 15  1  0  0  0  0 
 11 29  1  0  0  0  0 
 12 32  1  0  0  0  0 
 13 17  1  0  0  0  0 
 13 11  1  0  0  0  0 
 13 33  1  0  0  0  0 
 14 12  1  0  0  0  0 
 14 17  1  0  0  0  0 
 14 36  1  0  0  0  0 
 15  8  2  0  0  0  0 
 16 12  1  0  0  0  0 
 16  9  2  0  0  0  0 
 17 18  2  0  0  0  0 
 20  2  1  0  0  0  0 
 21  3  1  0  0  0  0 
 24  6  1  0  0  0  0 
 25  7  1  0  0  0  0 
 28 10  1  0  0  0  0 
 30 11  1  0  0  0  0 
 31 12  1  0  0  0  0 
 34 13  1  0  0  0  0 
 35 14  1  0  0  0  0 
M  END 
>  <HBA> 
1 
 
>  <HBD> 
0 
 
>  <TPSA> 
17.07 
 
>  <cid> 
21496 
 
>  <dipole> 
2.37 
 
>  <excitation_energy_1> 
4.356 
 
>  <excitation_energy_2> 
5.251 
 
>  <excitation_energy_3> 
5.253 
 
>  <excitation_energy_4> 
5.491 
 
>  <homo_energy> 
-6.291 
 
>  <homo_lumo_gap> 
5.872 
 
>  <logP> 
3.821 
 
>  <lumo_energy> 
-0.419 
 
>  <melting_point> 
56.28 
 
>  <molecular_refractivity> 
75.32 
 
>  <oscillator_strength_1> 
0.0 
 
>  <oscillator_strength_2> 
0.0042 
 
>  <oscillator_strength_3> 
0.0002 
 
>  <oscillator_strength_4> 
0.0024 
 
>  <open_babel_can_smiles> 
O=C(CCc1ccccc1)CCc1ccccc1 
 
>  <mulliken_charges> 
36 
1   -0.131481 
2   -0.131424 
3   -0.127725 
4   -0.127653 
5   -0.127705 
6   -0.12773 
7   -0.180974 
8   -0.182097 
9   -0.181187 
10   -0.182005 
11   -0.346209 
12   -0.345809 
13   -0.355952 
14   -0.355991 
15   0.167965 
16   0.167937 
17   0.463124 
18   -0.448581 
19   0.127993 
20   0.127958 
21   0.128331 
22   0.12852 
23   0.128381 
24   0.128535 
25   0.121316 
26   0.12311 
27   0.12152 
28   0.122947 
29   0.164378 
30   0.155026 
31   0.163806 
32   0.155353 
33   0.167815 
34   0.160335 
35   0.167524 
36   0.160654 
 
>  <lowdin_charges> 
36 
1   -0.158772 
2   -0.160823 
3   -0.15545 
4   -0.155203 
5   -0.15622 
6   -0.153765 
7   -0.169277 
8   -0.169169 
9   -0.167951 
10   -0.170178 
11   -0.26995 
12   -0.268366 
13   -0.309825 
14   -0.308609 
15   -0.001054 
16   -0.000957 
17   0.164969 
18   -0.237334 
19   0.154919 
20   0.156612 
21   0.157135 
22   0.157126 
23   0.157791 
24   0.156283 
25   0.153429 
26   0.154301 
27   0.152611 
28   0.154832 
29   0.161984 
30   0.157547 
31   0.162322 
32   0.155616 
33   0.166845 
34   0.161487 
35   0.164684 
36   0.162409 
 
$$$$ 
 
