PCCDB-ID:  11558 
public computational chemistry database (PCCDB) project, http://pccdb.org 
 
 13 13  0  0  1  0  0  0  0  0999 V2000 
    0.9895   -0.0182   -0.1694 C   0  0  0  0  0  0  0  0  0  0  0  0 
    3.0429    1.0337    0.9271 C   0  0  0  0  0  0  0  0  0  0  0  0 
    3.6002    0.5306    2.0299 C   0  0  0  0  0  0  0  0  0  0  0  0 
    2.4939   -0.0886    0.0860 C   0  0  1  0  0  0  0  0  0  0  0  0 
    3.4683   -0.9483    1.9971 C   0  0  0  0  0  0  0  0  0  0  0  0 
    3.8364   -1.7742    2.7928 O   0  0  0  0  0  0  0  0  0  0  0  0 
    2.8089   -1.2776    0.8321 O   0  0  0  0  0  0  0  0  0  0  0  0 
    0.7457    0.8691   -0.7643 H   0  0  0  0  0  0  0  0  0  0  0  0 
    0.4437    0.0318    0.7777 H   0  0  0  0  0  0  0  0  0  0  0  0 
    0.6600   -0.9054   -0.7176 H   0  0  0  0  0  0  0  0  0  0  0  0 
    2.9672    2.0760    0.6360 H   0  0  0  0  0  0  0  0  0  0  0  0 
    4.0805    1.0480    2.8498 H   0  0  0  0  0  0  0  0  0  0  0  0 
    3.0287   -0.1528   -0.8723 H   0  0  0  0  0  0  0  0  0  0  0  0 
  1  4  1  0  0  0  0 
  1  9  1  0  0  0  0 
  2  3  2  0  0  0  0 
  3 12  1  0  0  0  0 
  4 13  1  6  0  0  0 
  4  7  1  0  0  0  0 
  4  2  1  0  0  0  0 
  5  3  1  0  0  0  0 
  5  6  2  0  0  0  0 
  7  5  1  0  0  0  0 
  8  1  1  0  0  0  0 
 10  1  1  0  0  0  0 
 11  2  1  0  0  0  0 
M  END 
>  <HBA> 
2 
 
>  <HBD> 
0 
 
>  <TPSA> 
26.3 
 
>  <cid> 
11558 
 
>  <dipole> 
4.91 
 
>  <excitation_energy_1> 
4.683 
 
>  <excitation_energy_2> 
5.96 
 
>  <excitation_energy_3> 
6.531 
 
>  <excitation_energy_4> 
6.961 
 
>  <homo_energy> 
-7.312 
 
>  <homo_lumo_gap> 
6.063 
 
>  <logP> 
0.488 
 
>  <lumo_energy> 
-1.249 
 
>  <melting_point> 
18.91 
 
>  <molecular_refractivity> 
24.85 
 
>  <oscillator_strength_1> 
0.0001 
 
>  <oscillator_strength_2> 
0.1622 
 
>  <oscillator_strength_3> 
0.1303 
 
>  <oscillator_strength_4> 
0.0328 
 
>  <open_babel_can_smiles> 
C[C@H]1C=CC(=O)O1 
 
>  <mulliken_charges> 
13 
1   -0.44834 
2   -0.125572 
3   -0.172282 
4   0.098209 
5   0.594442 
6   -0.464473 
7   -0.468141 
8   0.151021 
9   0.167068 
10   0.175186 
11   0.162358 
12   0.165327 
13   0.165197 
 
>  <lowdin_charges> 
13 
1   -0.44599 
2   -0.135118 
3   -0.192929 
4   0.010948 
5   0.192898 
6   -0.237692 
7   -0.197481 
8   0.158816 
9   0.163466 
10   0.169042 
11   0.172623 
12   0.182749 
13   0.158668 
 
$$$$ 
 
