PCCDB-ID:  59662 
public computational chemistry database (PCCDB) project, http://pccdb.org 
 
 25 25  0  0  0  0  0  0  0  0999 V2000 
    5.5466   -4.8221    0.5791 C   0  0  0  0  0  0  0  0  0  0  0  0 
    6.5245   -4.6399   -0.3082 C   0  0  0  0  0  0  0  0  0  0  0  0 
    4.4902   -2.3157   -2.1910 C   0  0  0  0  0  0  0  0  0  0  0  0 
    6.9467   -3.3156   -0.9037 C   0  0  0  0  0  0  0  0  0  0  0  0 
    2.9564   -2.3364   -2.1049 C   0  0  0  0  0  0  0  0  0  0  0  0 
    0.9985   -0.7876   -2.3141 C   0  0  0  0  0  0  0  0  0  0  0  0 
    2.0129   -0.3559   -3.3174 C   0  0  0  0  0  0  0  0  0  0  0  0 
    5.1779   -1.7436   -0.9469 C   0  0  0  0  0  0  0  0  0  0  0  0 
    6.2354   -2.1676   -0.3810 N   0  0  0  0  0  0  0  0  0  0  0  0 
    2.4239   -0.9685   -2.0518 N   0  0  0  0  0  0  0  0  0  0  0  0 
    4.5881   -0.6464   -0.4171 O   0  0  0  0  0  0  0  0  0  0  0  0 
    5.3094   -5.8103    0.9639 H   0  0  0  0  0  0  0  0  0  0  0  0 
    4.9712   -3.9861    0.9654 H   0  0  0  0  0  0  0  0  0  0  0  0 
    7.1032   -5.4969   -0.6572 H   0  0  0  0  0  0  0  0  0  0  0  0 
    4.7877   -1.7233   -3.0684 H   0  0  0  0  0  0  0  0  0  0  0  0 
    4.8351   -3.3378   -2.3610 H   0  0  0  0  0  0  0  0  0  0  0  0 
    6.9035   -3.4042   -2.0049 H   0  0  0  0  0  0  0  0  0  0  0  0 
    8.0141   -3.1718   -0.6773 H   0  0  0  0  0  0  0  0  0  0  0  0 
    2.6394   -2.8507   -1.1900 H   0  0  0  0  0  0  0  0  0  0  0  0 
    2.5425   -2.8980   -2.9593 H   0  0  0  0  0  0  0  0  0  0  0  0 
    0.4150   -1.6789   -2.5431 H   0  0  0  0  0  0  0  0  0  0  0  0 
    0.4933   -0.0556   -1.6893 H   0  0  0  0  0  0  0  0  0  0  0  0 
    2.2582    0.6964   -3.4349 H   0  0  0  0  0  0  0  0  0  0  0  0 
    2.1130   -0.9566   -4.2211 H   0  0  0  0  0  0  0  0  0  0  0  0 
    3.7435   -0.4680   -0.8982 H   0  0  0  0  0  0  0  0  0  0  0  0 
  1 12  1  0  0  0  0 
  1 13  1  0  0  0  0 
  2  1  2  0  0  0  0 
  3  5  1  0  0  0  0 
  3  8  1  0  0  0  0 
  4 18  1  0  0  0  0 
  4  9  1  0  0  0  0 
  4  2  1  0  0  0  0 
  5 10  1  0  0  0  0 
  5 19  1  0  0  0  0 
  6 10  1  0  0  0  0 
  6 22  1  0  0  0  0 
  7  6  1  0  0  0  0 
  7 10  1  0  0  0  0 
  8 11  1  0  0  0  0 
  8  9  2  0  0  0  0 
 14  2  1  0  0  0  0 
 15  3  1  0  0  0  0 
 16  3  1  0  0  0  0 
 17  4  1  0  0  0  0 
 20  5  1  0  0  0  0 
 21  6  1  0  0  0  0 
 23  7  1  0  0  0  0 
 24  7  1  0  0  0  0 
 25 11  1  0  0  0  0 
M  END 
>  <HBA> 
3 
 
>  <HBD> 
1 
 
>  <TPSA> 
32.11 
 
>  <cid> 
59662 
 
>  <dipole> 
5.96 
 
>  <excitation_energy_1> 
5.417 
 
>  <excitation_energy_2> 
5.688 
 
>  <excitation_energy_3> 
5.866 
 
>  <excitation_energy_4> 
5.895 
 
>  <homo_energy> 
-6.087 
 
>  <homo_lumo_gap> 
6.991 
 
>  <logP> 
0.323 
 
>  <lumo_energy> 
0.903 
 
>  <melting_point> 
11.37 
 
>  <molecular_refractivity> 
47.79 
 
>  <oscillator_strength_1> 
0.0012 
 
>  <oscillator_strength_2> 
0.0027 
 
>  <oscillator_strength_3> 
0.0297 
 
>  <oscillator_strength_4> 
0.0059 
 
>  <open_babel_can_smiles> 
C=CC/N=C(\CCN1CC1)/O 
 
>  <mulliken_charges> 
25 
1   -0.338697 
2   -0.06575 
3   -0.366717 
4   -0.189313 
5   -0.144493 
6   -0.187188 
7   -0.192774 
8   0.498182 
9   -0.422279 
10   -0.402611 
11   -0.612637 
12   0.13061 
13   0.153916 
14   0.119523 
15   0.166548 
16   0.17132 
17   0.120368 
18   0.157145 
19   0.171294 
20   0.132356 
21   0.158812 
22   0.174153 
23   0.174245 
24   0.158901 
25   0.435087 
 
>  <lowdin_charges> 
25 
1   -0.350624 
2   -0.161447 
3   -0.317785 
4   -0.19748 
5   -0.201273 
6   -0.235142 
7   -0.238196 
8   0.127509 
9   -0.219573 
10   -0.195979 
11   -0.383631 
12   0.154857 
13   0.16542 
14   0.14946 
15   0.163138 
16   0.170101 
17   0.125644 
18   0.153951 
19   0.158339 
20   0.136254 
21   0.157371 
22   0.16913 
23   0.165822 
24   0.155901 
25   0.348234 
 
$$$$ 
 
