PCCDB-ID:  21156 
public computational chemistry database (PCCDB) project, http://pccdb.org 
 
 21 21  0  0  0  0  0  0  0  0999 V2000 
    2.6976    1.1741   -0.1938 C   0  0  0  0  0  0  0  0  0  0  0  0 
    4.3365   -1.8980   -3.4986 C   0  0  0  0  0  0  0  0  0  0  0  0 
    4.5649   -0.8602   -4.4082 C   0  0  0  0  0  0  0  0  0  0  0  0 
    3.8200   -1.6321   -2.2367 C   0  0  0  0  0  0  0  0  0  0  0  0 
    3.7590    0.7337   -2.7761 C   0  0  0  0  0  0  0  0  0  0  0  0 
    4.5713    1.5974   -5.0098 C   0  0  0  0  0  0  0  0  0  0  0  0 
    4.2834    0.4590   -4.0478 C   0  0  0  0  0  0  0  0  0  0  0  0 
    3.5264   -0.3086   -1.8743 C   0  0  0  0  0  0  0  0  0  0  0  0 
    3.5772    2.6727   -4.8992 N   0  0  0  0  0  0  0  0  0  0  0  0 
    3.0148   -0.1416   -0.6173 O   0  0  0  0  0  0  0  0  0  0  0  0 
    2.3096    1.0762    0.8221 H   0  0  0  0  0  0  0  0  0  0  0  0 
    1.9311    1.6318   -0.8331 H   0  0  0  0  0  0  0  0  0  0  0  0 
    3.5848    1.8211   -0.1829 H   0  0  0  0  0  0  0  0  0  0  0  0 
    4.5573   -2.9243   -3.7809 H   0  0  0  0  0  0  0  0  0  0  0  0 
    4.9600   -1.0790   -5.3974 H   0  0  0  0  0  0  0  0  0  0  0  0 
    3.6289   -2.4246   -1.5198 H   0  0  0  0  0  0  0  0  0  0  0  0 
    3.5316    1.7636   -2.5291 H   0  0  0  0  0  0  0  0  0  0  0  0 
    4.6732    1.1802   -6.0270 H   0  0  0  0  0  0  0  0  0  0  0  0 
    5.5469    2.0403   -4.7631 H   0  0  0  0  0  0  0  0  0  0  0  0 
    2.6731    2.3345   -5.2266 H   0  0  0  0  0  0  0  0  0  0  0  0 
    3.8378    3.4438   -5.5114 H   0  0  0  0  0  0  0  0  0  0  0  0 
  1 13  1  0  0  0  0 
  1 11  1  0  0  0  0 
  2  4  2  0  0  0  0 
  3  7  2  0  0  0  0 
  3  2  1  0  0  0  0 
  4  8  1  0  0  0  0 
  4 16  1  0  0  0  0 
  5 17  1  0  0  0  0 
  5  8  2  0  0  0  0 
  6  9  1  0  0  0  0 
  6 19  1  0  0  0  0 
  6  7  1  0  0  0  0 
  7  5  1  0  0  0  0 
  8 10  1  0  0  0  0 
 10  1  1  0  0  0  0 
 12  1  1  0  0  0  0 
 14  2  1  0  0  0  0 
 15  3  1  0  0  0  0 
 18  6  1  0  0  0  0 
 20  9  1  0  0  0  0 
 21  9  1  0  0  0  0 
M  END 
>  <HBA> 
2 
 
>  <HBD> 
1 
 
>  <TPSA> 
35.25 
 
>  <cid> 
21156 
 
>  <dipole> 
1.93 
 
>  <excitation_energy_1> 
4.92 
 
>  <excitation_energy_2> 
5.37 
 
>  <excitation_energy_3> 
5.463 
 
>  <excitation_energy_4> 
5.64 
 
>  <homo_energy> 
-5.698 
 
>  <homo_lumo_gap> 
5.867 
 
>  <logP> 
1.854 
 
>  <lumo_energy> 
0.169 
 
>  <melting_point> 
67.51 
 
>  <molecular_refractivity> 
40.61 
 
>  <oscillator_strength_1> 
0.0421 
 
>  <oscillator_strength_2> 
0.0076 
 
>  <oscillator_strength_3> 
0.0144 
 
>  <oscillator_strength_4> 
0.0716 
 
>  <open_babel_can_smiles> 
NCc1cccc(c1)OC 
 
>  <mulliken_charges> 
21 
1   -0.212408 
2   -0.132026 
3   -0.194223 
4   -0.172088 
5   -0.242983 
6   -0.208045 
7   0.136542 
8   0.378358 
9   -0.717518 
10   -0.510459 
11   0.164882 
12   0.15276 
13   0.152141 
14   0.125825 
15   0.113777 
16   0.132673 
17   0.153651 
18   0.123465 
19   0.157508 
20   0.299146 
21   0.29902 
 
>  <lowdin_charges> 
21 
1   -0.278436 
2   -0.147157 
3   -0.191989 
4   -0.188613 
5   -0.218741 
6   -0.200922 
7   -0.005641 
8   0.103351 
9   -0.555254 
10   -0.202812 
11   0.159117 
12   0.146869 
13   0.145954 
14   0.155546 
15   0.150647 
16   0.165147 
17   0.172524 
18   0.124964 
19   0.152277 
20   0.255737 
21   0.25743 
 
$$$$ 
 
