PCCDB-ID:  7898 
public computational chemistry database (PCCDB) project, http://pccdb.org 
 
 10  9  0  0  0  0  0  0  0  0999 V2000 
    0.9992    0.1691   -0.3396 C   0  0  0  0  0  0  0  0  0  0  0  0 
    0.4362   -0.9361   -1.1161 C   0  0  0  0  0  0  0  0  0  0  0  0 
    2.5017   -0.0000   -0.0224 C   0  0  0  0  0  0  0  0  0  0  0  0 
    0.0516   -1.8610   -1.7039 N   0  0  0  0  0  0  0  0  0  0  0  0 
    3.3017    0.9490    0.2237 N   0  0  0  0  0  0  0  0  0  0  0  0 
    2.9528   -1.2705    0.0714 O   0  0  0  0  0  0  0  0  0  0  0  0 
    0.4494    0.2396    0.6085 H   0  0  0  0  0  0  0  0  0  0  0  0 
    0.8448    1.1102   -0.8762 H   0  0  0  0  0  0  0  0  0  0  0  0 
    2.8370    1.8537    0.1421 H   0  0  0  0  0  0  0  0  0  0  0  0 
    2.2965   -1.8992   -0.2729 H   0  0  0  0  0  0  0  0  0  0  0  0 
  1  3  1  0  0  0  0 
  1  7  1  0  0  0  0 
  2  1  1  0  0  0  0 
  3  6  1  0  0  0  0 
  3  5  2  0  0  0  0 
  4  2  3  0  0  0  0 
  8  1  1  0  0  0  0 
  9  5  1  0  0  0  0 
 10  6  1  0  0  0  0 
M  END 
>  <HBA> 
3 
 
>  <HBD> 
1 
 
>  <TPSA> 
66.88 
 
>  <cid> 
7898 
 
>  <dipole> 
3.29 
 
>  <excitation_energy_1> 
6.102 
 
>  <excitation_energy_2> 
6.371 
 
>  <excitation_energy_3> 
6.464 
 
>  <excitation_energy_4> 
6.794 
 
>  <homo_energy> 
-7.753 
 
>  <homo_lumo_gap> 
7.562 
 
>  <logP> 
0.086 
 
>  <lumo_energy> 
-0.19 
 
>  <melting_point> 
84.97 
 
>  <molecular_refractivity> 
19.19 
 
>  <oscillator_strength_1> 
0.0025 
 
>  <oscillator_strength_2> 
0.0006 
 
>  <oscillator_strength_3> 
0.0162 
 
>  <oscillator_strength_4> 
0.0198 
 
>  <open_babel_can_smiles> 
OC(=N)CC#N 
 
>  <mulliken_charges> 
10 
1   -0.428721 
2   0.336512 
3   0.495694 
4   -0.451429 
5   -0.562325 
6   -0.563921 
7   0.23595 
8   0.218953 
9   0.291473 
10   0.427813 
 
>  <lowdin_charges> 
10 
1   -0.311232 
2   -0.028634 
3   0.135385 
4   -0.105052 
5   -0.377981 
6   -0.347974 
7   0.206226 
8   0.199145 
9   0.261777 
10   0.368341 
 
$$$$ 
 
