PCCDB-ID:  61297 
public computational chemistry database (PCCDB) project, http://pccdb.org 
 
 26 25  0  0  0  0  0  0  0  0999 V2000 
    2.4280    4.4691   -2.5093 C   0  0  0  0  0  0  0  0  0  0  0  0 
    5.9925   -1.2907   -2.4576 C   0  0  0  0  0  0  0  0  0  0  0  0 
    7.6190   -0.1849   -0.8802 C   0  0  0  0  0  0  0  0  0  0  0  0 
    5.4359   -1.0711    0.0167 C   0  0  0  0  0  0  0  0  0  0  0  0 
    2.6492    2.9647   -2.3273 C   0  0  0  0  0  0  0  0  0  0  0  0 
    4.0880    2.6299   -1.9295 C   0  0  0  0  0  0  0  0  0  0  0  0 
    4.3278    1.1402   -1.7402 C   0  0  0  0  0  0  0  0  0  0  0  0 
    6.1421   -0.4431   -1.1897 C   0  0  0  0  0  0  0  0  0  0  0  0 
    3.4721    0.2861   -1.8529 O   0  0  0  0  0  0  0  0  0  0  0  0 
    5.6217    0.9167   -1.4284 O   0  0  0  0  0  0  0  0  0  0  0  0 
    1.3921    4.6831   -2.7947 H   0  0  0  0  0  0  0  0  0  0  0  0 
    3.0795    4.8779   -3.2917 H   0  0  0  0  0  0  0  0  0  0  0  0 
    2.6383    5.0199   -1.5840 H   0  0  0  0  0  0  0  0  0  0  0  0 
    6.4842   -2.2593   -2.3118 H   0  0  0  0  0  0  0  0  0  0  0  0 
    6.4713   -0.7920   -3.3076 H   0  0  0  0  0  0  0  0  0  0  0  0 
    4.9417   -1.4639   -2.6950 H   0  0  0  0  0  0  0  0  0  0  0  0 
    8.1340   -1.1312   -0.6835 H   0  0  0  0  0  0  0  0  0  0  0  0 
    7.7231    0.4562    0.0012 H   0  0  0  0  0  0  0  0  0  0  0  0 
    8.1104    0.3087   -1.7249 H   0  0  0  0  0  0  0  0  0  0  0  0 
    5.9136   -2.0258    0.2644 H   0  0  0  0  0  0  0  0  0  0  0  0 
    4.3804   -1.2512   -0.1929 H   0  0  0  0  0  0  0  0  0  0  0  0 
    5.5178   -0.4145    0.8900 H   0  0  0  0  0  0  0  0  0  0  0  0 
    2.4002    2.4326   -3.2530 H   0  0  0  0  0  0  0  0  0  0  0  0 
    1.9664    2.5718   -1.5650 H   0  0  0  0  0  0  0  0  0  0  0  0 
    4.3668    3.1351   -0.9945 H   0  0  0  0  0  0  0  0  0  0  0  0 
    4.8025    2.9936   -2.6803 H   0  0  0  0  0  0  0  0  0  0  0  0 
  1  5  1  0  0  0  0 
  1 13  1  0  0  0  0 
  2 14  1  0  0  0  0 
  2  8  1  0  0  0  0 
  3 17  1  0  0  0  0 
  3 18  1  0  0  0  0 
  4 20  1  0  0  0  0 
  4 22  1  0  0  0  0 
  5  6  1  0  0  0  0 
  5 24  1  0  0  0  0 
  6  7  1  0  0  0  0 
  6 25  1  0  0  0  0 
  7 10  1  0  0  0  0 
  8  3  1  0  0  0  0 
  8  4  1  0  0  0  0 
  9  7  2  0  0  0  0 
 10  8  1  0  0  0  0 
 11  1  1  0  0  0  0 
 12  1  1  0  0  0  0 
 15  2  1  0  0  0  0 
 16  2  1  0  0  0  0 
 19  3  1  0  0  0  0 
 21  4  1  0  0  0  0 
 23  5  1  0  0  0  0 
 26  6  1  0  0  0  0 
M  END 
>  <HBA> 
2 
 
>  <HBD> 
0 
 
>  <TPSA> 
26.3 
 
>  <cid> 
61297 
 
>  <dipole> 
1.7 
 
>  <excitation_energy_1> 
5.693 
 
>  <excitation_energy_2> 
6.715 
 
>  <excitation_energy_3> 
7.174 
 
>  <excitation_energy_4> 
7.446 
 
>  <homo_energy> 
-7.042 
 
>  <homo_lumo_gap> 
7.557 
 
>  <logP> 
2.128 
 
>  <lumo_energy> 
0.514 
 
>  <melting_point> 
-4.43 
 
>  <molecular_refractivity> 
41.89 
 
>  <oscillator_strength_1> 
0.0006 
 
>  <oscillator_strength_2> 
0.0332 
 
>  <oscillator_strength_3> 
0.0016 
 
>  <oscillator_strength_4> 
0.0005 
 
>  <open_babel_can_smiles> 
CCCC(=O)OC(C)(C)C 
 
>  <mulliken_charges> 
26 
1   -0.446778 
2   -0.465518 
3   -0.448647 
4   -0.465608 
5   -0.241392 
6   -0.351266 
7   0.634236 
8   0.311764 
9   -0.48754 
10   -0.499869 
11   0.147102 
12   0.141142 
13   0.141163 
14   0.142427 
15   0.145998 
16   0.186086 
17   0.144811 
18   0.152802 
19   0.152826 
20   0.142362 
21   0.186078 
22   0.146141 
23   0.149336 
24   0.15084 
25   0.166045 
26   0.16546 
 
>  <lowdin_charges> 
26 
1   -0.445272 
2   -0.456038 
3   -0.44547 
4   -0.455452 
5   -0.269839 
6   -0.303162 
7   0.20371 
8   0.145144 
9   -0.274848 
10   -0.203256 
11   0.151342 
12   0.147138 
13   0.14635 
14   0.15424 
15   0.153979 
16   0.170741 
17   0.154003 
18   0.156452 
19   0.157091 
20   0.154374 
21   0.170528 
22   0.153592 
23   0.150763 
24   0.15243 
25   0.165515 
26   0.165945 
 
$$$$ 
 
