PCCDB-ID:  58408 
public computational chemistry database (PCCDB) project, http://pccdb.org 
 
 38 37  0  0  0  0  0  0  0  0999 V2000 
    3.4603   -0.9492   -2.6229 C   0  0  0  0  0  0  0  0  0  0  0  0 
    2.7779   -2.1938   -2.0424 C   0  0  0  0  0  0  0  0  0  0  0  0 
    3.3326   -2.6497   -0.6824 C   0  0  0  0  0  0  0  0  0  0  0  0 
    4.7861   -3.1426   -0.7145 C   0  0  0  0  0  0  0  0  0  0  0  0 
    5.2799   -3.6544    0.6458 C   0  0  0  0  0  0  0  0  0  0  0  0 
    6.7351   -4.1407    0.6139 C   0  0  0  0  0  0  0  0  0  0  0  0 
    7.2368   -4.7438    1.9366 C   0  0  0  0  0  0  0  0  0  0  0  0 
    7.3177   -3.7669    3.1161 C   0  0  0  0  0  0  0  0  0  0  0  0 
    9.9191    0.3894    3.9556 C   0  0  0  0  0  0  0  0  0  0  0  0 
    8.4292   -1.6449    3.7480 C   0  0  0  0  0  0  0  0  0  0  0  0 
   10.6086    1.1677    3.1986 N   0  0  0  0  0  0  0  0  0  0  0  0 
    9.6617    0.4895    5.3043 N   0  0  0  0  0  0  0  0  0  0  0  0 
    7.7646   -1.4447    4.8335 N   0  0  0  0  0  0  0  0  0  0  0  0 
    8.2529   -2.6842    2.8364 N   0  0  0  0  0  0  0  0  0  0  0  0 
    9.4272   -0.7737    3.3303 N   0  0  0  0  0  0  0  0  0  0  0  0 
    2.9835   -0.6410   -3.5604 H   0  0  0  0  0  0  0  0  0  0  0  0 
    4.5205   -1.1249   -2.8370 H   0  0  0  0  0  0  0  0  0  0  0  0 
    3.3987   -0.1048   -1.9250 H   0  0  0  0  0  0  0  0  0  0  0  0 
    2.8560   -3.0230   -2.7604 H   0  0  0  0  0  0  0  0  0  0  0  0 
    1.7043   -1.9904   -1.9310 H   0  0  0  0  0  0  0  0  0  0  0  0 
    2.6952   -3.4573   -0.2944 H   0  0  0  0  0  0  0  0  0  0  0  0 
    3.2464   -1.8224    0.0380 H   0  0  0  0  0  0  0  0  0  0  0  0 
    5.4488   -2.3342   -1.0523 H   0  0  0  0  0  0  0  0  0  0  0  0 
    4.8793   -3.9461   -1.4607 H   0  0  0  0  0  0  0  0  0  0  0  0 
    4.6285   -4.4746    0.9839 H   0  0  0  0  0  0  0  0  0  0  0  0 
    5.1703   -2.8502    1.3865 H   0  0  0  0  0  0  0  0  0  0  0  0 
    7.3877   -3.3082    0.3202 H   0  0  0  0  0  0  0  0  0  0  0  0 
    6.8387   -4.9036   -0.1701 H   0  0  0  0  0  0  0  0  0  0  0  0 
    8.2304   -5.1895    1.7803 H   0  0  0  0  0  0  0  0  0  0  0  0 
    6.5816   -5.5725    2.2365 H   0  0  0  0  0  0  0  0  0  0  0  0 
    7.5981   -4.3213    4.0276 H   0  0  0  0  0  0  0  0  0  0  0  0 
    6.3336   -3.3222    3.3020 H   0  0  0  0  0  0  0  0  0  0  0  0 
   10.9652    1.9628    3.7308 H   0  0  0  0  0  0  0  0  0  0  0  0 
    9.7678    1.4198    5.6849 H   0  0  0  0  0  0  0  0  0  0  0  0 
    8.8402   -0.0330    5.6172 H   0  0  0  0  0  0  0  0  0  0  0  0 
    7.1504   -2.2255    5.0514 H   0  0  0  0  0  0  0  0  0  0  0  0 
    9.1112   -2.9857    2.3876 H   0  0  0  0  0  0  0  0  0  0  0  0 
    9.6511   -0.7684    2.3437 H   0  0  0  0  0  0  0  0  0  0  0  0 
  1  2  1  0  0  0  0 
  1 18  1  0  0  0  0 
  2 20  1  0  0  0  0 
  2  3  1  0  0  0  0 
  3 21  1  0  0  0  0 
  3 22  1  0  0  0  0 
  4  3  1  0  0  0  0 
  4  5  1  0  0  0  0 
  5 25  1  0  0  0  0 
  5 26  1  0  0  0  0 
  6  5  1  0  0  0  0 
  6  7  1  0  0  0  0 
  7 30  1  0  0  0  0 
  7  8  1  0  0  0  0 
  8 32  1  0  0  0  0 
  8 31  1  0  0  0  0 
  9 12  2  0  0  0  0 
 10 13  2  0  0  0  0 
 11 33  1  0  0  0  0 
 11  9  1  0  0  0  0 
 12 35  1  0  0  0  0 
 12 34  1  0  0  0  0 
 13 36  1  0  0  0  0 
 14  8  1  0  0  0  0 
 14 10  1  0  0  0  0 
 15 10  1  0  0  0  0 
 15  9  1  0  0  0  0 
 16  1  1  0  0  0  0 
 17  1  1  0  0  0  0 
 19  2  1  0  0  0  0 
 23  4  1  0  0  0  0 
 24  4  1  0  0  0  0 
 27  6  1  0  0  0  0 
 28  6  1  0  0  0  0 
 29  7  1  0  0  0  0 
 37 14  1  0  0  0  0 
 38 15  1  0  0  0  0 
M  RAD  1  11   2 
M  END 
>  <HBA> 
5 
 
>  <HBD> 
3 
 
>  <TPSA> 
102.78 
 
>  <cid> 
58408 
 
>  <dipole> 
3.47 
 
>  <excitation_energy_1> 
5.223 
 
>  <excitation_energy_2> 
5.57 
 
>  <excitation_energy_3> 
5.648 
 
>  <excitation_energy_4> 
5.855 
 
>  <homo_energy> 
-5.723 
 
>  <homo_lumo_gap> 
6.596 
 
>  <logP> 
3.036 
 
>  <lumo_energy> 
0.873 
 
>  <melting_point> 
169.25 
 
>  <molecular_refractivity> 
65.68 
 
>  <oscillator_strength_1> 
0.0007 
 
>  <oscillator_strength_2> 
0.0027 
 
>  <oscillator_strength_3> 
0.0026 
 
>  <oscillator_strength_4> 
0.011 
 
>  <open_babel_can_smiles> 
CCCCCCCCNC(=N)NC(=[NH2])[NH] 
 
>  <mulliken_charges> 
38 
1   -0.443662 
2   -0.248648 
3   -0.250655 
4   -0.254399 
5   -0.258677 
6   -0.247981 
7   -0.295396 
8   -0.130577 
9   0.60969 
10   0.719497 
11   -0.667432 
12   -0.763031 
13   -0.711122 
14   -0.627096 
15   -0.67201 
16   0.142562 
17   0.146172 
18   0.142349 
19   0.128926 
20   0.131204 
21   0.126077 
22   0.128397 
23   0.136175 
24   0.126064 
25   0.125558 
26   0.138958 
27   0.13948 
28   0.133029 
29   0.133783 
30   0.144386 
31   0.142007 
32   0.163018 
33   0.26709 
34   0.315599 
35   0.375375 
36   0.293136 
37   0.321804 
38   0.340348 
 
>  <lowdin_charges> 
38 
1   -0.446399 
2   -0.271712 
3   -0.277303 
4   -0.277255 
5   -0.277967 
6   -0.279442 
7   -0.280304 
8   -0.202001 
9   0.143941 
10   0.145463 
11   -0.495197 
12   -0.501927 
13   -0.490557 
14   -0.315097 
15   -0.260972 
16   0.150194 
17   0.145726 
18   0.147185 
19   0.138746 
20   0.140214 
21   0.140303 
22   0.138647 
23   0.142412 
24   0.137452 
25   0.137248 
26   0.142565 
27   0.144517 
28   0.14413 
29   0.141868 
30   0.151535 
31   0.135676 
32   0.151593 
33   0.248342 
34   0.27583 
35   0.300899 
36   0.259775 
37   0.277761 
38   0.294109 
 
$$$$ 
 
