PCCDB-ID:  49976 
public computational chemistry database (PCCDB) project, http://pccdb.org 
 
 21 20  0  0  0  0  0  0  0  0999 V2000 
    6.6238   -0.1819    3.2531 C   0  0  0  0  0  0  0  0  0  0  0  0 
    6.2186   -1.2156    2.2146 C   0  0  0  0  0  0  0  0  0  0  0  0 
    4.1850    0.4345   -0.4137 C   0  0  0  0  0  0  0  0  0  0  0  0 
    4.4724   -0.2204    0.9373 C   0  0  0  0  0  0  0  0  0  0  0  0 
    1.7469   -0.0644   -0.8644 C   0  0  0  0  0  0  0  0  0  0  0  0 
    0.5016    0.1519   -0.8968 N   0  0  0  0  0  0  0  0  0  0  0  0 
    2.3809    2.0818   -0.1668 N   0  0  0  0  0  0  0  0  0  0  0  0 
    2.7928    0.8336   -0.5310 N   0  0  0  0  0  0  0  0  0  0  0  0 
    3.6566   -0.3862    1.8128 O   0  0  0  0  0  0  0  0  0  0  0  0 
    2.2727   -1.2671   -1.1876 O   0  0  0  0  0  0  0  0  0  0  0  0 
    3.2675    2.8242    0.2075 O   0  0  0  0  0  0  0  0  0  0  0  0 
    5.7662   -0.5800    0.9883 O   0  0  0  0  0  0  0  0  0  0  0  0 
    7.0294   -0.6870    4.1371 H   0  0  0  0  0  0  0  0  0  0  0  0 
    5.7606    0.4131    3.5647 H   0  0  0  0  0  0  0  0  0  0  0  0 
    7.3932    0.4888    2.8573 H   0  0  0  0  0  0  0  0  0  0  0  0 
    5.4203   -1.8630    2.5848 H   0  0  0  0  0  0  0  0  0  0  0  0 
    7.0672   -1.8271    1.8997 H   0  0  0  0  0  0  0  0  0  0  0  0 
    4.4392   -0.2526   -1.2208 H   0  0  0  0  0  0  0  0  0  0  0  0 
    4.7916    1.3381   -0.5089 H   0  0  0  0  0  0  0  0  0  0  0  0 
    0.2776    1.1057   -0.6173 H   0  0  0  0  0  0  0  0  0  0  0  0 
    1.5043   -1.8328   -1.3854 H   0  0  0  0  0  0  0  0  0  0  0  0 
  1 14  1  0  0  0  0 
  1 13  1  0  0  0  0 
  2 16  1  0  0  0  0 
  2  1  1  0  0  0  0 
  3  4  1  0  0  0  0 
  4 12  1  0  0  0  0 
  4  9  2  0  0  0  0 
  5  8  1  0  0  0  0 
  6  5  2  0  0  0  0 
  6 20  1  0  0  0  0 
  7 11  1  0  0  0  0 
  8  3  1  0  0  0  0 
  8  7  1  0  0  0  0 
 10  5  1  0  0  0  0 
 12  2  1  0  0  0  0 
 15  1  1  0  0  0  0 
 17  2  1  0  0  0  0 
 18  3  1  0  0  0  0 
 19  3  1  0  0  0  0 
 21 10  1  0  0  0  0 
M  RAD  2   7   2  11   2 
M  END 
>  <HBA> 
7 
 
>  <HBD> 
1 
 
>  <TPSA> 
102.06 
 
>  <cid> 
49976 
 
>  <dipole> 
3.82 
 
>  <excitation_energy_1> 
3.1 
 
>  <excitation_energy_2> 
4.604 
 
>  <excitation_energy_3> 
5.012 
 
>  <excitation_energy_4> 
5.024 
 
>  <homo_energy> 
-6.936 
 
>  <homo_lumo_gap> 
4.947 
 
>  <logP> 
0.312 
 
>  <lumo_energy> 
-1.989 
 
>  <melting_point> 
94.2 
 
>  <molecular_refractivity> 
38.36 
 
>  <oscillator_strength_1> 
0.0013 
 
>  <oscillator_strength_2> 
0.0518 
 
>  <oscillator_strength_3> 
0.0008 
 
>  <oscillator_strength_4> 
0.0086 
 
>  <open_babel_can_smiles> 
CCOC(=O)CN(C(=N)O)[N][O] 
 
>  <mulliken_charges> 
21 
1   -0.463354 
2   -0.049285 
3   -0.256684 
4   0.641758 
5   0.706451 
6   -0.63461 
7   0.195809 
8   -0.306624 
9   -0.461839 
10   -0.606219 
11   -0.339134 
12   -0.458374 
13   0.155446 
14   0.1812 
15   0.161728 
16   0.176223 
17   0.158981 
18   0.220116 
19   0.221977 
20   0.323773 
21   0.432661 
 
>  <lowdin_charges> 
21 
1   -0.456689 
2   -0.127071 
3   -0.245704 
4   0.195719 
5   0.164011 
6   -0.424321 
7   0.087976 
8   -0.03453 
9   -0.252434 
10   -0.361126 
11   -0.21267 
12   -0.190375 
13   0.162495 
14   0.168735 
15   0.159672 
16   0.162789 
17   0.156582 
18   0.196841 
19   0.196333 
20   0.276336 
21   0.37743 
 
$$$$ 
 
