PCCDB-ID:  12657 
public computational chemistry database (PCCDB) project, http://pccdb.org 
 
 22 22  0  0  0  0  0  0  0  0999 V2000 
   -0.6852    1.2201    0.8382 C   0  0  0  0  0  0  0  0  0  0  0  0 
    0.5278    1.7604    0.0598 C   0  0  0  0  0  0  0  0  0  0  0  0 
   -1.7844    0.5377    0.0110 C   0  0  0  0  0  0  0  0  0  0  0  0 
    1.3792    0.7412   -0.7288 C   0  0  0  0  0  0  0  0  0  0  0  0 
   -1.3197   -0.6932   -0.8047 C   0  0  0  0  0  0  0  0  0  0  0  0 
    1.7324   -0.5691    0.0089 C   0  0  0  0  0  0  0  0  0  0  0  0 
   -0.4597   -1.6571    0.0083 C   0  0  0  0  0  0  0  0  0  0  0  0 
    0.7564   -1.5916    0.3393 N   0  0  0  0  0  0  0  0  0  0  0  0 
   -1.1462   -2.7416    0.5100 O   0  0  0  0  0  0  0  0  0  0  0  0 
   -1.1437    2.0606    1.3762 H   0  0  0  0  0  0  0  0  0  0  0  0 
   -0.3374    0.5230    1.6102 H   0  0  0  0  0  0  0  0  0  0  0  0 
    1.1825    2.2575    0.7889 H   0  0  0  0  0  0  0  0  0  0  0  0 
    0.1962    2.5498   -0.6303 H   0  0  0  0  0  0  0  0  0  0  0  0 
   -2.2354    1.2585   -0.6844 H   0  0  0  0  0  0  0  0  0  0  0  0 
   -2.5850    0.2259    0.6950 H   0  0  0  0  0  0  0  0  0  0  0  0 
    2.3394    1.2229   -0.9612 H   0  0  0  0  0  0  0  0  0  0  0  0 
    0.9341    0.5240   -1.7049 H   0  0  0  0  0  0  0  0  0  0  0  0 
   -0.7634   -0.3716   -1.6848 H   0  0  0  0  0  0  0  0  0  0  0  0 
   -2.2021   -1.2192   -1.1942 H   0  0  0  0  0  0  0  0  0  0  0  0 
    2.2164   -0.2980    0.9594 H   0  0  0  0  0  0  0  0  0  0  0  0 
    2.5191   -1.0762   -0.5686 H   0  0  0  0  0  0  0  0  0  0  0  0 
   -2.0525   -2.7258    0.1694 H   0  0  0  0  0  0  0  0  0  0  0  0 
  1 10  1  0  0  0  0 
  1 11  1  0  0  0  0 
  2 12  1  0  0  0  0 
  2  1  1  0  0  0  0 
  3 15  1  0  0  0  0 
  3  1  1  0  0  0  0 
  4  6  1  0  0  0  0 
  4  2  1  0  0  0  0 
  5  7  1  0  0  0  0 
  5  3  1  0  0  0  0 
  6  8  1  0  0  0  0 
  6 20  1  0  0  0  0 
  7  8  2  0  0  0  0 
  7  9  1  0  0  0  0 
 13  2  1  0  0  0  0 
 14  3  1  0  0  0  0 
 16  4  1  0  0  0  0 
 17  4  1  0  0  0  0 
 18  5  1  0  0  0  0 
 19  5  1  0  0  0  0 
 21  6  1  0  0  0  0 
 22  9  1  0  0  0  0 
M  END 
>  <HBA> 
2 
 
>  <HBD> 
1 
 
>  <TPSA> 
29.1 
 
>  <cid> 
12657 
 
>  <dipole> 
3.45 
 
>  <excitation_energy_1> 
5.317 
 
>  <excitation_energy_2> 
5.65 
 
>  <excitation_energy_3> 
5.765 
 
>  <excitation_energy_4> 
5.996 
 
>  <homo_energy> 
-6.185 
 
>  <homo_lumo_gap> 
6.977 
 
>  <logP> 
1.395 
 
>  <lumo_energy> 
0.792 
 
>  <melting_point> 
43.92 
 
>  <molecular_refractivity> 
40.57 
 
>  <oscillator_strength_1> 
0.0003 
 
>  <oscillator_strength_2> 
0.0107 
 
>  <oscillator_strength_3> 
0.0073 
 
>  <oscillator_strength_4> 
0.0099 
 
>  <open_babel_can_smiles> 
OC1=NCCCCCC1 
 
>  <mulliken_charges> 
22 
1   -0.270512 
2   -0.253889 
3   -0.249453 
4   -0.284033 
5   -0.363503 
6   -0.148583 
7   0.471791 
8   -0.407306 
9   -0.581464 
10   0.133108 
11   0.158196 
12   0.135281 
13   0.127638 
14   0.138036 
15   0.137044 
16   0.134061 
17   0.135974 
18   0.168766 
19   0.128346 
20   0.145642 
21   0.147768 
22   0.397092 
 
>  <lowdin_charges> 
22 
1   -0.287027 
2   -0.281394 
3   -0.273562 
4   -0.30014 
5   -0.316133 
6   -0.203718 
7   0.124208 
8   -0.209552 
9   -0.377924 
10   0.147847 
11   0.153347 
12   0.146297 
13   0.140934 
14   0.146135 
15   0.145709 
16   0.149571 
17   0.138607 
18   0.164477 
19   0.14627 
20   0.146884 
21   0.152706 
22   0.346458 
 
$$$$ 
 
