PCCDB-ID:  46246 
public computational chemistry database (PCCDB) project, http://pccdb.org 
 
 32 32  0  0  1  0  0  0  0  0999 V2000 
    1.2850   -1.4262    0.0421 C   0  0  0  0  0  0  0  0  0  0  0  0 
    2.9661    3.7293   -2.7888 C   0  0  0  0  0  0  0  0  0  0  0  0 
    3.7289   -3.6091   -2.8096 C   0  0  0  0  0  0  0  0  0  0  0  0 
    3.7648    0.4067   -4.0603 C   0  0  0  0  0  0  0  0  0  0  0  0 
    3.7753   -0.9236   -3.6493 C   0  0  0  0  0  0  0  0  0  0  0  0 
    2.9944    1.0544   -1.8690 C   0  0  0  0  0  0  0  0  0  0  0  0 
    3.7089   -1.2606    0.8139 C   0  0  0  0  0  0  0  0  0  0  0  0 
    3.3695    1.4056   -3.1700 C   0  0  0  0  0  0  0  0  0  0  0  0 
    3.0018   -0.2749   -1.4332 C   0  0  0  0  0  0  0  0  0  0  0  0 
    3.3956   -1.2742   -2.3480 C   0  0  0  0  0  0  0  0  0  0  0  0 
    2.5626   -0.5797    0.0207 C   0  0  1  0  0  0  0  0  0  0  0  0 
    4.7669   -0.2605    1.0438 N   0  0  0  0  0  0  0  0  0  0  0  0 
    2.2591    0.6292    0.7115 O   0  0  0  0  0  0  0  0  0  0  0  0 
    3.3810    2.6873   -3.6553 O   0  0  0  0  0  0  0  0  0  0  0  0 
    3.3839   -2.5796   -1.9003 O   0  0  0  0  0  0  0  0  0  0  0  0 
    1.4357   -2.3849   -0.4589 H   0  0  0  0  0  0  0  0  0  0  0  0 
    0.4791   -0.8861   -0.4648 H   0  0  0  0  0  0  0  0  0  0  0  0 
    0.9796   -1.6004    1.0794 H   0  0  0  0  0  0  0  0  0  0  0  0 
    3.0403    4.6503   -3.3708 H   0  0  0  0  0  0  0  0  0  0  0  0 
    3.6149    3.8064   -1.9058 H   0  0  0  0  0  0  0  0  0  0  0  0 
    1.9283    3.5928   -2.4567 H   0  0  0  0  0  0  0  0  0  0  0  0 
    3.6324   -4.5442   -2.2539 H   0  0  0  0  0  0  0  0  0  0  0  0 
    4.7626   -3.5077   -3.1675 H   0  0  0  0  0  0  0  0  0  0  0  0 
    3.0517   -3.6308   -3.6739 H   0  0  0  0  0  0  0  0  0  0  0  0 
    4.0567    0.6803   -5.0694 H   0  0  0  0  0  0  0  0  0  0  0  0 
    4.0816   -1.6850   -4.3573 H   0  0  0  0  0  0  0  0  0  0  0  0 
    2.6644    1.7976   -1.1553 H   0  0  0  0  0  0  0  0  0  0  0  0 
    4.0475   -2.1684    0.3036 H   0  0  0  0  0  0  0  0  0  0  0  0 
    3.3078   -1.5423    1.7940 H   0  0  0  0  0  0  0  0  0  0  0  0 
    5.3225   -0.1388    0.1987 H   0  0  0  0  0  0  0  0  0  0  0  0 
    5.4008   -0.5682    1.7769 H   0  0  0  0  0  0  0  0  0  0  0  0 
    3.1296    0.9141    1.0669 H   0  0  0  0  0  0  0  0  0  0  0  0 
  1 18  1  0  0  0  0 
  2 21  1  0  0  0  0 
  2 20  1  0  0  0  0 
  3 22  1  0  0  0  0 
  3 15  1  0  0  0  0 
  4  5  2  0  0  0  0 
  4  8  1  0  0  0  0 
  5 10  1  0  0  0  0 
  6  9  1  0  0  0  0 
  6 27  1  0  0  0  0 
  7 12  1  0  0  0  0 
  7 29  1  0  0  0  0 
  8  6  2  0  0  0  0 
  9 11  1  0  0  0  0 
 10 15  1  0  0  0  0 
 10  9  2  0  0  0  0 
 11  1  1  0  0  0  0 
 11 13  1  1  0  0  0 
 11  7  1  0  0  0  0 
 12 31  1  0  0  0  0 
 13 32  1  0  0  0  0 
 14  8  1  0  0  0  0 
 14  2  1  0  0  0  0 
 16  1  1  0  0  0  0 
 17  1  1  0  0  0  0 
 19  2  1  0  0  0  0 
 23  3  1  0  0  0  0 
 24  3  1  0  0  0  0 
 25  4  1  0  0  0  0 
 26  5  1  0  0  0  0 
 28  7  1  0  0  0  0 
 30 12  1  0  0  0  0 
M  END 
>  <HBA> 
4 
 
>  <HBD> 
2 
 
>  <TPSA> 
64.71 
 
>  <cid> 
46246 
 
>  <dipole> 
3.01 
 
>  <excitation_energy_1> 
4.627 
 
>  <excitation_energy_2> 
4.775 
 
>  <excitation_energy_3> 
5.093 
 
>  <excitation_energy_4> 
5.318 
 
>  <homo_energy> 
-5.241 
 
>  <homo_lumo_gap> 
5.372 
 
>  <logP> 
1.57 
 
>  <lumo_energy> 
0.131 
 
>  <melting_point> 
97.85 
 
>  <molecular_refractivity> 
57.76 
 
>  <oscillator_strength_1> 
0.0785 
 
>  <oscillator_strength_2> 
0.002 
 
>  <oscillator_strength_3> 
0.0023 
 
>  <oscillator_strength_4> 
0.0064 
 
>  <open_babel_can_smiles> 
COc1ccc(c(c1)[C@@](CN)(O)C)OC 
 
>  <mulliken_charges> 
32 
1   -0.453272 
2   -0.211243 
3   -0.213392 
4   -0.184047 
5   -0.196791 
6   -0.275362 
7   -0.178375 
8   0.393057 
9   0.052773 
10   0.309512 
11   0.286129 
12   -0.75709 
13   -0.669852 
14   -0.518365 
15   -0.520319 
16   0.157522 
17   0.154109 
18   0.142619 
19   0.163284 
20   0.148465 
21   0.154803 
22   0.166108 
23   0.148269 
24   0.153152 
25   0.133687 
26   0.129495 
27   0.152729 
28   0.155274 
29   0.142859 
30   0.313939 
31   0.310023 
32   0.410303 
 
>  <lowdin_charges> 
32 
1   -0.446759 
2   -0.27722 
3   -0.278228 
4   -0.177989 
5   -0.204603 
6   -0.212759 
7   -0.228401 
8   0.087017 
9   -0.042347 
10   0.072695 
11   0.123348 
12   -0.558484 
13   -0.46468 
14   -0.207845 
15   -0.21248 
16   0.158399 
17   0.159661 
18   0.150321 
19   0.159335 
20   0.143507 
21   0.14512 
22   0.160486 
23   0.141339 
24   0.145921 
25   0.16402 
26   0.16313 
27   0.177041 
28   0.145136 
29   0.146641 
30   0.263305 
31   0.264711 
32   0.340662 
 
$$$$ 
 
