PCCDB-ID:  8617 
public computational chemistry database (PCCDB) project, http://pccdb.org 
 
 28 29  0  0  0  0  0  0  0  0999 V2000 
    2.3425   -0.1145    0.5553 C   0  0  0  0  0  0  0  0  0  0  0  0 
    2.1734    1.2796    0.4237 C   0  0  0  0  0  0  0  0  0  0  0  0 
   -1.3795   -3.2449    1.4373 C   0  0  0  0  0  0  0  0  0  0  0  0 
   -1.7207   -2.4913    0.1304 C   0  0  0  0  0  0  0  0  0  0  0  0 
    1.2597   -0.9793    0.4713 C   0  0  0  0  0  0  0  0  0  0  0  0 
    0.9199    1.8343    0.1994 C   0  0  0  0  0  0  0  0  0  0  0  0 
   -1.9151   -2.5980    2.7327 C   0  0  0  0  0  0  0  0  0  0  0  0 
   -2.2014    0.0212   -0.1199 C   0  0  0  0  0  0  0  0  0  0  0  0 
   -1.3427   -1.0328    0.1037 C   0  0  0  0  0  0  0  0  0  0  0  0 
   -0.0264   -0.4512    0.2506 C   0  0  0  0  0  0  0  0  0  0  0  0 
   -0.1675    0.9578    0.1103 C   0  0  0  0  0  0  0  0  0  0  0  0 
   -3.4353   -2.4988    2.7460 C   0  0  0  0  0  0  0  0  0  0  0  0 
   -1.5029    1.2150   -0.1171 N   0  0  0  0  0  0  0  0  0  0  0  0 
   -4.1658   -3.3606    3.1691 O   0  0  0  0  0  0  0  0  0  0  0  0 
   -3.9575   -1.3647    2.2011 O   0  0  0  0  0  0  0  0  0  0  0  0 
    3.3384   -0.5145    0.7239 H   0  0  0  0  0  0  0  0  0  0  0  0 
    3.0397    1.9311    0.4971 H   0  0  0  0  0  0  0  0  0  0  0  0 
   -0.2919   -3.3340    1.5398 H   0  0  0  0  0  0  0  0  0  0  0  0 
   -1.7731   -4.2654    1.3622 H   0  0  0  0  0  0  0  0  0  0  0  0 
   -2.7962   -2.5784   -0.0663 H   0  0  0  0  0  0  0  0  0  0  0  0 
   -1.2202   -3.0157   -0.6956 H   0  0  0  0  0  0  0  0  0  0  0  0 
    1.4081   -2.0511    0.5673 H   0  0  0  0  0  0  0  0  0  0  0  0 
    0.7901    2.9080    0.0919 H   0  0  0  0  0  0  0  0  0  0  0  0 
   -1.4608   -1.6085    2.8629 H   0  0  0  0  0  0  0  0  0  0  0  0 
   -1.6265   -3.2151    3.5878 H   0  0  0  0  0  0  0  0  0  0  0  0 
   -3.2635    0.0069   -0.3296 H   0  0  0  0  0  0  0  0  0  0  0  0 
   -1.9085    2.1268   -0.2601 H   0  0  0  0  0  0  0  0  0  0  0  0 
   -3.2344   -0.7997    1.8693 H   0  0  0  0  0  0  0  0  0  0  0  0 
  1 16  1  0  0  0  0 
  2 17  1  0  0  0  0 
  2  1  2  0  0  0  0 
  3 18  1  0  0  0  0 
  3  7  1  0  0  0  0 
  4  3  1  0  0  0  0 
  5  1  1  0  0  0  0 
  5 22  1  0  0  0  0 
  6  2  1  0  0  0  0 
  7 12  1  0  0  0  0 
  7 24  1  0  0  0  0 
  7 25  1  0  0  0  0 
  8 13  1  0  0  0  0 
  8  9  2  0  0  0  0 
  9  4  1  0  0  0  0 
  9 10  1  0  0  0  0 
 10  5  2  0  0  0  0 
 11  6  2  0  0  0  0 
 11 10  1  0  0  0  0 
 12 14  2  0  0  0  0 
 13 11  1  0  0  0  0 
 15 12  1  0  0  0  0 
 19  3  1  0  0  0  0 
 20  4  1  0  0  0  0 
 21  4  1  0  0  0  0 
 23  6  1  0  0  0  0 
 26  8  1  0  0  0  0 
 27 13  1  0  0  0  0 
 28 15  1  0  0  0  0 
M  END 
>  <HBA> 
2 
 
>  <HBD> 
2 
 
>  <TPSA> 
53.09 
 
>  <cid> 
8617 
 
>  <dipole> 
5.13 
 
>  <excitation_energy_1> 
4.606 
 
>  <excitation_energy_2> 
4.835 
 
>  <excitation_energy_3> 
4.934 
 
>  <excitation_energy_4> 
5.205 
 
>  <homo_energy> 
-5.823 
 
>  <homo_lumo_gap> 
5.227 
 
>  <logP> 
2.575 
 
>  <lumo_energy> 
-0.596 
 
>  <melting_point> 
174.93 
 
>  <molecular_refractivity> 
59.46 
 
>  <oscillator_strength_1> 
0.0641 
 
>  <oscillator_strength_2> 
0.0404 
 
>  <oscillator_strength_3> 
0.0053 
 
>  <oscillator_strength_4> 
0.0093 
 
>  <open_babel_can_smiles> 
OC(=O)CCCc1c[nH]c2c1cccc2 
 
>  <mulliken_charges> 
28 
1   -0.138998 
2   -0.149261 
3   -0.267222 
4   -0.36008 
5   -0.208969 
6   -0.160652 
7   -0.367311 
8   -0.044181 
9   0.05561 
10   0.078441 
11   0.312659 
12   0.579825 
13   -0.684369 
14   -0.445799 
15   -0.585842 
16   0.126448 
17   0.129249 
18   0.151045 
19   0.161658 
20   0.158746 
21   0.156668 
22   0.130355 
23   0.126727 
24   0.154812 
25   0.174782 
26   0.172278 
27   0.332066 
28   0.411316 
 
>  <lowdin_charges> 
28 
1   -0.172786 
2   -0.159089 
3   -0.265988 
4   -0.27803 
5   -0.159788 
6   -0.18328 
7   -0.318893 
8   -0.153672 
9   -0.06534 
10   -0.040412 
11   0.033998 
12   0.195314 
13   -0.199827 
14   -0.24885 
15   -0.37409 
16   0.15708 
17   0.159449 
18   0.14777 
19   0.156121 
20   0.155295 
21   0.159608 
22   0.15564 
23   0.156237 
24   0.15563 
25   0.17427 
26   0.171084 
27   0.294083 
28   0.348464 
 
$$$$ 
 
