PCCDB-ID:  42746 
public computational chemistry database (PCCDB) project, http://pccdb.org 
 
 23 22  0  0  1  0  0  0  0  0999 V2000 
    5.1282    2.3402   -2.1659 C   0  0  0  0  0  0  0  0  0  0  0  0 
    0.5862    2.4533   -1.5633 C   0  0  0  0  0  0  0  0  0  0  0  0 
    0.2333   -0.2884   -5.0586 C   0  0  0  0  0  0  0  0  0  0  0  0 
    4.0478    2.3479   -3.2499 C   0  0  0  0  0  0  0  0  0  0  0  0 
    1.7081    1.8767   -2.4117 C   0  0  2  0  0  0  0  0  0  0  0  0 
    0.7566    0.0829   -3.6919 C   0  0  0  0  0  0  0  0  0  0  0  0 
    2.4282    4.1242   -2.7497 N   0  0  0  0  0  0  0  0  0  0  0  0 
    2.7492    2.8171   -2.7513 N   0  0  0  0  0  0  0  0  0  0  0  0 
    0.8072   -0.6544   -2.7317 O   0  0  0  0  0  0  0  0  0  0  0  0 
    3.3305    4.8738   -3.1048 O   0  0  0  0  0  0  0  0  0  0  0  0 
    1.1680    1.3778   -3.6727 O   0  0  0  0  0  0  0  0  0  0  0  0 
    6.0756    1.9835   -2.5849 H   0  0  0  0  0  0  0  0  0  0  0  0 
    4.8551    1.6817   -1.3339 H   0  0  0  0  0  0  0  0  0  0  0  0 
    5.2824    3.3498   -1.7760 H   0  0  0  0  0  0  0  0  0  0  0  0 
    0.9864    2.8660   -0.6329 H   0  0  0  0  0  0  0  0  0  0  0  0 
   -0.1057    1.6428   -1.3193 H   0  0  0  0  0  0  0  0  0  0  0  0 
    0.0536    3.2427   -2.0952 H   0  0  0  0  0  0  0  0  0  0  0  0 
   -0.6351    0.3313   -5.3056 H   0  0  0  0  0  0  0  0  0  0  0  0 
   -0.0501   -1.3413   -5.0647 H   0  0  0  0  0  0  0  0  0  0  0  0 
    0.9950   -0.0984   -5.8214 H   0  0  0  0  0  0  0  0  0  0  0  0 
    3.8904    1.3483   -3.6643 H   0  0  0  0  0  0  0  0  0  0  0  0 
    4.3321    3.0189   -4.0646 H   0  0  0  0  0  0  0  0  0  0  0  0 
    2.1698    1.0267   -1.9046 H   0  0  0  0  0  0  0  0  0  0  0  0 
  1 14  1  0  0  0  0 
  1 13  1  0  0  0  0 
  2 16  1  0  0  0  0 
  2 15  1  0  0  0  0 
  3  6  1  0  0  0  0 
  4  8  1  0  0  0  0 
  4  1  1  0  0  0  0 
  5 23  1  1  0  0  0 
  5  2  1  0  0  0  0 
  6 11  1  0  0  0  0 
  6  9  2  0  0  0  0 
  8  7  1  0  0  0  0 
  8  5  1  0  0  0  0 
 10  7  1  0  0  0  0 
 11  5  1  0  0  0  0 
 12  1  1  0  0  0  0 
 17  2  1  0  0  0  0 
 18  3  1  0  0  0  0 
 19  3  1  0  0  0  0 
 20  3  1  0  0  0  0 
 21  4  1  0  0  0  0 
 22  4  1  0  0  0  0 
M  RAD  2   7   2  10   2 
M  END 
>  <HBA> 
5 
 
>  <HBD> 
0 
 
>  <TPSA> 
58.97 
 
>  <cid> 
42746 
 
>  <dipole> 
2.35 
 
>  <excitation_energy_1> 
3.249 
 
>  <excitation_energy_2> 
5.583 
 
>  <excitation_energy_3> 
5.628 
 
>  <excitation_energy_4> 
5.816 
 
>  <homo_energy> 
-6.24 
 
>  <homo_lumo_gap> 
5.102 
 
>  <logP> 
0.899 
 
>  <lumo_energy> 
-1.137 
 
>  <melting_point> 
7.57 
 
>  <molecular_refractivity> 
39.88 
 
>  <oscillator_strength_1> 
0.0008 
 
>  <oscillator_strength_2> 
0.0128 
 
>  <oscillator_strength_3> 
0.0582 
 
>  <oscillator_strength_4> 
0.0136 
 
>  <open_babel_can_smiles> 
CCN([C@H](OC(=O)C)C)[N][O] 
 
>  <mulliken_charges> 
23 
1   -0.446317 
2   -0.464928 
3   -0.523974 
4   -0.154496 
5   0.240997 
6   0.605291 
7   0.167374 
8   -0.228422 
9   -0.465301 
10   -0.373408 
11   -0.45999 
12   0.155592 
13   0.151445 
14   0.179751 
15   0.167401 
16   0.173053 
17   0.186409 
18   0.188742 
19   0.186179 
20   0.184155 
21   0.161881 
22   0.187398 
23   0.181166 
 
>  <lowdin_charges> 
23 
1   -0.44836 
2   -0.455192 
3   -0.46391 
4   -0.211407 
5   0.057342 
6   0.205806 
7   0.065587 
8   -0.043204 
9   -0.264779 
10   -0.258081 
11   -0.209481 
12   0.159255 
13   0.152624 
14   0.166367 
15   0.16852 
16   0.169829 
17   0.174727 
18   0.18248 
19   0.176597 
20   0.179888 
21   0.157342 
22   0.172437 
23   0.165613 
 
$$$$ 
 
