PCCDB-ID:  25868 
public computational chemistry database (PCCDB) project, http://pccdb.org 
 
 17 16  0  0  0  0  0  0  0  0999 V2000 
    1.2368   -0.0357    0.1447 C   0  0  0  0  0  0  0  0  0  0  0  0 
    1.0454   -1.0806    1.2544 C   0  0  0  0  0  0  0  0  0  0  0  0 
    2.6923    0.3808   -0.0998 C   0  0  0  0  0  0  0  0  0  0  0  0 
    1.6798   -2.4398    0.9505 C   0  0  0  0  0  0  0  0  0  0  0  0 
    3.3081    0.9065    1.1264 N   0  0  0  0  0  0  0  0  0  0  0  0 
    1.2408   -3.0077   -0.2834 O   0  0  0  0  0  0  0  0  0  0  0  0 
    0.6480    0.8598    0.3929 H   0  0  0  0  0  0  0  0  0  0  0  0 
    0.8297   -0.4253   -0.7962 H   0  0  0  0  0  0  0  0  0  0  0  0 
   -0.0325   -1.2233    1.4288 H   0  0  0  0  0  0  0  0  0  0  0  0 
    1.4705   -0.7049    2.1926 H   0  0  0  0  0  0  0  0  0  0  0  0 
    2.7129    1.0889   -0.9481 H   0  0  0  0  0  0  0  0  0  0  0  0 
    3.2761   -0.4919   -0.4156 H   0  0  0  0  0  0  0  0  0  0  0  0 
    1.4931   -3.1306    1.7889 H   0  0  0  0  0  0  0  0  0  0  0  0 
    2.7654   -2.3434    0.8530 H   0  0  0  0  0  0  0  0  0  0  0  0 
    2.8615    1.7881    1.3788 H   0  0  0  0  0  0  0  0  0  0  0  0 
    4.2874    1.1283    0.9541 H   0  0  0  0  0  0  0  0  0  0  0  0 
    0.2803   -3.1278   -0.2188 H   0  0  0  0  0  0  0  0  0  0  0  0 
  1  7  1  0  0  0  0 
  1  2  1  0  0  0  0 
  2  9  1  0  0  0  0 
  2 10  1  0  0  0  0 
  3  1  1  0  0  0  0 
  3  5  1  0  0  0  0 
  4  2  1  0  0  0  0 
  4 13  1  0  0  0  0 
  5 15  1  0  0  0  0 
  6 17  1  0  0  0  0 
  6  4  1  0  0  0  0 
  8  1  1  0  0  0  0 
 11  3  1  0  0  0  0 
 12  3  1  0  0  0  0 
 14  4  1  0  0  0  0 
 16  5  1  0  0  0  0 
M  END 
>  <HBA> 
2 
 
>  <HBD> 
2 
 
>  <TPSA> 
46.25 
 
>  <cid> 
25868 
 
>  <dipole> 
1.7 
 
>  <excitation_energy_1> 
5.592 
 
>  <excitation_energy_2> 
6.2 
 
>  <excitation_energy_3> 
6.376 
 
>  <excitation_energy_4> 
6.504 
 
>  <homo_energy> 
-6.272 
 
>  <homo_lumo_gap> 
8.188 
 
>  <logP> 
0.418 
 
>  <lumo_energy> 
1.916 
 
>  <melting_point> 
47.63 
 
>  <molecular_refractivity> 
25.21 
 
>  <oscillator_strength_1> 
0.0085 
 
>  <oscillator_strength_2> 
0.006 
 
>  <oscillator_strength_3> 
0.0038 
 
>  <oscillator_strength_4> 
0.0195 
 
>  <open_babel_can_smiles> 
NCCCCO 
 
>  <mulliken_charges> 
17 
1   -0.249946 
2   -0.274322 
3   -0.143515 
4   -0.03879 
5   -0.715076 
6   -0.615005 
7   0.120099 
8   0.140709 
9   0.113444 
10   0.156337 
11   0.112979 
12   0.149834 
13   0.118213 
14   0.15424 
15   0.290478 
16   0.296556 
17   0.383764 
 
>  <lowdin_charges> 
17 
1   -0.284025 
2   -0.295822 
3   -0.208661 
4   -0.135434 
5   -0.559967 
6   -0.470962 
7   0.136894 
8   0.14894 
9   0.131044 
10   0.15866 
11   0.120041 
12   0.145638 
13   0.127381 
14   0.146161 
15   0.249966 
16   0.253881 
17   0.336266 
 
$$$$ 
 
