PCCDB-ID:  22091 
public computational chemistry database (PCCDB) project, http://pccdb.org 
 
 21 21  0  0  0  0  0  0  0  0999 V2000 
    0.9629   -1.4941    3.1949 C   0  0  0  0  0  0  0  0  0  0  0  0 
    2.2627   -1.8254    3.2502 C   0  0  0  0  0  0  0  0  0  0  0  0 
    9.4632   -2.2377    1.5970 C   0  0  0  0  0  0  0  0  0  0  0  0 
    8.6029   -2.7564    2.5684 C   0  0  0  0  0  0  0  0  0  0  0  0 
    8.9434   -1.3986    0.6095 C   0  0  0  0  0  0  0  0  0  0  0  0 
    7.2445   -2.4502    2.5653 C   0  0  0  0  0  0  0  0  0  0  0  0 
    7.5875   -1.0814    0.5909 C   0  0  0  0  0  0  0  0  0  0  0  0 
    3.2573   -1.3621    2.3057 C   0  0  0  0  0  0  0  0  0  0  0  0 
    6.7284   -1.6062    1.5695 C   0  0  0  0  0  0  0  0  0  0  0  0 
    4.4920   -1.7250    2.4224 N   0  0  0  0  0  0  0  0  0  0  0  0 
    5.3754   -1.2698    1.5227 N   0  0  0  0  0  0  0  0  0  0  0  0 
    0.2499   -1.8651    3.9240 H   0  0  0  0  0  0  0  0  0  0  0  0 
    0.5712   -0.8419    2.4174 H   0  0  0  0  0  0  0  0  0  0  0  0 
    2.6343   -2.4795    4.0365 H   0  0  0  0  0  0  0  0  0  0  0  0 
   10.5209   -2.4832    1.6097 H   0  0  0  0  0  0  0  0  0  0  0  0 
    8.9928   -3.4112    3.3436 H   0  0  0  0  0  0  0  0  0  0  0  0 
    9.5955   -0.9845   -0.1550 H   0  0  0  0  0  0  0  0  0  0  0  0 
    6.5752   -2.8510    3.3170 H   0  0  0  0  0  0  0  0  0  0  0  0 
    7.1905   -0.4261   -0.1821 H   0  0  0  0  0  0  0  0  0  0  0  0 
    2.9306   -0.6969    1.4933 H   0  0  0  0  0  0  0  0  0  0  0  0 
    5.0571   -0.6549    0.7757 H   0  0  0  0  0  0  0  0  0  0  0  0 
  1  2  2  0  0  0  0 
  1 12  1  0  0  0  0 
  2 14  1  0  0  0  0 
  3 15  1  0  0  0  0 
  3  4  2  0  0  0  0 
  4 16  1  0  0  0  0 
  5  3  1  0  0  0  0 
  6  4  1  0  0  0  0 
  6 18  1  0  0  0  0 
  7  5  2  0  0  0  0 
  7  9  1  0  0  0  0 
  8 10  2  0  0  0  0 
  8  2  1  0  0  0  0 
  9  6  2  0  0  0  0 
 11  9  1  0  0  0  0 
 11 10  1  0  0  0  0 
 13  1  1  0  0  0  0 
 17  5  1  0  0  0  0 
 19  7  1  0  0  0  0 
 20  8  1  0  0  0  0 
 21 11  1  0  0  0  0 
M  END 
>  <HBA> 
2 
 
>  <HBD> 
1 
 
>  <TPSA> 
24.39 
 
>  <cid> 
22091 
 
>  <dipole> 
1.77 
 
>  <excitation_energy_1> 
3.845 
 
>  <excitation_energy_2> 
4.404 
 
>  <excitation_energy_3> 
4.48 
 
>  <excitation_energy_4> 
5.088 
 
>  <homo_energy> 
-5.138 
 
>  <homo_lumo_gap> 
4.15 
 
>  <logP> 
2.343 
 
>  <lumo_energy> 
-0.988 
 
>  <melting_point> 
33.81 
 
>  <molecular_refractivity> 
48.57 
 
>  <oscillator_strength_1> 
0.7319 
 
>  <oscillator_strength_2> 
0.08 
 
>  <oscillator_strength_3> 
0.0 
 
>  <oscillator_strength_4> 
0.0003 
 
>  <open_babel_can_smiles> 
C=C/C=N/Nc1ccccc1 
 
>  <mulliken_charges> 
21 
1   -0.358262 
2   -0.063073 
3   -0.133124 
4   -0.139395 
5   -0.13581 
6   -0.165261 
7   -0.192332 
8   0.052044 
9   0.390251 
10   -0.208828 
11   -0.543504 
12   0.147782 
13   0.138243 
14   0.143446 
15   0.123928 
16   0.129409 
17   0.127798 
18   0.153409 
19   0.116738 
20   0.107126 
21   0.309413 
 
>  <lowdin_charges> 
21 
1   -0.340487 
2   -0.145141 
3   -0.180601 
4   -0.14422 
5   -0.147816 
6   -0.188575 
7   -0.200057 
8   -0.132013 
9   0.057781 
10   -0.081988 
11   -0.177408 
12   0.165515 
13   0.156882 
14   0.166208 
15   0.154766 
16   0.15878 
17   0.158577 
18   0.173675 
19   0.152595 
20   0.128282 
21   0.265247 
 
$$$$ 
 
