PCCDB-ID:  62340 
public computational chemistry database (PCCDB) project, http://pccdb.org 
 
 24 24  0  0  0  0  0  0  0  0999 V2000 
    1.6112    0.5654   -0.0584 C   0  0  0  0  0  0  0  0  0  0  0  0 
    2.4566    2.4563   -4.7310 C   0  0  0  0  0  0  0  0  0  0  0  0 
    3.6675    1.9109   -4.3008 C   0  0  0  0  0  0  0  0  0  0  0  0 
    1.3560    2.3857   -3.8784 C   0  0  0  0  0  0  0  0  0  0  0  0 
    3.7810    1.3121   -3.0493 C   0  0  0  0  0  0  0  0  0  0  0  0 
    1.4523    1.7819   -2.6252 C   0  0  0  0  0  0  0  0  0  0  0  0 
    3.8157   -0.3792   -0.6721 C   0  0  0  0  0  0  0  0  0  0  0  0 
    5.0343    0.1835    0.0709 C   0  0  0  0  0  0  0  0  0  0  0  0 
    2.6715    1.2297   -2.1791 C   0  0  0  0  0  0  0  0  0  0  0  0 
    2.7908    0.6446   -0.9103 N   0  0  0  0  0  0  0  0  0  0  0  0 
    4.6548    0.8433    1.2691 O   0  0  0  0  0  0  0  0  0  0  0  0 
    1.9177    0.2129    0.9281 H   0  0  0  0  0  0  0  0  0  0  0  0 
    0.8363   -0.1137   -0.4522 H   0  0  0  0  0  0  0  0  0  0  0  0 
    1.1619    1.5559    0.0680 H   0  0  0  0  0  0  0  0  0  0  0  0 
    2.3748    2.9263   -5.7064 H   0  0  0  0  0  0  0  0  0  0  0  0 
    4.5440    1.9566   -4.9425 H   0  0  0  0  0  0  0  0  0  0  0  0 
    0.3985    2.7959   -4.1901 H   0  0  0  0  0  0  0  0  0  0  0  0 
    4.7457    0.9247   -2.7413 H   0  0  0  0  0  0  0  0  0  0  0  0 
    0.5659    1.7286   -2.0046 H   0  0  0  0  0  0  0  0  0  0  0  0 
    3.3714   -1.1717   -0.0597 H   0  0  0  0  0  0  0  0  0  0  0  0 
    4.1228   -0.8413   -1.6184 H   0  0  0  0  0  0  0  0  0  0  0  0 
    5.6038    0.8604   -0.5852 H   0  0  0  0  0  0  0  0  0  0  0  0 
    5.7007   -0.6355    0.3629 H   0  0  0  0  0  0  0  0  0  0  0  0 
    4.0828    1.5777    0.9904 H   0  0  0  0  0  0  0  0  0  0  0  0 
  1 14  1  0  0  0  0 
  1 12  1  0  0  0  0 
  2  3  2  0  0  0  0 
  2  4  1  0  0  0  0 
  3  5  1  0  0  0  0 
  4  6  2  0  0  0  0 
  5 18  1  0  0  0  0 
  5  9  2  0  0  0  0 
  6  9  1  0  0  0  0 
  6 19  1  0  0  0  0 
  7 20  1  0  0  0  0 
  7  8  1  0  0  0  0 
  8 23  1  0  0  0  0 
  8 11  1  0  0  0  0 
  9 10  1  0  0  0  0 
 10  7  1  0  0  0  0 
 10  1  1  0  0  0  0 
 13  1  1  0  0  0  0 
 15  2  1  0  0  0  0 
 16  3  1  0  0  0  0 
 17  4  1  0  0  0  0 
 21  7  1  0  0  0  0 
 22  8  1  0  0  0  0 
 24 11  1  0  0  0  0 
M  END 
>  <HBA> 
2 
 
>  <HBD> 
1 
 
>  <TPSA> 
23.47 
 
>  <cid> 
62340 
 
>  <dipole> 
1.02 
 
>  <excitation_energy_1> 
4.537 
 
>  <excitation_energy_2> 
4.726 
 
>  <excitation_energy_3> 
5.098 
 
>  <excitation_energy_4> 
5.156 
 
>  <homo_energy> 
-5.274 
 
>  <homo_lumo_gap> 
5.418 
 
>  <logP> 
1.115 
 
>  <lumo_energy> 
0.144 
 
>  <melting_point> 
30.62 
 
>  <molecular_refractivity> 
46.62 
 
>  <oscillator_strength_1> 
0.0345 
 
>  <oscillator_strength_2> 
0.0714 
 
>  <oscillator_strength_3> 
0.0053 
 
>  <oscillator_strength_4> 
0.114 
 
>  <open_babel_can_smiles> 
OCCN(c1ccccc1)C 
 
>  <mulliken_charges> 
24 
1   -0.325278 
2   -0.135456 
3   -0.136768 
4   -0.136738 
5   -0.183785 
6   -0.194902 
7   -0.162204 
8   -0.031418 
9   0.34517 
10   -0.497833 
11   -0.616058 
12   0.171712 
13   0.147304 
14   0.162186 
15   0.121189 
16   0.125016 
17   0.124687 
18   0.123774 
19   0.123831 
20   0.152977 
21   0.14961 
22   0.130953 
23   0.144386 
24   0.397647 
 
>  <lowdin_charges> 
24 
1   -0.360115 
2   -0.18535 
3   -0.148099 
4   -0.146456 
5   -0.206758 
6   -0.211359 
7   -0.216288 
8   -0.147526 
9   0.057859 
10   -0.135686 
11   -0.468283 
12   0.16211 
13   0.139931 
14   0.154339 
15   0.154436 
16   0.156215 
17   0.15538 
18   0.155527 
19   0.159397 
20   0.154424 
21   0.152444 
22   0.131044 
23   0.148836 
24   0.343979 
 
$$$$ 
 
