PCCDB-ID:  70176 
public computational chemistry database (PCCDB) project, http://pccdb.org 
 
 25 25  0  0  0  0  0  0  0  0999 V2000 
    1.8805   -3.3057   -0.5988 C   0  0  0  0  0  0  0  0  0  0  0  0 
    3.1980   -3.4447   -0.8109 C   0  0  0  0  0  0  0  0  0  0  0  0 
    9.4323   -2.8856   -1.8651 C   0  0  0  0  0  0  0  0  0  0  0  0 
    8.0801   -2.7631   -1.6399 C   0  0  0  0  0  0  0  0  0  0  0  0 
    4.0917   -2.3187   -0.9878 C   0  0  0  0  0  0  0  0  0  0  0  0 
    9.6568   -0.4734   -1.9735 C   0  0  0  0  0  0  0  0  0  0  0  0 
   10.2189   -1.7337   -2.0313 C   0  0  0  0  0  0  0  0  0  0  0  0 
    7.4538   -1.4902   -1.5708 C   0  0  0  0  0  0  0  0  0  0  0  0 
    8.2861   -0.3414   -1.7441 C   0  0  0  0  0  0  0  0  0  0  0  0 
    5.3514   -2.5114   -1.1919 N   0  0  0  0  0  0  0  0  0  0  0  0 
    6.1128   -1.3979   -1.3478 N   0  0  0  0  0  0  0  0  0  0  0  0 
   11.6540   -1.8663   -2.2700 N   0  0  0  0  0  0  0  0  0  0  0  0 
    7.7673    1.0172   -1.7009 N   0  0  0  0  0  0  0  0  0  0  0  0 
   12.1167   -3.0079   -2.3188 O   0  0  0  0  0  0  0  0  0  0  0  0 
   12.3126   -0.8350   -2.4074 O   0  0  0  0  0  0  0  0  0  0  0  0 
    8.5465    1.9493   -1.8743 O   0  0  0  0  0  0  0  0  0  0  0  0 
    6.5502    1.1850   -1.4883 O   0  0  0  0  0  0  0  0  0  0  0  0 
    1.2317   -4.1658   -0.4696 H   0  0  0  0  0  0  0  0  0  0  0  0 
    1.4094   -2.3268   -0.5476 H   0  0  0  0  0  0  0  0  0  0  0  0 
    3.6573   -4.4294   -0.8598 H   0  0  0  0  0  0  0  0  0  0  0  0 
    9.9041   -3.8593   -1.9163 H   0  0  0  0  0  0  0  0  0  0  0  0 
    7.4562   -3.6371   -1.5098 H   0  0  0  0  0  0  0  0  0  0  0  0 
    3.6644   -1.3086   -0.9413 H   0  0  0  0  0  0  0  0  0  0  0  0 
   10.2659    0.4106   -2.1031 H   0  0  0  0  0  0  0  0  0  0  0  0 
    5.7149   -0.4585   -1.3089 H   0  0  0  0  0  0  0  0  0  0  0  0 
  1 19  1  0  0  0  0 
  1 18  1  0  0  0  0 
  2  1  2  0  0  0  0 
  3  4  2  0  0  0  0 
  4  8  1  0  0  0  0 
  4 22  1  0  0  0  0 
  5 23  1  0  0  0  0 
  5  2  1  0  0  0  0 
  6  9  1  0  0  0  0 
  7  6  2  0  0  0  0 
  7  3  1  0  0  0  0 
  8 11  1  0  0  0  0 
  9 13  1  0  0  0  0 
  9  8  2  0  0  0  0 
 10  5  2  0  0  0  0 
 11 25  1  0  0  0  0 
 11 10  1  0  0  0  0 
 12  7  1  0  0  0  0 
 13 17  2  0  0  0  0 
 14 12  2  0  0  0  0 
 15 12  2  0  0  0  0 
 16 13  2  0  0  0  0 
 20  2  1  0  0  0  0 
 21  3  1  0  0  0  0 
 24  6  1  0  0  0  0 
M  END 
>  <HBA> 
2 
 
>  <HBD> 
1 
 
>  <TPSA> 
116.03 
 
>  <cid> 
70176 
 
>  <dipole> 
7.27 
 
>  <excitation_energy_1> 
2.911 
 
>  <excitation_energy_2> 
3.411 
 
>  <excitation_energy_3> 
3.751 
 
>  <excitation_energy_4> 
3.755 
 
>  <homo_energy> 
-6.378 
 
>  <homo_lumo_gap> 
3.453 
 
>  <logP> 
3.206 
 
>  <lumo_energy> 
-2.925 
 
>  <melting_point> 
113.4 
 
>  <molecular_refractivity> 
66.22 
 
>  <oscillator_strength_1> 
0.116 
 
>  <oscillator_strength_2> 
0.6732 
 
>  <oscillator_strength_3> 
0.0 
 
>  <oscillator_strength_4> 
0.0 
 
>  <open_babel_can_smiles> 
C=C/C=N/Nc1ccc(cc1N(=O)=O)N(=O)=O 
 
>  <mulliken_charges> 
25 
1   -0.340898 
2   -0.070357 
3   -0.142281 
4   -0.180937 
5   0.074706 
6   -0.207131 
7   0.279826 
8   0.401682 
9   0.248784 
10   -0.222308 
11   -0.573423 
12   0.374491 
13   0.377271 
14   -0.398642 
15   -0.396363 
16   -0.38137 
17   -0.444557 
18   0.163961 
19   0.155431 
20   0.155963 
21   0.193555 
22   0.187323 
23   0.13951 
24   0.228967 
25   0.376796 
 
>  <lowdin_charges> 
25 
1   -0.304913 
2   -0.147454 
3   -0.109746 
4   -0.17621 
5   -0.092183 
6   -0.109066 
7   -0.019828 
8   0.086547 
9   -0.037287 
10   -0.091805 
11   -0.15658 
12   0.30949 
13   0.313845 
14   -0.251173 
15   -0.247836 
16   -0.230115 
17   -0.283669 
18   0.17329 
19   0.164247 
20   0.170826 
21   0.194045 
22   0.190806 
23   0.142715 
24   0.214215 
25   0.297838 
 
$$$$ 
 
