PCCDB-ID:  7790 
public computational chemistry database (PCCDB) project, http://pccdb.org 
 
 38 37  0  0  0  0  0  0  0  0999 V2000 
    8.1059   -0.2342    2.6859 C   0  0  0  0  0  0  0  0  0  0  0  0 
    3.9105    7.8775    7.5745 C   0  0  0  0  0  0  0  0  0  0  0  0 
    7.0822   -0.5993    1.6068 C   0  0  0  0  0  0  0  0  0  0  0  0 
    2.4094    7.5774    7.6202 C   0  0  0  0  0  0  0  0  0  0  0  0 
    2.6327    2.4183    3.0666 C   0  0  0  0  0  0  0  0  0  0  0  0 
    2.0523    3.6034    3.8514 C   0  0  0  0  0  0  0  0  0  0  0  0 
    4.1164    2.5704    2.7182 C   0  0  0  0  0  0  0  0  0  0  0  0 
    2.6381    3.7670    5.2578 C   0  0  0  0  0  0  0  0  0  0  0  0 
    6.6015    0.5935    0.7857 C   0  0  0  0  0  0  0  0  0  0  0  0 
    2.0809    6.1521    8.0556 C   0  0  0  0  0  0  0  0  0  0  0  0 
    4.6420    1.4359    1.8579 C   0  0  0  0  0  0  0  0  0  0  0  0 
    1.9305    4.8376    6.0690 C   0  0  0  0  0  0  0  0  0  0  0  0 
    3.9821    0.5106    1.4353 O   0  0  0  0  0  0  0  0  0  0  0  0 
    0.8535    5.3250    5.7990 O   0  0  0  0  0  0  0  0  0  0  0  0 
    5.9638    1.5990    1.6114 O   0  0  0  0  0  0  0  0  0  0  0  0 
    2.6576    5.1670    7.1627 O   0  0  0  0  0  0  0  0  0  0  0  0 
    8.4139   -1.1208    3.2507 H   0  0  0  0  0  0  0  0  0  0  0  0 
    7.6908    0.4896    3.3949 H   0  0  0  0  0  0  0  0  0  0  0  0 
    9.0065    0.2110    2.2452 H   0  0  0  0  0  0  0  0  0  0  0  0 
    4.0951    8.9068    7.2482 H   0  0  0  0  0  0  0  0  0  0  0  0 
    4.4257    7.2060    6.8797 H   0  0  0  0  0  0  0  0  0  0  0  0 
    4.3718    7.7518    8.5619 H   0  0  0  0  0  0  0  0  0  0  0  0 
    6.2094   -1.0893    2.0536 H   0  0  0  0  0  0  0  0  0  0  0  0 
    7.5188   -1.3231    0.9047 H   0  0  0  0  0  0  0  0  0  0  0  0 
    1.9507    7.7565    6.6410 H   0  0  0  0  0  0  0  0  0  0  0  0 
    1.9115    8.2565    8.3261 H   0  0  0  0  0  0  0  0  0  0  0  0 
    2.0676    2.2909    2.1366 H   0  0  0  0  0  0  0  0  0  0  0  0 
    2.4883    1.4879    3.6311 H   0  0  0  0  0  0  0  0  0  0  0  0 
    0.9678    3.4824    3.9420 H   0  0  0  0  0  0  0  0  0  0  0  0 
    2.2032    4.5338    3.2872 H   0  0  0  0  0  0  0  0  0  0  0  0 
    4.7460    2.6234    3.6152 H   0  0  0  0  0  0  0  0  0  0  0  0 
    4.2983    3.5100    2.1780 H   0  0  0  0  0  0  0  0  0  0  0  0 
    3.7072    4.0070    5.2405 H   0  0  0  0  0  0  0  0  0  0  0  0 
    2.5543    2.8251    5.8199 H   0  0  0  0  0  0  0  0  0  0  0  0 
    5.8978    0.2766    0.0120 H   0  0  0  0  0  0  0  0  0  0  0  0 
    7.4416    1.1195    0.3225 H   0  0  0  0  0  0  0  0  0  0  0  0 
    1.0002    5.9963    8.1002 H   0  0  0  0  0  0  0  0  0  0  0  0 
    2.5241    5.9237    9.0295 H   0  0  0  0  0  0  0  0  0  0  0  0 
  1 17  1  0  0  0  0 
  1 18  1  0  0  0  0 
  2  4  1  0  0  0  0 
  2 22  1  0  0  0  0 
  3 23  1  0  0  0  0 
  3  1  1  0  0  0  0 
  4 10  1  0  0  0  0 
  4 26  1  0  0  0  0 
  5 28  1  0  0  0  0 
  5  6  1  0  0  0  0 
  6 29  1  0  0  0  0 
  6  8  1  0  0  0  0 
  7  5  1  0  0  0  0 
  7 31  1  0  0  0  0 
  8 34  1  0  0  0  0 
  8 12  1  0  0  0  0 
  9  3  1  0  0  0  0 
  9 15  1  0  0  0  0 
 10 37  1  0  0  0  0 
 10 38  1  0  0  0  0 
 11  7  1  0  0  0  0 
 12 16  1  0  0  0  0 
 13 11  2  0  0  0  0 
 14 12  2  0  0  0  0 
 15 11  1  0  0  0  0 
 16 10  1  0  0  0  0 
 19  1  1  0  0  0  0 
 20  2  1  0  0  0  0 
 21  2  1  0  0  0  0 
 24  3  1  0  0  0  0 
 25  4  1  0  0  0  0 
 27  5  1  0  0  0  0 
 30  6  1  0  0  0  0 
 32  7  1  0  0  0  0 
 33  8  1  0  0  0  0 
 35  9  1  0  0  0  0 
 36  9  1  0  0  0  0 
M  END 
>  <HBA> 
4 
 
>  <HBD> 
0 
 
>  <TPSA> 
52.6 
 
>  <cid> 
7790 
 
>  <dipole> 
2.91 
 
>  <excitation_energy_1> 
5.814 
 
>  <excitation_energy_2> 
5.828 
 
>  <excitation_energy_3> 
6.862 
 
>  <excitation_energy_4> 
6.913 
 
>  <homo_energy> 
-7.301 
 
>  <homo_lumo_gap> 
7.641 
 
>  <logP> 
2.453 
 
>  <lumo_energy> 
0.34 
 
>  <melting_point> 
-5.66 
 
>  <molecular_refractivity> 
62.37 
 
>  <oscillator_strength_1> 
0.0006 
 
>  <oscillator_strength_2> 
0.0006 
 
>  <oscillator_strength_3> 
0.0373 
 
>  <oscillator_strength_4> 
0.0029 
 
>  <open_babel_can_smiles> 
CCCOC(=O)CCCCC(=O)OCCC 
 
>  <mulliken_charges> 
38 
1   -0.442342 
2   -0.44234 
3   -0.275094 
4   -0.275136 
5   -0.257187 
6   -0.258634 
7   -0.365529 
8   -0.365863 
9   -0.045869 
10   -0.046268 
11   0.625765 
12   0.626264 
13   -0.478936 
14   -0.479021 
15   -0.46747 
16   -0.466676 
17   0.147439 
18   0.154671 
19   0.141656 
20   0.147425 
21   0.154817 
22   0.141503 
23   0.163839 
24   0.139904 
25   0.164597 
26   0.139824 
27   0.156858 
28   0.145481 
29   0.162849 
30   0.140329 
31   0.17034 
32   0.171163 
33   0.167747 
34   0.172938 
35   0.168159 
36   0.14732 
37   0.16797 
38   0.147506 
 
>  <lowdin_charges> 
38 
1   -0.448896 
2   -0.446903 
3   -0.286718 
4   -0.285649 
5   -0.271631 
6   -0.270475 
7   -0.305785 
8   -0.302822 
9   -0.134724 
10   -0.130127 
11   0.201281 
12   0.197799 
13   -0.267797 
14   -0.267216 
15   -0.201084 
16   -0.197982 
17   0.153178 
18   0.153655 
19   0.147326 
20   0.151678 
21   0.153938 
22   0.146414 
23   0.157614 
24   0.15159 
25   0.156917 
26   0.151676 
27   0.157551 
28   0.148942 
29   0.158263 
30   0.146089 
31   0.166046 
32   0.167993 
33   0.16203 
34   0.169251 
35   0.160491 
36   0.151128 
37   0.157316 
38   0.149645 
 
$$$$ 
 
