PCCDB-ID:  21871 
public computational chemistry database (PCCDB) project, http://pccdb.org 
 
 20 19  0  0  0  0  0  0  0  0999 V2000 
    0.9265   -0.0531    0.1612 C   0  0  0  0  0  0  0  0  0  0  0  0 
    2.4582   -0.0786    0.1187 C   0  0  0  0  0  0  0  0  0  0  0  0 
    3.0450    0.8589   -0.9446 C   0  0  0  0  0  0  0  0  0  0  0  0 
    4.5779    0.8470   -0.9770 C   0  0  0  0  0  0  0  0  0  0  0  0 
    5.1450    1.7958   -2.0583 C   0  0  0  0  0  0  0  0  0  0  0  0 
    6.6022    1.8277   -2.0865 C   0  0  0  0  0  0  0  0  0  0  0  0 
    7.8165    1.8341   -2.0929 C   0  0  0  0  0  0  0  0  0  0  0  0 
    9.1866    1.8447   -2.1064 C   0  0  0  0  0  0  0  0  0  0  0  0 
   10.3542    1.8555   -2.1177 N   0  0  0  0  0  0  0  0  0  0  0  0 
    0.5392   -0.7373    0.9241 H   0  0  0  0  0  0  0  0  0  0  0  0 
    0.4978   -0.3516   -0.8032 H   0  0  0  0  0  0  0  0  0  0  0  0 
    0.5533    0.9515    0.3941 H   0  0  0  0  0  0  0  0  0  0  0  0 
    2.8036   -1.1042   -0.0726 H   0  0  0  0  0  0  0  0  0  0  0  0 
    2.8567    0.1986    1.1045 H   0  0  0  0  0  0  0  0  0  0  0  0 
    2.6927    1.8841   -0.7575 H   0  0  0  0  0  0  0  0  0  0  0  0 
    2.6552    0.5769   -1.9337 H   0  0  0  0  0  0  0  0  0  0  0  0 
    4.9426   -0.1699   -1.1686 H   0  0  0  0  0  0  0  0  0  0  0  0 
    4.9756    1.1433    0.0013 H   0  0  0  0  0  0  0  0  0  0  0  0 
    4.7710    2.8153   -1.8877 H   0  0  0  0  0  0  0  0  0  0  0  0 
    4.7742    1.4953   -3.0482 H   0  0  0  0  0  0  0  0  0  0  0  0 
  1 12  1  0  0  0  0 
  1 10  1  0  0  0  0 
  2  1  1  0  0  0  0 
  2 14  1  0  0  0  0 
  3 15  1  0  0  0  0 
  3  2  1  0  0  0  0 
  4  3  1  0  0  0  0 
  4 18  1  0  0  0  0 
  5 19  1  0  0  0  0 
  5  4  1  0  0  0  0 
  6  5  1  0  0  0  0 
  7  6  3  0  0  0  0 
  8  7  1  0  0  0  0 
  9  8  3  0  0  0  0 
 11  1  1  0  0  0  0 
 13  2  1  0  0  0  0 
 16  3  1  0  0  0  0 
 17  4  1  0  0  0  0 
 20  5  1  0  0  0  0 
M  END 
>  <HBA> 
1 
 
>  <HBD> 
0 
 
>  <TPSA> 
23.79 
 
>  <cid> 
21871 
 
>  <dipole> 
5.6 
 
>  <excitation_energy_1> 
5.028 
 
>  <excitation_energy_2> 
5.197 
 
>  <excitation_energy_3> 
5.198 
 
>  <excitation_energy_4> 
7.076 
 
>  <homo_energy> 
-7.644 
 
>  <homo_lumo_gap> 
6.653 
 
>  <logP> 
2.094 
 
>  <lumo_energy> 
-0.991 
 
>  <melting_point> 
23.36 
 
>  <molecular_refractivity> 
38.48 
 
>  <oscillator_strength_1> 
0.0 
 
>  <oscillator_strength_2> 
0.0034 
 
>  <oscillator_strength_3> 
0.0003 
 
>  <oscillator_strength_4> 
0.0412 
 
>  <open_babel_can_smiles> 
CCCCCC#CC#N 
 
>  <mulliken_charges> 
20 
1   -0.443363 
2   -0.250748 
3   -0.246165 
4   -0.263582 
5   -0.411633 
6   -0.001031 
7   0.462428 
8   -0.032884 
9   -0.471385 
10   0.148125 
11   0.144306 
12   0.144396 
13   0.136669 
14   0.13667 
15   0.133541 
16   0.133584 
17   0.15446 
18   0.154619 
19   0.185757 
20   0.186239 
 
>  <lowdin_charges> 
20 
1   -0.444531 
2   -0.270116 
3   -0.273827 
4   -0.265651 
5   -0.258627 
6   0.028407 
7   -0.090694 
8   0.000209 
9   -0.092916 
10   0.153986 
11   0.147854 
12   0.147405 
13   0.141202 
14   0.141786 
15   0.139801 
16   0.140404 
17   0.151411 
18   0.152108 
19   0.175575 
20   0.176215 
 
$$$$ 
 
