PCCDB-ID:  8511 
public computational chemistry database (PCCDB) project, http://pccdb.org 
 
 28 30  0  0  0  0  0  0  0  0999 V2000 
    3.6850    0.7235    0.0243 C   0  0  0  0  0  0  0  0  0  0  0  0 
   -3.6845    0.7270   -0.0264 C   0  0  0  0  0  0  0  0  0  0  0  0 
    2.4625    1.4040    0.0135 C   0  0  0  0  0  0  0  0  0  0  0  0 
   -2.4614    1.4064   -0.0143 C   0  0  0  0  0  0  0  0  0  0  0  0 
    3.7178   -0.6581    0.0453 C   0  0  0  0  0  0  0  0  0  0  0  0 
   -3.7186   -0.6545   -0.0496 C   0  0  0  0  0  0  0  0  0  0  0  0 
    1.2774    0.6779    0.0149 C   0  0  0  0  0  0  0  0  0  0  0  0 
   -1.2770    0.6791   -0.0169 C   0  0  0  0  0  0  0  0  0  0  0  0 
    2.5269   -1.4263    0.0562 C   0  0  0  0  0  0  0  0  0  0  0  0 
   -2.5285   -1.4238   -0.0619 C   0  0  0  0  0  0  0  0  0  0  0  0 
    1.2715   -0.7408    0.0302 C   0  0  0  0  0  0  0  0  0  0  0  0 
   -1.2724   -0.7396   -0.0346 C   0  0  0  0  0  0  0  0  0  0  0  0 
    0.0006    1.4459   -0.0003 C   0  0  0  0  0  0  0  0  0  0  0  0 
   -0.0008   -1.4842   -0.0029 C   0  0  0  0  0  0  0  0  0  0  0  0 
    2.6181   -2.7839    0.1158 N   0  0  0  0  0  0  0  0  0  0  0  0 
   -2.6210   -2.7812   -0.1237 N   0  0  0  0  0  0  0  0  0  0  0  0 
    0.0012    2.6739    0.0007 O   0  0  0  0  0  0  0  0  0  0  0  0 
   -0.0014   -2.7396   -0.0040 O   0  0  0  0  0  0  0  0  0  0  0  0 
    4.6178    1.2811    0.0176 H   0  0  0  0  0  0  0  0  0  0  0  0 
   -4.6168    1.2855   -0.0188 H   0  0  0  0  0  0  0  0  0  0  0  0 
    2.4093    2.4863    0.0022 H   0  0  0  0  0  0  0  0  0  0  0  0 
   -2.4071    2.4885   -0.0012 H   0  0  0  0  0  0  0  0  0  0  0  0 
    4.6703   -1.1834    0.0612 H   0  0  0  0  0  0  0  0  0  0  0  0 
   -4.6716   -1.1789   -0.0665 H   0  0  0  0  0  0  0  0  0  0  0  0 
    3.5123   -3.2233   -0.0397 H   0  0  0  0  0  0  0  0  0  0  0  0 
    1.7605   -3.3125    0.0063 H   0  0  0  0  0  0  0  0  0  0  0  0 
   -3.5155   -3.2200    0.0309 H   0  0  0  0  0  0  0  0  0  0  0  0 
   -1.7638   -3.3108   -0.0152 H   0  0  0  0  0  0  0  0  0  0  0  0 
  1  5  2  0  0  0  0 
  2 20  1  0  0  0  0 
  2  4  2  0  0  0  0 
  3  7  2  0  0  0  0 
  3  1  1  0  0  0  0 
  4 22  1  0  0  0  0 
  5  9  1  0  0  0  0 
  5 23  1  0  0  0  0 
  6  2  1  0  0  0  0 
  7 11  1  0  0  0  0 
  8  4  1  0  0  0  0 
  8 13  1  0  0  0  0 
  9 15  1  0  0  0  0 
 10  6  2  0  0  0  0 
 10 12  1  0  0  0  0 
 11  9  2  0  0  0  0 
 12  8  2  0  0  0  0 
 12 14  1  0  0  0  0 
 13 17  2  0  0  0  0 
 13  7  1  0  0  0  0 
 14 11  1  0  0  0  0 
 16 10  1  0  0  0  0 
 16 28  1  0  0  0  0 
 16 27  1  0  0  0  0 
 18 14  2  0  0  0  0 
 19  1  1  0  0  0  0 
 21  3  1  0  0  0  0 
 24  6  1  0  0  0  0 
 25 15  1  0  0  0  0 
 26 15  1  0  0  0  0 
M  END 
>  <HBA> 
4 
 
>  <HBD> 
2 
 
>  <TPSA> 
86.18 
 
>  <cid> 
8511 
 
>  <dipole> 
3.58 
 
>  <excitation_energy_1> 
2.556 
 
>  <excitation_energy_2> 
2.891 
 
>  <excitation_energy_3> 
3.005 
 
>  <excitation_energy_4> 
3.447 
 
>  <homo_energy> 
-5.516 
 
>  <homo_lumo_gap> 
3.053 
 
>  <logP> 
2.789 
 
>  <lumo_energy> 
-2.463 
 
>  <melting_point> 
223.2 
 
>  <molecular_refractivity> 
68.56 
 
>  <oscillator_strength_1> 
0.2014 
 
>  <oscillator_strength_2> 
0.0028 
 
>  <oscillator_strength_3> 
0.0002 
 
>  <oscillator_strength_4> 
0.0 
 
>  <open_babel_can_smiles> 
Nc1cccc2c1C(=O)c1c(C2=O)cccc1N 
 
>  <mulliken_charges> 
28 
1   -0.13162 
2   -0.131617 
3   -0.184661 
4   -0.184677 
5   -0.167569 
6   -0.167566 
7   0.023184 
8   0.023148 
9   0.306932 
10   0.306958 
11   0.032952 
12   0.032954 
13   0.336012 
14   0.378559 
15   -0.822557 
16   -0.822581 
17   -0.485968 
18   -0.605308 
19   0.139499 
20   0.139499 
21   0.160546 
22   0.160544 
23   0.125191 
24   0.12519 
25   0.326086 
26   0.380387 
27   0.326092 
28   0.380393 
 
>  <lowdin_charges> 
28 
1   -0.130523 
2   -0.130529 
3   -0.156835 
4   -0.156838 
5   -0.187635 
6   -0.187631 
7   -0.025437 
8   -0.025436 
9   0.093925 
10   0.093929 
11   -0.08365 
12   -0.083654 
13   0.150988 
14   0.158323 
15   -0.46209 
16   -0.462084 
17   -0.247344 
18   -0.32736 
19   0.163536 
20   0.163541 
21   0.175867 
22   0.175867 
23   0.156878 
24   0.156872 
25   0.281454 
26   0.307204 
27   0.281452 
28   0.307211 
 
$$$$ 
 
