PCCDB-ID:  69248 
public computational chemistry database (PCCDB) project, http://pccdb.org 
 
 18 18  0  0  1  0  0  0  0  0999 V2000 
   -0.2652   -1.4950    0.3956 C   0  0  0  0  0  0  0  0  0  0  0  0 
    1.1745    0.4266    0.3109 C   0  0  0  0  0  0  0  0  0  0  0  0 
    1.1923   -1.0949    0.0850 C   0  0  2  0  0  0  0  0  0  0  0  0 
   -1.0983   -0.2092    0.1082 C   0  0  1  0  0  0  0  0  0  0  0  0 
   -1.9815    0.1902    1.3096 C   0  0  0  0  0  0  0  0  0  0  0  0 
   -0.1398    0.8872   -0.1930 N   0  0  0  0  0  0  0  0  0  0  0  0 
    1.5924   -1.4356   -1.2423 O   0  0  0  0  0  0  0  0  0  0  0  0 
   -2.6826   -0.6004    1.8958 O   0  0  0  0  0  0  0  0  0  0  0  0 
   -1.9063    1.4918    1.6224 O   0  0  0  0  0  0  0  0  0  0  0  0 
   -0.5720   -2.3452   -0.2195 H   0  0  0  0  0  0  0  0  0  0  0  0 
   -0.3865   -1.7945    1.4403 H   0  0  0  0  0  0  0  0  0  0  0  0 
    1.9925    0.9403   -0.1994 H   0  0  0  0  0  0  0  0  0  0  0  0 
    1.2351    0.6521    1.3834 H   0  0  0  0  0  0  0  0  0  0  0  0 
    1.9134   -1.5987    0.7341 H   0  0  0  0  0  0  0  0  0  0  0  0 
   -1.7832   -0.3460   -0.7360 H   0  0  0  0  0  0  0  0  0  0  0  0 
   -0.0893    1.0575   -1.1945 H   0  0  0  0  0  0  0  0  0  0  0  0 
    0.8807   -1.1818   -1.8505 H   0  0  0  0  0  0  0  0  0  0  0  0 
   -1.2255    1.8580    1.0007 H   0  0  0  0  0  0  0  0  0  0  0  0 
  1 11  1  0  0  0  0 
  2 13  1  0  0  0  0 
  3  2  1  0  0  0  0 
  3  1  1  0  0  0  0 
  3 14  1  1  0  0  0 
  4 15  1  6  0  0  0 
  4  1  1  0  0  0  0 
  4  5  1  0  0  0  0 
  5  9  1  0  0  0  0 
  5  8  2  0  0  0  0 
  6  4  1  0  0  0  0 
  6  2  1  0  0  0  0 
  7  3  1  0  0  0  0 
 10  1  1  0  0  0  0 
 12  2  1  0  0  0  0 
 16  6  1  0  0  0  0 
 17  7  1  0  0  0  0 
 18  9  1  0  0  0  0 
M  END 
>  <HBA> 
4 
 
>  <HBD> 
3 
 
>  <TPSA> 
69.56 
 
>  <cid> 
69248 
 
>  <dipole> 
4.3 
 
>  <excitation_energy_1> 
5.299 
 
>  <excitation_energy_2> 
5.759 
 
>  <excitation_energy_3> 
6.175 
 
>  <excitation_energy_4> 
6.597 
 
>  <homo_energy> 
-6.871 
 
>  <homo_lumo_gap> 
7.059 
 
>  <logP> 
-0.877 
 
>  <lumo_energy> 
0.188 
 
>  <melting_point> 
119.64 
 
>  <molecular_refractivity> 
33.69 
 
>  <oscillator_strength_1> 
0.0028 
 
>  <oscillator_strength_2> 
0.0032 
 
>  <oscillator_strength_3> 
0.0004 
 
>  <oscillator_strength_4> 
0.0157 
 
>  <open_babel_can_smiles> 
O[C@H]1CN[C@@H](C1)C(=O)O 
 
>  <mulliken_charges> 
18 
1   -0.319426 
2   -0.168623 
3   0.125498 
4   -0.099486 
5   0.597431 
6   -0.608071 
7   -0.619171 
8   -0.461094 
9   -0.57655 
10   0.16509 
11   0.184151 
12   0.167987 
13   0.158132 
14   0.152745 
15   0.174676 
16   0.313728 
17   0.380358 
18   0.432625 
 
>  <lowdin_charges> 
18 
1   -0.304998 
2   -0.227221 
3   -0.014063 
4   -0.11947 
5   0.174742 
6   -0.366225 
7   -0.461422 
8   -0.257623 
9   -0.356402 
10   0.164771 
11   0.172392 
12   0.163416 
13   0.150119 
14   0.156051 
15   0.168525 
16   0.261097 
17   0.33641 
18   0.359901 
 
$$$$ 
 
