PCCDB-ID:  26117 
public computational chemistry database (PCCDB) project, http://pccdb.org 
 
 21 22  0  0  0  0  0  0  0  0999 V2000 
    2.3462   -0.7850    0.1560 C   0  0  0  0  0  0  0  0  0  0  0  0 
    2.4686    0.5283   -0.3400 C   0  0  0  0  0  0  0  0  0  0  0  0 
    1.1010   -1.3680    0.3684 C   0  0  0  0  0  0  0  0  0  0  0  0 
    1.3499    1.3016   -0.6397 C   0  0  0  0  0  0  0  0  0  0  0  0 
   -3.5322    0.2427   -0.2952 C   0  0  0  0  0  0  0  0  0  0  0  0 
   -0.0345   -0.6066    0.0710 C   0  0  0  0  0  0  0  0  0  0  0  0 
    0.1048    0.7095   -0.4257 C   0  0  0  0  0  0  0  0  0  0  0  0 
   -2.0401    0.1455   -0.2190 C   0  0  0  0  0  0  0  0  0  0  0  0 
   -4.3373   -0.6478    0.6808 C   0  0  0  0  0  0  0  0  0  0  0  0 
   -1.3834   -0.9215    0.1815 N   0  0  0  0  0  0  0  0  0  0  0  0 
   -1.1976    1.1596   -0.5985 N   0  0  0  0  0  0  0  0  0  0  0  0 
   -5.4817   -0.3649    0.9456 O   0  0  0  0  0  0  0  0  0  0  0  0 
   -3.7371   -1.7454    1.1443 O   0  0  0  0  0  0  0  0  0  0  0  0 
    3.2458   -1.3519    0.3771 H   0  0  0  0  0  0  0  0  0  0  0  0 
    3.4585    0.9486   -0.4919 H   0  0  0  0  0  0  0  0  0  0  0  0 
    1.0016   -2.3788    0.7509 H   0  0  0  0  0  0  0  0  0  0  0  0 
    1.4477    2.3141   -1.0204 H   0  0  0  0  0  0  0  0  0  0  0  0 
   -3.8658   -0.0397   -1.3047 H   0  0  0  0  0  0  0  0  0  0  0  0 
   -3.8716    1.2705   -0.1382 H   0  0  0  0  0  0  0  0  0  0  0  0 
   -1.4814    2.0676   -0.9370 H   0  0  0  0  0  0  0  0  0  0  0  0 
   -2.7781   -1.7555    0.8712 H   0  0  0  0  0  0  0  0  0  0  0  0 
  1  3  1  0  0  0  0 
  1 14  1  0  0  0  0 
  2  1  2  0  0  0  0 
  3 16  1  0  0  0  0 
  4  7  2  0  0  0  0 
  4  2  1  0  0  0  0 
  5  8  1  0  0  0  0 
  5 19  1  0  0  0  0 
  5  9  1  0  0  0  0 
  6 10  1  0  0  0  0 
  6  3  2  0  0  0  0 
  7  6  1  0  0  0  0 
  8 10  2  0  0  0  0 
  9 12  2  0  0  0  0 
  9 13  1  0  0  0  0 
 11  7  1  0  0  0  0 
 11  8  1  0  0  0  0 
 15  2  1  0  0  0  0 
 17  4  1  0  0  0  0 
 18  5  1  0  0  0  0 
 20 11  1  0  0  0  0 
 21 13  1  0  0  0  0 
M  END 
>  <HBA> 
3 
 
>  <HBD> 
2 
 
>  <TPSA> 
65.98 
 
>  <cid> 
26117 
 
>  <dipole> 
6.7 
 
>  <excitation_energy_1> 
4.969 
 
>  <excitation_energy_2> 
5.21 
 
>  <excitation_energy_3> 
5.487 
 
>  <excitation_energy_4> 
5.598 
 
>  <homo_energy> 
-6.542 
 
>  <homo_lumo_gap> 
5.63 
 
>  <logP> 
1.19 
 
>  <lumo_energy> 
-0.912 
 
>  <melting_point> 
191.76 
 
>  <molecular_refractivity> 
47.64 
 
>  <oscillator_strength_1> 
0.1146 
 
>  <oscillator_strength_2> 
0.1046 
 
>  <oscillator_strength_3> 
0.0004 
 
>  <oscillator_strength_4> 
0.0004 
 
>  <open_babel_can_smiles> 
OC(=O)Cc1nc2c([nH]1)cccc2 
 
>  <mulliken_charges> 
21 
1   -0.143748 
2   -0.145825 
3   -0.169478 
4   -0.172404 
5   -0.479561 
6   0.255247 
7   0.344077 
8   0.576341 
9   0.612037 
10   -0.63576 
11   -0.74024 
12   -0.459258 
13   -0.58019 
14   0.135577 
15   0.135805 
16   0.14806 
17   0.135821 
18   0.212384 
19   0.190552 
20   0.339447 
21   0.441115 
 
>  <lowdin_charges> 
21 
1   -0.163738 
2   -0.154984 
3   -0.153529 
4   -0.179189 
5   -0.324214 
6   0.015905 
7   0.021451 
8   0.086487 
9   0.191066 
10   -0.2202 
11   -0.194935 
12   -0.256807 
13   -0.353723 
14   0.162753 
15   0.161717 
16   0.169414 
17   0.161316 
18   0.192957 
19   0.181449 
20   0.30022 
21   0.356584 
 
$$$$ 
 
