PCCDB-ID:  33635 
public computational chemistry database (PCCDB) project, http://pccdb.org 
 
 29 28  0  0  0  0  0  0  0  0999 V2000 
    4.7168   -0.3917    4.5391 C   0  0  0  0  0  0  0  0  0  0  0  0 
    2.2629   -0.9521    4.7044 C   0  0  0  0  0  0  0  0  0  0  0  0 
    5.1077    1.5441    1.6833 C   0  0  0  0  0  0  0  0  0  0  0  0 
    4.1775    0.3347    1.5015 C   0  0  0  0  0  0  0  0  0  0  0  0 
    6.1692    1.6505    0.5813 C   0  0  0  0  0  0  0  0  0  0  0  0 
    3.1069    0.1681    2.6043 C   0  0  0  0  0  0  0  0  0  0  0  0 
    7.0693    2.8972    0.7058 C   0  0  0  0  0  0  0  0  0  0  0  0 
    3.4608   -0.7990    3.7546 C   0  0  0  0  0  0  0  0  0  0  0  0 
    7.8532    2.9665    2.0112 C   0  0  0  0  0  0  0  0  0  0  0  0 
    7.7773    3.8642    2.8107 O   0  0  0  0  0  0  0  0  0  0  0  0 
    8.6878    1.9130    2.2529 O   0  0  0  0  0  0  0  0  0  0  0  0 
    4.9023   -1.0912    5.3631 H   0  0  0  0  0  0  0  0  0  0  0  0 
    4.6036    0.6096    4.9744 H   0  0  0  0  0  0  0  0  0  0  0  0 
    5.6138   -0.3845    3.9109 H   0  0  0  0  0  0  0  0  0  0  0  0 
    2.4715   -1.6862    5.4916 H   0  0  0  0  0  0  0  0  0  0  0  0 
    1.3644   -1.2807    4.1683 H   0  0  0  0  0  0  0  0  0  0  0  0 
    2.0275    0.0016    5.1949 H   0  0  0  0  0  0  0  0  0  0  0  0 
    5.5995    1.5008    2.6625 H   0  0  0  0  0  0  0  0  0  0  0  0 
    4.5051    2.4634    1.6893 H   0  0  0  0  0  0  0  0  0  0  0  0 
    4.7772   -0.5852    1.4317 H   0  0  0  0  0  0  0  0  0  0  0  0 
    3.6778    0.4372    0.5284 H   0  0  0  0  0  0  0  0  0  0  0  0 
    5.6813    1.6794   -0.4018 H   0  0  0  0  0  0  0  0  0  0  0  0 
    6.7827    0.7358    0.5759 H   0  0  0  0  0  0  0  0  0  0  0  0 
    2.1802   -0.1991    2.1436 H   0  0  0  0  0  0  0  0  0  0  0  0 
    2.8587    1.1536    3.0266 H   0  0  0  0  0  0  0  0  0  0  0  0 
    6.4679    3.8083    0.6527 H   0  0  0  0  0  0  0  0  0  0  0  0 
    7.7824    2.9245   -0.1305 H   0  0  0  0  0  0  0  0  0  0  0  0 
    3.6557   -1.7838    3.3012 H   0  0  0  0  0  0  0  0  0  0  0  0 
    8.6446    1.2797    1.5175 H   0  0  0  0  0  0  0  0  0  0  0  0 
  1 13  1  0  0  0  0 
  1 12  1  0  0  0  0 
  2 17  1  0  0  0  0 
  2 15  1  0  0  0  0 
  3 19  1  0  0  0  0 
  3 18  1  0  0  0  0 
  4  3  1  0  0  0  0 
  4  6  1  0  0  0  0 
  5  7  1  0  0  0  0 
  5  3  1  0  0  0  0 
  6 25  1  0  0  0  0 
  6  8  1  0  0  0  0 
  7  9  1  0  0  0  0 
  8  1  1  0  0  0  0 
  8  2  1  0  0  0  0 
  9 11  1  0  0  0  0 
  9 10  2  0  0  0  0 
 14  1  1  0  0  0  0 
 16  2  1  0  0  0  0 
 20  4  1  0  0  0  0 
 21  4  1  0  0  0  0 
 22  5  1  0  0  0  0 
 23  5  1  0  0  0  0 
 24  6  1  0  0  0  0 
 26  7  1  0  0  0  0 
 27  7  1  0  0  0  0 
 28  8  1  0  0  0  0 
 29 11  1  0  0  0  0 
M  END 
>  <HBA> 
2 
 
>  <HBD> 
1 
 
>  <TPSA> 
37.3 
 
>  <cid> 
33635 
 
>  <dipole> 
4.36 
 
>  <excitation_energy_1> 
5.588 
 
>  <excitation_energy_2> 
6.425 
 
>  <excitation_energy_3> 
7.303 
 
>  <excitation_energy_4> 
7.348 
 
>  <homo_energy> 
-7.217 
 
>  <homo_lumo_gap> 
7.519 
 
>  <logP> 
2.678 
 
>  <lumo_energy> 
0.302 
 
>  <melting_point> 
48.6 
 
>  <molecular_refractivity> 
47.15 
 
>  <oscillator_strength_1> 
0.002 
 
>  <oscillator_strength_2> 
0.0106 
 
>  <oscillator_strength_3> 
0.0021 
 
>  <oscillator_strength_4> 
0.007 
 
>  <open_babel_can_smiles> 
CC(CCCCCC(=O)O)C 
 
>  <mulliken_charges> 
29 
1   -0.443618 
2   -0.442806 
3   -0.265478 
4   -0.261845 
5   -0.277918 
6   -0.253128 
7   -0.380213 
8   -0.068593 
9   0.592461 
10   -0.437346 
11   -0.566749 
12   0.14093 
13   0.144734 
14   0.143085 
15   0.140514 
16   0.138569 
17   0.140951 
18   0.1606 
19   0.141926 
20   0.129014 
21   0.130384 
22   0.149572 
23   0.119356 
24   0.128541 
25   0.129798 
26   0.17928 
27   0.160461 
28   0.119156 
29   0.408363 
 
>  <lowdin_charges> 
29 
1   -0.447806 
2   -0.445836 
3   -0.281881 
4   -0.277476 
5   -0.274786 
6   -0.278106 
7   -0.31961 
8   -0.119491 
9   0.193844 
10   -0.236715 
11   -0.36614 
12   0.149761 
13   0.147646 
14   0.147777 
15   0.148926 
16   0.147048 
17   0.146428 
18   0.151544 
19   0.145523 
20   0.138534 
21   0.141295 
22   0.150402 
23   0.131367 
24   0.143135 
25   0.140007 
26   0.173047 
27   0.162837 
28   0.132564 
29   0.356161 
 
$$$$ 
 
