PCCDB-ID:  32214 
public computational chemistry database (PCCDB) project, http://pccdb.org 
 
 33 34  0  0  0  0  0  0  0  0999 V2000 
   -0.0608    1.7951   -1.2766 C   0  0  0  0  0  0  0  0  0  0  0  0 
    1.1543    0.8666   -1.1145 C   0  0  0  0  0  0  0  0  0  0  0  0 
   -1.0370    1.6475   -0.0992 C   0  0  0  0  0  0  0  0  0  0  0  0 
    0.7230   -0.5965   -0.9257 C   0  0  0  0  0  0  0  0  0  0  0  0 
   -1.4709    0.1851    0.0900 C   0  0  0  0  0  0  0  0  0  0  0  0 
    1.6521   -0.9738    3.4092 C   0  0  0  0  0  0  0  0  0  0  0  0 
    2.2198   -2.1244    4.2397 C   0  0  0  0  0  0  0  0  0  0  0  0 
    3.0690   -2.5372    6.5299 C   0  0  0  0  0  0  0  0  0  0  0  0 
    2.0692   -1.4358    6.6205 C   0  0  0  0  0  0  0  0  0  0  0  0 
   -0.2795   -0.7664    0.2218 C   0  0  0  0  0  0  0  0  0  0  0  0 
    1.0211   -1.4536    2.1177 C   0  0  0  0  0  0  0  0  0  0  0  0 
    2.8954   -1.6002    5.4243 N   0  0  0  0  0  0  0  0  0  0  0  0 
    1.0934   -2.5885    1.6926 O   0  0  0  0  0  0  0  0  0  0  0  0 
    0.3685   -0.4487    1.4927 O   0  0  0  0  0  0  0  0  0  0  0  0 
   -0.5811    1.5487   -2.2145 H   0  0  0  0  0  0  0  0  0  0  0  0 
    0.2682    2.8380   -1.3673 H   0  0  0  0  0  0  0  0  0  0  0  0 
    1.7406    1.1867   -0.2432 H   0  0  0  0  0  0  0  0  0  0  0  0 
    1.8158    0.9480   -1.9857 H   0  0  0  0  0  0  0  0  0  0  0  0 
   -1.9215    2.2778   -0.2536 H   0  0  0  0  0  0  0  0  0  0  0  0 
   -0.5542    2.0008    0.8212 H   0  0  0  0  0  0  0  0  0  0  0  0 
    1.5864   -1.2470   -0.7486 H   0  0  0  0  0  0  0  0  0  0  0  0 
    0.2385   -0.9600   -1.8436 H   0  0  0  0  0  0  0  0  0  0  0  0 
   -2.0575   -0.1421   -0.7799 H   0  0  0  0  0  0  0  0  0  0  0  0 
   -2.1183    0.0805    0.9688 H   0  0  0  0  0  0  0  0  0  0  0  0 
    2.4519   -0.2630    3.1650 H   0  0  0  0  0  0  0  0  0  0  0  0 
    0.9097   -0.4017    3.9785 H   0  0  0  0  0  0  0  0  0  0  0  0 
    2.9516   -2.6785    3.6433 H   0  0  0  0  0  0  0  0  0  0  0  0 
    1.4118   -2.8348    4.4920 H   0  0  0  0  0  0  0  0  0  0  0  0 
    2.6829   -3.5503    6.4085 H   0  0  0  0  0  0  0  0  0  0  0  0 
    4.0167   -2.4725    7.0602 H   0  0  0  0  0  0  0  0  0  0  0  0 
    2.2708   -0.5502    7.2192 H   0  0  0  0  0  0  0  0  0  0  0  0 
    1.0163   -1.7164    6.5594 H   0  0  0  0  0  0  0  0  0  0  0  0 
   -0.6116   -1.8058    0.2795 H   0  0  0  0  0  0  0  0  0  0  0  0 
  1  2  1  0  0  0  0 
  1  3  1  0  0  0  0 
  2  4  1  0  0  0  0 
  2 17  1  0  0  0  0 
  3  5  1  0  0  0  0 
  3 20  1  0  0  0  0 
  4 21  1  0  0  0  0 
  4 10  1  0  0  0  0 
  5 10  1  0  0  0  0 
  5 24  1  0  0  0  0 
  6 26  1  0  0  0  0 
  6  7  1  0  0  0  0 
  7 28  1  0  0  0  0 
  7 12  1  0  0  0  0 
  8  9  1  0  0  0  0 
  8 30  1  0  0  0  0 
  9 31  1  0  0  0  0 
 10 33  1  0  0  0  0 
 10 14  1  0  0  0  0 
 11  6  1  0  0  0  0 
 12  8  1  0  0  0  0 
 12  9  1  0  0  0  0 
 13 11  2  0  0  0  0 
 14 11  1  0  0  0  0 
 15  1  1  0  0  0  0 
 16  1  1  0  0  0  0 
 18  2  1  0  0  0  0 
 19  3  1  0  0  0  0 
 22  4  1  0  0  0  0 
 23  5  1  0  0  0  0 
 25  6  1  0  0  0  0 
 27  7  1  0  0  0  0 
 29  8  1  0  0  0  0 
 32  9  1  0  0  0  0 
M  END 
>  <HBA> 
3 
 
>  <HBD> 
0 
 
>  <TPSA> 
29.31 
 
>  <cid> 
32214 
 
>  <dipole> 
1.61 
 
>  <excitation_energy_1> 
5.787 
 
>  <excitation_energy_2> 
5.963 
 
>  <excitation_energy_3> 
6.029 
 
>  <excitation_energy_4> 
6.247 
 
>  <homo_energy> 
-6.351 
 
>  <homo_lumo_gap> 
6.795 
 
>  <logP> 
1.506 
 
>  <lumo_energy> 
0.444 
 
>  <melting_point> 
16.43 
 
>  <molecular_refractivity> 
58.86 
 
>  <oscillator_strength_1> 
0.0009 
 
>  <oscillator_strength_2> 
0.009 
 
>  <oscillator_strength_3> 
0.0096 
 
>  <oscillator_strength_4> 
0.0296 
 
>  <open_babel_can_smiles> 
O=C(OC1CCCCC1)CCN1CC1 
 
>  <mulliken_charges> 
33 
1   -0.26051 
2   -0.260551 
3   -0.261149 
4   -0.280514 
5   -0.275015 
6   -0.367746 
7   -0.119861 
8   -0.191607 
9   -0.197251 
10   0.116692 
11   0.63443 
12   -0.357923 
13   -0.485832 
14   -0.483647 
15   0.12607 
16   0.133075 
17   0.14083 
18   0.133489 
19   0.13194 
20   0.146544 
21   0.156868 
22   0.134534 
23   0.135654 
24   0.142378 
25   0.186499 
26   0.170129 
27   0.164432 
28   0.124008 
29   0.14701 
30   0.157422 
31   0.157058 
32   0.143177 
33   0.159365 
 
>  <lowdin_charges> 
33 
1   -0.277306 
2   -0.281257 
3   -0.28091 
4   -0.289397 
5   -0.284723 
6   -0.306817 
7   -0.19743 
8   -0.240283 
9   -0.245595 
10   0.004245 
11   0.197314 
12   -0.19455 
13   -0.271843 
14   -0.198592 
15   0.136298 
16   0.143719 
17   0.144589 
18   0.146091 
19   0.145109 
20   0.146996 
21   0.157855 
22   0.147381 
23   0.147463 
24   0.15127 
25   0.17786 
26   0.169 
27   0.158956 
28   0.128485 
29   0.148114 
30   0.158689 
31   0.158865 
32   0.144849 
33   0.155557 
 
$$$$ 
 
