PCCDB-ID:  25939 
public computational chemistry database (PCCDB) project, http://pccdb.org 
 
 26 27  0  0  1  0  0  0  0  0999 V2000 
   -1.4218    0.8770   -0.1262 C   0  0  0  0  0  0  0  0  0  0  0  0 
   -0.6279    1.9601    0.2496 C   0  0  0  0  0  0  0  0  0  0  0  0 
   -0.8178   -0.3400   -0.4454 C   0  0  0  0  0  0  0  0  0  0  0  0 
    0.7611    1.8278    0.3010 C   0  0  0  0  0  0  0  0  0  0  0  0 
    0.5690   -0.4759   -0.3885 C   0  0  0  0  0  0  0  0  0  0  0  0 
    3.7785    1.2121   -2.0177 C   0  0  0  0  0  0  0  0  0  0  0  0 
    3.7049    1.6092   -0.5428 C   0  0  0  0  0  0  0  0  0  0  0  0 
    1.3764    0.6083   -0.0180 C   0  0  0  0  0  0  0  0  0  0  0  0 
    3.7683   -0.3064   -1.9701 C   0  0  0  0  0  0  0  0  0  0  0  0 
    3.3669    0.1535    1.5257 C   0  0  0  0  0  0  0  0  0  0  0  0 
    2.8897    0.4394    0.0803 C   0  0  2  0  0  0  0  0  0  0  0  0 
    2.8946    0.6447    2.5927 N   0  0  0  0  0  0  0  0  0  0  0  0 
    4.0963   -1.1048   -2.8012 O   0  0  0  0  0  0  0  0  0  0  0  0 
    4.4759   -0.6193    1.5878 O   0  0  0  0  0  0  0  0  0  0  0  0 
    3.3018   -0.7051   -0.7293 O   0  0  0  0  0  0  0  0  0  0  0  0 
   -2.5023    0.9807   -0.1701 H   0  0  0  0  0  0  0  0  0  0  0  0 
   -1.0851    2.9134    0.4998 H   0  0  0  0  0  0  0  0  0  0  0  0 
   -1.4266   -1.1911   -0.7376 H   0  0  0  0  0  0  0  0  0  0  0  0 
    1.3583    2.6875    0.5926 H   0  0  0  0  0  0  0  0  0  0  0  0 
    1.0316   -1.4246   -0.6367 H   0  0  0  0  0  0  0  0  0  0  0  0 
    4.6644    1.5669   -2.5485 H   0  0  0  0  0  0  0  0  0  0  0  0 
    2.8942    1.5435   -2.5761 H   0  0  0  0  0  0  0  0  0  0  0  0 
    3.2446    2.5817   -0.3679 H   0  0  0  0  0  0  0  0  0  0  0  0 
    4.7059    1.6212   -0.0997 H   0  0  0  0  0  0  0  0  0  0  0  0 
    2.0659    1.2061    2.3941 H   0  0  0  0  0  0  0  0  0  0  0  0 
    4.5545   -1.0911    0.7388 H   0  0  0  0  0  0  0  0  0  0  0  0 
  1  2  2  0  0  0  0 
  2  4  1  0  0  0  0 
  2 17  1  0  0  0  0 
  3  5  2  0  0  0  0 
  3  1  1  0  0  0  0 
  4 19  1  0  0  0  0 
  5  8  1  0  0  0  0 
  6  9  1  0  0  0  0 
  6  7  1  0  0  0  0 
  7 23  1  0  0  0  0 
  7 24  1  0  0  0  0 
  7 11  1  0  0  0  0 
  8 11  1  0  0  0  0 
  8  4  2  0  0  0  0 
  9 15  1  0  0  0  0 
 10 14  1  0  0  0  0 
 10 12  2  0  0  0  0 
 11 10  1  1  0  0  0 
 13  9  2  0  0  0  0 
 15 11  1  0  0  0  0 
 16  1  1  0  0  0  0 
 18  3  1  0  0  0  0 
 20  5  1  0  0  0  0 
 21  6  1  0  0  0  0 
 22  6  1  0  0  0  0 
 25 12  1  0  0  0  0 
 26 14  1  0  0  0  0 
M  END 
>  <HBA> 
4 
 
>  <HBD> 
1 
 
>  <TPSA> 
69.39 
 
>  <cid> 
25939 
 
>  <dipole> 
4.85 
 
>  <excitation_energy_1> 
5.285 
 
>  <excitation_energy_2> 
5.571 
 
>  <excitation_energy_3> 
5.787 
 
>  <excitation_energy_4> 
5.823 
 
>  <homo_energy> 
-7.135 
 
>  <homo_lumo_gap> 
6.403 
 
>  <logP> 
1.405 
 
>  <lumo_energy> 
-0.732 
 
>  <melting_point> 
122.1 
 
>  <molecular_refractivity> 
52.6 
 
>  <oscillator_strength_1> 
0.0036 
 
>  <oscillator_strength_2> 
0.0028 
 
>  <oscillator_strength_3> 
0.0044 
 
>  <oscillator_strength_4> 
0.0279 
 
>  <open_babel_can_smiles> 
OC(=N)[C@]1(CCC(=O)O1)c1ccccc1 
 
>  <mulliken_charges> 
26 
1   -0.121639 
2   -0.132936 
3   -0.128588 
4   -0.200074 
5   -0.164942 
6   -0.383841 
7   -0.302028 
8   0.121791 
9   0.621174 
10   0.492096 
11   0.130443 
12   -0.587493 
13   -0.433293 
14   -0.587261 
15   -0.52168 
16   0.140714 
17   0.141136 
18   0.143444 
19   0.139825 
20   0.163167 
21   0.194729 
22   0.199064 
23   0.172143 
24   0.178938 
25   0.295219 
26   0.429894 
 
>  <lowdin_charges> 
26 
1   -0.146101 
2   -0.150369 
3   -0.147089 
4   -0.179619 
5   -0.154939 
6   -0.31277 
7   -0.280394 
8   -0.025594 
9   0.2048 
10   0.114768 
11   0.094366 
12   -0.383716 
13   -0.212728 
14   -0.357841 
15   -0.210107 
16   0.161435 
17   0.163303 
18   0.165431 
19   0.159973 
20   0.173903 
21   0.183122 
22   0.183808 
23   0.166665 
24   0.16606 
25   0.262745 
26   0.360886 
 
$$$$ 
 
