PCCDB-ID:  15477 
public computational chemistry database (PCCDB) project, http://pccdb.org 
 
 14 14  0  0  0  0  0  0  0  0999 V2000 
    0.9526   -0.0146    0.2148 C   0  0  0  0  0  0  0  0  0  0  0  0 
    4.5218    0.5905   -0.0087 C   0  0  0  0  0  0  0  0  0  0  0  0 
    3.2234    1.0527    0.0921 C   0  0  0  0  0  0  0  0  0  0  0  0 
    3.2744   -1.1214    0.0262 C   0  0  0  0  0  0  0  0  0  0  0  0 
    4.5401   -0.7690   -0.0494 N   0  0  0  0  0  0  0  0  0  0  0  0 
    2.4138   -0.0524    0.1152 N   0  0  0  0  0  0  0  0  0  0  0  0 
    2.8293   -2.4922    0.0183 N   0  0  0  0  0  0  0  0  0  0  0  0 
    1.6082   -2.6853    0.1230 O   0  0  0  0  0  0  0  0  0  0  0  0 
    3.6777   -3.3673   -0.0899 O   0  0  0  0  0  0  0  0  0  0  0  0 
    0.6529    1.0347    0.2429 H   0  0  0  0  0  0  0  0  0  0  0  0 
    0.6197   -0.5218    1.1208 H   0  0  0  0  0  0  0  0  0  0  0  0 
    0.5001   -0.5080   -0.6455 H   0  0  0  0  0  0  0  0  0  0  0  0 
    5.4335    1.1701   -0.0532 H   0  0  0  0  0  0  0  0  0  0  0  0 
    2.8114    2.0498    0.1476 H   0  0  0  0  0  0  0  0  0  0  0  0 
  1 10  1  0  0  0  0 
  1 11  1  0  0  0  0 
  2  3  2  0  0  0  0 
  3  6  1  0  0  0  0 
  3 14  1  0  0  0  0 
  4  6  1  0  0  0  0 
  5  2  1  0  0  0  0 
  5  4  2  0  0  0  0 
  6  1  1  0  0  0  0 
  7  4  1  0  0  0  0 
  7  8  2  0  0  0  0 
  9  7  2  0  0  0  0 
 12  1  1  0  0  0  0 
 13  2  1  0  0  0  0 
M  END 
>  <HBA> 
2 
 
>  <HBD> 
0 
 
>  <TPSA> 
63.64 
 
>  <cid> 
15477 
 
>  <dipole> 
6.03 
 
>  <excitation_energy_1> 
3.745 
 
>  <excitation_energy_2> 
4.266 
 
>  <excitation_energy_3> 
4.333 
 
>  <excitation_energy_4> 
4.643 
 
>  <homo_energy> 
-7.102 
 
>  <homo_lumo_gap> 
4.727 
 
>  <logP> 
0.852 
 
>  <lumo_energy> 
-2.376 
 
>  <melting_point> 
60.78 
 
>  <molecular_refractivity> 
32.31 
 
>  <oscillator_strength_1> 
0.0002 
 
>  <oscillator_strength_2> 
0.2422 
 
>  <oscillator_strength_3> 
0.0005 
 
>  <oscillator_strength_4> 
0.0015 
 
>  <open_babel_can_smiles> 
O=N(=O)c1nccn1C 
 
>  <mulliken_charges> 
14 
1   -0.308676 
2   -0.022177 
3   0.030251 
4   0.663373 
5   -0.421161 
6   -0.421364 
7   0.368278 
8   -0.424393 
9   -0.368719 
10   0.166979 
11   0.203196 
12   0.203282 
13   0.158105 
14   0.173026 
 
>  <lowdin_charges> 
14 
1   -0.34093 
2   -0.138383 
3   -0.140082 
4   0.037457 
5   -0.133921 
6   0.018037 
7   0.303482 
8   -0.269595 
9   -0.212354 
10   0.163035 
11   0.180614 
12   0.181303 
13   0.173769 
14   0.177569 
 
$$$$ 
 
