PCCDB-ID:  8473 
public computational chemistry database (PCCDB) project, http://pccdb.org 
 
 15 16  0  0  1  0  0  0  0  0999 V2000 
    1.2674   -0.6463    0.4414 C   0  0  0  0  0  0  0  0  0  0  0  0 
    1.2329    0.6890    0.4695 C   0  0  0  0  0  0  0  0  0  0  0  0 
   -1.2221   -0.7123    0.5087 C   0  0  0  0  0  0  0  0  0  0  0  0 
   -1.2566    0.6230    0.5371 C   0  0  0  0  0  0  0  0  0  0  0  0 
   -0.0463    0.0267   -1.3851 C   0  0  0  0  0  0  0  0  0  0  0  0 
    0.0126   -1.1177   -0.3260 C   0  0  1  0  0  0  0  0  0  0  0  0 
   -0.0455    1.1267   -0.2786 C   0  0  2  0  0  0  0  0  0  0  0  0 
    1.9892   -1.3084    0.9067 H   0  0  0  0  0  0  0  0  0  0  0  0 
    1.9203    1.3673    0.9628 H   0  0  0  0  0  0  0  0  0  0  0  0 
   -1.8819   -1.4110    1.0112 H   0  0  0  0  0  0  0  0  0  0  0  0 
   -1.9509    1.2647    1.0682 H   0  0  0  0  0  0  0  0  0  0  0  0 
   -0.9628    0.0156   -1.9845 H   0  0  0  0  0  0  0  0  0  0  0  0 
    0.8359    0.0629   -2.0330 H   0  0  0  0  0  0  0  0  0  0  0  0 
    0.0301   -2.1475   -0.6887 H   0  0  0  0  0  0  0  0  0  0  0  0 
   -0.0820    2.1705   -0.5973 H   0  0  0  0  0  0  0  0  0  0  0  0 
  1  2  2  0  0  0  0 
  1  8  1  0  0  0  0 
  2  9  1  0  0  0  0 
  3  4  2  0  0  0  0 
  3 10  1  0  0  0  0 
  4 11  1  0  0  0  0 
  5  6  1  0  0  0  0 
  5  7  1  0  0  0  0 
  6 14  1  6  0  0  0 
  6  1  1  0  0  0  0 
  6  3  1  0  0  0  0 
  7 15  1  6  0  0  0 
  7  2  1  0  0  0  0 
  7  4  1  0  0  0  0 
 12  5  1  0  0  0  0 
 13  5  1  0  0  0  0 
M  END 
>  <HBA> 
0 
 
>  <HBD> 
0 
 
>  <TPSA> 
0.0 
 
>  <cid> 
8473 
 
>  <dipole> 
0.04 
 
>  <excitation_energy_1> 
4.862 
 
>  <excitation_energy_2> 
5.551 
 
>  <excitation_energy_3> 
5.56 
 
>  <excitation_energy_4> 
6.112 
 
>  <homo_energy> 
-5.905 
 
>  <homo_lumo_gap> 
5.91 
 
>  <logP> 
1.748 
 
>  <lumo_energy> 
0.005 
 
>  <melting_point> 
37.51 
 
>  <molecular_refractivity> 
30.59 
 
>  <oscillator_strength_1> 
0.0 
 
>  <oscillator_strength_2> 
0.0088 
 
>  <oscillator_strength_3> 
0.0138 
 
>  <oscillator_strength_4> 
0.0189 
 
>  <open_babel_can_smiles> 
C1=C[C@@H]2C[C@H]1C=C2 
 
>  <mulliken_charges> 
15 
1   -0.097533 
2   -0.097911 
3   -0.097695 
4   -0.097827 
5   -0.242804 
6   -0.195369 
7   -0.195245 
8   0.128972 
9   0.12897 
10   0.12897 
11   0.128962 
12   0.135822 
13   0.135752 
14   0.118459 
15   0.118477 
 
>  <lowdin_charges> 
15 
1   -0.173136 
2   -0.17321 
3   -0.173161 
4   -0.173114 
5   -0.252451 
6   -0.133227 
7   -0.132974 
8   0.159404 
9   0.159468 
10   0.159477 
11   0.159469 
12   0.143106 
13   0.143286 
14   0.143634 
15   0.143427 
 
$$$$ 
 
