PCCDB-ID:  8172 
public computational chemistry database (PCCDB) project, http://pccdb.org 
 
 24 23  0  0  0  0  0  0  0  0999 V2000 
   -5.7264   -1.3155    1.9687 C   0  0  0  0  0  0  0  0  0  0  0  0 
   -1.1446   -5.7798   -0.6486 C   0  0  0  0  0  0  0  0  0  0  0  0 
   -4.2355   -1.0236    2.0439 C   0  0  0  0  0  0  0  0  0  0  0  0 
   -1.1237   -5.4283    0.8311 C   0  0  0  0  0  0  0  0  0  0  0  0 
   -2.1794   -2.1907    2.2618 C   0  0  0  0  0  0  0  0  0  0  0  0 
   -1.5793   -3.5822    2.2520 C   0  0  0  0  0  0  0  0  0  0  0  0 
   -6.1566   -2.0796    3.0818 O   0  0  0  0  0  0  0  0  0  0  0  0 
   -0.3564   -4.8751   -1.4024 O   0  0  0  0  0  0  0  0  0  0  0  0 
   -3.5770   -2.2827    2.0680 O   0  0  0  0  0  0  0  0  0  0  0  0 
   -1.6421   -4.1098    0.9417 O   0  0  0  0  0  0  0  0  0  0  0  0 
   -5.9451   -1.8286    1.0183 H   0  0  0  0  0  0  0  0  0  0  0  0 
   -6.2906   -0.3772    1.9848 H   0  0  0  0  0  0  0  0  0  0  0  0 
   -2.1889   -5.7947   -1.0001 H   0  0  0  0  0  0  0  0  0  0  0  0 
   -0.7218   -6.7784   -0.8001 H   0  0  0  0  0  0  0  0  0  0  0  0 
   -4.0090   -0.4586    2.9627 H   0  0  0  0  0  0  0  0  0  0  0  0 
   -3.9054   -0.4257    1.1783 H   0  0  0  0  0  0  0  0  0  0  0  0 
   -0.0897   -5.4638    1.2109 H   0  0  0  0  0  0  0  0  0  0  0  0 
   -1.7328   -6.1383    1.4148 H   0  0  0  0  0  0  0  0  0  0  0  0 
   -1.7166   -1.5860    1.4652 H   0  0  0  0  0  0  0  0  0  0  0  0 
   -1.9525   -1.7063    3.2268 H   0  0  0  0  0  0  0  0  0  0  0  0 
   -2.1331   -4.2248    2.9554 H   0  0  0  0  0  0  0  0  0  0  0  0 
   -0.5333   -3.5273    2.5986 H   0  0  0  0  0  0  0  0  0  0  0  0 
   -5.5445   -2.8329    3.1270 H   0  0  0  0  0  0  0  0  0  0  0  0 
   -0.6590   -3.9903   -1.1385 H   0  0  0  0  0  0  0  0  0  0  0  0 
  1 12  1  0  0  0  0 
  1  3  1  0  0  0  0 
  1  7  1  0  0  0  0 
  2  4  1  0  0  0  0 
  3  9  1  0  0  0  0 
  3 15  1  0  0  0  0 
  4 10  1  0  0  0  0 
  4 17  1  0  0  0  0 
  4 18  1  0  0  0  0 
  5 20  1  0  0  0  0 
  6  5  1  0  0  0  0 
  6 22  1  0  0  0  0 
  6 21  1  0  0  0  0 
  7 23  1  0  0  0  0 
  8 24  1  0  0  0  0 
  8  2  1  0  0  0  0 
  9  5  1  0  0  0  0 
 10  6  1  0  0  0  0 
 11  1  1  0  0  0  0 
 13  2  1  0  0  0  0 
 14  2  1  0  0  0  0 
 16  3  1  0  0  0  0 
 19  5  1  0  0  0  0 
M  END 
>  <HBA> 
4 
 
>  <HBD> 
2 
 
>  <TPSA> 
58.92 
 
>  <cid> 
8172 
 
>  <dipole> 
1.93 
 
>  <excitation_energy_1> 
6.701 
 
>  <excitation_energy_2> 
6.855 
 
>  <excitation_energy_3> 
6.857 
 
>  <excitation_energy_4> 
6.916 
 
>  <homo_energy> 
-7.148 
 
>  <homo_lumo_gap> 
9.121 
 
>  <logP> 
-0.996 
 
>  <lumo_energy> 
1.973 
 
>  <melting_point> 
-7.23 
 
>  <molecular_refractivity> 
35.45 
 
>  <oscillator_strength_1> 
0.014 
 
>  <oscillator_strength_2> 
0.0124 
 
>  <oscillator_strength_3> 
0.0061 
 
>  <oscillator_strength_4> 
0.0224 
 
>  <open_babel_can_smiles> 
OCCOCCOCCO 
 
>  <mulliken_charges> 
24 
1   -0.036202 
2   -0.036383 
3   -0.032533 
4   -0.032426 
5   -0.019423 
6   -0.019339 
7   -0.621117 
8   -0.621023 
9   -0.484599 
10   -0.484829 
11   0.133626 
12   0.14552 
13   0.133738 
14   0.145554 
15   0.130717 
16   0.123824 
17   0.130779 
18   0.123811 
19   0.134445 
20   0.12667 
21   0.134363 
22   0.126711 
23   0.399076 
24   0.399037 
 
>  <lowdin_charges> 
24 
1   -0.13868 
2   -0.136601 
3   -0.149953 
4   -0.148499 
5   -0.134072 
6   -0.134034 
7   -0.46845 
8   -0.467233 
9   -0.277925 
10   -0.278013 
11   0.133756 
12   0.150517 
13   0.132486 
14   0.149881 
15   0.133491 
16   0.133995 
17   0.131838 
18   0.134732 
19   0.1385 
20   0.134531 
21   0.138679 
22   0.133577 
23   0.34413 
24   0.343347 
 
$$$$ 
 
