PCCDB-ID:  42583 
public computational chemistry database (PCCDB) project, http://pccdb.org 
 
 22 24  0  0  0  0  0  0  0  0999 V2000 
   -2.7609    1.0294   -0.0701 C   0  0  0  0  0  0  0  0  0  0  0  0 
   -2.7149   -0.3384    0.1057 C   0  0  0  0  0  0  0  0  0  0  0  0 
   -0.7211   -1.9231    0.4305 C   0  0  0  0  0  0  0  0  0  0  0  0 
    0.6216   -2.0036   -0.2987 C   0  0  0  0  0  0  0  0  0  0  0  0 
    2.8479    0.8970   -0.0259 C   0  0  0  0  0  0  0  0  0  0  0  0 
    2.7272   -0.4811   -0.0978 C   0  0  0  0  0  0  0  0  0  0  0  0 
   -0.6893    0.5236   -0.0315 C   0  0  0  0  0  0  0  0  0  0  0  0 
    0.7559    0.4734   -0.0376 C   0  0  0  0  0  0  0  0  0  0  0  0 
   -1.5021    1.5592   -0.1558 N   0  0  0  0  0  0  0  0  0  0  0  0 
    1.6271    1.4807    0.0116 N   0  0  0  0  0  0  0  0  0  0  0  0 
   -1.3792   -0.6611    0.1126 N   0  0  0  0  0  0  0  0  0  0  0  0 
    1.3666   -0.7550   -0.0874 N   0  0  0  0  0  0  0  0  0  0  0  0 
    3.7570   -1.4520   -0.1440 N   0  0  0  0  0  0  0  0  0  0  0  0 
    4.9176   -1.0342   -0.1249 O   0  0  0  0  0  0  0  0  0  0  0  0 
    3.4398   -2.6518   -0.2042 O   0  0  0  0  0  0  0  0  0  0  0  0 
   -3.6393    1.6556   -0.1478 H   0  0  0  0  0  0  0  0  0  0  0  0 
   -3.4855   -1.0878    0.2114 H   0  0  0  0  0  0  0  0  0  0  0  0 
   -0.5728   -1.9980    1.5152 H   0  0  0  0  0  0  0  0  0  0  0  0 
   -1.3561   -2.7542    0.1130 H   0  0  0  0  0  0  0  0  0  0  0  0 
    0.4668   -2.1436   -1.3754 H   0  0  0  0  0  0  0  0  0  0  0  0 
    1.2183   -2.8331    0.0729 H   0  0  0  0  0  0  0  0  0  0  0  0 
    3.7677    1.4629    0.0065 H   0  0  0  0  0  0  0  0  0  0  0  0 
  1  2  2  0  0  0  0 
  2 11  1  0  0  0  0 
  2 17  1  0  0  0  0 
  3 18  1  0  0  0  0 
  4 12  1  0  0  0  0 
  4 21  1  0  0  0  0 
  4  3  1  0  0  0  0 
  5 22  1  0  0  0  0 
  5 10  1  0  0  0  0 
  6 12  1  0  0  0  0 
  6  5  2  0  0  0  0 
  7 11  1  0  0  0  0 
  8  7  1  0  0  0  0 
  8 10  2  0  0  0  0 
  9  1  1  0  0  0  0 
  9  7  2  0  0  0  0 
 11  3  1  0  0  0  0 
 12  8  1  0  0  0  0 
 13 14  2  0  0  0  0 
 13  6  1  0  0  0  0 
 15 13  2  0  0  0  0 
 16  1  1  0  0  0  0 
 19  3  1  0  0  0  0 
 20  4  1  0  0  0  0 
M  END 
>  <HBA> 
4 
 
>  <HBD> 
0 
 
>  <TPSA> 
81.46 
 
>  <cid> 
42583 
 
>  <dipole> 
6.2 
 
>  <excitation_energy_1> 
3.281 
 
>  <excitation_energy_2> 
3.775 
 
>  <excitation_energy_3> 
4.167 
 
>  <excitation_energy_4> 
4.447 
 
>  <homo_energy> 
-6.24 
 
>  <homo_lumo_gap> 
3.671 
 
>  <logP> 
1.192 
 
>  <lumo_energy> 
-2.569 
 
>  <melting_point> 
140.31 
 
>  <molecular_refractivity> 
52.68 
 
>  <oscillator_strength_1> 
0.307 
 
>  <oscillator_strength_2> 
0.0003 
 
>  <oscillator_strength_3> 
0.0005 
 
>  <oscillator_strength_4> 
0.0017 
 
>  <open_babel_can_smiles> 
O=N(=O)c1cnc2n1CCn1c2ncc1 
 
>  <mulliken_charges> 
22 
1   -0.026656 
2   0.018238 
3   -0.165977 
4   -0.163206 
5   0.015284 
6   0.505514 
7   0.486542 
8   0.521584 
9   -0.480716 
10   -0.489697 
11   -0.461319 
12   -0.541093 
13   0.324583 
14   -0.399685 
15   -0.433903 
16   0.149821 
17   0.163421 
18   0.191114 
19   0.184257 
20   0.191077 
21   0.224739 
22   0.186078 
 
>  <lowdin_charges> 
22 
1   -0.137097 
2   -0.159067 
3   -0.192149 
4   -0.196529 
5   -0.092241 
6   -0.008703 
7   0.029789 
8   0.074192 
9   -0.152771 
10   -0.151776 
11   -0.013847 
12   -0.014868 
13   0.305665 
14   -0.247803 
15   -0.279065 
16   0.170183 
17   0.176279 
18   0.164018 
19   0.174811 
20   0.166909 
21   0.194687 
22   0.189382 
 
$$$$ 
 
