PCCDB-ID:  40761 
public computational chemistry database (PCCDB) project, http://pccdb.org 
 
 43 42  0  0  0  0  0  0  0  0999 V2000 
   10.7340   -6.6010    6.5935 C   0  0  0  0  0  0  0  0  0  0  0  0 
    9.2043   -6.6191    6.7019 C   0  0  0  0  0  0  0  0  0  0  0  0 
    8.5664   -5.2459    6.9711 C   0  0  0  0  0  0  0  0  0  0  0  0 
    8.7288   -4.2266    5.8343 C   0  0  0  0  0  0  0  0  0  0  0  0 
    8.0204   -2.8943    6.1210 C   0  0  0  0  0  0  0  0  0  0  0  0 
    8.2057   -1.8177    5.0382 C   0  0  0  0  0  0  0  0  0  0  0  0 
    7.5333   -2.1350    3.6949 C   0  0  0  0  0  0  0  0  0  0  0  0 
    7.7007   -1.0193    2.6548 C   0  0  0  0  0  0  0  0  0  0  0  0 
    7.0193   -1.3216    1.3135 C   0  0  0  0  0  0  0  0  0  0  0  0 
    7.2010   -0.2030    0.2780 C   0  0  0  0  0  0  0  0  0  0  0  0 
    6.6003   -0.5021   -1.1079 C   0  0  0  0  0  0  0  0  0  0  0  0 
    5.0718   -0.6797   -1.1586 C   0  0  0  0  0  0  0  0  0  0  0  0 
    4.2650    0.5754   -0.7839 C   0  0  0  0  0  0  0  0  0  0  0  0 
    2.8062    0.4552   -0.8953 N   0  0  0  0  0  0  0  0  0  0  0  0 
   11.1311   -7.6140    6.4604 H   0  0  0  0  0  0  0  0  0  0  0  0 
   11.1884   -6.1824    7.5005 H   0  0  0  0  0  0  0  0  0  0  0  0 
   11.0772   -6.0000    5.7441 H   0  0  0  0  0  0  0  0  0  0  0  0 
    8.9142   -7.3042    7.5101 H   0  0  0  0  0  0  0  0  0  0  0  0 
    8.7777   -7.0402    5.7801 H   0  0  0  0  0  0  0  0  0  0  0  0 
    8.9885   -4.8270    7.8971 H   0  0  0  0  0  0  0  0  0  0  0  0 
    7.4935   -5.3885    7.1653 H   0  0  0  0  0  0  0  0  0  0  0  0 
    8.3400   -4.6660    4.9048 H   0  0  0  0  0  0  0  0  0  0  0  0 
    9.7956   -4.0299    5.6568 H   0  0  0  0  0  0  0  0  0  0  0  0 
    8.3917   -2.4988    7.0772 H   0  0  0  0  0  0  0  0  0  0  0  0 
    6.9457   -3.0798    6.2677 H   0  0  0  0  0  0  0  0  0  0  0  0 
    9.2806   -1.6480    4.8749 H   0  0  0  0  0  0  0  0  0  0  0  0 
    7.8043   -0.8662    5.4150 H   0  0  0  0  0  0  0  0  0  0  0  0 
    6.4607   -2.3155    3.8633 H   0  0  0  0  0  0  0  0  0  0  0  0 
    7.9381   -3.0705    3.2848 H   0  0  0  0  0  0  0  0  0  0  0  0 
    8.7726   -0.8392    2.4843 H   0  0  0  0  0  0  0  0  0  0  0  0 
    7.2976   -0.0801    3.0621 H   0  0  0  0  0  0  0  0  0  0  0  0 
    5.9491   -1.4994    1.4903 H   0  0  0  0  0  0  0  0  0  0  0  0 
    7.4196   -2.2623    0.9061 H   0  0  0  0  0  0  0  0  0  0  0  0 
    8.2762   -0.0127    0.1509 H   0  0  0  0  0  0  0  0  0  0  0  0 
    6.7800    0.7308    0.6759 H   0  0  0  0  0  0  0  0  0  0  0  0 
    7.0725   -1.4111   -1.5064 H   0  0  0  0  0  0  0  0  0  0  0  0 
    6.8821    0.3090   -1.7948 H   0  0  0  0  0  0  0  0  0  0  0  0 
    4.7645   -1.5105   -0.5068 H   0  0  0  0  0  0  0  0  0  0  0  0 
    4.7895   -0.9786   -2.1791 H   0  0  0  0  0  0  0  0  0  0  0  0 
    4.5786    1.4137   -1.4211 H   0  0  0  0  0  0  0  0  0  0  0  0 
    4.4880    0.8759    0.2470 H   0  0  0  0  0  0  0  0  0  0  0  0 
    2.5621    0.1725   -1.8447 H   0  0  0  0  0  0  0  0  0  0  0  0 
    2.4829   -0.3024   -0.2936 H   0  0  0  0  0  0  0  0  0  0  0  0 
  1  2  1  0  0  0  0 
  1 16  1  0  0  0  0 
  2  3  1  0  0  0  0 
  2 18  1  0  0  0  0 
  3 21  1  0  0  0  0 
  3 20  1  0  0  0  0 
  4  5  1  0  0  0  0 
  4  3  1  0  0  0  0 
  5 25  1  0  0  0  0 
  5 24  1  0  0  0  0 
  6 27  1  0  0  0  0 
  6  5  1  0  0  0  0 
  7 28  1  0  0  0  0 
  7  6  1  0  0  0  0 
  8 31  1  0  0  0  0 
  8  7  1  0  0  0  0 
  9 32  1  0  0  0  0 
  9  8  1  0  0  0  0 
 10 35  1  0  0  0  0 
 10  9  1  0  0  0  0 
 11 10  1  0  0  0  0 
 12 11  1  0  0  0  0 
 12 13  1  0  0  0  0 
 12 38  1  0  0  0  0 
 13 41  1  0  0  0  0 
 14 13  1  0  0  0  0 
 14 43  1  0  0  0  0 
 15  1  1  0  0  0  0 
 17  1  1  0  0  0  0 
 19  2  1  0  0  0  0 
 22  4  1  0  0  0  0 
 23  4  1  0  0  0  0 
 26  6  1  0  0  0  0 
 29  7  1  0  0  0  0 
 30  8  1  0  0  0  0 
 33  9  1  0  0  0  0 
 34 10  1  0  0  0  0 
 36 11  1  0  0  0  0 
 37 11  1  0  0  0  0 
 39 12  1  0  0  0  0 
 40 13  1  0  0  0  0 
 42 14  1  0  0  0  0 
M  END 
>  <HBA> 
1 
 
>  <HBD> 
1 
 
>  <TPSA> 
26.02 
 
>  <cid> 
40761 
 
>  <dipole> 
1.5 
 
>  <excitation_energy_1> 
5.52 
 
>  <excitation_energy_2> 
6.133 
 
>  <excitation_energy_3> 
6.299 
 
>  <excitation_energy_4> 
6.37 
 
>  <homo_energy> 
-6.169 
 
>  <homo_lumo_gap> 
8.267 
 
>  <logP> 
4.956 
 
>  <lumo_energy> 
2.098 
 
>  <melting_point> 
23.04 
 
>  <molecular_refractivity> 
67.31 
 
>  <oscillator_strength_1> 
0.0259 
 
>  <oscillator_strength_2> 
0.0089 
 
>  <oscillator_strength_3> 
0.0049 
 
>  <oscillator_strength_4> 
0.006 
 
>  <open_babel_can_smiles> 
CCCCCCCCCCCCCN 
 
>  <mulliken_charges> 
43 
1   -0.442678 
2   -0.248673 
3   -0.248698 
4   -0.254438 
5   -0.254199 
6   -0.254787 
7   -0.254231 
8   -0.252659 
9   -0.253273 
10   -0.258194 
11   -0.259543 
12   -0.264799 
13   -0.142298 
14   -0.705081 
15   0.141181 
16   0.140187 
17   0.145654 
18   0.129807 
19   0.128501 
20   0.125306 
21   0.126487 
22   0.130381 
23   0.130282 
24   0.126722 
25   0.125336 
26   0.125689 
27   0.126688 
28   0.124821 
29   0.13177 
30   0.127063 
31   0.127159 
32   0.12889 
33   0.125809 
34   0.128324 
35   0.133641 
36   0.12804 
37   0.127977 
38   0.126089 
39   0.120556 
40   0.138452 
41   0.143742 
42   0.289426 
43   0.289573 
 
>  <lowdin_charges> 
43 
1   -0.448155 
2   -0.274113 
3   -0.273763 
4   -0.277568 
5   -0.272888 
6   -0.273453 
7   -0.275097 
8   -0.271877 
9   -0.274936 
10   -0.27668 
11   -0.278292 
12   -0.298126 
13   -0.210584 
14   -0.552886 
15   0.148606 
16   0.146101 
17   0.147679 
18   0.142046 
19   0.138326 
20   0.136742 
21   0.137821 
22   0.138085 
23   0.136791 
24   0.139983 
25   0.134987 
26   0.135267 
27   0.139961 
28   0.134663 
29   0.138766 
30   0.135738 
31   0.13755 
32   0.135542 
33   0.136931 
34   0.139451 
35   0.139402 
36   0.141537 
37   0.141547 
38   0.136266 
39   0.136181 
40   0.141388 
41   0.141313 
42   0.248934 
43   0.250815 
 
$$$$ 
 
