PCCDB-ID:  22427 
public computational chemistry database (PCCDB) project, http://pccdb.org 
 
 21 21  0  0  0  0  0  0  0  0999 V2000 
   -1.7252   -0.8067   -0.3383 C   0  0  0  0  0  0  0  0  0  0  0  0 
   -0.9455   -1.9656   -0.3359 C   0  0  0  0  0  0  0  0  0  0  0  0 
   -1.1207    0.4482   -0.3041 C   0  0  0  0  0  0  0  0  0  0  0  0 
    0.4447   -1.8708   -0.2943 C   0  0  0  0  0  0  0  0  0  0  0  0 
    0.1447    4.8645   -0.9065 C   0  0  0  0  0  0  0  0  0  0  0  0 
    1.2835    4.7356    1.2379 C   0  0  0  0  0  0  0  0  0  0  0  0 
    1.0198    4.0564   -0.0410 C   0  0  0  0  0  0  0  0  0  0  0  0 
    0.2734    0.5605   -0.2529 C   0  0  0  0  0  0  0  0  0  0  0  0 
    1.0427   -0.6160   -0.2474 C   0  0  0  0  0  0  0  0  0  0  0  0 
   -0.5518    5.4653   -1.6122 N   0  0  0  0  0  0  0  0  0  0  0  0 
    1.5104    5.2563    2.2482 N   0  0  0  0  0  0  0  0  0  0  0  0 
    0.3264    2.7468    0.2346 N   0  0  0  0  0  0  0  0  0  0  0  0 
    0.9154    1.8269   -0.3629 N   0  0  0  0  0  0  0  0  0  0  0  0 
    2.5067   -0.5547   -0.1365 N   0  0  0  0  0  0  0  0  0  0  0  0 
    3.1450   -1.5095   -0.5767 O   0  0  0  0  0  0  0  0  0  0  0  0 
    2.9948    0.4375    0.4022 O   0  0  0  0  0  0  0  0  0  0  0  0 
   -2.8079   -0.8781   -0.3777 H   0  0  0  0  0  0  0  0  0  0  0  0 
   -1.4163   -2.9431   -0.3655 H   0  0  0  0  0  0  0  0  0  0  0  0 
   -1.7092    1.3583   -0.3405 H   0  0  0  0  0  0  0  0  0  0  0  0 
    1.0772   -2.7503   -0.2894 H   0  0  0  0  0  0  0  0  0  0  0  0 
    1.9697    3.8670   -0.5599 H   0  0  0  0  0  0  0  0  0  0  0  0 
  1  2  2  0  0  0  0 
  1  3  1  0  0  0  0 
  2  4  1  0  0  0  0 
  3  8  2  0  0  0  0 
  4 20  1  0  0  0  0 
  4  9  2  0  0  0  0 
  5  7  1  0  0  0  0 
  6 11  3  0  0  0  0 
  7 12  1  0  0  0  0 
  7  6  1  0  0  0  0 
  8  9  1  0  0  0  0 
  9 14  1  0  0  0  0 
 10  5  3  0  0  0  0 
 13  8  1  0  0  0  0 
 13 12  1  0  0  0  0 
 14 16  2  0  0  0  0 
 15 14  2  0  0  0  0 
 17  1  1  0  0  0  0 
 18  2  1  0  0  0  0 
 19  3  1  0  0  0  0 
 21  7  1  0  0  0  0 
M  RAD  2  12   2  13   2 
M  END 
>  <HBA> 
4 
 
>  <HBD> 
0 
 
>  <TPSA> 
118.12 
 
>  <cid> 
22427 
 
>  <dipole> 
6.11 
 
>  <excitation_energy_1> 
2.987 
 
>  <excitation_energy_2> 
3.603 
 
>  <excitation_energy_3> 
3.934 
 
>  <excitation_energy_4> 
4.215 
 
>  <homo_energy> 
-7.549 
 
>  <homo_lumo_gap> 
4.253 
 
>  <logP> 
2.617 
 
>  <lumo_energy> 
-3.295 
 
>  <melting_point> 
132.49 
 
>  <molecular_refractivity> 
54.76 
 
>  <oscillator_strength_1> 
0.008 
 
>  <oscillator_strength_2> 
0.0135 
 
>  <oscillator_strength_3> 
0.0078 
 
>  <oscillator_strength_4> 
0.0737 
 
>  <open_babel_can_smiles> 
N#CC([N][N]c1ccccc1N(=O)=O)C#N 
 
>  <mulliken_charges> 
21 
1   -0.120264 
2   -0.128686 
3   -0.134605 
4   -0.148668 
5   0.394141 
6   0.396426 
7   -0.110715 
8   0.260784 
9   0.274659 
10   -0.429372 
11   -0.429668 
12   -0.159709 
13   -0.230883 
14   0.356814 
15   -0.377169 
16   -0.371026 
17   0.165143 
18   0.164193 
19   0.179857 
20   0.193889 
21   0.254857 
 
>  <lowdin_charges> 
21 
1   -0.123361 
2   -0.133404 
3   -0.138875 
4   -0.1312 
5   -0.008076 
6   -0.007088 
7   -0.060964 
8   0.028251 
9   0.014633 
10   -0.070207 
11   -0.065846 
12   -0.061836 
13   -0.030222 
14   0.310735 
15   -0.237483 
16   -0.224706 
17   0.173964 
18   0.175534 
19   0.185287 
20   0.193698 
21   0.211166 
 
$$$$ 
 
