PCCDB-ID:  31045 
public computational chemistry database (PCCDB) project, http://pccdb.org 
 
 21 21  0  0  1  0  0  0  0  0999 V2000 
    1.4674   -1.1373    1.5490 C   0  0  0  0  0  0  0  0  0  0  0  0 
    5.4279    0.9886    0.2365 C   0  0  0  0  0  0  0  0  0  0  0  0 
    1.0189   -0.5106    0.4645 C   0  0  0  0  0  0  0  0  0  0  0  0 
    0.1062    1.7012   -1.6197 C   0  0  0  0  0  0  0  0  0  0  0  0 
    1.3980    2.4066   -1.8284 C   0  0  0  0  0  0  0  0  0  0  0  0 
    4.1951    0.7352   -0.5978 C   0  0  0  0  0  0  0  0  0  0  0  0 
    1.8250    0.4039   -0.4208 C   0  0  1  0  0  0  0  0  0  0  0  0 
    1.1381    1.6817   -0.5766 N   0  0  0  0  0  0  0  0  0  0  0  0 
    4.1795    0.6209   -1.8037 O   0  0  0  0  0  0  0  0  0  0  0  0 
    3.0991    0.6507    0.1996 O   0  0  0  0  0  0  0  0  0  0  0  0 
    0.8206   -1.7909    2.1271 H   0  0  0  0  0  0  0  0  0  0  0  0 
    2.4876   -1.0149    1.8974 H   0  0  0  0  0  0  0  0  0  0  0  0 
    6.2999    1.0575   -0.4145 H   0  0  0  0  0  0  0  0  0  0  0  0 
    5.5664    0.1786    0.9603 H   0  0  0  0  0  0  0  0  0  0  0  0 
    5.3093    1.9167    0.8050 H   0  0  0  0  0  0  0  0  0  0  0  0 
   -0.0113   -0.6435    0.1386 H   0  0  0  0  0  0  0  0  0  0  0  0 
   -0.0598    0.7921   -2.1994 H   0  0  0  0  0  0  0  0  0  0  0  0 
   -0.7985    2.2493   -1.3679 H   0  0  0  0  0  0  0  0  0  0  0  0 
    1.4554    3.4873   -1.7225 H   0  0  0  0  0  0  0  0  0  0  0  0 
    2.1066    1.9705   -2.5288 H   0  0  0  0  0  0  0  0  0  0  0  0 
    2.0177   -0.0774   -1.3931 H   0  0  0  0  0  0  0  0  0  0  0  0 
  1 12  1  0  0  0  0 
  1 11  1  0  0  0  0 
  2 15  1  0  0  0  0 
  2 14  1  0  0  0  0 
  3  1  2  0  0  0  0 
  4 18  1  0  0  0  0 
  4  8  1  0  0  0  0 
  5 19  1  0  0  0  0 
  5  4  1  0  0  0  0 
  5  8  1  0  0  0  0 
  6 10  1  0  0  0  0 
  6  2  1  0  0  0  0 
  7 21  1  6  0  0  0 
  7 10  1  0  0  0  0 
  7  3  1  0  0  0  0 
  8  7  1  0  0  0  0 
  9  6  2  0  0  0  0 
 13  2  1  0  0  0  0 
 16  3  1  0  0  0  0 
 17  4  1  0  0  0  0 
 20  5  1  0  0  0  0 
M  END 
>  <HBA> 
3 
 
>  <HBD> 
0 
 
>  <TPSA> 
29.31 
 
>  <cid> 
31045 
 
>  <dipole> 
0.59 
 
>  <excitation_energy_1> 
5.628 
 
>  <excitation_energy_2> 
5.785 
 
>  <excitation_energy_3> 
6.012 
 
>  <excitation_energy_4> 
6.337 
 
>  <homo_energy> 
-6.558 
 
>  <homo_lumo_gap> 
6.746 
 
>  <logP> 
0.315 
 
>  <lumo_energy> 
0.188 
 
>  <melting_point> 
-24.1 
 
>  <molecular_refractivity> 
41.27 
 
>  <oscillator_strength_1> 
0.0014 
 
>  <oscillator_strength_2> 
0.0012 
 
>  <oscillator_strength_3> 
0.0003 
 
>  <oscillator_strength_4> 
0.0106 
 
>  <open_babel_can_smiles> 
C=C[C@@H](N1CC1)OC(=O)C 
 
>  <mulliken_charges> 
21 
1   -0.324212 
2   -0.526772 
3   -0.073781 
4   -0.203173 
5   -0.207815 
6   0.613157 
7   0.218395 
8   -0.357993 
9   -0.467474 
10   -0.467976 
11   0.14343 
12   0.152118 
13   0.182884 
14   0.182504 
15   0.188323 
16   0.138616 
17   0.14988 
18   0.163866 
19   0.160833 
20   0.182358 
21   0.152832 
 
>  <lowdin_charges> 
21 
1   -0.322958 
2   -0.463694 
3   -0.159107 
4   -0.242459 
5   -0.241186 
6   0.205561 
7   0.057347 
8   -0.195587 
9   -0.263699 
10   -0.180474 
11   0.163577 
12   0.163383 
13   0.176246 
14   0.178821 
15   0.181403 
16   0.159408 
17   0.150074 
18   0.162709 
19   0.159485 
20   0.167449 
21   0.143701 
 
$$$$ 
 
