PCCDB-ID:  21372 
public computational chemistry database (PCCDB) project, http://pccdb.org 
 
 29 28  0  0  0  0  0  0  0  0999 V2000 
    3.5023   -4.9829  -10.6674 C   0  0  0  0  0  0  0  0  0  0  0  0 
    9.7314   -6.3209   -7.5327 C   0  0  0  0  0  0  0  0  0  0  0  0 
    7.2965   -2.7964   -9.8635 C   0  0  0  0  0  0  0  0  0  0  0  0 
    3.1566   -4.1289   -9.4440 C   0  0  0  0  0  0  0  0  0  0  0  0 
    8.9112   -6.1571   -6.2500 C   0  0  0  0  0  0  0  0  0  0  0  0 
    3.7066   -4.6815   -8.1347 C   0  0  0  0  0  0  0  0  0  0  0  0 
    7.4568   -5.7846   -6.4942 C   0  0  0  0  0  0  0  0  0  0  0  0 
    5.3648   -3.2973   -5.9619 O   0  0  0  0  0  0  0  0  0  0  0  0 
    5.1614   -4.7246   -8.1486 O   0  0  0  0  0  0  0  0  0  0  0  0 
    7.4181   -4.4907   -7.1607 O   0  0  0  0  0  0  0  0  0  0  0  0 
    6.0184   -3.6939   -7.2331 P   0  0  0  0  0  0  0  0  0  0  0  0 
    6.5186   -2.0193   -8.3881 S   0  0  0  0  0  0  0  0  0  0  0  0 
    3.0944   -4.5417  -11.5833 H   0  0  0  0  0  0  0  0  0  0  0  0 
    3.0913   -5.9955  -10.5720 H   0  0  0  0  0  0  0  0  0  0  0  0 
    4.5865   -5.0761  -10.7895 H   0  0  0  0  0  0  0  0  0  0  0  0 
   10.7637   -6.6065   -7.3032 H   0  0  0  0  0  0  0  0  0  0  0  0 
    9.7588   -5.3860   -8.1007 H   0  0  0  0  0  0  0  0  0  0  0  0 
    9.3051   -7.0974   -8.1799 H   0  0  0  0  0  0  0  0  0  0  0  0 
    7.5361   -1.9761  -10.5441 H   0  0  0  0  0  0  0  0  0  0  0  0 
    6.6046   -3.4842  -10.3531 H   0  0  0  0  0  0  0  0  0  0  0  0 
    8.2109   -3.3196   -9.5811 H   0  0  0  0  0  0  0  0  0  0  0  0 
    2.0655   -4.0581   -9.3335 H   0  0  0  0  0  0  0  0  0  0  0  0 
    3.5230   -3.1034   -9.5775 H   0  0  0  0  0  0  0  0  0  0  0  0 
    9.3635   -5.3950   -5.6038 H   0  0  0  0  0  0  0  0  0  0  0  0 
    8.9124   -7.0956   -5.6789 H   0  0  0  0  0  0  0  0  0  0  0  0 
    3.3900   -5.7192   -7.9832 H   0  0  0  0  0  0  0  0  0  0  0  0 
    3.3752   -4.0904   -7.2763 H   0  0  0  0  0  0  0  0  0  0  0  0 
    6.9074   -5.7096   -5.5499 H   0  0  0  0  0  0  0  0  0  0  0  0 
    6.9581   -6.5162   -7.1399 H   0  0  0  0  0  0  0  0  0  0  0  0 
  1 14  1  0  0  0  0 
  1  4  1  0  0  0  0 
  2 16  1  0  0  0  0 
  2  5  1  0  0  0  0 
  3 21  1  0  0  0  0 
  3 12  1  0  0  0  0 
  4 22  1  0  0  0  0 
  4  6  1  0  0  0  0 
  5 25  1  0  0  0  0 
  5 24  1  0  0  0  0 
  6 26  1  0  0  0  0 
  6 27  1  0  0  0  0 
  7  5  1  0  0  0  0 
  7 28  1  0  0  0  0 
  9  6  1  0  0  0  0 
  9 11  1  0  0  0  0 
 10  7  1  0  0  0  0 
 11 10  1  0  0  0  0 
 11  8  2  0  0  0  0 
 12 11  1  0  0  0  0 
 13  1  1  0  0  0  0 
 15  1  1  0  0  0  0 
 17  2  1  0  0  0  0 
 18  2  1  0  0  0  0 
 19  3  1  0  0  0  0 
 20  3  1  0  0  0  0 
 23  4  1  0  0  0  0 
 29  7  1  0  0  0  0 
M  END 
>  <HBA> 
4 
 
>  <HBD> 
0 
 
>  <TPSA> 
70.64 
 
>  <cid> 
21372 
 
>  <dipole> 
4.09 
 
>  <excitation_energy_1> 
5.446 
 
>  <excitation_energy_2> 
6.181 
 
>  <excitation_energy_3> 
6.4 
 
>  <excitation_energy_4> 
6.662 
 
>  <homo_energy> 
-6.784 
 
>  <homo_lumo_gap> 
7.127 
 
>  <logP> 
3.311 
 
>  <lumo_energy> 
0.343 
 
>  <melting_point> 
-20.72 
 
>  <molecular_refractivity> 
54.19 
 
>  <oscillator_strength_1> 
0.0021 
 
>  <oscillator_strength_2> 
0.0063 
 
>  <oscillator_strength_3> 
0.0015 
 
>  <oscillator_strength_4> 
0.0129 
 
>  <open_babel_can_smiles> 
CCCOP(=O)(OCCC)SC 
 
>  <mulliken_charges> 
29 
1   -0.449338 
2   -0.446275 
3   -0.611951 
4   -0.270022 
5   -0.270793 
6   -0.054735 
7   -0.040845 
8   -0.547084 
9   -0.549424 
10   -0.533378 
11   1.058069 
12   -0.056978 
13   0.148826 
14   0.143439 
15   0.159993 
16   0.148857 
17   0.163485 
18   0.142198 
19   0.191772 
20   0.200294 
21   0.206451 
22   0.142992 
23   0.162416 
24   0.159138 
25   0.141782 
26   0.151299 
27   0.181815 
28   0.170827 
29   0.157171 
 
>  <lowdin_charges> 
29 
1   -0.444812 
2   -0.44621 
3   -0.542384 
4   -0.281277 
5   -0.278409 
6   -0.120653 
7   -0.12105 
8   -0.579385 
9   -0.4116 
10   -0.399244 
11   0.950699 
12   -0.006383 
13   0.153604 
14   0.147147 
15   0.150514 
16   0.152564 
17   0.155873 
18   0.148473 
19   0.180168 
20   0.174173 
21   0.176934 
22   0.149846 
23   0.155003 
24   0.15658 
25   0.151354 
26   0.14851 
27   0.168462 
28   0.160148 
29   0.151357 
 
$$$$ 
 
