PCCDB-ID:  28031 
public computational chemistry database (PCCDB) project, http://pccdb.org 
 
 12 11  0  0  0  0  0  0  0  0999 V2000 
    1.0122   -0.1141    0.0263 C   0  0  0  0  0  0  0  0  0  0  0  0 
    2.2178   -0.0882    0.0207 C   0  0  0  0  0  0  0  0  0  0  0  0 
    3.6755   -0.1055    0.0198 C   0  0  0  0  0  0  0  0  0  0  0  0 
    5.4815    1.3678   -0.2402 C   0  0  0  0  0  0  0  0  0  0  0  0 
    6.2774    0.3888   -0.0681 N   0  0  0  0  0  0  0  0  0  0  0  0 
    5.7472    2.6783   -0.4759 O   0  0  0  0  0  0  0  0  0  0  0  0 
    4.1491    1.2364   -0.2134 O   0  0  0  0  0  0  0  0  0  0  0  0 
   -0.0541   -0.1326    0.0295 H   0  0  0  0  0  0  0  0  0  0  0  0 
    4.0684   -0.7663   -0.7613 H   0  0  0  0  0  0  0  0  0  0  0  0 
    4.0736   -0.4674    0.9746 H   0  0  0  0  0  0  0  0  0  0  0  0 
    7.2574    0.6636   -0.1211 H   0  0  0  0  0  0  0  0  0  0  0  0 
    6.7092    2.7980   -0.4845 H   0  0  0  0  0  0  0  0  0  0  0  0 
  1  8  1  0  0  0  0 
  2  1  3  0  0  0  0 
  3  2  1  0  0  0  0 
  3 10  1  0  0  0  0 
  4  7  1  0  0  0  0 
  4  5  2  0  0  0  0 
  6  4  1  0  0  0  0 
  7  3  1  0  0  0  0 
  9  3  1  0  0  0  0 
 11  5  1  0  0  0  0 
 12  6  1  0  0  0  0 
M  END 
>  <HBA> 
3 
 
>  <HBD> 
1 
 
>  <TPSA> 
52.32 
 
>  <cid> 
28031 
 
>  <dipole> 
1.6 
 
>  <excitation_energy_1> 
6.002 
 
>  <excitation_energy_2> 
6.047 
 
>  <excitation_energy_3> 
6.43 
 
>  <excitation_energy_4> 
6.631 
 
>  <homo_energy> 
-7.268 
 
>  <homo_lumo_gap> 
7.848 
 
>  <logP> 
0.415 
 
>  <lumo_energy> 
0.58 
 
>  <melting_point> 
69.14 
 
>  <molecular_refractivity> 
23.89 
 
>  <oscillator_strength_1> 
0.0045 
 
>  <oscillator_strength_2> 
0.0011 
 
>  <oscillator_strength_3> 
0.0826 
 
>  <oscillator_strength_4> 
0.0014 
 
>  <open_babel_can_smiles> 
OC(=N)OCC#C 
 
>  <mulliken_charges> 
12 
1   -0.509513 
2   0.375519 
3   -0.16262 
4   0.656665 
5   -0.631366 
6   -0.56664 
7   -0.437482 
8   0.198442 
9   0.193244 
10   0.193476 
11   0.280232 
12   0.410044 
 
>  <lowdin_charges> 
12 
1   -0.22369 
2   -0.044724 
3   -0.102531 
4   0.19036 
5   -0.469501 
6   -0.357021 
7   -0.172407 
8   0.206821 
9   0.177643 
10   0.176546 
11   0.25784 
12   0.360663 
 
$$$$ 
 
