PCCDB-ID:  13027 
public computational chemistry database (PCCDB) project, http://pccdb.org 
 
 16 16  0  0  0  0  0  0  0  0999 V2000 
    0.9206   -0.0061    0.1231 C   0  0  0  0  0  0  0  0  0  0  0  0 
    4.4369    1.1913   -0.0946 C   0  0  0  0  0  0  0  0  0  0  0  0 
    3.0856    1.1580   -0.0155 C   0  0  0  0  0  0  0  0  0  0  0  0 
    5.0598   -2.5324   -0.3039 C   0  0  0  0  0  0  0  0  0  0  0  0 
    3.0566   -1.2053   -0.1189 C   0  0  0  0  0  0  0  0  0  0  0  0 
    4.4234   -1.2589   -0.2041 C   0  0  0  0  0  0  0  0  0  0  0  0 
    5.2465   -0.0260   -0.1980 C   0  0  0  0  0  0  0  0  0  0  0  0 
    5.5590   -3.5804   -0.3842 N   0  0  0  0  0  0  0  0  0  0  0  0 
    2.3761   -0.0280   -0.0307 N   0  0  0  0  0  0  0  0  0  0  0  0 
    6.4719   -0.0270   -0.2728 O   0  0  0  0  0  0  0  0  0  0  0  0 
    0.4897    0.7528   -0.5356 H   0  0  0  0  0  0  0  0  0  0  0  0 
    0.6392    0.2145    1.1587 H   0  0  0  0  0  0  0  0  0  0  0  0 
    0.5136   -0.9794   -0.1551 H   0  0  0  0  0  0  0  0  0  0  0  0 
    4.9593    2.1413   -0.0864 H   0  0  0  0  0  0  0  0  0  0  0  0 
    2.4791    2.0544    0.0610 H   0  0  0  0  0  0  0  0  0  0  0  0 
    2.4514   -2.1051   -0.1208 H   0  0  0  0  0  0  0  0  0  0  0  0 
  1 12  1  0  0  0  0 
  2 14  1  0  0  0  0 
  2  3  2  0  0  0  0 
  3 15  1  0  0  0  0 
  4  6  1  0  0  0  0 
  5  9  1  0  0  0  0 
  6  7  1  0  0  0  0 
  6  5  2  0  0  0  0 
  7  2  1  0  0  0  0 
  8  4  3  0  0  0  0 
  9  3  1  0  0  0  0 
  9  1  1  0  0  0  0 
 10  7  2  0  0  0  0 
 11  1  1  0  0  0  0 
 13  1  1  0  0  0  0 
 16  5  1  0  0  0  0 
M  END 
>  <HBA> 
3 
 
>  <HBD> 
0 
 
>  <TPSA> 
45.79 
 
>  <cid> 
13027 
 
>  <dipole> 
9.92 
 
>  <excitation_energy_1> 
4.044 
 
>  <excitation_energy_2> 
4.145 
 
>  <excitation_energy_3> 
4.318 
 
>  <excitation_energy_4> 
5.044 
 
>  <homo_energy> 
-6.43 
 
>  <homo_lumo_gap> 
4.961 
 
>  <logP> 
0.257 
 
>  <lumo_energy> 
-1.469 
 
>  <melting_point> 
79.66 
 
>  <molecular_refractivity> 
36.68 
 
>  <oscillator_strength_1> 
0.0 
 
>  <oscillator_strength_2> 
0.0 
 
>  <oscillator_strength_3> 
0.1046 
 
>  <oscillator_strength_4> 
0.1386 
 
>  <open_babel_can_smiles> 
Cn1cc(C#N)c(=O)cc1 
 
>  <mulliken_charges> 
16 
1   -0.333073 
2   -0.229305 
3   0.079845 
4   0.268689 
5   0.07506 
6   -0.008022 
7   0.448739 
8   -0.478113 
9   -0.40788 
10   -0.509576 
11   0.188627 
12   0.192261 
13   0.188429 
14   0.163439 
15   0.170773 
16   0.190105 
 
>  <lowdin_charges> 
16 
1   -0.343081 
2   -0.196296 
3   -0.092675 
4   -0.003095 
5   -0.066008 
6   -0.083234 
7   0.126216 
8   -0.114715 
9   -0.004757 
10   -0.279801 
11   0.172641 
12   0.167878 
13   0.174755 
14   0.183948 
15   0.174575 
16   0.183649 
 
$$$$ 
 
