PCCDB-ID:  33379 
public computational chemistry database (PCCDB) project, http://pccdb.org 
 
 34 34  0  0  1  0  0  0  0  0999 V2000 
    1.1140   -0.2855   -0.0020 C   0  0  0  0  0  0  0  0  0  0  0  0 
    3.2665    6.1055   -5.9180 C   0  0  0  0  0  0  0  0  0  0  0  0 
    8.7414    2.0132   -3.1069 C   0  0  0  0  0  0  0  0  0  0  0  0 
    2.6422   -0.2640   -0.0860 C   0  0  0  0  0  0  0  0  0  0  0  0 
    2.7950    4.6657   -6.1341 C   0  0  0  0  0  0  0  0  0  0  0  0 
    3.1683    0.6469   -1.1987 C   0  0  0  0  0  0  0  0  0  0  0  0 
    3.2258    3.7164   -5.0107 C   0  0  0  0  0  0  0  0  0  0  0  0 
    7.2394    2.0046   -3.0429 C   0  0  1  0  0  0  0  0  0  0  0  0 
    5.2356    1.3226   -2.1074 C   0  0  0  0  0  0  0  0  0  0  0  0 
    5.2059    2.8827   -4.0510 C   0  0  0  0  0  0  0  0  0  0  0  0 
    4.6202    0.6291   -1.2288 N   0  0  0  0  0  0  0  0  0  0  0  0 
    4.6771    3.6176   -4.9499 N   0  0  0  0  0  0  0  0  0  0  0  0 
    6.6308    1.3080   -2.1430 N   0  0  0  0  0  0  0  0  0  0  0  0 
    6.5956    2.7765   -3.9834 N   0  0  0  0  0  0  0  0  0  0  0  0 
    4.5795    2.1275   -3.0740 N   0  0  0  0  0  0  0  0  0  0  0  0 
    0.7712   -0.9481    0.8001 H   0  0  0  0  0  0  0  0  0  0  0  0 
    0.6654   -0.6408   -0.9386 H   0  0  0  0  0  0  0  0  0  0  0  0 
    0.7088    0.7144    0.1995 H   0  0  0  0  0  0  0  0  0  0  0  0 
    2.9716    6.7495   -6.7542 H   0  0  0  0  0  0  0  0  0  0  0  0 
    4.3564    6.1412   -5.8242 H   0  0  0  0  0  0  0  0  0  0  0  0 
    2.8360    6.5298   -5.0017 H   0  0  0  0  0  0  0  0  0  0  0  0 
    9.1313    1.3329   -2.3498 H   0  0  0  0  0  0  0  0  0  0  0  0 
    9.1332    3.0208   -2.9204 H   0  0  0  0  0  0  0  0  0  0  0  0 
    9.0945    1.6951   -4.0954 H   0  0  0  0  0  0  0  0  0  0  0  0 
    3.0292   -1.2759   -0.2579 H   0  0  0  0  0  0  0  0  0  0  0  0 
    3.0723    0.0715    0.8657 H   0  0  0  0  0  0  0  0  0  0  0  0 
    3.1942    4.2810   -7.0811 H   0  0  0  0  0  0  0  0  0  0  0  0 
    1.7000    4.6358   -6.2146 H   0  0  0  0  0  0  0  0  0  0  0  0 
    2.7829    1.6710   -1.0306 H   0  0  0  0  0  0  0  0  0  0  0  0 
    2.7412    0.3107   -2.1632 H   0  0  0  0  0  0  0  0  0  0  0  0 
    2.7702    2.7257   -5.1871 H   0  0  0  0  0  0  0  0  0  0  0  0 
    2.8114    4.0875   -4.0548 H   0  0  0  0  0  0  0  0  0  0  0  0 
    7.1028    3.3074   -4.6784 H   0  0  0  0  0  0  0  0  0  0  0  0 
    3.5707    2.1536   -3.0584 H   0  0  0  0  0  0  0  0  0  0  0  0 
  1 18  1  0  0  0  0 
  1 16  1  0  0  0  0 
  2 20  1  0  0  0  0 
  2 21  1  0  0  0  0 
  3 23  1  0  0  0  0 
  3 22  1  0  0  0  0 
  4  1  1  0  0  0  0 
  4 26  1  0  0  0  0 
  5  2  1  0  0  0  0 
  5  7  1  0  0  0  0 
  6 29  1  0  0  0  0 
  6  4  1  0  0  0  0 
  7 12  1  0  0  0  0 
  7 32  1  0  0  0  0 
  8  3  1  1  0  0  0 
  8 13  1  0  0  0  0 
  9 11  1  0  0  0  0 
 10 14  1  0  0  0  0 
 10 15  1  0  0  0  0 
 11  6  1  0  0  0  0 
 12 10  2  0  0  0  0 
 13  9  2  0  0  0  0 
 14  8  1  0  0  0  0 
 15 34  1  0  0  0  0 
 15  9  1  0  0  0  0 
 17  1  1  0  0  0  0 
 19  2  1  0  0  0  0 
 24  3  1  0  0  0  0 
 25  4  1  0  0  0  0 
 27  5  1  0  0  0  0 
 28  5  1  0  0  0  0 
 30  6  1  0  0  0  0 
 31  7  1  0  0  0  0 
 33 14  1  0  0  0  0 
M  RAD  2   8   2  11   2 
M  END 
>  <HBA> 
5 
 
>  <HBD> 
2 
 
>  <TPSA> 
62.73 
 
>  <cid> 
33379 
 
>  <dipole> 
2.71 
 
>  <excitation_energy_1> 
4.895 
 
>  <excitation_energy_2> 
4.944 
 
>  <excitation_energy_3> 
5.148 
 
>  <excitation_energy_4> 
5.419 
 
>  <homo_energy> 
-6.166 
 
>  <homo_lumo_gap> 
5.584 
 
>  <logP> 
1.97 
 
>  <lumo_energy> 
-0.582 
 
>  <melting_point> 
122.13 
 
>  <molecular_refractivity> 
62.63 
 
>  <oscillator_strength_1> 
0.0001 
 
>  <oscillator_strength_2> 
0.0986 
 
>  <oscillator_strength_3> 
0.0931 
 
>  <oscillator_strength_4> 
0.0 
 
>  <open_babel_can_smiles> 
CCC[N]C1=N[C](N/C(=N/CCC)/N1)C 
 
>  <mulliken_charges> 
34 
1   -0.450457 
2   -0.440944 
3   -0.535329 
4   -0.243101 
5   -0.246367 
6   -0.157224 
7   -0.155786 
8   0.517775 
9   0.652923 
10   0.763645 
11   -0.460665 
12   -0.506254 
13   -0.488951 
14   -0.67532 
15   -0.746019 
16   0.147198 
17   0.138215 
18   0.138392 
19   0.139525 
20   0.162182 
21   0.134468 
22   0.205149 
23   0.175748 
24   0.17181 
25   0.146183 
26   0.146492 
27   0.141824 
28   0.125984 
29   0.122439 
30   0.121346 
31   0.128526 
32   0.124857 
33   0.346665 
34   0.355069 
 
>  <lowdin_charges> 
34 
1   -0.448558 
2   -0.445919 
3   -0.44995 
4   -0.271993 
5   -0.270379 
6   -0.20961 
7   -0.204375 
8   0.119428 
9   0.121882 
10   0.137209 
11   -0.217508 
12   -0.271605 
13   -0.19611 
14   -0.232977 
15   -0.268639 
16   0.153596 
17   0.144474 
18   0.143869 
19   0.149166 
20   0.154599 
21   0.1435 
22   0.189319 
23   0.169996 
24   0.167939 
25   0.148235 
26   0.149176 
27   0.146665 
28   0.137914 
29   0.125565 
30   0.125573 
31   0.131211 
32   0.127162 
33   0.305163 
34   0.29598 
 
$$$$ 
 
