PCCDB-ID:  26698 
public computational chemistry database (PCCDB) project, http://pccdb.org 
 
 22 23  0  0  0  0  0  0  0  0999 V2000 
    1.2443   -1.3782   -0.0498 C   0  0  0  0  0  0  0  0  0  0  0  0 
    2.4585   -0.6968   -0.0245 C   0  0  0  0  0  0  0  0  0  0  0  0 
   -1.2773    1.4754    0.0738 C   0  0  0  0  0  0  0  0  0  0  0  0 
   -2.4570    0.6174   -0.3888 C   0  0  0  0  0  0  0  0  0  0  0  0 
    1.2471    1.3931    0.0465 C   0  0  0  0  0  0  0  0  0  0  0  0 
   -1.2810   -1.4715   -0.1023 C   0  0  0  0  0  0  0  0  0  0  0  0 
    0.0297    0.7069    0.0213 C   0  0  0  0  0  0  0  0  0  0  0  0 
    0.0229   -0.6983   -0.0275 C   0  0  0  0  0  0  0  0  0  0  0  0 
    2.4582    0.7011    0.0241 C   0  0  0  0  0  0  0  0  0  0  0  0 
   -2.4118   -0.6533    0.3346 N   0  0  0  0  0  0  0  0  0  0  0  0 
    3.6116    1.4410    0.0505 O   0  0  0  0  0  0  0  0  0  0  0  0 
    1.2492   -2.4660   -0.0862 H   0  0  0  0  0  0  0  0  0  0  0  0 
    3.3986   -1.2459   -0.0387 H   0  0  0  0  0  0  0  0  0  0  0  0 
   -1.4645    1.7948    1.1080 H   0  0  0  0  0  0  0  0  0  0  0  0 
   -1.2065    2.3861   -0.5342 H   0  0  0  0  0  0  0  0  0  0  0  0 
   -2.4119    0.4866   -1.4885 H   0  0  0  0  0  0  0  0  0  0  0  0 
   -3.4018    1.1217   -0.1587 H   0  0  0  0  0  0  0  0  0  0  0  0 
    1.2688    2.4790    0.0841 H   0  0  0  0  0  0  0  0  0  0  0  0 
   -1.2238   -2.3579    0.5422 H   0  0  0  0  0  0  0  0  0  0  0  0 
   -1.4095   -1.8443   -1.1401 H   0  0  0  0  0  0  0  0  0  0  0  0 
   -3.2750   -1.1707    0.1845 H   0  0  0  0  0  0  0  0  0  0  0  0 
    4.3696    0.8367    0.0291 H   0  0  0  0  0  0  0  0  0  0  0  0 
  1  8  2  0  0  0  0 
  1  2  1  0  0  0  0 
  2  9  2  0  0  0  0 
  3 14  1  0  0  0  0 
  4 17  1  0  0  0  0 
  4  3  1  0  0  0  0 
  4 10  1  0  0  0  0 
  5 18  1  0  0  0  0 
  6  8  1  0  0  0  0 
  6 10  1  0  0  0  0 
  6 19  1  0  0  0  0 
  7  5  2  0  0  0  0 
  7  3  1  0  0  0  0 
  8  7  1  0  0  0  0 
  9  5  1  0  0  0  0 
  9 11  1  0  0  0  0 
 12  1  1  0  0  0  0 
 13  2  1  0  0  0  0 
 15  3  1  0  0  0  0 
 16  4  1  0  0  0  0 
 20  6  1  0  0  0  0 
 21 10  1  0  0  0  0 
 22 11  1  0  0  0  0 
M  END 
>  <HBA> 
2 
 
>  <HBD> 
2 
 
>  <TPSA> 
32.26 
 
>  <cid> 
26698 
 
>  <dipole> 
1.64 
 
>  <excitation_energy_1> 
4.797 
 
>  <excitation_energy_2> 
5.021 
 
>  <excitation_energy_3> 
5.145 
 
>  <excitation_energy_4> 
5.178 
 
>  <homo_energy> 
-5.622 
 
>  <homo_lumo_gap> 
5.701 
 
>  <logP> 
1.367 
 
>  <lumo_energy> 
0.079 
 
>  <melting_point> 
102.06 
 
>  <molecular_refractivity> 
47.81 
 
>  <oscillator_strength_1> 
0.0296 
 
>  <oscillator_strength_2> 
0.0009 
 
>  <oscillator_strength_3> 
0.0137 
 
>  <oscillator_strength_4> 
0.0159 
 
>  <open_babel_can_smiles> 
Oc1ccc2c(c1)CCNC2 
 
>  <mulliken_charges> 
22 
1   -0.191168 
2   -0.196719 
3   -0.319755 
4   -0.149942 
5   -0.229042 
6   -0.199165 
7   0.120492 
8   0.115921 
9   0.355062 
10   -0.55171 
11   -0.648058 
12   0.120411 
13   0.113877 
14   0.163458 
15   0.140461 
16   0.116072 
17   0.136218 
18   0.129342 
19   0.146985 
20   0.124519 
21   0.297725 
22   0.405016 
 
>  <lowdin_charges> 
22 
1   -0.15002 
2   -0.217978 
3   -0.276301 
4   -0.200178 
5   -0.192903 
6   -0.200093 
7   0.00126 
8   -0.037283 
9   0.100454 
10   -0.364329 
11   -0.38379 
12   0.15203 
13   0.151463 
14   0.159056 
15   0.150915 
16   0.114733 
17   0.146156 
18   0.161096 
19   0.150781 
20   0.122328 
21   0.255847 
22   0.356757 
 
$$$$ 
 
