PCCDB-ID:  60044 
public computational chemistry database (PCCDB) project, http://pccdb.org 
 
 35 35  0  0  0  0  0  0  0  0999 V2000 
    0.6685    1.4407   -0.3527 C   0  0  0  0  0  0  0  0  0  0  0  0 
    1.4955    0.2152    0.0602 C   0  0  0  0  0  0  0  0  0  0  0  0 
   -0.7799    1.3186    0.1418 C   0  0  0  0  0  0  0  0  0  0  0  0 
   -1.3217   -1.6589    3.7407 C   0  0  0  0  0  0  0  0  0  0  0  0 
    0.8432   -1.0966   -0.4032 C   0  0  0  0  0  0  0  0  0  0  0  0 
   -1.4200    0.0102   -0.3406 C   0  0  0  0  0  0  0  0  0  0  0  0 
   -0.6552   -3.0197    3.9538 C   0  0  0  0  0  0  0  0  0  0  0  0 
   -1.6884   -1.3694    2.2884 C   0  0  0  0  0  0  0  0  0  0  0  0 
   -0.8127   -3.7339   -0.1470 C   0  0  0  0  0  0  0  0  0  0  0  0 
   -0.6145   -1.2382    0.0797 C   0  0  0  0  0  0  0  0  0  0  0  0 
   -1.2540   -2.3987   -0.5177 N   0  0  0  0  0  0  0  0  0  0  0  0 
   -0.4159   -3.2959    5.3304 O   0  0  0  0  0  0  0  0  0  0  0  0 
   -1.3214   -4.6770   -1.0684 O   0  0  0  0  0  0  0  0  0  0  0  0 
   -0.4918   -1.3340    1.5234 O   0  0  0  0  0  0  0  0  0  0  0  0 
    0.6699    1.5296   -1.4494 H   0  0  0  0  0  0  0  0  0  0  0  0 
    1.1272    2.3578    0.0379 H   0  0  0  0  0  0  0  0  0  0  0  0 
    1.5982    0.1931    1.1516 H   0  0  0  0  0  0  0  0  0  0  0  0 
    2.5085    0.2816   -0.3563 H   0  0  0  0  0  0  0  0  0  0  0  0 
   -1.3785    2.1691   -0.2078 H   0  0  0  0  0  0  0  0  0  0  0  0 
   -0.7920    1.3509    1.2389 H   0  0  0  0  0  0  0  0  0  0  0  0 
   -0.6527   -0.8633    4.0992 H   0  0  0  0  0  0  0  0  0  0  0  0 
   -2.2309   -1.6130    4.3536 H   0  0  0  0  0  0  0  0  0  0  0  0 
    1.4324   -1.9450   -0.0396 H   0  0  0  0  0  0  0  0  0  0  0  0 
    0.8309   -1.1522   -1.4986 H   0  0  0  0  0  0  0  0  0  0  0  0 
   -1.4757    0.0057   -1.4363 H   0  0  0  0  0  0  0  0  0  0  0  0 
   -2.4537   -0.0704    0.0207 H   0  0  0  0  0  0  0  0  0  0  0  0 
    0.2697   -3.0826    3.3637 H   0  0  0  0  0  0  0  0  0  0  0  0 
   -1.3194   -3.8198    3.6068 H   0  0  0  0  0  0  0  0  0  0  0  0 
   -2.2223   -0.4095    2.2317 H   0  0  0  0  0  0  0  0  0  0  0  0 
   -2.3723   -2.1466    1.9099 H   0  0  0  0  0  0  0  0  0  0  0  0 
   -1.1751   -4.0753    0.8324 H   0  0  0  0  0  0  0  0  0  0  0  0 
    0.2847   -3.7376   -0.1172 H   0  0  0  0  0  0  0  0  0  0  0  0 
   -2.2678   -2.3436   -0.4457 H   0  0  0  0  0  0  0  0  0  0  0  0 
    0.2517   -2.6645    5.6407 H   0  0  0  0  0  0  0  0  0  0  0  0 
   -1.0875   -4.3396   -1.9493 H   0  0  0  0  0  0  0  0  0  0  0  0 
  1 16  1  0  0  0  0 
  1  2  1  0  0  0  0 
  1  3  1  0  0  0  0 
  2 17  1  0  0  0  0 
  3 20  1  0  0  0  0 
  4  7  1  0  0  0  0 
  4 21  1  0  0  0  0 
  4 22  1  0  0  0  0 
  5 23  1  0  0  0  0 
  5  2  1  0  0  0  0 
  5 10  1  0  0  0  0 
  6 26  1  0  0  0  0 
  6 10  1  0  0  0  0 
  6  3  1  0  0  0  0 
  7 12  1  0  0  0  0 
  8  4  1  0  0  0  0 
  9 32  1  0  0  0  0 
  9 31  1  0  0  0  0 
 10 14  1  0  0  0  0 
 11 33  1  0  0  0  0 
 11  9  1  0  0  0  0 
 11 10  1  0  0  0  0 
 12 34  1  0  0  0  0 
 13  9  1  0  0  0  0 
 14  8  1  0  0  0  0 
 15  1  1  0  0  0  0 
 18  2  1  0  0  0  0 
 19  3  1  0  0  0  0 
 24  5  1  0  0  0  0 
 25  6  1  0  0  0  0 
 27  7  1  0  0  0  0 
 28  7  1  0  0  0  0 
 29  8  1  0  0  0  0 
 30  8  1  0  0  0  0 
 35 13  1  0  0  0  0 
M  END 
>  <HBA> 
4 
 
>  <HBD> 
3 
 
>  <TPSA> 
61.72 
 
>  <cid> 
60044 
 
>  <dipole> 
3.23 
 
>  <excitation_energy_1> 
5.761 
 
>  <excitation_energy_2> 
6.128 
 
>  <excitation_energy_3> 
6.191 
 
>  <excitation_energy_4> 
6.322 
 
>  <homo_energy> 
-6.389 
 
>  <homo_lumo_gap> 
8.21 
 
>  <logP> 
0.976 
 
>  <lumo_energy> 
1.82 
 
>  <melting_point> 
59.85 
 
>  <molecular_refractivity> 
54.32 
 
>  <oscillator_strength_1> 
0.0145 
 
>  <oscillator_strength_2> 
0.009 
 
>  <oscillator_strength_3> 
0.0185 
 
>  <oscillator_strength_4> 
0.0104 
 
>  <open_babel_can_smiles> 
OCCCOC1(NCO)CCCCC1 
 
>  <mulliken_charges> 
35 
1   -0.260258 
2   -0.26053 
3   -0.258884 
4   -0.294583 
5   -0.276239 
6   -0.308047 
7   -0.03132 
8   -0.024545 
9   0.099429 
10   0.44683 
11   -0.605231 
12   -0.616632 
13   -0.613742 
14   -0.515729 
15   0.127121 
16   0.131666 
17   0.147515 
18   0.129758 
19   0.132214 
20   0.142411 
21   0.133786 
22   0.146612 
23   0.141929 
24   0.13794 
25   0.149028 
26   0.130036 
27   0.140115 
28   0.142732 
29   0.128241 
30   0.11372 
31   0.140559 
32   0.134149 
33   0.299734 
34   0.386092 
35   0.384122 
 
>  <lowdin_charges> 
35 
1   -0.275334 
2   -0.275406 
3   -0.276521 
4   -0.299738 
5   -0.282733 
6   -0.290863 
7   -0.138691 
8   -0.136444 
9   -0.072067 
10   0.160223 
11   -0.363854 
12   -0.470528 
13   -0.461201 
14   -0.29331 
15   0.13457 
16   0.144881 
17   0.146034 
18   0.14334 
19   0.146145 
20   0.142426 
21   0.143625 
22   0.153547 
23   0.151147 
24   0.145642 
25   0.151903 
26   0.142072 
27   0.135475 
28   0.144757 
29   0.131441 
30   0.124699 
31   0.130068 
32   0.129294 
33   0.255537 
34   0.341304 
35   0.338558 
 
$$$$ 
 
