PCCDB-ID:  71012 
public computational chemistry database (PCCDB) project, http://pccdb.org 
 
 27 29  0  0  0  0  0  0  0  0999 V2000 
    0.9217    0.1050    0.0674 C   0  0  0  0  0  0  0  0  0  0  0  0 
    4.2300    4.1408    0.0663 C   0  0  0  0  0  0  0  0  0  0  0  0 
    8.0051    3.6079    0.0665 C   0  0  0  0  0  0  0  0  0  0  0  0 
    6.7324    4.1913    0.0667 C   0  0  0  0  0  0  0  0  0  0  0  0 
    8.1413    2.2257    0.0661 C   0  0  0  0  0  0  0  0  0  0  0  0 
    3.0229   -1.3174    0.0672 C   0  0  0  0  0  0  0  0  0  0  0  0 
    4.4067   -1.4665    0.0661 C   0  0  0  0  0  0  0  0  0  0  0  0 
    3.2459    1.0865    0.0669 C   0  0  0  0  0  0  0  0  0  0  0  0 
    2.4269   -0.0458    0.0678 C   0  0  0  0  0  0  0  0  0  0  0  0 
    5.5621    3.4296    0.0663 C   0  0  0  0  0  0  0  0  0  0  0  0 
    4.6476    0.9785    0.0665 C   0  0  0  0  0  0  0  0  0  0  0  0 
    5.2053   -0.3248    0.0659 C   0  0  0  0  0  0  0  0  0  0  0  0 
    6.9808    1.4508    0.0663 C   0  0  0  0  0  0  0  0  0  0  0  0 
    5.6812    2.0164    0.0662 C   0  0  0  0  0  0  0  0  0  0  0  0 
    6.9673   -0.3131    0.0666 S   0  0  0  0  0  0  0  0  0  0  0  0 
    0.4231   -0.8693    0.0684 H   0  0  0  0  0  0  0  0  0  0  0  0 
    0.5730    0.6550   -0.8156 H   0  0  0  0  0  0  0  0  0  0  0  0 
    0.5726    0.6572    0.9488 H   0  0  0  0  0  0  0  0  0  0  0  0 
    4.3760    5.2252    0.0651 H   0  0  0  0  0  0  0  0  0  0  0  0 
    3.6314    3.8887    0.9503 H   0  0  0  0  0  0  0  0  0  0  0  0 
    3.6304    3.8868   -0.8164 H   0  0  0  0  0  0  0  0  0  0  0  0 
    8.8888    4.2400    0.0669 H   0  0  0  0  0  0  0  0  0  0  0  0 
    6.6468    5.2750    0.0666 H   0  0  0  0  0  0  0  0  0  0  0  0 
    9.1216    1.7585    0.0668 H   0  0  0  0  0  0  0  0  0  0  0  0 
    2.3920   -2.2029    0.0664 H   0  0  0  0  0  0  0  0  0  0  0  0 
    4.8545   -2.4562    0.0663 H   0  0  0  0  0  0  0  0  0  0  0  0 
    2.7750    2.0617    0.0671 H   0  0  0  0  0  0  0  0  0  0  0  0 
  1  9  1  0  0  0  0 
  1 16  1  0  0  0  0 
  1 18  1  0  0  0  0 
  2 20  1  0  0  0  0 
  3  4  2  0  0  0  0 
  3 22  1  0  0  0  0 
  5 13  2  0  0  0  0 
  5  3  1  0  0  0  0 
  5 24  1  0  0  0  0 
  6  9  2  0  0  0  0 
  7 26  1  0  0  0  0 
  7  6  1  0  0  0  0 
  8 27  1  0  0  0  0 
  8  9  1  0  0  0  0 
 10  2  1  0  0  0  0 
 10  4  1  0  0  0  0 
 11  8  2  0  0  0  0 
 12  7  2  0  0  0  0 
 12 11  1  0  0  0  0 
 12 15  1  0  0  0  0 
 13 15  1  0  0  0  0 
 14 13  1  0  0  0  0 
 14 10  2  0  0  0  0 
 14 11  1  0  0  0  0 
 17  1  1  0  0  0  0 
 19  2  1  0  0  0  0 
 21  2  1  0  0  0  0 
 23  4  1  0  0  0  0 
 25  6  1  0  0  0  0 
M  END 
>  <HBA> 
1 
 
>  <HBD> 
0 
 
>  <TPSA> 
28.24 
 
>  <cid> 
71012 
 
>  <dipole> 
1.46 
 
>  <excitation_energy_1> 
4.023 
 
>  <excitation_energy_2> 
4.533 
 
>  <excitation_energy_3> 
4.747 
 
>  <excitation_energy_4> 
4.879 
 
>  <homo_energy> 
-5.608 
 
>  <homo_lumo_gap> 
4.757 
 
>  <logP> 
4.671 
 
>  <lumo_energy> 
-0.852 
 
>  <melting_point> 
101.9 
 
>  <molecular_refractivity> 
69.26 
 
>  <oscillator_strength_1> 
0.0354 
 
>  <oscillator_strength_2> 
0.066 
 
>  <oscillator_strength_3> 
0.0 
 
>  <oscillator_strength_4> 
0.066 
 
>  <open_babel_can_smiles> 
Cc1ccc2c(c1)c1c(C)cccc1s2 
 
>  <mulliken_charges> 
27 
1   -0.529482 
2   -0.540931 
3   -0.10782 
4   -0.211102 
5   -0.18682 
6   -0.170024 
7   -0.181535 
8   -0.234866 
9   0.16624 
10   0.162061 
11   0.113498 
12   -0.143216 
13   -0.141535 
14   0.045612 
15   0.204106 
16   0.154806 
17   0.1621 
18   0.162033 
19   0.156557 
20   0.168148 
21   0.168147 
22   0.131294 
23   0.122348 
24   0.139867 
25   0.124553 
26   0.139712 
27   0.126249 
 
>  <lowdin_charges> 
27 
1   -0.443127 
2   -0.441829 
3   -0.152588 
4   -0.173789 
5   -0.170421 
6   -0.164969 
7   -0.164403 
8   -0.171443 
9   -0.004551 
10   0.006474 
11   -0.016893 
12   -0.129107 
13   -0.122044 
14   -0.030089 
15   0.25891 
16   0.156512 
17   0.160727 
18   0.160706 
19   0.156461 
20   0.162041 
21   0.162045 
22   0.160806 
23   0.153252 
24   0.16432 
25   0.157574 
26   0.164136 
27   0.161289 
 
$$$$ 
 
