PCCDB-ID:  7827 
public computational chemistry database (PCCDB) project, http://pccdb.org 
 
 22 21  0  0  0  0  0  0  0  0999 V2000 
    4.9434    1.9533    2.7032 C   0  0  0  0  0  0  0  0  0  0  0  0 
    8.0972   -3.7419   -3.5708 C   0  0  0  0  0  0  0  0  0  0  0  0 
    4.9587    1.8087    1.3765 C   0  0  0  0  0  0  0  0  0  0  0  0 
    8.1618   -2.5361   -2.6484 C   0  0  0  0  0  0  0  0  0  0  0  0 
    6.7764   -0.9758   -1.5338 C   0  0  0  0  0  0  0  0  0  0  0  0 
    5.2990   -0.6586   -1.3299 C   0  0  0  0  0  0  0  0  0  0  0  0 
    5.1614    0.4721    0.7620 C   0  0  0  0  0  0  0  0  0  0  0  0 
    5.3228   -0.5684    1.3674 O   0  0  0  0  0  0  0  0  0  0  0  0 
    6.8367   -2.0979   -2.3897 O   0  0  0  0  0  0  0  0  0  0  0  0 
    5.1383    0.5684   -0.5920 O   0  0  0  0  0  0  0  0  0  0  0  0 
    4.7939    2.9217    3.1708 H   0  0  0  0  0  0  0  0  0  0  0  0 
    5.0801    1.0925    3.3517 H   0  0  0  0  0  0  0  0  0  0  0  0 
    9.1057   -4.1084   -3.7919 H   0  0  0  0  0  0  0  0  0  0  0  0 
    7.6084   -3.4784   -4.5143 H   0  0  0  0  0  0  0  0  0  0  0  0 
    7.5275   -4.5517   -3.1039 H   0  0  0  0  0  0  0  0  0  0  0  0 
    4.8266    2.6460    0.6978 H   0  0  0  0  0  0  0  0  0  0  0  0 
    8.7446   -1.7219   -3.1123 H   0  0  0  0  0  0  0  0  0  0  0  0 
    8.6642   -2.7966   -1.7016 H   0  0  0  0  0  0  0  0  0  0  0  0 
    7.2517   -1.1872   -0.5638 H   0  0  0  0  0  0  0  0  0  0  0  0 
    7.2857   -0.1059   -1.9817 H   0  0  0  0  0  0  0  0  0  0  0  0 
    4.8018   -1.4767   -0.8048 H   0  0  0  0  0  0  0  0  0  0  0  0 
    4.8145   -0.4856   -2.2930 H   0  0  0  0  0  0  0  0  0  0  0  0 
  1 11  1  0  0  0  0 
  1 12  1  0  0  0  0 
  2 15  1  0  0  0  0 
  2  4  1  0  0  0  0 
  3  1  2  0  0  0  0 
  4  9  1  0  0  0  0 
  4 18  1  0  0  0  0 
  5  6  1  0  0  0  0 
  5 19  1  0  0  0  0 
  6 21  1  0  0  0  0 
  6 10  1  0  0  0  0 
  7  8  2  0  0  0  0 
  7  3  1  0  0  0  0 
  9  5  1  0  0  0  0 
 10  7  1  0  0  0  0 
 13  2  1  0  0  0  0 
 14  2  1  0  0  0  0 
 16  3  1  0  0  0  0 
 17  4  1  0  0  0  0 
 20  5  1  0  0  0  0 
 22  6  1  0  0  0  0 
M  END 
>  <HBA> 
3 
 
>  <HBD> 
0 
 
>  <TPSA> 
35.53 
 
>  <cid> 
7827 
 
>  <dipole> 
1.8 
 
>  <excitation_energy_1> 
4.751 
 
>  <excitation_energy_2> 
5.079 
 
>  <excitation_energy_3> 
6.127 
 
>  <excitation_energy_4> 
6.246 
 
>  <homo_energy> 
-6.98 
 
>  <homo_lumo_gap> 
5.72 
 
>  <logP> 
0.752 
 
>  <lumo_energy> 
-1.26 
 
>  <melting_point> 
-44.33 
 
>  <molecular_refractivity> 
37.66 
 
>  <oscillator_strength_1> 
0.0003 
 
>  <oscillator_strength_2> 
0.0002 
 
>  <oscillator_strength_3> 
0.0129 
 
>  <oscillator_strength_4> 
0.4607 
 
>  <open_babel_can_smiles> 
CCOCCOC(=O)C=C 
 
>  <mulliken_charges> 
22 
1   -0.301813 
2   -0.454315 
3   -0.133685 
4   -0.003455 
5   -0.024282 
6   -0.063867 
7   0.606428 
8   -0.48846 
9   -0.478704 
10   -0.477614 
11   0.158316 
12   0.18148 
13   0.144235 
14   0.158104 
15   0.160642 
16   0.155016 
17   0.120048 
18   0.124334 
19   0.146271 
20   0.126515 
21   0.180548 
22   0.164259 
 
>  <lowdin_charges> 
22 
1   -0.265014 
2   -0.448731 
3   -0.186983 
4   -0.1244 
5   -0.140273 
6   -0.137486 
7   0.198484 
8   -0.271609 
9   -0.275021 
10   -0.192567 
11   0.16937 
12   0.180775 
13   0.154233 
14   0.156881 
15   0.159146 
16   0.171701 
17   0.127015 
18   0.128343 
19   0.140208 
20   0.130395 
21   0.166099 
22   0.159432 
 
$$$$ 
 
