PCCDB-ID:  6514 
public computational chemistry database (PCCDB) project, http://pccdb.org 
 
 12 11  0  0  0  0  0  0  0  0999 V2000 
    1.1693   -0.1079   -0.1453 C   0  0  0  0  0  0  0  0  0  0  0  0 
    0.5979   -1.5134    0.0339 C   0  0  0  0  0  0  0  0  0  0  0  0 
    2.6884   -0.0871    0.0048 C   0  0  0  0  0  0  0  0  0  0  0  0 
    3.3661   -1.0602    0.2168 O   0  0  0  0  0  0  0  0  0  0  0  0 
    3.2694    1.1374   -0.1203 O   0  0  0  0  0  0  0  0  0  0  0  0 
   -1.2157   -1.6133   -0.2553 S   0  0  0  0  0  0  0  0  0  0  0  0 
    0.7340    0.5824    0.5913 H   0  0  0  0  0  0  0  0  0  0  0  0 
    0.9000    0.2882   -1.1335 H   0  0  0  0  0  0  0  0  0  0  0  0 
    0.8413   -1.9092    1.0221 H   0  0  0  0  0  0  0  0  0  0  0  0 
    1.0418   -2.1938   -0.6968 H   0  0  0  0  0  0  0  0  0  0  0  0 
    2.5939    1.8144   -0.2928 H   0  0  0  0  0  0  0  0  0  0  0  0 
   -1.5934   -0.8793    0.8150 H   0  0  0  0  0  0  0  0  0  0  0  0 
  1  3  1  0  0  0  0 
  1  2  1  0  0  0  0 
  1  7  1  0  0  0  0 
  2  9  1  0  0  0  0 
  3  4  2  0  0  0  0 
  5  3  1  0  0  0  0 
  6  2  1  0  0  0  0 
  6 12  1  0  0  0  0 
  8  1  1  0  0  0  0 
 10  2  1  0  0  0  0 
 11  5  1  0  0  0  0 
M  END 
>  <HBA> 
3 
 
>  <HBD> 
2 
 
>  <TPSA> 
76.1 
 
>  <cid> 
6514 
 
>  <dipole> 
3.56 
 
>  <excitation_energy_1> 
5.263 
 
>  <excitation_energy_2> 
5.597 
 
>  <excitation_energy_3> 
5.773 
 
>  <excitation_energy_4> 
5.962 
 
>  <homo_energy> 
-6.724 
 
>  <homo_lumo_gap> 
6.762 
 
>  <logP> 
0.391 
 
>  <lumo_energy> 
0.038 
 
>  <melting_point> 
72.85 
 
>  <molecular_refractivity> 
26.24 
 
>  <oscillator_strength_1> 
0.0182 
 
>  <oscillator_strength_2> 
0.0004 
 
>  <oscillator_strength_3> 
0.0058 
 
>  <oscillator_strength_4> 
0.0038 
 
>  <open_babel_can_smiles> 
OC(=O)CCS 
 
>  <mulliken_charges> 
12 
1   -0.392128 
2   -0.410763 
3   0.604785 
4   -0.431737 
5   -0.562408 
6   -0.070711 
7   0.168446 
8   0.187777 
9   0.199631 
10   0.204098 
11   0.411037 
12   0.091971 
 
>  <lowdin_charges> 
12 
1   -0.331144 
2   -0.367303 
3   0.197502 
4   -0.234804 
5   -0.35713 
6   -0.075295 
7   0.165024 
8   0.173361 
9   0.173424 
10   0.183694 
11   0.36057 
12   0.1121 
 
$$$$ 
 
