PCCDB-ID:  17131 
public computational chemistry database (PCCDB) project, http://pccdb.org 
 
 20 21  0  0  0  0  0  0  0  0999 V2000 
    0.8733   -0.0248    0.1646 C   0  0  0  0  0  0  0  0  0  0  0  0 
    3.0614   -1.3124    0.1012 C   0  0  0  0  0  0  0  0  0  0  0  0 
    4.4467   -1.3617    0.0416 C   0  0  0  0  0  0  0  0  0  0  0  0 
    6.6430   -0.1363   -0.0888 C   0  0  0  0  0  0  0  0  0  0  0  0 
    7.2962    1.0465   -0.1507 C   0  0  0  0  0  0  0  0  0  0  0  0 
    3.1251    1.1009    0.0285 C   0  0  0  0  0  0  0  0  0  0  0  0 
    2.3812   -0.0800    0.0959 C   0  0  0  0  0  0  0  0  0  0  0  0 
    5.2049   -0.1802   -0.0255 C   0  0  0  0  0  0  0  0  0  0  0  0 
    4.5162    1.0489   -0.0309 C   0  0  0  0  0  0  0  0  0  0  0  0 
    6.5803    2.3184   -0.1583 C   0  0  0  0  0  0  0  0  0  0  0  0 
    7.0787    3.4173   -0.2140 O   0  0  0  0  0  0  0  0  0  0  0  0 
    5.1862    2.2371   -0.0947 O   0  0  0  0  0  0  0  0  0  0  0  0 
    0.4369   -1.0277    0.1841 H   0  0  0  0  0  0  0  0  0  0  0  0 
    0.4557    0.5084   -0.6980 H   0  0  0  0  0  0  0  0  0  0  0  0 
    0.5370    0.5058    1.0637 H   0  0  0  0  0  0  0  0  0  0  0  0 
    2.4905   -2.2354    0.1529 H   0  0  0  0  0  0  0  0  0  0  0  0 
    4.9622   -2.3189    0.0464 H   0  0  0  0  0  0  0  0  0  0  0  0 
    7.1952   -1.0736   -0.0859 H   0  0  0  0  0  0  0  0  0  0  0  0 
    8.3766    1.1176   -0.1990 H   0  0  0  0  0  0  0  0  0  0  0  0 
    2.6405    2.0728    0.0215 H   0  0  0  0  0  0  0  0  0  0  0  0 
  1 13  1  0  0  0  0 
  1 15  1  0  0  0  0 
  2 16  1  0  0  0  0 
  3 17  1  0  0  0  0 
  3  2  2  0  0  0  0 
  4 18  1  0  0  0  0 
  4  8  1  0  0  0  0 
  5  4  2  0  0  0  0 
  6  7  2  0  0  0  0 
  7  2  1  0  0  0  0 
  7  1  1  0  0  0  0 
  8  3  1  0  0  0  0 
  9  8  2  0  0  0  0 
  9  6  1  0  0  0  0 
 10  5  1  0  0  0  0 
 10 12  1  0  0  0  0 
 11 10  2  0  0  0  0 
 12  9  1  0  0  0  0 
 14  1  1  0  0  0  0 
 19  5  1  0  0  0  0 
 20  6  1  0  0  0  0 
M  END 
>  <HBA> 
2 
 
>  <HBD> 
0 
 
>  <TPSA> 
30.21 
 
>  <cid> 
17131 
 
>  <dipole> 
5.04 
 
>  <excitation_energy_1> 
4.118 
 
>  <excitation_energy_2> 
4.477 
 
>  <excitation_energy_3> 
4.484 
 
>  <excitation_energy_4> 
5.287 
 
>  <homo_energy> 
-6.357 
 
>  <homo_lumo_gap> 
4.561 
 
>  <logP> 
2.101 
 
>  <lumo_energy> 
-1.796 
 
>  <melting_point> 
87.16 
 
>  <molecular_refractivity> 
47.45 
 
>  <oscillator_strength_1> 
0.1742 
 
>  <oscillator_strength_2> 
0.0001 
 
>  <oscillator_strength_3> 
0.1698 
 
>  <oscillator_strength_4> 
0.016 
 
>  <open_babel_can_smiles> 
Cc1ccc2c(c1)oc(=O)cc2 
 
>  <mulliken_charges> 
20 
1   -0.53217 
2   -0.18212 
3   -0.196934 
4   -0.118695 
5   -0.220355 
6   -0.224483 
7   0.174183 
8   0.124632 
9   0.319699 
10   0.595884 
11   -0.464758 
12   -0.519227 
13   0.160119 
14   0.17187 
15   0.172519 
16   0.131557 
17   0.140286 
18   0.15478 
19   0.16392 
20   0.149292 
 
>  <lowdin_charges> 
20 
1   -0.442366 
2   -0.177364 
3   -0.143695 
4   -0.107682 
5   -0.199884 
6   -0.183498 
7   0.022672 
8   -0.04446 
9   0.114568 
10   0.198043 
11   -0.240717 
12   -0.136098 
13   0.159235 
14   0.167391 
15   0.167406 
16   0.160724 
17   0.163057 
18   0.169643 
19   0.180128 
20   0.172897 
 
$$$$ 
 
