PCCDB-ID:  8129 
public computational chemistry database (PCCDB) project, http://pccdb.org 
 
 24 23  0  0  0  0  0  0  0  0999 V2000 
    1.7314    0.0395   -1.4044 C   0  0  0  0  0  0  0  0  0  0  0  0 
    3.1118   -0.1141   -0.7576 C   0  0  0  0  0  0  0  0  0  0  0  0 
    3.0617   -0.7692    0.6286 C   0  0  0  0  0  0  0  0  0  0  0  0 
    4.4398   -0.9208    1.2852 C   0  0  0  0  0  0  0  0  0  0  0  0 
    4.3902   -1.5785    2.6703 C   0  0  0  0  0  0  0  0  0  0  0  0 
    5.7723   -1.7280    3.3177 C   0  0  0  0  0  0  0  0  0  0  0  0 
    5.7216   -2.3802    4.6931 C   0  0  0  0  0  0  0  0  0  0  0  0 
    7.0551   -2.4729    5.1864 O   0  0  0  0  0  0  0  0  0  0  0  0 
    1.8023    0.5026   -2.3953 H   0  0  0  0  0  0  0  0  0  0  0  0 
    1.0734    0.6665   -0.7899 H   0  0  0  0  0  0  0  0  0  0  0  0 
    1.2400   -0.9338   -1.5262 H   0  0  0  0  0  0  0  0  0  0  0  0 
    3.5888    0.8730   -0.6741 H   0  0  0  0  0  0  0  0  0  0  0  0 
    3.7606   -0.7094   -1.4158 H   0  0  0  0  0  0  0  0  0  0  0  0 
    2.5878   -1.7587    0.5439 H   0  0  0  0  0  0  0  0  0  0  0  0 
    2.4084   -0.1760    1.2860 H   0  0  0  0  0  0  0  0  0  0  0  0 
    4.9124    0.0688    1.3714 H   0  0  0  0  0  0  0  0  0  0  0  0 
    5.0932   -1.5122    0.6269 H   0  0  0  0  0  0  0  0  0  0  0  0 
    3.9158   -2.5674    2.5837 H   0  0  0  0  0  0  0  0  0  0  0  0 
    3.7382   -0.9851    3.3287 H   0  0  0  0  0  0  0  0  0  0  0  0 
    6.2506   -0.7448    3.4193 H   0  0  0  0  0  0  0  0  0  0  0  0 
    6.4285   -2.3294    2.6747 H   0  0  0  0  0  0  0  0  0  0  0  0 
    5.2562   -3.3777    4.6164 H   0  0  0  0  0  0  0  0  0  0  0  0 
    5.0899   -1.7782    5.3684 H   0  0  0  0  0  0  0  0  0  0  0  0 
    7.0216   -2.8994    6.0559 H   0  0  0  0  0  0  0  0  0  0  0  0 
  1 10  1  0  0  0  0 
  1  2  1  0  0  0  0 
  2 12  1  0  0  0  0 
  2  3  1  0  0  0  0 
  3  4  1  0  0  0  0 
  3 15  1  0  0  0  0 
  4 16  1  0  0  0  0 
  4  5  1  0  0  0  0 
  5  6  1  0  0  0  0 
  5 19  1  0  0  0  0 
  6 20  1  0  0  0  0 
  6  7  1  0  0  0  0 
  7  8  1  0  0  0  0 
  7 23  1  0  0  0  0 
  8 24  1  0  0  0  0 
  9  1  1  0  0  0  0 
 11  1  1  0  0  0  0 
 13  2  1  0  0  0  0 
 14  3  1  0  0  0  0 
 17  4  1  0  0  0  0 
 18  5  1  0  0  0  0 
 21  6  1  0  0  0  0 
 22  7  1  0  0  0  0 
M  END 
>  <HBA> 
1 
 
>  <HBD> 
1 
 
>  <TPSA> 
20.23 
 
>  <cid> 
8129 
 
>  <dipole> 
1.46 
 
>  <excitation_energy_1> 
6.32 
 
>  <excitation_energy_2> 
7.361 
 
>  <excitation_energy_3> 
7.561 
 
>  <excitation_energy_4> 
7.635 
 
>  <homo_energy> 
-7.097 
 
>  <homo_lumo_gap> 
9.225 
 
>  <logP> 
1.949 
 
>  <lumo_energy> 
2.128 
 
>  <melting_point> 
-8.61 
 
>  <molecular_refractivity> 
36.92 
 
>  <oscillator_strength_1> 
0.0007 
 
>  <oscillator_strength_2> 
0.0175 
 
>  <oscillator_strength_3> 
0.0012 
 
>  <oscillator_strength_4> 
0.0139 
 
>  <open_babel_can_smiles> 
CCCCCCCO 
 
>  <mulliken_charges> 
24 
1   -0.441286 
2   -0.24693 
3   -0.245973 
4   -0.25086 
5   -0.261732 
6   -0.259781 
7   -0.02736 
8   -0.62027 
9   0.141509 
10   0.14084 
11   0.140808 
12   0.130363 
13   0.13037 
14   0.125868 
15   0.125853 
16   0.129192 
17   0.129172 
18   0.127633 
19   0.127648 
20   0.143444 
21   0.14349 
22   0.11418 
23   0.114371 
24   0.38945 
 
>  <lowdin_charges> 
24 
1   -0.4451 
2   -0.273118 
3   -0.275714 
4   -0.273948 
5   -0.275504 
6   -0.281019 
7   -0.134727 
8   -0.474275 
9   0.148575 
10   0.147343 
11   0.145729 
12   0.138428 
13   0.140319 
14   0.136423 
15   0.138328 
16   0.138326 
17   0.140224 
18   0.136977 
19   0.138904 
20   0.147001 
21   0.14891 
22   0.121686 
23   0.123746 
24   0.342485 
 
$$$$ 
 
