PCCDB-ID:  39451 
public computational chemistry database (PCCDB) project, http://pccdb.org 
 
 33 33  0  0  0  0  0  0  0  0999 V2000 
    2.1008    3.3118    1.9373 C   0  0  0  0  0  0  0  0  0  0  0  0 
    6.7504    1.2959    1.1634 C   0  0  0  0  0  0  0  0  0  0  0  0 
    5.5316    4.8807    1.4819 C   0  0  0  0  0  0  0  0  0  0  0  0 
    4.1651    4.7071    1.6765 C   0  0  0  0  0  0  0  0  0  0  0  0 
    6.3454    3.7643    1.3154 C   0  0  0  0  0  0  0  0  0  0  0  0 
    3.8259    0.8943    1.5148 C   0  0  0  0  0  0  0  0  0  0  0  0 
    3.6056    0.2096    0.1411 C   0  0  0  0  0  0  0  0  0  0  0  0 
    3.5933    3.4285    1.6965 C   0  0  0  0  0  0  0  0  0  0  0  0 
    5.8105    2.4713    1.3262 C   0  0  0  0  0  0  0  0  0  0  0  0 
    4.4180    2.2949    1.5041 C   0  0  0  0  0  0  0  0  0  0  0  0 
    3.6231    1.8473   -2.7164 C   0  0  0  0  0  0  0  0  0  0  0  0 
    4.3167    2.8297   -3.1669 N   0  0  0  0  0  0  0  0  0  0  0  0 
    3.3658    0.6257   -3.3241 N   0  0  0  0  0  0  0  0  0  0  0  0 
    2.6331    0.8206   -0.7756 N   0  0  0  0  0  0  0  0  0  0  0  0 
    3.0490    1.9882   -1.4443 N   0  0  0  0  0  0  0  0  0  0  0  0 
    1.6580    4.3026    2.0748 H   0  0  0  0  0  0  0  0  0  0  0  0 
    1.8717    2.7241    2.8354 H   0  0  0  0  0  0  0  0  0  0  0  0 
    1.5757    2.8382    1.0992 H   0  0  0  0  0  0  0  0  0  0  0  0 
    7.7890    1.6374    1.1263 H   0  0  0  0  0  0  0  0  0  0  0  0 
    6.5607    0.7335    0.2418 H   0  0  0  0  0  0  0  0  0  0  0  0 
    6.6680    0.5844    1.9952 H   0  0  0  0  0  0  0  0  0  0  0  0 
    5.9602    5.8790    1.4655 H   0  0  0  0  0  0  0  0  0  0  0  0 
    3.5246    5.5740    1.8186 H   0  0  0  0  0  0  0  0  0  0  0  0 
    7.4157    3.8914    1.1730 H   0  0  0  0  0  0  0  0  0  0  0  0 
    4.4778    0.2273    2.0948 H   0  0  0  0  0  0  0  0  0  0  0  0 
    2.8664    0.8963    2.0440 H   0  0  0  0  0  0  0  0  0  0  0  0 
    3.2558   -0.8136    0.3345 H   0  0  0  0  0  0  0  0  0  0  0  0 
    4.5432    0.1230   -0.4151 H   0  0  0  0  0  0  0  0  0  0  0  0 
    4.6467    2.6354   -4.1134 H   0  0  0  0  0  0  0  0  0  0  0  0 
    2.6165    0.0978   -2.8911 H   0  0  0  0  0  0  0  0  0  0  0  0 
    3.3480    0.6463   -4.3344 H   0  0  0  0  0  0  0  0  0  0  0  0 
    1.7553    1.0206   -0.3020 H   0  0  0  0  0  0  0  0  0  0  0  0 
    3.5325    2.6931   -0.8930 H   0  0  0  0  0  0  0  0  0  0  0  0 
  1 16  1  0  0  0  0 
  1 17  1  0  0  0  0 
  2  9  1  0  0  0  0 
  2 21  1  0  0  0  0 
  3  4  2  0  0  0  0 
  4  8  1  0  0  0  0 
  4 23  1  0  0  0  0 
  5  9  2  0  0  0  0 
  5  3  1  0  0  0  0 
  6 26  1  0  0  0  0 
  6 25  1  0  0  0  0 
  7 27  1  0  0  0  0 
  7  6  1  0  0  0  0 
  8  1  1  0  0  0  0 
  9 10  1  0  0  0  0 
 10  6  1  0  0  0  0 
 10  8  2  0  0  0  0 
 11 15  1  0  0  0  0 
 12 11  1  0  0  0  0 
 13 30  1  0  0  0  0 
 13 11  2  0  0  0  0 
 14 32  1  0  0  0  0 
 14  7  1  0  0  0  0 
 15 33  1  0  0  0  0 
 15 14  1  0  0  0  0 
 18  1  1  0  0  0  0 
 19  2  1  0  0  0  0 
 20  2  1  0  0  0  0 
 22  3  1  0  0  0  0 
 24  5  1  0  0  0  0 
 28  7  1  0  0  0  0 
 29 12  1  0  0  0  0 
 31 13  1  0  0  0  0 
M  RAD  1  12   2 
M  END 
>  <HBA> 
4 
 
>  <HBD> 
3 
 
>  <TPSA> 
76.43 
 
>  <cid> 
39451 
 
>  <dipole> 
3.06 
 
>  <excitation_energy_1> 
4.877 
 
>  <excitation_energy_2> 
5.05 
 
>  <excitation_energy_3> 
5.175 
 
>  <excitation_energy_4> 
5.209 
 
>  <homo_energy> 
-5.546 
 
>  <homo_lumo_gap> 
5.486 
 
>  <logP> 
2.415 
 
>  <lumo_energy> 
-0.06 
 
>  <melting_point> 
169.04 
 
>  <molecular_refractivity> 
62.86 
 
>  <oscillator_strength_1> 
0.0037 
 
>  <oscillator_strength_2> 
0.0003 
 
>  <oscillator_strength_3> 
0.009 
 
>  <oscillator_strength_4> 
0.0019 
 
>  <open_babel_can_smiles> 
[NH]C(=[NH2])NNCCc1c(C)cccc1C 
 
>  <mulliken_charges> 
33 
1   -0.541298 
2   -0.543199 
3   -0.116012 
4   -0.181244 
5   -0.179524 
6   -0.361141 
7   -0.132865 
8   0.117907 
9   0.141298 
10   0.044416 
11   0.593913 
12   -0.66016 
13   -0.751134 
14   -0.454524 
15   -0.483339 
16   0.160591 
17   0.161935 
18   0.153243 
19   0.158188 
20   0.170253 
21   0.157456 
22   0.129291 
23   0.122299 
24   0.122843 
25   0.146291 
26   0.138087 
27   0.14341 
28   0.169441 
29   0.26091 
30   0.33831 
31   0.317731 
32   0.315259 
33   0.341365 
 
>  <lowdin_charges> 
33 
1   -0.446957 
2   -0.443643 
3   -0.15262 
4   -0.171014 
5   -0.162869 
6   -0.296276 
7   -0.211773 
8   -0.014797 
9   -0.00365 
10   -0.033475 
11   0.123767 
12   -0.494601 
13   -0.505843 
14   -0.290951 
15   -0.261505 
16   0.159653 
17   0.158152 
18   0.153662 
19   0.157953 
20   0.161348 
21   0.156643 
22   0.158076 
23   0.155367 
24   0.153184 
25   0.157553 
26   0.149311 
27   0.146814 
28   0.157236 
29   0.243902 
30   0.284909 
31   0.275026 
32   0.256734 
33   0.280682 
 
$$$$ 
 
