PCCDB-ID:  23632 
public computational chemistry database (PCCDB) project, http://pccdb.org 
 
 28 29  0  0  0  0  0  0  0  0999 V2000 
    2.1273    3.0438    1.4830 C   0  0  0  0  0  0  0  0  0  0  0  0 
    2.7405    2.1199    0.7432 C   0  0  0  0  0  0  0  0  0  0  0  0 
    9.8202   -0.1462   -0.7710 C   0  0  0  0  0  0  0  0  0  0  0  0 
    9.9744   -0.4789    0.5746 C   0  0  0  0  0  0  0  0  0  0  0  0 
    8.5598    0.2236   -1.2475 C   0  0  0  0  0  0  0  0  0  0  0  0 
    8.8750   -0.4416    1.4349 C   0  0  0  0  0  0  0  0  0  0  0  0 
    7.4639    0.2606   -0.3866 C   0  0  0  0  0  0  0  0  0  0  0  0 
    3.1522    0.7602    1.2393 C   0  0  0  0  0  0  0  0  0  0  0  0 
    5.1404   -0.7737    1.4353 C   0  0  0  0  0  0  0  0  0  0  0  0 
    5.5464    1.2441    1.8772 C   0  0  0  0  0  0  0  0  0  0  0  0 
    7.6063   -0.0726    0.9704 C   0  0  0  0  0  0  0  0  0  0  0  0 
    6.4299   -0.0403    1.9157 C   0  0  0  0  0  0  0  0  0  0  0  0 
    4.5723    0.5269    1.0280 N   0  0  0  0  0  0  0  0  0  0  0  0 
    1.8416    4.0094    1.0743 H   0  0  0  0  0  0  0  0  0  0  0  0 
    1.8800    2.8666    2.5280 H   0  0  0  0  0  0  0  0  0  0  0  0 
    2.9868    2.3277   -0.2980 H   0  0  0  0  0  0  0  0  0  0  0  0 
   10.6735   -0.1742   -1.4435 H   0  0  0  0  0  0  0  0  0  0  0  0 
   10.9498   -0.7679    0.9578 H   0  0  0  0  0  0  0  0  0  0  0  0 
    8.4296    0.4846   -2.2948 H   0  0  0  0  0  0  0  0  0  0  0  0 
    9.0039   -0.7029    2.4833 H   0  0  0  0  0  0  0  0  0  0  0  0 
    6.4836    0.5478   -0.7584 H   0  0  0  0  0  0  0  0  0  0  0  0 
    2.6108   -0.0156    0.6775 H   0  0  0  0  0  0  0  0  0  0  0  0 
    2.8657    0.6464    2.3047 H   0  0  0  0  0  0  0  0  0  0  0  0 
    4.6002   -1.2427    2.2760 H   0  0  0  0  0  0  0  0  0  0  0  0 
    5.2468   -1.5046    0.6249 H   0  0  0  0  0  0  0  0  0  0  0  0 
    5.9816    2.1428    1.4264 H   0  0  0  0  0  0  0  0  0  0  0  0 
    5.1479    1.4991    2.8742 H   0  0  0  0  0  0  0  0  0  0  0  0 
    6.7569   -0.3258    2.9189 H   0  0  0  0  0  0  0  0  0  0  0  0 
  1 15  1  0  0  0  0 
  2  8  1  0  0  0  0 
  2  1  2  0  0  0  0 
  3  4  1  0  0  0  0 
  4 18  1  0  0  0  0 
  4  6  2  0  0  0  0 
  5  3  2  0  0  0  0 
  5  7  1  0  0  0  0 
  6 20  1  0  0  0  0 
  7 11  2  0  0  0  0 
  8 23  1  0  0  0  0 
  9 12  1  0  0  0  0 
  9 24  1  0  0  0  0 
 10 12  1  0  0  0  0 
 10 27  1  0  0  0  0 
 11  6  1  0  0  0  0 
 11 12  1  0  0  0  0 
 12 28  1  0  0  0  0 
 13  8  1  0  0  0  0 
 13  9  1  0  0  0  0 
 13 10  1  0  0  0  0 
 14  1  1  0  0  0  0 
 16  2  1  0  0  0  0 
 17  3  1  0  0  0  0 
 19  5  1  0  0  0  0 
 21  7  1  0  0  0  0 
 22  8  1  0  0  0  0 
 25  9  1  0  0  0  0 
 26 10  1  0  0  0  0 
M  END 
>  <HBA> 
1 
 
>  <HBD> 
0 
 
>  <TPSA> 
3.24 
 
>  <cid> 
23632 
 
>  <dipole> 
0.88 
 
>  <excitation_energy_1> 
5.084 
 
>  <excitation_energy_2> 
5.119 
 
>  <excitation_energy_3> 
5.264 
 
>  <excitation_energy_4> 
5.271 
 
>  <homo_energy> 
-5.91 
 
>  <homo_lumo_gap> 
6.006 
 
>  <logP> 
2.21 
 
>  <lumo_energy> 
0.095 
 
>  <melting_point> 
8.45 
 
>  <molecular_refractivity> 
59.67 
 
>  <oscillator_strength_1> 
0.0006 
 
>  <oscillator_strength_2> 
0.0051 
 
>  <oscillator_strength_3> 
0.0015 
 
>  <oscillator_strength_4> 
0.0005 
 
>  <open_babel_can_smiles> 
C=CCN1CC(C1)c1ccccc1 
 
>  <mulliken_charges> 
28 
1   -0.337858 
2   -0.043777 
3   -0.130582 
4   -0.127772 
5   -0.130365 
6   -0.199404 
7   -0.197706 
8   -0.168333 
9   -0.109793 
10   -0.109926 
11   0.196331 
12   -0.238337 
13   -0.396586 
14   0.142124 
15   0.136934 
16   0.135742 
17   0.125596 
18   0.125924 
19   0.126752 
20   0.121103 
21   0.15101 
22   0.14914 
23   0.111964 
24   0.119262 
25   0.147137 
26   0.150147 
27   0.12071 
28   0.130561 
 
>  <lowdin_charges> 
28 
1   -0.334928 
2   -0.147166 
3   -0.163201 
4   -0.157152 
5   -0.153447 
6   -0.16847 
7   -0.167187 
8   -0.199705 
9   -0.198454 
10   -0.196001 
11   -0.002997 
12   -0.132889 
13   -0.197975 
14   0.159516 
15   0.1531 
16   0.154731 
17   0.156566 
18   0.155676 
19   0.154522 
20   0.150905 
21   0.167011 
22   0.153475 
23   0.118303 
24   0.12928 
25   0.145082 
26   0.146834 
27   0.128733 
28   0.145839 
 
$$$$ 
 
