PCCDB-ID:  19600 
public computational chemistry database (PCCDB) project, http://pccdb.org 
 
 15 15  0  0  0  0  0  0  0  0999 V2000 
   -0.7683    1.1591   -0.0987 C   0  0  0  0  0  0  0  0  0  0  0  0 
    1.3932    0.0442   -0.0710 C   0  0  0  0  0  0  0  0  0  0  0  0 
   -1.4007   -0.0761   -0.0535 C   0  0  0  0  0  0  0  0  0  0  0  0 
    0.7597   -1.1869   -0.0252 C   0  0  0  0  0  0  0  0  0  0  0  0 
    1.2864    2.4983   -0.1570 C   0  0  0  0  0  0  0  0  0  0  0  0 
    0.6392    1.2388   -0.1089 C   0  0  0  0  0  0  0  0  0  0  0  0 
   -0.6412   -1.2537   -0.0170 C   0  0  0  0  0  0  0  0  0  0  0  0 
    1.8206    3.5407   -0.1959 N   0  0  0  0  0  0  0  0  0  0  0  0 
   -1.2034   -2.4905    0.0275 O   0  0  0  0  0  0  0  0  0  0  0  0 
    2.5581    4.9825   -0.2505 S   0  0  0  0  0  0  0  0  0  0  0  0 
   -1.3576    2.0698   -0.1259 H   0  0  0  0  0  0  0  0  0  0  0  0 
    2.4770    0.0966   -0.0782 H   0  0  0  0  0  0  0  0  0  0  0  0 
   -2.4875   -0.1276   -0.0468 H   0  0  0  0  0  0  0  0  0  0  0  0 
    1.3288   -2.1101    0.0053 H   0  0  0  0  0  0  0  0  0  0  0  0 
   -2.1703   -2.4083    0.0264 H   0  0  0  0  0  0  0  0  0  0  0  0 
  1  3  1  0  0  0  0 
  2  4  2  0  0  0  0 
  3 13  1  0  0  0  0 
  3  7  2  0  0  0  0 
  4  7  1  0  0  0  0 
  4 14  1  0  0  0  0 
  5  6  1  0  0  0  0 
  6  1  2  0  0  0  0 
  6  2  1  0  0  0  0 
  7  9  1  0  0  0  0 
  8  5  1  0  0  0  0 
 10  8  1  0  0  0  0 
 11  1  1  0  0  0  0 
 12  2  1  0  0  0  0 
 15  9  1  0  0  0  0 
M  RAD  3   5   3   8   2  10   2 
M  END 
>  <HBA> 
2 
 
>  <HBD> 
1 
 
>  <TPSA> 
65.92 
 
>  <cid> 
19600 
 
>  <dipole> 
6.63 
 
>  <excitation_energy_1> 
3.235 
 
>  <excitation_energy_2> 
3.558 
 
>  <excitation_energy_3> 
3.932 
 
>  <excitation_energy_4> 
4.088 
 
>  <homo_energy> 
-5.529 
 
>  <homo_lumo_gap> 
3.978 
 
>  <logP> 
1.912 
 
>  <lumo_energy> 
-1.551 
 
>  <melting_point> 
91.0 
 
>  <molecular_refractivity> 
40.77 
 
>  <oscillator_strength_1> 
0.0 
 
>  <oscillator_strength_2> 
0.2668 
 
>  <oscillator_strength_3> 
0.0123 
 
>  <oscillator_strength_4> 
0.0 
 
>  <open_babel_can_smiles> 
[S][N][C]c1ccc(cc1)O 
 
>  <mulliken_charges> 
15 
1   -0.142554 
2   -0.142974 
3   -0.196763 
4   -0.160991 
5   0.274037 
6   0.164524 
7   0.365313 
8   -0.442305 
9   -0.627327 
10   -0.131344 
11   0.162745 
12   0.162863 
13   0.138535 
14   0.160073 
15   0.416169 
 
>  <lowdin_charges> 
15 
1   -0.123286 
2   -0.120206 
3   -0.203091 
4   -0.176516 
5   0.013264 
6   -0.029893 
7   0.116227 
8   -0.065492 
9   -0.355751 
10   -0.107568 
11   0.176477 
12   0.174425 
13   0.161422 
14   0.178171 
15   0.361818 
 
$$$$ 
 
