PCCDB-ID:  8405 
public computational chemistry database (PCCDB) project, http://pccdb.org 
 
 17 18  0  0  0  0  0  0  0  0999 V2000 
    2.4268    0.7316    0.0113 C   0  0  0  0  0  0  0  0  0  0  0  0 
    2.4360   -0.6865    0.0085 C   0  0  0  0  0  0  0  0  0  0  0  0 
    1.2387    1.4280    0.0021 C   0  0  0  0  0  0  0  0  0  0  0  0 
    1.2510   -1.3871   -0.0029 C   0  0  0  0  0  0  0  0  0  0  0  0 
   -1.2671    1.3699   -0.0188 C   0  0  0  0  0  0  0  0  0  0  0  0 
   -2.4093    0.6033   -0.0307 C   0  0  0  0  0  0  0  0  0  0  0  0 
   -1.2434   -1.3647   -0.0257 C   0  0  0  0  0  0  0  0  0  0  0  0 
    0.0005    0.7324   -0.0097 C   0  0  0  0  0  0  0  0  0  0  0  0 
    0.0121   -0.6959   -0.0130 C   0  0  0  0  0  0  0  0  0  0  0  0 
   -2.4126   -0.7593   -0.0347 N   0  0  0  0  0  0  0  0  0  0  0  0 
    3.3703    1.2707    0.0196 H   0  0  0  0  0  0  0  0  0  0  0  0 
    3.3845   -1.2162    0.0175 H   0  0  0  0  0  0  0  0  0  0  0  0 
    1.2341    2.5151    0.0044 H   0  0  0  0  0  0  0  0  0  0  0  0 
    1.2484   -2.4745   -0.0045 H   0  0  0  0  0  0  0  0  0  0  0  0 
   -1.3307    2.4550   -0.0155 H   0  0  0  0  0  0  0  0  0  0  0  0 
   -3.3909    1.0721   -0.0372 H   0  0  0  0  0  0  0  0  0  0  0  0 
   -1.2577   -2.4559   -0.0279 H   0  0  0  0  0  0  0  0  0  0  0  0 
  1 11  1  0  0  0  0 
  2  1  1  0  0  0  0 
  2 12  1  0  0  0  0 
  3 13  1  0  0  0  0 
  3  1  2  0  0  0  0 
  4  2  2  0  0  0  0 
  5 15  1  0  0  0  0 
  5  8  2  0  0  0  0 
  6  5  1  0  0  0  0 
  7  9  2  0  0  0  0 
  8  3  1  0  0  0  0 
  9  8  1  0  0  0  0 
  9  4  1  0  0  0  0 
 10  6  2  0  0  0  0 
 10  7  1  0  0  0  0 
 14  4  1  0  0  0  0 
 16  6  1  0  0  0  0 
 17  7  1  0  0  0  0 
M  END 
>  <HBA> 
1 
 
>  <HBD> 
0 
 
>  <TPSA> 
12.89 
 
>  <cid> 
8405 
 
>  <dipole> 
2.56 
 
>  <excitation_energy_1> 
4.319 
 
>  <excitation_energy_2> 
4.319 
 
>  <excitation_energy_3> 
4.646 
 
>  <excitation_energy_4> 
5.096 
 
>  <homo_energy> 
-6.212 
 
>  <homo_lumo_gap> 
4.825 
 
>  <logP> 
2.235 
 
>  <lumo_energy> 
-1.388 
 
>  <melting_point> 
63.16 
 
>  <molecular_refractivity> 
41.74 
 
>  <oscillator_strength_1> 
0.0563 
 
>  <oscillator_strength_2> 
0.0034 
 
>  <oscillator_strength_3> 
0.0143 
 
>  <oscillator_strength_4> 
0.0012 
 
>  <open_babel_can_smiles> 
c1ccc2c(c1)cncc2 
 
>  <mulliken_charges> 
17 
1   -0.129815 
2   -0.134619 
3   -0.181466 
4   -0.188397 
5   -0.196322 
6   0.025097 
7   -0.004558 
8   0.150592 
9   0.108708 
10   -0.416549 
11   0.137695 
12   0.136947 
13   0.136222 
14   0.139719 
15   0.134498 
16   0.141072 
17   0.141177 
 
>  <lowdin_charges> 
17 
1   -0.145507 
2   -0.157441 
3   -0.154821 
4   -0.142799 
5   -0.172558 
6   -0.098615 
7   -0.081568 
8   0.012182 
9   -0.023405 
10   -0.150432 
11   0.16224 
12   0.161977 
13   0.158969 
14   0.160408 
15   0.160973 
16   0.157646 
17   0.152748 
 
$$$$ 
 
