PCCDB-ID:  11506 
public computational chemistry database (PCCDB) project, http://pccdb.org 
 
 20 20  0  0  0  0  0  0  0  0999 V2000 
   -0.8469    1.2123   -0.0850 C   0  0  0  0  0  0  0  0  0  0  0  0 
   -1.4690   -0.0300   -0.2122 C   0  0  0  0  0  0  0  0  0  0  0  0 
    1.3014    0.1285   -0.0170 C   0  0  0  0  0  0  0  0  0  0  0  0 
    0.6793   -1.1130   -0.1304 C   0  0  0  0  0  0  0  0  0  0  0  0 
    1.2291    2.6586    0.1055 C   0  0  0  0  0  0  0  0  0  0  0  0 
   -1.3891   -2.5636   -0.3258 C   0  0  0  0  0  0  0  0  0  0  0  0 
    0.5456    1.3081    0.0080 C   0  0  0  0  0  0  0  0  0  0  0  0 
   -0.7152   -1.2083   -0.2299 C   0  0  0  0  0  0  0  0  0  0  0  0 
    2.4130    2.6436    0.8943 O   0  0  0  0  0  0  0  0  0  0  0  0 
   -0.6334   -3.5268   -1.0507 O   0  0  0  0  0  0  0  0  0  0  0  0 
   -1.4516    2.1169   -0.0634 H   0  0  0  0  0  0  0  0  0  0  0  0 
   -2.5530   -0.0831   -0.2923 H   0  0  0  0  0  0  0  0  0  0  0  0 
    2.3827    0.1951    0.0632 H   0  0  0  0  0  0  0  0  0  0  0  0 
    1.2713   -2.0236   -0.1527 H   0  0  0  0  0  0  0  0  0  0  0  0 
    0.5117    3.4111    0.4710 H   0  0  0  0  0  0  0  0  0  0  0  0 
    1.5592    2.9914   -0.8861 H   0  0  0  0  0  0  0  0  0  0  0  0 
   -2.4004   -2.4457   -0.7477 H   0  0  0  0  0  0  0  0  0  0  0  0 
   -1.5118   -3.0000    0.6729 H   0  0  0  0  0  0  0  0  0  0  0  0 
    2.1689    2.3086    1.7720 H   0  0  0  0  0  0  0  0  0  0  0  0 
   -0.4624   -3.1546   -1.9307 H   0  0  0  0  0  0  0  0  0  0  0  0 
  1 11  1  0  0  0  0 
  1  7  2  0  0  0  0 
  2  1  1  0  0  0  0 
  3  7  1  0  0  0  0 
  3 13  1  0  0  0  0 
  4  3  2  0  0  0  0 
  5 15  1  0  0  0  0 
  5  9  1  0  0  0  0 
  6  8  1  0  0  0  0 
  6 18  1  0  0  0  0 
  7  5  1  0  0  0  0 
  8  2  2  0  0  0  0 
  8  4  1  0  0  0  0 
  9 19  1  0  0  0  0 
 10  6  1  0  0  0  0 
 12  2  1  0  0  0  0 
 14  4  1  0  0  0  0 
 16  5  1  0  0  0  0 
 17  6  1  0  0  0  0 
 20 10  1  0  0  0  0 
M  END 
>  <HBA> 
2 
 
>  <HBD> 
2 
 
>  <TPSA> 
40.46 
 
>  <cid> 
11506 
 
>  <dipole> 
1.85 
 
>  <excitation_energy_1> 
5.149 
 
>  <excitation_energy_2> 
5.599 
 
>  <excitation_energy_3> 
6.01 
 
>  <excitation_energy_4> 
6.177 
 
>  <homo_energy> 
-6.495 
 
>  <homo_lumo_gap> 
6.221 
 
>  <logP> 
0.671 
 
>  <lumo_energy> 
-0.275 
 
>  <melting_point> 
49.23 
 
>  <molecular_refractivity> 
38.7 
 
>  <oscillator_strength_1> 
0.0005 
 
>  <oscillator_strength_2> 
0.1423 
 
>  <oscillator_strength_3> 
0.0026 
 
>  <oscillator_strength_4> 
0.0232 
 
>  <open_babel_can_smiles> 
OCc1ccc(cc1)CO 
 
>  <mulliken_charges> 
20 
1   -0.181117 
2   -0.181266 
3   -0.175117 
4   -0.175136 
5   -0.091058 
6   -0.091138 
7   0.103628 
8   0.103636 
9   -0.60846 
10   -0.608425 
11   0.124386 
12   0.124378 
13   0.144453 
14   0.144508 
15   0.129361 
16   0.164787 
17   0.129327 
18   0.164766 
19   0.389263 
20   0.389225 
 
>  <lowdin_charges> 
20 
1   -0.166519 
2   -0.162843 
3   -0.158461 
4   -0.161677 
5   -0.133935 
6   -0.131336 
7   -0.034001 
8   -0.034651 
9   -0.459664 
10   -0.459408 
11   0.155449 
12   0.15289 
13   0.163181 
14   0.165657 
15   0.134047 
16   0.157296 
17   0.131801 
18   0.15715 
19   0.34259 
20   0.342435 
 
$$$$ 
 
