PCCDB-ID:  69603 
public computational chemistry database (PCCDB) project, http://pccdb.org 
 
 33 32  0  0  0  0  0  0  0  0999 V2000 
    7.1900   -5.5864    0.2253 C   0  0  0  0  0  0  0  0  0  0  0  0 
    0.0696    1.5924   -5.5431 C   0  0  0  0  0  0  0  0  0  0  0  0 
    6.7121   -4.4875    1.1620 C   0  0  0  0  0  0  0  0  0  0  0  0 
    1.5262    1.4276   -5.9493 C   0  0  0  0  0  0  0  0  0  0  0  0 
    6.6203   -1.2463   -0.6521 C   0  0  0  0  0  0  0  0  0  0  0  0 
    3.7175    1.8219   -2.9707 C   0  0  0  0  0  0  0  0  0  0  0  0 
    5.7186   -0.6607   -1.7370 C   0  0  0  0  0  0  0  0  0  0  0  0 
    5.1204    1.4642   -3.4960 C   0  0  0  0  0  0  0  0  0  0  0  0 
    6.1547   -2.6246   -0.2173 C   0  0  0  0  0  0  0  0  0  0  0  0 
    2.8096    2.2447   -4.1115 C   0  0  0  0  0  0  0  0  0  0  0  0 
    5.1270   -3.1588   -0.5777 O   0  0  0  0  0  0  0  0  0  0  0  0 
    2.5444    3.3915   -4.4012 O   0  0  0  0  0  0  0  0  0  0  0  0 
    7.0381   -3.1738    0.6430 O   0  0  0  0  0  0  0  0  0  0  0  0 
    2.3684    1.1652   -4.7996 O   0  0  0  0  0  0  0  0  0  0  0  0 
    6.3254    1.0134   -2.1893 S   0  0  0  0  0  0  0  0  0  0  0  0 
    7.0002   -6.5674    0.6760 H   0  0  0  0  0  0  0  0  0  0  0  0 
    8.2648   -5.4973    0.0364 H   0  0  0  0  0  0  0  0  0  0  0  0 
    6.6569   -5.5390   -0.7285 H   0  0  0  0  0  0  0  0  0  0  0  0 
   -0.5533    1.7192   -6.4362 H   0  0  0  0  0  0  0  0  0  0  0  0 
   -0.0553    2.4752   -4.9100 H   0  0  0  0  0  0  0  0  0  0  0  0 
   -0.2852    0.7111   -4.9987 H   0  0  0  0  0  0  0  0  0  0  0  0 
    7.2254   -4.5304    2.1257 H   0  0  0  0  0  0  0  0  0  0  0  0 
    5.6327   -4.5441    1.3221 H   0  0  0  0  0  0  0  0  0  0  0  0 
    1.8980    2.3188   -6.4608 H   0  0  0  0  0  0  0  0  0  0  0  0 
    1.6671    0.5541   -6.5908 H   0  0  0  0  0  0  0  0  0  0  0  0 
    6.6373   -0.5987    0.2340 H   0  0  0  0  0  0  0  0  0  0  0  0 
    7.6601   -1.3189   -0.9917 H   0  0  0  0  0  0  0  0  0  0  0  0 
    3.7821    2.6529   -2.2651 H   0  0  0  0  0  0  0  0  0  0  0  0 
    3.2758    0.9579   -2.4643 H   0  0  0  0  0  0  0  0  0  0  0  0 
    4.6894   -0.6072   -1.3726 H   0  0  0  0  0  0  0  0  0  0  0  0 
    5.7262   -1.3019   -2.6241 H   0  0  0  0  0  0  0  0  0  0  0  0 
    5.5614    2.3302   -4.0002 H   0  0  0  0  0  0  0  0  0  0  0  0 
    5.0620    0.6505   -4.2261 H   0  0  0  0  0  0  0  0  0  0  0  0 
  1 16  1  0  0  0  0 
  1  3  1  0  0  0  0 
  2 21  1  0  0  0  0 
  2 20  1  0  0  0  0 
  3 23  1  0  0  0  0 
  3 22  1  0  0  0  0 
  4  2  1  0  0  0  0 
  4 14  1  0  0  0  0 
  5  9  1  0  0  0  0 
  5 26  1  0  0  0  0 
  6 29  1  0  0  0  0 
  6 28  1  0  0  0  0 
  7 30  1  0  0  0  0 
  7  5  1  0  0  0  0 
  8  6  1  0  0  0  0 
  8 15  1  0  0  0  0 
  9 13  1  0  0  0  0 
 10  6  1  0  0  0  0 
 11  9  2  0  0  0  0 
 12 10  2  0  0  0  0 
 13  3  1  0  0  0  0 
 14 10  1  0  0  0  0 
 15  7  1  0  0  0  0 
 17  1  1  0  0  0  0 
 18  1  1  0  0  0  0 
 19  2  1  0  0  0  0 
 24  4  1  0  0  0  0 
 25  4  1  0  0  0  0 
 27  5  1  0  0  0  0 
 31  7  1  0  0  0  0 
 32  8  1  0  0  0  0 
 33  8  1  0  0  0  0 
M  END 
>  <HBA> 
5 
 
>  <HBD> 
0 
 
>  <TPSA> 
77.9 
 
>  <cid> 
69603 
 
>  <dipole> 
2.78 
 
>  <excitation_energy_1> 
5.049 
 
>  <excitation_energy_2> 
5.417 
 
>  <excitation_energy_3> 
5.505 
 
>  <excitation_energy_4> 
5.664 
 
>  <homo_energy> 
-6.131 
 
>  <homo_lumo_gap> 
6.191 
 
>  <logP> 
1.626 
 
>  <lumo_energy> 
0.06 
 
>  <melting_point> 
4.63 
 
>  <molecular_refractivity> 
60.34 
 
>  <oscillator_strength_1> 
0.0089 
 
>  <oscillator_strength_2> 
0.0164 
 
>  <oscillator_strength_3> 
0.0033 
 
>  <oscillator_strength_4> 
0.0147 
 
>  <open_babel_can_smiles> 
CCOC(=O)CCSCCC(=O)OCC 
 
>  <mulliken_charges> 
33 
1   -0.462097 
2   -0.462332 
3   -0.045523 
4   -0.045411 
5   -0.375154 
6   -0.32657 
7   -0.403283 
8   -0.43815 
9   0.624202 
10   0.597983 
11   -0.478111 
12   -0.47172 
13   -0.459562 
14   -0.453964 
15   0.098041 
16   0.152214 
17   0.15875 
18   0.175612 
19   0.151131 
20   0.17763 
21   0.158149 
22   0.155099 
23   0.171198 
24   0.169896 
25   0.152804 
26   0.192135 
27   0.18939 
28   0.182786 
29   0.170957 
30   0.186969 
31   0.180428 
32   0.190815 
33   0.185689 
 
>  <lowdin_charges> 
33 
1   -0.452854 
2   -0.456385 
3   -0.124102 
4   -0.129379 
5   -0.302662 
6   -0.301338 
7   -0.367617 
8   -0.372707 
9   0.197582 
10   0.193551 
11   -0.268987 
12   -0.265238 
13   -0.194114 
14   -0.198038 
15   0.093114 
16   0.159531 
17   0.155209 
18   0.164918 
19   0.159631 
20   0.166497 
21   0.157178 
22   0.153149 
23   0.157092 
24   0.158958 
25   0.153015 
26   0.179564 
27   0.176231 
28   0.174571 
29   0.167113 
30   0.163006 
31   0.162901 
32   0.175791 
33   0.164813 
 
$$$$ 
 
