PCCDB-ID:  17819 
public computational chemistry database (PCCDB) project, http://pccdb.org 
 
 18 18  0  0  0  0  0  0  0  0999 V2000 
    0.8949    0.1204    0.1109 C   0  0  0  0  0  0  0  0  0  0  0  0 
    5.1956    0.1332   -0.2653 C   0  0  0  0  0  0  0  0  0  0  0  0 
    4.5001   -1.0734   -0.1774 C   0  0  0  0  0  0  0  0  0  0  0  0 
    3.1028    1.3205   -0.1351 C   0  0  0  0  0  0  0  0  0  0  0  0 
    2.3965    0.1218   -0.0363 C   0  0  0  0  0  0  0  0  0  0  0  0 
    4.4954    1.3388   -0.2488 C   0  0  0  0  0  0  0  0  0  0  0  0 
    3.1062   -1.1006   -0.0613 C   0  0  0  0  0  0  0  0  0  0  0  0 
    2.4180   -2.3209    0.1049 N   0  0  0  0  0  0  0  0  0  0  0  0 
    5.1090    2.5664   -0.3391 O   0  0  0  0  0  0  0  0  0  0  0  0 
    0.5037    1.1395    0.1785 H   0  0  0  0  0  0  0  0  0  0  0  0 
    0.5843   -0.4256    1.0111 H   0  0  0  0  0  0  0  0  0  0  0  0 
    0.3959   -0.3626   -0.7431 H   0  0  0  0  0  0  0  0  0  0  0  0 
    6.2807    0.1278   -0.3540 H   0  0  0  0  0  0  0  0  0  0  0  0 
    5.0535   -2.0102   -0.1934 H   0  0  0  0  0  0  0  0  0  0  0  0 
    2.5714    2.2680   -0.1194 H   0  0  0  0  0  0  0  0  0  0  0  0 
    2.9632   -3.1267   -0.1808 H   0  0  0  0  0  0  0  0  0  0  0  0 
    1.5093   -2.3455   -0.3447 H   0  0  0  0  0  0  0  0  0  0  0  0 
    6.0663    2.4284   -0.4029 H   0  0  0  0  0  0  0  0  0  0  0  0 
  1 10  1  0  0  0  0 
  1 11  1  0  0  0  0 
  2  6  2  0  0  0  0 
  2  3  1  0  0  0  0 
  3  7  2  0  0  0  0 
  4 15  1  0  0  0  0 
  4  5  2  0  0  0  0 
  5  1  1  0  0  0  0 
  6  4  1  0  0  0  0 
  7  5  1  0  0  0  0 
  7  8  1  0  0  0  0 
  9  6  1  0  0  0  0 
 12  1  1  0  0  0  0 
 13  2  1  0  0  0  0 
 14  3  1  0  0  0  0 
 16  8  1  0  0  0  0 
 17  8  1  0  0  0  0 
 18  9  1  0  0  0  0 
M  END 
>  <HBA> 
2 
 
>  <HBD> 
2 
 
>  <TPSA> 
46.25 
 
>  <cid> 
17819 
 
>  <dipole> 
2.09 
 
>  <excitation_energy_1> 
4.362 
 
>  <excitation_energy_2> 
4.447 
 
>  <excitation_energy_3> 
4.533 
 
>  <excitation_energy_4> 
5.021 
 
>  <homo_energy> 
-4.944 
 
>  <homo_lumo_gap> 
5.192 
 
>  <logP> 
1.864 
 
>  <lumo_energy> 
0.248 
 
>  <melting_point> 
98.28 
 
>  <molecular_refractivity> 
37.84 
 
>  <oscillator_strength_1> 
0.0268 
 
>  <oscillator_strength_2> 
0.0427 
 
>  <oscillator_strength_3> 
0.0013 
 
>  <oscillator_strength_4> 
0.0031 
 
>  <open_babel_can_smiles> 
Oc1ccc(c(c1)C)N 
 
>  <mulliken_charges> 
18 
1   -0.549744 
2   -0.204798 
3   -0.177363 
4   -0.236873 
5   0.164615 
6   0.352399 
7   0.23097 
8   -0.78898 
9   -0.655068 
10   0.160504 
11   0.1714 
12   0.14649 
13   0.11199 
14   0.114841 
15   0.128425 
16   0.312707 
17   0.316152 
18   0.402332 
 
>  <lowdin_charges> 
18 
1   -0.444139 
2   -0.208344 
3   -0.189834 
4   -0.18891 
5   -0.021839 
6   0.081991 
7   0.029501 
8   -0.49994 
9   -0.38959 
10   0.160066 
11   0.16324 
12   0.150183 
13   0.148805 
14   0.151694 
15   0.162677 
16   0.270716 
17   0.271269 
18   0.352455 
 
$$$$ 
 
