PCCDB-ID:  60506 
public computational chemistry database (PCCDB) project, http://pccdb.org 
 
 23 22  0  0  0  0  0  0  0  0999 V2000 
    1.0280   -0.0058    0.0238 C   0  0  0  0  0  0  0  0  0  0  0  0 
    1.1483    0.8353   -2.3501 C   0  0  0  0  0  0  0  0  0  0  0  0 
    0.9696   -1.6723   -1.8628 C   0  0  0  0  0  0  0  0  0  0  0  0 
   -1.0022   -0.1433   -1.4131 C   0  0  0  0  0  0  0  0  0  0  0  0 
    0.5434   -0.2491   -1.4262 C   0  0  0  0  0  0  0  0  0  0  0  0 
    2.4923   -0.0113    0.1480 N   0  0  0  0  0  0  0  0  0  0  0  0 
    0.5698    0.7993   -3.7134 N   0  0  0  0  0  0  0  0  0  0  0  0 
    0.5585   -2.0335   -3.1749 O   0  0  0  0  0  0  0  0  0  0  0  0 
   -1.6059   -0.4361   -2.6725 O   0  0  0  0  0  0  0  0  0  0  0  0 
    0.5294   -0.7389    0.6843 H   0  0  0  0  0  0  0  0  0  0  0  0 
    0.6776    0.9843    0.3418 H   0  0  0  0  0  0  0  0  0  0  0  0 
    2.2423    0.7399   -2.3412 H   0  0  0  0  0  0  0  0  0  0  0  0 
    0.9137    1.8199   -1.9240 H   0  0  0  0  0  0  0  0  0  0  0  0 
    0.5841   -2.3966   -1.1221 H   0  0  0  0  0  0  0  0  0  0  0  0 
    2.0633   -1.7496   -1.8581 H   0  0  0  0  0  0  0  0  0  0  0  0 
   -1.2942    0.8649   -1.0733 H   0  0  0  0  0  0  0  0  0  0  0  0 
   -1.4187   -0.8609   -0.6953 H   0  0  0  0  0  0  0  0  0  0  0  0 
    2.8413   -0.9678    0.1465 H   0  0  0  0  0  0  0  0  0  0  0  0 
    2.7583    0.3800    1.0493 H   0  0  0  0  0  0  0  0  0  0  0  0 
    0.8817   -0.0570   -4.1715 H   0  0  0  0  0  0  0  0  0  0  0  0 
    0.9164    1.5879   -4.2567 H   0  0  0  0  0  0  0  0  0  0  0  0 
   -0.3949   -1.8072   -3.2105 H   0  0  0  0  0  0  0  0  0  0  0  0 
   -1.1490    0.1806   -3.3001 H   0  0  0  0  0  0  0  0  0  0  0  0 
  1  6  1  0  0  0  0 
  1 11  1  0  0  0  0 
  1 10  1  0  0  0  0 
  2 12  1  0  0  0  0 
  2 13  1  0  0  0  0 
  2  5  1  0  0  0  0 
  3 15  1  0  0  0  0 
  3  5  1  0  0  0  0 
  3 14  1  0  0  0  0 
  4 16  1  0  0  0  0 
  4 17  1  0  0  0  0 
  5  4  1  0  0  0  0 
  5  1  1  0  0  0  0 
  6 19  1  0  0  0  0 
  7  2  1  0  0  0  0 
  8  3  1  0  0  0  0 
  9  4  1  0  0  0  0 
 18  6  1  0  0  0  0 
 20  7  1  0  0  0  0 
 21  7  1  0  0  0  0 
 22  8  1  0  0  0  0 
 23  9  1  0  0  0  0 
M  END 
>  <HBA> 
4 
 
>  <HBD> 
4 
 
>  <TPSA> 
92.5 
 
>  <cid> 
60506 
 
>  <dipole> 
3.23 
 
>  <excitation_energy_1> 
5.606 
 
>  <excitation_energy_2> 
5.871 
 
>  <excitation_energy_3> 
6.153 
 
>  <excitation_energy_4> 
6.311 
 
>  <homo_energy> 
-6.389 
 
>  <homo_lumo_gap> 
8.163 
 
>  <logP> 
-0.725 
 
>  <lumo_energy> 
1.774 
 
>  <melting_point> 
138.52 
 
>  <molecular_refractivity> 
33.63 
 
>  <oscillator_strength_1> 
0.0096 
 
>  <oscillator_strength_2> 
0.0093 
 
>  <oscillator_strength_3> 
0.0103 
 
>  <oscillator_strength_4> 
0.007 
 
>  <open_babel_can_smiles> 
NCC(CO)(CO)CN 
 
>  <mulliken_charges> 
23 
1   -0.157147 
2   -0.128658 
3   -0.029535 
4   -0.033087 
5   0.017062 
6   -0.723152 
7   -0.777797 
8   -0.652275 
9   -0.655075 
10   0.120471 
11   0.139191 
12   0.156217 
13   0.13206 
14   0.112299 
15   0.136552 
16   0.120859 
17   0.136606 
18   0.303296 
19   0.303124 
20   0.334506 
21   0.308246 
22   0.410735 
23   0.425502 
 
>  <lowdin_charges> 
23 
1   -0.206599 
2   -0.201751 
3   -0.137546 
4   -0.138105 
5   -0.044543 
6   -0.555035 
7   -0.559348 
8   -0.482808 
9   -0.488887 
10   0.124579 
11   0.143884 
12   0.141813 
13   0.140164 
14   0.124327 
15   0.139233 
16   0.128194 
17   0.142934 
18   0.254109 
19   0.259045 
20   0.269917 
21   0.262354 
22   0.340605 
23   0.343465 
 
$$$$ 
 
