PCCDB-ID:  11196 
public computational chemistry database (PCCDB) project, http://pccdb.org 
 
 24 23  0  0  0  0  0  0  0  0999 V2000 
    2.3529   -2.0802    1.3635 C   0  0  0  0  0  0  0  0  0  0  0  0 
    3.7613   -1.5881    0.9877 C   0  0  0  0  0  0  0  0  0  0  0  0 
    4.2376   -0.4628    1.8660 C   0  0  0  0  0  0  0  0  0  0  0  0 
    4.5578    0.7656    1.4480 C   0  0  0  0  0  0  0  0  0  0  0  0 
    5.0157    1.8955    2.3307 C   0  0  0  0  0  0  0  0  0  0  0  0 
    6.4444    2.4029    1.9974 C   0  0  0  0  0  0  0  0  0  0  0  0 
    7.5094    1.3847    2.2683 C   0  0  0  0  0  0  0  0  0  0  0  0 
    8.5835    1.5628    3.0542 C   0  0  0  0  0  0  0  0  0  0  0  0 
    9.5656    0.4890    3.2556 C   0  0  0  0  0  0  0  0  0  0  0  0 
   10.5604    0.5831    3.9510 O   0  0  0  0  0  0  0  0  0  0  0  0 
    2.0466   -2.9178    0.7267 H   0  0  0  0  0  0  0  0  0  0  0  0 
    1.6149   -1.2784    1.2509 H   0  0  0  0  0  0  0  0  0  0  0  0 
    2.3177   -2.4218    2.4049 H   0  0  0  0  0  0  0  0  0  0  0  0 
    3.7757   -1.2686   -0.0621 H   0  0  0  0  0  0  0  0  0  0  0  0 
    4.4616   -2.4331    1.0672 H   0  0  0  0  0  0  0  0  0  0  0  0 
    4.3007   -0.6869    2.9339 H   0  0  0  0  0  0  0  0  0  0  0  0 
    4.4916    0.9925    0.3809 H   0  0  0  0  0  0  0  0  0  0  0  0 
    4.9740    1.5924    3.3840 H   0  0  0  0  0  0  0  0  0  0  0  0 
    4.3311    2.7486    2.2182 H   0  0  0  0  0  0  0  0  0  0  0  0 
    6.6509    3.3205    2.5604 H   0  0  0  0  0  0  0  0  0  0  0  0 
    6.4738    2.6723    0.9300 H   0  0  0  0  0  0  0  0  0  0  0  0 
    7.3774    0.4156    1.7833 H   0  0  0  0  0  0  0  0  0  0  0  0 
    8.7725    2.5016    3.5718 H   0  0  0  0  0  0  0  0  0  0  0  0 
    9.3359   -0.4566    2.7119 H   0  0  0  0  0  0  0  0  0  0  0  0 
  1 13  1  0  0  0  0 
  2 15  1  0  0  0  0 
  2  1  1  0  0  0  0 
  2  3  1  0  0  0  0 
  3 16  1  0  0  0  0 
  4  3  2  0  0  0  0 
  4  5  1  0  0  0  0 
  5 18  1  0  0  0  0 
  6  7  1  0  0  0  0 
  6  5  1  0  0  0  0 
  6 20  1  0  0  0  0 
  7  8  2  0  0  0  0 
  8  9  1  0  0  0  0 
  8 23  1  0  0  0  0 
  9 10  2  0  0  0  0 
 11  1  1  0  0  0  0 
 12  1  1  0  0  0  0 
 14  2  1  0  0  0  0 
 17  4  1  0  0  0  0 
 19  5  1  0  0  0  0 
 21  6  1  0  0  0  0 
 22  7  1  0  0  0  0 
 24  9  1  0  0  0  0 
M  END 
>  <HBA> 
1 
 
>  <HBD> 
0 
 
>  <TPSA> 
17.07 
 
>  <cid> 
11196 
 
>  <dipole> 
4.23 
 
>  <excitation_energy_1> 
3.703 
 
>  <excitation_energy_2> 
4.596 
 
>  <excitation_energy_3> 
5.883 
 
>  <excitation_energy_4> 
6.183 
 
>  <homo_energy> 
-6.659 
 
>  <homo_lumo_gap> 
5.225 
 
>  <logP> 
2.488 
 
>  <lumo_energy> 
-1.434 
 
>  <melting_point> 
22.75 
 
>  <molecular_refractivity> 
44.63 
 
>  <oscillator_strength_1> 
0.0004 
 
>  <oscillator_strength_2> 
0.0248 
 
>  <oscillator_strength_3> 
0.5633 
 
>  <oscillator_strength_4> 
0.0786 
 
>  <open_babel_can_smiles> 
CC/C=C/CC/C=C/C=O 
 
>  <mulliken_charges> 
24 
1   -0.440296 
2   -0.298339 
3   -0.086043 
4   -0.1029 
5   -0.303953 
6   -0.321664 
7   -0.072126 
8   -0.153902 
9   0.229621 
10   -0.417705 
11   0.146241 
12   0.151103 
13   0.145659 
14   0.139919 
15   0.144785 
16   0.120387 
17   0.117847 
18   0.149823 
19   0.15031 
20   0.152018 
21   0.158094 
22   0.150072 
23   0.145132 
24   0.095913 
 
>  <lowdin_charges> 
24 
1   -0.442624 
2   -0.26813 
3   -0.160822 
4   -0.176715 
5   -0.266928 
6   -0.271451 
7   -0.104995 
8   -0.205332 
9   0.039326 
10   -0.23238 
11   0.152079 
12   0.151827 
13   0.147576 
14   0.144893 
15   0.149763 
16   0.145418 
17   0.143979 
18   0.149947 
19   0.155165 
20   0.154503 
21   0.15684 
22   0.160856 
23   0.165115 
24   0.112088 
 
$$$$ 
 
