PCCDB-ID:  68249 
public computational chemistry database (PCCDB) project, http://pccdb.org 
 
 23 25  0  0  0  0  0  0  0  0999 V2000 
   -3.6219   -0.6915   -0.0238 C   0  0  0  0  0  0  0  0  0  0  0  0 
   -3.6019    0.7150   -0.0164 C   0  0  0  0  0  0  0  0  0  0  0  0 
    3.6275   -0.6411   -0.0354 C   0  0  0  0  0  0  0  0  0  0  0  0 
   -2.4437   -1.4257   -0.0307 C   0  0  0  0  0  0  0  0  0  0  0  0 
   -2.3893    1.3855   -0.0164 C   0  0  0  0  0  0  0  0  0  0  0  0 
    2.4183   -1.4074   -0.0378 C   0  0  0  0  0  0  0  0  0  0  0  0 
    3.6561    0.7233   -0.0300 C   0  0  0  0  0  0  0  0  0  0  0  0 
   -1.2136   -0.7495   -0.0305 C   0  0  0  0  0  0  0  0  0  0  0  0 
   -1.1758    0.6710   -0.0231 C   0  0  0  0  0  0  0  0  0  0  0  0 
    1.2131   -0.7578   -0.0341 C   0  0  0  0  0  0  0  0  0  0  0  0 
    2.4339    1.5112   -0.0277 C   0  0  0  0  0  0  0  0  0  0  0  0 
    1.1401    0.7097   -0.0277 C   0  0  0  0  0  0  0  0  0  0  0  0 
   -0.0082   -1.4081   -0.0370 N   0  0  0  0  0  0  0  0  0  0  0  0 
    0.0144    1.3640   -0.0228 N   0  0  0  0  0  0  0  0  0  0  0  0 
    2.4091    2.7401   -0.0253 O   0  0  0  0  0  0  0  0  0  0  0  0 
   -4.5726   -1.2171   -0.0240 H   0  0  0  0  0  0  0  0  0  0  0  0 
   -4.5346    1.2700   -0.0110 H   0  0  0  0  0  0  0  0  0  0  0  0 
    4.5661   -1.1912   -0.0376 H   0  0  0  0  0  0  0  0  0  0  0  0 
   -2.4657   -2.5129   -0.0367 H   0  0  0  0  0  0  0  0  0  0  0  0 
   -2.3300    2.4690   -0.0111 H   0  0  0  0  0  0  0  0  0  0  0  0 
    2.4633   -2.4933   -0.0431 H   0  0  0  0  0  0  0  0  0  0  0  0 
    4.5904    1.2749   -0.0280 H   0  0  0  0  0  0  0  0  0  0  0  0 
   -0.0100   -2.4210   -0.0442 H   0  0  0  0  0  0  0  0  0  0  0  0 
  1  2  2  0  0  0  0 
  2 17  1  0  0  0  0 
  3  7  2  0  0  0  0 
  4  8  2  0  0  0  0 
  4  1  1  0  0  0  0 
  5  2  1  0  0  0  0 
  5 20  1  0  0  0  0 
  6  3  1  0  0  0  0 
  6 10  2  0  0  0  0 
  7 22  1  0  0  0  0 
  7 11  1  0  0  0  0 
  8  9  1  0  0  0  0 
  9 14  1  0  0  0  0 
  9  5  2  0  0  0  0 
 10 12  1  0  0  0  0 
 11 12  1  0  0  0  0 
 11 15  2  0  0  0  0 
 12 14  2  0  0  0  0 
 13 10  1  0  0  0  0 
 13  8  1  0  0  0  0 
 16  1  1  0  0  0  0 
 18  3  1  0  0  0  0 
 19  4  1  0  0  0  0 
 21  6  1  0  0  0  0 
 23 13  1  0  0  0  0 
M  END 
>  <HBA> 
2 
 
>  <HBD> 
1 
 
>  <TPSA> 
45.75 
 
>  <cid> 
68249 
 
>  <dipole> 
7.35 
 
>  <excitation_energy_1> 
2.03 
 
>  <excitation_energy_2> 
2.365 
 
>  <excitation_energy_3> 
3.483 
 
>  <excitation_energy_4> 
3.698 
 
>  <homo_energy> 
-5.197 
 
>  <homo_lumo_gap> 
2.525 
 
>  <logP> 
2.076 
 
>  <lumo_energy> 
-2.672 
 
>  <melting_point> 
191.21 
 
>  <molecular_refractivity> 
59.87 
 
>  <oscillator_strength_1> 
0.0964 
 
>  <oscillator_strength_2> 
0.0001 
 
>  <oscillator_strength_3> 
0.0009 
 
>  <oscillator_strength_4> 
0.0051 
 
>  <open_babel_can_smiles> 
O=c1cccc2c1nc1ccccc1[nH]2 
 
>  <mulliken_charges> 
23 
1   -0.127878 
2   -0.139775 
3   -0.117997 
4   -0.190623 
5   -0.154234 
6   -0.241587 
7   -0.202809 
8   0.397073 
9   0.24818 
10   0.41686 
11   0.414109 
12   0.170915 
13   -0.800262 
14   -0.502025 
15   -0.490706 
16   0.145061 
17   0.143239 
18   0.137506 
19   0.13571 
20   0.166049 
21   0.120055 
22   0.137332 
23   0.335806 
 
>  <lowdin_charges> 
23 
1   -0.128159 
2   -0.17004 
3   -0.117695 
4   -0.192892 
5   -0.127428 
6   -0.247658 
7   -0.224285 
8   0.05775 
9   0.010019 
10   0.044777 
11   0.119041 
12   0.022171 
13   -0.169159 
14   -0.071786 
15   -0.251319 
16   0.166354 
17   0.166486 
18   0.162598 
19   0.158703 
20   0.178301 
21   0.152874 
22   0.168708 
23   0.292638 
 
$$$$ 
 
