PCCDB-ID:  53590 
public computational chemistry database (PCCDB) project, http://pccdb.org 
 
 19 19  0  0  0  0  0  0  0  0999 V2000 
   -0.6849    1.1917    0.4315 C   0  0  0  0  0  0  0  0  0  0  0  0 
    1.3795    0.1297   -0.2621 C   0  0  0  0  0  0  0  0  0  0  0  0 
   -1.3417   -0.0275    0.3263 C   0  0  0  0  0  0  0  0  0  0  0  0 
    0.7176   -1.0848   -0.3667 C   0  0  0  0  0  0  0  0  0  0  0  0 
    0.6878    1.2904    0.1388 C   0  0  0  0  0  0  0  0  0  0  0  0 
   -0.6521   -1.1825   -0.0714 C   0  0  0  0  0  0  0  0  0  0  0  0 
    1.3383    2.5158    0.1919 N   0  0  0  0  0  0  0  0  0  0  0  0 
   -1.3007   -3.3292   -1.7045 O   0  0  0  0  0  0  0  0  0  0  0  0 
   -0.6257   -3.7280    0.6614 O   0  0  0  0  0  0  0  0  0  0  0  0 
   -3.0003   -2.6307    0.1369 O   0  0  0  0  0  0  0  0  0  0  0  0 
   -1.5570   -2.7179   -0.2045 P   0  0  0  0  0  0  0  0  0  0  0  0 
   -1.2322    2.0794    0.7402 H   0  0  0  0  0  0  0  0  0  0  0  0 
    2.4403    0.1927   -0.4937 H   0  0  0  0  0  0  0  0  0  0  0  0 
   -2.3995   -0.0984    0.5605 H   0  0  0  0  0  0  0  0  0  0  0  0 
    1.2718   -1.9678   -0.6711 H   0  0  0  0  0  0  0  0  0  0  0  0 
    0.9069    3.2231    0.7724 H   0  0  0  0  0  0  0  0  0  0  0  0 
    2.3431    2.4820    0.3046 H   0  0  0  0  0  0  0  0  0  0  0  0 
   -2.0906   -3.1685   -2.2474 H   0  0  0  0  0  0  0  0  0  0  0  0 
   -0.9395   -4.6450    0.5806 H   0  0  0  0  0  0  0  0  0  0  0  0 
  1 12  1  0  0  0  0 
  2  5  1  0  0  0  0 
  3  1  1  0  0  0  0 
  3 14  1  0  0  0  0 
  4  2  2  0  0  0  0 
  4  6  1  0  0  0  0 
  5  7  1  0  0  0  0 
  5  1  2  0  0  0  0 
  6  3  2  0  0  0  0 
  7 17  1  0  0  0  0 
  7 16  1  0  0  0  0 
  8 11  1  0  0  0  0 
 11  6  1  0  0  0  0 
 11 10  2  0  0  0  0 
 11  9  1  0  0  0  0 
 13  2  1  0  0  0  0 
 15  4  1  0  0  0  0 
 18  8  1  0  0  0  0 
 19  9  1  0  0  0  0 
M  END 
>  <HBA> 
4 
 
>  <HBD> 
3 
 
>  <TPSA> 
93.36 
 
>  <cid> 
53590 
 
>  <dipole> 
3.67 
 
>  <excitation_energy_1> 
4.774 
 
>  <excitation_energy_2> 
4.992 
 
>  <excitation_energy_3> 
5.16 
 
>  <excitation_energy_4> 
5.338 
 
>  <homo_energy> 
-5.859 
 
>  <homo_lumo_gap> 
5.535 
 
>  <logP> 
0.653 
 
>  <lumo_energy> 
-0.324 
 
>  <melting_point> 
155.08 
 
>  <molecular_refractivity> 
42.52 
 
>  <oscillator_strength_1> 
0.0205 
 
>  <oscillator_strength_2> 
0.0414 
 
>  <oscillator_strength_3> 
0.2662 
 
>  <oscillator_strength_4> 
0.0218 
 
>  <open_babel_can_smiles> 
Nc1ccc(cc1)P(=O)(O)O 
 
>  <mulliken_charges> 
19 
1   -0.167257 
2   -0.168446 
3   -0.165258 
4   -0.145871 
5   0.325167 
6   -0.103272 
7   -0.788338 
8   -0.662342 
9   -0.649808 
10   -0.55871 
11   0.98481 
12   0.125057 
13   0.124538 
14   0.172172 
15   0.154485 
16   0.327854 
17   0.327381 
18   0.433363 
19   0.434476 
 
>  <lowdin_charges> 
19 
1   -0.202832 
2   -0.197593 
3   -0.119727 
4   -0.118893 
5   0.075925 
6   -0.221659 
7   -0.47488 
8   -0.592999 
9   -0.566028 
10   -0.603941 
11   1.040569 
12   0.157478 
13   0.154769 
14   0.179441 
15   0.172611 
16   0.281738 
17   0.278408 
18   0.379703 
19   0.37791 
 
$$$$ 
 
