PCCDB-ID:  44611 
public computational chemistry database (PCCDB) project, http://pccdb.org 
 
 31 31  0  0  0  0  0  0  0  0999 V2000 
    0.8165    0.5321   -0.3833 C   0  0  0  0  0  0  0  0  0  0  0  0 
    4.6731   -2.7477    0.1328 C   0  0  0  0  0  0  0  0  0  0  0  0 
    6.8890    4.3442   -1.1592 C   0  0  0  0  0  0  0  0  0  0  0  0 
    3.2170    1.2831   -0.3803 C   0  0  0  0  0  0  0  0  0  0  0  0 
    5.0531   -0.2666   -0.0915 C   0  0  0  0  0  0  0  0  0  0  0  0 
    2.2927    0.2379   -0.2989 C   0  0  0  0  0  0  0  0  0  0  0  0 
    4.1577   -1.3370   -0.0355 C   0  0  0  0  0  0  0  0  0  0  0  0 
    4.5787    1.0272   -0.2665 C   0  0  0  0  0  0  0  0  0  0  0  0 
    2.7789   -1.0740   -0.1394 C   0  0  0  0  0  0  0  0  0  0  0  0 
    1.0474   -2.5727   -1.0747 C   0  0  0  0  0  0  0  0  0  0  0  0 
    5.5093    3.1643    0.3420 C   0  0  0  0  0  0  0  0  0  0  0  0 
    6.1285    4.2314    0.0741 N   0  0  0  0  0  0  0  0  0  0  0  0 
    1.8624   -2.1649   -0.0245 N   0  0  0  0  0  0  0  0  0  0  0  0 
    0.9640   -2.0292   -2.1485 O   0  0  0  0  0  0  0  0  0  0  0  0 
    0.2926   -3.6741   -0.7821 O   0  0  0  0  0  0  0  0  0  0  0  0 
    4.7783    3.0276    1.4730 O   0  0  0  0  0  0  0  0  0  0  0  0 
    5.5304    2.0361   -0.4179 O   0  0  0  0  0  0  0  0  0  0  0  0 
    0.6257    1.5997   -0.2415 H   0  0  0  0  0  0  0  0  0  0  0  0 
    0.2604   -0.0205    0.3827 H   0  0  0  0  0  0  0  0  0  0  0  0 
    0.4124    0.2304   -1.3554 H   0  0  0  0  0  0  0  0  0  0  0  0 
    5.7645   -2.7715    0.0730 H   0  0  0  0  0  0  0  0  0  0  0  0 
    4.2793   -3.4162   -0.6421 H   0  0  0  0  0  0  0  0  0  0  0  0 
    4.3981   -3.1786    1.1069 H   0  0  0  0  0  0  0  0  0  0  0  0 
    6.7328    5.3432   -1.5808 H   0  0  0  0  0  0  0  0  0  0  0  0 
    6.6220    3.5963   -1.9162 H   0  0  0  0  0  0  0  0  0  0  0  0 
    7.9618    4.2477   -0.9465 H   0  0  0  0  0  0  0  0  0  0  0  0 
    2.8680    2.3019   -0.5124 H   0  0  0  0  0  0  0  0  0  0  0  0 
    6.1228   -0.4333   -0.0147 H   0  0  0  0  0  0  0  0  0  0  0  0 
    2.1409   -2.8889    0.6260 H   0  0  0  0  0  0  0  0  0  0  0  0 
    0.2827   -3.8409    0.1744 H   0  0  0  0  0  0  0  0  0  0  0  0 
    4.8568    3.8883    1.9212 H   0  0  0  0  0  0  0  0  0  0  0  0 
  1  6  1  0  0  0  0 
  1 18  1  0  0  0  0 
  1 19  1  0  0  0  0 
  2 23  1  0  0  0  0 
  3 26  1  0  0  0  0 
  3 12  1  0  0  0  0 
  4  6  2  0  0  0  0 
  4  8  1  0  0  0  0 
  5  7  1  0  0  0  0 
  5 28  1  0  0  0  0 
  6  9  1  0  0  0  0 
  7  2  1  0  0  0  0 
  8  5  2  0  0  0  0 
  9  7  2  0  0  0  0 
  9 13  1  0  0  0  0 
 10 15  1  0  0  0  0 
 10 13  1  0  0  0  0 
 11 16  1  0  0  0  0 
 12 11  2  0  0  0  0 
 13 29  1  0  0  0  0 
 14 10  2  0  0  0  0 
 15 30  1  0  0  0  0 
 16 31  1  0  0  0  0 
 17  8  1  0  0  0  0 
 17 11  1  0  0  0  0 
 20  1  1  0  0  0  0 
 21  2  1  0  0  0  0 
 22  2  1  0  0  0  0 
 24  3  1  0  0  0  0 
 25  3  1  0  0  0  0 
 27  4  1  0  0  0  0 
M  END 
>  <HBA> 
6 
 
>  <HBD> 
3 
 
>  <TPSA> 
87.66 
 
>  <cid> 
44611 
 
>  <dipole> 
4.53 
 
>  <excitation_energy_1> 
4.974 
 
>  <excitation_energy_2> 
5.02 
 
>  <excitation_energy_3> 
5.395 
 
>  <excitation_energy_4> 
5.59 
 
>  <homo_energy> 
-6.202 
 
>  <homo_lumo_gap> 
5.894 
 
>  <logP> 
2.575 
 
>  <lumo_energy> 
-0.307 
 
>  <melting_point> 
199.39 
 
>  <molecular_refractivity> 
62.53 
 
>  <oscillator_strength_1> 
0.0256 
 
>  <oscillator_strength_2> 
0.0203 
 
>  <oscillator_strength_3> 
0.2029 
 
>  <oscillator_strength_4> 
0.0068 
 
>  <open_babel_can_smiles> 
C/N=C(\Oc1cc(C)c(c(c1)C)NC(=O)O)/O 
 
>  <mulliken_charges> 
31 
1   -0.543036 
2   -0.552701 
3   -0.324137 
4   -0.227488 
5   -0.251097 
6   0.190696 
7   0.174355 
8   0.388363 
9   0.192637 
10   0.741782 
11   0.700203 
12   -0.477631 
13   -0.735701 
14   -0.45955 
15   -0.584946 
16   -0.591589 
17   -0.53969 
18   0.152522 
19   0.154617 
20   0.205064 
21   0.171188 
22   0.175149 
23   0.151897 
24   0.154435 
25   0.154223 
26   0.154527 
27   0.139753 
28   0.138071 
29   0.322072 
30   0.403088 
31   0.422923 
 
>  <lowdin_charges> 
31 
1   -0.445809 
2   -0.444783 
3   -0.352233 
4   -0.17819 
5   -0.181858 
6   0.015798 
7   -0.006587 
8   0.10563 
9   0.022227 
10   0.21212 
11   0.189335 
12   -0.259699 
13   -0.288374 
14   -0.266097 
15   -0.36776 
16   -0.362719 
17   -0.157986 
18   0.155453 
19   0.16025 
20   0.181589 
21   0.164483 
22   0.166496 
23   0.152315 
24   0.151605 
25   0.145617 
26   0.149709 
27   0.167079 
28   0.166195 
29   0.280933 
30   0.353577 
31   0.371683 
 
$$$$ 
 
