PCCDB-ID:  15390 
public computational chemistry database (PCCDB) project, http://pccdb.org 
 
 29 28  0  0  0  0  0  0  0  0999 V2000 
    6.6982    4.8493    0.6709 C   0  0  0  0  0  0  0  0  0  0  0  0 
    2.8626   -1.1744    1.1335 C   0  0  0  0  0  0  0  0  0  0  0  0 
    5.3952    3.2877   -5.6788 C   0  0  0  0  0  0  0  0  0  0  0  0 
    7.8183    4.3306    0.1724 C   0  0  0  0  0  0  0  0  0  0  0  0 
    3.3629   -0.0486    0.6265 C   0  0  0  0  0  0  0  0  0  0  0  0 
    5.3827    2.1344   -5.0123 C   0  0  0  0  0  0  0  0  0  0  0  0 
    7.9229    3.0670   -0.6264 C   0  0  0  0  0  0  0  0  0  0  0  0 
    4.8250    0.1916    0.4189 C   0  0  0  0  0  0  0  0  0  0  0  0 
    5.2208    2.0337   -3.5280 C   0  0  0  0  0  0  0  0  0  0  0  0 
    7.6303    0.0820   -1.1145 O   0  0  0  0  0  0  0  0  0  0  0  0 
    6.6211    2.4690   -0.7854 O   0  0  0  0  0  0  0  0  0  0  0  0 
    5.0329    0.5674   -0.9706 O   0  0  0  0  0  0  0  0  0  0  0  0 
    6.3034    1.2128   -3.0114 O   0  0  0  0  0  0  0  0  0  0  0  0 
    6.5123    0.9882   -1.4398 P   0  0  0  0  0  0  0  0  0  0  0  0 
    6.7115    5.7727    1.2423 H   0  0  0  0  0  0  0  0  0  0  0  0 
    5.7365    4.3686    0.5233 H   0  0  0  0  0  0  0  0  0  0  0  0 
    1.7972   -1.2994    1.3050 H   0  0  0  0  0  0  0  0  0  0  0  0 
    3.5004   -2.0143    1.4006 H   0  0  0  0  0  0  0  0  0  0  0  0 
    5.4739    3.3203   -6.7618 H   0  0  0  0  0  0  0  0  0  0  0  0 
    5.3201    4.2454   -5.1677 H   0  0  0  0  0  0  0  0  0  0  0  0 
    8.7742    4.8305    0.3292 H   0  0  0  0  0  0  0  0  0  0  0  0 
    2.7064    0.7779    0.3575 H   0  0  0  0  0  0  0  0  0  0  0  0 
    5.4664    1.1861   -5.5411 H   0  0  0  0  0  0  0  0  0  0  0  0 
    8.5923    2.3479   -0.1383 H   0  0  0  0  0  0  0  0  0  0  0  0 
    8.3459    3.2796   -1.6190 H   0  0  0  0  0  0  0  0  0  0  0  0 
    5.4164   -0.7023    0.6395 H   0  0  0  0  0  0  0  0  0  0  0  0 
    5.1801    1.0155    1.0512 H   0  0  0  0  0  0  0  0  0  0  0  0 
    4.2754    1.5458   -3.2637 H   0  0  0  0  0  0  0  0  0  0  0  0 
    5.2511    3.0210   -3.0551 H   0  0  0  0  0  0  0  0  0  0  0  0 
  1 15  1  0  0  0  0 
  2 17  1  0  0  0  0 
  2 18  1  0  0  0  0 
  3 20  1  0  0  0  0 
  3  6  2  0  0  0  0 
  4 21  1  0  0  0  0 
  4  1  2  0  0  0  0 
  5  2  2  0  0  0  0 
  6  9  1  0  0  0  0 
  7 24  1  0  0  0  0 
  7  4  1  0  0  0  0 
  8  5  1  0  0  0  0 
  8 26  1  0  0  0  0 
  8 27  1  0  0  0  0 
  9 28  1  0  0  0  0 
  9 29  1  0  0  0  0 
  9 13  1  0  0  0  0 
 11  7  1  0  0  0  0 
 12  8  1  0  0  0  0 
 13 14  1  0  0  0  0 
 14 10  2  0  0  0  0 
 14 12  1  0  0  0  0 
 14 11  1  0  0  0  0 
 16  1  1  0  0  0  0 
 19  3  1  0  0  0  0 
 22  5  1  0  0  0  0 
 23  6  1  0  0  0  0 
 25  7  1  0  0  0  0 
M  END 
>  <HBA> 
4 
 
>  <HBD> 
0 
 
>  <TPSA> 
54.57 
 
>  <cid> 
15390 
 
>  <dipole> 
3.51 
 
>  <excitation_energy_1> 
6.282 
 
>  <excitation_energy_2> 
6.513 
 
>  <excitation_energy_3> 
6.601 
 
>  <excitation_energy_4> 
6.646 
 
>  <homo_energy> 
-7.127 
 
>  <homo_lumo_gap> 
7.004 
 
>  <logP> 
2.702 
 
>  <lumo_energy> 
-0.122 
 
>  <melting_point> 
-99.42 
 
>  <molecular_refractivity> 
55.87 
 
>  <oscillator_strength_1> 
0.0038 
 
>  <oscillator_strength_2> 
0.007 
 
>  <oscillator_strength_3> 
0.015 
 
>  <oscillator_strength_4> 
0.0584 
 
>  <open_babel_can_smiles> 
C=CCOP(=O)(OCC=C)OCC=C 
 
>  <mulliken_charges> 
29 
1   -0.32178 
2   -0.33048 
3   -0.333707 
4   -0.097602 
5   -0.054497 
6   -0.053066 
7   -0.069687 
8   -0.090415 
9   -0.093439 
10   -0.554096 
11   -0.558822 
12   -0.537671 
13   -0.510918 
14   1.242203 
15   0.142378 
16   0.155777 
17   0.151228 
18   0.150291 
19   0.151877 
20   0.144524 
21   0.137374 
22   0.144101 
23   0.152521 
24   0.18605 
25   0.164557 
26   0.178266 
27   0.167988 
28   0.174492 
29   0.162552 
 
>  <lowdin_charges> 
29 
1   -0.333139 
2   -0.315384 
3   -0.318668 
4   -0.163068 
5   -0.15416 
6   -0.150038 
7   -0.11856 
8   -0.115304 
9   -0.115865 
10   -0.577597 
11   -0.404838 
12   -0.398359 
13   -0.386407 
14   1.123433 
15   0.161558 
16   0.16519 
17   0.163244 
18   0.162282 
19   0.163161 
20   0.158276 
21   0.159479 
22   0.160762 
23   0.164453 
24   0.171503 
25   0.156624 
26   0.164655 
27   0.159801 
28   0.161889 
29   0.155079 
 
$$$$ 
 
