PCCDB-ID:  33483 
public computational chemistry database (PCCDB) project, http://pccdb.org 
 
 28 28  0  0  0  0  0  0  0  0999 V2000 
    1.6107   -0.8576    0.5082 C   0  0  0  0  0  0  0  0  0  0  0  0 
    3.0184   -0.4632    0.0972 C   0  0  0  0  0  0  0  0  0  0  0  0 
    7.0564   -0.4138   -1.2167 C   0  0  0  0  0  0  0  0  0  0  0  0 
    6.9196   -2.7976   -1.5004 C   0  0  0  0  0  0  0  0  0  0  0  0 
    9.0695   -1.6961   -2.0436 C   0  0  0  0  0  0  0  0  0  0  0  0 
    5.7355   -0.3821   -0.7798 C   0  0  0  0  0  0  0  0  0  0  0  0 
    5.6035   -2.7840   -1.0670 C   0  0  0  0  0  0  0  0  0  0  0  0 
    9.9789   -0.6984   -2.0982 C   0  0  0  0  0  0  0  0  0  0  0  0 
    7.6851   -1.6160   -1.5843 C   0  0  0  0  0  0  0  0  0  0  0  0 
    4.9967   -1.5730   -0.7002 C   0  0  0  0  0  0  0  0  0  0  0  0 
   11.3317   -0.8752   -2.6126 C   0  0  0  0  0  0  0  0  0  0  0  0 
   12.3296   -0.0771   -2.4449 N   0  0  0  0  0  0  0  0  0  0  0  0 
   11.6274   -1.9952   -3.3448 O   0  0  0  0  0  0  0  0  0  0  0  0 
   11.9882    0.9817   -1.5722 O   0  0  0  0  0  0  0  0  0  0  0  0 
    3.7029   -1.6572   -0.2893 O   0  0  0  0  0  0  0  0  0  0  0  0 
    1.0461    0.0298    0.8137 H   0  0  0  0  0  0  0  0  0  0  0  0 
    1.6368   -1.5594    1.3475 H   0  0  0  0  0  0  0  0  0  0  0  0 
    1.0853   -1.3348   -0.3247 H   0  0  0  0  0  0  0  0  0  0  0  0 
    3.5515    0.0166    0.9299 H   0  0  0  0  0  0  0  0  0  0  0  0 
    2.9994    0.2420   -0.7456 H   0  0  0  0  0  0  0  0  0  0  0  0 
    7.6047    0.5219   -1.2748 H   0  0  0  0  0  0  0  0  0  0  0  0 
    7.3759   -3.7448   -1.7788 H   0  0  0  0  0  0  0  0  0  0  0  0 
    9.3866   -2.6951   -2.3445 H   0  0  0  0  0  0  0  0  0  0  0  0 
    5.2900    0.5676   -0.5073 H   0  0  0  0  0  0  0  0  0  0  0  0 
    5.0206   -3.6974   -1.0023 H   0  0  0  0  0  0  0  0  0  0  0  0 
    9.7514    0.2997   -1.7410 H   0  0  0  0  0  0  0  0  0  0  0  0 
   10.8316   -2.2380   -3.8447 H   0  0  0  0  0  0  0  0  0  0  0  0 
   12.8009    1.5090   -1.5870 H   0  0  0  0  0  0  0  0  0  0  0  0 
  1 16  1  0  0  0  0 
  1 17  1  0  0  0  0 
  2  1  1  0  0  0  0 
  2 19  1  0  0  0  0 
  3  6  2  0  0  0  0 
  4  7  1  0  0  0  0 
  5  9  1  0  0  0  0 
  6 10  1  0  0  0  0 
  6 24  1  0  0  0  0 
  7 25  1  0  0  0  0 
  7 10  2  0  0  0  0 
  8  5  2  0  0  0  0 
  8 26  1  0  0  0  0 
  9  4  2  0  0  0  0 
  9  3  1  0  0  0  0 
 10 15  1  0  0  0  0 
 11 12  2  0  0  0  0 
 11  8  1  0  0  0  0 
 12 14  1  0  0  0  0 
 13 11  1  0  0  0  0 
 15  2  1  0  0  0  0 
 18  1  1  0  0  0  0 
 20  2  1  0  0  0  0 
 21  3  1  0  0  0  0 
 22  4  1  0  0  0  0 
 23  5  1  0  0  0  0 
 27 13  1  0  0  0  0 
 28 14  1  0  0  0  0 
M  END 
>  <HBA> 
4 
 
>  <HBD> 
2 
 
>  <TPSA> 
58.56 
 
>  <cid> 
33483 
 
>  <dipole> 
4.56 
 
>  <excitation_energy_1> 
3.831 
 
>  <excitation_energy_2> 
4.419 
 
>  <excitation_energy_3> 
4.471 
 
>  <excitation_energy_4> 
4.916 
 
>  <homo_energy> 
-5.494 
 
>  <homo_lumo_gap> 
4.044 
 
>  <logP> 
1.995 
 
>  <lumo_energy> 
-1.45 
 
>  <melting_point> 
134.1 
 
>  <molecular_refractivity> 
56.37 
 
>  <oscillator_strength_1> 
0.7145 
 
>  <oscillator_strength_2> 
0.0802 
 
>  <oscillator_strength_3> 
0.0266 
 
>  <oscillator_strength_4> 
0.005 
 
>  <open_babel_can_smiles> 
CCOc1ccc(cc1)/C=C/C(=N\O)/O 
 
>  <mulliken_charges> 
28 
1   -0.45747 
2   -0.033196 
3   -0.188821 
4   -0.196781 
5   -0.199997 
6   -0.195027 
7   -0.177817 
8   -0.160848 
9   0.17466 
10   0.386416 
11   0.487407 
12   -0.249521 
13   -0.603228 
14   -0.517872 
15   -0.513738 
16   0.151345 
17   0.165996 
18   0.165522 
19   0.145203 
20   0.144397 
21   0.138867 
22   0.133398 
23   0.129361 
24   0.138568 
25   0.142103 
26   0.166754 
27   0.404812 
28   0.419508 
 
>  <lowdin_charges> 
28 
1   -0.449009 
2   -0.125661 
3   -0.138014 
4   -0.145526 
5   -0.142877 
6   -0.209179 
7   -0.182559 
8   -0.200951 
9   -0.025688 
10   0.110716 
11   0.095287 
12   -0.091541 
13   -0.375825 
14   -0.388068 
15   -0.196071 
16   0.159387 
17   0.16176 
18   0.162075 
19   0.141703 
20   0.140867 
21   0.162614 
22   0.15952 
23   0.153296 
24   0.165195 
25   0.169346 
26   0.17545 
27   0.35671 
28   0.357041 
 
$$$$ 
 
