PCCDB-ID:  23143 
public computational chemistry database (PCCDB) project, http://pccdb.org 
 
 27 28  0  0  0  0  0  0  0  0999 V2000 
    1.2015   -0.1577    0.1162 C   0  0  0  0  0  0  0  0  0  0  0  0 
    1.6507    6.9141    0.8858 C   0  0  0  0  0  0  0  0  0  0  0  0 
    0.8477    5.7731    0.7583 C   0  0  0  0  0  0  0  0  0  0  0  0 
    3.0411    6.7966    0.8478 C   0  0  0  0  0  0  0  0  0  0  0  0 
    4.7453   -1.5436   -0.2059 C   0  0  0  0  0  0  0  0  0  0  0  0 
    5.5243   -0.3852   -0.1172 C   0  0  0  0  0  0  0  0  0  0  0  0 
    3.3554   -1.4578   -0.1301 C   0  0  0  0  0  0  0  0  0  0  0  0 
    1.4255    4.5199    0.5937 C   0  0  0  0  0  0  0  0  0  0  0  0 
    3.6268    5.5426    0.6827 C   0  0  0  0  0  0  0  0  0  0  0  0 
    4.9070    0.8476    0.0473 C   0  0  0  0  0  0  0  0  0  0  0  0 
    2.7078   -0.2282    0.0354 C   0  0  0  0  0  0  0  0  0  0  0  0 
    2.8259    4.3996    0.5555 C   0  0  0  0  0  0  0  0  0  0  0  0 
    3.5062    0.9342    0.1250 C   0  0  0  0  0  0  0  0  0  0  0  0 
    3.5319    3.1804    0.3938 N   0  0  0  0  0  0  0  0  0  0  0  0 
    2.8049    2.1550    0.2895 N   0  0  0  0  0  0  0  0  0  0  0  0 
    0.7633   -1.1531   -0.0078 H   0  0  0  0  0  0  0  0  0  0  0  0 
    0.7879    0.4986   -0.6564 H   0  0  0  0  0  0  0  0  0  0  0  0 
    0.8695    0.2441    1.0797 H   0  0  0  0  0  0  0  0  0  0  0  0 
    1.1899    7.8900    1.0137 H   0  0  0  0  0  0  0  0  0  0  0  0 
   -0.2347    5.8680    0.7880 H   0  0  0  0  0  0  0  0  0  0  0  0 
    3.6671    7.6790    0.9473 H   0  0  0  0  0  0  0  0  0  0  0  0 
    5.2204   -2.5125   -0.3357 H   0  0  0  0  0  0  0  0  0  0  0  0 
    6.6076   -0.4478   -0.1771 H   0  0  0  0  0  0  0  0  0  0  0  0 
    2.7561   -2.3622   -0.2017 H   0  0  0  0  0  0  0  0  0  0  0  0 
    0.8205    3.6258    0.4950 H   0  0  0  0  0  0  0  0  0  0  0  0 
    4.7051    5.4194    0.6492 H   0  0  0  0  0  0  0  0  0  0  0  0 
    5.4829    1.7635    0.1183 H   0  0  0  0  0  0  0  0  0  0  0  0 
  1 18  1  0  0  0  0 
  2 19  1  0  0  0  0 
  3 20  1  0  0  0  0 
  3  2  2  0  0  0  0 
  4  2  1  0  0  0  0 
  4 21  1  0  0  0  0 
  5  7  2  0  0  0  0 
  5  6  1  0  0  0  0 
  6 10  2  0  0  0  0 
  7 11  1  0  0  0  0 
  8  3  1  0  0  0  0 
  9  4  2  0  0  0  0 
 10 27  1  0  0  0  0 
 10 13  1  0  0  0  0 
 11  1  1  0  0  0  0 
 11 13  2  0  0  0  0 
 12  8  2  0  0  0  0 
 12  9  1  0  0  0  0 
 13 15  1  0  0  0  0 
 14 12  1  0  0  0  0 
 15 14  1  0  0  0  0 
 16  1  1  0  0  0  0 
 17  1  1  0  0  0  0 
 22  5  1  0  0  0  0 
 23  6  1  0  0  0  0 
 24  7  1  0  0  0  0 
 25  8  1  0  0  0  0 
 26  9  1  0  0  0  0 
M  RAD  2  14   2  15   2 
M  END 
>  <HBA> 
2 
 
>  <HBD> 
0 
 
>  <TPSA> 
24.72 
 
>  <cid> 
23143 
 
>  <dipole> 
0.35 
 
>  <excitation_energy_1> 
2.521 
 
>  <excitation_energy_2> 
3.534 
 
>  <excitation_energy_3> 
3.78 
 
>  <excitation_energy_4> 
4.021 
 
>  <homo_energy> 
-6.049 
 
>  <homo_lumo_gap> 
3.872 
 
>  <logP> 
4.41 
 
>  <lumo_energy> 
-2.177 
 
>  <melting_point> 
65.65 
 
>  <molecular_refractivity> 
62.03 
 
>  <oscillator_strength_1> 
0.0001 
 
>  <oscillator_strength_2> 
0.7093 
 
>  <oscillator_strength_3> 
0.0352 
 
>  <oscillator_strength_4> 
0.0239 
 
>  <open_babel_can_smiles> 
Cc1ccccc1[N][N]c1ccccc1 
 
>  <mulliken_charges> 
27 
1   -0.515463 
2   -0.117932 
3   -0.145957 
4   -0.138719 
5   -0.110841 
6   -0.149919 
7   -0.197315 
8   -0.125595 
9   -0.1401 
10   -0.122591 
11   0.158263 
12   0.270115 
13   0.216928 
14   -0.306691 
15   -0.310983 
16   0.146259 
17   0.171272 
18   0.170248 
19   0.134305 
20   0.135463 
21   0.135299 
22   0.132407 
23   0.133441 
24   0.126528 
25   0.154376 
26   0.14155 
27   0.15565 
 
>  <lowdin_charges> 
27 
1   -0.441168 
2   -0.146526 
3   -0.150551 
4   -0.157658 
5   -0.143846 
6   -0.157111 
7   -0.17034 
8   -0.152322 
9   -0.14401 
10   -0.148355 
11   0.012174 
12   0.012376 
13   -0.000173 
14   -0.081056 
15   -0.082689 
16   0.152122 
17   0.168123 
18   0.166597 
19   0.159856 
20   0.157749 
21   0.161296 
22   0.159375 
23   0.157036 
24   0.157134 
25   0.17308 
26   0.165303 
27   0.173582 
 
$$$$ 
 
