PCCDB-ID:  70289 
public computational chemistry database (PCCDB) project, http://pccdb.org 
 
 25 25  0  0  0  0  0  0  0  0999 V2000 
    1.1522   -0.2646    0.2524 C   0  0  0  0  0  0  0  0  0  0  0  0 
    3.0009    0.4536   -1.2895 C   0  0  0  0  0  0  0  0  0  0  0  0 
    4.6653   -1.3611    0.3081 C   0  0  0  0  0  0  0  0  0  0  0  0 
    3.7030    2.8693    3.2609 C   0  0  0  0  0  0  0  0  0  0  0  0 
    3.5162    1.5174    3.5586 C   0  0  0  0  0  0  0  0  0  0  0  0 
    3.5756    3.3025    1.9420 C   0  0  0  0  0  0  0  0  0  0  0  0 
    3.2011    0.6131    2.5458 C   0  0  0  0  0  0  0  0  0  0  0  0 
    3.2646    2.3925    0.9281 C   0  0  0  0  0  0  0  0  0  0  0  0 
    3.0700    1.0353    1.2138 C   0  0  0  0  0  0  0  0  0  0  0  0 
    2.6620    0.0090    0.1436 C   0  0  0  0  0  0  0  0  0  0  0  0 
    3.2560   -1.2721    0.4292 O   0  0  0  0  0  0  0  0  0  0  0  0 
    0.5800    0.6542    0.0890 H   0  0  0  0  0  0  0  0  0  0  0  0 
    0.9091   -0.6519    1.2461 H   0  0  0  0  0  0  0  0  0  0  0  0 
    0.8527   -1.0094   -0.4927 H   0  0  0  0  0  0  0  0  0  0  0  0 
    2.3703    1.2914   -1.6029 H   0  0  0  0  0  0  0  0  0  0  0  0 
    2.8127   -0.3812   -1.9725 H   0  0  0  0  0  0  0  0  0  0  0  0 
    4.0457    0.7615   -1.3971 H   0  0  0  0  0  0  0  0  0  0  0  0 
    4.9429   -2.3463    0.6935 H   0  0  0  0  0  0  0  0  0  0  0  0 
    5.1828   -0.5920    0.8979 H   0  0  0  0  0  0  0  0  0  0  0  0 
    4.9992   -1.2905   -0.7366 H   0  0  0  0  0  0  0  0  0  0  0  0 
    3.9475    3.5763    4.0493 H   0  0  0  0  0  0  0  0  0  0  0  0 
    3.6165    1.1658    4.5824 H   0  0  0  0  0  0  0  0  0  0  0  0 
    3.7210    4.3513    1.6955 H   0  0  0  0  0  0  0  0  0  0  0  0 
    3.0635   -0.4389    2.7764 H   0  0  0  0  0  0  0  0  0  0  0  0 
    3.1741    2.7549   -0.0912 H   0  0  0  0  0  0  0  0  0  0  0  0 
  1 13  1  0  0  0  0 
  2 10  1  0  0  0  0 
  3 11  1  0  0  0  0 
  3 18  1  0  0  0  0 
  3 19  1  0  0  0  0 
  4  5  1  0  0  0  0 
  4 21  1  0  0  0  0 
  5 22  1  0  0  0  0 
  6  4  2  0  0  0  0 
  7 24  1  0  0  0  0 
  7  5  2  0  0  0  0 
  8  9  2  0  0  0  0 
  8  6  1  0  0  0  0 
  9  7  1  0  0  0  0 
 10  1  1  0  0  0  0 
 10 11  1  0  0  0  0 
 10  9  1  0  0  0  0 
 12  1  1  0  0  0  0 
 14  1  1  0  0  0  0 
 15  2  1  0  0  0  0 
 16  2  1  0  0  0  0 
 17  2  1  0  0  0  0 
 20  3  1  0  0  0  0 
 23  6  1  0  0  0  0 
 25  8  1  0  0  0  0 
M  END 
>  <HBA> 
1 
 
>  <HBD> 
0 
 
>  <TPSA> 
9.23 
 
>  <cid> 
70289 
 
>  <dipole> 
1.04 
 
>  <excitation_energy_1> 
5.302 
 
>  <excitation_energy_2> 
5.784 
 
>  <excitation_energy_3> 
5.96 
 
>  <excitation_energy_4> 
5.99 
 
>  <homo_energy> 
-6.501 
 
>  <homo_lumo_gap> 
6.517 
 
>  <logP> 
2.568 
 
>  <lumo_energy> 
0.016 
 
>  <melting_point> 
3.15 
 
>  <molecular_refractivity> 
46.8 
 
>  <oscillator_strength_1> 
0.0001 
 
>  <oscillator_strength_2> 
0.0251 
 
>  <oscillator_strength_3> 
0.01 
 
>  <oscillator_strength_4> 
0.0028 
 
>  <open_babel_can_smiles> 
COC(c1ccccc1)(C)C 
 
>  <mulliken_charges> 
25 
1   -0.439424 
2   -0.484824 
3   -0.205096 
4   -0.128512 
5   -0.130082 
6   -0.132876 
7   -0.179334 
8   -0.18704 
9   0.128999 
10   0.262169 
11   -0.490623 
12   0.143195 
13   0.156365 
14   0.149464 
15   0.149347 
16   0.156978 
17   0.151955 
18   0.153939 
19   0.141598 
20   0.132905 
21   0.127393 
22   0.128183 
23   0.127138 
24   0.143989 
25   0.124194 
 
>  <lowdin_charges> 
25 
1   -0.44012 
2   -0.458146 
3   -0.286198 
4   -0.161276 
5   -0.155044 
6   -0.155266 
7   -0.159172 
8   -0.170477 
9   -0.018463 
10   0.128752 
11   -0.27443 
12   0.153167 
13   0.158263 
14   0.155133 
15   0.156734 
16   0.160225 
17   0.152595 
18   0.153365 
19   0.140348 
20   0.13212 
21   0.157761 
22   0.155726 
23   0.154848 
24   0.163437 
25   0.156118 
 
$$$$ 
 
