PCCDB-ID:  15654 
public computational chemistry database (PCCDB) project, http://pccdb.org 
 
 15 15  0  0  0  0  0  0  0  0999 V2000 
    2.4543   -1.3295    0.6348 C   0  0  0  0  0  0  0  0  0  0  0  0 
    1.3441    2.8374   -0.5834 C   0  0  0  0  0  0  0  0  0  0  0  0 
    2.1483   -0.0780    0.2621 C   0  0  0  0  0  0  0  0  0  0  0  0 
    4.6826    2.8138    0.7869 C   0  0  0  0  0  0  0  0  0  0  0  0 
    2.6488    2.3998    0.0267 C   0  0  0  0  0  0  0  0  0  0  0  0 
    2.9780    1.1068    0.3908 C   0  0  0  0  0  0  0  0  0  0  0  0 
    3.6224    3.3489    0.2577 N   0  0  0  0  0  0  0  0  0  0  0  0 
    4.5990    1.0936    1.0567 S   0  0  0  0  0  0  0  0  0  0  0  0 
    1.7508   -2.1429    0.4897 H   0  0  0  0  0  0  0  0  0  0  0  0 
    3.4062   -1.5862    1.0930 H   0  0  0  0  0  0  0  0  0  0  0  0 
    1.1578    2.3466   -1.5463 H   0  0  0  0  0  0  0  0  0  0  0  0 
    1.3741    3.9161   -0.7511 H   0  0  0  0  0  0  0  0  0  0  0  0 
    0.4921    2.6156    0.0703 H   0  0  0  0  0  0  0  0  0  0  0  0 
    1.1756    0.1071   -0.1912 H   0  0  0  0  0  0  0  0  0  0  0  0 
    5.5734    3.3714    1.0527 H   0  0  0  0  0  0  0  0  0  0  0  0 
  1 10  1  0  0  0  0 
  2  5  1  0  0  0  0 
  2 13  1  0  0  0  0 
  3  6  1  0  0  0  0 
  3  1  2  0  0  0  0 
  4 15  1  0  0  0  0 
  4  8  1  0  0  0  0 
  5  7  1  0  0  0  0 
  5  6  2  0  0  0  0 
  6  8  1  0  0  0  0 
  7  4  2  0  0  0  0 
  9  1  1  0  0  0  0 
 11  2  1  0  0  0  0 
 12  2  1  0  0  0  0 
 14  3  1  0  0  0  0 
M  END 
>  <HBA> 
2 
 
>  <HBD> 
0 
 
>  <TPSA> 
41.13 
 
>  <cid> 
15654 
 
>  <dipole> 
1.12 
 
>  <excitation_energy_1> 
4.377 
 
>  <excitation_energy_2> 
4.85 
 
>  <excitation_energy_3> 
5.193 
 
>  <excitation_energy_4> 
5.246 
 
>  <homo_energy> 
-6.003 
 
>  <homo_lumo_gap> 
4.664 
 
>  <logP> 
2.095 
 
>  <lumo_energy> 
-1.339 
 
>  <melting_point> 
16.02 
 
>  <molecular_refractivity> 
37.17 
 
>  <oscillator_strength_1> 
0.3193 
 
>  <oscillator_strength_2> 
0.0 
 
>  <oscillator_strength_3> 
0.0 
 
>  <oscillator_strength_4> 
0.0312 
 
>  <open_babel_can_smiles> 
Cc1ncsc1C=C 
 
>  <mulliken_charges> 
15 
1   -0.360646 
2   -0.524566 
3   -0.067537 
4   -0.124424 
5   0.272007 
6   -0.181147 
7   -0.390104 
8   0.234777 
9   0.149195 
10   0.153521 
11   0.166104 
12   0.182263 
13   0.166144 
14   0.142624 
15   0.18179 
 
>  <lowdin_charges> 
15 
1   -0.332593 
2   -0.445466 
3   -0.145283 
4   -0.232041 
5   0.015724 
6   -0.176639 
7   -0.156512 
8   0.293431 
9   0.16646 
10   0.162985 
11   0.163386 
12   0.173801 
13   0.164186 
14   0.165038 
15   0.183524 
 
$$$$ 
 
