PCCDB-ID:  71726 
public computational chemistry database (PCCDB) project, http://pccdb.org 
 
 28 30  0  0  1  0  0  0  0  0999 V2000 
    2.5215    1.0626    0.5249 C   0  0  0  0  0  0  0  0  0  0  0  0 
    2.7811   -0.2968    0.3352 C   0  0  0  0  0  0  0  0  0  0  0  0 
    1.2151    1.5329    0.4258 C   0  0  0  0  0  0  0  0  0  0  0  0 
    1.7296   -1.1620    0.0456 C   0  0  0  0  0  0  0  0  0  0  0  0 
   -1.2661    1.2110    0.0852 C   0  0  0  0  0  0  0  0  0  0  0  0 
   -2.2258    0.3057   -0.6919 C   0  0  0  0  0  0  0  0  0  0  0  0 
   -0.6871   -1.6767   -0.4261 C   0  0  0  0  0  0  0  0  0  0  0  0 
    0.1486    0.6703    0.1373 C   0  0  0  0  0  0  0  0  0  0  0  0 
    0.4122   -0.6951   -0.0597 C   0  0  0  0  0  0  0  0  0  0  0  0 
   -3.1660   -2.0541   -0.8196 C   0  0  0  0  0  0  0  0  0  0  0  0 
   -3.5027   -2.0031    1.2544 C   0  0  0  0  0  0  0  0  0  0  0  0 
   -2.1176   -1.1472   -0.1765 C   0  0  2  0  0  0  0  0  0  0  0  0 
   -3.9855   -2.5547    0.0387 N   0  0  0  0  0  0  0  0  0  0  0  0 
   -2.4819   -1.2212    1.2389 N   0  0  0  0  0  0  0  0  0  0  0  0 
   -3.2550   -2.3174   -2.1268 O   0  0  0  0  0  0  0  0  0  0  0  0 
   -4.1585   -2.3386    2.3722 O   0  0  0  0  0  0  0  0  0  0  0  0 
    3.3324    1.7509    0.7479 H   0  0  0  0  0  0  0  0  0  0  0  0 
    3.7951   -0.6798    0.4128 H   0  0  0  0  0  0  0  0  0  0  0  0 
    1.0093    2.5907    0.5778 H   0  0  0  0  0  0  0  0  0  0  0  0 
    1.9289   -2.2220   -0.1008 H   0  0  0  0  0  0  0  0  0  0  0  0 
   -1.6479    1.3093    1.1091 H   0  0  0  0  0  0  0  0  0  0  0  0 
   -1.2681    2.2158   -0.3549 H   0  0  0  0  0  0  0  0  0  0  0  0 
   -1.9827    0.3304   -1.7653 H   0  0  0  0  0  0  0  0  0  0  0  0 
   -3.2562    0.6606   -0.5800 H   0  0  0  0  0  0  0  0  0  0  0  0 
   -0.5608   -2.6130    0.1291 H   0  0  0  0  0  0  0  0  0  0  0  0 
   -0.5860   -1.9386   -1.4927 H   0  0  0  0  0  0  0  0  0  0  0  0 
   -2.5575   -1.8334   -2.5988 H   0  0  0  0  0  0  0  0  0  0  0  0 
   -4.8774   -2.9354    2.1037 H   0  0  0  0  0  0  0  0  0  0  0  0 
  1 17  1  0  0  0  0 
  2 18  1  0  0  0  0 
  2  1  2  0  0  0  0 
  3  1  1  0  0  0  0 
  3 19  1  0  0  0  0 
  4  2  1  0  0  0  0 
  5  8  1  0  0  0  0 
  5 21  1  0  0  0  0 
  6 24  1  0  0  0  0 
  6 12  1  0  0  0  0 
  6  5  1  0  0  0  0 
  7 12  1  0  0  0  0 
  7  9  1  0  0  0  0 
  7 25  1  0  0  0  0 
  8  3  2  0  0  0  0 
  9  4  2  0  0  0  0 
  9  8  1  0  0  0  0 
 10 13  2  0  0  0  0 
 11 16  1  0  0  0  0 
 12 10  1  6  0  0  0 
 12 14  1  0  0  0  0 
 13 11  2  0  0  0  0 
 14 11  2  0  0  0  0 
 15 10  1  0  0  0  0 
 20  4  1  0  0  0  0 
 22  5  1  0  0  0  0 
 23  6  1  0  0  0  0 
 26  7  1  0  0  0  0 
 27 15  1  0  0  0  0 
 28 16  1  0  0  0  0 
M  END 
>  <HBA> 
4 
 
>  <HBD> 
2 
 
>  <TPSA> 
58.2 
 
>  <cid> 
71726 
 
>  <dipole> 
3.13 
 
>  <excitation_energy_1> 
5.016 
 
>  <excitation_energy_2> 
5.092 
 
>  <excitation_energy_3> 
5.203 
 
>  <excitation_energy_4> 
5.257 
 
>  <homo_energy> 
-6.444 
 
>  <homo_lumo_gap> 
5.804 
 
>  <logP> 
1.411 
 
>  <lumo_energy> 
-0.639 
 
>  <melting_point> 
172.99 
 
>  <molecular_refractivity> 
65.63 
 
>  <oscillator_strength_1> 
0.0106 
 
>  <oscillator_strength_2> 
0.0005 
 
>  <oscillator_strength_3> 
0.0083 
 
>  <oscillator_strength_4> 
0.0428 
 
>  <open_babel_can_smiles> 
O[C]1=[N]=C([C@]2(N=1)CCc1c(C2)cccc1)O 
 
>  <mulliken_charges> 
28 
1   -0.126866 
2   -0.130472 
3   -0.189942 
4   -0.188689 
5   -0.338565 
6   -0.269668 
7   -0.339614 
8   0.125743 
9   0.136489 
10   0.542707 
11   0.630525 
12   0.048673 
13   -0.515256 
14   -0.459631 
15   -0.589898 
16   -0.59946 
17   0.128081 
18   0.128117 
19   0.122574 
20   0.121321 
21   0.191972 
22   0.144135 
23   0.118464 
24   0.15642 
25   0.175394 
26   0.125916 
27   0.427633 
28   0.423897 
 
>  <lowdin_charges> 
28 
1   -0.158262 
2   -0.157644 
3   -0.160063 
4   -0.160095 
5   -0.272468 
6   -0.266914 
7   -0.266829 
8   -0.008894 
9   -0.014237 
10   0.143491 
11   0.142899 
12   0.027173 
13   -0.232582 
14   -0.249315 
15   -0.317466 
16   -0.333798 
17   0.158445 
18   0.156705 
19   0.153112 
20   0.152375 
21   0.173038 
22   0.152531 
23   0.132411 
24   0.157277 
25   0.168617 
26   0.138851 
27   0.370227 
28   0.371416 
 
$$$$ 
 
