PCCDB-ID:  56135 
public computational chemistry database (PCCDB) project, http://pccdb.org 
 
 34 34  0  0  0  0  0  0  0  0999 V2000 
    9.5117    2.1602   -2.2076 C   0  0  0  0  0  0  0  0  0  0  0  0 
    6.6121    7.7919   -6.9255 C   0  0  0  0  0  0  0  0  0  0  0  0 
    8.1153    7.4732   -6.9436 C   0  0  0  0  0  0  0  0  0  0  0  0 
    5.9120    7.1269   -5.7300 C   0  0  0  0  0  0  0  0  0  0  0  0 
   10.0365    5.2685   -2.6982 C   0  0  0  0  0  0  0  0  0  0  0  0 
    8.3685    5.9567   -6.9127 C   0  0  0  0  0  0  0  0  0  0  0  0 
    6.1772    5.6119   -5.6942 C   0  0  0  0  0  0  0  0  0  0  0  0 
    9.1665    4.5538   -1.6334 C   0  0  0  0  0  0  0  0  0  0  0  0 
    9.6133    5.0452   -4.1591 C   0  0  0  0  0  0  0  0  0  0  0  0 
    7.6799    5.2682   -5.7066 C   0  0  0  0  0  0  0  0  0  0  0  0 
    9.5652    3.2137   -1.2024 N   0  0  0  0  0  0  0  0  0  0  0  0 
    8.2689    5.5693   -4.3931 N   0  0  0  0  0  0  0  0  0  0  0  0 
    9.7216    1.1963   -1.7291 H   0  0  0  0  0  0  0  0  0  0  0  0 
   10.2118    2.2690   -3.0556 H   0  0  0  0  0  0  0  0  0  0  0  0 
    8.4971    2.1114   -2.6205 H   0  0  0  0  0  0  0  0  0  0  0  0 
    6.1579    7.4236   -7.8577 H   0  0  0  0  0  0  0  0  0  0  0  0 
    6.4514    8.8775   -6.9085 H   0  0  0  0  0  0  0  0  0  0  0  0 
    8.5978    7.9473   -6.0753 H   0  0  0  0  0  0  0  0  0  0  0  0 
    8.5888    7.9142   -7.8297 H   0  0  0  0  0  0  0  0  0  0  0  0 
    4.8314    7.3141   -5.7701 H   0  0  0  0  0  0  0  0  0  0  0  0 
    6.2629    7.5887   -4.7951 H   0  0  0  0  0  0  0  0  0  0  0  0 
   11.0877    4.9682   -2.5790 H   0  0  0  0  0  0  0  0  0  0  0  0 
   10.0135    6.3519   -2.5036 H   0  0  0  0  0  0  0  0  0  0  0  0 
    9.4458    5.7489   -6.9035 H   0  0  0  0  0  0  0  0  0  0  0  0 
    7.9768    5.5102   -7.8385 H   0  0  0  0  0  0  0  0  0  0  0  0 
    5.7073    5.1511   -6.5751 H   0  0  0  0  0  0  0  0  0  0  0  0 
    5.7185    5.1617   -4.8067 H   0  0  0  0  0  0  0  0  0  0  0  0 
    8.1365    4.5004   -2.0059 H   0  0  0  0  0  0  0  0  0  0  0  0 
    9.1406    5.1734   -0.7280 H   0  0  0  0  0  0  0  0  0  0  0  0 
    9.5891    3.9734   -4.3884 H   0  0  0  0  0  0  0  0  0  0  0  0 
   10.3832    5.4850   -4.8209 H   0  0  0  0  0  0  0  0  0  0  0  0 
    7.7784    4.1810   -5.8313 H   0  0  0  0  0  0  0  0  0  0  0  0 
   10.4983    3.2498   -0.7960 H   0  0  0  0  0  0  0  0  0  0  0  0 
    8.2690    6.5750   -4.2304 H   0  0  0  0  0  0  0  0  0  0  0  0 
  1 13  1  0  0  0  0 
  1 11  1  0  0  0  0 
  2 17  1  0  0  0  0 
  2  4  1  0  0  0  0 
  3  2  1  0  0  0  0 
  3  6  1  0  0  0  0 
  3 18  1  0  0  0  0 
  4  7  1  0  0  0  0 
  4 21  1  0  0  0  0 
  5 22  1  0  0  0  0 
  5 23  1  0  0  0  0 
  5  8  1  0  0  0  0 
  6 24  1  0  0  0  0 
  6 10  1  0  0  0  0 
  7 27  1  0  0  0  0 
  8 11  1  0  0  0  0 
  8 29  1  0  0  0  0 
  9  5  1  0  0  0  0 
 10  7  1  0  0  0  0 
 10 12  1  0  0  0  0 
 11 33  1  0  0  0  0 
 12 34  1  0  0  0  0 
 12  9  1  0  0  0  0 
 14  1  1  0  0  0  0 
 15  1  1  0  0  0  0 
 16  2  1  0  0  0  0 
 19  3  1  0  0  0  0 
 20  4  1  0  0  0  0 
 25  6  1  0  0  0  0 
 26  7  1  0  0  0  0 
 28  8  1  0  0  0  0 
 30  9  1  0  0  0  0 
 31  9  1  0  0  0  0 
 32 10  1  0  0  0  0 
M  END 
>  <HBA> 
2 
 
>  <HBD> 
2 
 
>  <TPSA> 
24.06 
 
>  <cid> 
56135 
 
>  <dipole> 
1.87 
 
>  <excitation_energy_1> 
4.986 
 
>  <excitation_energy_2> 
5.191 
 
>  <excitation_energy_3> 
5.239 
 
>  <excitation_energy_4> 
5.466 
 
>  <homo_energy> 
-5.453 
 
>  <homo_lumo_gap> 
7.358 
 
>  <logP> 
2.3 
 
>  <lumo_energy> 
1.905 
 
>  <melting_point> 
47.72 
 
>  <molecular_refractivity> 
53.67 
 
>  <oscillator_strength_1> 
0.0035 
 
>  <oscillator_strength_2> 
0.0042 
 
>  <oscillator_strength_3> 
0.0076 
 
>  <oscillator_strength_4> 
0.0031 
 
>  <open_babel_can_smiles> 
CNCCCNC1CCCCC1 
 
>  <mulliken_charges> 
34 
1   -0.301625 
2   -0.253464 
3   -0.264012 
4   -0.269202 
5   -0.274968 
6   -0.270631 
7   -0.258037 
8   -0.137009 
9   -0.121136 
10   0.040365 
11   -0.533258 
12   -0.560163 
13   0.144189 
14   0.119272 
15   0.152088 
16   0.127867 
17   0.129427 
18   0.119816 
19   0.133141 
20   0.133264 
21   0.127787 
22   0.123272 
23   0.122178 
24   0.133092 
25   0.126233 
26   0.124089 
27   0.142203 
28   0.163509 
29   0.129823 
30   0.141769 
31   0.11209 
32   0.121319 
33   0.285665 
34   0.291046 
 
>  <lowdin_charges> 
34 
1   -0.361473 
2   -0.276557 
3   -0.282821 
4   -0.279348 
5   -0.296252 
6   -0.295691 
7   -0.284488 
8   -0.211658 
9   -0.205056 
10   -0.064558 
11   -0.36134 
12   -0.360791 
13   0.146797 
14   0.118039 
15   0.148884 
16   0.137843 
17   0.140584 
18   0.132897 
19   0.145916 
20   0.143373 
21   0.136055 
22   0.138729 
23   0.136925 
24   0.141351 
25   0.141009 
26   0.140019 
27   0.15129 
28   0.152726 
29   0.14172 
30   0.140165 
31   0.118781 
32   0.136449 
33   0.246232 
34   0.244249 
 
$$$$ 
 
