PCCDB-ID:  27738 
public computational chemistry database (PCCDB) project, http://pccdb.org 
 
 25 25  0  0  0  0  0  0  0  0999 V2000 
    2.2085    1.0152   -2.2729 C   0  0  0  0  0  0  0  0  0  0  0  0 
   -2.4213   -1.2292    1.2943 C   0  0  0  0  0  0  0  0  0  0  0  0 
    2.7042    0.5611   -0.8966 C   0  0  0  0  0  0  0  0  0  0  0  0 
    0.6736    1.0638   -2.2733 C   0  0  0  0  0  0  0  0  0  0  0  0 
   -1.8753    0.0507    0.6627 C   0  0  0  0  0  0  0  0  0  0  0  0 
    0.6120   -0.6939   -0.5720 C   0  0  0  0  0  0  0  0  0  0  0  0 
   -2.3125   -1.1759    2.7533 N   0  0  0  0  0  0  0  0  0  0  0  0 
    2.0615   -0.7167   -0.5566 N   0  0  0  0  0  0  0  0  0  0  0  0 
    0.0612   -0.1943   -1.8151 N   0  0  0  0  0  0  0  0  0  0  0  0 
   -0.0653    0.3012    0.8971 S   0  0  0  0  0  0  0  0  0  0  0  0 
    2.5581    0.3047   -3.0338 H   0  0  0  0  0  0  0  0  0  0  0  0 
    2.6261    1.9995   -2.5192 H   0  0  0  0  0  0  0  0  0  0  0  0 
   -1.9249   -2.1029    0.8316 H   0  0  0  0  0  0  0  0  0  0  0  0 
   -3.4870   -1.3035    1.0367 H   0  0  0  0  0  0  0  0  0  0  0  0 
    2.4989    1.3525   -0.1559 H   0  0  0  0  0  0  0  0  0  0  0  0 
    3.7873    0.3962   -0.9102 H   0  0  0  0  0  0  0  0  0  0  0  0 
    0.2791    1.2827   -3.2714 H   0  0  0  0  0  0  0  0  0  0  0  0 
    0.3290    1.8605   -1.6043 H   0  0  0  0  0  0  0  0  0  0  0  0 
   -2.3626    0.9188    1.1167 H   0  0  0  0  0  0  0  0  0  0  0  0 
   -2.0511    0.0684   -0.4172 H   0  0  0  0  0  0  0  0  0  0  0  0 
    0.2540   -1.7178   -0.4358 H   0  0  0  0  0  0  0  0  0  0  0  0 
   -1.3256   -1.1057    3.0023 H   0  0  0  0  0  0  0  0  0  0  0  0 
   -2.6486   -2.0490    3.1563 H   0  0  0  0  0  0  0  0  0  0  0  0 
    2.4011   -1.0700    0.3354 H   0  0  0  0  0  0  0  0  0  0  0  0 
    0.1985   -0.9154   -2.5229 H   0  0  0  0  0  0  0  0  0  0  0  0 
  1  3  1  0  0  0  0 
  2  7  1  0  0  0  0 
  3  8  1  0  0  0  0 
  3 15  1  0  0  0  0 
  4  1  1  0  0  0  0 
  4  9  1  0  0  0  0 
  4 18  1  0  0  0  0 
  5 10  1  0  0  0  0 
  5 19  1  0  0  0  0 
  5  2  1  0  0  0  0 
  6  8  1  0  0  0  0 
  6 21  1  0  0  0  0 
  6 10  1  0  0  0  0 
  7 22  1  0  0  0  0 
  7 23  1  0  0  0  0 
  8 24  1  0  0  0  0 
  9  6  1  0  0  0  0 
 11  1  1  0  0  0  0 
 12  1  1  0  0  0  0 
 13  2  1  0  0  0  0 
 14  2  1  0  0  0  0 
 16  3  1  0  0  0  0 
 17  4  1  0  0  0  0 
 20  5  1  0  0  0  0 
 25  9  1  0  0  0  0 
M  END 
>  <HBA> 
4 
 
>  <HBD> 
3 
 
>  <TPSA> 
75.38 
 
>  <cid> 
27738 
 
>  <dipole> 
2.57 
 
>  <excitation_energy_1> 
5.046 
 
>  <excitation_energy_2> 
5.238 
 
>  <excitation_energy_3> 
5.527 
 
>  <excitation_energy_4> 
5.555 
 
>  <homo_energy> 
-5.714 
 
>  <homo_lumo_gap> 
6.874 
 
>  <logP> 
0.903 
 
>  <lumo_energy> 
1.159 
 
>  <melting_point> 
113.59 
 
>  <molecular_refractivity> 
52.57 
 
>  <oscillator_strength_1> 
0.0062 
 
>  <oscillator_strength_2> 
0.0028 
 
>  <oscillator_strength_3> 
0.0101 
 
>  <oscillator_strength_4> 
0.0041 
 
>  <open_babel_can_smiles> 
NCCSC1NCCCN1 
 
>  <mulliken_charges> 
25 
1   -0.259856 
2   -0.123467 
3   -0.138095 
4   -0.15926 
5   -0.419618 
6   0.008006 
7   -0.718503 
8   -0.554305 
9   -0.522255 
10   0.012513 
11   0.136136 
12   0.134708 
13   0.113327 
14   0.141779 
15   0.14587 
16   0.141795 
17   0.141748 
18   0.168571 
19   0.180806 
20   0.1913 
21   0.164288 
22   0.309541 
23   0.292918 
24   0.308999 
25   0.303054 
 
>  <lowdin_charges> 
25 
1   -0.295917 
2   -0.205786 
3   -0.204226 
4   -0.212259 
5   -0.380908 
6   -0.096597 
7   -0.560923 
8   -0.363471 
9   -0.350701 
10   0.004896 
11   0.143624 
12   0.148559 
13   0.116626 
14   0.142939 
15   0.135616 
16   0.145712 
17   0.147452 
18   0.157306 
19   0.171919 
20   0.16973 
21   0.151059 
22   0.256384 
23   0.252735 
24   0.264383 
25   0.261849 
 
$$$$ 
 
