PCCDB-ID:  30389 
public computational chemistry database (PCCDB) project, http://pccdb.org 
 
 23 23  0  0  0  0  0  0  0  0999 V2000 
    1.9731   -2.4656   -1.4134 C   0  0  0  0  0  0  0  0  0  0  0  0 
    3.0996   -1.2380   -3.2685 C   0  0  0  0  0  0  0  0  0  0  0  0 
    6.9452   -1.6693   -0.3612 C   0  0  0  0  0  0  0  0  0  0  0  0 
    7.6735   -0.5135   -0.6432 C   0  0  0  0  0  0  0  0  0  0  0  0 
    5.5522   -1.6347   -0.4325 C   0  0  0  0  0  0  0  0  0  0  0  0 
    7.0067    0.6595   -0.9926 C   0  0  0  0  0  0  0  0  0  0  0  0 
    3.3345   -0.4603   -0.8304 C   0  0  0  0  0  0  0  0  0  0  0  0 
    2.7537   -1.4577   -1.8170 C   0  0  0  0  0  0  0  0  0  0  0  0 
    4.8561   -0.4708   -0.7760 C   0  0  0  0  0  0  0  0  0  0  0  0 
    5.6092    0.6815   -1.0602 C   0  0  0  0  0  0  0  0  0  0  0  0 
    4.9264    1.8228   -1.4032 O   0  0  0  0  0  0  0  0  0  0  0  0 
    1.5464   -3.1755   -2.1180 H   0  0  0  0  0  0  0  0  0  0  0  0 
    1.7248   -2.6132   -0.3649 H   0  0  0  0  0  0  0  0  0  0  0  0 
    2.6232   -1.9816   -3.9148 H   0  0  0  0  0  0  0  0  0  0  0  0 
    4.1842   -1.2893   -3.4267 H   0  0  0  0  0  0  0  0  0  0  0  0 
    2.7820   -0.2399   -3.5998 H   0  0  0  0  0  0  0  0  0  0  0  0 
    7.4553   -2.5888   -0.0891 H   0  0  0  0  0  0  0  0  0  0  0  0 
    8.7590   -0.5189   -0.5935 H   0  0  0  0  0  0  0  0  0  0  0  0 
    4.9776   -2.5341   -0.2236 H   0  0  0  0  0  0  0  0  0  0  0  0 
    7.5693    1.5650   -1.2159 H   0  0  0  0  0  0  0  0  0  0  0  0 
    2.9378   -0.6747    0.1700 H   0  0  0  0  0  0  0  0  0  0  0  0 
    2.9987    0.5485   -1.0937 H   0  0  0  0  0  0  0  0  0  0  0  0 
    5.5682    2.5314   -1.5639 H   0  0  0  0  0  0  0  0  0  0  0  0 
  1 13  1  0  0  0  0 
  2  8  1  0  0  0  0 
  3 17  1  0  0  0  0 
  4 18  1  0  0  0  0 
  4  3  2  0  0  0  0 
  5  3  1  0  0  0  0 
  5 19  1  0  0  0  0 
  6  4  1  0  0  0  0 
  7  9  1  0  0  0  0 
  7 21  1  0  0  0  0 
  8  1  2  0  0  0  0 
  8  7  1  0  0  0  0 
  9  5  2  0  0  0  0 
 10  6  2  0  0  0  0 
 10  9  1  0  0  0  0 
 11 10  1  0  0  0  0 
 12  1  1  0  0  0  0 
 14  2  1  0  0  0  0 
 15  2  1  0  0  0  0 
 16  2  1  0  0  0  0 
 20  6  1  0  0  0  0 
 22  7  1  0  0  0  0 
 23 11  1  0  0  0  0 
M  END 
>  <HBA> 
1 
 
>  <HBD> 
1 
 
>  <TPSA> 
20.23 
 
>  <cid> 
30389 
 
>  <dipole> 
1.7 
 
>  <excitation_energy_1> 
4.958 
 
>  <excitation_energy_2> 
5.141 
 
>  <excitation_energy_3> 
5.487 
 
>  <excitation_energy_4> 
5.601 
 
>  <homo_energy> 
-5.902 
 
>  <homo_lumo_gap> 
5.889 
 
>  <logP> 
2.511 
 
>  <lumo_energy> 
-0.014 
 
>  <melting_point> 
28.96 
 
>  <molecular_refractivity> 
47.38 
 
>  <oscillator_strength_1> 
0.052 
 
>  <oscillator_strength_2> 
0.0003 
 
>  <oscillator_strength_3> 
0.0117 
 
>  <oscillator_strength_4> 
0.0211 
 
>  <open_babel_can_smiles> 
CC(=C)Cc1ccccc1O 
 
>  <mulliken_charges> 
23 
1   -0.410466 
2   -0.510344 
3   -0.130664 
4   -0.137074 
5   -0.189914 
6   -0.187951 
7   -0.415144 
8   0.249462 
9   0.134018 
10   0.283912 
11   -0.64836 
12   0.130376 
13   0.129475 
14   0.14891 
15   0.164633 
16   0.153947 
17   0.125283 
18   0.128559 
19   0.132993 
20   0.11456 
21   0.151534 
22   0.17451 
23   0.407746 
 
>  <lowdin_charges> 
23 
1   -0.370973 
2   -0.44166 
3   -0.178263 
4   -0.147222 
5   -0.151386 
6   -0.21434 
7   -0.271985 
8   0.016221 
9   -0.033486 
10   0.092123 
11   -0.386509 
12   0.154433 
13   0.150936 
14   0.156079 
15   0.160294 
16   0.156403 
17   0.157279 
18   0.15568 
19   0.161638 
20   0.151604 
21   0.157217 
22   0.16743 
23   0.358485 
 
$$$$ 
 
