PCCDB-ID:  10402 
public computational chemistry database (PCCDB) project, http://pccdb.org 
 
 30 29  0  0  1  0  0  0  0  0999 V2000 
    2.5068    3.8706    1.4708 C   0  0  0  0  0  0  0  0  0  0  0  0 
    2.2352    1.3554    1.2719 C   0  0  0  0  0  0  0  0  0  0  0  0 
    5.6962   -1.0554   -2.0402 C   0  0  0  0  0  0  0  0  0  0  0  0 
    5.0872    1.3392   -0.0753 C   0  0  0  0  0  0  0  0  0  0  0  0 
    4.3217    2.5267    0.4457 C   0  0  0  0  0  0  0  0  0  0  0  0 
    5.3550    1.4425   -1.5912 C   0  0  0  0  0  0  0  0  0  0  0  0 
    6.6542    0.6513   -3.6340 C   0  0  0  0  0  0  0  0  0  0  0  0 
    3.1076    2.5607    1.0168 C   0  0  0  0  0  0  0  0  0  0  0  0 
    6.2906    0.3554   -2.1578 C   0  0  2  0  0  0  0  0  0  0  0  0 
    7.4903    1.9195   -3.7619 C   0  0  0  0  0  0  0  0  0  0  0  0 
    8.6256    2.0049   -3.3650 O   0  0  0  0  0  0  0  0  0  0  0  0 
    6.8849    3.0042   -4.3236 O   0  0  0  0  0  0  0  0  0  0  0  0 
    2.2906    3.8551    2.5485 H   0  0  0  0  0  0  0  0  0  0  0  0 
    1.5497    4.0643    0.9658 H   0  0  0  0  0  0  0  0  0  0  0  0 
    3.1723    4.7164    1.2713 H   0  0  0  0  0  0  0  0  0  0  0  0 
    2.0309    1.2452    2.3462 H   0  0  0  0  0  0  0  0  0  0  0  0 
    2.6731    0.4188    0.9188 H   0  0  0  0  0  0  0  0  0  0  0  0 
    1.2585    1.4744    0.7825 H   0  0  0  0  0  0  0  0  0  0  0  0 
    5.5088   -1.3275   -0.9967 H   0  0  0  0  0  0  0  0  0  0  0  0 
    6.3765   -1.8061   -2.4587 H   0  0  0  0  0  0  0  0  0  0  0  0 
    4.7433   -1.1283   -2.5808 H   0  0  0  0  0  0  0  0  0  0  0  0 
    4.5653    0.4045    0.1505 H   0  0  0  0  0  0  0  0  0  0  0  0 
    6.0578    1.2840    0.4419 H   0  0  0  0  0  0  0  0  0  0  0  0 
    4.8403    3.4798    0.3224 H   0  0  0  0  0  0  0  0  0  0  0  0 
    5.7871    2.4320   -1.7947 H   0  0  0  0  0  0  0  0  0  0  0  0 
    4.3936    1.4110   -2.1266 H   0  0  0  0  0  0  0  0  0  0  0  0 
    5.7398    0.6971   -4.2423 H   0  0  0  0  0  0  0  0  0  0  0  0 
    7.2651   -0.1689   -4.0262 H   0  0  0  0  0  0  0  0  0  0  0  0 
    7.2335    0.3863   -1.5949 H   0  0  0  0  0  0  0  0  0  0  0  0 
    5.9767    2.7785   -4.5806 H   0  0  0  0  0  0  0  0  0  0  0  0 
  1 13  1  0  0  0  0 
  2 16  1  0  0  0  0 
  3 19  1  0  0  0  0 
  4 22  1  0  0  0  0 
  4 23  1  0  0  0  0 
  4  5  1  0  0  0  0 
  5  8  2  0  0  0  0 
  6  4  1  0  0  0  0 
  7  9  1  0  0  0  0 
  8  2  1  0  0  0  0 
  8  1  1  0  0  0  0 
  9  3  1  0  0  0  0 
  9 29  1  1  0  0  0 
  9  6  1  0  0  0  0 
 10  7  1  0  0  0  0 
 10 11  2  0  0  0  0 
 12 10  1  0  0  0  0 
 14  1  1  0  0  0  0 
 15  1  1  0  0  0  0 
 17  2  1  0  0  0  0 
 18  2  1  0  0  0  0 
 20  3  1  0  0  0  0 
 21  3  1  0  0  0  0 
 24  5  1  0  0  0  0 
 25  6  1  0  0  0  0 
 26  6  1  0  0  0  0 
 27  7  1  0  0  0  0 
 28  7  1  0  0  0  0 
 30 12  1  0  0  0  0 
M  END 
>  <HBA> 
2 
 
>  <HBD> 
1 
 
>  <TPSA> 
37.3 
 
>  <cid> 
10402 
 
>  <dipole> 
4.39 
 
>  <excitation_energy_1> 
5.584 
 
>  <excitation_energy_2> 
5.622 
 
>  <excitation_energy_3> 
5.757 
 
>  <excitation_energy_4> 
5.885 
 
>  <homo_energy> 
-6.313 
 
>  <homo_lumo_gap> 
6.563 
 
>  <logP> 
2.844 
 
>  <lumo_energy> 
0.25 
 
>  <melting_point> 
61.15 
 
>  <molecular_refractivity> 
51.48 
 
>  <oscillator_strength_1> 
0.0134 
 
>  <oscillator_strength_2> 
0.0016 
 
>  <oscillator_strength_3> 
0.0034 
 
>  <oscillator_strength_4> 
0.0109 
 
>  <open_babel_can_smiles> 
C[C@@H](CC(=O)O)CCC=C(C)C 
 
>  <mulliken_charges> 
30 
1   -0.506117 
2   -0.513695 
3   -0.454929 
4   -0.307722 
5   -0.165695 
6   -0.271629 
7   -0.362175 
8   0.187757 
9   -0.075922 
10   0.585842 
11   -0.441897 
12   -0.564134 
13   0.150195 
14   0.148181 
15   0.152887 
16   0.154157 
17   0.152676 
18   0.15107 
19   0.155612 
20   0.147616 
21   0.140104 
22   0.141724 
23   0.14557 
24   0.115188 
25   0.145569 
26   0.125203 
27   0.124446 
28   0.17706 
29   0.155933 
30   0.407124 
 
>  <lowdin_charges> 
30 
1   -0.437623 
2   -0.442593 
3   -0.446437 
4   -0.273798 
5   -0.192178 
6   -0.28064 
7   -0.314671 
8   -0.010181 
9   -0.117445 
10   0.190213 
11   -0.242924 
12   -0.356648 
13   0.151378 
14   0.151809 
15   0.155678 
16   0.154712 
17   0.154214 
18   0.154295 
19   0.153855 
20   0.153177 
21   0.146003 
22   0.145849 
23   0.149827 
24   0.146558 
25   0.146306 
26   0.136621 
27   0.140822 
28   0.175193 
29   0.153043 
30   0.355585 
 
$$$$ 
 
