PCCDB-ID:  47294 
public computational chemistry database (PCCDB) project, http://pccdb.org 
 
 28 29  0  0  1  0  0  0  0  0999 V2000 
    1.0716    0.0734   -0.0462 C   0  0  0  0  0  0  0  0  0  0  0  0 
    2.9923   -0.3486   -1.6400 C   0  0  0  0  0  0  0  0  0  0  0  0 
    3.4145    2.2408    2.4847 C   0  0  0  0  0  0  0  0  0  0  0  0 
    4.6891    0.9221    0.6670 C   0  0  0  0  0  0  0  0  0  0  0  0 
    2.4660   -2.7728    0.1490 C   0  0  0  0  0  0  0  0  0  0  0  0 
    3.6782    1.0044    1.7770 C   0  0  2  0  0  0  0  0  0  0  0  0 
    2.1713   -2.1935    1.4977 C   0  0  1  0  0  0  0  0  0  0  0  0 
    2.8959   -2.6813    2.7266 C   0  0  0  0  0  0  0  0  0  0  0  0 
    2.5715   -0.2265   -0.1696 C   0  0  0  0  0  0  0  0  0  0  0  0 
    3.2088    3.2283    3.0599 N   0  0  0  0  0  0  0  0  0  0  0  0 
    2.3680   -3.1620    3.7764 N   0  0  0  0  0  0  0  0  0  0  0  0 
    3.2725    0.9527    0.3702 N   0  0  0  0  0  0  0  0  0  0  0  0 
    3.0062   -1.4740    0.5245 N   0  0  0  0  0  0  0  0  0  0  0  0 
    4.2430   -2.5914    2.6299 O   0  0  0  0  0  0  0  0  0  0  0  0 
    0.8314    0.9537   -0.6475 H   0  0  0  0  0  0  0  0  0  0  0  0 
    0.7947    0.2950    0.9893 H   0  0  0  0  0  0  0  0  0  0  0  0 
    0.4596   -0.7617   -0.4052 H   0  0  0  0  0  0  0  0  0  0  0  0 
    2.8269    0.6041   -2.1496 H   0  0  0  0  0  0  0  0  0  0  0  0 
    2.4129   -1.1232   -2.1511 H   0  0  0  0  0  0  0  0  0  0  0  0 
    4.0535   -0.6060   -1.7153 H   0  0  0  0  0  0  0  0  0  0  0  0 
    5.2254   -0.0226    0.5940 H   0  0  0  0  0  0  0  0  0  0  0  0 
    5.2487    1.8077    0.3769 H   0  0  0  0  0  0  0  0  0  0  0  0 
    1.6380   -2.8087   -0.5578 H   0  0  0  0  0  0  0  0  0  0  0  0 
    3.1902   -3.5782    0.0437 H   0  0  0  0  0  0  0  0  0  0  0  0 
    3.5852    0.1084    2.3866 H   0  0  0  0  0  0  0  0  0  0  0  0 
    1.1518   -1.8562    1.6657 H   0  0  0  0  0  0  0  0  0  0  0  0 
    1.3500   -3.1660    3.6860 H   0  0  0  0  0  0  0  0  0  0  0  0 
    4.4203   -2.1145    1.7908 H   0  0  0  0  0  0  0  0  0  0  0  0 
  1 16  1  0  0  0  0 
  2  9  1  0  0  0  0 
  3 10  3  0  0  0  0 
  4  6  1  0  0  0  0 
  5 13  1  0  0  0  0 
  5  7  1  0  0  0  0 
  6 25  1  1  0  0  0 
  6  3  1  0  0  0  0 
  7 26  1  1  0  0  0 
  7  8  1  0  0  0  0 
  8 11  2  0  0  0  0 
  9  1  1  0  0  0  0 
  9 12  1  0  0  0  0 
  9 13  1  0  0  0  0 
 12  4  1  0  0  0  0 
 12  6  1  0  0  0  0 
 13  7  1  0  0  0  0 
 14  8  1  0  0  0  0 
 15  1  1  0  0  0  0 
 17  1  1  0  0  0  0 
 18  2  1  0  0  0  0 
 19  2  1  0  0  0  0 
 20  2  1  0  0  0  0 
 21  4  1  0  0  0  0 
 22  4  1  0  0  0  0 
 23  5  1  0  0  0  0 
 24  5  1  0  0  0  0 
 27 11  1  0  0  0  0 
 28 14  1  0  0  0  0 
M  END 
>  <HBA> 
5 
 
>  <HBD> 
1 
 
>  <TPSA> 
72.9 
 
>  <cid> 
47294 
 
>  <dipole> 
7.07 
 
>  <excitation_energy_1> 
5.915 
 
>  <excitation_energy_2> 
6.317 
 
>  <excitation_energy_3> 
6.385 
 
>  <excitation_energy_4> 
6.466 
 
>  <homo_energy> 
-7.195 
 
>  <homo_lumo_gap> 
7.309 
 
>  <logP> 
-0.324 
 
>  <lumo_energy> 
0.114 
 
>  <melting_point> 
114.59 
 
>  <molecular_refractivity> 
57.47 
 
>  <oscillator_strength_1> 
0.0052 
 
>  <oscillator_strength_2> 
0.0106 
 
>  <oscillator_strength_3> 
0.0172 
 
>  <oscillator_strength_4> 
0.013 
 
>  <open_babel_can_smiles> 
N#C[C@@H]1CN1C(N1C[C@H]1C(=N)O)(C)C 
 
>  <mulliken_charges> 
28 
1   -0.461691 
2   -0.447633 
3   0.369645 
4   -0.177206 
5   -0.18891 
6   -0.093731 
7   -0.091187 
8   0.51064 
9   0.314934 
10   -0.468822 
11   -0.591676 
12   -0.364503 
13   -0.464221 
14   -0.60179 
15   0.179717 
16   0.165401 
17   0.145659 
18   0.174141 
19   0.150915 
20   0.160151 
21   0.166792 
22   0.18295 
23   0.168269 
24   0.17991 
25   0.203537 
26   0.167912 
27   0.282663 
28   0.428137 
 
>  <lowdin_charges> 
28 
1   -0.45359 
2   -0.442789 
3   -0.010995 
4   -0.218774 
5   -0.224387 
6   -0.102659 
7   -0.130071 
8   0.113734 
9   0.120823 
10   -0.113284 
11   -0.38874 
12   -0.165216 
13   -0.214257 
14   -0.365247 
15   0.174697 
16   0.160882 
17   0.152356 
18   0.169105 
19   0.157592 
20   0.159245 
21   0.159874 
22   0.174567 
23   0.161044 
24   0.170019 
25   0.183907 
26   0.166785 
27   0.254479 
28   0.3509 
 
$$$$ 
 
