PCCDB-ID:  67786 
public computational chemistry database (PCCDB) project, http://pccdb.org 
 
 26 27  0  0  0  0  0  0  0  0999 V2000 
   -0.6806   -0.8709    0.1296 C   0  0  0  0  0  0  0  0  0  0  0  0 
    0.8505   -1.1222    0.0531 C   0  0  0  0  0  0  0  0  0  0  0  0 
    2.9416    4.3763   -1.7132 C   0  0  0  0  0  0  0  0  0  0  0  0 
    1.9098    3.5794   -1.2260 C   0  0  0  0  0  0  0  0  0  0  0  0 
    3.5425    4.0260   -2.9249 C   0  0  0  0  0  0  0  0  0  0  0  0 
   -0.7888    0.6442    0.4482 C   0  0  0  0  0  0  0  0  0  0  0  0 
    1.4795    0.2880    0.2532 C   0  0  0  0  0  0  0  0  0  0  0  0 
    2.1896    2.2016   -3.1564 C   0  0  0  0  0  0  0  0  0  0  0  0 
    0.3608    1.5815   -1.5056 C   0  0  0  0  0  0  0  0  0  0  0  0 
    1.5076    2.4593   -1.9628 C   0  0  0  0  0  0  0  0  0  0  0  0 
    3.1832    2.9566   -3.6430 N   0  0  0  0  0  0  0  0  0  0  0  0 
    0.4343    1.2768   -0.0701 N   0  0  0  0  0  0  0  0  0  0  0  0 
   -1.1731   -1.4838    0.8913 H   0  0  0  0  0  0  0  0  0  0  0  0 
   -1.1620   -1.1009   -0.8271 H   0  0  0  0  0  0  0  0  0  0  0  0 
    1.1312   -1.5485   -0.9156 H   0  0  0  0  0  0  0  0  0  0  0  0 
    1.1968   -1.8217    0.8206 H   0  0  0  0  0  0  0  0  0  0  0  0 
    3.2794    5.2529   -1.1675 H   0  0  0  0  0  0  0  0  0  0  0  0 
    1.4213    3.7997   -0.2813 H   0  0  0  0  0  0  0  0  0  0  0  0 
    4.3518    4.6288   -3.3348 H   0  0  0  0  0  0  0  0  0  0  0  0 
   -0.8111    0.7954    1.5356 H   0  0  0  0  0  0  0  0  0  0  0  0 
   -1.6804    1.1219    0.0303 H   0  0  0  0  0  0  0  0  0  0  0  0 
    2.3725    0.4614   -0.3530 H   0  0  0  0  0  0  0  0  0  0  0  0 
    1.7633    0.4254    1.3042 H   0  0  0  0  0  0  0  0  0  0  0  0 
    1.9181    1.3321   -3.7561 H   0  0  0  0  0  0  0  0  0  0  0  0 
    0.3181    0.6838   -2.1506 H   0  0  0  0  0  0  0  0  0  0  0  0 
   -0.5831    2.1188   -1.6682 H   0  0  0  0  0  0  0  0  0  0  0  0 
  1  6  1  0  0  0  0 
  1 13  1  0  0  0  0 
  2  1  1  0  0  0  0 
  2  7  1  0  0  0  0 
  2 16  1  0  0  0  0 
  3  4  1  0  0  0  0 
  3 17  1  0  0  0  0 
  4 18  1  0  0  0  0 
  5  3  2  0  0  0  0 
  6 20  1  0  0  0  0 
  7 23  1  0  0  0  0 
  8 10  1  0  0  0  0 
  9 12  1  0  0  0  0 
 10  9  1  0  0  0  0 
 10  4  2  0  0  0  0 
 11  8  2  0  0  0  0 
 11  5  1  0  0  0  0 
 12  7  1  0  0  0  0 
 12  6  1  0  0  0  0 
 14  1  1  0  0  0  0 
 15  2  1  0  0  0  0 
 19  5  1  0  0  0  0 
 21  6  1  0  0  0  0 
 22  7  1  0  0  0  0 
 24  8  1  0  0  0  0 
 25  9  1  0  0  0  0 
 26  9  1  0  0  0  0 
M  END 
>  <HBA> 
2 
 
>  <HBD> 
0 
 
>  <TPSA> 
16.13 
 
>  <cid> 
67786 
 
>  <dipole> 
2.42 
 
>  <excitation_energy_1> 
4.439 
 
>  <excitation_energy_2> 
4.824 
 
>  <excitation_energy_3> 
4.857 
 
>  <excitation_energy_4> 
5.168 
 
>  <homo_energy> 
-5.929 
 
>  <homo_lumo_gap> 
5.41 
 
>  <logP> 
1.615 
 
>  <lumo_energy> 
-0.52 
 
>  <melting_point> 
45.21 
 
>  <molecular_refractivity> 
53.13 
 
>  <oscillator_strength_1> 
0.0016 
 
>  <oscillator_strength_2> 
0.0046 
 
>  <oscillator_strength_3> 
0.0034 
 
>  <oscillator_strength_4> 
0.0001 
 
>  <open_babel_can_smiles> 
c1ccc(cn1)CN1CCCC1 
 
>  <mulliken_charges> 
26 
1   -0.286353 
2   -0.287773 
3   -0.142092 
4   -0.129494 
5   0.038492 
6   -0.144385 
7   -0.152527 
8   -0.019159 
9   -0.210251 
10   0.136418 
11   -0.410396 
12   -0.380842 
13   0.140748 
14   0.142087 
15   0.143543 
16   0.141663 
17   0.135255 
18   0.154025 
19   0.138746 
20   0.143858 
21   0.138384 
22   0.151358 
23   0.144444 
24   0.132622 
25   0.126519 
26   0.155109 
 
>  <lowdin_charges> 
26 
1   -0.303461 
2   -0.303542 
3   -0.176234 
4   -0.12781 
5   -0.094068 
6   -0.208365 
7   -0.211914 
8   -0.106864 
9   -0.199581 
10   -0.030483 
11   -0.149126 
12   -0.189129 
13   0.150398 
14   0.145101 
15   0.146601 
16   0.150576 
17   0.163251 
18   0.169754 
19   0.155908 
20   0.140826 
21   0.146705 
22   0.15372 
23   0.14239 
24   0.152058 
25   0.128126 
26   0.155165 
 
$$$$ 
 
