PCCDB-ID:  9101 
public computational chemistry database (PCCDB) project, http://pccdb.org 
 
 13 14  0  0  1  0  0  0  0  0999 V2000 
   -0.8111   -1.0373   -0.2127 C   0  0  0  0  0  0  0  0  0  0  0  0 
    0.7509   -1.0890   -0.1140 C   0  0  0  0  0  0  0  0  0  0  0  0 
    0.0671    1.2810   -0.4818 C   0  0  0  0  0  0  0  0  0  0  0  0 
   -0.7845    0.3812    0.3708 C   0  0  2  0  0  0  0  0  0  0  0  0 
    0.7442    0.3308    0.4671 C   0  0  1  0  0  0  0  0  0  0  0  0 
   -1.2889   -1.7661    0.4488 H   0  0  0  0  0  0  0  0  0  0  0  0 
   -1.2499   -1.1359   -1.2135 H   0  0  0  0  0  0  0  0  0  0  0  0 
    1.3048   -1.2207   -1.0520 H   0  0  0  0  0  0  0  0  0  0  0  0 
    1.0926   -1.8445    0.5996 H   0  0  0  0  0  0  0  0  0  0  0  0 
    0.0831    2.3275   -0.1863 H   0  0  0  0  0  0  0  0  0  0  0  0 
    0.1298    1.1239   -1.5598 H   0  0  0  0  0  0  0  0  0  0  0  0 
   -1.4996    0.7811    1.0844 H   0  0  0  0  0  0  0  0  0  0  0  0 
    1.3888    0.6861    1.2664 H   0  0  0  0  0  0  0  0  0  0  0  0 
  1  2  1  0  0  0  0 
  1  4  1  0  0  0  0 
  1  6  1  0  0  0  0 
  2  5  1  0  0  0  0 
  2  9  1  0  0  0  0 
  3 10  1  0  0  0  0 
  3  4  1  0  0  0  0 
  3  5  1  0  0  0  0 
  4  5  1  0  0  0  0 
  4 12  1  1  0  0  0 
  5 13  1  1  0  0  0 
  7  1  1  0  0  0  0 
  8  2  1  0  0  0  0 
 11  3  1  0  0  0  0 
M  END 
>  <HBA> 
0 
 
>  <HBD> 
0 
 
>  <TPSA> 
0.0 
 
>  <cid> 
9101 
 
>  <dipole> 
0.27 
 
>  <excitation_energy_1> 
6.385 
 
>  <excitation_energy_2> 
6.691 
 
>  <excitation_energy_3> 
6.885 
 
>  <excitation_energy_4> 
6.973 
 
>  <homo_energy> 
-6.827 
 
>  <homo_lumo_gap> 
9.505 
 
>  <logP> 
1.416 
 
>  <lumo_energy> 
2.678 
 
>  <melting_point> 
19.26 
 
>  <molecular_refractivity> 
21.92 
 
>  <oscillator_strength_1> 
0.0043 
 
>  <oscillator_strength_2> 
0.0032 
 
>  <oscillator_strength_3> 
0.0174 
 
>  <oscillator_strength_4> 
0.0509 
 
>  <open_babel_can_smiles> 
C1C[C@H]2[C@@H]1C2 
 
>  <mulliken_charges> 
13 
1   -0.275895 
2   -0.275996 
3   -0.3172 
4   -0.112943 
5   -0.112931 
6   0.140716 
7   0.132785 
8   0.132766 
9   0.140716 
10   0.146648 
11   0.139533 
12   0.130893 
13   0.130909 
 
>  <lowdin_charges> 
13 
1   -0.274701 
2   -0.275221 
3   -0.305805 
4   -0.165074 
5   -0.164431 
6   0.149939 
7   0.138389 
8   0.139017 
9   0.149677 
10   0.159599 
11   0.147366 
12   0.150738 
13   0.150505 
 
$$$$ 
 
