PCCDB-ID:  61310 
public computational chemistry database (PCCDB) project, http://pccdb.org 
 
 21 20  0  0  0  0  0  0  0  0999 V2000 
    0.6977   -1.7915    1.0033 C   0  0  0  0  0  0  0  0  0  0  0  0 
    8.8365   -3.1800   -1.0262 C   0  0  0  0  0  0  0  0  0  0  0  0 
    2.2255   -1.7164    1.0771 C   0  0  0  0  0  0  0  0  0  0  0  0 
    2.8879   -1.7120   -0.3162 C   0  0  0  0  0  0  0  0  0  0  0  0 
    4.3793   -1.5881   -0.2455 C   0  0  0  0  0  0  0  0  0  0  0  0 
    5.2579   -2.4851   -0.7107 C   0  0  0  0  0  0  0  0  0  0  0  0 
    6.7141   -2.2634   -0.5712 C   0  0  0  0  0  0  0  0  0  0  0  0 
    7.2468   -1.3013   -0.0517 O   0  0  0  0  0  0  0  0  0  0  0  0 
    7.4096   -3.2972   -1.1092 O   0  0  0  0  0  0  0  0  0  0  0  0 
    0.2527   -1.7949    2.0045 H   0  0  0  0  0  0  0  0  0  0  0  0 
    0.3688   -2.7030    0.4895 H   0  0  0  0  0  0  0  0  0  0  0  0 
    0.2841   -0.9350    0.4569 H   0  0  0  0  0  0  0  0  0  0  0  0 
    9.2334   -4.0795   -1.4984 H   0  0  0  0  0  0  0  0  0  0  0  0 
    9.1589   -3.1199    0.0171 H   0  0  0  0  0  0  0  0  0  0  0  0 
    9.1816   -2.2857   -1.5526 H   0  0  0  0  0  0  0  0  0  0  0  0 
    2.6141   -2.5648    1.6551 H   0  0  0  0  0  0  0  0  0  0  0  0 
    2.5257   -0.8110    1.6218 H   0  0  0  0  0  0  0  0  0  0  0  0 
    2.4864   -0.8605   -0.8876 H   0  0  0  0  0  0  0  0  0  0  0  0 
    2.6081   -2.6209   -0.8643 H   0  0  0  0  0  0  0  0  0  0  0  0 
    4.7810   -0.6988    0.2414 H   0  0  0  0  0  0  0  0  0  0  0  0 
    4.9425   -3.3995   -1.2061 H   0  0  0  0  0  0  0  0  0  0  0  0 
  1  3  1  0  0  0  0 
  1 10  1  0  0  0  0 
  2 14  1  0  0  0  0 
  3 17  1  0  0  0  0 
  3 16  1  0  0  0  0 
  4  5  1  0  0  0  0 
  4  3  1  0  0  0  0 
  5 20  1  0  0  0  0 
  6  7  1  0  0  0  0 
  6  5  2  0  0  0  0 
  7  8  2  0  0  0  0 
  9  2  1  0  0  0  0 
  9  7  1  0  0  0  0 
 11  1  1  0  0  0  0 
 12  1  1  0  0  0  0 
 13  2  1  0  0  0  0 
 15  2  1  0  0  0  0 
 18  4  1  0  0  0  0 
 19  4  1  0  0  0  0 
 21  6  1  0  0  0  0 
M  END 
>  <HBA> 
2 
 
>  <HBD> 
0 
 
>  <TPSA> 
26.3 
 
>  <cid> 
61310 
 
>  <dipole> 
1.66 
 
>  <excitation_energy_1> 
4.867 
 
>  <excitation_energy_2> 
5.913 
 
>  <excitation_energy_3> 
6.452 
 
>  <excitation_energy_4> 
6.849 
 
>  <homo_energy> 
-7.176 
 
>  <homo_lumo_gap> 
6.223 
 
>  <logP> 
1.516 
 
>  <lumo_energy> 
-0.952 
 
>  <melting_point> 
-5.0 
 
>  <molecular_refractivity> 
36.57 
 
>  <oscillator_strength_1> 
0.0001 
 
>  <oscillator_strength_2> 
0.5377 
 
>  <oscillator_strength_3> 
0.0955 
 
>  <oscillator_strength_4> 
0.0115 
 
>  <open_babel_can_smiles> 
CCC/C=C/C(=O)OC 
 
>  <mulliken_charges> 
21 
1   -0.442678 
2   -0.215502 
3   -0.253063 
4   -0.30773 
5   -0.055187 
6   -0.195183 
7   0.609506 
8   -0.49856 
9   -0.466471 
10   0.148582 
11   0.145207 
12   0.144709 
13   0.161281 
14   0.16865 
15   0.168777 
16   0.145442 
17   0.141165 
18   0.151312 
19   0.143922 
20   0.162802 
21   0.143017 
 
>  <lowdin_charges> 
21 
1   -0.444794 
2   -0.27744 
3   -0.27066 
4   -0.273383 
5   -0.096357 
6   -0.213887 
7   0.192932 
8   -0.278884 
9   -0.196415 
10   0.152727 
11   0.148763 
12   0.148893 
13   0.159273 
14   0.1573 
15   0.159074 
16   0.147226 
17   0.144738 
18   0.155982 
19   0.148828 
20   0.170521 
21   0.165565 
 
$$$$ 
 
