PCCDB-ID:  27365 
public computational chemistry database (PCCDB) project, http://pccdb.org 
 
 22 21  0  0  0  0  0  0  0  0999 V2000 
    3.0489   -1.2964   -0.6282 C   0  0  0  0  0  0  0  0  0  0  0  0 
    2.1649    0.7835    3.7352 C   0  0  0  0  0  0  0  0  0  0  0  0 
    5.6117    2.6344    0.7993 C   0  0  0  0  0  0  0  0  0  0  0  0 
    3.1888   -0.9149    0.8515 C   0  0  0  0  0  0  0  0  0  0  0  0 
    3.5040    0.9516    3.0052 C   0  0  0  0  0  0  0  0  0  0  0  0 
    5.1406    1.1805    0.6621 C   0  0  0  0  0  0  0  0  0  0  0  0 
    3.3378    0.9371    1.1338 P   0  0  0  0  0  0  0  0  0  0  0  0 
    2.9273   -2.3801   -0.7437 H   0  0  0  0  0  0  0  0  0  0  0  0 
    3.9313   -1.0037   -1.2087 H   0  0  0  0  0  0  0  0  0  0  0  0 
    2.1783   -0.8102   -1.0823 H   0  0  0  0  0  0  0  0  0  0  0  0 
    2.2999    0.8433    4.8218 H   0  0  0  0  0  0  0  0  0  0  0  0 
    1.7024   -0.1860    3.5169 H   0  0  0  0  0  0  0  0  0  0  0  0 
    1.4532    1.5630    3.4414 H   0  0  0  0  0  0  0  0  0  0  0  0 
    6.6541    2.7414    0.4760 H   0  0  0  0  0  0  0  0  0  0  0  0 
    5.5544    2.9837    1.8367 H   0  0  0  0  0  0  0  0  0  0  0  0 
    4.9998    3.3083    0.1894 H   0  0  0  0  0  0  0  0  0  0  0  0 
    4.0457   -1.4356    1.3025 H   0  0  0  0  0  0  0  0  0  0  0  0 
    2.2961   -1.2473    1.3965 H   0  0  0  0  0  0  0  0  0  0  0  0 
    4.2165    0.1779    3.3250 H   0  0  0  0  0  0  0  0  0  0  0  0 
    3.9459    1.9185    3.2770 H   0  0  0  0  0  0  0  0  0  0  0  0 
    5.7789    0.5120    1.2574 H   0  0  0  0  0  0  0  0  0  0  0  0 
    5.2415    0.8643   -0.3839 H   0  0  0  0  0  0  0  0  0  0  0  0 
  1  4  1  0  0  0  0 
  2 11  1  0  0  0  0 
  3 15  1  0  0  0  0 
  4  7  1  0  0  0  0 
  4 17  1  0  0  0  0 
  4 18  1  0  0  0  0 
  5 20  1  0  0  0  0 
  5 19  1  0  0  0  0 
  5  2  1  0  0  0  0 
  6  3  1  0  0  0  0 
  6  7  1  0  0  0  0 
  6 21  1  0  0  0  0 
  7  5  1  0  0  0  0 
  8  1  1  0  0  0  0 
  9  1  1  0  0  0  0 
 10  1  1  0  0  0  0 
 12  2  1  0  0  0  0 
 13  2  1  0  0  0  0 
 14  3  1  0  0  0  0 
 16  3  1  0  0  0  0 
 22  6  1  0  0  0  0 
M  END 
>  <HBA> 
0 
 
>  <HBD> 
0 
 
>  <TPSA> 
13.59 
 
>  <cid> 
27365 
 
>  <dipole> 
1.33 
 
>  <excitation_energy_1> 
5.477 
 
>  <excitation_energy_2> 
5.539 
 
>  <excitation_energy_3> 
5.542 
 
>  <excitation_energy_4> 
5.96 
 
>  <homo_energy> 
-5.886 
 
>  <homo_lumo_gap> 
7.451 
 
>  <logP> 
2.528 
 
>  <lumo_energy> 
1.565 
 
>  <melting_point> 
-37.85 
 
>  <molecular_refractivity> 
38.93 
 
>  <oscillator_strength_1> 
0.0406 
 
>  <oscillator_strength_2> 
0.0719 
 
>  <oscillator_strength_3> 
0.0717 
 
>  <oscillator_strength_4> 
0.137 
 
>  <open_babel_can_smiles> 
CCP(CC)CC 
 
>  <mulliken_charges> 
22 
1   -0.451059 
2   -0.450791 
3   -0.451154 
4   -0.436743 
5   -0.437343 
6   -0.437123 
7   0.408883 
8   0.145621 
9   0.147289 
10   0.159353 
11   0.14552 
12   0.147177 
13   0.1595 
14   0.145638 
15   0.147353 
16   0.159477 
17   0.144452 
18   0.154842 
19   0.144629 
20   0.154923 
21   0.14451 
22   0.155045 
 
>  <lowdin_charges> 
22 
1   -0.442274 
2   -0.441552 
3   -0.44195 
4   -0.431916 
5   -0.431559 
6   -0.430649 
7   0.347157 
8   0.148402 
9   0.148409 
10   0.15654 
11   0.148195 
12   0.147657 
13   0.156739 
14   0.149043 
15   0.146799 
16   0.157243 
17   0.145963 
18   0.159067 
19   0.146257 
20   0.158316 
21   0.146643 
22   0.157469 
 
$$$$ 
 
