PCCDB-ID:  46107 
public computational chemistry database (PCCDB) project, http://pccdb.org 
 
 28 28  0  0  0  0  0  0  0  0999 V2000 
    1.3630   -2.1915    0.1719 C   0  0  0  0  0  0  0  0  0  0  0  0 
    7.8300   -2.6839   -5.5380 C   0  0  0  0  0  0  0  0  0  0  0  0 
    7.1638   -0.4207   -4.7471 C   0  0  0  0  0  0  0  0  0  0  0  0 
    5.9265   -4.3662   -2.1448 C   0  0  0  0  0  0  0  0  0  0  0  0 
    6.4949   -3.8201   -3.2933 C   0  0  0  0  0  0  0  0  0  0  0  0 
    5.3195   -3.5712   -1.1747 C   0  0  0  0  0  0  0  0  0  0  0  0 
    5.8584   -1.6187   -2.5304 C   0  0  0  0  0  0  0  0  0  0  0  0 
    6.4646   -2.4256   -3.5185 C   0  0  0  0  0  0  0  0  0  0  0  0 
    5.2988   -2.1978   -1.3992 C   0  0  0  0  0  0  0  0  0  0  0  0 
    3.5549   -1.3951    0.0185 C   0  0  0  0  0  0  0  0  0  0  0  0 
    2.6924   -2.2162   -0.4133 N   0  0  0  0  0  0  0  0  0  0  0  0 
    7.0004   -1.8624   -4.6736 N   0  0  0  0  0  0  0  0  0  0  0  0 
    3.4256   -0.4491    0.9851 O   0  0  0  0  0  0  0  0  0  0  0  0 
    4.8211   -1.3003   -0.4387 O   0  0  0  0  0  0  0  0  0  0  0  0 
    0.7653   -2.9956   -0.2660 H   0  0  0  0  0  0  0  0  0  0  0  0 
    0.8277   -1.2480   -0.0283 H   0  0  0  0  0  0  0  0  0  0  0  0 
    1.3667   -2.3535    1.2640 H   0  0  0  0  0  0  0  0  0  0  0  0 
    8.1469   -2.0896   -6.3976 H   0  0  0  0  0  0  0  0  0  0  0  0 
    7.2653   -3.5414   -5.9222 H   0  0  0  0  0  0  0  0  0  0  0  0 
    8.7310   -3.0689   -5.0326 H   0  0  0  0  0  0  0  0  0  0  0  0 
    7.5753   -0.1581   -5.7241 H   0  0  0  0  0  0  0  0  0  0  0  0 
    7.8366   -0.0221   -3.9700 H   0  0  0  0  0  0  0  0  0  0  0  0 
    6.1974    0.0876   -4.6509 H   0  0  0  0  0  0  0  0  0  0  0  0 
    5.9657   -5.4430   -2.0018 H   0  0  0  0  0  0  0  0  0  0  0  0 
    6.9632   -4.4833   -4.0100 H   0  0  0  0  0  0  0  0  0  0  0  0 
    4.8734   -3.9952   -0.2844 H   0  0  0  0  0  0  0  0  0  0  0  0 
    5.8171   -0.5411   -2.6174 H   0  0  0  0  0  0  0  0  0  0  0  0 
    2.5153   -0.4826    1.3187 H   0  0  0  0  0  0  0  0  0  0  0  0 
  1 17  1  0  0  0  0 
  2 20  1  0  0  0  0 
  2 12  1  0  0  0  0 
  3 12  1  0  0  0  0 
  3 23  1  0  0  0  0 
  3 22  1  0  0  0  0 
  4 24  1  0  0  0  0 
  4  6  2  0  0  0  0 
  5  4  1  0  0  0  0 
  6 26  1  0  0  0  0 
  7  9  2  0  0  0  0 
  8  5  2  0  0  0  0 
  8  7  1  0  0  0  0 
  9  6  1  0  0  0  0 
  9 14  1  0  0  0  0 
 10 13  1  0  0  0  0 
 11 10  2  0  0  0  0 
 11  1  1  0  0  0  0 
 12  8  1  0  0  0  0 
 13 28  1  0  0  0  0 
 14 10  1  0  0  0  0 
 15  1  1  0  0  0  0 
 16  1  1  0  0  0  0 
 18  2  1  0  0  0  0 
 19  2  1  0  0  0  0 
 21  3  1  0  0  0  0 
 25  5  1  0  0  0  0 
 27  7  1  0  0  0  0 
M  END 
>  <HBA> 
4 
 
>  <HBD> 
1 
 
>  <TPSA> 
41.57 
 
>  <cid> 
46107 
 
>  <dipole> 
1.09 
 
>  <excitation_energy_1> 
4.47 
 
>  <excitation_energy_2> 
4.576 
 
>  <excitation_energy_3> 
4.666 
 
>  <excitation_energy_4> 
5.089 
 
>  <homo_energy> 
-5.04 
 
>  <homo_lumo_gap> 
5.372 
 
>  <logP> 
1.862 
 
>  <lumo_energy> 
0.332 
 
>  <melting_point> 
77.01 
 
>  <molecular_refractivity> 
55.34 
 
>  <oscillator_strength_1> 
0.0518 
 
>  <oscillator_strength_2> 
0.0255 
 
>  <oscillator_strength_3> 
0.0062 
 
>  <oscillator_strength_4> 
0.0206 
 
>  <open_babel_can_smiles> 
C/N=C(/Oc1cccc(c1)N(C)C)\O 
 
>  <mulliken_charges> 
28 
1   -0.359065 
2   -0.309667 
3   -0.309253 
4   -0.151404 
5   -0.188956 
6   -0.13866 
7   -0.244035 
8   0.365516 
9   0.355833 
10   0.662424 
11   -0.424701 
12   -0.475425 
13   -0.590143 
14   -0.520068 
15   0.174523 
16   0.143188 
17   0.136332 
18   0.152791 
19   0.16372 
20   0.149639 
21   0.152839 
22   0.151153 
23   0.165073 
24   0.126261 
25   0.120519 
26   0.13382 
27   0.133864 
28   0.423884 
 
>  <lowdin_charges> 
28 
1   -0.364732 
2   -0.351861 
3   -0.35058 
4   -0.139791 
5   -0.218397 
6   -0.194195 
7   -0.222748 
8   0.063879 
9   0.118927 
10   0.193159 
11   -0.264619 
12   -0.120226 
13   -0.359843 
14   -0.143401 
15   0.164943 
16   0.138074 
17   0.13162 
18   0.156919 
19   0.154367 
20   0.140771 
21   0.155996 
22   0.142321 
23   0.154342 
24   0.155064 
25   0.160009 
26   0.167707 
27   0.167095 
28   0.365198 
 
$$$$ 
 
