PCCDB-ID:  32562 
public computational chemistry database (PCCDB) project, http://pccdb.org 
 
 37 38  0  0  1  0  0  0  0  0999 V2000 
    0.3731   -0.1628   -0.6561 C   0  0  0  0  0  0  0  0  0  0  0  0 
    1.8894   -0.2779    1.2783 C   0  0  0  0  0  0  0  0  0  0  0  0 
    2.0982    2.5661   -0.4478 C   0  0  0  0  0  0  0  0  0  0  0  0 
    2.6250   -0.6414   -2.4934 C   0  0  0  0  0  0  0  0  0  0  0  0 
    2.5017    0.9071   -2.3616 C   0  0  0  0  0  0  0  0  0  0  0  0 
    4.1921   -0.6867   -0.5634 C   0  0  0  0  0  0  0  0  0  0  0  0 
    6.2572    1.5803    0.6256 C   0  0  0  0  0  0  0  0  0  0  0  0 
    2.7722   -1.0913   -1.0216 C   0  0  1  0  0  0  0  0  0  0  0  0 
    4.1252    0.8772   -0.5447 C   0  0  1  0  0  0  0  0  0  0  0  0 
    6.7593    2.9793    0.2207 C   0  0  0  0  0  0  0  0  0  0  0  0 
    1.8599   -0.0892   -0.2493 C   0  0  0  0  0  0  0  0  0  0  0  0 
    2.6090    1.1791   -0.8230 C   0  0  1  0  0  0  0  0  0  0  0  0 
    4.0958    1.8587    1.6886 N   0  0  0  0  0  0  0  0  0  0  0  0 
    4.7868    1.4784    0.6372 N   0  0  0  0  0  0  0  0  0  0  0  0 
    7.3888    3.1711   -0.7910 O   0  0  0  0  0  0  0  0  0  0  0  0 
    6.4430    3.9599    1.0781 O   0  0  0  0  0  0  0  0  0  0  0  0 
    4.7597    2.4129    2.5882 O   0  0  0  0  0  0  0  0  0  0  0  0 
   -0.0431   -1.1359   -0.3693 H   0  0  0  0  0  0  0  0  0  0  0  0 
    0.1916   -0.0324   -1.7246 H   0  0  0  0  0  0  0  0  0  0  0  0 
   -0.2057    0.6036   -0.1274 H   0  0  0  0  0  0  0  0  0  0  0  0 
    1.3797   -1.2141    1.5386 H   0  0  0  0  0  0  0  0  0  0  0  0 
    1.3588    0.5364    1.7829 H   0  0  0  0  0  0  0  0  0  0  0  0 
    2.8902   -0.3170    1.7078 H   0  0  0  0  0  0  0  0  0  0  0  0 
    2.7241    3.3486   -0.8951 H   0  0  0  0  0  0  0  0  0  0  0  0 
    2.0825    2.7280    0.6319 H   0  0  0  0  0  0  0  0  0  0  0  0 
    1.0811    2.7075   -0.8307 H   0  0  0  0  0  0  0  0  0  0  0  0 
    3.4867   -0.9463   -3.0970 H   0  0  0  0  0  0  0  0  0  0  0  0 
    1.7385   -1.0780   -2.9631 H   0  0  0  0  0  0  0  0  0  0  0  0 
    1.5396    1.2683   -2.7355 H   0  0  0  0  0  0  0  0  0  0  0  0 
    3.2727    1.4476   -2.9212 H   0  0  0  0  0  0  0  0  0  0  0  0 
    4.9662   -1.0578   -1.2434 H   0  0  0  0  0  0  0  0  0  0  0  0 
    4.4204   -1.0726    0.4340 H   0  0  0  0  0  0  0  0  0  0  0  0 
    6.6090    1.3351    1.6334 H   0  0  0  0  0  0  0  0  0  0  0  0 
    6.6417    0.8584   -0.0928 H   0  0  0  0  0  0  0  0  0  0  0  0 
    2.5541   -2.1505   -0.8503 H   0  0  0  0  0  0  0  0  0  0  0  0 
    4.7084    1.2926   -1.3715 H   0  0  0  0  0  0  0  0  0  0  0  0 
    5.9200    3.5765    1.8230 H   0  0  0  0  0  0  0  0  0  0  0  0 
  1 18  1  0  0  0  0 
  1 11  1  0  0  0  0 
  1 20  1  0  0  0  0 
  2 21  1  0  0  0  0 
  2 23  1  0  0  0  0 
  2 22  1  0  0  0  0 
  3 25  1  0  0  0  0 
  4  5  1  0  0  0  0 
  4  8  1  0  0  0  0 
  5 12  1  0  0  0  0 
  6  9  1  0  0  0  0 
  6 32  1  0  0  0  0 
  7 14  1  0  0  0  0 
  7 33  1  0  0  0  0 
  8 35  1  1  0  0  0 
  8  6  1  0  0  0  0 
  8 11  1  0  0  0  0 
  9 36  1  6  0  0  0 
  9 14  1  0  0  0  0 
 10  7  1  0  0  0  0 
 10 16  1  0  0  0  0 
 11  2  1  0  0  0  0 
 12  9  1  0  0  0  0 
 12  3  1  1  0  0  0 
 12 11  1  0  0  0  0 
 13 17  1  0  0  0  0 
 14 13  1  0  0  0  0 
 15 10  2  0  0  0  0 
 16 37  1  0  0  0  0 
 19  1  1  0  0  0  0 
 24  3  1  0  0  0  0 
 26  3  1  0  0  0  0 
 27  4  1  0  0  0  0 
 28  4  1  0  0  0  0 
 29  5  1  0  0  0  0 
 30  5  1  0  0  0  0 
 31  6  1  0  0  0  0 
 34  7  1  0  0  0  0 
M  RAD  2  13   2  17   2 
M  END 
>  <HBA> 
5 
 
>  <HBD> 
1 
 
>  <TPSA> 
69.97 
 
>  <cid> 
32562 
 
>  <dipole> 
5.11 
 
>  <excitation_energy_1> 
3.479 
 
>  <excitation_energy_2> 
5.064 
 
>  <excitation_energy_3> 
5.451 
 
>  <excitation_energy_4> 
5.522 
 
>  <homo_energy> 
-6.838 
 
>  <homo_lumo_gap> 
5.167 
 
>  <logP> 
2.269 
 
>  <lumo_energy> 
-1.671 
 
>  <melting_point> 
150.83 
 
>  <molecular_refractivity> 
64.46 
 
>  <oscillator_strength_1> 
0.0008 
 
>  <oscillator_strength_2> 
0.0437 
 
>  <oscillator_strength_3> 
0.0106 
 
>  <oscillator_strength_4> 
0.0005 
 
>  <open_babel_can_smiles> 
[O][N]N([C@H]1C[C@H]2C([C@]1(C)CC2)(C)C)CC(=O)O 
 
>  <mulliken_charges> 
37 
1   -0.470098 
2   -0.457284 
3   -0.494179 
4   -0.280169 
5   -0.301547 
6   -0.295834 
7   -0.288706 
8   -0.104089 
9   0.02924 
10   0.602726 
11   0.097357 
12   0.081025 
13   0.169625 
14   -0.219503 
15   -0.440059 
16   -0.573499 
17   -0.428134 
18   0.14574 
19   0.146614 
20   0.150543 
21   0.137616 
22   0.155702 
23   0.148203 
24   0.150076 
25   0.179007 
26   0.147396 
27   0.137121 
28   0.146601 
29   0.148875 
30   0.143209 
31   0.146452 
32   0.156755 
33   0.206391 
34   0.197547 
35   0.12145 
36   0.166801 
37   0.441028 
 
>  <lowdin_charges> 
37 
1   -0.44612 
2   -0.448352 
3   -0.451368 
4   -0.28907 
5   -0.28686 
6   -0.291831 
7   -0.254731 
8   -0.13032 
9   -0.070653 
10   0.179157 
11   0.004937 
12   0.003959 
13   0.07371 
14   -0.013144 
15   -0.24078 
16   -0.350794 
17   -0.309802 
18   0.152436 
19   0.150227 
20   0.154889 
21   0.148155 
22   0.158113 
23   0.149767 
24   0.15656 
25   0.163159 
26   0.153149 
27   0.146363 
28   0.150273 
29   0.150705 
30   0.148332 
31   0.151308 
32   0.154776 
33   0.183416 
34   0.18438 
35   0.142871 
36   0.16389 
37   0.359293 
 
$$$$ 
 
