PCCDB-ID:  21497 
public computational chemistry database (PCCDB) project, http://pccdb.org 
 
 17 17  0  0  1  0  0  0  0  0999 V2000 
    4.3974   -0.2941    0.7836 C   0  0  0  0  0  0  0  0  0  0  0  0 
    4.5595    2.3074   -2.5356 C   0  0  0  0  0  0  0  0  0  0  0  0 
    2.8995    3.9899   -1.7094 C   0  0  0  0  0  0  0  0  0  0  0  0 
    3.5477    2.0046   -0.4820 C   0  0  2  0  0  0  0  0  0  0  0  0 
    5.3801    1.8931   -3.4232 N   0  0  0  0  0  0  0  0  0  0  0  0 
    2.1851    5.0479   -1.7445 N   0  0  0  0  0  0  0  0  0  0  0  0 
    3.7950    3.5000   -2.6490 N   0  0  0  0  0  0  0  0  0  0  0  0 
    4.3737    1.5707   -1.3682 N   0  0  0  0  0  0  0  0  0  0  0  0 
    2.8145    3.1609   -0.5905 N   0  0  0  0  0  0  0  0  0  0  0  0 
    3.2643    1.1160    1.0284 S   0  0  0  0  0  0  0  0  0  0  0  0 
    4.2930   -0.9138    1.6775 H   0  0  0  0  0  0  0  0  0  0  0  0 
    5.4234    0.0599    0.6811 H   0  0  0  0  0  0  0  0  0  0  0  0 
    4.1133   -0.8558   -0.1065 H   0  0  0  0  0  0  0  0  0  0  0  0 
    5.4158    2.5312   -4.2226 H   0  0  0  0  0  0  0  0  0  0  0  0 
    2.3288    5.5753   -2.6060 H   0  0  0  0  0  0  0  0  0  0  0  0 
    3.9111    4.0500   -3.4895 H   0  0  0  0  0  0  0  0  0  0  0  0 
    2.1775    3.4699    0.1325 H   0  0  0  0  0  0  0  0  0  0  0  0 
  1 10  1  0  0  0  0 
  1 11  1  0  0  0  0 
  2  8  2  0  0  0  0 
  3  9  1  0  0  0  0 
  4 10  1  1  0  0  0 
  5  2  1  0  0  0  0 
  6  3  2  0  0  0  0 
  7  2  1  0  0  0  0 
  7  3  1  0  0  0  0 
  8  4  1  0  0  0  0 
  9  4  1  0  0  0  0 
  9 17  1  0  0  0  0 
 12  1  1  0  0  0  0 
 13  1  1  0  0  0  0 
 14  5  1  0  0  0  0 
 15  6  1  0  0  0  0 
 16  7  1  0  0  0  0 
M  RAD  2   4   2   5   2 
M  END 
>  <HBA> 
6 
 
>  <HBD> 
2 
 
>  <TPSA> 
116.01 
 
>  <cid> 
21497 
 
>  <dipole> 
1.13 
 
>  <excitation_energy_1> 
5.174 
 
>  <excitation_energy_2> 
5.247 
 
>  <excitation_energy_3> 
5.347 
 
>  <excitation_energy_4> 
5.372 
 
>  <homo_energy> 
-6.485 
 
>  <homo_lumo_gap> 
5.777 
 
>  <logP> 
0.92 
 
>  <lumo_energy> 
-0.708 
 
>  <melting_point> 
162.96 
 
>  <molecular_refractivity> 
40.36 
 
>  <oscillator_strength_1> 
0.2057 
 
>  <oscillator_strength_2> 
0.0265 
 
>  <oscillator_strength_3> 
0.0005 
 
>  <oscillator_strength_4> 
0.0012 
 
>  <open_babel_can_smiles> 
CS[C]1NC(=N)NC(=N1)[NH] 
 
>  <mulliken_charges> 
17 
1   -0.574634 
2   0.602597 
3   0.691114 
4   0.330073 
5   -0.602708 
6   -0.64828 
7   -0.694297 
8   -0.464903 
9   -0.640565 
10   0.144909 
11   0.184039 
12   0.214416 
13   0.214832 
14   0.266197 
15   0.281849 
16   0.329671 
17   0.36569 
 
>  <lowdin_charges> 
17 
1   -0.526226 
2   0.130815 
3   0.139934 
4   0.004144 
5   -0.408335 
6   -0.455208 
7   -0.28125 
8   -0.21374 
9   -0.230591 
10   0.179622 
11   0.178745 
12   0.184884 
13   0.186468 
14   0.246352 
15   0.258419 
16   0.291294 
17   0.314673 
 
$$$$ 
 
