PCCDB-ID:  66930 
public computational chemistry database (PCCDB) project, http://pccdb.org 
 
 29 28  0  0  0  0  0  0  0  0999 V2000 
    3.0192   -0.1093    2.0098 C   0  0  0  0  0  0  0  0  0  0  0  0 
    8.2080    4.9885   -4.4082 C   0  0  0  0  0  0  0  0  0  0  0  0 
    3.7962    2.4501   -2.6559 C   0  0  0  0  0  0  0  0  0  0  0  0 
    3.8794    1.1821    0.1321 C   0  0  0  0  0  0  0  0  0  0  0  0 
    6.5178    3.7789   -3.1375 C   0  0  0  0  0  0  0  0  0  0  0  0 
    4.3202    2.5862   -0.2969 C   0  0  0  0  0  0  0  0  0  0  0  0 
    5.6128    3.8619   -1.9031 C   0  0  0  0  0  0  0  0  0  0  0  0 
    3.5036    1.1848    1.5435 N   0  0  0  0  0  0  0  0  0  0  0  0 
    7.3569    4.9712   -3.2243 N   0  0  0  0  0  0  0  0  0  0  0  0 
    4.8498    2.6350   -1.6617 N   0  0  0  0  0  0  0  0  0  0  0  0 
    2.8155   -0.0577    3.0846 H   0  0  0  0  0  0  0  0  0  0  0  0 
    3.7148   -0.9510    1.8295 H   0  0  0  0  0  0  0  0  0  0  0  0 
    2.0758   -0.3473    1.5040 H   0  0  0  0  0  0  0  0  0  0  0  0 
    8.8557    5.8712   -4.3798 H   0  0  0  0  0  0  0  0  0  0  0  0 
    7.5814    5.0651   -5.3050 H   0  0  0  0  0  0  0  0  0  0  0  0 
    8.8481    4.0933   -4.5252 H   0  0  0  0  0  0  0  0  0  0  0  0 
    3.2901    1.4937   -2.4995 H   0  0  0  0  0  0  0  0  0  0  0  0 
    4.2233    2.4276   -3.6620 H   0  0  0  0  0  0  0  0  0  0  0  0 
    3.0324    3.2526   -2.6241 H   0  0  0  0  0  0  0  0  0  0  0  0 
    4.6869    0.4654   -0.1111 H   0  0  0  0  0  0  0  0  0  0  0  0 
    2.9962    0.8647   -0.4360 H   0  0  0  0  0  0  0  0  0  0  0  0 
    5.9169    3.7402   -4.0547 H   0  0  0  0  0  0  0  0  0  0  0  0 
    7.0919    2.8338   -3.0948 H   0  0  0  0  0  0  0  0  0  0  0  0 
    5.1244    2.9070    0.3786 H   0  0  0  0  0  0  0  0  0  0  0  0 
    3.4796    3.2895   -0.1425 H   0  0  0  0  0  0  0  0  0  0  0  0 
    4.9642    4.7544   -1.9918 H   0  0  0  0  0  0  0  0  0  0  0  0 
    6.2538    4.0274   -1.0269 H   0  0  0  0  0  0  0  0  0  0  0  0 
    4.3151    1.4521    2.0991 H   0  0  0  0  0  0  0  0  0  0  0  0 
    7.9459    5.0205   -2.3940 H   0  0  0  0  0  0  0  0  0  0  0  0 
  1 11  1  0  0  0  0 
  2 14  1  0  0  0  0 
  2  9  1  0  0  0  0 
  3 19  1  0  0  0  0 
  3 17  1  0  0  0  0 
  3 10  1  0  0  0  0 
  4  8  1  0  0  0  0 
  5 23  1  0  0  0  0 
  5  7  1  0  0  0  0 
  6 25  1  0  0  0  0 
  6  4  1  0  0  0  0 
  6 24  1  0  0  0  0 
  7 10  1  0  0  0  0 
  7 27  1  0  0  0  0 
  8  1  1  0  0  0  0 
  8 28  1  0  0  0  0 
  9  5  1  0  0  0  0 
  9 29  1  0  0  0  0 
 10  6  1  0  0  0  0 
 12  1  1  0  0  0  0 
 13  1  1  0  0  0  0 
 15  2  1  0  0  0  0 
 16  2  1  0  0  0  0 
 18  3  1  0  0  0  0 
 20  4  1  0  0  0  0 
 21  4  1  0  0  0  0 
 22  5  1  0  0  0  0 
 26  7  1  0  0  0  0 
M  END 
>  <HBA> 
3 
 
>  <HBD> 
2 
 
>  <TPSA> 
27.3 
 
>  <cid> 
66930 
 
>  <dipole> 
1.39 
 
>  <excitation_energy_1> 
5.255 
 
>  <excitation_energy_2> 
5.365 
 
>  <excitation_energy_3> 
5.461 
 
>  <excitation_energy_4> 
5.539 
 
>  <homo_energy> 
-5.638 
 
>  <homo_lumo_gap> 
7.946 
 
>  <logP> 
0.139 
 
>  <lumo_energy> 
2.308 
 
>  <melting_point> 
29.77 
 
>  <molecular_refractivity> 
44.26 
 
>  <oscillator_strength_1> 
0.002 
 
>  <oscillator_strength_2> 
0.0001 
 
>  <oscillator_strength_3> 
0.0003 
 
>  <oscillator_strength_4> 
0.0091 
 
>  <open_babel_can_smiles> 
CNCCN(CCNC)C 
 
>  <mulliken_charges> 
29 
1   -0.297549 
2   -0.297423 
3   -0.309572 
4   -0.124506 
5   -0.124036 
6   -0.113455 
7   -0.113978 
8   -0.545409 
9   -0.545703 
10   -0.391444 
11   0.147147 
12   0.119396 
13   0.150995 
14   0.147077 
15   0.150998 
16   0.119372 
17   0.153144 
18   0.153051 
19   0.12045 
20   0.121169 
21   0.138592 
22   0.138527 
23   0.121254 
24   0.12422 
25   0.125865 
26   0.126008 
27   0.124292 
28   0.290738 
29   0.290783 
 
>  <lowdin_charges> 
29 
1   -0.358025 
2   -0.36021 
3   -0.359804 
4   -0.209388 
5   -0.207967 
6   -0.203847 
7   -0.20325 
8   -0.363203 
9   -0.36313 
10   -0.187699 
11   0.148085 
12   0.121062 
13   0.147659 
14   0.150291 
15   0.147974 
16   0.12076 
17   0.151321 
18   0.150665 
19   0.1227 
20   0.122191 
21   0.141386 
22   0.140653 
23   0.121364 
24   0.139569 
25   0.125971 
26   0.125891 
27   0.139078 
28   0.249924 
29   0.24998 
 
$$$$ 
 
