PCCDB-ID:  11816 
public computational chemistry database (PCCDB) project, http://pccdb.org 
 
 30 31  0  0  0  0  0  0  0  0999 V2000 
    0.8629   -0.1818   -0.4428 C   0  0  0  0  0  0  0  0  0  0  0  0 
   -0.0803    4.2510    4.1834 C   0  0  0  0  0  0  0  0  0  0  0  0 
   -0.5308    2.9648    4.4859 C   0  0  0  0  0  0  0  0  0  0  0  0 
    1.1432    4.4292    3.5287 C   0  0  0  0  0  0  0  0  0  0  0  0 
    2.1149   -1.9671    5.5762 C   0  0  0  0  0  0  0  0  0  0  0  0 
    1.9126   -3.0778    4.7568 C   0  0  0  0  0  0  0  0  0  0  0  0 
    0.2428    1.8558    4.1430 C   0  0  0  0  0  0  0  0  0  0  0  0 
    1.9118    3.3240    3.1788 C   0  0  0  0  0  0  0  0  0  0  0  0 
    2.1768   -0.6901    5.0163 C   0  0  0  0  0  0  0  0  0  0  0  0 
    1.7650   -2.9029    3.3826 C   0  0  0  0  0  0  0  0  0  0  0  0 
    1.4717    2.0269    3.4889 C   0  0  0  0  0  0  0  0  0  0  0  0 
    2.0414   -0.5021    3.6352 C   0  0  0  0  0  0  0  0  0  0  0  0 
    1.8183   -1.6254    2.8139 C   0  0  0  0  0  0  0  0  0  0  0  0 
    2.3261    0.8738    3.0700 C   0  0  0  0  0  0  0  0  0  0  0  0 
    1.5915   -1.5419    1.3378 C   0  0  0  0  0  0  0  0  0  0  0  0 
    3.2876    1.0271    2.3318 O   0  0  0  0  0  0  0  0  0  0  0  0 
    1.8116   -2.4499    0.5623 O   0  0  0  0  0  0  0  0  0  0  0  0 
    1.0552   -0.3601    0.9696 O   0  0  0  0  0  0  0  0  0  0  0  0 
    0.4121    0.8047   -0.5523 H   0  0  0  0  0  0  0  0  0  0  0  0 
    0.2021   -0.9568   -0.8394 H   0  0  0  0  0  0  0  0  0  0  0  0 
    1.8222   -0.2260   -0.9647 H   0  0  0  0  0  0  0  0  0  0  0  0 
   -0.6814    5.1147    4.4554 H   0  0  0  0  0  0  0  0  0  0  0  0 
   -1.4843    2.8250    4.9877 H   0  0  0  0  0  0  0  0  0  0  0  0 
    1.4926    5.4306    3.2925 H   0  0  0  0  0  0  0  0  0  0  0  0 
    2.2312   -2.0914    6.6494 H   0  0  0  0  0  0  0  0  0  0  0  0 
    1.8680   -4.0750    5.1850 H   0  0  0  0  0  0  0  0  0  0  0  0 
   -0.1118    0.8562    4.3731 H   0  0  0  0  0  0  0  0  0  0  0  0 
    2.8604    3.4364    2.6638 H   0  0  0  0  0  0  0  0  0  0  0  0 
    2.3572    0.1707    5.6543 H   0  0  0  0  0  0  0  0  0  0  0  0 
    1.6028   -3.7507    2.7250 H   0  0  0  0  0  0  0  0  0  0  0  0 
  1 18  1  0  0  0  0 
  2 22  1  0  0  0  0 
  2  3  1  0  0  0  0 
  3 23  1  0  0  0  0 
  4  2  2  0  0  0  0 
  5 25  1  0  0  0  0 
  6 26  1  0  0  0  0 
  6  5  2  0  0  0  0 
  7 27  1  0  0  0  0 
  7  3  2  0  0  0  0 
  8 11  2  0  0  0  0 
  8  4  1  0  0  0  0 
  9  5  1  0  0  0  0 
  9 29  1  0  0  0  0 
 10  6  1  0  0  0  0 
 11  7  1  0  0  0  0 
 12  9  2  0  0  0  0 
 13 10  2  0  0  0  0 
 13 12  1  0  0  0  0 
 14 11  1  0  0  0  0 
 14 12  1  0  0  0  0 
 15 13  1  0  0  0  0 
 16 14  2  0  0  0  0 
 17 15  2  0  0  0  0 
 18 15  1  0  0  0  0 
 19  1  1  0  0  0  0 
 20  1  1  0  0  0  0 
 21  1  1  0  0  0  0 
 24  4  1  0  0  0  0 
 28  8  1  0  0  0  0 
 30 10  1  0  0  0  0 
M  END 
>  <HBA> 
3 
 
>  <HBD> 
0 
 
>  <TPSA> 
43.37 
 
>  <cid> 
11816 
 
>  <dipole> 
4.13 
 
>  <excitation_energy_1> 
3.66 
 
>  <excitation_energy_2> 
4.551 
 
>  <excitation_energy_3> 
4.611 
 
>  <excitation_energy_4> 
4.663 
 
>  <homo_energy> 
-6.735 
 
>  <homo_lumo_gap> 
5.034 
 
>  <logP> 
2.704 
 
>  <lumo_energy> 
-1.701 
 
>  <melting_point> 
90.7 
 
>  <molecular_refractivity> 
67.6 
 
>  <oscillator_strength_1> 
0.0013 
 
>  <oscillator_strength_2> 
0.0185 
 
>  <oscillator_strength_3> 
0.024 
 
>  <oscillator_strength_4> 
0.0423 
 
>  <open_babel_can_smiles> 
COC(=O)c1ccccc1C(=O)c1ccccc1 
 
>  <mulliken_charges> 
30 
1   -0.216452 
2   -0.118556 
3   -0.136029 
4   -0.134787 
5   -0.11976 
6   -0.12896 
7   -0.174682 
8   -0.155457 
9   -0.170807 
10   -0.165092 
11   0.078246 
12   0.034026 
13   0.059701 
14   0.338802 
15   0.573695 
16   -0.459701 
17   -0.485252 
18   -0.459555 
19   0.167226 
20   0.170515 
21   0.177391 
22   0.13826 
23   0.137413 
24   0.138839 
25   0.141613 
26   0.142349 
27   0.148828 
28   0.163796 
29   0.148199 
30   0.166192 
 
>  <lowdin_charges> 
30 
1   -0.275488 
2   -0.139942 
3   -0.156545 
4   -0.154851 
5   -0.138913 
6   -0.149692 
7   -0.143767 
8   -0.126881 
9   -0.156204 
10   -0.130843 
11   -0.047537 
12   -0.018569 
13   -0.029752 
14   0.160337 
15   0.20069 
16   -0.233051 
17   -0.264 
18   -0.182527 
19   0.161776 
20   0.161177 
21   0.163624 
22   0.162498 
23   0.160894 
24   0.161309 
25   0.162031 
26   0.163898 
27   0.168011 
28   0.176034 
29   0.167223 
30   0.17906 
 
$$$$ 
 
