PCCDB-ID:  24004 
public computational chemistry database (PCCDB) project, http://pccdb.org 
 
 22 22  0  0  1  0  0  0  0  0999 V2000 
    3.0510    0.0895   -1.6894 C   0  0  0  0  0  0  0  0  0  0  0  0 
    4.7616    1.3805    0.7090 C   0  0  0  0  0  0  0  0  0  0  0  0 
    5.1840    0.1169    1.4745 C   0  0  0  0  0  0  0  0  0  0  0  0 
    3.2388    1.4196    0.4984 C   0  0  0  0  0  0  0  0  0  0  0  0 
    4.6715   -1.1517    0.7761 C   0  0  0  0  0  0  0  0  0  0  0  0 
    2.6936    0.1516   -0.1961 C   0  0  2  0  0  0  0  0  0  0  0  0 
    3.1499   -1.1137    0.5563 C   0  0  2  0  0  0  0  0  0  0  0  0 
    2.4492   -1.1076    1.8075 O   0  0  0  0  0  0  0  0  0  0  0  0 
    2.6341    0.9543   -2.2184 H   0  0  0  0  0  0  0  0  0  0  0  0 
    2.6418   -0.8142   -2.1573 H   0  0  0  0  0  0  0  0  0  0  0  0 
    4.1326    0.0901   -1.8639 H   0  0  0  0  0  0  0  0  0  0  0  0 
    5.2787    1.4099   -0.2606 H   0  0  0  0  0  0  0  0  0  0  0  0 
    5.0843    2.2767    1.2542 H   0  0  0  0  0  0  0  0  0  0  0  0 
    4.7704    0.1559    2.4904 H   0  0  0  0  0  0  0  0  0  0  0  0 
    6.2759    0.0748    1.5760 H   0  0  0  0  0  0  0  0  0  0  0  0 
    2.9589    2.3063   -0.0860 H   0  0  0  0  0  0  0  0  0  0  0  0 
    2.7494    1.5153    1.4751 H   0  0  0  0  0  0  0  0  0  0  0  0 
    4.9307   -2.0467    1.3616 H   0  0  0  0  0  0  0  0  0  0  0  0 
    5.1694   -1.2732   -0.1959 H   0  0  0  0  0  0  0  0  0  0  0  0 
    1.5983    0.1685   -0.1181 H   0  0  0  0  0  0  0  0  0  0  0  0 
    2.8478   -2.0000   -0.0272 H   0  0  0  0  0  0  0  0  0  0  0  0 
    2.7585   -1.8710    2.3199 H   0  0  0  0  0  0  0  0  0  0  0  0 
  1  6  1  0  0  0  0 
  2 13  1  0  0  0  0 
  2  3  1  0  0  0  0 
  3 15  1  0  0  0  0 
  3 14  1  0  0  0  0 
  4  2  1  0  0  0  0 
  4 17  1  0  0  0  0 
  5 18  1  0  0  0  0 
  5  3  1  0  0  0  0 
  6 20  1  1  0  0  0 
  6  4  1  0  0  0  0 
  6  7  1  0  0  0  0 
  7 21  1  6  0  0  0 
  7  5  1  0  0  0  0 
  7  8  1  0  0  0  0 
  8 22  1  0  0  0  0 
  9  1  1  0  0  0  0 
 10  1  1  0  0  0  0 
 11  1  1  0  0  0  0 
 12  2  1  0  0  0  0 
 16  4  1  0  0  0  0 
 19  5  1  0  0  0  0 
M  END 
>  <HBA> 
1 
 
>  <HBD> 
1 
 
>  <TPSA> 
20.23 
 
>  <cid> 
24004 
 
>  <dipole> 
1.37 
 
>  <excitation_energy_1> 
6.29 
 
>  <excitation_energy_2> 
6.957 
 
>  <excitation_energy_3> 
7.124 
 
>  <excitation_energy_4> 
7.202 
 
>  <homo_energy> 
-7.012 
 
>  <homo_lumo_gap> 
8.887 
 
>  <logP> 
1.557 
 
>  <lumo_energy> 
1.875 
 
>  <melting_point> 
13.97 
 
>  <molecular_refractivity> 
34.81 
 
>  <oscillator_strength_1> 
0.0043 
 
>  <oscillator_strength_2> 
0.0096 
 
>  <oscillator_strength_3> 
0.0054 
 
>  <oscillator_strength_4> 
0.0133 
 
>  <open_babel_can_smiles> 
C[C@@H]1CCCC[C@H]1O 
 
>  <mulliken_charges> 
22 
1   -0.46026 
2   -0.264538 
3   -0.24954 
4   -0.262975 
5   -0.291622 
6   -0.08168 
7   0.145855 
8   -0.635642 
9   0.144817 
10   0.140676 
11   0.14441 
12   0.126904 
13   0.130058 
14   0.138071 
15   0.12674 
16   0.122914 
17   0.150251 
18   0.117613 
19   0.133632 
20   0.135315 
21   0.103615 
22   0.385387 
 
>  <lowdin_charges> 
22 
1   -0.448559 
2   -0.279393 
3   -0.275814 
4   -0.280542 
5   -0.297658 
6   -0.130232 
7   -0.00462 
8   -0.471961 
9   0.152148 
10   0.148465 
11   0.14379 
12   0.135422 
13   0.144303 
14   0.142525 
15   0.139843 
16   0.140743 
17   0.150824 
18   0.136936 
19   0.144292 
20   0.145975 
21   0.12281 
22   0.340702 
 
$$$$ 
 
