PCCDB-ID:  8037 
public computational chemistry database (PCCDB) project, http://pccdb.org 
 
 24 23  0  0  0  0  0  0  0  0999 V2000 
    1.5102   -1.1939   -0.5210 C   0  0  0  0  0  0  0  0  0  0  0  0 
    3.4709   -0.3315   -1.5919 C   0  0  0  0  0  0  0  0  0  0  0  0 
    3.6793    1.4177    3.4729 C   0  0  0  0  0  0  0  0  0  0  0  0 
    5.6162    2.3173    2.3897 C   0  0  0  0  0  0  0  0  0  0  0  0 
    2.8709    0.4318    0.6389 C   0  0  0  0  0  0  0  0  0  0  0  0 
    4.2659    0.6816    1.2295 C   0  0  0  0  0  0  0  0  0  0  0  0 
    2.8574   -0.6781   -0.3160 N   0  0  0  0  0  0  0  0  0  0  0  0 
    4.2746    1.7837    2.1938 N   0  0  0  0  0  0  0  0  0  0  0  0 
    1.5466   -2.0596   -1.1920 H   0  0  0  0  0  0  0  0  0  0  0  0 
    0.8166   -0.4515   -0.9645 H   0  0  0  0  0  0  0  0  0  0  0  0 
    1.0883   -1.5239    0.4344 H   0  0  0  0  0  0  0  0  0  0  0  0 
    3.4781   -1.2113   -2.2445 H   0  0  0  0  0  0  0  0  0  0  0  0 
    4.5092   -0.0186   -1.4495 H   0  0  0  0  0  0  0  0  0  0  0  0 
    2.9380    0.4838   -2.1218 H   0  0  0  0  0  0  0  0  0  0  0  0 
    3.6608    2.2933    4.1310 H   0  0  0  0  0  0  0  0  0  0  0  0 
    4.2326    0.6098    3.9930 H   0  0  0  0  0  0  0  0  0  0  0  0 
    2.6461    1.0854    3.3377 H   0  0  0  0  0  0  0  0  0  0  0  0 
    5.5741    3.1760    3.0692 H   0  0  0  0  0  0  0  0  0  0  0  0 
    6.0233    2.6623    1.4331 H   0  0  0  0  0  0  0  0  0  0  0  0 
    6.3251    1.5811    2.8192 H   0  0  0  0  0  0  0  0  0  0  0  0 
    2.4961    1.3744    0.1950 H   0  0  0  0  0  0  0  0  0  0  0  0 
    2.1798    0.1693    1.4473 H   0  0  0  0  0  0  0  0  0  0  0  0 
    4.9551    0.9540    0.4228 H   0  0  0  0  0  0  0  0  0  0  0  0 
    4.6448   -0.2630    1.6653 H   0  0  0  0  0  0  0  0  0  0  0  0 
  1  7  1  0  0  0  0 
  1 11  1  0  0  0  0 
  2 13  1  0  0  0  0 
  2  7  1  0  0  0  0 
  3 16  1  0  0  0  0 
  3 15  1  0  0  0  0 
  4 20  1  0  0  0  0 
  4 18  1  0  0  0  0 
  5  6  1  0  0  0  0 
  5 22  1  0  0  0  0 
  6 24  1  0  0  0  0 
  6  8  1  0  0  0  0 
  7  5  1  0  0  0  0 
  8  4  1  0  0  0  0 
  8  3  1  0  0  0  0 
  9  1  1  0  0  0  0 
 10  1  1  0  0  0  0 
 12  2  1  0  0  0  0 
 14  2  1  0  0  0  0 
 17  3  1  0  0  0  0 
 19  4  1  0  0  0  0 
 21  5  1  0  0  0  0 
 23  6  1  0  0  0  0 
M  END 
>  <HBA> 
2 
 
>  <HBD> 
0 
 
>  <TPSA> 
6.48 
 
>  <cid> 
8037 
 
>  <dipole> 
0.01 
 
>  <excitation_energy_1> 
5.285 
 
>  <excitation_energy_2> 
5.361 
 
>  <excitation_energy_3> 
5.641 
 
>  <excitation_energy_4> 
5.716 
 
>  <homo_energy> 
-5.619 
 
>  <homo_lumo_gap> 
7.875 
 
>  <logP> 
0.11 
 
>  <lumo_energy> 
2.256 
 
>  <melting_point> 
-21.29 
 
>  <molecular_refractivity> 
36.75 
 
>  <oscillator_strength_1> 
0.0328 
 
>  <oscillator_strength_2> 
0.0 
 
>  <oscillator_strength_3> 
0.0 
 
>  <oscillator_strength_4> 
0.0316 
 
>  <open_babel_can_smiles> 
CN(CCN(C)C)C 
 
>  <mulliken_charges> 
24 
1   -0.292902 
2   -0.300723 
3   -0.30075 
4   -0.29307 
5   -0.117092 
6   -0.118232 
7   -0.371 
8   -0.370896 
9   0.146034 
10   0.117046 
11   0.14791 
12   0.147767 
13   0.151464 
14   0.117497 
15   0.147818 
16   0.117636 
17   0.151324 
18   0.146051 
19   0.147987 
20   0.117065 
21   0.121298 
22   0.133017 
23   0.132973 
24   0.121776 
 
>  <lowdin_charges> 
24 
1   -0.357107 
2   -0.358663 
3   -0.358737 
4   -0.357091 
5   -0.205737 
6   -0.205807 
7   -0.184176 
8   -0.184119 
9   0.148635 
10   0.120996 
11   0.148715 
12   0.15043 
13   0.148121 
14   0.121041 
15   0.150402 
16   0.121112 
17   0.148159 
18   0.148668 
19   0.148712 
20   0.120975 
21   0.123687 
22   0.143887 
23   0.143912 
24   0.123987 
 
$$$$ 
 
