PCCDB-ID:  8580 
public computational chemistry database (PCCDB) project, http://pccdb.org 
 
 20 21  0  0  0  0  0  0  0  0999 V2000 
    2.4148    0.7793    0.0744 C   0  0  0  0  0  0  0  0  0  0  0  0 
    2.4375   -0.6300   -0.0412 C   0  0  0  0  0  0  0  0  0  0  0  0 
    1.2083    1.4404    0.1037 C   0  0  0  0  0  0  0  0  0  0  0  0 
    1.2690   -1.3576   -0.1255 C   0  0  0  0  0  0  0  0  0  0  0  0 
   -1.2682    1.3810    0.0474 C   0  0  0  0  0  0  0  0  0  0  0  0 
   -2.4477    0.6830   -0.0349 C   0  0  0  0  0  0  0  0  0  0  0  0 
   -0.0121    0.7206    0.0193 C   0  0  0  0  0  0  0  0  0  0  0  0 
    0.0087   -0.7043   -0.0979 C   0  0  0  0  0  0  0  0  0  0  0  0 
   -2.4524   -0.7298   -0.1520 C   0  0  0  0  0  0  0  0  0  0  0  0 
   -1.2342   -1.4303   -0.1842 C   0  0  0  0  0  0  0  0  0  0  0  0 
   -1.0889   -2.8387   -0.3001 N   0  0  0  0  0  0  0  0  0  0  0  0 
   -3.6244   -1.3952   -0.2323 O   0  0  0  0  0  0  0  0  0  0  0  0 
   -2.1167   -3.5059   -0.3766 O   0  0  0  0  0  0  0  0  0  0  0  0 
    3.3468    1.3334    0.1396 H   0  0  0  0  0  0  0  0  0  0  0  0 
    3.3920   -1.1490   -0.0645 H   0  0  0  0  0  0  0  0  0  0  0  0 
    1.1702    2.5235    0.1925 H   0  0  0  0  0  0  0  0  0  0  0  0 
    1.2918   -2.4363   -0.2143 H   0  0  0  0  0  0  0  0  0  0  0  0 
   -1.2901    2.4644    0.1361 H   0  0  0  0  0  0  0  0  0  0  0  0 
   -3.4005    1.2098   -0.0111 H   0  0  0  0  0  0  0  0  0  0  0  0 
   -4.3490   -0.7481   -0.1946 H   0  0  0  0  0  0  0  0  0  0  0  0 
  1  3  1  0  0  0  0 
  1 14  1  0  0  0  0 
  2  1  2  0  0  0  0 
  3 16  1  0  0  0  0 
  4  8  2  0  0  0  0 
  4  2  1  0  0  0  0 
  5 18  1  0  0  0  0 
  6 19  1  0  0  0  0 
  6  5  2  0  0  0  0 
  7  5  1  0  0  0  0 
  7  3  2  0  0  0  0 
  8  7  1  0  0  0  0 
  9  6  1  0  0  0  0 
 10  9  2  0  0  0  0 
 10  8  1  0  0  0  0 
 11 10  1  0  0  0  0 
 12 20  1  0  0  0  0 
 12  9  1  0  0  0  0 
 13 11  2  0  0  0  0 
 15  2  1  0  0  0  0 
 17  4  1  0  0  0  0 
M  END 
>  <HBA> 
3 
 
>  <HBD> 
1 
 
>  <TPSA> 
49.66 
 
>  <cid> 
8580 
 
>  <dipole> 
5.17 
 
>  <excitation_energy_1> 
1.327 
 
>  <excitation_energy_2> 
3.279 
 
>  <excitation_energy_3> 
3.512 
 
>  <excitation_energy_4> 
3.656 
 
>  <homo_energy> 
-5.323 
 
>  <homo_lumo_gap> 
2.925 
 
>  <logP> 
2.943 
 
>  <lumo_energy> 
-2.397 
 
>  <melting_point> 
116.72 
 
>  <molecular_refractivity> 
51.43 
 
>  <oscillator_strength_1> 
0.0002 
 
>  <oscillator_strength_2> 
0.0799 
 
>  <oscillator_strength_3> 
0.0005 
 
>  <oscillator_strength_4> 
0.065 
 
>  <open_babel_can_smiles> 
O=Nc1c(O)ccc2c1cccc2 
 
>  <mulliken_charges> 
20 
1   -0.133066 
2   -0.130844 
3   -0.192695 
4   -0.178288 
5   -0.17693 
6   -0.204703 
7   0.123257 
8   0.08271 
9   0.356509 
10   0.173958 
11   -0.096116 
12   -0.59085 
13   -0.301282 
14   0.134845 
15   0.138205 
16   0.133427 
17   0.169246 
18   0.147222 
19   0.132686 
20   0.41271 
 
>  <lowdin_charges> 
20 
1   -0.160574 
2   -0.14428 
3   -0.149996 
4   -0.153979 
5   -0.113093 
6   -0.209642 
7   -0.016498 
8   0.015619 
9   0.125994 
10   -0.056378 
11   0.030514 
12   -0.321997 
13   -0.188526 
14   0.16153 
15   0.162547 
16   0.157148 
17   0.176509 
18   0.164724 
19   0.159516 
20   0.360862 
 
$$$$ 
 
