PCCDB-ID:  7782 
public computational chemistry database (PCCDB) project, http://pccdb.org 
 
 37 36  0  0  0  0  0  0  0  0999 V2000 
    1.0909    2.4395   -0.6640 C   0  0  0  0  0  0  0  0  0  0  0  0 
   12.0166    2.1574    3.6935 C   0  0  0  0  0  0  0  0  0  0  0  0 
   11.9534   -0.3231    3.1634 C   0  0  0  0  0  0  0  0  0  0  0  0 
    7.5890    4.8871    2.5313 C   0  0  0  0  0  0  0  0  0  0  0  0 
    2.1814    3.4723   -0.3868 C   0  0  0  0  0  0  0  0  0  0  0  0 
    8.8718    2.0987    3.4676 C   0  0  0  0  0  0  0  0  0  0  0  0 
    9.8279    0.9490    3.2967 C   0  0  0  0  0  0  0  0  0  0  0  0 
    8.0944    2.4073    2.1608 C   0  0  0  0  0  0  0  0  0  0  0  0 
    5.7444    3.1787    2.2445 C   0  0  0  0  0  0  0  0  0  0  0  0 
    4.5721    4.0979    2.4000 C   0  0  0  0  0  0  0  0  0  0  0  0 
   11.1675    0.9489    3.3810 C   0  0  0  0  0  0  0  0  0  0  0  0 
    7.0484    3.4945    2.3076 C   0  0  0  0  0  0  0  0  0  0  0  0 
    2.8979    3.2336    0.9299 C   0  0  0  0  0  0  0  0  0  0  0  0 
    2.6932    2.3014    1.6793 O   0  0  0  0  0  0  0  0  0  0  0  0 
    3.8077    4.2060    1.1620 O   0  0  0  0  0  0  0  0  0  0  0  0 
    0.6033    2.6455   -1.6226 H   0  0  0  0  0  0  0  0  0  0  0  0 
    0.3292    2.4525    0.1214 H   0  0  0  0  0  0  0  0  0  0  0  0 
    1.5078    1.4287   -0.6977 H   0  0  0  0  0  0  0  0  0  0  0  0 
   12.7319    2.3476    2.8811 H   0  0  0  0  0  0  0  0  0  0  0  0 
   12.6161    1.9861    4.5985 H   0  0  0  0  0  0  0  0  0  0  0  0 
   11.4356    3.0698    3.8466 H   0  0  0  0  0  0  0  0  0  0  0  0 
   12.6631   -0.2131    2.3311 H   0  0  0  0  0  0  0  0  0  0  0  0 
   11.3014   -1.1740    2.9424 H   0  0  0  0  0  0  0  0  0  0  0  0 
   12.5527   -0.5752    4.0498 H   0  0  0  0  0  0  0  0  0  0  0  0 
    8.3433    5.1266    1.7701 H   0  0  0  0  0  0  0  0  0  0  0  0 
    8.0911    4.9693    3.5042 H   0  0  0  0  0  0  0  0  0  0  0  0 
    6.8200    5.6617    2.4919 H   0  0  0  0  0  0  0  0  0  0  0  0 
    1.7758    4.4918   -0.3700 H   0  0  0  0  0  0  0  0  0  0  0  0 
    2.9407    3.4741   -1.1799 H   0  0  0  0  0  0  0  0  0  0  0  0 
    9.3917    2.9982    3.8120 H   0  0  0  0  0  0  0  0  0  0  0  0 
    8.1373    1.8473    4.2468 H   0  0  0  0  0  0  0  0  0  0  0  0 
    9.3448   -0.0011    3.0591 H   0  0  0  0  0  0  0  0  0  0  0  0 
    7.6165    1.4845    1.8101 H   0  0  0  0  0  0  0  0  0  0  0  0 
    8.8222    2.6978    1.3893 H   0  0  0  0  0  0  0  0  0  0  0  0 
    5.4700    2.1393    2.0710 H   0  0  0  0  0  0  0  0  0  0  0  0 
    4.8580    5.1249    2.6270 H   0  0  0  0  0  0  0  0  0  0  0  0 
    3.8964    3.7307    3.1783 H   0  0  0  0  0  0  0  0  0  0  0  0 
  1  5  1  0  0  0  0 
  1 17  1  0  0  0  0 
  2 21  1  0  0  0  0 
  2 20  1  0  0  0  0 
  3 11  1  0  0  0  0 
  3 24  1  0  0  0  0 
  4 26  1  0  0  0  0 
  5 28  1  0  0  0  0 
  5 13  1  0  0  0  0 
  6 30  1  0  0  0  0 
  6 31  1  0  0  0  0 
  7 11  2  0  0  0  0 
  7  6  1  0  0  0  0 
  8 12  1  0  0  0  0 
  8  6  1  0  0  0  0 
  9 12  2  0  0  0  0 
  9 10  1  0  0  0  0 
 10 36  1  0  0  0  0 
 10 37  1  0  0  0  0 
 11  2  1  0  0  0  0 
 12  4  1  0  0  0  0 
 13 15  1  0  0  0  0 
 13 14  2  0  0  0  0 
 15 10  1  0  0  0  0 
 16  1  1  0  0  0  0 
 18  1  1  0  0  0  0 
 19  2  1  0  0  0  0 
 22  3  1  0  0  0  0 
 23  3  1  0  0  0  0 
 25  4  1  0  0  0  0 
 27  4  1  0  0  0  0 
 29  5  1  0  0  0  0 
 32  7  1  0  0  0  0 
 33  8  1  0  0  0  0 
 34  8  1  0  0  0  0 
 35  9  1  0  0  0  0 
M  END 
>  <HBA> 
2 
 
>  <HBD> 
0 
 
>  <TPSA> 
26.3 
 
>  <cid> 
7782 
 
>  <dipole> 
2.28 
 
>  <excitation_energy_1> 
5.602 
 
>  <excitation_energy_2> 
5.763 
 
>  <excitation_energy_3> 
5.799 
 
>  <excitation_energy_4> 
5.965 
 
>  <homo_energy> 
-6.207 
 
>  <homo_lumo_gap> 
6.528 
 
>  <logP> 
3.632 
 
>  <lumo_energy> 
0.321 
 
>  <melting_point> 
7.65 
 
>  <molecular_refractivity> 
64.94 
 
>  <oscillator_strength_1> 
0.0119 
 
>  <oscillator_strength_2> 
0.0743 
 
>  <oscillator_strength_3> 
0.0016 
 
>  <oscillator_strength_4> 
0.0056 
 
>  <open_babel_can_smiles> 
CCC(=O)OC/C=C(/CCC=C(C)C)\C 
 
>  <mulliken_charges> 
37 
1   -0.434971 
2   -0.513468 
3   -0.506097 
4   -0.522971 
5   -0.35204 
6   -0.303996 
7   -0.160965 
8   -0.326854 
9   -0.190843 
10   -0.096732 
11   0.188713 
12   0.198795 
13   0.622951 
14   -0.482126 
15   -0.461738 
16   0.141386 
17   0.160576 
18   0.162456 
19   0.151983 
20   0.152941 
21   0.152439 
22   0.14889 
23   0.151932 
24   0.149357 
25   0.15686 
26   0.162382 
27   0.156382 
28   0.170264 
29   0.172937 
30   0.139213 
31   0.146249 
32   0.112277 
33   0.143447 
34   0.141098 
35   0.143767 
36   0.152391 
37   0.173114 
 
>  <lowdin_charges> 
37 
1   -0.439182 
2   -0.445375 
3   -0.440296 
4   -0.447657 
5   -0.300061 
6   -0.274693 
7   -0.191609 
8   -0.270514 
9   -0.206324 
10   -0.130037 
11   -0.010293 
12   0.005354 
13   0.197235 
14   -0.272522 
15   -0.199225 
16   0.150923 
17   0.159014 
18   0.15873 
19   0.155807 
20   0.155847 
21   0.154306 
22   0.152777 
23   0.155259 
24   0.153069 
25   0.159267 
26   0.159109 
27   0.157291 
28   0.166539 
29   0.169665 
30   0.145244 
31   0.151388 
32   0.145568 
33   0.149334 
34   0.148365 
35   0.159655 
36   0.15346 
37   0.164578 
 
$$$$ 
 
