PCCDB-ID:  69606 
public computational chemistry database (PCCDB) project, http://pccdb.org 
 
 34 33  0  0  0  0  0  0  0  0999 V2000 
    3.2095   -4.7920    0.1537 C   0  0  0  0  0  0  0  0  0  0  0  0 
    2.2317   -1.7194    4.8718 C   0  0  0  0  0  0  0  0  0  0  0  0 
    3.5082   -1.7206    5.7356 C   0  0  0  0  0  0  0  0  0  0  0  0 
    2.4578   -1.3002    3.4079 C   0  0  0  0  0  0  0  0  0  0  0  0 
    3.3694   -2.5088    7.0598 C   0  0  0  0  0  0  0  0  0  0  0  0 
    3.1387   -2.3757    2.5388 C   0  0  0  0  0  0  0  0  0  0  0  0 
    3.9076   -3.9502    7.0126 C   0  0  0  0  0  0  0  0  0  0  0  0 
    2.2050   -3.5690    2.2122 C   0  0  0  0  0  0  0  0  0  0  0  0 
    3.2775   -4.8439    5.9379 C   0  0  0  0  0  0  0  0  0  0  0  0 
    2.9892   -4.7414    1.6497 C   0  0  0  0  0  0  0  0  0  0  0  0 
    3.7564   -6.2935    6.0240 C   0  0  0  0  0  0  0  0  0  0  0  0 
    3.4535   -5.6054    2.3808 O   0  0  0  0  0  0  0  0  0  0  0  0 
    4.0764   -6.8250    7.0624 O   0  0  0  0  0  0  0  0  0  0  0  0 
    3.7651   -6.9831    4.8649 O   0  0  0  0  0  0  0  0  0  0  0  0 
    2.2530   -4.9866   -0.3492 H   0  0  0  0  0  0  0  0  0  0  0  0 
    3.9177   -5.5831   -0.0987 H   0  0  0  0  0  0  0  0  0  0  0  0 
    3.5728   -3.8269   -0.2196 H   0  0  0  0  0  0  0  0  0  0  0  0 
    1.5018   -1.0398    5.3314 H   0  0  0  0  0  0  0  0  0  0  0  0 
    1.7621   -2.7104    4.9018 H   0  0  0  0  0  0  0  0  0  0  0  0 
    3.7779   -0.6774    5.9463 H   0  0  0  0  0  0  0  0  0  0  0  0 
    4.3527   -2.1323    5.1650 H   0  0  0  0  0  0  0  0  0  0  0  0 
    3.0734   -0.3904    3.3856 H   0  0  0  0  0  0  0  0  0  0  0  0 
    1.4976   -1.0288    2.9477 H   0  0  0  0  0  0  0  0  0  0  0  0 
    2.3139   -2.5176    7.3694 H   0  0  0  0  0  0  0  0  0  0  0  0 
    3.9090   -1.9830    7.8573 H   0  0  0  0  0  0  0  0  0  0  0  0 
    4.0353   -2.7500    3.0484 H   0  0  0  0  0  0  0  0  0  0  0  0 
    3.4840   -1.9237    1.6004 H   0  0  0  0  0  0  0  0  0  0  0  0 
    3.7655   -4.4337    7.9847 H   0  0  0  0  0  0  0  0  0  0  0  0 
    4.9933   -3.9201    6.8461 H   0  0  0  0  0  0  0  0  0  0  0  0 
    1.4353   -3.2435    1.5014 H   0  0  0  0  0  0  0  0  0  0  0  0 
    1.7049   -3.9159    3.1212 H   0  0  0  0  0  0  0  0  0  0  0  0 
    3.4729   -4.4526    4.9343 H   0  0  0  0  0  0  0  0  0  0  0  0 
    2.1833   -4.8649    6.0568 H   0  0  0  0  0  0  0  0  0  0  0  0 
    3.5552   -6.4098    4.0982 H   0  0  0  0  0  0  0  0  0  0  0  0 
  1 10  1  0  0  0  0 
  2 19  1  0  0  0  0 
  2 18  1  0  0  0  0 
  2  3  1  0  0  0  0 
  3 20  1  0  0  0  0 
  3  5  1  0  0  0  0 
  4  2  1  0  0  0  0 
  5 24  1  0  0  0  0 
  5 25  1  0  0  0  0 
  6 26  1  0  0  0  0 
  6  4  1  0  0  0  0 
  7  5  1  0  0  0  0 
  7 28  1  0  0  0  0 
  8  6  1  0  0  0  0 
  8 31  1  0  0  0  0 
  9 11  1  0  0  0  0 
  9 33  1  0  0  0  0 
  9  7  1  0  0  0  0 
 10  8  1  0  0  0  0 
 10 12  2  0  0  0  0 
 11 13  2  0  0  0  0 
 14 11  1  0  0  0  0 
 15  1  1  0  0  0  0 
 16  1  1  0  0  0  0 
 17  1  1  0  0  0  0 
 21  3  1  0  0  0  0 
 22  4  1  0  0  0  0 
 23  4  1  0  0  0  0 
 27  6  1  0  0  0  0 
 29  7  1  0  0  0  0 
 30  8  1  0  0  0  0 
 32  9  1  0  0  0  0 
 34 14  1  0  0  0  0 
M  END 
>  <HBA> 
3 
 
>  <HBD> 
1 
 
>  <TPSA> 
54.37 
 
>  <cid> 
69606 
 
>  <dipole> 
8.26 
 
>  <excitation_energy_1> 
4.437 
 
>  <excitation_energy_2> 
5.064 
 
>  <excitation_energy_3> 
5.673 
 
>  <excitation_energy_4> 
6.106 
 
>  <homo_energy> 
-6.683 
 
>  <homo_lumo_gap> 
5.521 
 
>  <logP> 
2.781 
 
>  <lumo_energy> 
-1.162 
 
>  <melting_point> 
68.67 
 
>  <molecular_refractivity> 
56.96 
 
>  <oscillator_strength_1> 
0.0005 
 
>  <oscillator_strength_2> 
0.0005 
 
>  <oscillator_strength_3> 
0.0006 
 
>  <oscillator_strength_4> 
0.0043 
 
>  <open_babel_can_smiles> 
CC(=O)CCCCCCCCC(=O)O 
 
>  <mulliken_charges> 
34 
1   -0.535975 
2   -0.269685 
3   -0.262132 
4   -0.260957 
5   -0.269696 
6   -0.278733 
7   -0.254947 
8   -0.341447 
9   -0.394388 
10   0.460333 
11   0.592976 
12   -0.452397 
13   -0.458623 
14   -0.601866 
15   0.182507 
16   0.190658 
17   0.176124 
18   0.139328 
19   0.138262 
20   0.135111 
21   0.13431 
22   0.140607 
23   0.133574 
24   0.132327 
25   0.137475 
26   0.159221 
27   0.142408 
28   0.166646 
29   0.139896 
30   0.150732 
31   0.170457 
32   0.147558 
33   0.16551 
34   0.444823 
 
>  <lowdin_charges> 
34 
1   -0.472651 
2   -0.282804 
3   -0.282072 
4   -0.275526 
5   -0.278353 
6   -0.272757 
7   -0.268844 
8   -0.311294 
9   -0.323674 
10   0.189836 
11   0.192186 
12   -0.250555 
13   -0.262231 
14   -0.366195 
15   0.178841 
16   0.179095 
17   0.172691 
18   0.147518 
19   0.138651 
20   0.142668 
21   0.13908 
22   0.147972 
23   0.143526 
24   0.138681 
25   0.148751 
26   0.149882 
27   0.147152 
28   0.161082 
29   0.142852 
30   0.156784 
31   0.16492 
32   0.148654 
33   0.16096 
34   0.355175 
 
$$$$ 
 
