PCCDB-ID:  70744 
public computational chemistry database (PCCDB) project, http://pccdb.org 
 
 24 24  0  0  0  0  0  0  0  0999 V2000 
    1.0361   -0.0564   -0.1356 C   0  0  0  0  0  0  0  0  0  0  0  0 
    3.2039   -0.3001    2.9669 C   0  0  0  0  0  0  0  0  0  0  0  0 
    2.7514   -1.5062    2.1326 C   0  0  0  0  0  0  0  0  0  0  0  0 
    2.6361    1.0076    2.3978 C   0  0  0  0  0  0  0  0  0  0  0  0 
    3.1159   -1.3362    0.6485 C   0  0  0  0  0  0  0  0  0  0  0  0 
    3.0032    1.1821    0.9163 C   0  0  0  0  0  0  0  0  0  0  0  0 
    3.1914    0.1837   -1.3699 C   0  0  0  0  0  0  0  0  0  0  0  0 
    2.5753   -0.0127    0.0296 C   0  0  0  0  0  0  0  0  0  0  0  0 
    3.8112    1.1578   -1.7184 O   0  0  0  0  0  0  0  0  0  0  0  0 
    2.9936   -0.8302   -2.2610 O   0  0  0  0  0  0  0  0  0  0  0  0 
    0.5349   -0.1376    0.8327 H   0  0  0  0  0  0  0  0  0  0  0  0 
    0.7084   -0.9104   -0.7412 H   0  0  0  0  0  0  0  0  0  0  0  0 
    0.6744    0.8553   -0.6236 H   0  0  0  0  0  0  0  0  0  0  0  0 
    4.3027   -0.2493    2.9617 H   0  0  0  0  0  0  0  0  0  0  0  0 
    2.9005   -0.4292    4.0133 H   0  0  0  0  0  0  0  0  0  0  0  0 
    1.6658   -1.6383    2.2385 H   0  0  0  0  0  0  0  0  0  0  0  0 
    3.2101   -2.4284    2.5105 H   0  0  0  0  0  0  0  0  0  0  0  0 
    3.0198    1.8652    2.9640 H   0  0  0  0  0  0  0  0  0  0  0  0 
    1.5450    1.0206    2.5283 H   0  0  0  0  0  0  0  0  0  0  0  0 
    2.7465   -2.2076    0.0877 H   0  0  0  0  0  0  0  0  0  0  0  0 
    4.2102   -1.3467    0.5492 H   0  0  0  0  0  0  0  0  0  0  0  0 
    4.0894    1.3009    0.8260 H   0  0  0  0  0  0  0  0  0  0  0  0 
    2.5683    2.1038    0.5142 H   0  0  0  0  0  0  0  0  0  0  0  0 
    2.4946   -1.5499   -1.8418 H   0  0  0  0  0  0  0  0  0  0  0  0 
  1  8  1  0  0  0  0 
  1 11  1  0  0  0  0 
  2 15  1  0  0  0  0 
  3 16  1  0  0  0  0 
  3 17  1  0  0  0  0 
  3  2  1  0  0  0  0 
  4 19  1  0  0  0  0 
  4 18  1  0  0  0  0 
  4  2  1  0  0  0  0 
  5  3  1  0  0  0  0 
  6  4  1  0  0  0  0 
  7  8  1  0  0  0  0 
  8  5  1  0  0  0  0 
  8  6  1  0  0  0  0 
  9  7  2  0  0  0  0 
 10 24  1  0  0  0  0 
 10  7  1  0  0  0  0 
 12  1  1  0  0  0  0 
 13  1  1  0  0  0  0 
 14  2  1  0  0  0  0 
 20  5  1  0  0  0  0 
 21  5  1  0  0  0  0 
 22  6  1  0  0  0  0 
 23  6  1  0  0  0  0 
M  END 
>  <HBA> 
2 
 
>  <HBD> 
1 
 
>  <TPSA> 
37.3 
 
>  <cid> 
70744 
 
>  <dipole> 
4.35 
 
>  <excitation_energy_1> 
5.607 
 
>  <excitation_energy_2> 
6.36 
 
>  <excitation_energy_3> 
7.078 
 
>  <excitation_energy_4> 
7.151 
 
>  <homo_energy> 
-7.105 
 
>  <homo_lumo_gap> 
7.497 
 
>  <logP> 
2.041 
 
>  <lumo_energy> 
0.392 
 
>  <melting_point> 
90.53 
 
>  <molecular_refractivity> 
39.97 
 
>  <oscillator_strength_1> 
0.0016 
 
>  <oscillator_strength_2> 
0.0104 
 
>  <oscillator_strength_3> 
0.0018 
 
>  <oscillator_strength_4> 
0.0139 
 
>  <open_babel_can_smiles> 
OC(=O)C1(C)CCCCC1 
 
>  <mulliken_charges> 
24 
1   -0.464652 
2   -0.256743 
3   -0.264056 
4   -0.272164 
5   -0.280295 
6   -0.25715 
7   0.614291 
8   -0.039814 
9   -0.448591 
10   -0.581782 
11   0.163748 
12   0.130291 
13   0.168133 
14   0.133842 
15   0.134994 
16   0.134747 
17   0.139818 
18   0.139867 
19   0.130376 
20   0.113092 
21   0.15311 
22   0.151449 
23   0.147615 
24   0.409874 
 
>  <lowdin_charges> 
24 
1   -0.446495 
2   -0.273914 
3   -0.27644 
4   -0.279552 
5   -0.279198 
6   -0.271895 
7   0.193495 
8   -0.033514 
9   -0.238261 
10   -0.359997 
11   0.15784 
12   0.143363 
13   0.16283 
14   0.138367 
15   0.144842 
16   0.138576 
17   0.149214 
18   0.150152 
19   0.135723 
20   0.134037 
21   0.149214 
22   0.152366 
23   0.154734 
24   0.354514 
 
$$$$ 
 
