PCCDB-ID:  69815 
public computational chemistry database (PCCDB) project, http://pccdb.org 
 
 16 15  0  0  0  0  0  0  0  0999 V2000 
    0.4393    0.2377   -0.1556 C   0  0  0  0  0  0  0  0  0  0  0  0 
    5.0195    1.3304    2.2824 C   0  0  0  0  0  0  0  0  0  0  0  0 
    1.8995   -0.1887   -0.3370 C   0  0  0  0  0  0  0  0  0  0  0  0 
    5.1290    0.4897    1.2484 C   0  0  0  0  0  0  0  0  0  0  0  0 
    2.8192    0.4613    0.6870 C   0  0  0  0  0  0  0  0  0  0  0  0 
    4.1517    0.0190    0.4331 O   0  0  0  0  0  0  0  0  0  0  0  0 
   -0.2048   -0.2493   -0.8951 H   0  0  0  0  0  0  0  0  0  0  0  0 
    0.3203    1.3215   -0.2742 H   0  0  0  0  0  0  0  0  0  0  0  0 
    0.0638   -0.0309    0.8394 H   0  0  0  0  0  0  0  0  0  0  0  0 
    5.9125    1.6052    2.8318 H   0  0  0  0  0  0  0  0  0  0  0  0 
    4.0809    1.7609    2.6109 H   0  0  0  0  0  0  0  0  0  0  0  0 
    2.2503    0.0765   -1.3419 H   0  0  0  0  0  0  0  0  0  0  0  0 
    1.9900   -1.2784   -0.2494 H   0  0  0  0  0  0  0  0  0  0  0  0 
    6.0871    0.0756    0.9446 H   0  0  0  0  0  0  0  0  0  0  0  0 
    2.5285    0.1831    1.7112 H   0  0  0  0  0  0  0  0  0  0  0  0 
    2.7758    1.5585    0.6158 H   0  0  0  0  0  0  0  0  0  0  0  0 
  1  9  1  0  0  0  0 
  2 11  1  0  0  0  0 
  2 10  1  0  0  0  0 
  3 13  1  0  0  0  0 
  3  1  1  0  0  0  0 
  3  5  1  0  0  0  0 
  4  2  2  0  0  0  0 
  5 15  1  0  0  0  0 
  6  5  1  0  0  0  0 
  6  4  1  0  0  0  0 
  7  1  1  0  0  0  0 
  8  1  1  0  0  0  0 
 12  3  1  0  0  0  0 
 14  4  1  0  0  0  0 
 16  5  1  0  0  0  0 
M  END 
>  <HBA> 
1 
 
>  <HBD> 
0 
 
>  <TPSA> 
9.23 
 
>  <cid> 
69815 
 
>  <dipole> 
1.0 
 
>  <excitation_energy_1> 
5.856 
 
>  <excitation_energy_2> 
6.07 
 
>  <excitation_energy_3> 
6.282 
 
>  <excitation_energy_4> 
6.685 
 
>  <homo_energy> 
-6.057 
 
>  <homo_lumo_gap> 
7.331 
 
>  <logP> 
1.556 
 
>  <lumo_energy> 
1.274 
 
>  <melting_point> 
-55.45 
 
>  <molecular_refractivity> 
26.76 
 
>  <oscillator_strength_1> 
0.0454 
 
>  <oscillator_strength_2> 
0.001 
 
>  <oscillator_strength_3> 
0.0054 
 
>  <oscillator_strength_4> 
0.1339 
 
>  <open_babel_can_smiles> 
CCCOC=C 
 
>  <mulliken_charges> 
16 
1   -0.453163 
2   -0.401929 
3   -0.268776 
4   0.157655 
5   -0.022717 
6   -0.451365 
7   0.152817 
8   0.146674 
9   0.14641 
10   0.139791 
11   0.139866 
12   0.150515 
13   0.150253 
14   0.139941 
15   0.137061 
16   0.136968 
 
>  <lowdin_charges> 
16 
1   -0.44373 
2   -0.433359 
3   -0.275247 
4   -0.035326 
5   -0.122704 
6   -0.198874 
7   0.157137 
8   0.147059 
9   0.148298 
10   0.168152 
11   0.160928 
12   0.150203 
13   0.148607 
14   0.157138 
15   0.136605 
16   0.135115 
 
$$$$ 
 
