PCCDB-ID:  10200 
public computational chemistry database (PCCDB) project, http://pccdb.org 
 
 17 18  0  0  0  0  0  0  0  0999 V2000 
    2.1309   -0.6811   -0.0136 C   0  0  0  0  0  0  0  0  0  0  0  0 
    2.1083    0.7292    0.0127 C   0  0  0  0  0  0  0  0  0  0  0  0 
    0.9537   -1.4169   -0.0171 C   0  0  0  0  0  0  0  0  0  0  0  0 
    0.9095    1.4310    0.0364 C   0  0  0  0  0  0  0  0  0  0  0  0 
   -2.4201   -0.0131    0.0347 C   0  0  0  0  0  0  0  0  0  0  0  0 
   -0.2747   -0.7348    0.0062 C   0  0  0  0  0  0  0  0  0  0  0  0 
   -0.2762    0.6876    0.0323 C   0  0  0  0  0  0  0  0  0  0  0  0 
   -1.6536   -1.1505    0.0092 C   0  0  0  0  0  0  0  0  0  0  0  0 
   -1.5912    1.0981    0.0495 N   0  0  0  0  0  0  0  0  0  0  0  0 
   -2.1699   -2.8504   -0.0205 S   0  0  0  0  0  0  0  0  0  0  0  0 
    3.0869   -1.1969   -0.0306 H   0  0  0  0  0  0  0  0  0  0  0  0 
    3.0462    1.2778    0.0149 H   0  0  0  0  0  0  0  0  0  0  0  0 
    0.9812   -2.5032   -0.0362 H   0  0  0  0  0  0  0  0  0  0  0  0 
    0.8934    2.5177    0.0565 H   0  0  0  0  0  0  0  0  0  0  0  0 
   -3.4950    0.1001    0.0450 H   0  0  0  0  0  0  0  0  0  0  0  0 
   -1.9068    2.0548    0.0695 H   0  0  0  0  0  0  0  0  0  0  0  0 
   -3.4969   -2.6094    0.0116 H   0  0  0  0  0  0  0  0  0  0  0  0 
  1  2  1  0  0  0  0 
  2 12  1  0  0  0  0 
  2  4  2  0  0  0  0 
  3  1  2  0  0  0  0 
  3  6  1  0  0  0  0 
  4 14  1  0  0  0  0 
  5 15  1  0  0  0  0 
  5  9  1  0  0  0  0 
  6  8  1  0  0  0  0 
  6  7  2  0  0  0  0 
  7  4  1  0  0  0  0 
  7  9  1  0  0  0  0 
  8  5  2  0  0  0  0 
  9 16  1  0  0  0  0 
 10  8  1  0  0  0  0 
 10 17  1  0  0  0  0 
 11  1  1  0  0  0  0 
 13  3  1  0  0  0  0 
M  END 
>  <HBA> 
1 
 
>  <HBD> 
2 
 
>  <TPSA> 
54.59 
 
>  <cid> 
10200 
 
>  <dipole> 
3.22 
 
>  <excitation_energy_1> 
4.17 
 
>  <excitation_energy_2> 
4.226 
 
>  <excitation_energy_3> 
4.532 
 
>  <excitation_energy_4> 
4.758 
 
>  <homo_energy> 
-5.146 
 
>  <homo_lumo_gap> 
4.893 
 
>  <logP> 
2.457 
 
>  <lumo_energy> 
-0.253 
 
>  <melting_point> 
120.7 
 
>  <molecular_refractivity> 
45.55 
 
>  <oscillator_strength_1> 
0.0591 
 
>  <oscillator_strength_2> 
0.0009 
 
>  <oscillator_strength_3> 
0.0017 
 
>  <oscillator_strength_4> 
0.0066 
 
>  <open_babel_can_smiles> 
Sc1c[nH]c2c1cccc2 
 
>  <mulliken_charges> 
17 
1   -0.139276 
2   -0.150535 
3   -0.202157 
4   -0.161664 
5   0.027311 
6   0.096345 
7   0.322639 
8   -0.165793 
9   -0.683302 
10   -0.022864 
11   0.123689 
12   0.124817 
13   0.138421 
14   0.122436 
15   0.149077 
16   0.329104 
17   0.091752 
 
>  <lowdin_charges> 
17 
1   -0.174327 
2   -0.162145 
3   -0.154908 
4   -0.183727 
5   -0.14388 
6   -0.034928 
7   0.034684 
8   -0.177148 
9   -0.197817 
10   -0.008209 
11   0.15637 
12   0.156863 
13   0.161012 
14   0.154046 
15   0.164013 
16   0.291626 
17   0.118473 
 
$$$$ 
 
