PCCDB-ID:  15619 
public computational chemistry database (PCCDB) project, http://pccdb.org 
 
 22 21  0  0  0  0  0  0  0  0999 V2000 
    0.4971   -2.1346    0.5594 C   0  0  0  0  0  0  0  0  0  0  0  0 
    1.7607   -1.1918   -1.4247 C   0  0  0  0  0  0  0  0  0  0  0  0 
    3.4368   -1.0367    3.1663 C   0  0  0  0  0  0  0  0  0  0  0  0 
    4.8898   -1.7725    0.0357 C   0  0  0  0  0  0  0  0  0  0  0  0 
    1.8796   -1.8868   -0.0614 C   0  0  0  0  0  0  0  0  0  0  0  0 
    2.7585   -1.0631    0.8930 C   0  0  0  0  0  0  0  0  0  0  0  0 
    2.8905   -1.7903    2.0935 O   0  0  0  0  0  0  0  0  0  0  0  0 
    4.0195   -0.6938    0.3589 O   0  0  0  0  0  0  0  0  0  0  0  0 
   -0.1281   -2.7283   -0.1174 H   0  0  0  0  0  0  0  0  0  0  0  0 
   -0.0240   -1.1855    0.7436 H   0  0  0  0  0  0  0  0  0  0  0  0 
    0.5795   -2.6659    1.5107 H   0  0  0  0  0  0  0  0  0  0  0  0 
    1.1560   -1.7951   -2.1111 H   0  0  0  0  0  0  0  0  0  0  0  0 
    2.7388   -1.0236   -1.8843 H   0  0  0  0  0  0  0  0  0  0  0  0 
    1.2719   -0.2144   -1.3236 H   0  0  0  0  0  0  0  0  0  0  0  0 
    3.4780   -1.7042    4.0306 H   0  0  0  0  0  0  0  0  0  0  0  0 
    2.8005   -0.1721    3.4100 H   0  0  0  0  0  0  0  0  0  0  0  0 
    4.4456   -0.6741    2.9353 H   0  0  0  0  0  0  0  0  0  0  0  0 
    5.8737   -1.3295   -0.1387 H   0  0  0  0  0  0  0  0  0  0  0  0 
    4.5751   -2.2974   -0.8769 H   0  0  0  0  0  0  0  0  0  0  0  0 
    4.9575   -2.4951    0.8569 H   0  0  0  0  0  0  0  0  0  0  0  0 
    2.3678   -2.8615   -0.1982 H   0  0  0  0  0  0  0  0  0  0  0  0 
    2.2785   -0.0920    1.0939 H   0  0  0  0  0  0  0  0  0  0  0  0 
  1 10  1  0  0  0  0 
  1 11  1  0  0  0  0 
  2 14  1  0  0  0  0 
  2  5  1  0  0  0  0 
  3 16  1  0  0  0  0 
  3 15  1  0  0  0  0 
  4  8  1  0  0  0  0 
  4 20  1  0  0  0  0 
  5  1  1  0  0  0  0 
  5  6  1  0  0  0  0 
  6 22  1  0  0  0  0 
  6  7  1  0  0  0  0 
  7  3  1  0  0  0  0 
  8  6  1  0  0  0  0 
  9  1  1  0  0  0  0 
 12  2  1  0  0  0  0 
 13  2  1  0  0  0  0 
 17  3  1  0  0  0  0 
 18  4  1  0  0  0  0 
 19  4  1  0  0  0  0 
 21  5  1  0  0  0  0 
M  END 
>  <HBA> 
2 
 
>  <HBD> 
0 
 
>  <TPSA> 
18.46 
 
>  <cid> 
15619 
 
>  <dipole> 
0.42 
 
>  <excitation_energy_1> 
6.715 
 
>  <excitation_energy_2> 
6.952 
 
>  <excitation_energy_3> 
7.04 
 
>  <excitation_energy_4> 
7.185 
 
>  <homo_energy> 
-7.031 
 
>  <homo_lumo_gap> 
9.481 
 
>  <logP> 
1.261 
 
>  <lumo_energy> 
2.449 
 
>  <melting_point> 
-44.46 
 
>  <molecular_refractivity> 
33.13 
 
>  <oscillator_strength_1> 
0.0096 
 
>  <oscillator_strength_2> 
0.0119 
 
>  <oscillator_strength_3> 
0.0037 
 
>  <oscillator_strength_4> 
0.0071 
 
>  <open_babel_can_smiles> 
COC(C(C)C)OC 
 
>  <mulliken_charges> 
22 
1   -0.445925 
2   -0.446184 
3   -0.204372 
4   -0.215827 
5   -0.119763 
6   0.380226 
7   -0.476534 
8   -0.480873 
9   0.139322 
10   0.134302 
11   0.164632 
12   0.141092 
13   0.157084 
14   0.140371 
15   0.155871 
16   0.133907 
17   0.151873 
18   0.154502 
19   0.136474 
20   0.153346 
21   0.134586 
22   0.111893 
 
>  <lowdin_charges> 
22 
1   -0.445381 
2   -0.445633 
3   -0.282893 
4   -0.289819 
5   -0.140952 
6   0.094739 
7   -0.264355 
8   -0.273242 
9   0.14994 
10   0.143835 
11   0.159664 
12   0.150808 
13   0.155723 
14   0.146994 
15   0.154898 
16   0.135991 
17   0.142761 
18   0.153763 
19   0.135131 
20   0.145651 
21   0.144725 
22   0.127652 
 
$$$$ 
 
