PCCDB-ID:  8988 
public computational chemistry database (PCCDB) project, http://pccdb.org 
 
 17 17  0  0  1  0  0  0  0  0999 V2000 
   -0.4726   -1.1597    0.1920 C   0  0  0  0  0  0  0  0  0  0  0  0 
    0.9376   -0.7918   -0.2964 C   0  0  0  0  0  0  0  0  0  0  0  0 
   -1.2263    0.1673    0.0539 C   0  0  0  0  0  0  0  0  0  0  0  0 
    1.1386    0.6390    0.2559 C   0  0  2  0  0  0  0  0  0  0  0  0 
    1.9312    0.6287    1.5831 C   0  0  0  0  0  0  0  0  0  0  0  0 
   -0.2295    1.1737    0.4887 N   0  0  0  0  0  0  0  0  0  0  0  0 
    3.0733    0.2368    1.6535 O   0  0  0  0  0  0  0  0  0  0  0  0 
    1.2313    1.0823    2.6311 O   0  0  0  0  0  0  0  0  0  0  0  0 
   -0.4449   -1.4690    1.2438 H   0  0  0  0  0  0  0  0  0  0  0  0 
   -0.9345   -1.9662   -0.3846 H   0  0  0  0  0  0  0  0  0  0  0  0 
    0.9635   -0.7739   -1.3921 H   0  0  0  0  0  0  0  0  0  0  0  0 
    1.7228   -1.4686    0.0478 H   0  0  0  0  0  0  0  0  0  0  0  0 
   -2.1240    0.2236    0.6784 H   0  0  0  0  0  0  0  0  0  0  0  0 
   -1.5311    0.3227   -0.9924 H   0  0  0  0  0  0  0  0  0  0  0  0 
    1.7111    1.2573   -0.4441 H   0  0  0  0  0  0  0  0  0  0  0  0 
   -0.3710    2.0716    0.0354 H   0  0  0  0  0  0  0  0  0  0  0  0 
    0.3432    1.3070    2.2402 H   0  0  0  0  0  0  0  0  0  0  0  0 
  1  9  1  0  0  0  0 
  2 12  1  0  0  0  0 
  2  1  1  0  0  0  0 
  2  4  1  0  0  0  0 
  3  1  1  0  0  0  0 
  3  6  1  0  0  0  0 
  3 13  1  0  0  0  0 
  4 15  1  6  0  0  0 
  4  6  1  0  0  0  0 
  4  5  1  0  0  0  0 
  5  7  2  0  0  0  0 
  5  8  1  0  0  0  0 
 10  1  1  0  0  0  0 
 11  2  1  0  0  0  0 
 14  3  1  0  0  0  0 
 16  6  1  0  0  0  0 
 17  8  1  0  0  0  0 
M  END 
>  <HBA> 
3 
 
>  <HBD> 
2 
 
>  <TPSA> 
49.33 
 
>  <cid> 
8988 
 
>  <dipole> 
5.64 
 
>  <excitation_energy_1> 
5.367 
 
>  <excitation_energy_2> 
5.727 
 
>  <excitation_energy_3> 
6.484 
 
>  <excitation_energy_4> 
6.527 
 
>  <homo_energy> 
-6.55 
 
>  <homo_lumo_gap> 
7.108 
 
>  <logP> 
0.152 
 
>  <lumo_energy> 
0.558 
 
>  <melting_point> 
101.02 
 
>  <molecular_refractivity> 
32.52 
 
>  <oscillator_strength_1> 
0.0011 
 
>  <oscillator_strength_2> 
0.0003 
 
>  <oscillator_strength_3> 
0.0002 
 
>  <oscillator_strength_4> 
0.0052 
 
>  <open_babel_can_smiles> 
OC(=O)[C@H]1CCCN1 
 
>  <mulliken_charges> 
17 
1   -0.291606 
2   -0.286245 
3   -0.119255 
4   -0.064544 
5   0.593324 
6   -0.632733 
7   -0.470336 
8   -0.57864 
9   0.16175 
10   0.153976 
11   0.145386 
12   0.183716 
13   0.15542 
14   0.136277 
15   0.167195 
16   0.319738 
17   0.426577 
 
>  <lowdin_charges> 
17 
1   -0.284753 
2   -0.276481 
3   -0.2015 
4   -0.109447 
5   0.164188 
6   -0.373135 
7   -0.263695 
8   -0.357023 
9   0.152953 
10   0.158508 
11   0.147255 
12   0.171727 
13   0.151288 
14   0.132509 
15   0.165469 
16   0.268361 
17   0.353777 
 
$$$$ 
 
