PCCDB-ID:  9234 
public computational chemistry database (PCCDB) project, http://pccdb.org 
 
 17 18  0  0  1  0  0  0  0  0999 V2000 
   -1.2640   -0.7839   -0.5239 C   0  0  0  0  0  0  0  0  0  0  0  0 
   -1.2705    0.7759   -0.5215 C   0  0  0  0  0  0  0  0  0  0  0  0 
    1.2704   -0.7758   -0.5221 C   0  0  0  0  0  0  0  0  0  0  0  0 
    1.2639    0.7840   -0.5240 C   0  0  0  0  0  0  0  0  0  0  0  0 
    0.0037   -1.0752    0.3109 C   0  0  1  0  0  0  0  0  0  0  0  0 
   -0.0035    1.0750    0.3113 C   0  0  2  0  0  0  0  0  0  0  0  0 
    0.0002   -0.0002    1.2715 O   0  0  0  0  0  0  0  0  0  0  0  0 
   -1.2137   -1.2147   -1.5292 H   0  0  0  0  0  0  0  0  0  0  0  0 
   -2.1522   -1.1859   -0.0276 H   0  0  0  0  0  0  0  0  0  0  0  0 
   -2.1605    1.1684   -0.0209 H   0  0  0  0  0  0  0  0  0  0  0  0 
   -1.2272    1.2105   -1.5255 H   0  0  0  0  0  0  0  0  0  0  0  0 
    2.1606   -1.1685   -0.0218 H   0  0  0  0  0  0  0  0  0  0  0  0 
    1.2268   -1.2100   -1.5262 H   0  0  0  0  0  0  0  0  0  0  0  0 
    1.2134    1.2151   -1.5291 H   0  0  0  0  0  0  0  0  0  0  0  0 
    2.1523    1.1858   -0.0279 H   0  0  0  0  0  0  0  0  0  0  0  0 
    0.0064   -2.0304    0.8392 H   0  0  0  0  0  0  0  0  0  0  0  0 
   -0.0060    2.0301    0.8398 H   0  0  0  0  0  0  0  0  0  0  0  0 
  1  2  1  0  0  0  0 
  1  9  1  0  0  0  0 
  1  5  1  0  0  0  0 
  2 10  1  0  0  0  0 
  2  6  1  0  0  0  0 
  3 12  1  0  0  0  0 
  3  5  1  0  0  0  0 
  4  3  1  0  0  0  0 
  4 15  1  0  0  0  0 
  4  6  1  0  0  0  0 
  5 16  1  1  0  0  0 
  5  7  1  0  0  0  0 
  6 17  1  1  0  0  0 
  6  7  1  0  0  0  0 
  8  1  1  0  0  0  0 
 11  2  1  0  0  0  0 
 13  3  1  0  0  0  0 
 14  4  1  0  0  0  0 
M  END 
>  <HBA> 
1 
 
>  <HBD> 
0 
 
>  <TPSA> 
9.23 
 
>  <cid> 
9234 
 
>  <dipole> 
1.53 
 
>  <excitation_energy_1> 
6.34 
 
>  <excitation_energy_2> 
6.865 
 
>  <excitation_energy_3> 
7.09 
 
>  <excitation_energy_4> 
7.109 
 
>  <homo_energy> 
-6.778 
 
>  <homo_lumo_gap> 
8.898 
 
>  <logP> 
1.328 
 
>  <lumo_energy> 
2.12 
 
>  <melting_point> 
9.64 
 
>  <molecular_refractivity> 
27.81 
 
>  <oscillator_strength_1> 
0.0171 
 
>  <oscillator_strength_2> 
0.0 
 
>  <oscillator_strength_3> 
0.0002 
 
>  <oscillator_strength_4> 
0.0028 
 
>  <open_babel_can_smiles> 
C1C[C@@H]2O[C@H]1CC2 
 
>  <mulliken_charges> 
17 
1   -0.278202 
2   -0.277909 
3   -0.277829 
4   -0.278334 
5   0.104408 
6   0.104461 
7   -0.480774 
8   0.134308 
9   0.146644 
10   0.146671 
11   0.134256 
12   0.146672 
13   0.134256 
14   0.134319 
15   0.146655 
16   0.130198 
17   0.1302 
 
>  <lowdin_charges> 
17 
1   -0.296533 
2   -0.296467 
3   -0.296458 
4   -0.296547 
5   -0.008167 
6   -0.008166 
7   -0.281343 
8   0.144813 
9   0.152206 
10   0.152195 
11   0.144818 
12   0.152194 
13   0.144816 
14   0.144818 
15   0.152207 
16   0.147805 
17   0.147808 
 
$$$$ 
 
