PCCDB-ID:  31572 
public computational chemistry database (PCCDB) project, http://pccdb.org 
 
 24 25  0  0  1  0  0  0  0  0999 V2000 
   -0.7979    3.8859   -0.9089 C   0  0  0  0  0  0  0  0  0  0  0  0 
   -1.1073    2.6841   -0.2651 C   0  0  0  0  0  0  0  0  0  0  0  0 
    0.5339    4.2819   -1.0415 C   0  0  0  0  0  0  0  0  0  0  0  0 
   -0.0885    1.8851    0.2432 C   0  0  0  0  0  0  0  0  0  0  0  0 
    1.5558    3.4839   -0.5277 C   0  0  0  0  0  0  0  0  0  0  0  0 
    4.9874   -0.2026    0.9386 C   0  0  0  0  0  0  0  0  0  0  0  0 
    5.4252    0.0463   -0.5265 C   0  0  0  0  0  0  0  0  0  0  0  0 
    1.2550    2.2758    0.1215 C   0  0  0  0  0  0  0  0  0  0  0  0 
    2.2932    1.3685    0.7102 C   0  0  0  0  0  0  0  0  0  0  0  0 
    3.7646    1.7994    0.6420 C   0  0  1  0  0  0  0  0  0  0  0  0 
    4.6095    1.0743    1.5466 N   0  0  0  0  0  0  0  0  0  0  0  0 
    1.9803    0.3092    1.2289 O   0  0  0  0  0  0  0  0  0  0  0  0 
    4.3663    1.4197   -1.1461 S   0  0  0  0  0  0  0  0  0  0  0  0 
   -1.5927    4.5109   -1.3073 H   0  0  0  0  0  0  0  0  0  0  0  0 
   -2.1430    2.3724   -0.1617 H   0  0  0  0  0  0  0  0  0  0  0  0 
    0.7789    5.2124   -1.5460 H   0  0  0  0  0  0  0  0  0  0  0  0 
   -0.3054    0.9475    0.7440 H   0  0  0  0  0  0  0  0  0  0  0  0 
    2.5843    3.8081   -0.6514 H   0  0  0  0  0  0  0  0  0  0  0  0 
    5.7905   -0.6626    1.5235 H   0  0  0  0  0  0  0  0  0  0  0  0 
    4.1171   -0.8599    0.9644 H   0  0  0  0  0  0  0  0  0  0  0  0 
    5.2736   -0.8385   -1.1503 H   0  0  0  0  0  0  0  0  0  0  0  0 
    6.4764    0.3457   -0.5880 H   0  0  0  0  0  0  0  0  0  0  0  0 
    3.8639    2.8719    0.8155 H   0  0  0  0  0  0  0  0  0  0  0  0 
    5.4481    1.6255    1.7189 H   0  0  0  0  0  0  0  0  0  0  0  0 
  1  2  1  0  0  0  0 
  2 15  1  0  0  0  0 
  2  4  2  0  0  0  0 
  3  1  2  0  0  0  0 
  3  5  1  0  0  0  0 
  4 17  1  0  0  0  0 
  5  8  2  0  0  0  0 
  6 20  1  0  0  0  0 
  6 19  1  0  0  0  0 
  6 11  1  0  0  0  0 
  7  6  1  0  0  0  0 
  8  4  1  0  0  0  0 
  8  9  1  0  0  0  0 
  9 12  2  0  0  0  0 
 10  9  1  0  0  0  0 
 10 23  1  1  0  0  0 
 10 11  1  0  0  0  0 
 11 24  1  0  0  0  0 
 13  7  1  0  0  0  0 
 13 10  1  0  0  0  0 
 14  1  1  0  0  0  0 
 16  3  1  0  0  0  0 
 18  5  1  0  0  0  0 
 21  7  1  0  0  0  0 
 22  7  1  0  0  0  0 
M  END 
>  <HBA> 
3 
 
>  <HBD> 
1 
 
>  <TPSA> 
54.4 
 
>  <cid> 
31572 
 
>  <dipole> 
2.03 
 
>  <excitation_energy_1> 
3.382 
 
>  <excitation_energy_2> 
3.8 
 
>  <excitation_energy_3> 
4.48 
 
>  <excitation_energy_4> 
4.631 
 
>  <homo_energy> 
-6.008 
 
>  <homo_lumo_gap> 
4.433 
 
>  <logP> 
1.861 
 
>  <lumo_energy> 
-1.576 
 
>  <melting_point> 
95.61 
 
>  <molecular_refractivity> 
58.44 
 
>  <oscillator_strength_1> 
0.0192 
 
>  <oscillator_strength_2> 
0.0015 
 
>  <oscillator_strength_3> 
0.0312 
 
>  <oscillator_strength_4> 
0.0187 
 
>  <open_babel_can_smiles> 
O=C(c1ccccc1)[C@H]1NCCS1 
 
>  <mulliken_charges> 
24 
1   -0.117917 
2   -0.13272 
3   -0.135889 
4   -0.154025 
5   -0.180674 
6   -0.168046 
7   -0.421597 
8   0.086248 
9   0.458322 
10   -0.251353 
11   -0.485243 
12   -0.462399 
13   0.044694 
14   0.138054 
15   0.138828 
16   0.137768 
17   0.165103 
18   0.144367 
19   0.15373 
20   0.201398 
21   0.183448 
22   0.16891 
23   0.178323 
24   0.310672 
 
>  <lowdin_charges> 
24 
1   -0.140072 
2   -0.152958 
3   -0.155004 
4   -0.125071 
5   -0.146939 
6   -0.21532 
7   -0.386916 
8   -0.044943 
9   0.151891 
10   -0.182581 
11   -0.310502 
12   -0.234444 
13   0.032974 
14   0.162971 
15   0.160851 
16   0.161551 
17   0.17728 
18   0.16383 
19   0.156003 
20   0.172233 
21   0.171133 
22   0.153872 
23   0.165532 
24   0.264627 
 
$$$$ 
 
