PCCDB-ID:  70749 
public computational chemistry database (PCCDB) project, http://pccdb.org 
 
 16 17  0  0  0  0  0  0  0  0999 V2000 
   -2.2037    0.6780   -0.0460 C   0  0  0  0  0  0  0  0  0  0  0  0 
   -1.0541    1.4559   -0.0095 C   0  0  0  0  0  0  0  0  0  0  0  0 
   -0.8969   -1.3692   -0.0579 C   0  0  0  0  0  0  0  0  0  0  0  0 
    2.4289   -0.1612    0.0314 C   0  0  0  0  0  0  0  0  0  0  0  0 
   -2.1426   -0.7363   -0.0714 C   0  0  0  0  0  0  0  0  0  0  0  0 
    0.2691   -0.5953   -0.0229 C   0  0  0  0  0  0  0  0  0  0  0  0 
    0.1878    0.8172    0.0019 C   0  0  0  0  0  0  0  0  0  0  0  0 
   -3.3245   -1.4800   -0.1673 N   0  0  0  0  0  0  0  0  0  0  0  0 
    1.5587   -1.1150   -0.0044 N   0  0  0  0  0  0  0  0  0  0  0  0 
    1.8076    1.4915    0.0488 S   0  0  0  0  0  0  0  0  0  0  0  0 
   -3.1764    1.1638   -0.0633 H   0  0  0  0  0  0  0  0  0  0  0  0 
   -1.1313    2.5388    0.0107 H   0  0  0  0  0  0  0  0  0  0  0  0 
   -0.8142   -2.4520   -0.0789 H   0  0  0  0  0  0  0  0  0  0  0  0 
    3.5009   -0.3268    0.0502 H   0  0  0  0  0  0  0  0  0  0  0  0 
   -4.1437   -1.0249    0.2165 H   0  0  0  0  0  0  0  0  0  0  0  0 
   -3.2499   -2.4350    0.1612 H   0  0  0  0  0  0  0  0  0  0  0  0 
  1  2  2  0  0  0  0 
  2  7  1  0  0  0  0 
  2 12  1  0  0  0  0 
  3  6  1  0  0  0  0 
  4 10  1  0  0  0  0 
  4 14  1  0  0  0  0 
  5  3  2  0  0  0  0 
  5  1  1  0  0  0  0 
  6  9  1  0  0  0  0 
  6  7  2  0  0  0  0 
  7 10  1  0  0  0  0 
  8  5  1  0  0  0  0 
  8 16  1  0  0  0  0 
  8 15  1  0  0  0  0 
  9  4  2  0  0  0  0 
 11  1  1  0  0  0  0 
 13  3  1  0  0  0  0 
M  END 
>  <HBA> 
3 
 
>  <HBD> 
1 
 
>  <TPSA> 
67.15 
 
>  <cid> 
70749 
 
>  <dipole> 
2.26 
 
>  <excitation_energy_1> 
3.998 
 
>  <excitation_energy_2> 
4.621 
 
>  <excitation_energy_3> 
4.846 
 
>  <excitation_energy_4> 
4.932 
 
>  <homo_energy> 
-5.48 
 
>  <homo_lumo_gap> 
4.631 
 
>  <logP> 
2.46 
 
>  <lumo_energy> 
-0.849 
 
>  <melting_point> 
112.54 
 
>  <molecular_refractivity> 
44.02 
 
>  <oscillator_strength_1> 
0.0428 
 
>  <oscillator_strength_2> 
0.0015 
 
>  <oscillator_strength_3> 
0.001 
 
>  <oscillator_strength_4> 
0.0033 
 
>  <open_babel_can_smiles> 
Nc1ccc2c(c1)ncs2 
 
>  <mulliken_charges> 
16 
1   -0.157143 
2   -0.180229 
3   -0.201748 
4   -0.116744 
5   0.301828 
6   0.269395 
7   -0.14048 
8   -0.789351 
9   -0.417917 
10   0.208941 
11   0.123215 
12   0.142916 
13   0.133531 
14   0.181288 
15   0.31992 
16   0.322579 
 
>  <lowdin_charges> 
16 
1   -0.192044 
2   -0.147349 
3   -0.199478 
4   -0.210983 
5   0.05932 
6   0.026359 
7   -0.173035 
8   -0.487965 
9   -0.151413 
10   0.260353 
11   0.156678 
12   0.16374 
13   0.164188 
14   0.179701 
15   0.27621 
16   0.275717 
 
$$$$ 
 
