PCCDB-ID:  26123 
public computational chemistry database (PCCDB) project, http://pccdb.org 
 
 33 33  0  0  1  0  0  0  0  0999 V2000 
    0.9052   -0.0033   -0.2723 C   0  0  0  0  0  0  0  0  0  0  0  0 
    2.6368   -0.2683    1.5272 C   0  0  0  0  0  0  0  0  0  0  0  0 
    4.4904   -0.1017   -2.7708 C   0  0  0  0  0  0  0  0  0  0  0  0 
    5.5691   -0.3525   -0.5171 C   0  0  0  0  0  0  0  0  0  0  0  0 
    4.7710    2.8999   -0.7462 C   0  0  0  0  0  0  0  0  0  0  0  0 
    2.8243    2.9561    0.6137 C   0  0  0  0  0  0  0  0  0  0  0  0 
    3.2964    0.9894   -0.7045 C   0  0  2  0  0  0  0  0  0  0  0  0 
    3.1758   -1.1970   -0.7895 C   0  0  2  0  0  0  0  0  0  0  0  0 
    2.4061   -0.0909    0.0191 C   0  0  0  0  0  0  0  0  0  0  0  0 
    4.2414   -0.1425   -1.2604 C   0  0  0  0  0  0  0  0  0  0  0  0 
    3.8651    2.0887    0.0651 N   0  0  0  0  0  0  0  0  0  0  0  0 
    2.4605   -1.9083   -1.7838 O   0  0  0  0  0  0  0  0  0  0  0  0 
    0.4539    0.8471    0.2527 H   0  0  0  0  0  0  0  0  0  0  0  0 
    0.3899   -0.9143    0.0532 H   0  0  0  0  0  0  0  0  0  0  0  0 
    0.6931    0.1301   -1.3399 H   0  0  0  0  0  0  0  0  0  0  0  0 
    2.1212    0.4961    2.1183 H   0  0  0  0  0  0  0  0  0  0  0  0 
    3.6956   -0.2283    1.7947 H   0  0  0  0  0  0  0  0  0  0  0  0 
    2.2431   -1.2434    1.8417 H   0  0  0  0  0  0  0  0  0  0  0  0 
    5.1733    0.7158   -3.0310 H   0  0  0  0  0  0  0  0  0  0  0  0 
    3.5686    0.0567   -3.3434 H   0  0  0  0  0  0  0  0  0  0  0  0 
    4.9369   -1.0403   -3.1191 H   0  0  0  0  0  0  0  0  0  0  0  0 
    6.3319    0.3754   -0.8135 H   0  0  0  0  0  0  0  0  0  0  0  0 
    5.9627   -1.3497   -0.7523 H   0  0  0  0  0  0  0  0  0  0  0  0 
    5.4546   -0.2808    0.5674 H   0  0  0  0  0  0  0  0  0  0  0  0 
    5.2104    3.6864   -0.1225 H   0  0  0  0  0  0  0  0  0  0  0  0 
    4.2598    3.3889   -1.5998 H   0  0  0  0  0  0  0  0  0  0  0  0 
    5.5851    2.2912   -1.1425 H   0  0  0  0  0  0  0  0  0  0  0  0 
    3.2890    3.7436    1.2176 H   0  0  0  0  0  0  0  0  0  0  0  0 
    2.1505    2.3913    1.2594 H   0  0  0  0  0  0  0  0  0  0  0  0 
    2.2171    3.4461   -0.1739 H   0  0  0  0  0  0  0  0  0  0  0  0 
    2.7118    1.3950   -1.5590 H   0  0  0  0  0  0  0  0  0  0  0  0 
    3.5974   -1.9819   -0.1531 H   0  0  0  0  0  0  0  0  0  0  0  0 
    2.0600   -1.2715   -2.3948 H   0  0  0  0  0  0  0  0  0  0  0  0 
  1  9  1  0  0  0  0 
  1 14  1  0  0  0  0 
  1 13  1  0  0  0  0 
  2 17  1  0  0  0  0 
  2 18  1  0  0  0  0 
  2 16  1  0  0  0  0 
  3 10  1  0  0  0  0 
  4 24  1  0  0  0  0 
  5 25  1  0  0  0  0 
  5 11  1  0  0  0  0 
  6 28  1  0  0  0  0 
  6 29  1  0  0  0  0 
  7 31  1  6  0  0  0 
  7  9  1  0  0  0  0 
  7 11  1  0  0  0  0 
  8 32  1  1  0  0  0 
  8  9  1  0  0  0  0 
  9  2  1  0  0  0  0 
 10  8  1  0  0  0  0 
 10  7  1  0  0  0  0 
 10  4  1  0  0  0  0 
 11  6  1  0  0  0  0 
 12  8  1  0  0  0  0 
 15  1  1  0  0  0  0 
 19  3  1  0  0  0  0 
 20  3  1  0  0  0  0 
 21  3  1  0  0  0  0 
 22  4  1  0  0  0  0 
 23  4  1  0  0  0  0 
 26  5  1  0  0  0  0 
 27  5  1  0  0  0  0 
 30  6  1  0  0  0  0 
 33 12  1  0  0  0  0 
M  END 
>  <HBA> 
2 
 
>  <HBD> 
1 
 
>  <TPSA> 
23.47 
 
>  <cid> 
26123 
 
>  <dipole> 
1.74 
 
>  <excitation_energy_1> 
5.297 
 
>  <excitation_energy_2> 
5.57 
 
>  <excitation_energy_3> 
5.767 
 
>  <excitation_energy_4> 
5.919 
 
>  <homo_energy> 
-5.785 
 
>  <homo_lumo_gap> 
7.339 
 
>  <logP> 
1.343 
 
>  <lumo_energy> 
1.554 
 
>  <melting_point> 
51.99 
 
>  <molecular_refractivity> 
51.61 
 
>  <oscillator_strength_1> 
0.0366 
 
>  <oscillator_strength_2> 
0.0094 
 
>  <oscillator_strength_3> 
0.0074 
 
>  <oscillator_strength_4> 
0.0207 
 
>  <open_babel_can_smiles> 
O[C@@H]1C(C)(C)[C@H](C1(C)C)N(C)C 
 
>  <mulliken_charges> 
33 
1   -0.460422 
2   -0.47089 
3   -0.460921 
4   -0.471119 
5   -0.302512 
6   -0.302366 
7   0.040905 
8   0.103733 
9   0.076879 
10   0.07718 
11   -0.381469 
12   -0.622275 
13   0.142749 
14   0.156005 
15   0.120997 
16   0.141855 
17   0.160658 
18   0.143703 
19   0.143002 
20   0.12112 
21   0.156021 
22   0.141878 
23   0.143771 
24   0.160736 
25   0.147689 
26   0.115848 
27   0.156393 
28   0.147641 
29   0.156498 
30   0.115829 
31   0.080979 
32   0.131031 
33   0.388872 
 
>  <lowdin_charges> 
33 
1   -0.443924 
2   -0.44244 
3   -0.4455 
4   -0.441102 
5   -0.360984 
6   -0.362307 
7   -0.075066 
8   -0.013267 
9   -0.015274 
10   -0.015474 
11   -0.178205 
12   -0.445399 
13   0.1508 
14   0.156846 
15   0.135717 
16   0.148394 
17   0.154916 
18   0.150259 
19   0.150857 
20   0.137444 
21   0.156608 
22   0.148007 
23   0.150017 
24   0.154411 
25   0.151203 
26   0.120374 
27   0.153528 
28   0.151102 
29   0.154085 
30   0.120912 
31   0.11034 
32   0.143446 
33   0.339676 
 
$$$$ 
 
