PCCDB-ID:  22054 
public computational chemistry database (PCCDB) project, http://pccdb.org 
 
 24 25  0  0  0  0  0  0  0  0999 V2000 
    3.7520   -0.1329   -0.8825 C   0  0  0  0  0  0  0  0  0  0  0  0 
    2.3002    3.2098    0.3613 C   0  0  0  0  0  0  0  0  0  0  0  0 
    2.5734    0.1494    0.0550 C   0  0  0  0  0  0  0  0  0  0  0  0 
    4.6643    0.1009    4.8814 C   0  0  0  0  0  0  0  0  0  0  0  0 
    4.4242   -1.0150    4.0557 C   0  0  0  0  0  0  0  0  0  0  0  0 
    4.3366    1.3895    4.4697 C   0  0  0  0  0  0  0  0  0  0  0  0 
    3.8519   -0.8759    2.7925 C   0  0  0  0  0  0  0  0  0  0  0  0 
    2.8726    2.2999    1.4004 C   0  0  0  0  0  0  0  0  0  0  0  0 
    3.7611    1.5519    3.2039 C   0  0  0  0  0  0  0  0  0  0  0  0 
    3.5278    0.4207    2.3868 C   0  0  0  0  0  0  0  0  0  0  0  0 
    3.3416    2.7054    2.5579 N   0  0  0  0  0  0  0  0  0  0  0  0 
    2.9465    0.9246    1.2310 N   0  0  0  0  0  0  0  0  0  0  0  0 
    3.4213   -0.7361   -1.7354 H   0  0  0  0  0  0  0  0  0  0  0  0 
    4.5440   -0.6792   -0.3607 H   0  0  0  0  0  0  0  0  0  0  0  0 
    4.1799    0.7992   -1.2663 H   0  0  0  0  0  0  0  0  0  0  0  0 
    2.3689    4.2341    0.7315 H   0  0  0  0  0  0  0  0  0  0  0  0 
    1.2455    2.9864    0.1556 H   0  0  0  0  0  0  0  0  0  0  0  0 
    2.8438    3.1456   -0.5895 H   0  0  0  0  0  0  0  0  0  0  0  0 
    2.1282   -0.7897    0.4026 H   0  0  0  0  0  0  0  0  0  0  0  0 
    1.7856    0.6947   -0.4730 H   0  0  0  0  0  0  0  0  0  0  0  0 
    5.1128   -0.0520    5.8592 H   0  0  0  0  0  0  0  0  0  0  0  0 
    4.6920   -2.0067    4.4101 H   0  0  0  0  0  0  0  0  0  0  0  0 
    4.5178    2.2538    5.1015 H   0  0  0  0  0  0  0  0  0  0  0  0 
    3.6727   -1.7411    2.1601 H   0  0  0  0  0  0  0  0  0  0  0  0 
  1 14  1  0  0  0  0 
  1  3  1  0  0  0  0 
  2 16  1  0  0  0  0 
  2  8  1  0  0  0  0 
  3 19  1  0  0  0  0 
  3 12  1  0  0  0  0 
  4 21  1  0  0  0  0 
  5 22  1  0  0  0  0 
  5  4  2  0  0  0  0 
  6  4  1  0  0  0  0 
  6 23  1  0  0  0  0 
  7  5  1  0  0  0  0 
  8 11  2  0  0  0  0 
  9  6  2  0  0  0  0 
 10  7  2  0  0  0  0 
 10  9  1  0  0  0  0 
 11  9  1  0  0  0  0 
 12  8  1  0  0  0  0 
 12 10  1  0  0  0  0 
 13  1  1  0  0  0  0 
 15  1  1  0  0  0  0 
 17  2  1  0  0  0  0 
 18  2  1  0  0  0  0 
 20  3  1  0  0  0  0 
 24  7  1  0  0  0  0 
M  END 
>  <HBA> 
2 
 
>  <HBD> 
0 
 
>  <TPSA> 
17.82 
 
>  <cid> 
22054 
 
>  <dipole> 
3.84 
 
>  <excitation_energy_1> 
4.887 
 
>  <excitation_energy_2> 
5.08 
 
>  <excitation_energy_3> 
5.248 
 
>  <excitation_energy_4> 
5.302 
 
>  <homo_energy> 
-5.796 
 
>  <homo_lumo_gap> 
5.619 
 
>  <logP> 
2.365 
 
>  <lumo_energy> 
-0.177 
 
>  <melting_point> 
70.5 
 
>  <molecular_refractivity> 
50.77 
 
>  <oscillator_strength_1> 
0.0502 
 
>  <oscillator_strength_2> 
0.1284 
 
>  <oscillator_strength_3> 
0.0038 
 
>  <oscillator_strength_4> 
0.0243 
 
>  <open_babel_can_smiles> 
CCn1c(C)nc2c1cccc2 
 
>  <mulliken_charges> 
24 
1   -0.444504 
2   -0.54115 
3   -0.159455 
4   -0.143298 
5   -0.151483 
6   -0.183081 
7   -0.175854 
8   0.484608 
9   0.224351 
10   0.329745 
11   -0.54246 
12   -0.53751 
13   0.152684 
14   0.168914 
15   0.160007 
16   0.19604 
17   0.166859 
18   0.164651 
19   0.164825 
20   0.161923 
21   0.122283 
22   0.122744 
23   0.135431 
24   0.12373 
 
>  <lowdin_charges> 
24 
1   -0.453288 
2   -0.447921 
3   -0.193026 
4   -0.172112 
5   -0.163418 
6   -0.159735 
7   -0.195168 
8   0.075889 
9   0.009085 
10   0.01407 
11   -0.207173 
12   -0.042995 
13   0.158089 
14   0.16262 
15   0.156818 
16   0.184028 
17   0.162622 
18   0.162495 
19   0.157759 
20   0.159909 
21   0.155003 
22   0.155046 
23   0.165334 
24   0.156069 
 
$$$$ 
 
