PCCDB-ID:  24315 
public computational chemistry database (PCCDB) project, http://pccdb.org 
 
 33 32  0  0  1  0  0  0  0  0999 V2000 
    0.6910    1.3165    0.2671 C   0  0  0  0  0  0  0  0  0  0  0  0 
    7.9545    4.2038   -6.7084 C   0  0  0  0  0  0  0  0  0  0  0  0 
    7.1796    0.5479   -2.2037 C   0  0  0  0  0  0  0  0  0  0  0  0 
    6.5971    0.9993   -5.1702 C   0  0  0  0  0  0  0  0  0  0  0  0 
    2.2216    1.3665    0.2295 C   0  0  0  0  0  0  0  0  0  0  0  0 
    7.3061    3.8101   -5.7693 C   0  0  0  0  0  0  0  0  0  0  0  0 
    2.7868    1.4225   -1.1956 C   0  0  0  0  0  0  0  0  0  0  0  0 
    4.3191    1.4821   -1.2531 C   0  0  0  0  0  0  0  0  0  0  0  0 
    4.8605    1.5221   -2.6906 C   0  0  0  0  0  0  0  0  0  0  0  0 
    6.5010    3.3572   -4.6275 C   0  0  0  0  0  0  0  0  0  0  0  0 
    6.3914    1.7223   -2.8007 C   0  0  2  0  0  0  0  0  0  0  0  0 
    6.8773    2.0195   -4.1657 N   0  0  0  0  0  0  0  0  0  0  0  0 
    0.3146    1.2787    1.2959 H   0  0  0  0  0  0  0  0  0  0  0  0 
    0.3105    0.4324   -0.2593 H   0  0  0  0  0  0  0  0  0  0  0  0 
    0.2536    2.2003   -0.2139 H   0  0  0  0  0  0  0  0  0  0  0  0 
    8.5289    4.5537   -7.5358 H   0  0  0  0  0  0  0  0  0  0  0  0 
    7.0215    0.4857   -1.1223 H   0  0  0  0  0  0  0  0  0  0  0  0 
    8.2494    0.6852   -2.3884 H   0  0  0  0  0  0  0  0  0  0  0  0 
    6.8751   -0.4132   -2.6343 H   0  0  0  0  0  0  0  0  0  0  0  0 
    7.1245    1.2595   -6.0926 H   0  0  0  0  0  0  0  0  0  0  0  0 
    5.5237    0.8920   -5.4152 H   0  0  0  0  0  0  0  0  0  0  0  0 
    6.9714    0.0283   -4.8350 H   0  0  0  0  0  0  0  0  0  0  0  0 
    2.6296    0.4877    0.7490 H   0  0  0  0  0  0  0  0  0  0  0  0 
    2.5729    2.2424    0.7936 H   0  0  0  0  0  0  0  0  0  0  0  0 
    2.3695    2.2984   -1.7147 H   0  0  0  0  0  0  0  0  0  0  0  0 
    2.4384    0.5436   -1.7586 H   0  0  0  0  0  0  0  0  0  0  0  0 
    4.7305    0.6144   -0.7198 H   0  0  0  0  0  0  0  0  0  0  0  0 
    4.6667    2.3713   -0.7051 H   0  0  0  0  0  0  0  0  0  0  0  0 
    4.3540    2.3383   -3.2250 H   0  0  0  0  0  0  0  0  0  0  0  0 
    4.5749    0.5957   -3.2081 H   0  0  0  0  0  0  0  0  0  0  0  0 
    5.4310    3.4352   -4.9073 H   0  0  0  0  0  0  0  0  0  0  0  0 
    6.6520    4.0561   -3.7944 H   0  0  0  0  0  0  0  0  0  0  0  0 
    6.6474    2.6135   -2.2092 H   0  0  0  0  0  0  0  0  0  0  0  0 
  1 13  1  0  0  0  0 
  2  6  3  0  0  0  0 
  3 17  1  0  0  0  0 
  4 22  1  0  0  0  0 
  4 12  1  0  0  0  0 
  5  1  1  0  0  0  0 
  5 23  1  0  0  0  0 
  5 24  1  0  0  0  0 
  6 10  1  0  0  0  0 
  7  5  1  0  0  0  0 
  8  7  1  0  0  0  0 
  8 27  1  0  0  0  0 
  8 28  1  0  0  0  0 
  9  8  1  0  0  0  0 
 10 12  1  0  0  0  0 
 10 32  1  0  0  0  0 
 11  9  1  0  0  0  0 
 11 33  1  1  0  0  0 
 11  3  1  0  0  0  0 
 12 11  1  0  0  0  0 
 14  1  1  0  0  0  0 
 15  1  1  0  0  0  0 
 16  2  1  0  0  0  0 
 18  3  1  0  0  0  0 
 19  3  1  0  0  0  0 
 20  4  1  0  0  0  0 
 21  4  1  0  0  0  0 
 25  7  1  0  0  0  0 
 26  7  1  0  0  0  0 
 29  9  1  0  0  0  0 
 30  9  1  0  0  0  0 
 31 10  1  0  0  0  0 
M  END 
>  <HBA> 
1 
 
>  <HBD> 
0 
 
>  <TPSA> 
3.24 
 
>  <cid> 
24315 
 
>  <dipole> 
1.06 
 
>  <excitation_energy_1> 
5.142 
 
>  <excitation_energy_2> 
5.393 
 
>  <excitation_energy_3> 
5.565 
 
>  <excitation_energy_4> 
5.775 
 
>  <homo_energy> 
-5.614 
 
>  <homo_lumo_gap> 
6.885 
 
>  <logP> 
2.52 
 
>  <lumo_energy> 
1.271 
 
>  <melting_point> 
-9.9 
 
>  <molecular_refractivity> 
56.05 
 
>  <oscillator_strength_1> 
0.0022 
 
>  <oscillator_strength_2> 
0.011 
 
>  <oscillator_strength_3> 
0.0152 
 
>  <oscillator_strength_4> 
0.0024 
 
>  <open_babel_can_smiles> 
CCCCC[C@H](N(CC#C)C)C 
 
>  <mulliken_charges> 
33 
1   -0.441375 
2   -0.533174 
3   -0.45979 
4   -0.316186 
5   -0.247607 
6   0.384552 
7   -0.245877 
8   -0.260122 
9   -0.2733 
10   -0.258736 
11   0.058008 
12   -0.38256 
13   0.142041 
14   0.141515 
15   0.141399 
16   0.188294 
17   0.147084 
18   0.159345 
19   0.141236 
20   0.167184 
21   0.120573 
22   0.152144 
23   0.130294 
24   0.130178 
25   0.126799 
26   0.127621 
27   0.134446 
28   0.126399 
29   0.13288 
30   0.132741 
31   0.14459 
32   0.167785 
33   0.121617 
 
>  <lowdin_charges> 
33 
1   -0.444831 
2   -0.257455 
3   -0.448265 
4   -0.362405 
5   -0.273665 
6   -0.037003 
7   -0.275385 
8   -0.276882 
9   -0.293847 
10   -0.184199 
11   -0.059135 
12   -0.182132 
13   0.148495 
14   0.146937 
15   0.146876 
16   0.204403 
17   0.151584 
18   0.157911 
19   0.146199 
20   0.161864 
21   0.120222 
22   0.152369 
23   0.139474 
24   0.139405 
25   0.137767 
26   0.138432 
27   0.141225 
28   0.137488 
29   0.141526 
30   0.141536 
31   0.137114 
32   0.166852 
33   0.137526 
 
$$$$ 
 
