PCCDB-ID:  25047 
public computational chemistry database (PCCDB) project, http://pccdb.org 
 
 35 34  0  0  0  0  0  0  0  0999 V2000 
    4.3040   -0.7379    3.6246 C   0  0  0  0  0  0  0  0  0  0  0  0 
    4.2112    4.4393    0.5116 C   0  0  0  0  0  0  0  0  0  0  0  0 
    8.2275   -0.6749   -2.1116 C   0  0  0  0  0  0  0  0  0  0  0  0 
    6.5620   -1.1596   -3.9459 C   0  0  0  0  0  0  0  0  0  0  0  0 
    4.2661   -1.5381    2.3319 C   0  0  0  0  0  0  0  0  0  0  0  0 
    5.6317    4.1077    0.0810 C   0  0  0  0  0  0  0  0  0  0  0  0 
    5.7089   -0.4945   -1.6755 C   0  0  0  0  0  0  0  0  0  0  0  0 
    6.8524   -0.3159   -2.6953 C   0  0  0  0  0  0  0  0  0  0  0  0 
    5.7785    0.4318   -0.4413 C   0  0  0  0  0  0  0  0  0  0  0  0 
    4.7263    0.0138    0.5835 C   0  0  0  0  0  0  0  0  0  0  0  0 
    5.5364    1.8961   -0.8009 C   0  0  0  0  0  0  0  0  0  0  0  0 
    3.6156    0.4912    0.6718 O   0  0  0  0  0  0  0  0  0  0  0  0 
    5.0863    2.2951   -1.8516 O   0  0  0  0  0  0  0  0  0  0  0  0 
    5.1870   -0.9966    1.3508 O   0  0  0  0  0  0  0  0  0  0  0  0 
    5.8999    2.6906    0.2274 O   0  0  0  0  0  0  0  0  0  0  0  0 
    3.6594   -1.2124    4.3735 H   0  0  0  0  0  0  0  0  0  0  0  0 
    3.9436    0.2808    3.4573 H   0  0  0  0  0  0  0  0  0  0  0  0 
    5.3219   -0.6931    4.0254 H   0  0  0  0  0  0  0  0  0  0  0  0 
    4.0489    5.5219    0.4543 H   0  0  0  0  0  0  0  0  0  0  0  0 
    4.0316    4.1154    1.5415 H   0  0  0  0  0  0  0  0  0  0  0  0 
    3.4860    3.9450   -0.1405 H   0  0  0  0  0  0  0  0  0  0  0  0 
    9.0121   -0.5550   -2.8678 H   0  0  0  0  0  0  0  0  0  0  0  0 
    8.2504   -1.7190   -1.7724 H   0  0  0  0  0  0  0  0  0  0  0  0 
    8.5004   -0.0420   -1.2593 H   0  0  0  0  0  0  0  0  0  0  0  0 
    7.3418   -1.0216   -4.7038 H   0  0  0  0  0  0  0  0  0  0  0  0 
    5.6019   -0.8841   -4.3970 H   0  0  0  0  0  0  0  0  0  0  0  0 
    6.5235   -2.2292   -3.7001 H   0  0  0  0  0  0  0  0  0  0  0  0 
    3.2620   -1.5506    1.9014 H   0  0  0  0  0  0  0  0  0  0  0  0 
    4.6100   -2.5642    2.4838 H   0  0  0  0  0  0  0  0  0  0  0  0 
    6.3721    4.5903    0.7237 H   0  0  0  0  0  0  0  0  0  0  0  0 
    5.8112    4.3927   -0.9584 H   0  0  0  0  0  0  0  0  0  0  0  0 
    5.7044   -1.5339   -1.3219 H   0  0  0  0  0  0  0  0  0  0  0  0 
    4.7501   -0.3137   -2.1735 H   0  0  0  0  0  0  0  0  0  0  0  0 
    6.8664    0.7384   -2.9997 H   0  0  0  0  0  0  0  0  0  0  0  0 
    6.7547    0.3496    0.0458 H   0  0  0  0  0  0  0  0  0  0  0  0 
  1 18  1  0  0  0  0 
  1 16  1  0  0  0  0 
  2 20  1  0  0  0  0 
  3 23  1  0  0  0  0 
  3 24  1  0  0  0  0 
  4 27  1  0  0  0  0 
  4  8  1  0  0  0  0 
  5 29  1  0  0  0  0 
  5  1  1  0  0  0  0 
  6 15  1  0  0  0  0 
  6  2  1  0  0  0  0 
  6 30  1  0  0  0  0 
  7 32  1  0  0  0  0 
  7  9  1  0  0  0  0 
  8  3  1  0  0  0  0 
  8  7  1  0  0  0  0 
  9 35  1  0  0  0  0 
  9 10  1  0  0  0  0 
 10 12  2  0  0  0  0 
 10 14  1  0  0  0  0 
 11  9  1  0  0  0  0 
 11 15  1  0  0  0  0 
 13 11  2  0  0  0  0 
 14  5  1  0  0  0  0 
 17  1  1  0  0  0  0 
 19  2  1  0  0  0  0 
 21  2  1  0  0  0  0 
 22  3  1  0  0  0  0 
 25  4  1  0  0  0  0 
 26  4  1  0  0  0  0 
 28  5  1  0  0  0  0 
 31  6  1  0  0  0  0 
 33  7  1  0  0  0  0 
 34  8  1  0  0  0  0 
M  END 
>  <HBA> 
4 
 
>  <HBD> 
0 
 
>  <TPSA> 
52.6 
 
>  <cid> 
25047 
 
>  <dipole> 
2.54 
 
>  <excitation_energy_1> 
5.726 
 
>  <excitation_energy_2> 
5.758 
 
>  <excitation_energy_3> 
6.619 
 
>  <excitation_energy_4> 
6.671 
 
>  <homo_energy> 
-7.35 
 
>  <homo_lumo_gap> 
7.442 
 
>  <logP> 
1.775 
 
>  <lumo_energy> 
0.093 
 
>  <melting_point> 
-5.0 
 
>  <molecular_refractivity> 
57.56 
 
>  <oscillator_strength_1> 
0.0015 
 
>  <oscillator_strength_2> 
0.0037 
 
>  <oscillator_strength_3> 
0.0016 
 
>  <oscillator_strength_4> 
0.0126 
 
>  <open_babel_can_smiles> 
CCOC(=O)C(C(=O)OCC)CC(C)C 
 
>  <mulliken_charges> 
35 
1   -0.462102 
2   -0.45815 
3   -0.449141 
4   -0.445688 
5   -0.047394 
6   -0.050238 
7   -0.256114 
8   -0.077337 
9   -0.272439 
10   0.635567 
11   0.650646 
12   -0.478358 
13   -0.477999 
14   -0.462579 
15   -0.464972 
16   0.151591 
17   0.178367 
18   0.158822 
19   0.146743 
20   0.160416 
21   0.184724 
22   0.14479 
23   0.140028 
24   0.140931 
25   0.141518 
26   0.149167 
27   0.136644 
28   0.17249 
29   0.154713 
30   0.15141 
31   0.171125 
32   0.140085 
33   0.164921 
34   0.148662 
35   0.179152 
 
>  <lowdin_charges> 
35 
1   -0.454245 
2   -0.451508 
3   -0.448278 
4   -0.441159 
5   -0.12582 
6   -0.126709 
7   -0.267554 
8   -0.122483 
9   -0.174014 
10   0.202123 
11   0.203395 
12   -0.263122 
13   -0.257288 
14   -0.190643 
15   -0.191525 
16   0.160806 
17   0.16571 
18   0.156259 
19   0.155361 
20   0.157246 
21   0.171305 
22   0.151869 
23   0.144671 
24   0.14619 
25   0.149861 
26   0.152081 
27   0.142572 
28   0.159031 
29   0.15226 
30   0.153196 
31   0.157658 
32   0.147406 
33   0.161406 
34   0.147191 
35   0.176754 
 
$$$$ 
 
