PCCDB-ID:  27528 
public computational chemistry database (PCCDB) project, http://pccdb.org 
 
 34 35  0  0  1  0  0  0  0  0999 V2000 
    0.8159   -0.2894   -0.2716 C   0  0  0  0  0  0  0  0  0  0  0  0 
    4.0932    1.7409    0.4263 C   0  0  0  0  0  0  0  0  0  0  0  0 
    4.8724    0.6694    1.1977 C   0  0  0  0  0  0  0  0  0  0  0  0 
    2.5952    1.4154    0.3814 C   0  0  0  0  0  0  0  0  0  0  0  0 
    4.6172   -0.7406    0.6198 C   0  0  0  0  0  0  0  0  0  0  0  0 
    0.6531   -5.6750    2.1606 C   0  0  0  0  0  0  0  0  0  0  0  0 
    0.2343   -3.3322    2.4417 C   0  0  0  0  0  0  0  0  0  0  0  0 
   -0.7172   -5.8835    2.2971 C   0  0  0  0  0  0  0  0  0  0  0  0 
   -1.1161   -3.6558    2.5833 C   0  0  0  0  0  0  0  0  0  0  0  0 
    2.3148    0.0111   -0.2084 C   0  0  1  0  0  0  0  0  0  0  0  0 
    1.1488   -4.3672    2.2187 C   0  0  0  0  0  0  0  0  0  0  0  0 
    3.1300   -1.0329    0.5403 C   0  0  0  0  0  0  0  0  0  0  0  0 
    2.6397   -4.2092    2.1271 C   0  0  0  0  0  0  0  0  0  0  0  0 
   -1.6029   -4.8999    2.5062 N   0  0  0  0  0  0  0  0  0  0  0  0 
    2.5028   -2.0430    1.0296 N   0  0  0  0  0  0  0  0  0  0  0  0 
    3.1935   -3.0184    1.6952 N   0  0  0  0  0  0  0  0  0  0  0  0 
    3.3943   -5.1172    2.4583 O   0  0  0  0  0  0  0  0  0  0  0  0 
    0.3096    0.4682   -0.8805 H   0  0  0  0  0  0  0  0  0  0  0  0 
    0.3675   -0.2780    0.7275 H   0  0  0  0  0  0  0  0  0  0  0  0 
    0.6212   -1.2731   -0.7071 H   0  0  0  0  0  0  0  0  0  0  0  0 
    4.4837    1.8073   -0.5999 H   0  0  0  0  0  0  0  0  0  0  0  0 
    4.2535    2.7245    0.8849 H   0  0  0  0  0  0  0  0  0  0  0  0 
    4.5672    0.6821    2.2528 H   0  0  0  0  0  0  0  0  0  0  0  0 
    5.9482    0.8809    1.1767 H   0  0  0  0  0  0  0  0  0  0  0  0 
    2.0592    2.1662   -0.2126 H   0  0  0  0  0  0  0  0  0  0  0  0 
    2.1765    1.4602    1.3975 H   0  0  0  0  0  0  0  0  0  0  0  0 
    5.1668   -1.4783    1.2129 H   0  0  0  0  0  0  0  0  0  0  0  0 
    5.0327   -0.7885   -0.3979 H   0  0  0  0  0  0  0  0  0  0  0  0 
    1.3378   -6.5037    2.0182 H   0  0  0  0  0  0  0  0  0  0  0  0 
    0.5584   -2.3021    2.5052 H   0  0  0  0  0  0  0  0  0  0  0  0 
   -1.1255   -6.8912    2.2419 H   0  0  0  0  0  0  0  0  0  0  0  0 
   -1.8457   -2.8683    2.7657 H   0  0  0  0  0  0  0  0  0  0  0  0 
    2.7066    0.0202   -1.2405 H   0  0  0  0  0  0  0  0  0  0  0  0 
    4.2102   -3.0547    1.6668 H   0  0  0  0  0  0  0  0  0  0  0  0 
  1 10  1  0  0  0  0 
  1 19  1  0  0  0  0 
  2 22  1  0  0  0  0 
  2  3  1  0  0  0  0 
  3 23  1  0  0  0  0 
  4  2  1  0  0  0  0 
  4 26  1  0  0  0  0 
  5  3  1  0  0  0  0 
  5 27  1  0  0  0  0 
  6 11  2  0  0  0  0 
  6  8  1  0  0  0  0 
  7 30  1  0  0  0  0 
  7  9  2  0  0  0  0 
  8 14  2  0  0  0  0 
  9 32  1  0  0  0  0 
 10 33  1  6  0  0  0 
 10  4  1  0  0  0  0 
 10 12  1  0  0  0  0 
 11  7  1  0  0  0  0 
 12  5  1  0  0  0  0 
 12 15  2  0  0  0  0 
 13 11  1  0  0  0  0 
 13 17  2  0  0  0  0 
 14  9  1  0  0  0  0 
 15 16  1  0  0  0  0 
 16 13  1  0  0  0  0 
 18  1  1  0  0  0  0 
 20  1  1  0  0  0  0 
 21  2  1  0  0  0  0 
 24  3  1  0  0  0  0 
 25  4  1  0  0  0  0 
 28  5  1  0  0  0  0 
 29  6  1  0  0  0  0 
 31  8  1  0  0  0  0 
 34 16  1  0  0  0  0 
M  END 
>  <HBA> 
4 
 
>  <HBD> 
1 
 
>  <TPSA> 
54.35 
 
>  <cid> 
27528 
 
>  <dipole> 
5.52 
 
>  <excitation_energy_1> 
4.235 
 
>  <excitation_energy_2> 
4.411 
 
>  <excitation_energy_3> 
4.561 
 
>  <excitation_energy_4> 
4.863 
 
>  <homo_energy> 
-6.471 
 
>  <homo_lumo_gap> 
5.056 
 
>  <logP> 
2.768 
 
>  <lumo_energy> 
-1.415 
 
>  <melting_point> 
117.35 
 
>  <molecular_refractivity> 
67.65 
 
>  <oscillator_strength_1> 
0.0119 
 
>  <oscillator_strength_2> 
0.0869 
 
>  <oscillator_strength_3> 
0.0701 
 
>  <oscillator_strength_4> 
0.0409 
 
>  <open_babel_can_smiles> 
C[C@H]1CCCC/C/1=N\NC(=O)c1ccncc1 
 
>  <mulliken_charges> 
34 
1   -0.438736 
2   -0.266709 
3   -0.259164 
4   -0.25929 
5   -0.342002 
6   -0.160824 
7   -0.152113 
8   0.031686 
9   0.027683 
10   -0.139793 
11   0.098712 
12   0.327119 
13   0.550434 
14   -0.401712 
15   -0.306938 
16   -0.4818 
17   -0.496787 
18   0.138203 
19   0.149031 
20   0.162629 
21   0.133619 
22   0.142169 
23   0.145929 
24   0.144194 
25   0.140001 
26   0.137437 
27   0.141068 
28   0.162861 
29   0.164843 
30   0.159077 
31   0.143938 
32   0.141207 
33   0.136589 
34   0.327442 
 
>  <lowdin_charges> 
34 
1   -0.439514 
2   -0.278061 
3   -0.267863 
4   -0.276161 
5   -0.297261 
6   -0.153693 
7   -0.160836 
8   -0.090735 
9   -0.095029 
10   -0.126815 
11   -0.012972 
12   0.022924 
13   0.170126 
14   -0.141872 
15   -0.104561 
16   -0.1903 
17   -0.292077 
18   0.150468 
19   0.151143 
20   0.16123 
21   0.13946 
22   0.149884 
23   0.144928 
24   0.148455 
25   0.149818 
26   0.141979 
27   0.151528 
28   0.159783 
29   0.180783 
30   0.174156 
31   0.157616 
32   0.15817 
33   0.144798 
34   0.270503 
 
$$$$ 
 
