PCCDB-ID:  67078 
public computational chemistry database (PCCDB) project, http://pccdb.org 
 
 32 32  0  0  0  0  0  0  0  0999 V2000 
    3.9489   -0.7584   -3.7731 C   0  0  0  0  0  0  0  0  0  0  0  0 
    7.8855   -4.3901   -3.5459 C   0  0  0  0  0  0  0  0  0  0  0  0 
    4.2243   -0.9936   -2.2811 C   0  0  0  0  0  0  0  0  0  0  0  0 
    4.9402    1.2555    0.0010 C   0  0  0  0  0  0  0  0  0  0  0  0 
    9.0714   -1.3446   -1.5404 C   0  0  0  0  0  0  0  0  0  0  0  0 
    7.8948   -0.6375   -1.3821 C   0  0  0  0  0  0  0  0  0  0  0  0 
    5.8411    0.7969    1.0606 C   0  0  0  0  0  0  0  0  0  0  0  0 
    5.4443    0.9714   -1.4378 C   0  0  0  0  0  0  0  0  0  0  0  0 
    6.7453   -2.3586   -2.6320 C   0  0  0  0  0  0  0  0  0  0  0  0 
   10.4186   -3.2499   -2.3546 C   0  0  0  0  0  0  0  0  0  0  0  0 
    7.9274   -3.0806   -2.7851 C   0  0  0  0  0  0  0  0  0  0  0  0 
    9.1233   -2.5632   -2.2376 C   0  0  0  0  0  0  0  0  0  0  0  0 
    6.6890   -1.1260   -1.9398 C   0  0  0  0  0  0  0  0  0  0  0  0 
    6.5595    0.4512    1.9043 N   0  0  0  0  0  0  0  0  0  0  0  0 
    5.4884   -0.4350   -1.7995 N   0  0  0  0  0  0  0  0  0  0  0  0 
   11.4719   -2.8257   -1.9036 O   0  0  0  0  0  0  0  0  0  0  0  0 
    2.9806   -1.1895   -4.0521 H   0  0  0  0  0  0  0  0  0  0  0  0 
    4.7218   -1.2144   -4.3988 H   0  0  0  0  0  0  0  0  0  0  0  0 
    3.9179    0.3118   -4.0071 H   0  0  0  0  0  0  0  0  0  0  0  0 
    6.8692   -4.6041   -3.8902 H   0  0  0  0  0  0  0  0  0  0  0  0 
    8.2075   -5.2335   -2.9242 H   0  0  0  0  0  0  0  0  0  0  0  0 
    8.5367   -4.3733   -4.4276 H   0  0  0  0  0  0  0  0  0  0  0  0 
    4.2003   -2.0617   -2.0470 H   0  0  0  0  0  0  0  0  0  0  0  0 
    3.4194   -0.5425   -1.6882 H   0  0  0  0  0  0  0  0  0  0  0  0 
    4.7928    2.3371    0.1173 H   0  0  0  0  0  0  0  0  0  0  0  0 
    3.9600    0.7871    0.1512 H   0  0  0  0  0  0  0  0  0  0  0  0 
    9.9940   -0.9724   -1.1053 H   0  0  0  0  0  0  0  0  0  0  0  0 
    7.9071    0.2652   -0.7843 H   0  0  0  0  0  0  0  0  0  0  0  0 
    6.4241    1.4280   -1.5865 H   0  0  0  0  0  0  0  0  0  0  0  0 
    4.7563    1.4898   -2.1182 H   0  0  0  0  0  0  0  0  0  0  0  0 
    5.8480   -2.7669   -3.0811 H   0  0  0  0  0  0  0  0  0  0  0  0 
   10.4051   -4.2186   -2.8965 H   0  0  0  0  0  0  0  0  0  0  0  0 
  1  3  1  0  0  0  0 
  2 21  1  0  0  0  0 
  2 11  1  0  0  0  0 
  3 23  1  0  0  0  0 
  3 15  1  0  0  0  0 
  3 24  1  0  0  0  0 
  4 25  1  0  0  0  0 
  4 26  1  0  0  0  0 
  4  7  1  0  0  0  0 
  5  6  1  0  0  0  0 
  5 27  1  0  0  0  0 
  6 28  1  0  0  0  0 
  7 14  3  0  0  0  0 
  8  4  1  0  0  0  0 
  9 13  1  0  0  0  0 
 10 12  1  0  0  0  0 
 10 16  2  0  0  0  0 
 11  9  2  0  0  0  0 
 11 12  1  0  0  0  0 
 12  5  2  0  0  0  0 
 13 15  1  0  0  0  0 
 13  6  2  0  0  0  0 
 15  8  1  0  0  0  0 
 17  1  1  0  0  0  0 
 18  1  1  0  0  0  0 
 19  1  1  0  0  0  0 
 20  2  1  0  0  0  0 
 22  2  1  0  0  0  0 
 29  8  1  0  0  0  0 
 30  8  1  0  0  0  0 
 31  9  1  0  0  0  0 
 32 10  1  0  0  0  0 
M  END 
>  <HBA> 
3 
 
>  <HBD> 
0 
 
>  <TPSA> 
44.1 
 
>  <cid> 
67078 
 
>  <dipole> 
8.53 
 
>  <excitation_energy_1> 
3.689 
 
>  <excitation_energy_2> 
4.09 
 
>  <excitation_energy_3> 
4.472 
 
>  <excitation_energy_4> 
4.529 
 
>  <homo_energy> 
-5.608 
 
>  <homo_lumo_gap> 
4.408 
 
>  <logP> 
2.547 
 
>  <lumo_energy> 
-1.2 
 
>  <melting_point> 
84.18 
 
>  <molecular_refractivity> 
65.17 
 
>  <oscillator_strength_1> 
0.0003 
 
>  <oscillator_strength_2> 
0.4877 
 
>  <oscillator_strength_3> 
0.0055 
 
>  <oscillator_strength_4> 
0.0113 
 
>  <open_babel_can_smiles> 
N#CCCN(c1ccc(c(c1)C)C=O)CC 
 
>  <mulliken_charges> 
32 
1   -0.4505 
2   -0.539893 
3   -0.154561 
4   -0.345862 
5   -0.175664 
6   -0.182462 
7   0.367211 
8   -0.161942 
9   -0.271737 
10   0.181726 
11   0.137662 
12   0.038294 
13   0.387217 
14   -0.464645 
15   -0.482373 
16   -0.426459 
17   0.153277 
18   0.169056 
19   0.151591 
20   0.154753 
21   0.172198 
22   0.169936 
23   0.16931 
24   0.145579 
25   0.195232 
26   0.197765 
27   0.165366 
28   0.141805 
29   0.1829 
30   0.162646 
31   0.121426 
32   0.091144 
 
>  <lowdin_charges> 
32 
1   -0.457144 
2   -0.446651 
3   -0.197009 
4   -0.284085 
5   -0.10951 
6   -0.205661 
7   -0.018961 
8   -0.18843 
9   -0.226662 
10   0.036312 
11   0.026797 
12   -0.093685 
13   0.077457 
14   -0.116651 
15   -0.109457 
16   -0.2514 
17   0.157519 
18   0.161436 
19   0.150397 
20   0.156014 
21   0.166001 
22   0.164308 
23   0.157126 
24   0.148145 
25   0.182418 
26   0.181374 
27   0.177711 
28   0.165066 
29   0.168848 
30   0.155851 
31   0.157214 
32   0.11531 
 
$$$$ 
 
