PCCDB-ID:  30653 
public computational chemistry database (PCCDB) project, http://pccdb.org 
 
 37 36  0  0  0  0  0  0  0  0999 V2000 
    4.7678   -1.7170   -3.0157 C   0  0  0  0  0  0  0  0  0  0  0  0 
    2.4136   -1.3032   -2.2438 C   0  0  0  0  0  0  0  0  0  0  0  0 
    6.5522   -5.0497    3.2030 C   0  0  0  0  0  0  0  0  0  0  0  0 
    4.2702   -4.2405    3.1060 C   0  0  0  0  0  0  0  0  0  0  0  0 
    9.0601   -0.9985    1.8302 C   0  0  0  0  0  0  0  0  0  0  0  0 
    7.6962   -0.3169   -0.0183 C   0  0  0  0  0  0  0  0  0  0  0  0 
    5.5816   -4.3421    1.0312 C   0  0  0  0  0  0  0  0  0  0  0  0 
    7.4172   -2.5389    0.9686 C   0  0  0  0  0  0  0  0  0  0  0  0 
    3.8509   -1.7044   -2.0398 C   0  0  0  0  0  0  0  0  0  0  0  0 
    5.9213   -2.8348    0.8563 C   0  0  0  0  0  0  0  0  0  0  0  0 
    4.1944   -2.1106   -0.6412 C   0  0  0  0  0  0  0  0  0  0  0  0 
    5.3756   -4.8463    2.3800 N   0  0  0  0  0  0  0  0  0  0  0  0 
    7.7565   -1.1336    1.1905 N   0  0  0  0  0  0  0  0  0  0  0  0 
    3.3738   -2.1423    0.2580 O   0  0  0  0  0  0  0  0  0  0  0  0 
    5.4987   -2.4306   -0.4786 O   0  0  0  0  0  0  0  0  0  0  0  0 
    4.5085   -1.4277   -4.0308 H   0  0  0  0  0  0  0  0  0  0  0  0 
    5.7929   -2.0178   -2.8311 H   0  0  0  0  0  0  0  0  0  0  0  0 
    2.2291   -1.0295   -3.2864 H   0  0  0  0  0  0  0  0  0  0  0  0 
    2.1496   -0.4540   -1.6034 H   0  0  0  0  0  0  0  0  0  0  0  0 
    1.7372   -2.1192   -1.9664 H   0  0  0  0  0  0  0  0  0  0  0  0 
    6.9713   -4.1255    3.6471 H   0  0  0  0  0  0  0  0  0  0  0  0 
    7.3399   -5.5332    2.6142 H   0  0  0  0  0  0  0  0  0  0  0  0 
    6.2997   -5.7174    4.0366 H   0  0  0  0  0  0  0  0  0  0  0  0 
    4.5054   -3.2506    3.5400 H   0  0  0  0  0  0  0  0  0  0  0  0 
    3.9747   -4.8994    3.9321 H   0  0  0  0  0  0  0  0  0  0  0  0 
    3.4139   -4.1130    2.4376 H   0  0  0  0  0  0  0  0  0  0  0  0 
    9.2536    0.0584    2.0431 H   0  0  0  0  0  0  0  0  0  0  0  0 
    9.8977   -1.3763    1.2102 H   0  0  0  0  0  0  0  0  0  0  0  0 
    9.0678   -1.5419    2.7813 H   0  0  0  0  0  0  0  0  0  0  0  0 
    7.9038    0.7267    0.2421 H   0  0  0  0  0  0  0  0  0  0  0  0 
    6.7037   -0.3691   -0.4663 H   0  0  0  0  0  0  0  0  0  0  0  0 
    8.4337   -0.6311   -0.7845 H   0  0  0  0  0  0  0  0  0  0  0  0 
    6.3683   -4.9433    0.5554 H   0  0  0  0  0  0  0  0  0  0  0  0 
    4.6585   -4.5269    0.4713 H   0  0  0  0  0  0  0  0  0  0  0  0 
    7.9315   -2.9667    0.0840 H   0  0  0  0  0  0  0  0  0  0  0  0 
    7.7795   -3.0969    1.8373 H   0  0  0  0  0  0  0  0  0  0  0  0 
    5.3669   -2.2327    1.5794 H   0  0  0  0  0  0  0  0  0  0  0  0 
  1 17  1  0  0  0  0 
  1  9  2  0  0  0  0 
  2  9  1  0  0  0  0 
  2 20  1  0  0  0  0 
  2 19  1  0  0  0  0 
  3 21  1  0  0  0  0 
  3 23  1  0  0  0  0 
  4 24  1  0  0  0  0 
  4 25  1  0  0  0  0 
  5 27  1  0  0  0  0 
  5 29  1  0  0  0  0 
  6 30  1  0  0  0  0 
  6 13  1  0  0  0  0 
  7 12  1  0  0  0  0 
  8 13  1  0  0  0  0 
  8 36  1  0  0  0  0 
  9 11  1  0  0  0  0 
 10  8  1  0  0  0  0 
 10  7  1  0  0  0  0 
 10 37  1  0  0  0  0 
 11 15  1  0  0  0  0 
 11 14  2  0  0  0  0 
 12  4  1  0  0  0  0 
 12  3  1  0  0  0  0 
 13  5  1  0  0  0  0 
 15 10  1  0  0  0  0 
 16  1  1  0  0  0  0 
 18  2  1  0  0  0  0 
 22  3  1  0  0  0  0 
 26  4  1  0  0  0  0 
 28  5  1  0  0  0  0 
 31  6  1  0  0  0  0 
 32  6  1  0  0  0  0 
 33  7  1  0  0  0  0 
 34  7  1  0  0  0  0 
 35  8  1  0  0  0  0 
M  END 
>  <HBA> 
4 
 
>  <HBD> 
0 
 
>  <TPSA> 
32.78 
 
>  <cid> 
30653 
 
>  <dipole> 
2.09 
 
>  <excitation_energy_1> 
3.609 
 
>  <excitation_energy_2> 
4.005 
 
>  <excitation_energy_3> 
4.763 
 
>  <excitation_energy_4> 
4.924 
 
>  <homo_energy> 
-5.41 
 
>  <homo_lumo_gap> 
4.34 
 
>  <logP> 
0.598 
 
>  <lumo_energy> 
-1.069 
 
>  <melting_point> 
-29.35 
 
>  <molecular_refractivity> 
61.59 
 
>  <oscillator_strength_1> 
0.0152 
 
>  <oscillator_strength_2> 
0.0013 
 
>  <oscillator_strength_3> 
0.0001 
 
>  <oscillator_strength_4> 
0.0099 
 
>  <open_babel_can_smiles> 
CN(CC(OC(=O)C(=C)C)CN(C)C)C 
 
>  <mulliken_charges> 
37 
1   -0.372337 
2   -0.500045 
3   -0.298324 
4   -0.30647 
5   -0.295979 
6   -0.303559 
7   -0.170486 
8   -0.146104 
9   0.124358 
10   0.130032 
11   0.603343 
12   -0.357927 
13   -0.372888 
14   -0.490163 
15   -0.500804 
16   0.148571 
17   0.171575 
18   0.146933 
19   0.172904 
20   0.173438 
21   0.122312 
22   0.144568 
23   0.149361 
24   0.126761 
25   0.143635 
26   0.172131 
27   0.149831 
28   0.117454 
29   0.148252 
30   0.145322 
31   0.168096 
32   0.11309 
33   0.138494 
34   0.159289 
35   0.120414 
36   0.149704 
37   0.175215 
 
>  <lowdin_charges> 
37 
1   -0.302312 
2   -0.435339 
3   -0.360514 
4   -0.358288 
5   -0.355508 
6   -0.361401 
7   -0.212855 
8   -0.21111 
9   -0.027877 
10   -0.017069 
11   0.194532 
12   -0.178658 
13   -0.183114 
14   -0.273499 
15   -0.193288 
16   0.162298 
17   0.173381 
18   0.154217 
19   0.169283 
20   0.169824 
21   0.119482 
22   0.149466 
23   0.14948 
24   0.124047 
25   0.147591 
26   0.163049 
27   0.149298 
28   0.120813 
29   0.147863 
30   0.146995 
31   0.158446 
32   0.119346 
33   0.146116 
34   0.15631 
35   0.126074 
36   0.158088 
37   0.164834 
 
$$$$ 
 
