PCCDB-ID:  69742 
public computational chemistry database (PCCDB) project, http://pccdb.org 
 
 31 32  0  0  1  0  0  0  0  0999 V2000 
    0.8414    0.3193    0.2058 C   0  0  0  0  0  0  0  0  0  0  0  0 
    2.9549    1.3579    0.6412 C   0  0  0  0  0  0  0  0  0  0  0  0 
    2.2278   -7.4308   -0.3678 C   0  0  0  0  0  0  0  0  0  0  0  0 
    3.4297   -7.0770    0.2484 C   0  0  0  0  0  0  0  0  0  0  0  0 
    1.3528   -6.4228   -0.7679 C   0  0  0  0  0  0  0  0  0  0  0  0 
    3.7622   -5.7428    0.4713 C   0  0  0  0  0  0  0  0  0  0  0  0 
    1.6705   -5.0814   -0.5561 C   0  0  0  0  0  0  0  0  0  0  0  0 
    4.2697   -1.2985    0.5830 C   0  0  0  0  0  0  0  0  0  0  0  0 
    2.1543   -2.3186    0.0888 C   0  0  0  0  0  0  0  0  0  0  0  0 
    2.8782   -4.7247    0.0682 C   0  0  0  0  0  0  0  0  0  0  0  0 
    2.7640   -1.0532    0.7328 C   0  0  2  0  0  0  0  0  0  0  0  0 
    4.4159   -2.8165    0.5801 C   0  0  0  0  0  0  0  0  0  0  0  0 
    2.2911    0.1753    0.0989 N   0  0  0  0  0  0  0  0  0  0  0  0 
    3.1693   -3.3560    0.2900 N   0  0  0  0  0  0  0  0  0  0  0  0 
    5.4507   -3.4289    0.7788 O   0  0  0  0  0  0  0  0  0  0  0  0 
    0.5320    1.2373   -0.3040 H   0  0  0  0  0  0  0  0  0  0  0  0 
    0.4859    0.3734    1.2537 H   0  0  0  0  0  0  0  0  0  0  0  0 
    0.3342   -0.5176   -0.2836 H   0  0  0  0  0  0  0  0  0  0  0  0 
    2.5956    2.2463    0.1117 H   0  0  0  0  0  0  0  0  0  0  0  0 
    4.0354    1.2921    0.4895 H   0  0  0  0  0  0  0  0  0  0  0  0 
    2.7657    1.5050    1.7228 H   0  0  0  0  0  0  0  0  0  0  0  0 
    1.9786   -8.4750   -0.5334 H   0  0  0  0  0  0  0  0  0  0  0  0 
    4.1247   -7.8495    0.5671 H   0  0  0  0  0  0  0  0  0  0  0  0 
    0.4132   -6.6734   -1.2535 H   0  0  0  0  0  0  0  0  0  0  0  0 
    4.6979   -5.4781    0.9418 H   0  0  0  0  0  0  0  0  0  0  0  0 
    0.9772   -4.3184   -0.8914 H   0  0  0  0  0  0  0  0  0  0  0  0 
    4.8932   -0.8650    1.3677 H   0  0  0  0  0  0  0  0  0  0  0  0 
    4.6214   -0.9184   -0.3857 H   0  0  0  0  0  0  0  0  0  0  0  0 
    1.9710   -2.1439   -0.9808 H   0  0  0  0  0  0  0  0  0  0  0  0 
    1.2140   -2.6202    0.5597 H   0  0  0  0  0  0  0  0  0  0  0  0 
    2.5113   -1.0654    1.8127 H   0  0  0  0  0  0  0  0  0  0  0  0 
  1 17  1  0  0  0  0 
  2 21  1  0  0  0  0 
  3  4  2  0  0  0  0 
  4  6  1  0  0  0  0 
  4 23  1  0  0  0  0 
  5  7  2  0  0  0  0 
  5  3  1  0  0  0  0 
  6 25  1  0  0  0  0 
  7 10  1  0  0  0  0 
  8 11  1  0  0  0  0 
  8 27  1  0  0  0  0 
  9 14  1  0  0  0  0 
  9 30  1  0  0  0  0 
  9 11  1  0  0  0  0 
 10 14  1  0  0  0  0 
 10  6  2  0  0  0  0 
 11 31  1  1  0  0  0 
 12  8  1  0  0  0  0 
 12 15  2  0  0  0  0 
 13  1  1  0  0  0  0 
 13  2  1  0  0  0  0 
 13 11  1  0  0  0  0 
 14 12  1  0  0  0  0 
 16  1  1  0  0  0  0 
 18  1  1  0  0  0  0 
 19  2  1  0  0  0  0 
 20  2  1  0  0  0  0 
 22  3  1  0  0  0  0 
 24  5  1  0  0  0  0 
 26  7  1  0  0  0  0 
 28  8  1  0  0  0  0 
 29  9  1  0  0  0  0 
M  END 
>  <HBA> 
3 
 
>  <HBD> 
0 
 
>  <TPSA> 
23.55 
 
>  <cid> 
69742 
 
>  <dipole> 
3.86 
 
>  <excitation_energy_1> 
4.933 
 
>  <excitation_energy_2> 
5.08 
 
>  <excitation_energy_3> 
5.098 
 
>  <excitation_energy_4> 
5.299 
 
>  <homo_energy> 
-5.842 
 
>  <homo_lumo_gap> 
5.608 
 
>  <logP> 
1.419 
 
>  <lumo_energy> 
-0.234 
 
>  <melting_point> 
56.61 
 
>  <molecular_refractivity> 
63.79 
 
>  <oscillator_strength_1> 
0.0228 
 
>  <oscillator_strength_2> 
0.2917 
 
>  <oscillator_strength_3> 
0.0543 
 
>  <oscillator_strength_4> 
0.0091 
 
>  <open_babel_can_smiles> 
CN([C@H]1CN(C(=O)C1)c1ccccc1)C 
 
>  <mulliken_charges> 
31 
1   -0.306061 
2   -0.30358 
3   -0.124619 
4   -0.144596 
5   -0.139582 
6   -0.162305 
7   -0.185921 
8   -0.395806 
9   -0.137788 
10   0.32516 
11   0.042054 
12   0.594433 
13   -0.389684 
14   -0.556997 
15   -0.504619 
16   0.156189 
17   0.123744 
18   0.156433 
19   0.154275 
20   0.162274 
21   0.122656 
22   0.126412 
23   0.132216 
24   0.127956 
25   0.184203 
26   0.13019 
27   0.177195 
28   0.184783 
29   0.166143 
30   0.163168 
31   0.122075 
 
>  <lowdin_charges> 
31 
1   -0.358588 
2   -0.354613 
3   -0.168061 
4   -0.150091 
5   -0.151375 
6   -0.17633 
7   -0.195749 
8   -0.310574 
9   -0.2015 
10   0.05525 
11   -0.061999 
12   0.163226 
13   -0.182176 
14   -0.07762 
15   -0.283654 
16   0.155287 
17   0.122773 
18   0.1531 
19   0.154292 
20   0.153643 
21   0.121678 
22   0.155779 
23   0.160322 
24   0.157082 
25   0.187308 
26   0.16086 
27   0.171561 
28   0.174895 
29   0.149292 
30   0.154835 
31   0.121149 
 
$$$$ 
 
