PCCDB-ID:  10677 
public computational chemistry database (PCCDB) project, http://pccdb.org 
 
 22 23  0  0  0  0  0  0  0  0999 V2000 
    2.3784   -0.6576   -0.1008 C   0  0  0  0  0  0  0  0  0  0  0  0 
    1.1890   -1.3455   -0.0603 C   0  0  0  0  0  0  0  0  0  0  0  0 
    2.3752    0.7519   -0.0990 C   0  0  0  0  0  0  0  0  0  0  0  0 
   -1.3639    1.3987    0.0141 C   0  0  0  0  0  0  0  0  0  0  0  0 
   -2.4868    0.6075    0.0241 C   0  0  0  0  0  0  0  0  0  0  0  0 
   -0.0800    0.7871   -0.0027 C   0  0  0  0  0  0  0  0  0  0  0  0 
   -0.0502   -0.6509   -0.0199 C   0  0  0  0  0  0  0  0  0  0  0  0 
   -2.3419   -0.8020    0.0230 C   0  0  0  0  0  0  0  0  0  0  0  0 
    1.1866    1.4497   -0.0398 C   0  0  0  0  0  0  0  0  0  0  0  0 
   -3.5947   -1.6320    0.0443 C   0  0  0  0  0  0  0  0  0  0  0  0 
   -1.1754   -1.4145   -0.0011 N   0  0  0  0  0  0  0  0  0  0  0  0 
    1.3067    2.9199   -0.0083 N   0  0  0  0  0  0  0  0  0  0  0  0 
   -3.3643   -2.9577    0.0399 O   0  0  0  0  0  0  0  0  0  0  0  0 
   -4.7092   -1.1488    0.0634 O   0  0  0  0  0  0  0  0  0  0  0  0 
    2.3543    3.4127   -0.4245 O   0  0  0  0  0  0  0  0  0  0  0  0 
    0.3699    3.5770    0.4490 O   0  0  0  0  0  0  0  0  0  0  0  0 
    3.3250   -1.1875   -0.1333 H   0  0  0  0  0  0  0  0  0  0  0  0 
    1.1490   -2.4297   -0.0615 H   0  0  0  0  0  0  0  0  0  0  0  0 
    3.3025    1.3098   -0.1375 H   0  0  0  0  0  0  0  0  0  0  0  0 
   -1.4479    2.4755    0.0223 H   0  0  0  0  0  0  0  0  0  0  0  0 
   -3.4831    1.0338    0.0355 H   0  0  0  0  0  0  0  0  0  0  0  0 
   -4.2453   -3.3764    0.0546 H   0  0  0  0  0  0  0  0  0  0  0  0 
  1  3  2  0  0  0  0 
  1  2  1  0  0  0  0 
  2  7  2  0  0  0  0 
  3  9  1  0  0  0  0 
  4 20  1  0  0  0  0 
  4  5  2  0  0  0  0 
  5 21  1  0  0  0  0 
  6  4  1  0  0  0  0 
  7  6  1  0  0  0  0 
  7 11  1  0  0  0  0 
  8  5  1  0  0  0  0 
  8 10  1  0  0  0  0 
  9 12  1  0  0  0  0 
  9  6  2  0  0  0  0 
 10 14  2  0  0  0  0 
 11  8  2  0  0  0  0 
 12 16  2  0  0  0  0 
 13 10  1  0  0  0  0 
 13 22  1  0  0  0  0 
 15 12  2  0  0  0  0 
 17  1  1  0  0  0  0 
 18  2  1  0  0  0  0 
 19  3  1  0  0  0  0 
M  END 
>  <HBA> 
3 
 
>  <HBD> 
1 
 
>  <TPSA> 
96.01 
 
>  <cid> 
10677 
 
>  <dipole> 
3.37 
 
>  <excitation_energy_1> 
3.595 
 
>  <excitation_energy_2> 
3.608 
 
>  <excitation_energy_3> 
3.861 
 
>  <excitation_energy_4> 
3.979 
 
>  <homo_energy> 
-7.257 
 
>  <homo_lumo_gap> 
4.308 
 
>  <logP> 
2.364 
 
>  <lumo_energy> 
-2.95 
 
>  <melting_point> 
195.28 
 
>  <molecular_refractivity> 
57.52 
 
>  <oscillator_strength_1> 
0.0298 
 
>  <oscillator_strength_2> 
0.0103 
 
>  <oscillator_strength_3> 
0.0882 
 
>  <oscillator_strength_4> 
0.031 
 
>  <open_babel_can_smiles> 
OC(=O)c1ccc2c(n1)cccc2N(=O)=O 
 
>  <mulliken_charges> 
22 
1   -0.145593 
2   -0.117686 
3   -0.144669 
4   -0.134091 
5   -0.158323 
6   0.136173 
7   0.222543 
8   0.247216 
9   0.196892 
10   0.55835 
11   -0.548873 
12   0.363093 
13   -0.552451 
14   -0.464339 
15   -0.382591 
16   -0.392002 
17   0.159042 
18   0.169989 
19   0.19233 
20   0.197248 
21   0.182711 
22   0.415029 
 
>  <lowdin_charges> 
22 
1   -0.149453 
2   -0.114989 
3   -0.122544 
4   -0.122386 
5   -0.145107 
6   -0.004063 
7   0.045735 
8   0.017619 
9   0.0023 
10   0.189473 
11   -0.118583 
12   0.309763 
13   -0.328495 
14   -0.263217 
15   -0.241207 
16   -0.245451 
17   0.173756 
18   0.180639 
19   0.192368 
20   0.189671 
21   0.188804 
22   0.365367 
 
$$$$ 
 
