PCCDB-ID:  10756 
public computational chemistry database (PCCDB) project, http://pccdb.org 
 
 32 32  0  0  0  0  0  0  0  0999 V2000 
    4.2234    0.5812    0.4717 C   0  0  0  0  0  0  0  0  0  0  0  0 
    8.2644   -3.0002    3.6231 C   0  0  0  0  0  0  0  0  0  0  0  0 
    5.7104    0.7371    0.8049 C   0  0  0  0  0  0  0  0  0  0  0  0 
    6.5729   -0.3939    0.2305 C   0  0  0  0  0  0  0  0  0  0  0  0 
   12.1640    0.0060    3.3105 C   0  0  0  0  0  0  0  0  0  0  0  0 
   11.3141    1.1135    3.3469 C   0  0  0  0  0  0  0  0  0  0  0  0 
   11.7054   -1.2145    2.8179 C   0  0  0  0  0  0  0  0  0  0  0  0 
   10.0048    0.9901    2.8808 C   0  0  0  0  0  0  0  0  0  0  0  0 
    8.0557   -0.2645    0.5481 C   0  0  0  0  0  0  0  0  0  0  0  0 
    9.0249   -3.2645    2.3443 C   0  0  0  0  0  0  0  0  0  0  0  0 
   10.3832   -1.3643    2.3721 C   0  0  0  0  0  0  0  0  0  0  0  0 
    9.5377   -0.2326    2.3982 C   0  0  0  0  0  0  0  0  0  0  0  0 
    9.9663   -2.5872    1.8266 N   0  0  0  0  0  0  0  0  0  0  0  0 
    8.6505   -4.3869    1.6665 O   0  0  0  0  0  0  0  0  0  0  0  0 
    8.2250   -0.3371    1.9769 O   0  0  0  0  0  0  0  0  0  0  0  0 
    3.6314    1.4012    0.8938 H   0  0  0  0  0  0  0  0  0  0  0  0 
    3.8230   -0.3582    0.8730 H   0  0  0  0  0  0  0  0  0  0  0  0 
    4.0564    0.5737   -0.6127 H   0  0  0  0  0  0  0  0  0  0  0  0 
    8.2225   -3.9079    4.2385 H   0  0  0  0  0  0  0  0  0  0  0  0 
    7.2395   -2.6868    3.3946 H   0  0  0  0  0  0  0  0  0  0  0  0 
    8.7374   -2.2057    4.2012 H   0  0  0  0  0  0  0  0  0  0  0  0 
    5.8481    0.7726    1.8918 H   0  0  0  0  0  0  0  0  0  0  0  0 
    6.0746    1.6991    0.4164 H   0  0  0  0  0  0  0  0  0  0  0  0 
    6.4664   -0.4263   -0.8631 H   0  0  0  0  0  0  0  0  0  0  0  0 
    6.2152   -1.3629    0.6057 H   0  0  0  0  0  0  0  0  0  0  0  0 
   13.1884    0.0913    3.6630 H   0  0  0  0  0  0  0  0  0  0  0  0 
   11.6676    2.0676    3.7276 H   0  0  0  0  0  0  0  0  0  0  0  0 
   12.3607   -2.0795    2.7741 H   0  0  0  0  0  0  0  0  0  0  0  0 
    9.3186    1.8321    2.8935 H   0  0  0  0  0  0  0  0  0  0  0  0 
    8.4485    0.6990    0.1903 H   0  0  0  0  0  0  0  0  0  0  0  0 
    8.6316   -1.0675    0.0708 H   0  0  0  0  0  0  0  0  0  0  0  0 
    7.9592   -4.8447    2.1688 H   0  0  0  0  0  0  0  0  0  0  0  0 
  1  3  1  0  0  0  0 
  1 17  1  0  0  0  0 
  1 16  1  0  0  0  0 
  2 21  1  0  0  0  0 
  2 19  1  0  0  0  0 
  3 22  1  0  0  0  0 
  4  9  1  0  0  0  0 
  4 25  1  0  0  0  0 
  4  3  1  0  0  0  0 
  5  6  1  0  0  0  0 
  5 26  1  0  0  0  0 
  6 27  1  0  0  0  0 
  7  5  2  0  0  0  0 
  8 29  1  0  0  0  0 
  8  6  2  0  0  0  0 
  9 15  1  0  0  0  0 
 10  2  1  0  0  0  0 
 11 12  2  0  0  0  0 
 11  7  1  0  0  0  0 
 12  8  1  0  0  0  0 
 13 10  2  0  0  0  0 
 13 11  1  0  0  0  0 
 14 32  1  0  0  0  0 
 14 10  1  0  0  0  0 
 15 12  1  0  0  0  0 
 18  1  1  0  0  0  0 
 20  2  1  0  0  0  0 
 23  3  1  0  0  0  0 
 24  4  1  0  0  0  0 
 28  7  1  0  0  0  0 
 30  9  1  0  0  0  0 
 31  9  1  0  0  0  0 
M  END 
>  <HBA> 
3 
 
>  <HBD> 
1 
 
>  <TPSA> 
38.33 
 
>  <cid> 
10756 
 
>  <dipole> 
2.69 
 
>  <excitation_energy_1> 
4.674 
 
>  <excitation_energy_2> 
4.949 
 
>  <excitation_energy_3> 
5.007 
 
>  <excitation_energy_4> 
5.561 
 
>  <homo_energy> 
-5.668 
 
>  <homo_lumo_gap> 
5.587 
 
>  <logP> 
2.897 
 
>  <lumo_energy> 
-0.082 
 
>  <melting_point> 
62.71 
 
>  <molecular_refractivity> 
61.67 
 
>  <oscillator_strength_1> 
0.0901 
 
>  <oscillator_strength_2> 
0.0319 
 
>  <oscillator_strength_3> 
0.0037 
 
>  <oscillator_strength_4> 
0.0054 
 
>  <open_babel_can_smiles> 
CCCCOc1ccccc1/N=C(/O)\C 
 
>  <mulliken_charges> 
32 
1   -0.441839 
2   -0.542257 
3   -0.24754 
4   -0.270435 
5   -0.133909 
6   -0.143438 
7   -0.170135 
8   -0.171131 
9   -0.03589 
10   0.498793 
11   0.201276 
12   0.32966 
13   -0.472782 
14   -0.573628 
15   -0.556003 
16   0.142991 
17   0.139215 
18   0.140482 
19   0.156518 
20   0.190568 
21   0.196325 
22   0.152082 
23   0.128295 
24   0.135224 
25   0.135692 
26   0.125967 
27   0.125816 
28   0.133698 
29   0.131153 
30   0.128122 
31   0.158733 
32   0.408373 
 
>  <lowdin_charges> 
32 
1   -0.443657 
2   -0.479219 
3   -0.272576 
4   -0.278652 
5   -0.159542 
6   -0.168786 
7   -0.172394 
8   -0.176579 
9   -0.124391 
10   0.15448 
11   0.023072 
12   0.064631 
13   -0.178476 
14   -0.360645 
15   -0.246476 
16   0.150858 
17   0.145333 
18   0.14368 
19   0.160653 
20   0.177441 
21   0.185395 
22   0.147261 
23   0.138505 
24   0.145531 
25   0.142955 
26   0.155884 
27   0.156716 
28   0.163737 
29   0.163697 
30   0.133097 
31   0.150308 
32   0.358161 
 
$$$$ 
 
