PCCDB-ID:  14074 
public computational chemistry database (PCCDB) project, http://pccdb.org 
 
 15 15  0  0  0  0  0  0  0  0999 V2000 
   -1.0541    1.0754    0.4605 C   0  0  0  0  0  0  0  0  0  0  0  0 
   -0.6583   -0.3461    0.6685 C   0  0  0  0  0  0  0  0  0  0  0  0 
   -2.2080   -0.2831   -1.2850 C   0  0  0  0  0  0  0  0  0  0  0  0 
   -2.8914   -1.6442   -1.4063 C   0  0  0  0  0  0  0  0  0  0  0  0 
   -1.9789   -0.0057    0.1354 N   0  0  0  0  0  0  0  0  0  0  0  0 
   -4.0932   -1.6751   -0.6591 O   0  0  0  0  0  0  0  0  0  0  0  0 
   -0.5862    1.6086   -0.3675 H   0  0  0  0  0  0  0  0  0  0  0  0 
   -1.3345    1.7021    1.3044 H   0  0  0  0  0  0  0  0  0  0  0  0 
   -0.6451   -0.7759    1.6675 H   0  0  0  0  0  0  0  0  0  0  0  0 
    0.0744   -0.7686   -0.0200 H   0  0  0  0  0  0  0  0  0  0  0  0 
   -2.8789    0.4935   -1.6711 H   0  0  0  0  0  0  0  0  0  0  0  0 
   -1.2763   -0.2575   -1.8796 H   0  0  0  0  0  0  0  0  0  0  0  0 
   -2.1928   -2.4342   -1.0785 H   0  0  0  0  0  0  0  0  0  0  0  0 
   -3.1514   -1.8461   -2.4511 H   0  0  0  0  0  0  0  0  0  0  0  0 
   -3.8730   -1.2438    0.1861 H   0  0  0  0  0  0  0  0  0  0  0  0 
  1  2  1  0  0  0  0 
  1  8  1  0  0  0  0 
  2  9  1  0  0  0  0 
  3  5  1  0  0  0  0 
  4  3  1  0  0  0  0 
  4 13  1  0  0  0  0 
  4  6  1  0  0  0  0 
  5  1  1  0  0  0  0 
  5  2  1  0  0  0  0 
  6 15  1  0  0  0  0 
  7  1  1  0  0  0  0 
 10  2  1  0  0  0  0 
 11  3  1  0  0  0  0 
 12  3  1  0  0  0  0 
 14  4  1  0  0  0  0 
M  END 
>  <HBA> 
2 
 
>  <HBD> 
1 
 
>  <TPSA> 
23.24 
 
>  <cid> 
14074 
 
>  <dipole> 
2.96 
 
>  <excitation_energy_1> 
6.345 
 
>  <excitation_energy_2> 
6.527 
 
>  <excitation_energy_3> 
6.609 
 
>  <excitation_energy_4> 
6.731 
 
>  <homo_energy> 
-6.67 
 
>  <homo_lumo_gap> 
9.081 
 
>  <logP> 
-0.768 
 
>  <lumo_energy> 
2.411 
 
>  <melting_point> 
4.67 
 
>  <molecular_refractivity> 
27.2 
 
>  <oscillator_strength_1> 
0.0414 
 
>  <oscillator_strength_2> 
0.0028 
 
>  <oscillator_strength_3> 
0.0577 
 
>  <oscillator_strength_4> 
0.0074 
 
>  <open_babel_can_smiles> 
OCCN1CC1 
 
>  <mulliken_charges> 
15 
1   -0.188241 
2   -0.194263 
3   -0.150928 
4   -0.012708 
5   -0.379324 
6   -0.628064 
7   0.14963 
8   0.161812 
9   0.162085 
10   0.149849 
11   0.155955 
12   0.11329 
13   0.116819 
14   0.14044 
15   0.403648 
 
>  <lowdin_charges> 
15 
1   -0.239938 
2   -0.243538 
3   -0.220985 
4   -0.135808 
5   -0.203599 
6   -0.472473 
7   0.152125 
8   0.161684 
9   0.160219 
10   0.151166 
11   0.152937 
12   0.126387 
13   0.124549 
14   0.144879 
15   0.342392 
 
$$$$ 
 
