PCCDB-ID:  26577 
public computational chemistry database (PCCDB) project, http://pccdb.org 
 
 25 24  0  0  0  0  0  0  0  0999 V2000 
    3.9904    2.4593   -2.8066 C   0  0  0  0  0  0  0  0  0  0  0  0 
    7.2875   -3.1683    1.1494 C   0  0  0  0  0  0  0  0  0  0  0  0 
    5.5933   -4.9663    1.6138 C   0  0  0  0  0  0  0  0  0  0  0  0 
    5.1181    1.8147   -2.0015 C   0  0  0  0  0  0  0  0  0  0  0  0 
    4.9534   -1.6785   -1.9626 C   0  0  0  0  0  0  0  0  0  0  0  0 
    3.9038   -0.7004   -1.4410 C   0  0  0  0  0  0  0  0  0  0  0  0 
    6.1234   -3.7685    0.8704 C   0  0  0  0  0  0  0  0  0  0  0  0 
    5.2334   -3.2624   -0.2170 C   0  0  0  0  0  0  0  0  0  0  0  0 
    4.1375   -3.7349   -0.4574 O   0  0  0  0  0  0  0  0  0  0  0  0 
    5.7671   -2.2291   -0.9131 O   0  0  0  0  0  0  0  0  0  0  0  0 
    4.5619    0.7822   -0.5827 S   0  0  0  0  0  0  0  0  0  0  0  0 
    4.4043    3.0810   -3.6107 H   0  0  0  0  0  0  0  0  0  0  0  0 
    3.3666    3.0914   -2.1673 H   0  0  0  0  0  0  0  0  0  0  0  0 
    3.3417    1.7089   -3.2718 H   0  0  0  0  0  0  0  0  0  0  0  0 
    7.9276   -3.5330    1.9486 H   0  0  0  0  0  0  0  0  0  0  0  0 
    7.6272   -2.2999    0.5966 H   0  0  0  0  0  0  0  0  0  0  0  0 
    6.3010   -5.2931    2.3808 H   0  0  0  0  0  0  0  0  0  0  0  0 
    5.4034   -5.8011    0.9298 H   0  0  0  0  0  0  0  0  0  0  0  0 
    4.6351   -4.7361    2.0931 H   0  0  0  0  0  0  0  0  0  0  0  0 
    5.7473    2.5835   -1.5405 H   0  0  0  0  0  0  0  0  0  0  0  0 
    5.7754    1.2186   -2.6450 H   0  0  0  0  0  0  0  0  0  0  0  0 
    5.6632   -1.1884   -2.6334 H   0  0  0  0  0  0  0  0  0  0  0  0 
    4.4552   -2.4948   -2.4953 H   0  0  0  0  0  0  0  0  0  0  0  0 
    3.2642   -1.2086   -0.7147 H   0  0  0  0  0  0  0  0  0  0  0  0 
    3.2602   -0.3905   -2.2721 H   0  0  0  0  0  0  0  0  0  0  0  0 
  1 13  1  0  0  0  0 
  1  4  1  0  0  0  0 
  2 15  1  0  0  0  0 
  3 19  1  0  0  0  0 
  3 17  1  0  0  0  0 
  4 20  1  0  0  0  0 
  4 11  1  0  0  0  0 
  5  6  1  0  0  0  0 
  5 10  1  0  0  0  0 
  6 24  1  0  0  0  0 
  6 11  1  0  0  0  0 
  7  2  2  0  0  0  0 
  7  3  1  0  0  0  0 
  8  7  1  0  0  0  0 
  9  8  2  0  0  0  0 
 10  8  1  0  0  0  0 
 12  1  1  0  0  0  0 
 14  1  1  0  0  0  0 
 16  2  1  0  0  0  0 
 18  3  1  0  0  0  0 
 21  4  1  0  0  0  0 
 22  5  1  0  0  0  0 
 23  5  1  0  0  0  0 
 25  6  1  0  0  0  0 
M  END 
>  <HBA> 
3 
 
>  <HBD> 
0 
 
>  <TPSA> 
51.6 
 
>  <cid> 
26577 
 
>  <dipole> 
2.14 
 
>  <excitation_energy_1> 
4.076 
 
>  <excitation_energy_2> 
4.841 
 
>  <excitation_energy_3> 
5.277 
 
>  <excitation_energy_4> 
5.416 
 
>  <homo_energy> 
-6.0 
 
>  <homo_lumo_gap> 
4.942 
 
>  <logP> 
1.859 
 
>  <lumo_energy> 
-1.059 
 
>  <melting_point> 
-23.66 
 
>  <molecular_refractivity> 
48.97 
 
>  <oscillator_strength_1> 
0.0003 
 
>  <oscillator_strength_2> 
0.0001 
 
>  <oscillator_strength_3> 
0.0129 
 
>  <oscillator_strength_4> 
0.0136 
 
>  <open_babel_can_smiles> 
CCSCCOC(=O)C(=C)C 
 
>  <mulliken_charges> 
25 
1   -0.434448 
2   -0.366156 
3   -0.500373 
4   -0.414351 
5   -0.036357 
6   -0.44489 
7   0.125812 
8   0.596753 
9   -0.490989 
10   -0.4652 
11   0.094672 
12   0.148911 
13   0.166122 
14   0.150376 
15   0.148287 
16   0.178597 
17   0.147614 
18   0.170939 
19   0.173938 
20   0.178346 
21   0.166287 
22   0.156635 
23   0.172387 
24   0.205382 
25   0.171706 
 
>  <lowdin_charges> 
25 
1   -0.451639 
2   -0.298242 
3   -0.436254 
4   -0.378548 
5   -0.1383 
6   -0.395265 
7   -0.028688 
8   0.195369 
9   -0.272735 
10   -0.183377 
11   0.092167 
12   0.15406 
13   0.161687 
14   0.150875 
15   0.164027 
16   0.178804 
17   0.156672 
18   0.168083 
19   0.169065 
20   0.170539 
21   0.154361 
22   0.155314 
23   0.162922 
24   0.185165 
25   0.163938 
 
$$$$ 
 
