PCCDB-ID:  11096 
public computational chemistry database (PCCDB) project, http://pccdb.org 
 
 26 27  0  0  1  0  0  0  0  0999 V2000 
    1.1189    0.1019    0.2754 C   0  0  0  0  0  0  0  0  0  0  0  0 
    2.8401    0.0712   -3.0685 C   0  0  0  0  0  0  0  0  0  0  0  0 
    2.4716    1.3456   -2.2888 C   0  0  0  0  0  0  0  0  0  0  0  0 
    2.4544   -1.1890   -2.2742 C   0  0  0  0  0  0  0  0  0  0  0  0 
    4.5134    1.3623   -0.7147 C   0  0  0  0  0  0  0  0  0  0  0  0 
    4.4963   -1.2147   -0.7002 C   0  0  0  0  0  0  0  0  0  0  0  0 
    2.9729    1.2957   -0.8255 C   0  0  2  0  0  0  0  0  0  0  0  0 
    2.9569   -1.1290   -0.8117 C   0  0  1  0  0  0  0  0  0  0  0  0 
    5.2108    0.0669   -1.1097 C   0  0  0  0  0  0  0  0  0  0  0  0 
    2.5238    0.0904   -0.1064 N   0  0  0  0  0  0  0  0  0  0  0  0 
    6.2882    0.0566   -1.6766 O   0  0  0  0  0  0  0  0  0  0  0  0 
    0.9196    0.9921    0.8831 H   0  0  0  0  0  0  0  0  0  0  0  0 
    0.9079   -0.7786    0.8932 H   0  0  0  0  0  0  0  0  0  0  0  0 
    0.4000    0.1019   -0.5628 H   0  0  0  0  0  0  0  0  0  0  0  0 
    3.9154    0.0626   -3.2867 H   0  0  0  0  0  0  0  0  0  0  0  0 
    2.3380    0.0689   -4.0439 H   0  0  0  0  0  0  0  0  0  0  0  0 
    1.3793    1.4619   -2.2797 H   0  0  0  0  0  0  0  0  0  0  0  0 
    2.8730    2.2355   -2.7902 H   0  0  0  0  0  0  0  0  0  0  0  0 
    2.8435   -2.0900   -2.7654 H   0  0  0  0  0  0  0  0  0  0  0  0 
    1.3607   -1.2902   -2.2634 H   0  0  0  0  0  0  0  0  0  0  0  0 
    4.7627    1.5441    0.3400 H   0  0  0  0  0  0  0  0  0  0  0  0 
    4.9373    2.1816   -1.3041 H   0  0  0  0  0  0  0  0  0  0  0  0 
    4.9091   -2.0460   -1.2806 H   0  0  0  0  0  0  0  0  0  0  0  0 
    4.7435   -1.3882    0.3564 H   0  0  0  0  0  0  0  0  0  0  0  0 
    2.5631    2.1616   -0.2909 H   0  0  0  0  0  0  0  0  0  0  0  0 
    2.5358   -1.9831   -0.2670 H   0  0  0  0  0  0  0  0  0  0  0  0 
  1 12  1  0  0  0  0 
  1 13  1  0  0  0  0 
  2  3  1  0  0  0  0 
  2  4  1  0  0  0  0 
  3 17  1  0  0  0  0 
  3  7  1  0  0  0  0 
  4 20  1  0  0  0  0 
  4  8  1  0  0  0  0 
  5 21  1  0  0  0  0 
  6 24  1  0  0  0  0 
  7  5  1  0  0  0  0 
  7 25  1  1  0  0  0 
  7 10  1  0  0  0  0 
  8  6  1  0  0  0  0 
  8 26  1  1  0  0  0 
  8 10  1  0  0  0  0 
  9  5  1  0  0  0  0 
  9  6  1  0  0  0  0 
 10  1  1  0  0  0  0 
 11  9  2  0  0  0  0 
 14  1  1  0  0  0  0 
 15  2  1  0  0  0  0 
 16  2  1  0  0  0  0 
 18  3  1  0  0  0  0 
 19  4  1  0  0  0  0 
 22  5  1  0  0  0  0 
 23  6  1  0  0  0  0 
M  END 
>  <HBA> 
2 
 
>  <HBD> 
0 
 
>  <TPSA> 
20.31 
 
>  <cid> 
11096 
 
>  <dipole> 
3.25 
 
>  <excitation_energy_1> 
4.259 
 
>  <excitation_energy_2> 
4.354 
 
>  <excitation_energy_3> 
5.08 
 
>  <excitation_energy_4> 
5.505 
 
>  <homo_energy> 
-5.698 
 
>  <homo_lumo_gap> 
5.459 
 
>  <logP> 
1.14 
 
>  <lumo_energy> 
-0.239 
 
>  <melting_point> 
40.63 
 
>  <molecular_refractivity> 
48.16 
 
>  <oscillator_strength_1> 
0.0001 
 
>  <oscillator_strength_2> 
0.0068 
 
>  <oscillator_strength_3> 
0.0009 
 
>  <oscillator_strength_4> 
0.006 
 
>  <open_babel_can_smiles> 
O=C1C[C@@H]2CCC[C@H](C1)N2C 
 
>  <mulliken_charges> 
26 
1   -0.301162 
2   -0.290285 
3   -0.265518 
4   -0.265569 
5   -0.336842 
6   -0.336903 
7   0.011754 
8   0.011842 
9   0.442159 
10   -0.385978 
11   -0.462492 
12   0.149854 
13   0.149851 
14   0.126048 
15   0.159842 
16   0.139417 
17   0.135087 
18   0.137129 
19   0.13712 
20   0.1351 
21   0.16949 
22   0.157971 
23   0.157986 
24   0.169499 
25   0.127305 
26   0.127293 
 
>  <lowdin_charges> 
26 
1   -0.358945 
2   -0.284917 
3   -0.292774 
4   -0.292642 
5   -0.310502 
6   -0.310394 
7   -0.065534 
8   -0.065596 
9   0.152097 
10   -0.191662 
11   -0.243364 
12   0.151058 
13   0.151124 
14   0.123488 
15   0.15084 
16   0.148948 
17   0.140866 
18   0.148618 
19   0.148519 
20   0.140837 
21   0.171633 
22   0.163108 
23   0.163051 
24   0.17161 
25   0.145225 
26   0.145306 
 
$$$$ 
 
