PCCDB-ID:  69631 
public computational chemistry database (PCCDB) project, http://pccdb.org 
 
 24 23  0  0  0  0  0  0  0  0999 V2000 
    1.1419   -0.3221    0.3559 C   0  0  0  0  0  0  0  0  0  0  0  0 
    0.2577    4.1283    0.3475 C   0  0  0  0  0  0  0  0  0  0  0  0 
    6.3206    3.7986    3.2077 C   0  0  0  0  0  0  0  0  0  0  0  0 
    4.5233    2.7270    0.5101 C   0  0  0  0  0  0  0  0  0  0  0  0 
    5.7899    2.0791    1.0486 C   0  0  0  0  0  0  0  0  0  0  0  0 
    2.0179    2.1723   -1.3116 O   0  0  0  0  0  0  0  0  0  0  0  0 
    1.0675    1.0285    0.8488 O   0  0  0  0  0  0  0  0  0  0  0  0 
    1.4379    3.4982    0.8799 O   0  0  0  0  0  0  0  0  0  0  0  0 
    3.3843    1.9416    0.9155 O   0  0  0  0  0  0  0  0  0  0  0  0 
    1.9778    2.1619    0.1695 P   0  0  0  0  0  0  0  0  0  0  0  0 
    5.9576    2.0389    2.8739 S   0  0  0  0  0  0  0  0  0  0  0  0 
    0.3014   -0.8572    0.8005 H   0  0  0  0  0  0  0  0  0  0  0  0 
    2.0819   -0.7838    0.6738 H   0  0  0  0  0  0  0  0  0  0  0  0 
    1.0653   -0.3396   -0.7349 H   0  0  0  0  0  0  0  0  0  0  0  0 
    0.1804    5.0998    0.8382 H   0  0  0  0  0  0  0  0  0  0  0  0 
   -0.6274    3.5275    0.5801 H   0  0  0  0  0  0  0  0  0  0  0  0 
    0.3458    4.2589   -0.7346 H   0  0  0  0  0  0  0  0  0  0  0  0 
    6.4670    3.8873    4.2874 H   0  0  0  0  0  0  0  0  0  0  0  0 
    5.4899    4.4491    2.9191 H   0  0  0  0  0  0  0  0  0  0  0  0 
    7.2368    4.1212    2.7022 H   0  0  0  0  0  0  0  0  0  0  0  0 
    4.5638    2.7624   -0.5853 H   0  0  0  0  0  0  0  0  0  0  0  0 
    4.4005    3.7477    0.8886 H   0  0  0  0  0  0  0  0  0  0  0  0 
    6.6609    2.5878    0.6178 H   0  0  0  0  0  0  0  0  0  0  0  0 
    5.8263    1.0338    0.7261 H   0  0  0  0  0  0  0  0  0  0  0  0 
  1 13  1  0  0  0  0 
  1 12  1  0  0  0  0 
  1  7  1  0  0  0  0 
  2 16  1  0  0  0  0 
  2 15  1  0  0  0  0 
  2  8  1  0  0  0  0 
  3 18  1  0  0  0  0 
  4 22  1  0  0  0  0 
  4  9  1  0  0  0  0 
  4  5  1  0  0  0  0 
  5 11  1  0  0  0  0 
  6 10  2  0  0  0  0 
 10  7  1  0  0  0  0 
 10  8  1  0  0  0  0 
 10  9  1  0  0  0  0 
 11  3  1  0  0  0  0 
 14  1  1  0  0  0  0 
 17  2  1  0  0  0  0 
 19  3  1  0  0  0  0 
 20  3  1  0  0  0  0 
 21  4  1  0  0  0  0 
 23  5  1  0  0  0  0 
 24  5  1  0  0  0  0 
M  END 
>  <HBA> 
5 
 
>  <HBD> 
0 
 
>  <TPSA> 
79.87 
 
>  <cid> 
69631 
 
>  <dipole> 
1.22 
 
>  <excitation_energy_1> 
5.174 
 
>  <excitation_energy_2> 
5.424 
 
>  <excitation_energy_3> 
5.844 
 
>  <excitation_energy_4> 
5.954 
 
>  <homo_energy> 
-6.014 
 
>  <homo_lumo_gap> 
7.138 
 
>  <logP> 
1.767 
 
>  <lumo_energy> 
1.124 
 
>  <melting_point> 
-26.0 
 
>  <molecular_refractivity> 
45.66 
 
>  <oscillator_strength_1> 
0.0006 
 
>  <oscillator_strength_2> 
0.0158 
 
>  <oscillator_strength_3> 
0.0186 
 
>  <oscillator_strength_4> 
0.0062 
 
>  <open_babel_can_smiles> 
CSCCOP(=O)(OC)OC 
 
>  <mulliken_charges> 
24 
1   -0.219548 
2   -0.221094 
3   -0.590969 
4   -0.033423 
5   -0.434259 
6   -0.577129 
7   -0.502009 
8   -0.50718 
9   -0.504572 
10   1.188949 
11   0.11371 
12   0.171088 
13   0.170507 
14   0.1815 
15   0.169792 
16   0.170064 
17   0.182322 
18   0.187588 
19   0.180994 
20   0.1738 
21   0.176056 
22   0.162894 
23   0.170519 
24   0.1904 
 
>  <lowdin_charges> 
24 
1   -0.266529 
2   -0.268044 
3   -0.549806 
4   -0.121082 
5   -0.386587 
6   -0.597256 
7   -0.385091 
8   -0.385816 
9   -0.381433 
10   1.108346 
11   0.11314 
12   0.164105 
13   0.15811 
14   0.163616 
15   0.161915 
16   0.158097 
17   0.164082 
18   0.176886 
19   0.162179 
20   0.159969 
21   0.161198 
22   0.150598 
23   0.163432 
24   0.175971 
 
$$$$ 
 
