PCCDB-ID:  7612 
public computational chemistry database (PCCDB) project, http://pccdb.org 
 
 11 11  0  0  0  0  0  0  0  0999 V2000 
    0.7350   -0.9570   -0.0003 C   0  0  0  0  0  0  0  0  0  0  0  0 
   -0.7349   -0.9570   -0.0005 C   0  0  0  0  0  0  0  0  0  0  0  0 
    1.1812    0.3160    0.0009 C   0  0  0  0  0  0  0  0  0  0  0  0 
   -1.1811    0.3160    0.0006 C   0  0  0  0  0  0  0  0  0  0  0  0 
    0.0001    1.2516    0.0016 C   0  0  0  0  0  0  0  0  0  0  0  0 
    1.3474   -1.8530   -0.0009 H   0  0  0  0  0  0  0  0  0  0  0  0 
   -1.3473   -1.8530   -0.0013 H   0  0  0  0  0  0  0  0  0  0  0  0 
    2.2141    0.6452    0.0013 H   0  0  0  0  0  0  0  0  0  0  0  0 
   -2.2139    0.6452    0.0006 H   0  0  0  0  0  0  0  0  0  0  0  0 
    0.0001    1.9167   -0.8759 H   0  0  0  0  0  0  0  0  0  0  0  0 
   -0.0000    1.9151    0.8803 H   0  0  0  0  0  0  0  0  0  0  0  0 
  1  3  2  0  0  0  0 
  2  1  1  0  0  0  0 
  2  4  2  0  0  0  0 
  3  8  1  0  0  0  0 
  3  5  1  0  0  0  0 
  4  9  1  0  0  0  0 
  4  5  1  0  0  0  0 
  5 11  1  0  0  0  0 
  6  1  1  0  0  0  0 
  7  2  1  0  0  0  0 
 10  5  1  0  0  0  0 
M  END 
>  <HBA> 
0 
 
>  <HBD> 
0 
 
>  <TPSA> 
0.0 
 
>  <cid> 
7612 
 
>  <dipole> 
0.44 
 
>  <excitation_energy_1> 
5.044 
 
>  <excitation_energy_2> 
5.547 
 
>  <excitation_energy_3> 
6.035 
 
>  <excitation_energy_4> 
6.081 
 
>  <homo_energy> 
-5.755 
 
>  <homo_lumo_gap> 
5.486 
 
>  <logP> 
1.502 
 
>  <lumo_energy> 
-0.269 
 
>  <melting_point> 
16.26 
 
>  <molecular_refractivity> 
23.09 
 
>  <oscillator_strength_1> 
0.1029 
 
>  <oscillator_strength_2> 
0.0 
 
>  <oscillator_strength_3> 
0.032 
 
>  <oscillator_strength_4> 
0.0 
 
>  <open_babel_can_smiles> 
C1C=CC=C1 
 
>  <mulliken_charges> 
11 
1   -0.114615 
2   -0.114869 
3   -0.133911 
4   -0.133833 
5   -0.345751 
6   0.125294 
7   0.125292 
8   0.128852 
9   0.128853 
10   0.167343 
11   0.167346 
 
>  <lowdin_charges> 
11 
1   -0.170468 
2   -0.170483 
3   -0.177033 
4   -0.177029 
5   -0.272324 
6   0.15586 
7   0.155861 
8   0.156478 
9   0.156478 
10   0.171331 
11   0.171329 
 
$$$$ 
 
