PCCDB-ID:  17307 
public computational chemistry database (PCCDB) project, http://pccdb.org 
 
 20 20  0  0  0  0  0  0  0  0999 V2000 
    3.9048    3.3709   -0.8928 C   0  0  0  0  0  0  0  0  0  0  0  0 
    5.0899    3.1099    0.0250 C   0  0  0  0  0  0  0  0  0  0  0  0 
    6.4643   -2.8139   -0.2638 C   0  0  0  0  0  0  0  0  0  0  0  0 
    7.5546   -2.6273   -1.1120 C   0  0  0  0  0  0  0  0  0  0  0  0 
    5.7339   -1.6985    0.1387 C   0  0  0  0  0  0  0  0  0  0  0  0 
    7.8651   -1.3270   -1.5207 C   0  0  0  0  0  0  0  0  0  0  0  0 
    6.1300   -0.4398   -0.3273 C   0  0  0  0  0  0  0  0  0  0  0  0 
    5.3289    0.7534    0.1208 C   0  0  0  0  0  0  0  0  0  0  0  0 
    7.1757   -0.2473   -1.1439 N   0  0  0  0  0  0  0  0  0  0  0  0 
    4.3594    0.6552    0.8513 O   0  0  0  0  0  0  0  0  0  0  0  0 
    5.8020    1.9109   -0.3629 O   0  0  0  0  0  0  0  0  0  0  0  0 
    3.4367    4.3270   -0.6312 H   0  0  0  0  0  0  0  0  0  0  0  0 
    3.1551    2.5817   -0.7885 H   0  0  0  0  0  0  0  0  0  0  0  0 
    4.2271    3.4195   -1.9380 H   0  0  0  0  0  0  0  0  0  0  0  0 
    4.7719    3.0118    1.0659 H   0  0  0  0  0  0  0  0  0  0  0  0 
    5.8395    3.9009   -0.0542 H   0  0  0  0  0  0  0  0  0  0  0  0 
    6.1873   -3.8078    0.0765 H   0  0  0  0  0  0  0  0  0  0  0  0 
    8.1549   -3.4659   -1.4524 H   0  0  0  0  0  0  0  0  0  0  0  0 
    4.8760   -1.7739    0.7969 H   0  0  0  0  0  0  0  0  0  0  0  0 
    8.7096   -1.1458   -2.1836 H   0  0  0  0  0  0  0  0  0  0  0  0 
  1 13  1  0  0  0  0 
  1 12  1  0  0  0  0 
  1  2  1  0  0  0  0 
  2 15  1  0  0  0  0 
  3 17  1  0  0  0  0 
  3  5  1  0  0  0  0 
  4  3  2  0  0  0  0 
  5 19  1  0  0  0  0 
  6  9  2  0  0  0  0 
  6  4  1  0  0  0  0 
  7  8  1  0  0  0  0 
  7  5  2  0  0  0  0 
  8 10  2  0  0  0  0 
  9  7  1  0  0  0  0 
 11  2  1  0  0  0  0 
 11  8  1  0  0  0  0 
 14  1  1  0  0  0  0 
 16  2  1  0  0  0  0 
 18  4  1  0  0  0  0 
 20  6  1  0  0  0  0 
M  END 
>  <HBA> 
3 
 
>  <HBD> 
0 
 
>  <TPSA> 
39.19 
 
>  <cid> 
17307 
 
>  <dipole> 
1.57 
 
>  <excitation_energy_1> 
4.177 
 
>  <excitation_energy_2> 
4.861 
 
>  <excitation_energy_3> 
4.964 
 
>  <excitation_energy_4> 
5.168 
 
>  <homo_energy> 
-6.944 
 
>  <homo_lumo_gap> 
5.472 
 
>  <logP> 
1.258 
 
>  <lumo_energy> 
-1.472 
 
>  <melting_point> 
44.1 
 
>  <molecular_refractivity> 
40.32 
 
>  <oscillator_strength_1> 
0.0012 
 
>  <oscillator_strength_2> 
0.0008 
 
>  <oscillator_strength_3> 
0.0012 
 
>  <oscillator_strength_4> 
0.1203 
 
>  <open_babel_can_smiles> 
CCOC(=O)c1ccccn1 
 
>  <mulliken_charges> 
20 
1   -0.463117 
2   -0.044061 
3   -0.107896 
4   -0.1335 
5   -0.139582 
6   0.037559 
7   0.208007 
8   0.611948 
9   -0.451056 
10   -0.496285 
11   -0.448175 
12   0.14929 
13   0.175657 
14   0.161275 
15   0.168912 
16   0.155711 
17   0.150439 
18   0.145426 
19   0.172583 
20   0.146866 
 
>  <lowdin_charges> 
20 
1   -0.454037 
2   -0.12506 
3   -0.127716 
4   -0.163618 
5   -0.14648 
6   -0.086218 
7   0.010009 
8   0.188584 
9   -0.12532 
10   -0.276745 
11   -0.164219 
12   0.158291 
13   0.165595 
14   0.156925 
15   0.156519 
16   0.154956 
17   0.166563 
18   0.168506 
19   0.183748 
20   0.159717 
 
$$$$ 
 
