PCCDB-ID:  32837 
public computational chemistry database (PCCDB) project, http://pccdb.org 
 
 23 22  0  0  0  0  0  0  0  0999 V2000 
    2.3869   -1.7965    2.1276 C   0  0  0  0  0  0  0  0  0  0  0  0 
    3.2615    3.1068   -0.8037 C   0  0  0  0  0  0  0  0  0  0  0  0 
    5.7625   -1.1099   -0.2458 C   0  0  0  0  0  0  0  0  0  0  0  0 
    2.9958   -1.8055    0.9372 C   0  0  0  0  0  0  0  0  0  0  0  0 
    4.0606    2.3842   -0.0168 C   0  0  0  0  0  0  0  0  0  0  0  0 
    3.2854   -0.5742    0.1213 C   0  0  0  0  0  0  0  0  0  0  0  0 
    4.9481    1.2637   -0.4844 C   0  0  0  0  0  0  0  0  0  0  0  0 
    4.7518   -0.0721    0.2697 C   0  0  0  0  0  0  0  0  0  0  0  0 
    5.0244    0.2210    1.6440 O   0  0  0  0  0  0  0  0  0  0  0  0 
    2.2220   -2.7086    2.6953 H   0  0  0  0  0  0  0  0  0  0  0  0 
    2.0085   -0.8750    2.5662 H   0  0  0  0  0  0  0  0  0  0  0  0 
    2.6551    3.9195   -0.4122 H   0  0  0  0  0  0  0  0  0  0  0  0 
    3.1880    2.9207   -1.8739 H   0  0  0  0  0  0  0  0  0  0  0  0 
    5.5986   -1.3430   -1.3050 H   0  0  0  0  0  0  0  0  0  0  0  0 
    5.6919   -2.0445    0.3218 H   0  0  0  0  0  0  0  0  0  0  0  0 
    6.7809   -0.7257   -0.1282 H   0  0  0  0  0  0  0  0  0  0  0  0 
    3.3425   -2.7579    0.5349 H   0  0  0  0  0  0  0  0  0  0  0  0 
    4.1082    2.6001    1.0493 H   0  0  0  0  0  0  0  0  0  0  0  0 
    2.6208    0.2396    0.4297 H   0  0  0  0  0  0  0  0  0  0  0  0 
    3.0881   -0.7707   -0.9411 H   0  0  0  0  0  0  0  0  0  0  0  0 
    5.9984    1.5543   -0.3353 H   0  0  0  0  0  0  0  0  0  0  0  0 
    4.8108    1.0939   -1.5598 H   0  0  0  0  0  0  0  0  0  0  0  0 
    4.6819   -0.5258    2.1651 H   0  0  0  0  0  0  0  0  0  0  0  0 
  1 11  1  0  0  0  0 
  1 10  1  0  0  0  0 
  2 12  1  0  0  0  0 
  2  5  2  0  0  0  0 
  3 16  1  0  0  0  0 
  3  8  1  0  0  0  0 
  3 15  1  0  0  0  0 
  4  1  2  0  0  0  0 
  5 18  1  0  0  0  0 
  6  8  1  0  0  0  0 
  6 19  1  0  0  0  0 
  6  4  1  0  0  0  0 
  7 21  1  0  0  0  0 
  7  5  1  0  0  0  0 
  7  8  1  0  0  0  0 
  8  9  1  0  0  0  0 
  9 23  1  0  0  0  0 
 13  2  1  0  0  0  0 
 14  3  1  0  0  0  0 
 17  4  1  0  0  0  0 
 20  6  1  0  0  0  0 
 22  7  1  0  0  0  0 
M  END 
>  <HBA> 
1 
 
>  <HBD> 
1 
 
>  <TPSA> 
20.23 
 
>  <cid> 
32837 
 
>  <dipole> 
1.62 
 
>  <excitation_energy_1> 
6.051 
 
>  <excitation_energy_2> 
6.199 
 
>  <excitation_energy_3> 
6.339 
 
>  <excitation_energy_4> 
6.504 
 
>  <homo_energy> 
-6.71 
 
>  <homo_lumo_gap> 
6.89 
 
>  <logP> 
1.89 
 
>  <lumo_energy> 
0.18 
 
>  <melting_point> 
-39.45 
 
>  <molecular_refractivity> 
40.82 
 
>  <oscillator_strength_1> 
0.0504 
 
>  <oscillator_strength_2> 
0.0506 
 
>  <oscillator_strength_3> 
0.0162 
 
>  <oscillator_strength_4> 
0.0023 
 
>  <open_babel_can_smiles> 
C=CCC(CC=C)(O)C 
 
>  <mulliken_charges> 
23 
1   -0.34603 
2   -0.347462 
3   -0.456873 
4   -0.078918 
5   -0.043499 
6   -0.315509 
7   -0.307387 
8   0.299969 
9   -0.64911 
10   0.145009 
11   0.149578 
12   0.137247 
13   0.130878 
14   0.135672 
15   0.138775 
16   0.154342 
17   0.134865 
18   0.14677 
19   0.160615 
20   0.137164 
21   0.153207 
22   0.131749 
23   0.388948 
 
>  <lowdin_charges> 
23 
1   -0.345798 
2   -0.346425 
3   -0.455727 
4   -0.151669 
5   -0.140174 
6   -0.292492 
7   -0.273531 
8   0.124691 
9   -0.469355 
10   0.161014 
11   0.160122 
12   0.15758 
13   0.14907 
14   0.14693 
15   0.148802 
16   0.1563 
17   0.152858 
18   0.158979 
19   0.162863 
20   0.151373 
21   0.157819 
22   0.145777 
23   0.340995 
 
$$$$ 
 
