PCCDB-ID:  20917 
public computational chemistry database (PCCDB) project, http://pccdb.org 
 
 23 23  0  0  1  0  0  0  0  0999 V2000 
    0.8848    0.1557    0.4355 C   0  0  0  0  0  0  0  0  0  0  0  0 
    0.0672   -0.7711   -0.4711 C   0  0  0  0  0  0  0  0  0  0  0  0 
    6.7483    0.1871   -0.3786 C   0  0  0  0  0  0  0  0  0  0  0  0 
    7.1532    1.4896    0.3622 C   0  0  0  0  0  0  0  0  0  0  0  0 
    2.3679    0.1473    0.0627 C   0  0  0  0  0  0  0  0  0  0  0  0 
    4.9469    0.9651    0.6152 C   0  0  3  0  0  0  0  0  0  0  0  0 
   -1.3527   -0.7106   -0.1075 N   0  0  0  0  0  0  0  0  0  0  0  0 
    5.2785    0.1023   -0.2723 N   0  0  0  0  0  0  0  0  0  0  0  0 
    5.9748    1.6945    1.2225 N   0  0  0  0  0  0  0  0  0  0  0  0 
    3.2985    1.2674    1.1881 S   0  0  0  0  0  0  0  0  0  0  0  0 
    0.7657   -0.1631    1.4806 H   0  0  0  0  0  0  0  0  0  0  0  0 
    0.4700    1.1677    0.3631 H   0  0  0  0  0  0  0  0  0  0  0  0 
    0.5006   -1.7879   -0.4333 H   0  0  0  0  0  0  0  0  0  0  0  0 
    0.1588   -0.4317   -1.5107 H   0  0  0  0  0  0  0  0  0  0  0  0 
    7.1921   -0.6953    0.1028 H   0  0  0  0  0  0  0  0  0  0  0  0 
    7.0614    0.1815   -1.4277 H   0  0  0  0  0  0  0  0  0  0  0  0 
    7.2886    2.3268   -0.3385 H   0  0  0  0  0  0  0  0  0  0  0  0 
    8.0652    1.3834    0.9569 H   0  0  0  0  0  0  0  0  0  0  0  0 
    2.5272    0.4881   -0.9641 H   0  0  0  0  0  0  0  0  0  0  0  0 
    2.8089   -0.8484    0.1532 H   0  0  0  0  0  0  0  0  0  0  0  0 
   -1.4867   -1.1309    0.8118 H   0  0  0  0  0  0  0  0  0  0  0  0 
   -1.8978   -1.2771   -0.7555 H   0  0  0  0  0  0  0  0  0  0  0  0 
    5.7571    2.6484    1.4895 H   0  0  0  0  0  0  0  0  0  0  0  0 
  1 11  1  0  0  0  0 
  2 13  1  0  0  0  0 
  2  7  1  0  0  0  0 
  2  1  1  0  0  0  0 
  3  8  1  0  0  0  0 
  3 15  1  0  0  0  0 
  3  4  1  0  0  0  0 
  4 18  1  0  0  0  0 
  4  9  1  0  0  0  0 
  5 20  1  0  0  0  0 
  5  1  1  0  0  0  0 
  5 10  1  0  0  0  0 
  6 10  1  0  0  0  0 
  6  9  1  0  0  0  0 
  7 21  1  0  0  0  0 
  8  6  1  0  0  0  0 
  9 23  1  0  0  0  0 
 12  1  1  0  0  0  0 
 14  2  1  0  0  0  0 
 16  3  1  0  0  0  0 
 17  4  1  0  0  0  0 
 19  5  1  0  0  0  0 
 22  7  1  0  0  0  0 
M  RAD  2   6   2   8   2 
M  END 
>  <HBA> 
4 
 
>  <HBD> 
2 
 
>  <TPSA> 
75.71 
 
>  <cid> 
20917 
 
>  <dipole> 
0.86 
 
>  <excitation_energy_1> 
5.132 
 
>  <excitation_energy_2> 
5.353 
 
>  <excitation_energy_3> 
5.614 
 
>  <excitation_energy_4> 
5.64 
 
>  <homo_energy> 
-5.861 
 
>  <homo_lumo_gap> 
6.55 
 
>  <logP> 
0.492 
 
>  <lumo_energy> 
0.688 
 
>  <melting_point> 
104.28 
 
>  <molecular_refractivity> 
52.87 
 
>  <oscillator_strength_1> 
0.0043 
 
>  <oscillator_strength_2> 
0.001 
 
>  <oscillator_strength_3> 
0.0008 
 
>  <oscillator_strength_4> 
0.0123 
 
>  <open_babel_can_smiles> 
NCCCS[C]1[N]CCN1 
 
>  <mulliken_charges> 
23 
1   -0.270115 
2   -0.135958 
3   -0.155204 
4   -0.151312 
5   -0.40366 
6   0.28623 
7   -0.714935 
8   -0.456871 
9   -0.592443 
10   0.125104 
11   0.144476 
12   0.165616 
13   0.117805 
14   0.143345 
15   0.152805 
16   0.149515 
17   0.142489 
18   0.15487 
19   0.186128 
20   0.196011 
21   0.293585 
22   0.297861 
23   0.324659 
 
>  <lowdin_charges> 
23 
1   -0.281185 
2   -0.200539 
3   -0.203491 
4   -0.210097 
5   -0.356054 
6   -0.03456 
7   -0.558343 
8   -0.262102 
9   -0.316316 
10   0.149317 
11   0.145526 
12   0.157333 
13   0.118284 
14   0.142235 
15   0.148052 
16   0.148779 
17   0.137407 
18   0.152229 
19   0.165565 
20   0.17135 
21   0.251985 
22   0.257583 
23   0.277044 
 
$$$$ 
 
