PCCDB-ID:  69281 
public computational chemistry database (PCCDB) project, http://pccdb.org 
 
 16 16  0  0  0  0  0  0  0  0999 V2000 
    0.8937    0.0515    0.1088 C   0  0  0  0  0  0  0  0  0  0  0  0 
    4.5392    1.2108   -0.0200 C   0  0  0  0  0  0  0  0  0  0  0  0 
    3.1477    1.2113    0.0692 C   0  0  0  0  0  0  0  0  0  0  0  0 
    5.2217    0.0048   -0.1772 C   0  0  0  0  0  0  0  0  0  0  0  0 
    3.0908   -1.1813   -0.1529 C   0  0  0  0  0  0  0  0  0  0  0  0 
    2.4009    0.0171    0.0052 C   0  0  0  0  0  0  0  0  0  0  0  0 
    4.4905   -1.1832   -0.2422 C   0  0  0  0  0  0  0  0  0  0  0  0 
    5.2759   -2.3797   -0.4057 N   0  0  0  0  0  0  0  0  0  0  0  0 
    4.6303   -3.4172   -0.4624 O   0  0  0  0  0  0  0  0  0  0  0  0 
    0.4559    0.6960   -0.6631 H   0  0  0  0  0  0  0  0  0  0  0  0 
    0.5706    0.4467    1.0799 H   0  0  0  0  0  0  0  0  0  0  0  0 
    0.4645   -0.9480   -0.0053 H   0  0  0  0  0  0  0  0  0  0  0  0 
    5.0867    2.1474    0.0327 H   0  0  0  0  0  0  0  0  0  0  0  0 
    2.6216    2.1557    0.1913 H   0  0  0  0  0  0  0  0  0  0  0  0 
    6.3040   -0.0419   -0.2508 H   0  0  0  0  0  0  0  0  0  0  0  0 
    2.5712   -2.1330   -0.2105 H   0  0  0  0  0  0  0  0  0  0  0  0 
  1 11  1  0  0  0  0 
  2 13  1  0  0  0  0 
  2  3  2  0  0  0  0 
  3 14  1  0  0  0  0 
  4  2  1  0  0  0  0 
  5  6  2  0  0  0  0 
  6  3  1  0  0  0  0 
  6  1  1  0  0  0  0 
  7  4  2  0  0  0  0 
  7  5  1  0  0  0  0 
  8  7  1  0  0  0  0 
  9  8  1  0  0  0  0 
 10  1  1  0  0  0  0 
 12  1  1  0  0  0  0 
 15  4  1  0  0  0  0 
 16  5  1  0  0  0  0 
M  RAD  2   8   2   9   2 
M  END 
>  <HBA> 
2 
 
>  <HBD> 
0 
 
>  <TPSA> 
29.43 
 
>  <cid> 
69281 
 
>  <dipole> 
4.05 
 
>  <excitation_energy_1> 
1.516 
 
>  <excitation_energy_2> 
3.746 
 
>  <excitation_energy_3> 
4.379 
 
>  <excitation_energy_4> 
4.546 
 
>  <homo_energy> 
-5.875 
 
>  <homo_lumo_gap> 
3.265 
 
>  <logP> 
2.393 
 
>  <lumo_energy> 
-2.61 
 
>  <melting_point> 
35.24 
 
>  <molecular_refractivity> 
36.86 
 
>  <oscillator_strength_1> 
0.0003 
 
>  <oscillator_strength_2> 
0.0224 
 
>  <oscillator_strength_3> 
0.2395 
 
>  <oscillator_strength_4> 
0.0001 
 
>  <open_babel_can_smiles> 
[O][N]c1cccc(c1)C 
 
>  <mulliken_charges> 
16 
1   -0.530954 
2   -0.138373 
3   -0.155026 
4   -0.127976 
5   -0.181179 
6   0.165108 
7   0.216645 
8   -0.056677 
9   -0.286991 
10   0.167655 
11   0.169093 
12   0.166201 
13   0.14418 
14   0.137274 
15   0.154935 
16   0.156082 
 
>  <lowdin_charges> 
16 
1   -0.443162 
2   -0.153792 
3   -0.137303 
4   -0.131547 
5   -0.147794 
6   0.007383 
7   -0.020707 
8   0.043842 
9   -0.181673 
10   0.165221 
11   0.164665 
12   0.162324 
13   0.16502 
14   0.161825 
15   0.171876 
16   0.173824 
 
$$$$ 
 
