PCCDB-ID:  12587 
public computational chemistry database (PCCDB) project, http://pccdb.org 
 
 20 19  0  0  0  0  0  0  0  0999 V2000 
    3.5621    0.4907    1.4931 C   0  0  0  0  0  0  0  0  0  0  0  0 
    1.4211   -0.3647    0.4641 C   0  0  0  0  0  0  0  0  0  0  0  0 
    3.2207    0.5504   -1.0448 C   0  0  0  0  0  0  0  0  0  0  0  0 
    4.7002    0.6136   -1.4338 C   0  0  0  0  0  0  0  0  0  0  0  0 
    2.9360   -0.1988    0.2707 C   0  0  0  0  0  0  0  0  0  0  0  0 
    4.9285    1.2752   -2.7885 C   0  0  0  0  0  0  0  0  0  0  0  0 
    4.0611    1.7150   -3.4990 O   0  0  0  0  0  0  0  0  0  0  0  0 
    6.2328    1.3536   -3.1821 O   0  0  0  0  0  0  0  0  0  0  0  0 
    3.3231   -0.0544    2.4136 H   0  0  0  0  0  0  0  0  0  0  0  0 
    3.1769    1.5129    1.6037 H   0  0  0  0  0  0  0  0  0  0  0  0 
    4.6545    0.5511    1.4249 H   0  0  0  0  0  0  0  0  0  0  0  0 
    1.1968   -0.9209    1.3818 H   0  0  0  0  0  0  0  0  0  0  0  0 
    0.9678   -0.9033   -0.3762 H   0  0  0  0  0  0  0  0  0  0  0  0 
    0.9272    0.6127    0.5382 H   0  0  0  0  0  0  0  0  0  0  0  0 
    2.6732    0.0701   -1.8643 H   0  0  0  0  0  0  0  0  0  0  0  0 
    2.8255    1.5726   -0.9808 H   0  0  0  0  0  0  0  0  0  0  0  0 
    5.1322   -0.3985   -1.4694 H   0  0  0  0  0  0  0  0  0  0  0  0 
    5.2861    1.1660   -0.6858 H   0  0  0  0  0  0  0  0  0  0  0  0 
    3.3756   -1.2056    0.1876 H   0  0  0  0  0  0  0  0  0  0  0  0 
    6.8065    0.9520   -2.5087 H   0  0  0  0  0  0  0  0  0  0  0  0 
  1 10  1  0  0  0  0 
  1  9  1  0  0  0  0 
  2 14  1  0  0  0  0 
  2 12  1  0  0  0  0 
  3 16  1  0  0  0  0 
  3  5  1  0  0  0  0 
  4  3  1  0  0  0  0 
  4 18  1  0  0  0  0 
  5  2  1  0  0  0  0 
  5  1  1  0  0  0  0 
  6  4  1  0  0  0  0 
  7  6  2  0  0  0  0 
  8  6  1  0  0  0  0 
  8 20  1  0  0  0  0 
 11  1  1  0  0  0  0 
 13  2  1  0  0  0  0 
 15  3  1  0  0  0  0 
 17  4  1  0  0  0  0 
 19  5  1  0  0  0  0 
M  END 
>  <HBA> 
2 
 
>  <HBD> 
1 
 
>  <TPSA> 
37.3 
 
>  <cid> 
12587 
 
>  <dipole> 
4.19 
 
>  <excitation_energy_1> 
5.745 
 
>  <excitation_energy_2> 
6.4 
 
>  <excitation_energy_3> 
7.279 
 
>  <excitation_energy_4> 
7.43 
 
>  <homo_energy> 
-7.355 
 
>  <homo_lumo_gap> 
7.687 
 
>  <logP> 
1.507 
 
>  <lumo_energy> 
0.332 
 
>  <melting_point> 
50.6 
 
>  <molecular_refractivity> 
32.73 
 
>  <oscillator_strength_1> 
0.0003 
 
>  <oscillator_strength_2> 
0.0146 
 
>  <oscillator_strength_3> 
0.0023 
 
>  <oscillator_strength_4> 
0.0041 
 
>  <open_babel_can_smiles> 
CC(CCC(=O)O)C 
 
>  <mulliken_charges> 
20 
1   -0.446802 
2   -0.443491 
3   -0.240088 
4   -0.413405 
5   -0.072448 
6   0.608415 
7   -0.4366 
8   -0.569713 
9   0.145529 
10   0.143736 
11   0.136477 
12   0.141367 
13   0.144759 
14   0.143603 
15   0.154886 
16   0.149454 
17   0.161657 
18   0.166585 
19   0.118843 
20   0.407234 
 
>  <lowdin_charges> 
20 
1   -0.444792 
2   -0.444438 
3   -0.27004 
4   -0.326937 
5   -0.12033 
6   0.1999 
7   -0.236663 
8   -0.365769 
9   0.151499 
10   0.147078 
11   0.141841 
12   0.149091 
13   0.151088 
14   0.148008 
15   0.157095 
16   0.151092 
17   0.159049 
18   0.162624 
19   0.132576 
20   0.358028 
 
$$$$ 
 
