PCCDB-ID:  12177 
public computational chemistry database (PCCDB) project, http://pccdb.org 
 
 17 16  0  0  0  0  0  0  0  0999 V2000 
    1.7695   -0.1520    1.4098 C   0  0  0  0  0  0  0  0  0  0  0  0 
    5.7331   -0.5693   -0.2967 C   0  0  0  0  0  0  0  0  0  0  0  0 
    2.6601    0.1796    0.1979 C   0  0  0  0  0  0  0  0  0  0  0  0 
    3.2260   -1.0518   -0.4444 C   0  0  0  0  0  0  0  0  0  0  0  0 
    4.7725   -2.6811   -1.3099 C   0  0  0  0  0  0  0  0  0  0  0  0 
    4.5168   -1.3807   -0.6520 C   0  0  0  0  0  0  0  0  0  0  0  0 
    5.8798   -3.1172   -1.5657 O   0  0  0  0  0  0  0  0  0  0  0  0 
    1.3318    0.7603    1.8292 H   0  0  0  0  0  0  0  0  0  0  0  0 
    2.3467   -0.6470    2.1981 H   0  0  0  0  0  0  0  0  0  0  0  0 
    0.9476   -0.8200    1.1269 H   0  0  0  0  0  0  0  0  0  0  0  0 
    5.4899    0.3250    0.2812 H   0  0  0  0  0  0  0  0  0  0  0  0 
    6.2649   -0.2600   -1.2045 H   0  0  0  0  0  0  0  0  0  0  0  0 
    6.4385   -1.1795    0.2777 H   0  0  0  0  0  0  0  0  0  0  0  0 
    3.4553    0.8696    0.4971 H   0  0  0  0  0  0  0  0  0  0  0  0 
    2.0519    0.7119   -0.5491 H   0  0  0  0  0  0  0  0  0  0  0  0 
    2.4763   -1.7764   -0.7730 H   0  0  0  0  0  0  0  0  0  0  0  0 
    3.8579   -3.2623   -1.5677 H   0  0  0  0  0  0  0  0  0  0  0  0 
  1  8  1  0  0  0  0 
  1  9  1  0  0  0  0 
  2 13  1  0  0  0  0 
  2 11  1  0  0  0  0 
  3 14  1  0  0  0  0 
  3  1  1  0  0  0  0 
  4  3  1  0  0  0  0 
  5  6  1  0  0  0  0 
  6  4  2  0  0  0  0 
  6  2  1  0  0  0  0 
  7  5  2  0  0  0  0 
 10  1  1  0  0  0  0 
 12  2  1  0  0  0  0 
 15  3  1  0  0  0  0 
 16  4  1  0  0  0  0 
 17  5  1  0  0  0  0 
M  END 
>  <HBA> 
1 
 
>  <HBD> 
0 
 
>  <TPSA> 
17.07 
 
>  <cid> 
12177 
 
>  <dipole> 
3.61 
 
>  <excitation_energy_1> 
3.812 
 
>  <excitation_energy_2> 
5.626 
 
>  <excitation_energy_3> 
6.375 
 
>  <excitation_energy_4> 
6.542 
 
>  <homo_energy> 
-6.727 
 
>  <homo_lumo_gap> 
5.404 
 
>  <logP> 
1.542 
 
>  <lumo_energy> 
-1.322 
 
>  <melting_point> 
18.37 
 
>  <molecular_refractivity> 
30.68 
 
>  <oscillator_strength_1> 
0.0003 
 
>  <oscillator_strength_2> 
0.4322 
 
>  <oscillator_strength_3> 
0.0394 
 
>  <oscillator_strength_4> 
0.0015 
 
>  <open_babel_can_smiles> 
C/C(=C\CC)/C=O 
 
>  <mulliken_charges> 
17 
1   -0.444363 
2   -0.513673 
3   -0.305238 
4   -0.143722 
5   0.200762 
6   0.121493 
7   -0.415339 
8   0.152796 
9   0.157677 
10   0.149992 
11   0.149859 
12   0.173397 
13   0.176097 
14   0.152697 
15   0.157874 
16   0.13467 
17   0.095021 
 
>  <lowdin_charges> 
17 
1   -0.442388 
2   -0.442949 
3   -0.275581 
4   -0.130349 
5   0.036672 
6   -0.05318 
7   -0.236005 
8   0.15559 
9   0.155572 
10   0.151617 
11   0.155239 
12   0.170083 
13   0.172425 
14   0.153434 
15   0.1598 
16   0.155316 
17   0.114704 
 
$$$$ 
 
