PCCDB-ID:  39175 
public computational chemistry database (PCCDB) project, http://pccdb.org 
 
 16 15  0  0  0  0  0  0  0  0999 V2000 
    0.7704    0.7302   -0.1447 C   0  0  0  0  0  0  0  0  0  0  0  0 
    4.2721   -0.9057   -3.8369 C   0  0  0  0  0  0  0  0  0  0  0  0 
    1.8913    0.0704   -0.0370 C   0  0  0  0  0  0  0  0  0  0  0  0 
    4.8402   -0.9520   -2.4132 C   0  0  0  0  0  0  0  0  0  0  0  0 
    2.6279   -0.7058   -1.1153 C   0  0  0  0  0  0  0  0  0  0  0  0 
    4.0372   -0.1464   -1.3782 C   0  0  0  0  0  0  0  0  0  0  0  0 
    2.0315   -0.6924   -2.0328 H   0  0  0  0  0  0  0  0  0  0  0  0 
    3.9515    0.8983   -1.7052 H   0  0  0  0  0  0  0  0  0  0  0  0 
    4.9214   -1.4461   -4.5347 H   0  0  0  0  0  0  0  0  0  0  0  0 
    4.1868    0.1281   -4.1940 H   0  0  0  0  0  0  0  0  0  0  0  0 
    3.2771   -1.3607   -3.8989 H   0  0  0  0  0  0  0  0  0  0  0  0 
    2.3256    0.1238    0.9697 H   0  0  0  0  0  0  0  0  0  0  0  0 
    5.8678   -0.5657   -2.4263 H   0  0  0  0  0  0  0  0  0  0  0  0 
    4.9140   -1.9973   -2.0803 H   0  0  0  0  0  0  0  0  0  0  0  0 
    2.6982   -1.7559   -0.7996 H   0  0  0  0  0  0  0  0  0  0  0  0 
    4.5918   -0.1278   -0.4299 H   0  0  0  0  0  0  0  0  0  0  0  0 
  1  3  2  0  0  0  0 
  2  4  1  0  0  0  0 
  3 12  1  0  0  0  0 
  4 14  1  0  0  0  0 
  4  6  1  0  0  0  0 
  5 15  1  0  0  0  0 
  5  3  1  0  0  0  0 
  6  5  1  0  0  0  0 
  6 16  1  0  0  0  0 
  7  5  1  0  0  0  0 
  8  6  1  0  0  0  0 
  9  2  1  0  0  0  0 
 10  2  1  0  0  0  0 
 11  2  1  0  0  0  0 
 13  4  1  0  0  0  0 
M  RAD  1   1   3 
M  END 
>  <HBA> 
0 
 
>  <HBD> 
0 
 
>  <TPSA> 
0.0 
 
>  <cid> 
39175 
 
>  <dipole> 
2.92 
 
>  <excitation_energy_1> 
3.089 
 
>  <excitation_energy_2> 
3.76 
 
>  <excitation_energy_3> 
5.851 
 
>  <excitation_energy_4> 
5.963 
 
>  <homo_energy> 
-7.197 
 
>  <homo_lumo_gap> 
4.993 
 
>  <logP> 
2.139 
 
>  <lumo_energy> 
-2.204 
 
>  <melting_point> 
-37.37 
 
>  <molecular_refractivity> 
30.01 
 
>  <oscillator_strength_1> 
0.0001 
 
>  <oscillator_strength_2> 
0.0085 
 
>  <oscillator_strength_3> 
0.0053 
 
>  <oscillator_strength_4> 
0.0006 
 
>  <open_babel_can_smiles> 
CCCCC=[C] 
 
>  <mulliken_charges> 
16 
1   -0.048316 
2   -0.446337 
3   -0.220722 
4   -0.254002 
5   -0.287921 
6   -0.249192 
7   0.164052 
8   0.148178 
9   0.147681 
10   0.146768 
11   0.146996 
12   0.186958 
13   0.13926 
14   0.133267 
15   0.159651 
16   0.13368 
 
>  <lowdin_charges> 
16 
1   -0.015771 
2   -0.447368 
3   -0.283353 
4   -0.271335 
5   -0.249483 
6   -0.27218 
7   0.158478 
8   0.147425 
9   0.154312 
10   0.148123 
11   0.14695 
12   0.20039 
13   0.145612 
14   0.139074 
15   0.155898 
16   0.143228 
 
$$$$ 
 
