PCCDB-ID:  7553 
public computational chemistry database (PCCDB) project, http://pccdb.org 
 
 31 31  0  0  0  0  0  0  0  0999 V2000 
   -1.0298    0.6932    0.2334 C   0  0  0  0  0  0  0  0  0  0  0  0 
   -0.0127    0.4726    1.1667 C   0  0  0  0  0  0  0  0  0  0  0  0 
   -0.7102    0.8467   -1.1158 C   0  0  0  0  0  0  0  0  0  0  0  0 
    1.3157    0.4116    0.7496 C   0  0  0  0  0  0  0  0  0  0  0  0 
    0.6225    0.7857   -1.5313 C   0  0  0  0  0  0  0  0  0  0  0  0 
    3.0634   -1.8066   -1.9294 C   0  0  0  0  0  0  0  0  0  0  0  0 
    5.1162   -0.8914   -0.8881 C   0  0  0  0  0  0  0  0  0  0  0  0 
    3.4495   -1.7052   -3.4126 C   0  0  0  0  0  0  0  0  0  0  0  0 
    5.5459   -0.5830    0.5559 C   0  0  0  0  0  0  0  0  0  0  0  0 
    3.0985    0.5162   -1.0347 C   0  0  0  0  0  0  0  0  0  0  0  0 
    1.6472    0.5724   -0.6030 C   0  0  0  0  0  0  0  0  0  0  0  0 
    3.6544   -0.8469   -0.9908 N   0  0  0  0  0  0  0  0  0  0  0  0 
    2.9398   -0.5439   -4.0732 O   0  0  0  0  0  0  0  0  0  0  0  0 
    4.7917   -1.3581    1.4660 O   0  0  0  0  0  0  0  0  0  0  0  0 
   -2.0658    0.7429    0.5582 H   0  0  0  0  0  0  0  0  0  0  0  0 
   -0.2557    0.3527    2.2193 H   0  0  0  0  0  0  0  0  0  0  0  0 
   -1.4968    1.0104   -1.8477 H   0  0  0  0  0  0  0  0  0  0  0  0 
    2.1084    0.2392    1.4751 H   0  0  0  0  0  0  0  0  0  0  0  0 
    0.8726    0.8839   -2.5849 H   0  0  0  0  0  0  0  0  0  0  0  0 
    3.3392   -2.8143   -1.5875 H   0  0  0  0  0  0  0  0  0  0  0  0 
    1.9747   -1.7278   -1.8480 H   0  0  0  0  0  0  0  0  0  0  0  0 
    5.4316   -1.9131   -1.1272 H   0  0  0  0  0  0  0  0  0  0  0  0 
    5.6299   -0.2134   -1.5942 H   0  0  0  0  0  0  0  0  0  0  0  0 
    3.0124   -2.5659   -3.9335 H   0  0  0  0  0  0  0  0  0  0  0  0 
    4.5403   -1.7773   -3.5361 H   0  0  0  0  0  0  0  0  0  0  0  0 
    5.4398    0.4951    0.7676 H   0  0  0  0  0  0  0  0  0  0  0  0 
    6.6057   -0.8307    0.6872 H   0  0  0  0  0  0  0  0  0  0  0  0 
    3.6923    1.1237   -0.3437 H   0  0  0  0  0  0  0  0  0  0  0  0 
    3.2055    0.9819   -2.0268 H   0  0  0  0  0  0  0  0  0  0  0  0 
    3.5830    0.1705   -3.9628 H   0  0  0  0  0  0  0  0  0  0  0  0 
    3.9166   -1.4334    1.0348 H   0  0  0  0  0  0  0  0  0  0  0  0 
  1 15  1  0  0  0  0 
  1  2  2  0  0  0  0 
  2 16  1  0  0  0  0 
  3  1  1  0  0  0  0 
  4  2  1  0  0  0  0 
  4 18  1  0  0  0  0 
  5  3  2  0  0  0  0 
  5 11  1  0  0  0  0 
  6 21  1  0  0  0  0 
  6 20  1  0  0  0  0 
  6 12  1  0  0  0  0 
  7  9  1  0  0  0  0 
  8  6  1  0  0  0  0 
  9 27  1  0  0  0  0 
  9 26  1  0  0  0  0 
  9 14  1  0  0  0  0 
 10 12  1  0  0  0  0 
 10 11  1  0  0  0  0 
 10 28  1  0  0  0  0 
 11  4  2  0  0  0  0 
 12  7  1  0  0  0  0 
 13 30  1  0  0  0  0 
 13  8  1  0  0  0  0 
 17  3  1  0  0  0  0 
 19  5  1  0  0  0  0 
 22  7  1  0  0  0  0 
 23  7  1  0  0  0  0 
 24  8  1  0  0  0  0 
 25  8  1  0  0  0  0 
 29 10  1  0  0  0  0 
 31 14  1  0  0  0  0 
M  END 
>  <HBA> 
3 
 
>  <HBD> 
2 
 
>  <TPSA> 
43.7 
 
>  <cid> 
7553 
 
>  <dipole> 
1.94 
 
>  <excitation_energy_1> 
4.869 
 
>  <excitation_energy_2> 
5.04 
 
>  <excitation_energy_3> 
5.126 
 
>  <excitation_energy_4> 
5.356 
 
>  <homo_energy> 
-5.924 
 
>  <homo_lumo_gap> 
5.815 
 
>  <logP> 
0.473 
 
>  <lumo_energy> 
-0.109 
 
>  <melting_point> 
44.37 
 
>  <molecular_refractivity> 
55.86 
 
>  <oscillator_strength_1> 
0.0051 
 
>  <oscillator_strength_2> 
0.0309 
 
>  <oscillator_strength_3> 
0.0167 
 
>  <oscillator_strength_4> 
0.0081 
 
>  <open_babel_can_smiles> 
OCCN(Cc1ccccc1)CCO 
 
>  <mulliken_charges> 
31 
1   -0.127568 
2   -0.131733 
3   -0.131571 
4   -0.176926 
5   -0.182934 
6   -0.14926 
7   -0.158261 
8   -0.055278 
9   -0.01559 
10   -0.20976 
11   0.151264 
12   -0.417109 
13   -0.608339 
14   -0.635781 
15   0.129418 
16   0.131905 
17   0.130881 
18   0.135626 
19   0.144958 
20   0.139428 
21   0.168814 
22   0.151246 
23   0.113703 
24   0.148288 
25   0.127816 
26   0.118405 
27   0.139188 
28   0.155972 
29   0.111779 
30   0.39686 
31   0.404558 
 
>  <lowdin_charges> 
31 
1   -0.155433 
2   -0.153702 
3   -0.158122 
4   -0.162474 
5   -0.16499 
6   -0.221516 
7   -0.224968 
8   -0.149829 
9   -0.136616 
10   -0.200004 
11   -0.013841 
12   -0.189293 
13   -0.472033 
14   -0.47809 
15   0.156562 
16   0.157132 
17   0.15921 
18   0.159783 
19   0.1621 
20   0.147042 
21   0.16042 
22   0.15077 
23   0.126268 
24   0.151037 
25   0.128876 
26   0.118891 
27   0.143491 
28   0.156825 
29   0.124984 
30   0.34272 
31   0.334799 
 
$$$$ 
 
