PCCDB-ID:  11002 
public computational chemistry database (PCCDB) project, http://pccdb.org 
 
 27 26  0  0  0  0  0  0  0  0999 V2000 
    2.9437    2.2203   -2.7956 C   0  0  0  0  0  0  0  0  0  0  0  0 
    9.0638   -2.5595    1.2365 C   0  0  0  0  0  0  0  0  0  0  0  0 
    3.2854    1.0949   -1.8133 C   0  0  0  0  0  0  0  0  0  0  0  0 
    8.3638   -2.7709   -0.1098 C   0  0  0  0  0  0  0  0  0  0  0  0 
    4.2174    0.0340   -2.4174 C   0  0  0  0  0  0  0  0  0  0  0  0 
    7.9616   -1.4547   -0.7853 C   0  0  0  0  0  0  0  0  0  0  0  0 
    4.5504   -1.0858   -1.4269 C   0  0  0  0  0  0  0  0  0  0  0  0 
    7.2630   -1.6221   -2.1408 C   0  0  0  0  0  0  0  0  0  0  0  0 
    5.6090   -2.4326   -2.0979 S   0  0  0  0  0  0  0  0  0  0  0  0 
    2.2767    2.9599   -2.3384 H   0  0  0  0  0  0  0  0  0  0  0  0 
    2.4438    1.8276   -3.6894 H   0  0  0  0  0  0  0  0  0  0  0  0 
    3.8476    2.7463   -3.1265 H   0  0  0  0  0  0  0  0  0  0  0  0 
    9.3462   -3.5151    1.6928 H   0  0  0  0  0  0  0  0  0  0  0  0 
    8.4108   -2.0340    1.9445 H   0  0  0  0  0  0  0  0  0  0  0  0 
    9.9770   -1.9620    1.1236 H   0  0  0  0  0  0  0  0  0  0  0  0 
    2.3585    0.6115   -1.4736 H   0  0  0  0  0  0  0  0  0  0  0  0 
    3.7525    1.5224   -0.9146 H   0  0  0  0  0  0  0  0  0  0  0  0 
    7.4710   -3.3923    0.0292 H   0  0  0  0  0  0  0  0  0  0  0  0 
    9.0270   -3.3311   -0.7848 H   0  0  0  0  0  0  0  0  0  0  0  0 
    5.1431    0.5188   -2.7567 H   0  0  0  0  0  0  0  0  0  0  0  0 
    3.7544   -0.4045   -3.3107 H   0  0  0  0  0  0  0  0  0  0  0  0 
    8.8618   -0.8425   -0.9487 H   0  0  0  0  0  0  0  0  0  0  0  0 
    7.3228   -0.8716   -0.1072 H   0  0  0  0  0  0  0  0  0  0  0  0 
    3.6336   -1.5941   -1.1067 H   0  0  0  0  0  0  0  0  0  0  0  0 
    5.0174   -0.6822   -0.5209 H   0  0  0  0  0  0  0  0  0  0  0  0 
    7.8625   -2.2618   -2.7989 H   0  0  0  0  0  0  0  0  0  0  0  0 
    7.1626   -0.6562   -2.6472 H   0  0  0  0  0  0  0  0  0  0  0  0 
  1 10  1  0  0  0  0 
  1  3  1  0  0  0  0 
  2 13  1  0  0  0  0 
  2 14  1  0  0  0  0 
  3 16  1  0  0  0  0 
  3 17  1  0  0  0  0 
  4 18  1  0  0  0  0 
  4  2  1  0  0  0  0 
  5  3  1  0  0  0  0 
  5  7  1  0  0  0  0 
  6  4  1  0  0  0  0 
  6 23  1  0  0  0  0 
  7 24  1  0  0  0  0 
  7 25  1  0  0  0  0 
  8  9  1  0  0  0  0 
  8  6  1  0  0  0  0 
  9  7  1  0  0  0  0 
 11  1  1  0  0  0  0 
 12  1  1  0  0  0  0 
 15  2  1  0  0  0  0 
 19  4  1  0  0  0  0 
 20  5  1  0  0  0  0 
 21  5  1  0  0  0  0 
 22  6  1  0  0  0  0 
 26  8  1  0  0  0  0 
 27  8  1  0  0  0  0 
M  END 
>  <HBA> 
1 
 
>  <HBD> 
0 
 
>  <TPSA> 
25.3 
 
>  <cid> 
11002 
 
>  <dipole> 
1.74 
 
>  <excitation_energy_1> 
5.222 
 
>  <excitation_energy_2> 
5.375 
 
>  <excitation_energy_3> 
5.758 
 
>  <excitation_energy_4> 
5.86 
 
>  <homo_energy> 
-5.804 
 
>  <homo_lumo_gap> 
7.165 
 
>  <logP> 
3.32 
 
>  <lumo_energy> 
1.361 
 
>  <melting_point> 
-18.92 
 
>  <molecular_refractivity> 
48.16 
 
>  <oscillator_strength_1> 
0.0015 
 
>  <oscillator_strength_2> 
0.018 
 
>  <oscillator_strength_3> 
0.0286 
 
>  <oscillator_strength_4> 
0.002 
 
>  <open_babel_can_smiles> 
CCCCSCCCC 
 
>  <mulliken_charges> 
27 
1   -0.441085 
2   -0.44257 
3   -0.251128 
4   -0.248083 
5   -0.24108 
6   -0.244107 
7   -0.422719 
8   -0.421733 
9   0.075551 
10   0.144342 
11   0.145146 
12   0.142603 
13   0.144009 
14   0.141068 
15   0.139152 
16   0.133686 
17   0.131378 
18   0.160153 
19   0.127479 
20   0.135408 
21   0.148345 
22   0.133531 
23   0.136119 
24   0.170816 
25   0.165724 
26   0.170472 
27   0.167521 
 
>  <lowdin_charges> 
27 
1   -0.445599 
2   -0.445599 
3   -0.274214 
4   -0.277653 
5   -0.281206 
6   -0.281226 
7   -0.378564 
8   -0.378893 
9   0.080193 
10   0.151817 
11   0.148791 
12   0.147449 
13   0.150633 
14   0.147326 
15   0.144848 
16   0.140634 
17   0.139624 
18   0.153959 
19   0.139503 
20   0.141022 
21   0.14989 
22   0.143426 
23   0.142193 
24   0.165818 
25   0.153394 
26   0.166785 
27   0.15565 
 
$$$$ 
 
