PCCDB-ID:  47410 
public computational chemistry database (PCCDB) project, http://pccdb.org 
 
 19 19  0  0  0  0  0  0  0  0999 V2000 
   -0.2741   -1.7304    1.1697 C   0  0  0  0  0  0  0  0  0  0  0  0 
   -1.3824   -0.7951    1.5724 C   0  0  0  0  0  0  0  0  0  0  0  0 
    0.8628   -1.1976   -2.1044 C   0  0  0  0  0  0  0  0  0  0  0  0 
   -0.6153   -0.5387    0.2930 C   0  0  0  0  0  0  0  0  0  0  0  0 
    1.3560   -1.6570   -3.4866 C   0  0  0  0  0  0  0  0  0  0  0  0 
   -1.2182   -0.7461   -1.0659 C   0  0  0  0  0  0  0  0  0  0  0  0 
   -0.5767   -1.0119   -2.1305 N   0  0  0  0  0  0  0  0  0  0  0  0 
    2.5206   -1.8873   -3.7112 O   0  0  0  0  0  0  0  0  0  0  0  0 
    0.3871   -1.7730   -4.4053 O   0  0  0  0  0  0  0  0  0  0  0  0 
   -2.5671   -0.6331   -1.1721 O   0  0  0  0  0  0  0  0  0  0  0  0 
   -0.5556   -2.7170    0.8133 H   0  0  0  0  0  0  0  0  0  0  0  0 
    0.6624   -1.6991    1.7181 H   0  0  0  0  0  0  0  0  0  0  0  0 
   -1.2204   -0.1162    2.4040 H   0  0  0  0  0  0  0  0  0  0  0  0 
   -2.3966   -1.1843    1.5111 H   0  0  0  0  0  0  0  0  0  0  0  0 
    1.4011   -0.2693   -1.8652 H   0  0  0  0  0  0  0  0  0  0  0  0 
    1.1892   -1.9467   -1.3706 H   0  0  0  0  0  0  0  0  0  0  0  0 
    0.1080    0.2743    0.3189 H   0  0  0  0  0  0  0  0  0  0  0  0 
   -0.4495   -1.5218   -3.9425 H   0  0  0  0  0  0  0  0  0  0  0  0 
   -2.9122   -0.2861   -0.3348 H   0  0  0  0  0  0  0  0  0  0  0  0 
  1  2  1  0  0  0  0 
  1 12  1  0  0  0  0 
  2 13  1  0  0  0  0 
  3 15  1  0  0  0  0 
  3 16  1  0  0  0  0 
  4 17  1  0  0  0  0 
  4  1  1  0  0  0  0 
  4  2  1  0  0  0  0 
  5  3  1  0  0  0  0 
  6  4  1  0  0  0  0 
  7  3  1  0  0  0  0 
  7  6  2  0  0  0  0 
  8  5  2  0  0  0  0 
  9 18  1  0  0  0  0 
  9  5  1  0  0  0  0 
 10  6  1  0  0  0  0 
 10 19  1  0  0  0  0 
 11  1  1  0  0  0  0 
 14  2  1  0  0  0  0 
M  END 
>  <HBA> 
4 
 
>  <HBD> 
2 
 
>  <TPSA> 
66.4 
 
>  <cid> 
47410 
 
>  <dipole> 
8.25 
 
>  <excitation_energy_1> 
5.512 
 
>  <excitation_energy_2> 
5.758 
 
>  <excitation_energy_3> 
6.103 
 
>  <excitation_energy_4> 
6.173 
 
>  <homo_energy> 
-6.759 
 
>  <homo_lumo_gap> 
6.414 
 
>  <logP> 
-0.012 
 
>  <lumo_energy> 
-0.346 
 
>  <melting_point> 
121.74 
 
>  <molecular_refractivity> 
33.62 
 
>  <oscillator_strength_1> 
0.0016 
 
>  <oscillator_strength_2> 
0.001 
 
>  <oscillator_strength_3> 
0.0027 
 
>  <oscillator_strength_4> 
0.0075 
 
>  <open_babel_can_smiles> 
O/C(=N/CC(=O)O)/C1CC1 
 
>  <mulliken_charges> 
19 
1   -0.290247 
2   -0.344499 
3   -0.237057 
4   -0.211258 
5   0.588771 
6   0.501957 
7   -0.477933 
8   -0.468173 
9   -0.572926 
10   -0.573301 
11   0.18007 
12   0.175854 
13   0.174675 
14   0.161957 
15   0.17856 
16   0.182346 
17   0.184926 
18   0.430943 
19   0.415334 
 
>  <lowdin_charges> 
19 
1   -0.291892 
2   -0.314557 
3   -0.244029 
4   -0.19023 
5   0.17684 
6   0.144883 
7   -0.229135 
8   -0.262377 
9   -0.351318 
10   -0.350682 
11   0.171737 
12   0.17121 
13   0.172172 
14   0.161411 
15   0.167894 
16   0.169806 
17   0.178358 
18   0.359416 
19   0.360491 
 
$$$$ 
 
