PCCDB-ID:  23660 
public computational chemistry database (PCCDB) project, http://pccdb.org 
 
 26 26  0  0  0  0  0  0  0  0999 V2000 
    1.3333    0.7360   -0.3960 C   0  0  0  0  0  0  0  0  0  0  0  0 
    0.2635   -1.2455    4.5646 C   0  0  0  0  0  0  0  0  0  0  0  0 
    0.2566   -0.0217    3.8939 C   0  0  0  0  0  0  0  0  0  0  0  0 
    1.0978   -2.2714    4.1147 C   0  0  0  0  0  0  0  0  0  0  0  0 
    1.0628    0.1732    2.7724 C   0  0  0  0  0  0  0  0  0  0  0  0 
    1.9070   -2.0743    2.9987 C   0  0  0  0  0  0  0  0  0  0  0  0 
    2.7776   -0.7102    1.1217 C   0  0  0  0  0  0  0  0  0  0  0  0 
    3.6665   -0.0284   -1.0887 C   0  0  0  0  0  0  0  0  0  0  0  0 
    2.5846   -0.0218   -0.0247 C   0  0  0  0  0  0  0  0  0  0  0  0 
    1.8916   -0.8568    2.2924 C   0  0  0  0  0  0  0  0  0  0  0  0 
    3.2913   -0.8587   -2.3223 C   0  0  0  0  0  0  0  0  0  0  0  0 
    3.4919   -0.5675   -3.5415 N   0  0  0  0  0  0  0  0  0  0  0  0 
    2.7219   -2.0590   -2.0378 O   0  0  0  0  0  0  0  0  0  0  0  0 
    0.4727    0.4453    0.2101 H   0  0  0  0  0  0  0  0  0  0  0  0 
    1.0843    0.5646   -1.4504 H   0  0  0  0  0  0  0  0  0  0  0  0 
    1.4784    1.8195   -0.2804 H   0  0  0  0  0  0  0  0  0  0  0  0 
   -0.3660   -1.3948    5.4375 H   0  0  0  0  0  0  0  0  0  0  0  0 
   -0.3719    0.7905    4.2493 H   0  0  0  0  0  0  0  0  0  0  0  0 
    1.1219   -3.2241    4.6369 H   0  0  0  0  0  0  0  0  0  0  0  0 
    1.0745    1.1440    2.2883 H   0  0  0  0  0  0  0  0  0  0  0  0 
    2.5577   -2.8763    2.6571 H   0  0  0  0  0  0  0  0  0  0  0  0 
    3.7201   -1.2533    1.2123 H   0  0  0  0  0  0  0  0  0  0  0  0 
    4.5956   -0.4418   -0.6745 H   0  0  0  0  0  0  0  0  0  0  0  0 
    3.8867    0.9943   -1.4182 H   0  0  0  0  0  0  0  0  0  0  0  0 
    3.9351    0.3498   -3.6095 H   0  0  0  0  0  0  0  0  0  0  0  0 
    2.5374   -2.0915   -1.0824 H   0  0  0  0  0  0  0  0  0  0  0  0 
  1 16  1  0  0  0  0 
  1  9  1  0  0  0  0 
  1 14  1  0  0  0  0 
  2 17  1  0  0  0  0 
  3 18  1  0  0  0  0 
  3  2  2  0  0  0  0 
  4  2  1  0  0  0  0 
  4 19  1  0  0  0  0 
  5  3  1  0  0  0  0 
  6  4  2  0  0  0  0 
  7 22  1  0  0  0  0 
  7 10  1  0  0  0  0 
  8 23  1  0  0  0  0 
  8  9  1  0  0  0  0 
  9  7  2  0  0  0  0 
 10  5  2  0  0  0  0 
 10  6  1  0  0  0  0 
 11 13  1  0  0  0  0 
 11  8  1  0  0  0  0 
 12 11  2  0  0  0  0 
 13 26  1  0  0  0  0 
 15  1  1  0  0  0  0 
 20  5  1  0  0  0  0 
 21  6  1  0  0  0  0 
 24  8  1  0  0  0  0 
 25 12  1  0  0  0  0 
M  END 
>  <HBA> 
2 
 
>  <HBD> 
1 
 
>  <TPSA> 
43.09 
 
>  <cid> 
23660 
 
>  <dipole> 
4.78 
 
>  <excitation_energy_1> 
4.874 
 
>  <excitation_energy_2> 
4.905 
 
>  <excitation_energy_3> 
5.465 
 
>  <excitation_energy_4> 
5.477 
 
>  <homo_energy> 
-6.332 
 
>  <homo_lumo_gap> 
5.284 
 
>  <logP> 
2.666 
 
>  <lumo_energy> 
-1.048 
 
>  <melting_point> 
103.91 
 
>  <molecular_refractivity> 
53.86 
 
>  <oscillator_strength_1> 
0.2644 
 
>  <oscillator_strength_2> 
0.2705 
 
>  <oscillator_strength_3> 
0.006 
 
>  <oscillator_strength_4> 
0.0058 
 
>  <open_babel_can_smiles> 
C/C(=C\c1ccccc1)/CC(=N)O 
 
>  <mulliken_charges> 
26 
1   -0.529675 
2   -0.127039 
3   -0.132423 
4   -0.12961 
5   -0.183934 
6   -0.182441 
7   -0.273665 
8   -0.417888 
9   0.149813 
10   0.166241 
11   0.48199 
12   -0.586248 
13   -0.576839 
14   0.173788 
15   0.176016 
16   0.16328 
17   0.13467 
18   0.134609 
19   0.135446 
20   0.138828 
21   0.129483 
22   0.136729 
23   0.177224 
24   0.156287 
25   0.280113 
26   0.405244 
 
>  <lowdin_charges> 
26 
1   -0.449683 
2   -0.153117 
3   -0.155053 
4   -0.152781 
5   -0.160963 
6   -0.159539 
7   -0.190862 
8   -0.307523 
9   -0.012604 
10   -0.005725 
11   0.118908 
12   -0.396962 
13   -0.363683 
14   0.169068 
15   0.16659 
16   0.160856 
17   0.160541 
18   0.160997 
19   0.160427 
20   0.161859 
21   0.158057 
22   0.15661 
23   0.169087 
24   0.160967 
25   0.253704 
26   0.350822 
 
$$$$ 
 
