PCCDB-ID:  6887 
public computational chemistry database (PCCDB) project, http://pccdb.org 
 
 39 40  0  0  1  0  0  0  0  0999 V2000 
   12.3937    8.8029   -4.1318 C   0  0  0  0  0  0  0  0  0  0  0  0 
   19.1173    7.3877   -4.1016 C   0  0  0  0  0  0  0  0  0  0  0  0 
   15.2670    3.9121   -2.3254 C   0  0  0  0  0  0  0  0  0  0  0  0 
   16.6400    5.6938   -1.2167 C   0  0  0  0  0  0  0  0  0  0  0  0 
   16.1465    9.2678   -5.2129 C   0  0  0  0  0  0  0  0  0  0  0  0 
   14.7322    9.4124   -4.7062 C   0  0  0  0  0  0  0  0  0  0  0  0 
   17.1825    8.9306   -4.0873 C   0  0  0  0  0  0  0  0  0  0  0  0 
   13.9156    7.1077   -5.2997 C   0  0  0  0  0  0  0  0  0  0  0  0 
   14.2658    6.0271   -4.2453 C   0  0  0  0  0  0  0  0  0  0  0  0 
   17.2785    5.0023   -3.5956 C   0  0  0  0  0  0  0  0  0  0  0  0 
   13.7482    8.4999   -4.7275 C   0  0  0  0  0  0  0  0  0  0  0  0 
   17.7870    7.5357   -4.1392 C   0  0  0  0  0  0  0  0  0  0  0  0 
   16.8574    6.3399   -4.2775 C   0  0  2  0  0  0  0  0  0  0  0  0 
   15.5328    6.3250   -3.4373 C   0  0  2  0  0  0  0  0  0  0  0  0 
   16.1254    5.1568   -2.5588 C   0  0  0  0  0  0  0  0  0  0  0  0 
   12.1264    8.0788   -3.3495 H   0  0  0  0  0  0  0  0  0  0  0  0 
   11.6042    8.7393   -4.8942 H   0  0  0  0  0  0  0  0  0  0  0  0 
   12.3574    9.8035   -3.6892 H   0  0  0  0  0  0  0  0  0  0  0  0 
   19.7832    8.2460   -4.0572 H   0  0  0  0  0  0  0  0  0  0  0  0 
   19.5945    6.4120   -4.1208 H   0  0  0  0  0  0  0  0  0  0  0  0 
   14.8915    3.4818   -3.2599 H   0  0  0  0  0  0  0  0  0  0  0  0 
   14.4029    4.1330   -1.6860 H   0  0  0  0  0  0  0  0  0  0  0  0 
   15.8579    3.1360   -1.8215 H   0  0  0  0  0  0  0  0  0  0  0  0 
   17.2870    6.5674   -1.3560 H   0  0  0  0  0  0  0  0  0  0  0  0 
   17.2225    4.9297   -0.6856 H   0  0  0  0  0  0  0  0  0  0  0  0 
   15.8059    5.9922   -0.5684 H   0  0  0  0  0  0  0  0  0  0  0  0 
   16.4442   10.2159   -5.6781 H   0  0  0  0  0  0  0  0  0  0  0  0 
   16.2077    8.5168   -6.0071 H   0  0  0  0  0  0  0  0  0  0  0  0 
   14.5171   10.3725   -4.2326 H   0  0  0  0  0  0  0  0  0  0  0  0 
   16.6901    9.0724   -3.1155 H   0  0  0  0  0  0  0  0  0  0  0  0 
   18.0033    9.6555   -4.1148 H   0  0  0  0  0  0  0  0  0  0  0  0 
   12.9861    6.8044   -5.8015 H   0  0  0  0  0  0  0  0  0  0  0  0 
   14.6911    7.1065   -6.0735 H   0  0  0  0  0  0  0  0  0  0  0  0 
   14.3695    5.0716   -4.7769 H   0  0  0  0  0  0  0  0  0  0  0  0 
   13.4211    5.9001   -3.5544 H   0  0  0  0  0  0  0  0  0  0  0  0 
   18.2880    4.9576   -3.1759 H   0  0  0  0  0  0  0  0  0  0  0  0 
   17.1442    4.1381   -4.2552 H   0  0  0  0  0  0  0  0  0  0  0  0 
   16.6511    6.2044   -5.3482 H   0  0  0  0  0  0  0  0  0  0  0  0 
   15.3662    7.2367   -2.8541 H   0  0  0  0  0  0  0  0  0  0  0  0 
  1 18  1  0  0  0  0 
  1 16  1  0  0  0  0 
  2 19  1  0  0  0  0 
  3 23  1  0  0  0  0 
  3 22  1  0  0  0  0 
  4 25  1  0  0  0  0 
  4 26  1  0  0  0  0 
  5  6  1  0  0  0  0 
  5  7  1  0  0  0  0 
  6 29  1  0  0  0  0 
  7 30  1  0  0  0  0 
  8 11  1  0  0  0  0 
  8  9  1  0  0  0  0 
  9 35  1  0  0  0  0 
  9 14  1  0  0  0  0 
 10 36  1  0  0  0  0 
 10 15  1  0  0  0  0 
 11  6  2  0  0  0  0 
 11  1  1  0  0  0  0 
 12  2  2  0  0  0  0 
 12  7  1  0  0  0  0 
 13 38  1  6  0  0  0 
 13 12  1  0  0  0  0 
 13 10  1  0  0  0  0 
 13 14  1  0  0  0  0 
 14 39  1  1  0  0  0 
 14 15  1  0  0  0  0 
 15  3  1  0  0  0  0 
 15  4  1  0  0  0  0 
 17  1  1  0  0  0  0 
 20  2  1  0  0  0  0 
 21  3  1  0  0  0  0 
 24  4  1  0  0  0  0 
 27  5  1  0  0  0  0 
 28  5  1  0  0  0  0 
 31  7  1  0  0  0  0 
 32  8  1  0  0  0  0 
 33  8  1  0  0  0  0 
 34  9  1  0  0  0  0 
 37 10  1  0  0  0  0 
M  END 
>  <HBA> 
0 
 
>  <HBD> 
0 
 
>  <TPSA> 
0.0 
 
>  <cid> 
6887 
 
>  <dipole> 
0.64 
 
>  <excitation_energy_1> 
5.598 
 
>  <excitation_energy_2> 
5.621 
 
>  <excitation_energy_3> 
5.81 
 
>  <excitation_energy_4> 
5.932 
 
>  <homo_energy> 
-6.06 
 
>  <homo_lumo_gap> 
6.789 
 
>  <logP> 
4.725 
 
>  <lumo_energy> 
0.729 
 
>  <melting_point> 
27.33 
 
>  <molecular_refractivity> 
68.78 
 
>  <oscillator_strength_1> 
0.0046 
 
>  <oscillator_strength_2> 
0.0151 
 
>  <oscillator_strength_3> 
0.0693 
 
>  <oscillator_strength_4> 
0.0015 
 
>  <open_babel_can_smiles> 
C/C/1=C/CCC(=C)[C@@H]2[C@@H](CC1)C(C2)(C)C 
 
>  <mulliken_charges> 
39 
1   -0.515076 
2   -0.41179 
3   -0.46246 
4   -0.463038 
5   -0.305621 
6   -0.182633 
7   -0.330561 
8   -0.339077 
9   -0.276724 
10   -0.292872 
11   0.200642 
12   0.216765 
13   -0.181358 
14   -0.099344 
15   0.124946 
16   0.151367 
17   0.150224 
18   0.150479 
19   0.129253 
20   0.13343 
21   0.138772 
22   0.138169 
23   0.139967 
24   0.150069 
25   0.136551 
26   0.135951 
27   0.141823 
28   0.146379 
29   0.112799 
30   0.153939 
31   0.137871 
32   0.132948 
33   0.141883 
34   0.129485 
35   0.133752 
36   0.138102 
37   0.12763 
38   0.138108 
39   0.129251 
 
>  <lowdin_charges> 
39 
1   -0.440993 
2   -0.371404 
3   -0.448088 
4   -0.445687 
5   -0.280134 
6   -0.192233 
7   -0.273472 
8   -0.280358 
9   -0.273449 
10   -0.284815 
11   -0.013396 
12   0.00184 
13   -0.130838 
14   -0.139365 
15   0.012626 
16   0.153005 
17   0.153475 
18   0.153389 
19   0.153098 
20   0.153309 
21   0.146276 
22   0.14714 
23   0.150438 
24   0.152936 
25   0.146781 
26   0.145706 
27   0.151722 
28   0.150054 
29   0.143984 
30   0.152155 
31   0.149642 
32   0.146834 
33   0.147767 
34   0.14048 
35   0.142764 
36   0.14527 
37   0.143914 
38   0.146534 
39   0.14309 
 
$$$$ 
 
