PCCDB-ID:  13370 
public computational chemistry database (PCCDB) project, http://pccdb.org 
 
 33 32  0  0  0  0  0  0  0  0999 V2000 
    1.5482   -1.3308    1.9862 C   0  0  0  0  0  0  0  0  0  0  0  0 
   12.4503   -0.7383    0.3963 C   0  0  0  0  0  0  0  0  0  0  0  0 
    2.8134   -2.1577    1.7376 C   0  0  0  0  0  0  0  0  0  0  0  0 
   11.1069   -1.3577   -0.0018 C   0  0  0  0  0  0  0  0  0  0  0  0 
    3.4697   -1.8461    0.3876 C   0  0  0  0  0  0  0  0  0  0  0  0 
   10.1903   -1.6098    1.2028 C   0  0  0  0  0  0  0  0  0  0  0  0 
    4.7506   -2.6243    0.1179 C   0  0  0  0  0  0  0  0  0  0  0  0 
    8.8569   -2.2221    0.8011 C   0  0  0  0  0  0  0  0  0  0  0  0 
    6.0249   -3.0228    3.4471 N   0  0  0  0  0  0  0  0  0  0  0  0 
    6.6878   -4.5952    1.4326 O   0  0  0  0  0  0  0  0  0  0  0  0 
    5.8140   -2.1596    0.9901 O   0  0  0  0  0  0  0  0  0  0  0  0 
    8.0635   -2.3997    1.9986 O   0  0  0  0  0  0  0  0  0  0  0  0 
    6.6561   -3.1906    1.9048 P   0  0  0  0  0  0  0  0  0  0  0  0 
    1.0961   -1.5747    2.9543 H   0  0  0  0  0  0  0  0  0  0  0  0 
    0.7927   -1.5128    1.2115 H   0  0  0  0  0  0  0  0  0  0  0  0 
    1.7695   -0.2562    1.9842 H   0  0  0  0  0  0  0  0  0  0  0  0 
   13.0848   -0.5667   -0.4804 H   0  0  0  0  0  0  0  0  0  0  0  0 
   12.9997   -1.3932    1.0834 H   0  0  0  0  0  0  0  0  0  0  0  0 
   12.3089    0.2257    0.8999 H   0  0  0  0  0  0  0  0  0  0  0  0 
    2.5678   -3.2283    1.7789 H   0  0  0  0  0  0  0  0  0  0  0  0 
    3.5381   -1.9835    2.5410 H   0  0  0  0  0  0  0  0  0  0  0  0 
   11.2829   -2.3039   -0.5325 H   0  0  0  0  0  0  0  0  0  0  0  0 
   10.5973   -0.6968   -0.7170 H   0  0  0  0  0  0  0  0  0  0  0  0 
    3.6890   -0.7721    0.3132 H   0  0  0  0  0  0  0  0  0  0  0  0 
    2.7682   -2.0762   -0.4280 H   0  0  0  0  0  0  0  0  0  0  0  0 
    9.9998   -0.6666    1.7320 H   0  0  0  0  0  0  0  0  0  0  0  0 
   10.6851   -2.2798    1.9179 H   0  0  0  0  0  0  0  0  0  0  0  0 
    5.0978   -2.4542   -0.9070 H   0  0  0  0  0  0  0  0  0  0  0  0 
    4.6092   -3.7010    0.2537 H   0  0  0  0  0  0  0  0  0  0  0  0 
    8.9972   -3.1967    0.3186 H   0  0  0  0  0  0  0  0  0  0  0  0 
    8.3109   -1.5669    0.1119 H   0  0  0  0  0  0  0  0  0  0  0  0 
    6.2722   -3.7868    4.0670 H   0  0  0  0  0  0  0  0  0  0  0  0 
    6.1641   -2.1197    3.8889 H   0  0  0  0  0  0  0  0  0  0  0  0 
  1 14  1  0  0  0  0 
  2 19  1  0  0  0  0 
  2 18  1  0  0  0  0 
  3 20  1  0  0  0  0 
  3  1  1  0  0  0  0 
  3 21  1  0  0  0  0 
  4  2  1  0  0  0  0 
  4  6  1  0  0  0  0 
  5  3  1  0  0  0  0 
  6 26  1  0  0  0  0 
  6 27  1  0  0  0  0 
  7 29  1  0  0  0  0 
  7  5  1  0  0  0  0 
  7 11  1  0  0  0  0 
  8  6  1  0  0  0  0 
  8 12  1  0  0  0  0 
  9 33  1  0  0  0  0 
  9 32  1  0  0  0  0 
 10 13  2  0  0  0  0 
 11 13  1  0  0  0  0 
 13 12  1  0  0  0  0 
 13  9  1  0  0  0  0 
 15  1  1  0  0  0  0 
 16  1  1  0  0  0  0 
 17  2  1  0  0  0  0 
 22  4  1  0  0  0  0 
 23  4  1  0  0  0  0 
 24  5  1  0  0  0  0 
 25  5  1  0  0  0  0 
 28  7  1  0  0  0  0 
 30  8  1  0  0  0  0 
 31  8  1  0  0  0  0 
M  END 
>  <HBA> 
4 
 
>  <HBD> 
1 
 
>  <TPSA> 
71.36 
 
>  <cid> 
13370 
 
>  <dipole> 
2.55 
 
>  <excitation_energy_1> 
6.558 
 
>  <excitation_energy_2> 
7.021 
 
>  <excitation_energy_3> 
7.136 
 
>  <excitation_energy_4> 
7.272 
 
>  <homo_energy> 
-7.312 
 
>  <homo_lumo_gap> 
8.887 
 
>  <logP> 
3.387 
 
>  <lumo_energy> 
1.576 
 
>  <melting_point> 
23.89 
 
>  <molecular_refractivity> 
54.11 
 
>  <oscillator_strength_1> 
0.0069 
 
>  <oscillator_strength_2> 
0.02 
 
>  <oscillator_strength_3> 
0.0453 
 
>  <oscillator_strength_4> 
0.0113 
 
>  <open_babel_can_smiles> 
CCCCOP(=O)(OCCCC)N 
 
>  <mulliken_charges> 
33 
1   -0.443825 
2   -0.440766 
3   -0.254714 
4   -0.259977 
5   -0.262186 
6   -0.268467 
7   -0.047694 
8   -0.03247 
9   -0.817369 
10   -0.572297 
11   -0.54872 
12   -0.527574 
13   1.151884 
14   0.143691 
15   0.139775 
16   0.14064 
17   0.145642 
18   0.145805 
19   0.144325 
20   0.134562 
21   0.159892 
22   0.138378 
23   0.135131 
24   0.14202 
25   0.132993 
26   0.144159 
27   0.148284 
28   0.14638 
29   0.173148 
30   0.162789 
31   0.15224 
32   0.351321 
33   0.343 
 
>  <lowdin_charges> 
33 
1   -0.442903 
2   -0.443988 
3   -0.276131 
4   -0.274088 
5   -0.282693 
6   -0.281407 
7   -0.115165 
8   -0.124081 
9   -0.694551 
10   -0.601997 
11   -0.409075 
12   -0.404644 
13   1.083283 
14   0.150104 
15   0.145698 
16   0.144028 
17   0.15195 
18   0.150056 
19   0.147688 
20   0.140221 
21   0.153749 
22   0.142581 
23   0.142353 
24   0.145275 
25   0.147194 
26   0.1478 
27   0.151148 
28   0.146251 
29   0.160809 
30   0.153781 
31   0.148648 
32   0.302283 
33   0.295822 
 
$$$$ 
 
