PCCDB-ID:  18271 
public computational chemistry database (PCCDB) project, http://pccdb.org 
 
 33 33  0  0  0  0  0  0  0  0999 V2000 
    4.4231   -1.0441   -0.4191 C   0  0  0  0  0  0  0  0  0  0  0  0 
    3.8220    0.2061   -1.0746 C   0  0  0  0  0  0  0  0  0  0  0  0 
    4.7657    1.4199   -1.1225 C   0  0  0  0  0  0  0  0  0  0  0  0 
   10.1271    2.9088    0.1468 C   0  0  0  0  0  0  0  0  0  0  0  0 
    9.3252    1.7713    0.0648 C   0  0  0  0  0  0  0  0  0  0  0  0 
    9.5031    4.1509    0.2718 C   0  0  0  0  0  0  0  0  0  0  0  0 
    7.9344    1.8648    0.0870 C   0  0  0  0  0  0  0  0  0  0  0  0 
    8.1155    4.2613    0.3089 C   0  0  0  0  0  0  0  0  0  0  0  0 
    5.0470    2.0359    0.2621 C   0  0  0  0  0  0  0  0  0  0  0  0 
    5.2193    4.4733   -0.1151 C   0  0  0  0  0  0  0  0  0  0  0  0 
    4.6746    5.2366    1.0968 C   0  0  0  0  0  0  0  0  0  0  0  0 
    7.2918    3.1168    0.2030 C   0  0  0  0  0  0  0  0  0  0  0  0 
    5.8938    3.2275    0.2553 N   0  0  0  0  0  0  0  0  0  0  0  0 
    5.6939    5.6335    1.9999 O   0  0  0  0  0  0  0  0  0  0  0  0 
    3.7171   -1.8816   -0.4516 H   0  0  0  0  0  0  0  0  0  0  0  0 
    4.6804   -0.8765    0.6332 H   0  0  0  0  0  0  0  0  0  0  0  0 
    5.3367   -1.3609   -0.9377 H   0  0  0  0  0  0  0  0  0  0  0  0 
    2.8965    0.4856   -0.5500 H   0  0  0  0  0  0  0  0  0  0  0  0 
    3.5229   -0.0424   -2.1012 H   0  0  0  0  0  0  0  0  0  0  0  0 
    4.3206    2.1919   -1.7643 H   0  0  0  0  0  0  0  0  0  0  0  0 
    5.7125    1.1369   -1.5996 H   0  0  0  0  0  0  0  0  0  0  0  0 
   11.2098    2.8294    0.1228 H   0  0  0  0  0  0  0  0  0  0  0  0 
    9.7812    0.7885   -0.0285 H   0  0  0  0  0  0  0  0  0  0  0  0 
   10.1012    5.0549    0.3578 H   0  0  0  0  0  0  0  0  0  0  0  0 
    7.3545    0.9539    0.0017 H   0  0  0  0  0  0  0  0  0  0  0  0 
    7.6701    5.2361    0.4700 H   0  0  0  0  0  0  0  0  0  0  0  0 
    5.4950    1.2969    0.9336 H   0  0  0  0  0  0  0  0  0  0  0  0 
    4.0914    2.3169    0.7240 H   0  0  0  0  0  0  0  0  0  0  0  0 
    5.9090    5.1115   -0.6746 H   0  0  0  0  0  0  0  0  0  0  0  0 
    4.3842    4.2450   -0.7923 H   0  0  0  0  0  0  0  0  0  0  0  0 
    3.9109    4.6256    1.6074 H   0  0  0  0  0  0  0  0  0  0  0  0 
    4.1851    6.1575    0.7604 H   0  0  0  0  0  0  0  0  0  0  0  0 
    6.1590    4.8228    2.2661 H   0  0  0  0  0  0  0  0  0  0  0  0 
  1 16  1  0  0  0  0 
  2 18  1  0  0  0  0 
  2  1  1  0  0  0  0 
  3  2  1  0  0  0  0 
  3  9  1  0  0  0  0 
  4  6  2  0  0  0  0 
  5  7  2  0  0  0  0 
  5  4  1  0  0  0  0 
  6  8  1  0  0  0  0 
  6 24  1  0  0  0  0 
  7 12  1  0  0  0  0 
  8 26  1  0  0  0  0 
  9 28  1  0  0  0  0 
  9 27  1  0  0  0  0 
 10 13  1  0  0  0  0 
 10 11  1  0  0  0  0 
 11 31  1  0  0  0  0 
 11 14  1  0  0  0  0 
 12 13  1  0  0  0  0 
 12  8  2  0  0  0  0 
 13  9  1  0  0  0  0 
 14 33  1  0  0  0  0 
 15  1  1  0  0  0  0 
 17  1  1  0  0  0  0 
 19  2  1  0  0  0  0 
 20  3  1  0  0  0  0 
 21  3  1  0  0  0  0 
 22  4  1  0  0  0  0 
 23  5  1  0  0  0  0 
 25  7  1  0  0  0  0 
 29 10  1  0  0  0  0 
 30 10  1  0  0  0  0 
 32 11  1  0  0  0  0 
M  END 
>  <HBA> 
2 
 
>  <HBD> 
1 
 
>  <TPSA> 
23.47 
 
>  <cid> 
18271 
 
>  <dipole> 
2.66 
 
>  <excitation_energy_1> 
4.419 
 
>  <excitation_energy_2> 
4.577 
 
>  <excitation_energy_3> 
4.863 
 
>  <excitation_energy_4> 
4.92 
 
>  <homo_energy> 
-5.097 
 
>  <homo_lumo_gap> 
5.279 
 
>  <logP> 
2.285 
 
>  <lumo_energy> 
0.182 
 
>  <melting_point> 
28.62 
 
>  <molecular_refractivity> 
61.04 
 
>  <oscillator_strength_1> 
0.0316 
 
>  <oscillator_strength_2> 
0.0259 
 
>  <oscillator_strength_3> 
0.0028 
 
>  <oscillator_strength_4> 
0.0635 
 
>  <open_babel_can_smiles> 
CCCCN(c1ccccc1)CCO 
 
>  <mulliken_charges> 
33 
1   -0.448146 
2   -0.252798 
3   -0.262868 
4   -0.135837 
5   -0.13935 
6   -0.137328 
7   -0.194138 
8   -0.212099 
9   -0.153279 
10   -0.169613 
11   -0.024146 
12   0.338618 
13   -0.501247 
14   -0.611379 
15   0.147529 
16   0.146346 
17   0.146055 
18   0.13079 
19   0.138401 
20   0.135515 
21   0.148481 
22   0.11932 
23   0.122622 
24   0.125887 
25   0.124017 
26   0.148571 
27   0.156422 
28   0.140768 
29   0.165653 
30   0.139994 
31   0.121113 
32   0.143814 
33   0.402308 
 
>  <lowdin_charges> 
33 
1   -0.447784 
2   -0.27237 
3   -0.293345 
4   -0.186805 
5   -0.147445 
6   -0.147456 
7   -0.215424 
8   -0.218103 
9   -0.205507 
10   -0.218794 
11   -0.14502 
12   0.056305 
13   -0.133269 
14   -0.463852 
15   0.153255 
16   0.145322 
17   0.148441 
18   0.13913 
19   0.1454 
20   0.144948 
21   0.148423 
22   0.152226 
23   0.154139 
24   0.15649 
25   0.157631 
26   0.165053 
27   0.15309 
28   0.144383 
29   0.161648 
30   0.146871 
31   0.126701 
32   0.148547 
33   0.347171 
 
$$$$ 
 
