PCCDB-ID:  17868 
public computational chemistry database (PCCDB) project, http://pccdb.org 
 
 26 27  0  0  1  0  0  0  0  0999 V2000 
    1.2676   -1.3603    0.2580 C   0  0  0  0  0  0  0  0  0  0  0  0 
    3.0334    0.3429    0.8493 C   0  0  0  0  0  0  0  0  0  0  0  0 
    3.7559   -2.9454   -4.5728 C   0  0  0  0  0  0  0  0  0  0  0  0 
    4.4574   -0.8122   -3.3661 C   0  0  0  0  0  0  0  0  0  0  0  0 
    4.2382   -0.0867   -2.0570 C   0  0  0  0  0  0  0  0  0  0  0  0 
    3.9708   -2.3836   -0.9193 C   0  0  0  0  0  0  0  0  0  0  0  0 
    2.3257   -0.3973   -0.3005 C   0  0  0  0  0  0  0  0  0  0  0  0 
    3.7908   -1.9742   -3.4311 C   0  0  0  0  0  0  0  0  0  0  0  0 
    3.0765   -2.2383   -2.1404 C   0  0  2  0  0  0  0  0  0  0  0  0 
    3.3519   -1.0428   -1.2336 C   0  0  1  0  0  0  0  0  0  0  0  0 
    0.5401   -0.8078    0.8638 H   0  0  0  0  0  0  0  0  0  0  0  0 
    1.7121   -2.1251    0.9061 H   0  0  0  0  0  0  0  0  0  0  0  0 
    0.7143   -1.8688   -0.5390 H   0  0  0  0  0  0  0  0  0  0  0  0 
    2.3094    0.8645    1.4868 H   0  0  0  0  0  0  0  0  0  0  0  0 
    3.7451    1.0874    0.4753 H   0  0  0  0  0  0  0  0  0  0  0  0 
    3.5893   -0.3630    1.4791 H   0  0  0  0  0  0  0  0  0  0  0  0 
    4.3417   -2.5874   -5.4257 H   0  0  0  0  0  0  0  0  0  0  0  0 
    2.7265   -3.1152   -4.9178 H   0  0  0  0  0  0  0  0  0  0  0  0 
    4.1504   -3.9261   -4.2735 H   0  0  0  0  0  0  0  0  0  0  0  0 
    5.1027   -0.4233   -4.1498 H   0  0  0  0  0  0  0  0  0  0  0  0 
    3.7304    0.8782   -2.2149 H   0  0  0  0  0  0  0  0  0  0  0  0 
    5.1832    0.1470   -1.5459 H   0  0  0  0  0  0  0  0  0  0  0  0 
    5.0364   -2.5275   -1.0871 H   0  0  0  0  0  0  0  0  0  0  0  0 
    3.5730   -2.9370   -0.0723 H   0  0  0  0  0  0  0  0  0  0  0  0 
    1.7901    0.3552   -0.9004 H   0  0  0  0  0  0  0  0  0  0  0  0 
    2.1224   -2.7604   -2.1480 H   0  0  0  0  0  0  0  0  0  0  0  0 
  1 11  1  0  0  0  0 
  1 12  1  0  0  0  0 
  2 16  1  0  0  0  0 
  2 14  1  0  0  0  0 
  3 19  1  0  0  0  0 
  3  8  1  0  0  0  0 
  4  5  1  0  0  0  0 
  5 22  1  0  0  0  0 
  5 10  1  0  0  0  0 
  6 24  1  0  0  0  0 
  7  1  1  0  0  0  0 
  7  2  1  0  0  0  0 
  8  4  2  0  0  0  0 
  8  9  1  0  0  0  0 
  9 26  1  6  0  0  0 
  9 10  1  0  0  0  0 
  9  6  1  0  0  0  0 
 10  6  1  0  0  0  0 
 10  7  1  1  0  0  0 
 13  1  1  0  0  0  0 
 15  2  1  0  0  0  0 
 17  3  1  0  0  0  0 
 18  3  1  0  0  0  0 
 20  4  1  0  0  0  0 
 21  5  1  0  0  0  0 
 23  6  1  0  0  0  0 
 25  7  1  0  0  0  0 
M  END 
>  <HBA> 
0 
 
>  <HBD> 
0 
 
>  <TPSA> 
0.0 
 
>  <cid> 
17868 
 
>  <dipole> 
0.24 
 
>  <excitation_energy_1> 
5.387 
 
>  <excitation_energy_2> 
5.741 
 
>  <excitation_energy_3> 
5.832 
 
>  <excitation_energy_4> 
5.91 
 
>  <homo_energy> 
-5.818 
 
>  <homo_lumo_gap> 
6.686 
 
>  <logP> 
2.999 
 
>  <lumo_energy> 
0.868 
 
>  <melting_point> 
47.83 
 
>  <molecular_refractivity> 
45.22 
 
>  <oscillator_strength_1> 
0.003 
 
>  <oscillator_strength_2> 
0.0088 
 
>  <oscillator_strength_3> 
0.0357 
 
>  <oscillator_strength_4> 
0.0165 
 
>  <open_babel_can_smiles> 
CC1=CC[C@]2([C@@H]1C2)C(C)C 
 
>  <mulliken_charges> 
26 
1   -0.459804 
2   -0.444179 
3   -0.522598 
4   -0.206762 
5   -0.317097 
6   -0.325977 
7   -0.094279 
8   0.221786 
9   -0.213177 
10   0.105642 
11   0.142586 
12   0.142288 
13   0.145651 
14   0.137051 
15   0.145374 
16   0.142299 
17   0.152964 
18   0.152671 
19   0.157047 
20   0.113202 
21   0.138203 
22   0.144063 
23   0.146728 
24   0.144532 
25   0.122183 
26   0.129603 
 
>  <lowdin_charges> 
26 
1   -0.450709 
2   -0.448103 
3   -0.438771 
4   -0.203168 
5   -0.267654 
6   -0.312431 
7   -0.115021 
8   -0.004112 
9   -0.165521 
10   -0.008434 
11   0.152312 
12   0.147288 
13   0.150344 
14   0.14763 
15   0.150356 
16   0.148958 
17   0.157519 
18   0.155173 
19   0.15714 
20   0.150067 
21   0.145254 
22   0.14903 
23   0.155084 
24   0.15725 
25   0.139289 
26   0.15123 
 
$$$$ 
 
