PCCDB-ID:  68292 
public computational chemistry database (PCCDB) project, http://pccdb.org 
 
 18 19  0  0  0  0  0  0  0  0999 V2000 
   -2.4355   -0.5365   -0.2303 C   0  0  0  0  0  0  0  0  0  0  0  0 
    1.9697    1.0862   -0.0682 C   0  0  0  0  0  0  0  0  0  0  0  0 
   -1.8727    0.8633    0.1445 C   0  0  0  0  0  0  0  0  0  0  0  0 
    0.6644    1.5846   -0.0068 C   0  0  0  0  0  0  0  0  0  0  0  0 
   -1.3175   -1.5433    0.1384 C   0  0  0  0  0  0  0  0  0  0  0  0 
    2.1693   -0.2958   -0.0593 C   0  0  0  0  0  0  0  0  0  0  0  0 
   -0.3768    0.6654    0.0541 C   0  0  0  0  0  0  0  0  0  0  0  0 
   -0.0613   -0.7028    0.0540 C   0  0  0  0  0  0  0  0  0  0  0  0 
    1.1761   -1.1977    0.0033 N   0  0  0  0  0  0  0  0  0  0  0  0 
   -2.6137   -0.5738   -1.3115 H   0  0  0  0  0  0  0  0  0  0  0  0 
   -3.3867   -0.7527    0.2652 H   0  0  0  0  0  0  0  0  0  0  0  0 
    2.8213    1.7577   -0.1273 H   0  0  0  0  0  0  0  0  0  0  0  0 
   -2.1593    1.1394    1.1699 H   0  0  0  0  0  0  0  0  0  0  0  0 
   -2.2466    1.6578   -0.5115 H   0  0  0  0  0  0  0  0  0  0  0  0 
    0.4769    2.6562   -0.0127 H   0  0  0  0  0  0  0  0  0  0  0  0 
   -1.2797   -2.4153   -0.5222 H   0  0  0  0  0  0  0  0  0  0  0  0 
   -1.4424   -1.9258    1.1619 H   0  0  0  0  0  0  0  0  0  0  0  0 
    3.1785   -0.7019   -0.1071 H   0  0  0  0  0  0  0  0  0  0  0  0 
  1  5  1  0  0  0  0 
  1  3  1  0  0  0  0 
  1 11  1  0  0  0  0 
  2  6  2  0  0  0  0 
  2  4  1  0  0  0  0 
  3 13  1  0  0  0  0 
  4  7  2  0  0  0  0 
  5 17  1  0  0  0  0 
  6  9  1  0  0  0  0 
  7  3  1  0  0  0  0 
  8  7  1  0  0  0  0 
  8  5  1  0  0  0  0 
  9  8  2  0  0  0  0 
 10  1  1  0  0  0  0 
 12  2  1  0  0  0  0 
 14  3  1  0  0  0  0 
 15  4  1  0  0  0  0 
 16  5  1  0  0  0  0 
 18  6  1  0  0  0  0 
M  END 
>  <HBA> 
1 
 
>  <HBD> 
0 
 
>  <TPSA> 
12.89 
 
>  <cid> 
68292 
 
>  <dipole> 
2.12 
 
>  <excitation_energy_1> 
4.78 
 
>  <excitation_energy_2> 
5.141 
 
>  <excitation_energy_3> 
5.278 
 
>  <excitation_energy_4> 
5.977 
 
>  <homo_energy> 
-6.504 
 
>  <homo_lumo_gap> 
5.978 
 
>  <logP> 
1.57 
 
>  <lumo_energy> 
-0.525 
 
>  <melting_point> 
49.41 
 
>  <molecular_refractivity> 
36.86 
 
>  <oscillator_strength_1> 
0.005 
 
>  <oscillator_strength_2> 
0.1035 
 
>  <oscillator_strength_3> 
0.0002 
 
>  <oscillator_strength_4> 
0.0391 
 
>  <open_babel_can_smiles> 
c1cnc2c(c1)CCC2 
 
>  <mulliken_charges> 
18 
1   -0.285344 
2   -0.145482 
3   -0.353098 
4   -0.160957 
5   -0.327808 
6   0.028914 
7   0.142534 
8   0.262969 
9   -0.479013 
10   0.150094 
11   0.14042 
12   0.132847 
13   0.155203 
14   0.149856 
15   0.134991 
16   0.160447 
17   0.157322 
18   0.136105 
 
>  <lowdin_charges> 
18 
1   -0.273359 
2   -0.181634 
3   -0.279397 
4   -0.136637 
5   -0.281412 
6   -0.091334 
7   -0.03092 
8   0.036317 
9   -0.154373 
10   0.146757 
11   0.147904 
12   0.162829 
13   0.152613 
14   0.153984 
15   0.157851 
16   0.161254 
17   0.155905 
18   0.153653 
 
$$$$ 
 
