PCCDB-ID:  50657 
public computational chemistry database (PCCDB) project, http://pccdb.org 
 
 19 19  0  0  0  0  0  0  0  0999 V2000 
    0.5063    0.0086   -0.2713 C   0  0  0  0  0  0  0  0  0  0  0  0 
   -4.0498   -0.3204   -1.0359 C   0  0  0  0  0  0  0  0  0  0  0  0 
   -0.3501   -0.7278   -1.2703 C   0  0  0  0  0  0  0  0  0  0  0  0 
   -2.8292    0.0209   -1.7086 C   0  0  0  0  0  0  0  0  0  0  0  0 
    0.0766    0.7533    0.7523 C   0  0  0  0  0  0  0  0  0  0  0  0 
   -3.7012   -1.1732   -0.0357 C   0  0  0  0  0  0  0  0  0  0  0  0 
   -1.8276   -0.6492   -1.0695 C   0  0  0  0  0  0  0  0  0  0  0  0 
    1.0564    1.4287    1.6472 C   0  0  0  0  0  0  0  0  0  0  0  0 
    2.2579    1.3709    1.5237 O   0  0  0  0  0  0  0  0  0  0  0  0 
    0.5158    2.1554    2.6668 O   0  0  0  0  0  0  0  0  0  0  0  0 
   -2.3523   -1.3849   -0.0378 O   0  0  0  0  0  0  0  0  0  0  0  0 
    1.5836   -0.0783   -0.4085 H   0  0  0  0  0  0  0  0  0  0  0  0 
   -5.0475    0.0204   -1.2748 H   0  0  0  0  0  0  0  0  0  0  0  0 
   -0.0334   -1.7818   -1.2816 H   0  0  0  0  0  0  0  0  0  0  0  0 
   -0.1163   -0.3467   -2.2740 H   0  0  0  0  0  0  0  0  0  0  0  0 
   -2.7141    0.6780   -2.5598 H   0  0  0  0  0  0  0  0  0  0  0  0 
   -0.9880    0.8730    0.9441 H   0  0  0  0  0  0  0  0  0  0  0  0 
   -4.2554   -1.7007    0.7256 H   0  0  0  0  0  0  0  0  0  0  0  0 
   -0.4534    2.1011    2.6391 H   0  0  0  0  0  0  0  0  0  0  0  0 
  1  5  2  0  0  0  0 
  2  6  2  0  0  0  0 
  3  7  1  0  0  0  0 
  3  1  1  0  0  0  0 
  4  7  2  0  0  0  0 
  4  2  1  0  0  0  0 
  5 17  1  0  0  0  0 
  5  8  1  0  0  0  0 
  6 18  1  0  0  0  0 
  7 11  1  0  0  0  0 
  8 10  1  0  0  0  0 
  9  8  2  0  0  0  0 
 11  6  1  0  0  0  0 
 12  1  1  0  0  0  0 
 13  2  1  0  0  0  0 
 14  3  1  0  0  0  0 
 15  3  1  0  0  0  0 
 16  4  1  0  0  0  0 
 19 10  1  0  0  0  0 
M  END 
>  <HBA> 
3 
 
>  <HBD> 
1 
 
>  <TPSA> 
50.44 
 
>  <cid> 
50657 
 
>  <dipole> 
5.02 
 
>  <excitation_energy_1> 
4.279 
 
>  <excitation_energy_2> 
4.696 
 
>  <excitation_energy_3> 
5.525 
 
>  <excitation_energy_4> 
5.776 
 
>  <homo_energy> 
-6.313 
 
>  <homo_lumo_gap> 
5.129 
 
>  <logP> 
1.463 
 
>  <lumo_energy> 
-1.184 
 
>  <melting_point> 
91.34 
 
>  <molecular_refractivity> 
39.39 
 
>  <oscillator_strength_1> 
0.0017 
 
>  <oscillator_strength_2> 
0.0 
 
>  <oscillator_strength_3> 
0.024 
 
>  <oscillator_strength_4> 
0.1487 
 
>  <open_babel_can_smiles> 
OC(=O)/C=C/Cc1ccco1 
 
>  <mulliken_charges> 
19 
1   -0.069882 
2   -0.180928 
3   -0.403119 
4   -0.203985 
5   -0.218479 
6   0.077797 
7   0.340002 
8   0.599583 
9   -0.458596 
10   -0.579986 
11   -0.435753 
12   0.175833 
13   0.144727 
14   0.184121 
15   0.180634 
16   0.142123 
17   0.140885 
18   0.157181 
19   0.407842 
 
>  <lowdin_charges> 
19 
1   -0.089305 
2   -0.203801 
3   -0.272506 
4   -0.215596 
5   -0.23347 
6   -0.083503 
7   0.060511 
8   0.192588 
9   -0.249928 
10   -0.355396 
11   -0.105247 
12   0.177012 
13   0.170409 
14   0.175587 
15   0.17674 
16   0.169749 
17   0.158589 
18   0.173491 
19   0.354077 
 
$$$$ 
 
