PCCDB-ID:  11934 
public computational chemistry database (PCCDB) project, http://pccdb.org 
 
 28 30  0  0  0  0  0  0  0  0999 V2000 
   -1.5270   -0.0729    0.1269 C   0  0  0  0  0  0  0  0  0  0  0  0 
   -0.7237   -1.0043    0.7875 C   0  0  0  0  0  0  0  0  0  0  0  0 
   -0.9274    0.9443   -0.6180 C   0  0  0  0  0  0  0  0  0  0  0  0 
    7.7680   -0.6951   -0.4925 C   0  0  0  0  0  0  0  0  0  0  0  0 
    7.1376   -1.9640   -0.4877 C   0  0  0  0  0  0  0  0  0  0  0  0 
    0.6650   -0.9187    0.7041 C   0  0  0  0  0  0  0  0  0  0  0  0 
    0.4616    1.0285   -0.7019 C   0  0  0  0  0  0  0  0  0  0  0  0 
    7.0141    0.4545   -0.4113 C   0  0  0  0  0  0  0  0  0  0  0  0 
    5.7670   -2.0589   -0.4005 C   0  0  0  0  0  0  0  0  0  0  0  0 
    4.7827    1.5502   -0.2371 C   0  0  0  0  0  0  0  0  0  0  0  0 
    3.4149    1.4517   -0.1505 C   0  0  0  0  0  0  0  0  0  0  0  0 
    3.5457   -0.9571   -0.2219 C   0  0  0  0  0  0  0  0  0  0  0  0 
    1.2838    0.0973   -0.0445 C   0  0  0  0  0  0  0  0  0  0  0  0 
    5.5985    0.3903   -0.3210 C   0  0  0  0  0  0  0  0  0  0  0  0 
    4.9598   -0.8919   -0.3122 C   0  0  0  0  0  0  0  0  0  0  0  0 
    2.7634    0.1829   -0.1398 C   0  0  0  0  0  0  0  0  0  0  0  0 
   -2.6097   -0.1379    0.1935 H   0  0  0  0  0  0  0  0  0  0  0  0 
   -1.1790   -1.7945    1.3788 H   0  0  0  0  0  0  0  0  0  0  0  0 
   -1.5426    1.6711   -1.1422 H   0  0  0  0  0  0  0  0  0  0  0  0 
    8.8507   -0.6330   -0.5620 H   0  0  0  0  0  0  0  0  0  0  0  0 
    7.7424   -2.8644   -0.5528 H   0  0  0  0  0  0  0  0  0  0  0  0 
    1.2809   -1.6311    1.2458 H   0  0  0  0  0  0  0  0  0  0  0  0 
    0.9155    1.8097   -1.3054 H   0  0  0  0  0  0  0  0  0  0  0  0 
    7.4946    1.4302   -0.4160 H   0  0  0  0  0  0  0  0  0  0  0  0 
    5.2814   -3.0321   -0.3967 H   0  0  0  0  0  0  0  0  0  0  0  0 
    5.2604    2.5274   -0.2324 H   0  0  0  0  0  0  0  0  0  0  0  0 
    2.8150    2.3526   -0.0600 H   0  0  0  0  0  0  0  0  0  0  0  0 
    3.0726   -1.9358   -0.2450 H   0  0  0  0  0  0  0  0  0  0  0  0 
  1 17  1  0  0  0  0 
  1  2  2  0  0  0  0 
  2 18  1  0  0  0  0 
  3  1  1  0  0  0  0 
  4  5  2  0  0  0  0 
  4  8  1  0  0  0  0 
  5  9  1  0  0  0  0 
  6  2  1  0  0  0  0 
  6 22  1  0  0  0  0 
  7  3  2  0  0  0  0 
  7 13  1  0  0  0  0 
  8 14  2  0  0  0  0 
  9 25  1  0  0  0  0 
  9 15  2  0  0  0  0 
 10 26  1  0  0  0  0 
 10 11  2  0  0  0  0 
 11 16  1  0  0  0  0 
 11 27  1  0  0  0  0 
 12 16  2  0  0  0  0 
 13  6  2  0  0  0  0 
 14 15  1  0  0  0  0 
 14 10  1  0  0  0  0 
 15 12  1  0  0  0  0 
 16 13  1  0  0  0  0 
 19  3  1  0  0  0  0 
 20  4  1  0  0  0  0 
 21  5  1  0  0  0  0 
 23  7  1  0  0  0  0 
 24  8  1  0  0  0  0 
 28 12  1  0  0  0  0 
M  END 
>  <HBA> 
0 
 
>  <HBD> 
0 
 
>  <TPSA> 
0.0 
 
>  <cid> 
11934 
 
>  <dipole> 
0.02 
 
>  <excitation_energy_1> 
4.099 
 
>  <excitation_energy_2> 
4.143 
 
>  <excitation_energy_3> 
4.761 
 
>  <excitation_energy_4> 
4.854 
 
>  <homo_energy> 
-5.676 
 
>  <homo_lumo_gap> 
4.531 
 
>  <logP> 
4.507 
 
>  <lumo_energy> 
-1.146 
 
>  <melting_point> 
85.92 
 
>  <molecular_refractivity> 
69.38 
 
>  <oscillator_strength_1> 
0.136 
 
>  <oscillator_strength_2> 
0.0064 
 
>  <oscillator_strength_3> 
0.01 
 
>  <oscillator_strength_4> 
0.9413 
 
>  <open_babel_can_smiles> 
c1ccc(cc1)c1ccc2c(c1)cccc2 
 
>  <mulliken_charges> 
28 
1   -0.126657 
2   -0.134402 
3   -0.13372 
4   -0.134762 
5   -0.137327 
6   -0.171537 
7   -0.174953 
8   -0.192304 
9   -0.189057 
10   -0.198583 
11   -0.176235 
12   -0.259005 
13   0.088245 
14   0.139739 
15   0.139385 
16   0.091255 
17   0.129574 
18   0.130394 
19   0.130359 
20   0.129943 
21   0.130124 
22   0.132343 
23   0.132556 
24   0.129534 
25   0.129579 
26   0.130512 
27   0.132738 
28   0.13226 
 
>  <lowdin_charges> 
28 
1   -0.155776 
2   -0.155285 
3   -0.155927 
4   -0.156101 
5   -0.159019 
6   -0.162413 
7   -0.162875 
8   -0.156355 
9   -0.156407 
10   -0.154723 
11   -0.163327 
12   -0.162255 
13   -0.000963 
14   -0.001 
15   0.001019 
16   -0.00275 
17   0.155979 
18   0.159061 
19   0.159419 
20   0.156601 
21   0.159244 
22   0.160868 
23   0.160245 
24   0.157286 
25   0.157462 
26   0.157947 
27   0.161229 
28   0.158813 
 
$$$$ 
 
