PCCDB-ID:  19495 
public computational chemistry database (PCCDB) project, http://pccdb.org 
 
 21 21  0  0  0  0  0  0  0  0999 V2000 
   -0.7200    1.1635    0.0477 C   0  0  0  0  0  0  0  0  0  0  0  0 
    1.3060   -0.1905   -0.0612 C   0  0  0  0  0  0  0  0  0  0  0  0 
   -1.4966    0.0131    0.0130 C   0  0  0  0  0  0  0  0  0  0  0  0 
    0.5270   -1.3388   -0.0952 C   0  0  0  0  0  0  0  0  0  0  0  0 
    2.7138    4.6472    0.1274 C   0  0  0  0  0  0  0  0  0  0  0  0 
    4.8159    3.3463    0.0153 C   0  0  0  0  0  0  0  0  0  0  0  0 
    0.6788    1.0624    0.0107 C   0  0  0  0  0  0  0  0  0  0  0  0 
    3.3880    3.3833    0.0520 C   0  0  0  0  0  0  0  0  0  0  0  0 
   -0.8634   -1.2265   -0.0584 C   0  0  0  0  0  0  0  0  0  0  0  0 
    2.0473    5.6006    0.1868 N   0  0  0  0  0  0  0  0  0  0  0  0 
    5.9786    3.3478   -0.0123 N   0  0  0  0  0  0  0  0  0  0  0  0 
    1.4220    2.2511    0.0486 N   0  0  0  0  0  0  0  0  0  0  0  0 
    2.7331    2.2477    0.0151 N   0  0  0  0  0  0  0  0  0  0  0  0 
   -1.6817   -2.4444   -0.0954 N   0  0  0  0  0  0  0  0  0  0  0  0 
   -2.9052   -2.3094   -0.0784 O   0  0  0  0  0  0  0  0  0  0  0  0 
   -1.0938   -3.5246   -0.1411 O   0  0  0  0  0  0  0  0  0  0  0  0 
   -1.1977    2.1381    0.1048 H   0  0  0  0  0  0  0  0  0  0  0  0 
    2.3870   -0.2508   -0.0880 H   0  0  0  0  0  0  0  0  0  0  0  0 
   -2.5780    0.0612    0.0396 H   0  0  0  0  0  0  0  0  0  0  0  0 
    0.9798   -2.3210   -0.1503 H   0  0  0  0  0  0  0  0  0  0  0  0 
    0.9144    3.1369    0.1036 H   0  0  0  0  0  0  0  0  0  0  0  0 
  1 17  1  0  0  0  0 
  2  7  1  0  0  0  0 
  3 19  1  0  0  0  0 
  3  1  1  0  0  0  0 
  4  2  2  0  0  0  0 
  4  9  1  0  0  0  0 
  5 10  3  0  0  0  0 
  6  8  1  0  0  0  0 
  7  1  2  0  0  0  0 
  7 12  1  0  0  0  0 
  8  5  1  0  0  0  0 
  9  3  2  0  0  0  0 
 11  6  3  0  0  0  0 
 12 21  1  0  0  0  0 
 13 12  1  0  0  0  0 
 13  8  2  0  0  0  0 
 14 15  2  0  0  0  0 
 14  9  1  0  0  0  0 
 16 14  2  0  0  0  0 
 18  2  1  0  0  0  0 
 20  4  1  0  0  0  0 
M  END 
>  <HBA> 
4 
 
>  <HBD> 
1 
 
>  <TPSA> 
117.79 
 
>  <cid> 
19495 
 
>  <dipole> 
2.11 
 
>  <excitation_energy_1> 
3.503 
 
>  <excitation_energy_2> 
3.672 
 
>  <excitation_energy_3> 
4.124 
 
>  <excitation_energy_4> 
4.17 
 
>  <homo_energy> 
-7.176 
 
>  <homo_lumo_gap> 
3.78 
 
>  <logP> 
2.006 
 
>  <lumo_energy> 
-3.396 
 
>  <melting_point> 
162.0 
 
>  <molecular_refractivity> 
57.37 
 
>  <oscillator_strength_1> 
0.8227 
 
>  <oscillator_strength_2> 
0.0008 
 
>  <oscillator_strength_3> 
0.0098 
 
>  <oscillator_strength_4> 
0.0116 
 
>  <open_babel_can_smiles> 
N#CC(=NNc1ccc(cc1)N(=O)=O)C#N 
 
>  <mulliken_charges> 
21 
1   -0.196927 
2   -0.163635 
3   -0.155645 
4   -0.160214 
5   0.327548 
6   0.333885 
7   0.402863 
8   0.259176 
9   0.284326 
10   -0.452829 
11   -0.456548 
12   -0.523853 
13   -0.189652 
14   0.379766 
15   -0.392916 
16   -0.391433 
17   0.160164 
18   0.187489 
19   0.196227 
20   0.197268 
21   0.35494 
 
>  <lowdin_charges> 
21 
1   -0.173275 
2   -0.160135 
3   -0.120206 
4   -0.119295 
5   -0.02421 
6   -0.006922 
7   0.064828 
8   -0.024179 
9   -0.002822 
10   -0.079208 
11   -0.075454 
12   -0.124609 
13   -0.011166 
14   0.305529 
15   -0.242377 
16   -0.242328 
17   0.172059 
18   0.186555 
19   0.192969 
20   0.194853 
21   0.289395 
 
$$$$ 
 
