PCCDB-ID:  62477 
public computational chemistry database (PCCDB) project, http://pccdb.org 
 
 23 22  0  0  0  0  0  0  0  0999 V2000 
    0.2954   -0.9137    0.5268 C   0  0  0  0  0  0  0  0  0  0  0  0 
    0.6969    1.6743   -3.8191 C   0  0  0  0  0  0  0  0  0  0  0  0 
    5.3216    1.8698    0.3364 C   0  0  0  0  0  0  0  0  0  0  0  0 
    0.9045    0.2573    0.3480 C   0  0  0  0  0  0  0  0  0  0  0  0 
    0.9755    0.6563   -2.7252 C   0  0  0  0  0  0  0  0  0  0  0  0 
    4.2992    1.2556   -0.6045 C   0  0  0  0  0  0  0  0  0  0  0  0 
    2.0577    0.4692   -0.5941 C   0  0  0  0  0  0  0  0  0  0  0  0 
    1.6785    1.3140   -1.6785 O   0  0  0  0  0  0  0  0  0  0  0  0 
    3.0743    1.1047    0.1159 O   0  0  0  0  0  0  0  0  0  0  0  0 
   -0.5526   -1.0233    1.1972 H   0  0  0  0  0  0  0  0  0  0  0  0 
    0.6273   -1.8145    0.0138 H   0  0  0  0  0  0  0  0  0  0  0  0 
    0.1577    1.2046   -4.6493 H   0  0  0  0  0  0  0  0  0  0  0  0 
    1.6326    2.0925   -4.2042 H   0  0  0  0  0  0  0  0  0  0  0  0 
    0.0882    2.4971   -3.4310 H   0  0  0  0  0  0  0  0  0  0  0  0 
    6.2813    1.9979   -0.1765 H   0  0  0  0  0  0  0  0  0  0  0  0 
    5.4766    1.2301    1.2113 H   0  0  0  0  0  0  0  0  0  0  0  0 
    4.9814    2.8503    0.6848 H   0  0  0  0  0  0  0  0  0  0  0  0 
    0.5728    1.1559    0.8648 H   0  0  0  0  0  0  0  0  0  0  0  0 
    1.5804   -0.1792   -3.1175 H   0  0  0  0  0  0  0  0  0  0  0  0 
    0.0352    0.2281   -2.3460 H   0  0  0  0  0  0  0  0  0  0  0  0 
    4.6393    0.2689   -0.9609 H   0  0  0  0  0  0  0  0  0  0  0  0 
    4.1394    1.8906   -1.4839 H   0  0  0  0  0  0  0  0  0  0  0  0 
    2.4093   -0.4973   -1.0065 H   0  0  0  0  0  0  0  0  0  0  0  0 
  1 10  1  0  0  0  0 
  2 14  1  0  0  0  0 
  2  5  1  0  0  0  0 
  3 17  1  0  0  0  0 
  3 16  1  0  0  0  0 
  4  1  2  0  0  0  0 
  4 18  1  0  0  0  0 
  5 20  1  0  0  0  0 
  5  8  1  0  0  0  0 
  6  9  1  0  0  0  0 
  6  3  1  0  0  0  0 
  7  9  1  0  0  0  0 
  7  4  1  0  0  0  0 
  8  7  1  0  0  0  0 
 11  1  1  0  0  0  0 
 12  2  1  0  0  0  0 
 13  2  1  0  0  0  0 
 15  3  1  0  0  0  0 
 19  5  1  0  0  0  0 
 21  6  1  0  0  0  0 
 22  6  1  0  0  0  0 
 23  7  1  0  0  0  0 
M  END 
>  <HBA> 
2 
 
>  <HBD> 
0 
 
>  <TPSA> 
18.46 
 
>  <cid> 
62477 
 
>  <dipole> 
1.58 
 
>  <excitation_energy_1> 
6.072 
 
>  <excitation_energy_2> 
6.423 
 
>  <excitation_energy_3> 
6.637 
 
>  <excitation_energy_4> 
6.931 
 
>  <homo_energy> 
-6.893 
 
>  <homo_lumo_gap> 
7.222 
 
>  <logP> 
1.571 
 
>  <lumo_energy> 
0.329 
 
>  <melting_point> 
-65.72 
 
>  <molecular_refractivity> 
37.46 
 
>  <oscillator_strength_1> 
0.0253 
 
>  <oscillator_strength_2> 
0.0095 
 
>  <oscillator_strength_3> 
0.0269 
 
>  <oscillator_strength_4> 
0.0168 
 
>  <open_babel_can_smiles> 
CCOC(OCC)C=C 
 
>  <mulliken_charges> 
23 
1   -0.34604 
2   -0.452402 
3   -0.454626 
4   -0.055817 
5   -0.015566 
6   -0.013805 
7   0.357366 
8   -0.488396 
9   -0.490241 
10   0.147468 
11   0.14124 
12   0.142606 
13   0.15573 
14   0.160409 
15   0.142275 
16   0.156664 
17   0.160788 
18   0.146328 
19   0.117369 
20   0.131339 
21   0.115905 
22   0.147714 
23   0.093693 
 
>  <lowdin_charges> 
23 
1   -0.330949 
2   -0.449408 
3   -0.447946 
4   -0.153677 
5   -0.129728 
6   -0.126457 
7   0.103738 
8   -0.274358 
9   -0.248376 
10   0.162885 
11   0.156326 
12   0.154508 
13   0.155637 
14   0.15891 
15   0.153458 
16   0.156329 
17   0.157913 
18   0.1654 
19   0.125047 
20   0.132424 
21   0.125413 
22   0.141494 
23   0.111416 
 
$$$$ 
 
