PCCDB-ID:  8011 
public computational chemistry database (PCCDB) project, http://pccdb.org 
 
 10  9  0  0  0  0  0  0  0  0999 V2000 
    0.9648   -0.0027    0.1013 C   0  0  0  0  0  0  0  0  0  0  0  0 
    0.4434    0.6015   -1.1261 C   0  0  0  0  0  0  0  0  0  0  0  0 
    2.5100    0.0064    0.1515 C   0  0  0  0  0  0  0  0  0  0  0  0 
    0.0655    1.0904   -2.1088 N   0  0  0  0  0  0  0  0  0  0  0  0 
    2.9856   -0.6250    1.3250 O   0  0  0  0  0  0  0  0  0  0  0  0 
    0.6113   -1.0370    0.1799 H   0  0  0  0  0  0  0  0  0  0  0  0 
    0.5594    0.5437    0.9630 H   0  0  0  0  0  0  0  0  0  0  0  0 
    2.8804    1.0367    0.0546 H   0  0  0  0  0  0  0  0  0  0  0  0 
    2.9059   -0.5687   -0.6897 H   0  0  0  0  0  0  0  0  0  0  0  0 
    2.8368   -0.0269    2.0736 H   0  0  0  0  0  0  0  0  0  0  0  0 
  1  3  1  0  0  0  0 
  1  6  1  0  0  0  0 
  1  7  1  0  0  0  0 
  2  1  1  0  0  0  0 
  3  5  1  0  0  0  0 
  4  2  3  0  0  0  0 
  5 10  1  0  0  0  0 
  8  3  1  0  0  0  0 
  9  3  1  0  0  0  0 
M  END 
>  <HBA> 
2 
 
>  <HBD> 
1 
 
>  <TPSA> 
44.02 
 
>  <cid> 
8011 
 
>  <dipole> 
3.42 
 
>  <excitation_energy_1> 
6.703 
 
>  <excitation_energy_2> 
7.532 
 
>  <excitation_energy_3> 
7.57 
 
>  <excitation_energy_4> 
7.738 
 
>  <homo_energy> 
-7.959 
 
>  <homo_lumo_gap> 
8.708 
 
>  <logP> 
-0.108 
 
>  <lumo_energy> 
0.748 
 
>  <melting_point> 
27.95 
 
>  <molecular_refractivity> 
17.45 
 
>  <oscillator_strength_1> 
0.006 
 
>  <oscillator_strength_2> 
0.0002 
 
>  <oscillator_strength_3> 
0.0277 
 
>  <oscillator_strength_4> 
0.0021 
 
>  <open_babel_can_smiles> 
OCCC#N 
 
>  <mulliken_charges> 
10 
1   -0.358779 
2   0.344645 
3   -0.035296 
4   -0.465044 
5   -0.600089 
6   0.208297 
7   0.184579 
8   0.149883 
9   0.175706 
10   0.396098 
 
>  <lowdin_charges> 
10 
1   -0.293939 
2   -0.019317 
3   -0.126198 
4   -0.122546 
5   -0.453824 
6   0.187658 
7   0.177021 
8   0.140568 
9   0.162475 
10   0.348104 
 
$$$$ 
 
