PCCDB-ID:  32152 
public computational chemistry database (PCCDB) project, http://pccdb.org 
 
 34 34  0  0  0  0  0  0  0  0999 V2000 
    4.6290    1.1270   -1.0603 C   0  0  0  0  0  0  0  0  0  0  0  0 
    4.4613   -9.8573   -0.9105 C   0  0  0  0  0  0  0  0  0  0  0  0 
    8.0871   -3.8494   -1.9880 C   0  0  0  0  0  0  0  0  0  0  0  0 
    5.6087    0.2016   -0.3316 C   0  0  0  0  0  0  0  0  0  0  0  0 
    4.4517   -8.4180   -0.3980 C   0  0  0  0  0  0  0  0  0  0  0  0 
    5.4133   -1.2785   -0.6825 C   0  0  0  0  0  0  0  0  0  0  0  0 
    6.4013   -2.2148    0.0481 C   0  0  0  0  0  0  0  0  0  0  0  0 
    6.9591   -4.3973   -1.1545 C   0  0  0  0  0  0  0  0  0  0  0  0 
    6.2064   -3.6859   -0.2480 C   0  0  0  0  0  0  0  0  0  0  0  0 
    5.1504   -4.4527    0.3908 C   0  0  0  0  0  0  0  0  0  0  0  0 
    5.6363   -6.4206   -0.7224 C   0  0  0  0  0  0  0  0  0  0  0  0 
    5.5083   -7.6517   -1.0472 N   0  0  0  0  0  0  0  0  0  0  0  0 
    6.6750   -5.7076   -1.3674 N   0  0  0  0  0  0  0  0  0  0  0  0 
    4.8785   -5.7056    0.1858 N   0  0  0  0  0  0  0  0  0  0  0  0 
    4.3448   -3.8443    1.2976 O   0  0  0  0  0  0  0  0  0  0  0  0 
    4.7981    2.1758   -0.7922 H   0  0  0  0  0  0  0  0  0  0  0  0 
    3.5900    0.8819   -0.8095 H   0  0  0  0  0  0  0  0  0  0  0  0 
    4.7359    1.0392   -2.1483 H   0  0  0  0  0  0  0  0  0  0  0  0 
    3.6715  -10.4494   -0.4327 H   0  0  0  0  0  0  0  0  0  0  0  0 
    5.4252  -10.3357   -0.7028 H   0  0  0  0  0  0  0  0  0  0  0  0 
    4.3043   -9.8827   -1.9948 H   0  0  0  0  0  0  0  0  0  0  0  0 
    8.4788   -2.9133   -1.5902 H   0  0  0  0  0  0  0  0  0  0  0  0 
    7.7501   -3.6649   -3.0157 H   0  0  0  0  0  0  0  0  0  0  0  0 
    8.9118   -4.5696   -2.0354 H   0  0  0  0  0  0  0  0  0  0  0  0 
    5.5010    0.3369    0.7545 H   0  0  0  0  0  0  0  0  0  0  0  0 
    6.6404    0.4961   -0.5714 H   0  0  0  0  0  0  0  0  0  0  0  0 
    4.5773   -8.4094    0.6957 H   0  0  0  0  0  0  0  0  0  0  0  0 
    3.4670   -7.9619   -0.5836 H   0  0  0  0  0  0  0  0  0  0  0  0 
    5.5283   -1.4222   -1.7655 H   0  0  0  0  0  0  0  0  0  0  0  0 
    4.3805   -1.5786   -0.4529 H   0  0  0  0  0  0  0  0  0  0  0  0 
    6.3329   -2.0358    1.1346 H   0  0  0  0  0  0  0  0  0  0  0  0 
    7.4226   -1.9118   -0.2044 H   0  0  0  0  0  0  0  0  0  0  0  0 
    7.2164   -6.2577   -2.0228 H   0  0  0  0  0  0  0  0  0  0  0  0 
    4.6159   -2.9208    1.4072 H   0  0  0  0  0  0  0  0  0  0  0  0 
  1 17  1  0  0  0  0 
  1 16  1  0  0  0  0 
  1  4  1  0  0  0  0 
  2 20  1  0  0  0  0 
  2 19  1  0  0  0  0 
  2  5  1  0  0  0  0 
  3 22  1  0  0  0  0 
  3  8  1  0  0  0  0 
  4 25  1  0  0  0  0 
  5 27  1  0  0  0  0 
  6 30  1  0  0  0  0 
  6  4  1  0  0  0  0 
  6  7  1  0  0  0  0 
  7 31  1  0  0  0  0 
  8  9  2  0  0  0  0 
  9  7  1  0  0  0  0 
  9 10  1  0  0  0  0 
 10 15  1  0  0  0  0 
 11 14  2  0  0  0  0 
 12 11  1  0  0  0  0 
 12  5  1  0  0  0  0 
 13  8  1  0  0  0  0 
 13 11  1  0  0  0  0 
 14 10  2  0  0  0  0 
 15 34  1  0  0  0  0 
 18  1  1  0  0  0  0 
 21  2  1  0  0  0  0 
 23  3  1  0  0  0  0 
 24  3  1  0  0  0  0 
 26  4  1  0  0  0  0 
 28  5  1  0  0  0  0 
 29  6  1  0  0  0  0 
 32  7  1  0  0  0  0 
 33 13  1  0  0  0  0 
M  RAD  1  12   2 
M  END 
>  <HBA> 
3 
 
>  <HBD> 
2 
 
>  <TPSA> 
57.78 
 
>  <cid> 
32152 
 
>  <dipole> 
6.7 
 
>  <excitation_energy_1> 
3.533 
 
>  <excitation_energy_2> 
4.349 
 
>  <excitation_energy_3> 
4.612 
 
>  <excitation_energy_4> 
4.719 
 
>  <homo_energy> 
-5.105 
 
>  <homo_lumo_gap> 
4.324 
 
>  <logP> 
1.926 
 
>  <lumo_energy> 
-0.781 
 
>  <melting_point> 
143.11 
 
>  <molecular_refractivity> 
63.32 
 
>  <oscillator_strength_1> 
0.0263 
 
>  <oscillator_strength_2> 
0.0101 
 
>  <oscillator_strength_3> 
0.0003 
 
>  <oscillator_strength_4> 
0.0151 
 
>  <open_babel_can_smiles> 
CCCCC1=C(C)NC(=[N]=C1O)[N]CC 
 
>  <mulliken_charges> 
34 
1   -0.442903 
2   -0.434293 
3   -0.540249 
4   -0.246995 
5   -0.110623 
6   -0.247473 
7   -0.410445 
8   0.366075 
9   0.033952 
10   0.472526 
11   0.667902 
12   -0.535921 
13   -0.68017 
14   -0.535358 
15   -0.593023 
16   0.147612 
17   0.147481 
18   0.14546 
19   0.125408 
20   0.139407 
21   0.139345 
22   0.179762 
23   0.188098 
24   0.174215 
25   0.130802 
26   0.133657 
27   0.1327 
28   0.132581 
29   0.140026 
30   0.137035 
31   0.13744 
32   0.152467 
33   0.335619 
34   0.417885 
 
>  <lowdin_charges> 
34 
1   -0.439262 
2   -0.44637 
3   -0.44863 
4   -0.270508 
5   -0.18919 
6   -0.278432 
7   -0.277999 
8   0.089644 
9   -0.140246 
10   0.156253 
11   0.109097 
12   -0.277444 
13   -0.203497 
14   -0.211086 
15   -0.343085 
16   0.151354 
17   0.148392 
18   0.146714 
19   0.14243 
20   0.146263 
21   0.144504 
22   0.17178 
23   0.175294 
24   0.169448 
25   0.13672 
26   0.13911 
27   0.133678 
28   0.135419 
29   0.14326 
30   0.139432 
31   0.138289 
32   0.154197 
33   0.298214 
34   0.356255 
 
$$$$ 
 
