PCCDB-ID:  68487 
public computational chemistry database (PCCDB) project, http://pccdb.org 
 
 20 21  0  0  0  0  0  0  0  0999 V2000 
   -0.7639    1.1819    0.1857 C   0  0  0  0  0  0  0  0  0  0  0  0 
   -1.3071   -4.9246    0.1320 C   0  0  0  0  0  0  0  0  0  0  0  0 
   -1.4055   -0.0487    0.0785 C   0  0  0  0  0  0  0  0  0  0  0  0 
   -0.6759   -3.6938    0.2880 C   0  0  0  0  0  0  0  0  0  0  0  0 
    0.6274    1.2213    0.0867 C   0  0  0  0  0  0  0  0  0  0  0  0 
   -2.5163   -4.9724   -0.5628 C   0  0  0  0  0  0  0  0  0  0  0  0 
    0.7500   -1.0385   -0.2278 C   0  0  0  0  0  0  0  0  0  0  0  0 
   -2.4769   -2.7208   -0.9488 C   0  0  0  0  0  0  0  0  0  0  0  0 
   -0.6427   -1.2068   -0.1329 C   0  0  0  0  0  0  0  0  0  0  0  0 
   -1.2639   -2.5442   -0.2600 C   0  0  0  0  0  0  0  0  0  0  0  0 
    1.3806    0.1334   -0.1181 N   0  0  0  0  0  0  0  0  0  0  0  0 
   -3.0988   -3.8928   -1.0995 N   0  0  0  0  0  0  0  0  0  0  0  0 
   -1.3293    2.0936    0.3546 H   0  0  0  0  0  0  0  0  0  0  0  0 
   -0.8769   -5.8299    0.5499 H   0  0  0  0  0  0  0  0  0  0  0  0 
   -2.4851   -0.1177    0.1797 H   0  0  0  0  0  0  0  0  0  0  0  0 
    0.2520   -3.6178    0.8482 H   0  0  0  0  0  0  0  0  0  0  0  0 
    1.1626    2.1649    0.1770 H   0  0  0  0  0  0  0  0  0  0  0  0 
   -3.0426   -5.9162   -0.6941 H   0  0  0  0  0  0  0  0  0  0  0  0 
    1.3852   -1.9017   -0.4222 H   0  0  0  0  0  0  0  0  0  0  0  0 
   -2.9588   -1.8648   -1.4193 H   0  0  0  0  0  0  0  0  0  0  0  0 
  1 13  1  0  0  0  0 
  2  4  1  0  0  0  0 
  2 14  1  0  0  0  0 
  3 15  1  0  0  0  0 
  3  1  2  0  0  0  0 
  4 16  1  0  0  0  0 
  5 17  1  0  0  0  0 
  5  1  1  0  0  0  0 
  6  2  2  0  0  0  0 
  7  9  2  0  0  0  0 
  7 11  1  0  0  0  0 
  8 10  1  0  0  0  0 
  9  3  1  0  0  0  0 
 10  9  1  0  0  0  0 
 10  4  2  0  0  0  0 
 11  5  2  0  0  0  0 
 12  8  2  0  0  0  0 
 12  6  1  0  0  0  0 
 18  6  1  0  0  0  0 
 19  7  1  0  0  0  0 
 20  8  1  0  0  0  0 
M  END 
>  <HBA> 
2 
 
>  <HBD> 
0 
 
>  <TPSA> 
25.78 
 
>  <cid> 
68487 
 
>  <dipole> 
1.29 
 
>  <excitation_energy_1> 
4.521 
 
>  <excitation_energy_2> 
4.724 
 
>  <excitation_energy_3> 
4.846 
 
>  <excitation_energy_4> 
4.859 
 
>  <homo_energy> 
-6.631 
 
>  <homo_lumo_gap> 
5.372 
 
>  <logP> 
2.144 
 
>  <lumo_energy> 
-1.26 
 
>  <melting_point> 
71.6 
 
>  <molecular_refractivity> 
47.47 
 
>  <oscillator_strength_1> 
0.0017 
 
>  <oscillator_strength_2> 
0.1352 
 
>  <oscillator_strength_3> 
0.001 
 
>  <oscillator_strength_4> 
0.1099 
 
>  <open_babel_can_smiles> 
c1ccc(cn1)c1cccnc1 
 
>  <mulliken_charges> 
20 
1   -0.144685 
2   -0.144535 
3   -0.138155 
4   -0.138204 
5   0.042544 
6   0.04246 
7   0.00096 
8   0.00079 
9   0.064769 
10   0.064939 
11   -0.409879 
12   -0.409874 
13   0.142642 
14   0.142616 
15   0.151042 
16   0.151032 
17   0.14568 
18   0.145692 
19   0.145057 
20   0.145108 
 
>  <lowdin_charges> 
20 
1   -0.172082 
2   -0.172242 
3   -0.130157 
4   -0.131405 
5   -0.087518 
6   -0.087787 
7   -0.095095 
8   -0.095219 
9   -0.021505 
10   -0.021931 
11   -0.143757 
12   -0.143218 
13   0.167191 
14   0.167268 
15   0.164881 
16   0.166572 
17   0.15903 
18   0.158916 
19   0.159016 
20   0.159041 
 
$$$$ 
 
