PCCDB-ID:  41562 
public computational chemistry database (PCCDB) project, http://pccdb.org 
 
 27 26  0  0  0  0  0  0  0  0999 V2000 
    3.6018    2.2518   -2.7227 C   0  0  0  0  0  0  0  0  0  0  0  0 
    3.5350    1.0223   -1.8108 C   0  0  0  0  0  0  0  0  0  0  0  0 
    4.1621   -0.2257   -2.4445 C   0  0  0  0  0  0  0  0  0  0  0  0 
    5.3064   -4.8543   -2.2865 C   0  0  0  0  0  0  0  0  0  0  0  0 
    4.5578   -5.1120   -3.5976 C   0  0  0  0  0  0  0  0  0  0  0  0 
    4.0975   -1.4487   -1.5382 C   0  0  0  0  0  0  0  0  0  0  0  0 
    4.6800   -3.7446   -1.4481 C   0  0  0  0  0  0  0  0  0  0  0  0 
    3.2073   -5.7911   -3.4016 C   0  0  0  0  0  0  0  0  0  0  0  0 
    2.7992   -6.2363   -2.3578 O   0  0  0  0  0  0  0  0  0  0  0  0 
    2.4451   -5.8988   -4.5263 O   0  0  0  0  0  0  0  0  0  0  0  0 
    4.6994   -2.5448   -2.2067 O   0  0  0  0  0  0  0  0  0  0  0  0 
    4.6399    2.5069   -2.9680 H   0  0  0  0  0  0  0  0  0  0  0  0 
    3.1470    3.1270   -2.2454 H   0  0  0  0  0  0  0  0  0  0  0  0 
    3.0727    2.0735   -3.6667 H   0  0  0  0  0  0  0  0  0  0  0  0 
    2.4865    0.8146   -1.5546 H   0  0  0  0  0  0  0  0  0  0  0  0 
    4.0423    1.2443   -0.8612 H   0  0  0  0  0  0  0  0  0  0  0  0 
    5.2133   -0.0318   -2.6962 H   0  0  0  0  0  0  0  0  0  0  0  0 
    3.6531   -0.4627   -3.3885 H   0  0  0  0  0  0  0  0  0  0  0  0 
    6.3404   -4.5756   -2.5207 H   0  0  0  0  0  0  0  0  0  0  0  0 
    5.3335   -5.7731   -1.6914 H   0  0  0  0  0  0  0  0  0  0  0  0 
    5.1554   -5.7549   -4.2600 H   0  0  0  0  0  0  0  0  0  0  0  0 
    4.4114   -4.1628   -4.1288 H   0  0  0  0  0  0  0  0  0  0  0  0 
    3.0499   -1.6872   -1.2846 H   0  0  0  0  0  0  0  0  0  0  0  0 
    4.6224   -1.2509   -0.5871 H   0  0  0  0  0  0  0  0  0  0  0  0 
    5.2499   -3.6143   -0.5128 H   0  0  0  0  0  0  0  0  0  0  0  0 
    3.6480   -4.0103   -1.1734 H   0  0  0  0  0  0  0  0  0  0  0  0 
    2.9035   -5.4835   -5.2757 H   0  0  0  0  0  0  0  0  0  0  0  0 
  1 13  1  0  0  0  0 
  1  2  1  0  0  0  0 
  2 15  1  0  0  0  0 
  2 16  1  0  0  0  0 
  3  2  1  0  0  0  0 
  3  6  1  0  0  0  0 
  4 20  1  0  0  0  0 
  4  7  1  0  0  0  0 
  5  8  1  0  0  0  0 
  5  4  1  0  0  0  0 
  6 23  1  0  0  0  0 
  6 24  1  0  0  0  0 
  7 26  1  0  0  0  0 
  7 25  1  0  0  0  0 
  8  9  2  0  0  0  0 
 10  8  1  0  0  0  0 
 11  6  1  0  0  0  0 
 11  7  1  0  0  0  0 
 12  1  1  0  0  0  0 
 14  1  1  0  0  0  0 
 17  3  1  0  0  0  0 
 18  3  1  0  0  0  0 
 19  4  1  0  0  0  0 
 21  5  1  0  0  0  0 
 22  5  1  0  0  0  0 
 27 10  1  0  0  0  0 
M  END 
>  <HBA> 
3 
 
>  <HBD> 
1 
 
>  <TPSA> 
46.53 
 
>  <cid> 
41562 
 
>  <dipole> 
3.34 
 
>  <excitation_energy_1> 
5.727 
 
>  <excitation_energy_2> 
6.14 
 
>  <excitation_energy_3> 
6.332 
 
>  <excitation_energy_4> 
6.499 
 
>  <homo_energy> 
-6.895 
 
>  <homo_lumo_gap> 
7.23 
 
>  <logP> 
1.668 
 
>  <lumo_energy> 
0.335 
 
>  <melting_point> 
40.32 
 
>  <molecular_refractivity> 
43.43 
 
>  <oscillator_strength_1> 
0.0007 
 
>  <oscillator_strength_2> 
0.0029 
 
>  <oscillator_strength_3> 
0.0001 
 
>  <oscillator_strength_4> 
0.0094 
 
>  <open_babel_can_smiles> 
CCCCOCCCC(=O)O 
 
>  <mulliken_charges> 
27 
1   -0.440112 
2   -0.256741 
3   -0.26507 
4   -0.268827 
5   -0.406472 
6   -0.00192 
7   -0.021125 
8   0.606529 
9   -0.44315 
10   -0.567466 
11   -0.489301 
12   0.143625 
13   0.144203 
14   0.143246 
15   0.134707 
16   0.133805 
17   0.141895 
18   0.137783 
19   0.145496 
20   0.162086 
21   0.169016 
22   0.182449 
23   0.119967 
24   0.116254 
25   0.121382 
26   0.148873 
27   0.408869 
 
>  <lowdin_charges> 
27 
1   -0.442382 
2   -0.27088 
3   -0.279382 
4   -0.276123 
5   -0.329263 
6   -0.126679 
7   -0.130721 
8   0.197338 
9   -0.243439 
10   -0.360743 
11   -0.282822 
12   0.146553 
13   0.151208 
14   0.147301 
15   0.139459 
16   0.140181 
17   0.145249 
18   0.14452 
19   0.152061 
20   0.163577 
21   0.168188 
22   0.169838 
23   0.124665 
24   0.124258 
25   0.129878 
26   0.139035 
27   0.359126 
 
$$$$ 
 
