PCCDB-ID:  39218 
public computational chemistry database (PCCDB) project, http://pccdb.org 
 
 31 32  0  0  0  0  0  0  0  0999 V2000 
    1.9826    0.5095    0.3530 C   0  0  0  0  0  0  0  0  0  0  0  0 
    3.2664    0.1952   -0.4357 C   0  0  0  0  0  0  0  0  0  0  0  0 
    6.9497   -5.8179   -1.5376 C   0  0  0  0  0  0  0  0  0  0  0  0 
    6.7697   -4.9829   -2.6439 C   0  0  0  0  0  0  0  0  0  0  0  0 
    5.8469   -6.1820   -0.7659 C   0  0  0  0  0  0  0  0  0  0  0  0 
    2.3412   -0.8872   -3.9789 C   0  0  0  0  0  0  0  0  0  0  0  0 
    5.4978   -4.5176   -2.9723 C   0  0  0  0  0  0  0  0  0  0  0  0 
    4.5733   -5.7144   -1.0999 C   0  0  0  0  0  0  0  0  0  0  0  0 
    2.6126   -0.0883   -2.8707 C   0  0  0  0  0  0  0  0  0  0  0  0 
    2.4636   -2.2760   -3.8905 C   0  0  0  0  0  0  0  0  0  0  0  0 
    3.1311   -2.0573   -1.5885 C   0  0  0  0  0  0  0  0  0  0  0  0 
    2.9895   -4.3890   -2.5809 C   0  0  0  0  0  0  0  0  0  0  0  0 
    3.0110   -0.6659   -1.6557 C   0  0  0  0  0  0  0  0  0  0  0  0 
    4.3800   -4.8795   -2.2062 C   0  0  0  0  0  0  0  0  0  0  0  0 
    2.8606   -2.8780   -2.6924 C   0  0  0  0  0  0  0  0  0  0  0  0 
    2.2015    1.1336    1.2273 H   0  0  0  0  0  0  0  0  0  0  0  0 
    1.5031   -0.4117    0.7031 H   0  0  0  0  0  0  0  0  0  0  0  0 
    1.2576    1.0426   -0.2724 H   0  0  0  0  0  0  0  0  0  0  0  0 
    3.9815   -0.3094    0.2260 H   0  0  0  0  0  0  0  0  0  0  0  0 
    3.7384    1.1373   -0.7434 H   0  0  0  0  0  0  0  0  0  0  0  0 
    7.9420   -6.1785   -1.2801 H   0  0  0  0  0  0  0  0  0  0  0  0 
    7.6235   -4.6926   -3.2509 H   0  0  0  0  0  0  0  0  0  0  0  0 
    5.9747   -6.8277    0.0993 H   0  0  0  0  0  0  0  0  0  0  0  0 
    2.0382   -0.4294   -4.9172 H   0  0  0  0  0  0  0  0  0  0  0  0 
    5.3667   -3.8601   -3.8284 H   0  0  0  0  0  0  0  0  0  0  0  0 
    3.7174   -6.0043   -0.4940 H   0  0  0  0  0  0  0  0  0  0  0  0 
    2.5206    0.9933   -2.9458 H   0  0  0  0  0  0  0  0  0  0  0  0 
    2.2508   -2.8955   -4.7590 H   0  0  0  0  0  0  0  0  0  0  0  0 
    3.4544   -2.5164   -0.6557 H   0  0  0  0  0  0  0  0  0  0  0  0 
    2.2739   -4.7630   -1.8368 H   0  0  0  0  0  0  0  0  0  0  0  0 
    2.6916   -4.8378   -3.5379 H   0  0  0  0  0  0  0  0  0  0  0  0 
  1 17  1  0  0  0  0 
  1 16  1  0  0  0  0 
  2 19  1  0  0  0  0 
  2  1  1  0  0  0  0 
  3 21  1  0  0  0  0 
  3  5  2  0  0  0  0 
  4  3  1  0  0  0  0 
  5 23  1  0  0  0  0 
  6 10  2  0  0  0  0 
  6  9  1  0  0  0  0 
  7  4  2  0  0  0  0 
  7 14  1  0  0  0  0 
  8  5  1  0  0  0  0 
  8 26  1  0  0  0  0 
  9 13  2  0  0  0  0 
 10 15  1  0  0  0  0 
 11 29  1  0  0  0  0 
 12 14  1  0  0  0  0 
 12 30  1  0  0  0  0 
 13 11  1  0  0  0  0 
 13  2  1  0  0  0  0 
 14  8  2  0  0  0  0 
 15 12  1  0  0  0  0 
 15 11  2  0  0  0  0 
 18  1  1  0  0  0  0 
 20  2  1  0  0  0  0 
 22  4  1  0  0  0  0 
 24  6  1  0  0  0  0 
 25  7  1  0  0  0  0 
 27  9  1  0  0  0  0 
 28 10  1  0  0  0  0 
 31 12  1  0  0  0  0 
M  END 
>  <HBA> 
0 
 
>  <HBD> 
0 
 
>  <TPSA> 
0.0 
 
>  <cid> 
39218 
 
>  <dipole> 
0.27 
 
>  <excitation_energy_1> 
5.124 
 
>  <excitation_energy_2> 
5.253 
 
>  <excitation_energy_3> 
5.455 
 
>  <excitation_energy_4> 
5.563 
 
>  <homo_energy> 
-6.234 
 
>  <homo_lumo_gap> 
6.207 
 
>  <logP> 
3.84 
 
>  <lumo_energy> 
-0.027 
 
>  <melting_point> 
41.72 
 
>  <molecular_refractivity> 
65.67 
 
>  <oscillator_strength_1> 
0.0042 
 
>  <oscillator_strength_2> 
0.006 
 
>  <oscillator_strength_3> 
0.0473 
 
>  <oscillator_strength_4> 
0.0033 
 
>  <open_babel_can_smiles> 
CCc1cccc(c1)Cc1ccccc1 
 
>  <mulliken_charges> 
31 
1   -0.433298 
2   -0.339879 
3   -0.131801 
4   -0.128895 
5   -0.125707 
6   -0.124456 
7   -0.174425 
8   -0.197469 
9   -0.183609 
10   -0.201331 
11   -0.234177 
12   -0.44055 
13   0.179878 
14   0.186673 
15   0.189411 
16   0.142827 
17   0.148828 
18   0.148381 
19   0.144297 
20   0.142324 
21   0.12685 
22   0.128164 
23   0.126972 
24   0.125973 
25   0.131211 
26   0.121135 
27   0.119696 
28   0.119938 
29   0.122479 
30   0.154578 
31   0.155984 
 
>  <lowdin_charges> 
31 
1   -0.442426 
2   -0.272335 
3   -0.16128 
4   -0.155485 
5   -0.155468 
6   -0.154899 
7   -0.159941 
8   -0.173639 
9   -0.168909 
10   -0.178948 
11   -0.172234 
12   -0.272234 
13   0.00251 
14   -0.001332 
15   -0.000129 
16   0.149365 
17   0.150796 
18   0.151261 
19   0.150671 
20   0.148723 
21   0.155964 
22   0.157605 
23   0.156515 
24   0.156285 
25   0.159249 
26   0.15391 
27   0.151193 
28   0.153638 
29   0.155198 
30   0.158398 
31   0.15798 
 
$$$$ 
 
