PCCDB-ID:  30181 
public computational chemistry database (PCCDB) project, http://pccdb.org 
 
 25 25  0  0  1  0  0  0  0  0999 V2000 
    1.0220   -0.2396   -0.5412 C   0  0  0  0  0  0  0  0  0  0  0  0 
    3.2598    2.4187    2.8506 C   0  0  0  0  0  0  0  0  0  0  0  0 
    0.9786    1.4023    2.5599 C   0  0  0  0  0  0  0  0  0  0  0  0 
    2.9650   -1.3586    0.6949 C   0  0  0  0  0  0  0  0  0  0  0  0 
    2.9922   -0.0983    2.9056 C   0  0  0  0  0  0  0  0  0  0  0  0 
    2.4864   -0.0993   -0.0692 C   0  0  2  0  0  0  0  0  0  0  0  0 
    2.5272   -1.3325    2.1501 C   0  0  0  0  0  0  0  0  0  0  0  0 
    2.6712    1.2082    0.7238 C   0  0  0  0  0  0  0  0  0  0  0  0 
    2.4903    1.2252    2.2618 C   0  0  0  0  0  0  0  0  0  0  0  0 
    1.8598   -2.2116    2.6604 O   0  0  0  0  0  0  0  0  0  0  0  0 
    2.9034    2.2384    0.1185 O   0  0  0  0  0  0  0  0  0  0  0  0 
    0.9480   -1.0559   -1.2681 H   0  0  0  0  0  0  0  0  0  0  0  0 
    0.6831    0.6816   -1.0254 H   0  0  0  0  0  0  0  0  0  0  0  0 
    0.3410   -0.4712    0.2836 H   0  0  0  0  0  0  0  0  0  0  0  0 
    3.1365    2.4438    3.9394 H   0  0  0  0  0  0  0  0  0  0  0  0 
    2.8943    3.3598    2.4329 H   0  0  0  0  0  0  0  0  0  0  0  0 
    4.3301    2.3501    2.6274 H   0  0  0  0  0  0  0  0  0  0  0  0 
    0.8387    1.5533    3.6365 H   0  0  0  0  0  0  0  0  0  0  0  0 
    0.3873    0.5276    2.2728 H   0  0  0  0  0  0  0  0  0  0  0  0 
    0.5808    2.2782    2.0372 H   0  0  0  0  0  0  0  0  0  0  0  0 
    4.0638   -1.3929    0.6792 H   0  0  0  0  0  0  0  0  0  0  0  0 
    2.5939   -2.2719    0.2204 H   0  0  0  0  0  0  0  0  0  0  0  0 
    4.0923   -0.0980    2.9075 H   0  0  0  0  0  0  0  0  0  0  0  0 
    2.6568   -0.1668    3.9452 H   0  0  0  0  0  0  0  0  0  0  0  0 
    3.1021    0.0332   -0.9655 H   0  0  0  0  0  0  0  0  0  0  0  0 
  1  6  1  0  0  0  0 
  1 14  1  0  0  0  0 
  2 15  1  0  0  0  0 
  3 18  1  0  0  0  0 
  4  7  1  0  0  0  0 
  5 23  1  0  0  0  0 
  5 24  1  0  0  0  0 
  6 25  1  6  0  0  0 
  6  4  1  0  0  0  0 
  6  8  1  0  0  0  0 
  7 10  2  0  0  0  0 
  7  5  1  0  0  0  0 
  8  9  1  0  0  0  0 
  9  3  1  0  0  0  0 
  9  2  1  0  0  0  0 
  9  5  1  0  0  0  0 
 11  8  2  0  0  0  0 
 12  1  1  0  0  0  0 
 13  1  1  0  0  0  0 
 16  2  1  0  0  0  0 
 17  2  1  0  0  0  0 
 19  3  1  0  0  0  0 
 20  3  1  0  0  0  0 
 21  4  1  0  0  0  0 
 22  4  1  0  0  0  0 
M  END 
>  <HBA> 
2 
 
>  <HBD> 
0 
 
>  <TPSA> 
34.14 
 
>  <cid> 
30181 
 
>  <dipole> 
0.6 
 
>  <excitation_energy_1> 
4.046 
 
>  <excitation_energy_2> 
4.145 
 
>  <excitation_energy_3> 
5.091 
 
>  <excitation_energy_4> 
5.153 
 
>  <homo_energy> 
-6.629 
 
>  <homo_lumo_gap> 
5.671 
 
>  <logP> 
1.581 
 
>  <lumo_energy> 
-0.958 
 
>  <melting_point> 
55.49 
 
>  <molecular_refractivity> 
43.4 
 
>  <oscillator_strength_1> 
0.0005 
 
>  <oscillator_strength_2> 
0.0001 
 
>  <oscillator_strength_3> 
0.0006 
 
>  <oscillator_strength_4> 
0.0003 
 
>  <open_babel_can_smiles> 
O=C1C[C@@H](C)C(=O)C(C1)(C)C 
 
>  <mulliken_charges> 
25 
1   -0.461983 
2   -0.440272 
3   -0.462568 
4   -0.354512 
5   -0.351536 
6   -0.168396 
7   0.444311 
8   0.446666 
9   -0.006251 
10   -0.44317 
11   -0.452649 
12   0.159889 
13   0.169855 
14   0.163549 
15   0.14064 
16   0.17049 
17   0.146305 
18   0.158483 
19   0.163202 
20   0.164739 
21   0.160886 
22   0.166731 
23   0.156244 
24   0.164787 
25   0.164561 
 
>  <lowdin_charges> 
25 
1   -0.441932 
2   -0.43376 
3   -0.439806 
4   -0.307307 
5   -0.302913 
6   -0.150139 
7   0.154607 
8   0.160015 
9   -0.015616 
10   -0.228114 
11   -0.230977 
12   0.159374 
13   0.163657 
14   0.156072 
15   0.147924 
16   0.165359 
17   0.150757 
18   0.157053 
19   0.156913 
20   0.161481 
21   0.161976 
22   0.166215 
23   0.15963 
24   0.163912 
25   0.165618 
 
$$$$ 
 
