PCCDB-ID:  17901 
public computational chemistry database (PCCDB) project, http://pccdb.org 
 
 42 42  0  0  1  0  0  0  0  0999 V2000 
    4.0686   -0.5474   -2.6089 C   0  0  0  0  0  0  0  0  0  0  0  0 
    7.9508    4.8926    1.9715 C   0  0  0  0  0  0  0  0  0  0  0  0 
    4.1972   -0.1058   -1.1474 C   0  0  0  0  0  0  0  0  0  0  0  0 
    5.3919    0.8239   -0.8983 C   0  0  0  0  0  0  0  0  0  0  0  0 
    5.5304    1.2699    0.5629 C   0  0  0  0  0  0  0  0  0  0  0  0 
   11.2420    2.9537    4.7833 C   0  0  0  0  0  0  0  0  0  0  0  0 
    6.7289    2.1962    0.8109 C   0  0  0  0  0  0  0  0  0  0  0  0 
   10.8156    4.3106    4.2027 C   0  0  0  0  0  0  0  0  0  0  0  0 
   10.2595    1.8429    4.3839 C   0  0  0  0  0  0  0  0  0  0  0  0 
    6.8642    2.6271    2.2793 C   0  0  0  0  0  0  0  0  0  0  0  0 
    9.3643    4.6437    4.5868 C   0  0  0  0  0  0  0  0  0  0  0  0 
    8.8087    2.2090    4.7439 C   0  0  0  0  0  0  0  0  0  0  0  0 
    8.1043    3.4958    2.5990 C   0  0  2  0  0  0  0  0  0  0  0  0 
    8.3521    3.5614    4.1389 C   0  0  0  0  0  0  0  0  0  0  0  0 
    3.2067   -1.2088   -2.7538 H   0  0  0  0  0  0  0  0  0  0  0  0 
    4.9635   -1.0892   -2.9395 H   0  0  0  0  0  0  0  0  0  0  0  0 
    3.9414    0.3157   -3.2740 H   0  0  0  0  0  0  0  0  0  0  0  0 
    7.6788    4.8231    0.9133 H   0  0  0  0  0  0  0  0  0  0  0  0 
    8.8752    5.4752    2.0277 H   0  0  0  0  0  0  0  0  0  0  0  0 
    7.1623    5.4654    2.4780 H   0  0  0  0  0  0  0  0  0  0  0  0 
    4.2885   -0.9927   -0.5041 H   0  0  0  0  0  0  0  0  0  0  0  0 
    3.2729    0.4009   -0.8354 H   0  0  0  0  0  0  0  0  0  0  0  0 
    5.3001    1.7111   -1.5428 H   0  0  0  0  0  0  0  0  0  0  0  0 
    6.3164    0.3166   -1.2128 H   0  0  0  0  0  0  0  0  0  0  0  0 
    5.6185    0.3814    1.2059 H   0  0  0  0  0  0  0  0  0  0  0  0 
    4.6066    1.7791    0.8761 H   0  0  0  0  0  0  0  0  0  0  0  0 
   11.2714    3.0297    5.8808 H   0  0  0  0  0  0  0  0  0  0  0  0 
   12.2600    2.6987    4.4613 H   0  0  0  0  0  0  0  0  0  0  0  0 
    6.6367    3.0760    0.1597 H   0  0  0  0  0  0  0  0  0  0  0  0 
    7.6517    1.6835    0.5000 H   0  0  0  0  0  0  0  0  0  0  0  0 
   10.9198    4.2896    3.1084 H   0  0  0  0  0  0  0  0  0  0  0  0 
   11.4858    5.1030    4.5606 H   0  0  0  0  0  0  0  0  0  0  0  0 
   10.5337    0.8996    4.8739 H   0  0  0  0  0  0  0  0  0  0  0  0 
   10.3399    1.6593    3.3032 H   0  0  0  0  0  0  0  0  0  0  0  0 
    6.8804    1.7184    2.8933 H   0  0  0  0  0  0  0  0  0  0  0  0 
    5.9606    3.1779    2.5839 H   0  0  0  0  0  0  0  0  0  0  0  0 
    9.0822    5.6294    4.2022 H   0  0  0  0  0  0  0  0  0  0  0  0 
    9.3079    4.7212    5.6828 H   0  0  0  0  0  0  0  0  0  0  0  0 
    8.7287    2.2827    5.8384 H   0  0  0  0  0  0  0  0  0  0  0  0 
    8.1378    1.3943    4.4485 H   0  0  0  0  0  0  0  0  0  0  0  0 
    8.9734    3.0155    2.1259 H   0  0  0  0  0  0  0  0  0  0  0  0 
    7.3826    3.8203    4.5932 H   0  0  0  0  0  0  0  0  0  0  0  0 
  1  3  1  0  0  0  0 
  2 19  1  0  0  0  0 
  2 20  1  0  0  0  0 
  2 13  1  0  0  0  0 
  3  4  1  0  0  0  0 
  3 22  1  0  0  0  0 
  3 21  1  0  0  0  0 
  4  5  1  0  0  0  0 
  5  7  1  0  0  0  0 
  5 26  1  0  0  0  0 
  5 25  1  0  0  0  0 
  6 27  1  0  0  0  0 
  7 10  1  0  0  0  0 
  8 32  1  0  0  0  0 
  8 11  1  0  0  0  0 
  8  6  1  0  0  0  0 
  9 12  1  0  0  0  0 
  9  6  1  0  0  0  0 
  9 33  1  0  0  0  0 
 10 36  1  0  0  0  0 
 10 13  1  0  0  0  0 
 10 35  1  0  0  0  0 
 11 38  1  0  0  0  0 
 12 39  1  0  0  0  0 
 13 41  1  6  0  0  0 
 13 14  1  0  0  0  0 
 14 11  1  0  0  0  0 
 14 42  1  0  0  0  0 
 14 12  1  0  0  0  0 
 15  1  1  0  0  0  0 
 16  1  1  0  0  0  0 
 17  1  1  0  0  0  0 
 18  2  1  0  0  0  0 
 23  4  1  0  0  0  0 
 24  4  1  0  0  0  0 
 28  6  1  0  0  0  0 
 29  7  1  0  0  0  0 
 30  7  1  0  0  0  0 
 31  8  1  0  0  0  0 
 34  9  1  0  0  0  0 
 37 11  1  0  0  0  0 
 40 12  1  0  0  0  0 
M  END 
>  <HBA> 
0 
 
>  <HBD> 
0 
 
>  <TPSA> 
0.0 
 
>  <cid> 
17901 
 
>  <dipole> 
0.05 
 
>  <excitation_energy_1> 
7.088 
 
>  <excitation_energy_2> 
7.241 
 
>  <excitation_energy_3> 
7.323 
 
>  <excitation_energy_4> 
7.344 
 
>  <homo_energy> 
-7.606 
 
>  <homo_lumo_gap> 
9.742 
 
>  <logP> 
5.173 
 
>  <lumo_energy> 
2.136 
 
>  <melting_point> 
-9.3 
 
>  <molecular_refractivity> 
67.3 
 
>  <oscillator_strength_1> 
0.002 
 
>  <oscillator_strength_2> 
0.0016 
 
>  <oscillator_strength_3> 
0.0007 
 
>  <oscillator_strength_4> 
0.0047 
 
>  <open_babel_can_smiles> 
CCCCCC[C@H](C1CCCCC1)C 
 
>  <mulliken_charges> 
42 
1   -0.441214 
2   -0.46427 
3   -0.246533 
4   -0.245537 
5   -0.253017 
6   -0.253849 
7   -0.259667 
8   -0.260146 
9   -0.259716 
10   -0.265067 
11   -0.273526 
12   -0.273636 
13   -0.068589 
14   -0.074305 
15   0.140916 
16   0.140787 
17   0.1408 
18   0.143484 
19   0.146645 
20   0.13792 
21   0.129558 
22   0.129605 
23   0.125781 
24   0.12575 
25   0.126032 
26   0.126802 
27   0.125384 
28   0.127146 
29   0.131138 
30   0.12578 
31   0.131262 
32   0.128063 
33   0.128098 
34   0.131154 
35   0.131436 
36   0.123574 
37   0.132845 
38   0.123332 
39   0.125232 
40   0.13168 
41   0.118576 
42   0.110294 
 
>  <lowdin_charges> 
42 
1   -0.446048 
2   -0.448685 
3   -0.272731 
4   -0.275247 
5   -0.274623 
6   -0.274326 
7   -0.276601 
8   -0.279346 
9   -0.278374 
10   -0.278202 
11   -0.279745 
12   -0.280858 
13   -0.12933 
14   -0.129892 
15   0.149237 
16   0.146444 
17   0.146418 
18   0.147389 
19   0.149516 
20   0.145708 
21   0.13877 
22   0.138733 
23   0.137132 
24   0.137123 
25   0.136969 
26   0.137692 
27   0.133876 
28   0.140493 
29   0.138458 
30   0.136932 
31   0.135491 
32   0.143423 
33   0.142553 
34   0.13542 
35   0.141057 
36   0.136817 
37   0.14365 
38   0.136042 
39   0.136732 
40   0.142492 
41   0.134154 
42   0.135288 
 
$$$$ 
 
