PCCDB-ID:  29906 
public computational chemistry database (PCCDB) project, http://pccdb.org 
 
 23 23  0  0  0  0  0  0  0  0999 V2000 
    5.9494    1.0879   -3.1581 C   0  0  0  0  0  0  0  0  0  0  0  0 
    5.9901    0.0625   -2.0213 C   0  0  0  0  0  0  0  0  0  0  0  0 
    2.5160   -3.8035   -4.1142 C   0  0  0  0  0  0  0  0  0  0  0  0 
    1.5114   -3.6647   -5.1063 C   0  0  0  0  0  0  0  0  0  0  0  0 
    4.6223   -0.2461   -1.4214 C   0  0  0  0  0  0  0  0  0  0  0  0 
    2.7790   -2.5386   -3.6466 C   0  0  0  0  0  0  0  0  0  0  0  0 
    1.2495   -2.3217   -5.1580 C   0  0  0  0  0  0  0  0  0  0  0  0 
    3.7369   -2.1047   -2.6115 C   0  0  0  0  0  0  0  0  0  0  0  0 
    0.3251   -1.5902   -5.9748 N   0  0  0  0  0  0  0  0  0  0  0  0 
    4.4450   -2.9009   -2.0269 O   0  0  0  0  0  0  0  0  0  0  0  0 
   -0.3453   -2.2690   -6.7575 O   0  0  0  0  0  0  0  0  0  0  0  0 
    0.2717   -0.3712   -5.8371 O   0  0  0  0  0  0  0  0  0  0  0  0 
    3.7081   -0.7791   -2.4185 O   0  0  0  0  0  0  0  0  0  0  0  0 
    2.0006   -1.6200   -4.2874 O   0  0  0  0  0  0  0  0  0  0  0  0 
    6.9544    1.2737   -3.5516 H   0  0  0  0  0  0  0  0  0  0  0  0 
    5.5423    2.0465   -2.8140 H   0  0  0  0  0  0  0  0  0  0  0  0 
    5.3223    0.7386   -3.9846 H   0  0  0  0  0  0  0  0  0  0  0  0 
    6.6230    0.4313   -1.2024 H   0  0  0  0  0  0  0  0  0  0  0  0 
    6.4437   -0.8757   -2.3621 H   0  0  0  0  0  0  0  0  0  0  0  0 
    2.9967   -4.7083   -3.7723 H   0  0  0  0  0  0  0  0  0  0  0  0 
    1.0389   -4.4275   -5.7057 H   0  0  0  0  0  0  0  0  0  0  0  0 
    4.1251    0.6616   -1.0701 H   0  0  0  0  0  0  0  0  0  0  0  0 
    4.7007   -0.9647   -0.6025 H   0  0  0  0  0  0  0  0  0  0  0  0 
  1 16  1  0  0  0  0 
  1  2  1  0  0  0  0 
  2  5  1  0  0  0  0 
  2 18  1  0  0  0  0 
  3 20  1  0  0  0  0 
  3  6  2  0  0  0  0 
  4  3  1  0  0  0  0 
  5 22  1  0  0  0  0 
  5 23  1  0  0  0  0 
  6  8  1  0  0  0  0 
  7  4  2  0  0  0  0 
  7 14  1  0  0  0  0 
  8 13  1  0  0  0  0 
  8 10  2  0  0  0  0 
  9 12  2  0  0  0  0 
  9  7  1  0  0  0  0 
 11  9  2  0  0  0  0 
 13  5  1  0  0  0  0 
 14  6  1  0  0  0  0 
 15  1  1  0  0  0  0 
 17  1  1  0  0  0  0 
 19  2  1  0  0  0  0 
 21  4  1  0  0  0  0 
M  END 
>  <HBA> 
3 
 
>  <HBD> 
0 
 
>  <TPSA> 
85.26 
 
>  <cid> 
29906 
 
>  <dipole> 
3.36 
 
>  <excitation_energy_1> 
3.694 
 
>  <excitation_energy_2> 
4.126 
 
>  <excitation_energy_3> 
4.224 
 
>  <excitation_energy_4> 
4.357 
 
>  <homo_energy> 
-7.524 
 
>  <homo_lumo_gap> 
4.607 
 
>  <logP> 
2.278 
 
>  <lumo_energy> 
-2.917 
 
>  <melting_point> 
66.96 
 
>  <molecular_refractivity> 
48.42 
 
>  <oscillator_strength_1> 
0.0 
 
>  <oscillator_strength_2> 
0.0017 
 
>  <oscillator_strength_3> 
0.3824 
 
>  <oscillator_strength_4> 
0.0022 
 
>  <open_babel_can_smiles> 
CCCOC(=O)c1ccc(o1)N(=O)=O 
 
>  <mulliken_charges> 
23 
1   -0.444002 
2   -0.279713 
3   -0.172211 
4   -0.14825 
5   -0.050158 
6   0.305304 
7   0.536698 
8   0.581934 
9   0.334882 
10   -0.485198 
11   -0.394779 
12   -0.378287 
13   -0.461691 
14   -0.434667 
15   0.150974 
16   0.146524 
17   0.161907 
18   0.146257 
19   0.164244 
20   0.189116 
21   0.195222 
22   0.160993 
23   0.174901 
 
>  <lowdin_charges> 
23 
1   -0.447054 
2   -0.284985 
3   -0.155601 
4   -0.155807 
5   -0.129766 
6   0.057461 
7   0.07768 
8   0.188376 
9   0.302642 
10   -0.260688 
11   -0.247413 
12   -0.222518 
13   -0.172478 
14   -0.039633 
15   0.154252 
16   0.149624 
17   0.157242 
18   0.154726 
19   0.157048 
20   0.195382 
21   0.199767 
22   0.158031 
23   0.16371 
 
$$$$ 
 
