PCCDB-ID:  42435 
public computational chemistry database (PCCDB) project, http://pccdb.org 
 
 27 28  0  0  0  0  0  0  0  0999 V2000 
    3.1928    1.5247    0.1021 C   0  0  0  0  0  0  0  0  0  0  0  0 
    8.4065   -5.1723   -2.8479 C   0  0  0  0  0  0  0  0  0  0  0  0 
    5.8849   -5.0007   -1.5572 C   0  0  0  0  0  0  0  0  0  0  0  0 
    4.6456   -4.8545   -0.9266 C   0  0  0  0  0  0  0  0  0  0  0  0 
    4.3158   -1.1449   -0.6937 C   0  0  0  0  0  0  0  0  0  0  0  0 
    6.1061   -2.5975   -1.6783 C   0  0  0  0  0  0  0  0  0  0  0  0 
    2.1803   -2.2824   -0.2403 C   0  0  0  0  0  0  0  0  0  0  0  0 
    2.3894    0.2330    0.1269 C   0  0  0  0  0  0  0  0  0  0  0  0 
    4.8653   -2.4402   -1.0518 C   0  0  0  0  0  0  0  0  0  0  0  0 
    3.0397   -1.0381   -0.2627 C   0  0  0  0  0  0  0  0  0  0  0  0 
    6.6184   -3.8704   -1.9439 C   0  0  0  0  0  0  0  0  0  0  0  0 
    4.1260   -3.5878   -0.6835 C   0  0  0  0  0  0  0  0  0  0  0  0 
    1.2091    0.2356    0.4608 O   0  0  0  0  0  0  0  0  0  0  0  0 
    7.8337   -3.9053   -2.5722 O   0  0  0  0  0  0  0  0  0  0  0  0 
    2.9422   -3.4792   -0.0127 O   0  0  0  0  0  0  0  0  0  0  0  0 
    4.0393    1.4758    0.7971 H   0  0  0  0  0  0  0  0  0  0  0  0 
    2.5361    2.3462    0.3935 H   0  0  0  0  0  0  0  0  0  0  0  0 
    3.5976    1.7239   -0.8969 H   0  0  0  0  0  0  0  0  0  0  0  0 
    9.3604   -4.9697   -3.3384 H   0  0  0  0  0  0  0  0  0  0  0  0 
    7.7731   -5.7660   -3.5210 H   0  0  0  0  0  0  0  0  0  0  0  0 
    8.5875   -5.7443   -1.9277 H   0  0  0  0  0  0  0  0  0  0  0  0 
    6.2632   -5.9992   -1.7437 H   0  0  0  0  0  0  0  0  0  0  0  0 
    4.0740   -5.7248   -0.6207 H   0  0  0  0  0  0  0  0  0  0  0  0 
    4.9658   -0.2763   -0.7635 H   0  0  0  0  0  0  0  0  0  0  0  0 
    6.6910   -1.7286   -1.9664 H   0  0  0  0  0  0  0  0  0  0  0  0 
    1.6252   -2.3843   -1.1874 H   0  0  0  0  0  0  0  0  0  0  0  0 
    1.4497   -2.2323    0.5674 H   0  0  0  0  0  0  0  0  0  0  0  0 
  1  8  1  0  0  0  0 
  1 17  1  0  0  0  0 
  1 16  1  0  0  0  0 
  2 14  1  0  0  0  0 
  2 21  1  0  0  0  0 
  3  4  2  0  0  0  0 
  4 12  1  0  0  0  0 
  4 23  1  0  0  0  0 
  5 10  2  0  0  0  0 
  6  9  1  0  0  0  0 
  7 15  1  0  0  0  0 
  7 27  1  0  0  0  0 
  8 13  2  0  0  0  0 
  9  5  1  0  0  0  0 
  9 12  2  0  0  0  0 
 10  7  1  0  0  0  0 
 10  8  1  0  0  0  0 
 11  6  2  0  0  0  0 
 11  3  1  0  0  0  0 
 12 15  1  0  0  0  0 
 14 11  1  0  0  0  0 
 18  1  1  0  0  0  0 
 19  2  1  0  0  0  0 
 20  2  1  0  0  0  0 
 22  3  1  0  0  0  0 
 24  5  1  0  0  0  0 
 25  6  1  0  0  0  0 
 26  7  1  0  0  0  0 
M  END 
>  <HBA> 
3 
 
>  <HBD> 
0 
 
>  <TPSA> 
35.53 
 
>  <cid> 
42435 
 
>  <dipole> 
4.04 
 
>  <excitation_energy_1> 
2.978 
 
>  <excitation_energy_2> 
3.487 
 
>  <excitation_energy_3> 
4.201 
 
>  <excitation_energy_4> 
4.764 
 
>  <homo_energy> 
-5.513 
 
>  <homo_lumo_gap> 
3.57 
 
>  <logP> 
2.06 
 
>  <lumo_energy> 
-1.943 
 
>  <melting_point> 
85.12 
 
>  <molecular_refractivity> 
57.22 
 
>  <oscillator_strength_1> 
0.0779 
 
>  <oscillator_strength_2> 
0.0021 
 
>  <oscillator_strength_3> 
0.3514 
 
>  <oscillator_strength_4> 
0.1135 
 
>  <open_babel_can_smiles> 
COc1ccc2c(c1)C=C(CO2)C(=O)C 
 
>  <mulliken_charges> 
27 
1   -0.540933 
2   -0.215113 
3   -0.195279 
4   -0.190899 
5   -0.17542 
6   -0.259636 
7   -0.089001 
8   0.422755 
9   0.124628 
10   0.012782 
11   0.381161 
12   0.326156 
13   -0.464951 
14   -0.513945 
15   -0.528953 
16   0.171706 
17   0.182346 
18   0.168459 
19   0.171063 
20   0.15139 
21   0.151506 
22   0.138394 
23   0.145502 
24   0.145269 
25   0.140844 
26   0.153898 
27   0.186271 
 
>  <lowdin_charges> 
27 
1   -0.47448 
2   -0.279501 
3   -0.19264 
4   -0.175153 
5   -0.124495 
6   -0.172963 
7   -0.117777 
8   0.15166 
9   -0.038796 
10   -0.069991 
11   0.089631 
12   0.09613 
13   -0.249876 
14   -0.203989 
15   -0.201831 
16   0.170601 
17   0.176623 
18   0.167889 
19   0.163383 
20   0.145986 
21   0.145072 
22   0.166014 
23   0.171311 
24   0.167185 
25   0.168887 
26   0.14602 
27   0.175101 
 
$$$$ 
 
