PCCDB-ID:  20958 
public computational chemistry database (PCCDB) project, http://pccdb.org 
 
 30 30  0  0  0  0  0  0  0  0999 V2000 
    0.7356   -2.1756   -0.4008 C   0  0  0  0  0  0  0  0  0  0  0  0 
   10.8201   -0.1806    1.3374 C   0  0  0  0  0  0  0  0  0  0  0  0 
    2.2287   -2.2911   -0.0765 C   0  0  0  0  0  0  0  0  0  0  0  0 
    9.3051   -0.2287    1.1182 C   0  0  0  0  0  0  0  0  0  0  0  0 
    3.0716   -1.2646   -0.8416 C   0  0  0  0  0  0  0  0  0  0  0  0 
    8.8895   -1.2225    0.0145 C   0  0  0  0  0  0  0  0  0  0  0  0 
    5.3960   -0.3997   -1.3023 C   0  0  0  0  0  0  0  0  0  0  0  0 
    5.1908   -2.1725    0.2963 C   0  0  0  0  0  0  0  0  0  0  0  0 
    6.7753   -0.3854   -1.1168 C   0  0  0  0  0  0  0  0  0  0  0  0 
    6.5757   -2.1578    0.4818 C   0  0  0  0  0  0  0  0  0  0  0  0 
    4.5726   -1.2925   -0.5985 C   0  0  0  0  0  0  0  0  0  0  0  0 
    7.3944   -1.2653   -0.2168 C   0  0  0  0  0  0  0  0  0  0  0  0 
    0.1485   -2.9131    0.1578 H   0  0  0  0  0  0  0  0  0  0  0  0 
    0.5478   -2.3393   -1.4691 H   0  0  0  0  0  0  0  0  0  0  0  0 
    0.3504   -1.1805   -0.1467 H   0  0  0  0  0  0  0  0  0  0  0  0 
   11.0852    0.5237    2.1341 H   0  0  0  0  0  0  0  0  0  0  0  0 
   11.3434    0.1345    0.4261 H   0  0  0  0  0  0  0  0  0  0  0  0 
   11.2125   -1.1657    1.6189 H   0  0  0  0  0  0  0  0  0  0  0  0 
    2.5767   -3.3051   -0.3152 H   0  0  0  0  0  0  0  0  0  0  0  0 
    2.3777   -2.1597    1.0036 H   0  0  0  0  0  0  0  0  0  0  0  0 
    8.9334    0.7712    0.8575 H   0  0  0  0  0  0  0  0  0  0  0  0 
    8.8013   -0.5056    2.0539 H   0  0  0  0  0  0  0  0  0  0  0  0 
    2.6968   -0.2571   -0.6049 H   0  0  0  0  0  0  0  0  0  0  0  0 
    2.8889   -1.3926   -1.9191 H   0  0  0  0  0  0  0  0  0  0  0  0 
    9.2509   -2.2239    0.2845 H   0  0  0  0  0  0  0  0  0  0  0  0 
    9.4003   -0.9500   -0.9193 H   0  0  0  0  0  0  0  0  0  0  0  0 
    4.9454    0.2915   -2.0125 H   0  0  0  0  0  0  0  0  0  0  0  0 
    4.5944   -2.8858    0.8570 H   0  0  0  0  0  0  0  0  0  0  0  0 
    7.3849    0.3167   -1.6825 H   0  0  0  0  0  0  0  0  0  0  0  0 
    7.0259   -2.8588    1.1823 H   0  0  0  0  0  0  0  0  0  0  0  0 
  1 15  1  0  0  0  0 
  1  3  1  0  0  0  0 
  1 13  1  0  0  0  0 
  2 18  1  0  0  0  0 
  2 16  1  0  0  0  0 
  3 20  1  0  0  0  0 
  4  2  1  0  0  0  0 
  4 22  1  0  0  0  0 
  5 23  1  0  0  0  0 
  5 11  1  0  0  0  0 
  5  3  1  0  0  0  0 
  6 25  1  0  0  0  0 
  6  4  1  0  0  0  0 
  7  9  2  0  0  0  0 
  7 11  1  0  0  0  0 
  8 10  1  0  0  0  0 
  8 28  1  0  0  0  0 
  9 12  1  0  0  0  0 
 10 30  1  0  0  0  0 
 11  8  2  0  0  0  0 
 12  6  1  0  0  0  0 
 12 10  2  0  0  0  0 
 14  1  1  0  0  0  0 
 17  2  1  0  0  0  0 
 19  3  1  0  0  0  0 
 21  4  1  0  0  0  0 
 24  5  1  0  0  0  0 
 26  6  1  0  0  0  0 
 27  7  1  0  0  0  0 
 29  9  1  0  0  0  0 
M  END 
>  <HBA> 
0 
 
>  <HBD> 
0 
 
>  <TPSA> 
0.0 
 
>  <cid> 
20958 
 
>  <dipole> 
0.19 
 
>  <excitation_energy_1> 
5.187 
 
>  <excitation_energy_2> 
5.682 
 
>  <excitation_energy_3> 
5.827 
 
>  <excitation_energy_4> 
6.147 
 
>  <homo_energy> 
-6.104 
 
>  <homo_lumo_gap> 
6.278 
 
>  <logP> 
3.592 
 
>  <lumo_energy> 
0.174 
 
>  <melting_point> 
9.33 
 
>  <molecular_refractivity> 
55.6 
 
>  <oscillator_strength_1> 
0.0045 
 
>  <oscillator_strength_2> 
0.1007 
 
>  <oscillator_strength_3> 
0.0057 
 
>  <oscillator_strength_4> 
0.0001 
 
>  <open_babel_can_smiles> 
CCCc1ccc(cc1)CCC 
 
>  <mulliken_charges> 
30 
1   -0.442486 
2   -0.441267 
3   -0.258923 
4   -0.241675 
5   -0.332568 
6   -0.341918 
7   -0.179463 
8   -0.185026 
9   -0.182641 
10   -0.189155 
11   0.166115 
12   0.176166 
13   0.143732 
14   0.142746 
15   0.142572 
16   0.143951 
17   0.141621 
18   0.141634 
19   0.139722 
20   0.139459 
21   0.137168 
22   0.137285 
23   0.146647 
24   0.145971 
25   0.137086 
26   0.136973 
27   0.116849 
28   0.123288 
29   0.118347 
30   0.117789 
 
>  <lowdin_charges> 
30 
1   -0.442802 
2   -0.44658 
3   -0.271542 
4   -0.269247 
5   -0.27201 
6   -0.272707 
7   -0.166146 
8   -0.173947 
9   -0.167904 
10   -0.168441 
11   -0.006962 
12   -0.005582 
13   0.151889 
14   0.145579 
15   0.146603 
16   0.151461 
17   0.146771 
18   0.146092 
19   0.142031 
20   0.140696 
21   0.142119 
22   0.142942 
23   0.150058 
24   0.14867 
25   0.145442 
26   0.146082 
27   0.153079 
28   0.15777 
29   0.153613 
30   0.152975 
 
$$$$ 
 
