PCCDB-ID:  22059 
public computational chemistry database (PCCDB) project, http://pccdb.org 
 
 25 25  0  0  0  0  0  0  0  0999 V2000 
    1.6752    1.0462   -0.1186 C   0  0  0  0  0  0  0  0  0  0  0  0 
    2.4509   -2.5258   -3.4206 C   0  0  0  0  0  0  0  0  0  0  0  0 
    2.6367   -3.4948   -2.2405 C   0  0  0  0  0  0  0  0  0  0  0  0 
    2.1917   -1.0596   -3.0459 C   0  0  0  0  0  0  0  0  0  0  0  0 
    3.8992   -3.2185   -1.4019 C   0  0  0  0  0  0  0  0  0  0  0  0 
    3.2184   -0.4498   -2.0731 C   0  0  0  0  0  0  0  0  0  0  0  0 
    3.7385   -2.1757   -0.2887 C   0  0  0  0  0  0  0  0  0  0  0  0 
    2.3771   -0.2508    0.2737 C   0  0  0  0  0  0  0  0  0  0  0  0 
    3.0797   -0.9273   -0.6982 N   0  0  0  0  0  0  0  0  0  0  0  0 
    2.3163   -0.6639    1.4289 O   0  0  0  0  0  0  0  0  0  0  0  0 
    1.0569    0.9466   -1.0166 H   0  0  0  0  0  0  0  0  0  0  0  0 
    2.3992    1.8504   -0.2983 H   0  0  0  0  0  0  0  0  0  0  0  0 
    1.0435    1.3344    0.7226 H   0  0  0  0  0  0  0  0  0  0  0  0 
    1.6213   -2.8770   -4.0480 H   0  0  0  0  0  0  0  0  0  0  0  0 
    3.3506   -2.5768   -4.0519 H   0  0  0  0  0  0  0  0  0  0  0  0 
    2.7014   -4.5118   -2.6480 H   0  0  0  0  0  0  0  0  0  0  0  0 
    1.7484   -3.4806   -1.5933 H   0  0  0  0  0  0  0  0  0  0  0  0 
    1.1947   -0.9606   -2.5956 H   0  0  0  0  0  0  0  0  0  0  0  0 
    2.1813   -0.4567   -3.9647 H   0  0  0  0  0  0  0  0  0  0  0  0 
    4.7240   -2.9463   -2.0753 H   0  0  0  0  0  0  0  0  0  0  0  0 
    4.2219   -4.1419   -0.9042 H   0  0  0  0  0  0  0  0  0  0  0  0 
    3.1252    0.6383   -2.0773 H   0  0  0  0  0  0  0  0  0  0  0  0 
    4.2385   -0.6648   -2.4148 H   0  0  0  0  0  0  0  0  0  0  0  0 
    4.7249   -1.9519    0.1447 H   0  0  0  0  0  0  0  0  0  0  0  0 
    3.1329   -2.5853    0.5225 H   0  0  0  0  0  0  0  0  0  0  0  0 
  1  8  1  0  0  0  0 
  1 13  1  0  0  0  0 
  2  4  1  0  0  0  0 
  2  3  1  0  0  0  0 
  3 17  1  0  0  0  0 
  3  5  1  0  0  0  0 
  4 18  1  0  0  0  0 
  4  6  1  0  0  0  0 
  5 21  1  0  0  0  0 
  5  7  1  0  0  0  0 
  6  9  1  0  0  0  0 
  7 24  1  0  0  0  0 
  7 25  1  0  0  0  0 
  8 10  2  0  0  0  0 
  9  7  1  0  0  0  0 
  9  8  1  0  0  0  0 
 11  1  1  0  0  0  0 
 12  1  1  0  0  0  0 
 14  2  1  0  0  0  0 
 15  2  1  0  0  0  0 
 16  3  1  0  0  0  0 
 19  4  1  0  0  0  0 
 20  5  1  0  0  0  0 
 22  6  1  0  0  0  0 
 23  6  1  0  0  0  0 
M  END 
>  <HBA> 
2 
 
>  <HBD> 
0 
 
>  <TPSA> 
20.31 
 
>  <cid> 
22059 
 
>  <dipole> 
3.79 
 
>  <excitation_energy_1> 
5.485 
 
>  <excitation_energy_2> 
5.63 
 
>  <excitation_energy_3> 
6.022 
 
>  <excitation_energy_4> 
6.068 
 
>  <homo_energy> 
-6.169 
 
>  <homo_lumo_gap> 
7.157 
 
>  <logP> 
1.347 
 
>  <lumo_energy> 
0.988 
 
>  <melting_point> 
18.71 
 
>  <molecular_refractivity> 
45.47 
 
>  <oscillator_strength_1> 
0.0092 
 
>  <oscillator_strength_2> 
0.0155 
 
>  <oscillator_strength_3> 
0.0112 
 
>  <oscillator_strength_4> 
0.0235 
 
>  <open_babel_can_smiles> 
CC(=O)N1CCCCCC1 
 
>  <mulliken_charges> 
25 
1   -0.551772 
2   -0.262643 
3   -0.254252 
4   -0.250264 
5   -0.292642 
6   -0.158836 
7   -0.122174 
8   0.57643 
9   -0.413558 
10   -0.514391 
11   0.162615 
12   0.169585 
13   0.185885 
14   0.136041 
15   0.130028 
16   0.135651 
17   0.141939 
18   0.141072 
19   0.132612 
20   0.133109 
21   0.145803 
22   0.154783 
23   0.149779 
24   0.142872 
25   0.182329 
 
>  <lowdin_charges> 
25 
1   -0.478053 
2   -0.278181 
3   -0.279064 
4   -0.28662 
5   -0.28969 
6   -0.198734 
7   -0.19813 
8   0.155748 
9   -0.116236 
10   -0.318226 
11   0.16161 
12   0.167744 
13   0.178865 
14   0.147385 
15   0.13796 
16   0.146394 
17   0.146181 
18   0.143654 
19   0.146345 
20   0.138969 
21   0.155083 
22   0.155046 
23   0.14828 
24   0.14307 
25   0.170601 
 
$$$$ 
 
