PCCDB-ID:  9408 
public computational chemistry database (PCCDB) project, http://pccdb.org 
 
 25 28  0  0  0  0  0  0  0  0999 V2000 
    3.5102    0.0230    0.0009 C   0  0  0  0  0  0  0  0  0  0  0  0 
    2.8325   -1.1960   -0.0001 C   0  0  0  0  0  0  0  0  0  0  0  0 
    2.8080    1.2278    0.0004 C   0  0  0  0  0  0  0  0  0  0  0  0 
    0.6859   -2.4657    0.0004 C   0  0  0  0  0  0  0  0  0  0  0  0 
   -0.6769   -2.4800   -0.0006 C   0  0  0  0  0  0  0  0  0  0  0  0 
    0.6362    2.4583    0.0003 C   0  0  0  0  0  0  0  0  0  0  0  0 
   -0.7262    2.4418   -0.0016 C   0  0  0  0  0  0  0  0  0  0  0  0 
   -2.8267   -1.1845   -0.0003 C   0  0  0  0  0  0  0  0  0  0  0  0 
   -3.4471    0.0654   -0.0019 C   0  0  0  0  0  0  0  0  0  0  0  0 
    1.4290   -1.2337   -0.0001 C   0  0  0  0  0  0  0  0  0  0  0  0 
    1.4035    1.2411    0.0002 C   0  0  0  0  0  0  0  0  0  0  0  0 
   -1.4263   -1.2530   -0.0008 C   0  0  0  0  0  0  0  0  0  0  0  0 
   -1.4534    1.2005   -0.0022 C   0  0  0  0  0  0  0  0  0  0  0  0 
    0.7070   -0.0034   -0.0001 C   0  0  0  0  0  0  0  0  0  0  0  0 
   -0.7155   -0.0198   -0.0009 C   0  0  0  0  0  0  0  0  0  0  0  0 
   -2.8007    1.2361   -0.0032 N   0  0  0  0  0  0  0  0  0  0  0  0 
    4.5967    0.0339    0.0035 H   0  0  0  0  0  0  0  0  0  0  0  0 
    3.3905   -2.1292   -0.0026 H   0  0  0  0  0  0  0  0  0  0  0  0 
    3.3474    2.1718   -0.0014 H   0  0  0  0  0  0  0  0  0  0  0  0 
    1.2444   -3.3988    0.0022 H   0  0  0  0  0  0  0  0  0  0  0  0 
   -1.2219   -3.4205   -0.0019 H   0  0  0  0  0  0  0  0  0  0  0  0 
    1.1749    3.4029    0.0026 H   0  0  0  0  0  0  0  0  0  0  0  0 
   -1.3114    3.3561   -0.0022 H   0  0  0  0  0  0  0  0  0  0  0  0 
   -3.4249   -2.0917    0.0018 H   0  0  0  0  0  0  0  0  0  0  0  0 
   -4.5343    0.1274   -0.0024 H   0  0  0  0  0  0  0  0  0  0  0  0 
  1 17  1  0  0  0  0 
  2 10  2  0  0  0  0 
  2  1  1  0  0  0  0 
  3  1  2  0  0  0  0 
  4 20  1  0  0  0  0 
  5  4  2  0  0  0  0 
  6 22  1  0  0  0  0 
  7  6  2  0  0  0  0 
  8 24  1  0  0  0  0 
  9  8  2  0  0  0  0 
 10  4  1  0  0  0  0 
 11  6  1  0  0  0  0 
 11  3  1  0  0  0  0 
 12  5  1  0  0  0  0 
 12  8  1  0  0  0  0 
 13  7  1  0  0  0  0 
 13 15  1  0  0  0  0 
 14 10  1  0  0  0  0 
 14 11  2  0  0  0  0 
 15 12  2  0  0  0  0 
 15 14  1  0  0  0  0 
 16 13  2  0  0  0  0 
 16  9  1  0  0  0  0 
 18  2  1  0  0  0  0 
 19  3  1  0  0  0  0 
 21  5  1  0  0  0  0 
 23  7  1  0  0  0  0 
 25  9  1  0  0  0  0 
M  END 
>  <HBA> 
1 
 
>  <HBD> 
0 
 
>  <TPSA> 
12.89 
 
>  <cid> 
9408 
 
>  <dipole> 
2.58 
 
>  <excitation_energy_1> 
3.665 
 
>  <excitation_energy_2> 
3.81 
 
>  <excitation_energy_3> 
4.033 
 
>  <excitation_energy_4> 
4.399 
 
>  <homo_energy> 
-5.742 
 
>  <homo_lumo_gap> 
3.883 
 
>  <logP> 
3.979 
 
>  <lumo_energy> 
-1.859 
 
>  <melting_point> 
153.06 
 
>  <molecular_refractivity> 
67.94 
 
>  <oscillator_strength_1> 
0.2333 
 
>  <oscillator_strength_2> 
0.0259 
 
>  <oscillator_strength_3> 
0.001 
 
>  <oscillator_strength_4> 
0.0124 
 
>  <open_babel_can_smiles> 
c1cc2ccc3c4c2c(n1)ccc4ccc3 
 
>  <mulliken_charges> 
25 
1   -0.120558 
2   -0.223251 
3   -0.221833 
4   -0.188939 
5   -0.187445 
6   -0.199741 
7   -0.135329 
8   -0.236998 
9   0.040409 
10   0.163808 
11   0.166153 
12   0.190423 
13   0.240249 
14   -0.020309 
15   0.024273 
16   -0.517877 
17   0.134685 
18   0.133715 
19   0.134911 
20   0.136703 
21   0.135906 
22   0.134968 
23   0.144737 
24   0.133147 
25   0.138192 
 
>  <lowdin_charges> 
25 
1   -0.152694 
2   -0.155759 
3   -0.153136 
4   -0.142442 
5   -0.159787 
6   -0.1505 
7   -0.152001 
8   -0.186782 
9   -0.087371 
10   -0.00125 
11   -7e-06 
12   0.018495 
13   0.04616 
14   -0.001475 
15   -0.017507 
16   -0.159016 
17   0.15936 
18   0.160194 
19   0.160714 
20   0.162196 
21   0.162411 
22   0.161599 
23   0.171802 
24   0.163028 
25   0.153768 
 
$$$$ 
 
