PCCDB-ID:  31263 
public computational chemistry database (PCCDB) project, http://pccdb.org 
 
 19 18  0  0  0  0  0  0  0  0999 V2000 
    2.5230   -0.4484   -1.3677 C   0  0  0  0  0  0  0  0  0  0  0  0 
    6.0237    4.6319    0.3310 C   0  0  0  0  0  0  0  0  0  0  0  0 
    2.8450   -0.5892    0.1302 C   0  0  0  0  0  0  0  0  0  0  0  0 
    5.7757    3.1338    0.4944 C   0  0  0  0  0  0  0  0  0  0  0  0 
    3.0229    0.7499    0.8087 C   0  0  0  0  0  0  0  0  0  0  0  0 
    4.3142    2.7652    0.3803 C   0  0  0  0  0  0  0  0  0  0  0  0 
    2.3256    1.2213    1.6630 O   0  0  0  0  0  0  0  0  0  0  0  0 
    3.3870    3.5206    0.2942 O   0  0  0  0  0  0  0  0  0  0  0  0 
    4.1773    1.3760    0.3325 O   0  0  0  0  0  0  0  0  0  0  0  0 
    2.3877   -1.4374   -1.8169 H   0  0  0  0  0  0  0  0  0  0  0  0 
    3.3332    0.0607   -1.8978 H   0  0  0  0  0  0  0  0  0  0  0  0 
    1.6010    0.1221   -1.5201 H   0  0  0  0  0  0  0  0  0  0  0  0 
    7.0884    4.8565    0.4490 H   0  0  0  0  0  0  0  0  0  0  0  0 
    5.4633    5.2043    1.0755 H   0  0  0  0  0  0  0  0  0  0  0  0 
    5.7069    4.9778   -0.6578 H   0  0  0  0  0  0  0  0  0  0  0  0 
    3.7702   -1.1648    0.2557 H   0  0  0  0  0  0  0  0  0  0  0  0 
    2.0423   -1.1107    0.6576 H   0  0  0  0  0  0  0  0  0  0  0  0 
    6.1203    2.7765    1.4749 H   0  0  0  0  0  0  0  0  0  0  0  0 
    6.3336    2.5435   -0.2431 H   0  0  0  0  0  0  0  0  0  0  0  0 
  1  3  1  0  0  0  0 
  2 13  1  0  0  0  0 
  2  4  1  0  0  0  0 
  2 14  1  0  0  0  0 
  3 16  1  0  0  0  0 
  3 17  1  0  0  0  0 
  3  5  1  0  0  0  0 
  4 18  1  0  0  0  0 
  5  7  2  0  0  0  0 
  6  4  1  0  0  0  0 
  8  6  2  0  0  0  0 
  9  6  1  0  0  0  0 
  9  5  1  0  0  0  0 
 10  1  1  0  0  0  0 
 11  1  1  0  0  0  0 
 12  1  1  0  0  0  0 
 15  2  1  0  0  0  0 
 19  4  1  0  0  0  0 
M  END 
>  <HBA> 
3 
 
>  <HBD> 
0 
 
>  <TPSA> 
43.37 
 
>  <cid> 
31263 
 
>  <dipole> 
3.7 
 
>  <excitation_energy_1> 
5.032 
 
>  <excitation_energy_2> 
5.535 
 
>  <excitation_energy_3> 
6.483 
 
>  <excitation_energy_4> 
6.879 
 
>  <homo_energy> 
-7.358 
 
>  <homo_lumo_gap> 
6.656 
 
>  <logP> 
0.876 
 
>  <lumo_energy> 
-0.702 
 
>  <melting_point> 
7.27 
 
>  <molecular_refractivity> 
32.44 
 
>  <oscillator_strength_1> 
0.0026 
 
>  <oscillator_strength_2> 
0.0001 
 
>  <oscillator_strength_3> 
0.001 
 
>  <oscillator_strength_4> 
0.0052 
 
>  <open_babel_can_smiles> 
CCC(=O)OC(=O)CC 
 
>  <mulliken_charges> 
19 
1   -0.456054 
2   -0.440638 
3   -0.336601 
4   -0.357017 
5   0.607925 
6   0.622906 
7   -0.412509 
8   -0.412778 
9   -0.494342 
10   0.159603 
11   0.165706 
12   0.168928 
13   0.147956 
14   0.171384 
15   0.162726 
16   0.170405 
17   0.175127 
18   0.181186 
19   0.176087 
 
>  <lowdin_charges> 
19 
1   -0.439194 
2   -0.439246 
3   -0.295551 
4   -0.301463 
5   0.220424 
6   0.225299 
7   -0.205117 
8   -0.205045 
9   -0.202525 
10   0.158838 
11   0.16 
12   0.16051 
13   0.153465 
14   0.16537 
15   0.159209 
16   0.168906 
17   0.170341 
18   0.173736 
19   0.172042 
 
$$$$ 
 
