PCCDB-ID:  61073 
public computational chemistry database (PCCDB) project, http://pccdb.org 
 
 37 37  0  0  1  0  0  0  0  0999 V2000 
    1.0512    0.1793   -0.7585 C   0  0  0  0  0  0  0  0  0  0  0  0 
    1.6704   -3.2307    1.3452 C   0  0  0  0  0  0  0  0  0  0  0  0 
    2.6823   -0.8383    4.3171 C   0  0  0  0  0  0  0  0  0  0  0  0 
    5.0155   -1.0578   -1.9356 C   0  0  0  0  0  0  0  0  0  0  0  0 
    5.5970   -1.9373    0.3274 C   0  0  0  0  0  0  0  0  0  0  0  0 
    4.6530    1.7131   -0.7057 C   0  0  0  0  0  0  0  0  0  0  0  0 
    3.1681    1.4954   -0.8225 C   0  0  0  0  0  0  0  0  0  0  0  0 
    5.3730    0.5500   -0.0074 C   0  0  0  0  0  0  0  0  0  0  0  0 
    3.0089   -1.0663    1.3863 C   0  0  0  0  0  0  0  0  0  0  0  0 
    2.5407    0.3362   -0.5811 C   0  0  0  0  0  0  0  0  0  0  0  0 
    2.3050   -2.0339    2.0095 C   0  0  0  0  0  0  0  0  0  0  0  0 
    2.1099   -1.9875    3.4947 C   0  0  0  0  0  0  0  0  0  0  0  0 
    3.2943   -0.9039   -0.0905 C   0  0  1  0  0  0  0  0  0  0  0  0 
    4.8265   -0.8350   -0.4204 C   0  0  0  0  0  0  0  0  0  0  0  0 
    1.4853   -2.8806    4.0517 O   0  0  0  0  0  0  0  0  0  0  0  0 
    0.5807    1.1211   -1.0586 H   0  0  0  0  0  0  0  0  0  0  0  0 
    0.5708   -0.1623    0.1675 H   0  0  0  0  0  0  0  0  0  0  0  0 
    0.8220   -0.5730   -1.5264 H   0  0  0  0  0  0  0  0  0  0  0  0 
    1.7913   -3.2218    0.2604 H   0  0  0  0  0  0  0  0  0  0  0  0 
    0.6010   -3.2755    1.5775 H   0  0  0  0  0  0  0  0  0  0  0  0 
    2.1034   -4.1583    1.7362 H   0  0  0  0  0  0  0  0  0  0  0  0 
    3.7745   -0.7927    4.2360 H   0  0  0  0  0  0  0  0  0  0  0  0 
    2.4091   -1.0011    5.3612 H   0  0  0  0  0  0  0  0  0  0  0  0 
    2.2870    0.1292    3.9878 H   0  0  0  0  0  0  0  0  0  0  0  0 
    6.0694   -0.9369   -2.2155 H   0  0  0  0  0  0  0  0  0  0  0  0 
    4.4234   -0.3579   -2.5329 H   0  0  0  0  0  0  0  0  0  0  0  0 
    4.7139   -2.0742   -2.2171 H   0  0  0  0  0  0  0  0  0  0  0  0 
    6.6517   -1.9365    0.0261 H   0  0  0  0  0  0  0  0  0  0  0  0 
    5.1870   -2.9299    0.1038 H   0  0  0  0  0  0  0  0  0  0  0  0 
    5.5594   -1.8007    1.4135 H   0  0  0  0  0  0  0  0  0  0  0  0 
    4.8520    2.6511   -0.1686 H   0  0  0  0  0  0  0  0  0  0  0  0 
    5.0682    1.8684   -1.7139 H   0  0  0  0  0  0  0  0  0  0  0  0 
    2.5800    2.3459   -1.1689 H   0  0  0  0  0  0  0  0  0  0  0  0 
    5.2723    0.6637    1.0803 H   0  0  0  0  0  0  0  0  0  0  0  0 
    6.4495    0.5951   -0.2177 H   0  0  0  0  0  0  0  0  0  0  0  0 
    3.4065   -0.2582    1.9967 H   0  0  0  0  0  0  0  0  0  0  0  0 
    2.8914   -1.7730   -0.6254 H   0  0  0  0  0  0  0  0  0  0  0  0 
  1 10  1  0  0  0  0 
  1 17  1  0  0  0  0 
  2 20  1  0  0  0  0 
  2 21  1  0  0  0  0 
  2 11  1  0  0  0  0 
  3 23  1  0  0  0  0 
  4 14  1  0  0  0  0 
  5 30  1  0  0  0  0 
  6 31  1  0  0  0  0 
  6  8  1  0  0  0  0 
  7  6  1  0  0  0  0 
  7 10  2  0  0  0  0 
  8 34  1  0  0  0  0 
  9 36  1  0  0  0  0 
  9 11  2  0  0  0  0 
 10 13  1  0  0  0  0 
 11 12  1  0  0  0  0 
 12 15  2  0  0  0  0 
 12  3  1  0  0  0  0 
 13 37  1  6  0  0  0 
 13  9  1  0  0  0  0 
 14 13  1  0  0  0  0 
 14  8  1  0  0  0  0 
 14  5  1  0  0  0  0 
 16  1  1  0  0  0  0 
 18  1  1  0  0  0  0 
 19  2  1  0  0  0  0 
 22  3  1  0  0  0  0 
 24  3  1  0  0  0  0 
 25  4  1  0  0  0  0 
 26  4  1  0  0  0  0 
 27  4  1  0  0  0  0 
 28  5  1  0  0  0  0 
 29  5  1  0  0  0  0 
 32  6  1  0  0  0  0 
 33  7  1  0  0  0  0 
 35  8  1  0  0  0  0 
M  END 
>  <HBA> 
1 
 
>  <HBD> 
0 
 
>  <TPSA> 
17.07 
 
>  <cid> 
61073 
 
>  <dipole> 
3.43 
 
>  <excitation_energy_1> 
3.739 
 
>  <excitation_energy_2> 
4.487 
 
>  <excitation_energy_3> 
5.303 
 
>  <excitation_energy_4> 
5.728 
 
>  <homo_energy> 
-6.362 
 
>  <homo_lumo_gap> 
5.14 
 
>  <logP> 
3.904 
 
>  <lumo_energy> 
-1.222 
 
>  <melting_point> 
57.2 
 
>  <molecular_refractivity> 
66.29 
 
>  <oscillator_strength_1> 
0.0013 
 
>  <oscillator_strength_2> 
0.0609 
 
>  <oscillator_strength_3> 
0.4047 
 
>  <oscillator_strength_4> 
0.0015 
 
>  <open_babel_can_smiles> 
CC1=CCCC([C@H]1/C=C(/C(=O)C)\C)(C)C 
 
>  <mulliken_charges> 
37 
1   -0.514404 
2   -0.508857 
3   -0.544438 
4   -0.456671 
5   -0.449471 
6   -0.305736 
7   -0.171879 
8   -0.272423 
9   -0.16078 
10   0.173202 
11   0.092492 
12   0.418316 
13   -0.192556 
14   0.086844 
15   -0.456829 
16   0.152627 
17   0.159766 
18   0.151246 
19   0.144887 
20   0.171457 
21   0.170794 
22   0.166553 
23   0.179018 
24   0.168781 
25   0.139777 
26   0.15423 
27   0.139798 
28   0.139781 
29   0.141915 
30   0.142217 
31   0.142658 
32   0.148445 
33   0.116773 
34   0.133171 
35   0.131152 
36   0.137207 
37   0.130936 
 
>  <lowdin_charges> 
37 
1   -0.44218 
2   -0.4395 
3   -0.475236 
4   -0.445994 
5   -0.438358 
6   -0.276803 
7   -0.190745 
8   -0.273295 
9   -0.137315 
10   -0.015745 
11   -0.054215 
12   0.156158 
13   -0.12945 
14   0.014206 
15   -0.248212 
16   0.156073 
17   0.159026 
18   0.154708 
19   0.149072 
20   0.167052 
21   0.168568 
22   0.165046 
23   0.172591 
24   0.167738 
25   0.146999 
26   0.156831 
27   0.147264 
28   0.147326 
29   0.148976 
30   0.147292 
31   0.151727 
32   0.149169 
33   0.150498 
34   0.138382 
35   0.143129 
36   0.159151 
37   0.150069 
 
$$$$ 
 
