PCCDB-ID:  13408 
public computational chemistry database (PCCDB) project, http://pccdb.org 
 
 22 23  0  0  0  0  0  0  0  0999 V2000 
    0.9267    0.0262   -0.0779 C   0  0  0  0  0  0  0  0  0  0  0  0 
    2.8404   -2.3716   -0.0788 C   0  0  0  0  0  0  0  0  0  0  0  0 
    6.9774    0.7979   -0.0777 C   0  0  0  0  0  0  0  0  0  0  0  0 
    6.9510   -0.6107   -0.0764 C   0  0  0  0  0  0  0  0  0  0  0  0 
    5.8003    1.5378   -0.0791 C   0  0  0  0  0  0  0  0  0  0  0  0 
    5.7465   -1.3083   -0.0761 C   0  0  0  0  0  0  0  0  0  0  0  0 
    3.1941    1.2723   -0.0785 C   0  0  0  0  0  0  0  0  0  0  0  0 
    2.4179    0.1395   -0.0774 C   0  0  0  0  0  0  0  0  0  0  0  0 
    4.5682    0.8634   -0.0782 C   0  0  0  0  0  0  0  0  0  0  0  0 
    4.5652   -0.5592   -0.0769 C   0  0  0  0  0  0  0  0  0  0  0  0 
    3.2471   -0.9818   -0.0757 N   0  0  0  0  0  0  0  0  0  0  0  0 
    0.4864    1.0268   -0.0776 H   0  0  0  0  0  0  0  0  0  0  0  0 
    0.5470   -0.5031    0.8064 H   0  0  0  0  0  0  0  0  0  0  0  0 
    0.5476   -0.5022   -0.9629 H   0  0  0  0  0  0  0  0  0  0  0  0 
    1.7516   -2.4366   -0.0799 H   0  0  0  0  0  0  0  0  0  0  0  0 
    3.2168   -2.8925    0.8102 H   0  0  0  0  0  0  0  0  0  0  0  0 
    3.2186   -2.8890   -0.9692 H   0  0  0  0  0  0  0  0  0  0  0  0 
    7.9351    1.3116   -0.0783 H   0  0  0  0  0  0  0  0  0  0  0  0 
    7.8868   -1.1632   -0.0752 H   0  0  0  0  0  0  0  0  0  0  0  0 
    5.8315    2.6246   -0.0812 H   0  0  0  0  0  0  0  0  0  0  0  0 
    5.7311   -2.3947   -0.0760 H   0  0  0  0  0  0  0  0  0  0  0  0 
    2.8165    2.2863   -0.0787 H   0  0  0  0  0  0  0  0  0  0  0  0 
  1 12  1  0  0  0  0 
  1  8  1  0  0  0  0 
  1 13  1  0  0  0  0 
  2 11  1  0  0  0  0 
  2 16  1  0  0  0  0 
  3  4  2  0  0  0  0 
  4  6  1  0  0  0  0 
  4 19  1  0  0  0  0 
  5  9  2  0  0  0  0 
  5  3  1  0  0  0  0 
  6 21  1  0  0  0  0 
  7  9  1  0  0  0  0 
  7  8  2  0  0  0  0 
  8 11  1  0  0  0  0 
  9 10  1  0  0  0  0 
 10  6  2  0  0  0  0 
 10 11  1  0  0  0  0 
 14  1  1  0  0  0  0 
 15  2  1  0  0  0  0 
 17  2  1  0  0  0  0 
 18  3  1  0  0  0  0 
 20  5  1  0  0  0  0 
 22  7  1  0  0  0  0 
M  END 
>  <HBA> 
1 
 
>  <HBD> 
0 
 
>  <TPSA> 
4.93 
 
>  <cid> 
13408 
 
>  <dipole> 
2.68 
 
>  <excitation_energy_1> 
4.576 
 
>  <excitation_energy_2> 
4.692 
 
>  <excitation_energy_3> 
4.78 
 
>  <excitation_energy_4> 
5.127 
 
>  <homo_energy> 
-5.17 
 
>  <homo_lumo_gap> 
5.192 
 
>  <logP> 
2.487 
 
>  <lumo_energy> 
0.022 
 
>  <melting_point> 
55.66 
 
>  <molecular_refractivity> 
48.17 
 
>  <oscillator_strength_1> 
0.1079 
 
>  <oscillator_strength_2> 
0.0051 
 
>  <oscillator_strength_3> 
0.0379 
 
>  <oscillator_strength_4> 
0.0023 
 
>  <open_babel_can_smiles> 
Cn1c(C)cc2c1cccc2 
 
>  <mulliken_charges> 
22 
1   -0.536757 
2   -0.327308 
3   -0.137944 
4   -0.152341 
5   -0.211723 
6   -0.174968 
7   -0.283635 
8   0.344088 
9   0.11993 
10   0.30578 
11   -0.545431 
12   0.172413 
13   0.162166 
14   0.162166 
15   0.170041 
16   0.169518 
17   0.16953 
18   0.116515 
19   0.118275 
20   0.120815 
21   0.118874 
22   0.119995 
 
>  <lowdin_charges> 
22 
1   -0.44597 
2   -0.347636 
3   -0.177571 
4   -0.16856 
5   -0.161049 
6   -0.1906 
7   -0.242197 
8   0.031184 
9   -0.024217 
10   0.023831 
11   -0.039037 
12   0.170704 
13   0.159864 
14   0.159852 
15   0.165277 
16   0.158333 
17   0.158319 
18   0.152717 
19   0.153652 
20   0.152257 
21   0.152454 
22   0.158392 
 
$$$$ 
 
