PCCDB-ID:  47285 
public computational chemistry database (PCCDB) project, http://pccdb.org 
 
 35 35  0  0  1  0  0  0  0  0999 V2000 
    4.3627    1.7452   -1.1496 C   0  0  0  0  0  0  0  0  0  0  0  0 
    8.7691   -5.0812    3.1888 C   0  0  0  0  0  0  0  0  0  0  0  0 
    3.5337    1.2017    0.0281 C   0  0  0  0  0  0  0  0  0  0  0  0 
    8.4473   -3.6389    2.7844 C   0  0  0  0  0  0  0  0  0  0  0  0 
    3.9749   -0.1727    0.4459 C   0  0  0  0  0  0  0  0  0  0  0  0 
    4.4807   -0.4916    1.6407 C   0  0  0  0  0  0  0  0  0  0  0  0 
    6.9420   -3.4124    2.5864 C   0  0  0  0  0  0  0  0  0  0  0  0 
    4.9722   -1.8637    2.0130 C   0  0  0  0  0  0  0  0  0  0  0  0 
    6.9973   -0.9674    3.2397 C   0  0  0  0  0  0  0  0  0  0  0  0 
    7.2083   -1.5680    0.8698 C   0  0  0  0  0  0  0  0  0  0  0  0 
    8.2213    0.3262    1.7489 C   0  0  0  0  0  0  0  0  0  0  0  0 
    6.5334   -1.9621    2.1806 C   0  0  1  0  0  0  0  0  0  0  0  0 
    7.7474    0.0432    3.0580 N   0  0  0  0  0  0  0  0  0  0  0  0 
    7.9611   -0.5622    0.6734 N   0  0  0  0  0  0  0  0  0  0  0  0 
    6.5497   -1.1747    4.5011 O   0  0  0  0  0  0  0  0  0  0  0  0 
    6.9772   -2.3719   -0.1944 O   0  0  0  0  0  0  0  0  0  0  0  0 
    8.8583    1.3357    1.5507 O   0  0  0  0  0  0  0  0  0  0  0  0 
    4.0147    2.7420   -1.4414 H   0  0  0  0  0  0  0  0  0  0  0  0 
    4.2816    1.0917   -2.0263 H   0  0  0  0  0  0  0  0  0  0  0  0 
    5.4222    1.8146   -0.8825 H   0  0  0  0  0  0  0  0  0  0  0  0 
    9.8471   -5.2161    3.3235 H   0  0  0  0  0  0  0  0  0  0  0  0 
    8.4375   -5.7951    2.4249 H   0  0  0  0  0  0  0  0  0  0  0  0 
    8.2798   -5.3508    4.1328 H   0  0  0  0  0  0  0  0  0  0  0  0 
    2.4740    1.1694   -0.2654 H   0  0  0  0  0  0  0  0  0  0  0  0 
    3.6040    1.8871    0.8816 H   0  0  0  0  0  0  0  0  0  0  0  0 
    8.9785   -3.3889    1.8576 H   0  0  0  0  0  0  0  0  0  0  0  0 
    8.8226   -2.9496    3.5510 H   0  0  0  0  0  0  0  0  0  0  0  0 
    3.8917   -0.9513   -0.3166 H   0  0  0  0  0  0  0  0  0  0  0  0 
    4.5788    0.2810    2.4038 H   0  0  0  0  0  0  0  0  0  0  0  0 
    6.4069   -3.6902    3.5060 H   0  0  0  0  0  0  0  0  0  0  0  0 
    6.5633   -4.1154    1.8304 H   0  0  0  0  0  0  0  0  0  0  0  0 
    4.6562   -2.5930    1.2563 H   0  0  0  0  0  0  0  0  0  0  0  0 
    4.5102   -2.1966    2.9541 H   0  0  0  0  0  0  0  0  0  0  0  0 
    5.9905   -1.9664    4.5344 H   0  0  0  0  0  0  0  0  0  0  0  0 
    6.3951   -3.1051    0.0583 H   0  0  0  0  0  0  0  0  0  0  0  0 
  1 20  1  0  0  0  0 
  1  3  1  0  0  0  0 
  2 21  1  0  0  0  0 
  2 23  1  0  0  0  0 
  3  5  1  0  0  0  0 
  3 25  1  0  0  0  0 
  4  2  1  0  0  0  0 
  4 27  1  0  0  0  0 
  5  6  2  0  0  0  0 
  6  8  1  0  0  0  0 
  6 29  1  0  0  0  0 
  7  4  1  0  0  0  0 
  7 30  1  0  0  0  0 
  8 33  1  0  0  0  0 
  9 15  1  0  0  0  0 
 10 12  1  0  0  0  0 
 11 13  2  0  0  0  0 
 12  8  1  6  0  0  0 
 12  7  1  0  0  0  0 
 12  9  1  0  0  0  0 
 13  9  2  0  0  0  0 
 14 10  2  0  0  0  0 
 14 11  1  0  0  0  0 
 15 34  1  0  0  0  0 
 16 35  1  0  0  0  0 
 16 10  1  0  0  0  0 
 17 11  2  0  0  0  0 
 18  1  1  0  0  0  0 
 19  1  1  0  0  0  0 
 22  2  1  0  0  0  0 
 24  3  1  0  0  0  0 
 26  4  1  0  0  0  0 
 28  5  1  0  0  0  0 
 31  7  1  0  0  0  0 
 32  8  1  0  0  0  0 
M  END 
>  <HBA> 
5 
 
>  <HBD> 
2 
 
>  <TPSA> 
75.27 
 
>  <cid> 
47285 
 
>  <dipole> 
9.4 
 
>  <excitation_energy_1> 
4.006 
 
>  <excitation_energy_2> 
4.178 
 
>  <excitation_energy_3> 
4.8 
 
>  <excitation_energy_4> 
5.262 
 
>  <homo_energy> 
-6.836 
 
>  <homo_lumo_gap> 
5.393 
 
>  <logP> 
2.153 
 
>  <lumo_energy> 
-1.442 
 
>  <melting_point> 
149.37 
 
>  <molecular_refractivity> 
71.37 
 
>  <oscillator_strength_1> 
0.0 
 
>  <oscillator_strength_2> 
0.0001 
 
>  <oscillator_strength_3> 
0.004 
 
>  <oscillator_strength_4> 
0.0005 
 
>  <open_babel_can_smiles> 
CC/C=C/C[C@@]1(CCC)C(=N[C](=[N]=C1O)=O)O 
 
>  <mulliken_charges> 
35 
1   -0.446004 
2   -0.447439 
3   -0.303338 
4   -0.273401 
5   -0.072462 
6   -0.109732 
7   -0.280532 
8   -0.323436 
9   0.552419 
10   0.563701 
11   0.621606 
12   -0.151494 
13   -0.471342 
14   -0.472913 
15   -0.581814 
16   -0.581288 
17   -0.434081 
18   0.149159 
19   0.145075 
20   0.175819 
21   0.163173 
22   0.146589 
23   0.146577 
24   0.145563 
25   0.149617 
26   0.16952 
27   0.169439 
28   0.121881 
29   0.150929 
30   0.131974 
31   0.132256 
32   0.139878 
33   0.142644 
34   0.416119 
35   0.415338 
 
>  <lowdin_charges> 
35 
1   -0.44049 
2   -0.441877 
3   -0.267525 
4   -0.28296 
5   -0.1396 
6   -0.194292 
7   -0.275742 
8   -0.266589 
9   0.145948 
10   0.150916 
11   0.171303 
12   -0.0643 
13   -0.183628 
14   -0.182961 
15   -0.333585 
16   -0.331626 
17   -0.210393 
18   0.153075 
19   0.149244 
20   0.162121 
21   0.159804 
22   0.149868 
23   0.148952 
24   0.149078 
25   0.151873 
26   0.158862 
27   0.159658 
28   0.147878 
29   0.162967 
30   0.141426 
31   0.142367 
32   0.148689 
33   0.147882 
34   0.356747 
35   0.356911 
 
$$$$ 
 
