PCCDB-ID:  9255 
public computational chemistry database (PCCDB) project, http://pccdb.org 
 
  8  8  0  0  0  0  0  0  0  0999 V2000 
   -1.1571    0.0022   -0.0012 C   0  0  0  0  0  0  0  0  0  0  0  0 
   -0.3694   -1.1012    0.0021 C   0  0  0  0  0  0  0  0  0  0  0  0 
    0.8520    0.6707    0.0004 C   0  0  0  0  0  0  0  0  0  0  0  0 
   -0.3542    1.1396   -0.0023 N   0  0  0  0  0  0  0  0  0  0  0  0 
    0.9370   -0.6842    0.0032 O   0  0  0  0  0  0  0  0  0  0  0  0 
   -2.2355    0.0697   -0.0033 H   0  0  0  0  0  0  0  0  0  0  0  0 
   -0.5358   -2.1663    0.0047 H   0  0  0  0  0  0  0  0  0  0  0  0 
    1.7855    1.2144    0.0011 H   0  0  0  0  0  0  0  0  0  0  0  0 
  1  2  2  0  0  0  0 
  2  5  1  0  0  0  0 
  2  7  1  0  0  0  0 
  3  8  1  0  0  0  0 
  3  5  1  0  0  0  0 
  4  1  1  0  0  0  0 
  4  3  2  0  0  0  0 
  6  1  1  0  0  0  0 
M  END 
>  <HBA> 
2 
 
>  <HBD> 
0 
 
>  <TPSA> 
26.03 
 
>  <cid> 
9255 
 
>  <dipole> 
1.53 
 
>  <excitation_energy_1> 
6.24 
 
>  <excitation_energy_2> 
6.361 
 
>  <excitation_energy_3> 
6.487 
 
>  <excitation_energy_4> 
7.011 
 
>  <homo_energy> 
-6.855 
 
>  <homo_lumo_gap> 
6.844 
 
>  <logP> 
0.675 
 
>  <lumo_energy> 
-0.011 
 
>  <melting_point> 
17.05 
 
>  <molecular_refractivity> 
16.5 
 
>  <oscillator_strength_1> 
0.1435 
 
>  <oscillator_strength_2> 
0.0025 
 
>  <oscillator_strength_3> 
0.0104 
 
>  <oscillator_strength_4> 
0.0151 
 
>  <open_babel_can_smiles> 
c1ncco1 
 
>  <mulliken_charges> 
8 
1   -0.033947 
2   0.065993 
3   0.251543 
4   -0.401977 
5   -0.382756 
6   0.155186 
7   0.169617 
8   0.176341 
 
>  <lowdin_charges> 
8 
1   -0.146153 
2   -0.093453 
3   -0.028135 
4   -0.165191 
5   -0.096754 
6   0.17132 
7   0.178356 
8   0.180009 
 
$$$$ 
 
