PCCDB-ID:  16458 
public computational chemistry database (PCCDB) project, http://pccdb.org 
 
 24 25  0  0  0  0  0  0  0  0999 V2000 
   -1.8901   -0.7612   -0.7970 C   0  0  0  0  0  0  0  0  0  0  0  0 
   -1.0023   -0.1065   -1.6499 C   0  0  0  0  0  0  0  0  0  0  0  0 
   -1.3993   -1.4274    0.3292 C   0  0  0  0  0  0  0  0  0  0  0  0 
    0.3681   -0.1192   -1.3777 C   0  0  0  0  0  0  0  0  0  0  0  0 
   -0.0317   -1.4375    0.5972 C   0  0  0  0  0  0  0  0  0  0  0  0 
    2.8386   -3.1050   -0.8648 C   0  0  0  0  0  0  0  0  0  0  0  0 
    3.7645   -2.5282    1.2554 C   0  0  0  0  0  0  0  0  0  0  0  0 
    3.4578   -4.3463   -0.7364 C   0  0  0  0  0  0  0  0  0  0  0  0 
    4.3421   -3.7991    1.2894 C   0  0  0  0  0  0  0  0  0  0  0  0 
    2.3599   -0.7767    0.0548 C   0  0  0  0  0  0  0  0  0  0  0  0 
    0.8711   -0.7816   -0.2525 C   0  0  0  0  0  0  0  0  0  0  0  0 
    2.9895   -2.1554    0.1537 C   0  0  0  0  0  0  0  0  0  0  0  0 
    4.2029   -4.7078    0.3181 N   0  0  0  0  0  0  0  0  0  0  0  0 
   -2.9562   -0.7548   -1.0068 H   0  0  0  0  0  0  0  0  0  0  0  0 
   -1.3724    0.4131   -2.5298 H   0  0  0  0  0  0  0  0  0  0  0  0 
   -2.0837   -1.9414    0.9991 H   0  0  0  0  0  0  0  0  0  0  0  0 
    1.0545    0.3964   -2.0460 H   0  0  0  0  0  0  0  0  0  0  0  0 
    0.3426   -1.9622    1.4732 H   0  0  0  0  0  0  0  0  0  0  0  0 
    2.2378   -2.8839   -1.7428 H   0  0  0  0  0  0  0  0  0  0  0  0 
    3.9206   -1.8386    2.0813 H   0  0  0  0  0  0  0  0  0  0  0  0 
    3.3485   -5.0939   -1.5208 H   0  0  0  0  0  0  0  0  0  0  0  0 
    4.9460   -4.1008    2.1443 H   0  0  0  0  0  0  0  0  0  0  0  0 
    2.5419   -0.2390    0.9945 H   0  0  0  0  0  0  0  0  0  0  0  0 
    2.8797   -0.2060   -0.7261 H   0  0  0  0  0  0  0  0  0  0  0  0 
  1  3  2  0  0  0  0 
  2  4  2  0  0  0  0 
  2  1  1  0  0  0  0 
  3  5  1  0  0  0  0 
  3 16  1  0  0  0  0 
  4 11  1  0  0  0  0 
  5 18  1  0  0  0  0 
  6  8  2  0  0  0  0 
  6 12  1  0  0  0  0 
  7  9  1  0  0  0  0 
  7 20  1  0  0  0  0 
  8 13  1  0  0  0  0 
  9 22  1  0  0  0  0 
 10 12  1  0  0  0  0 
 10 23  1  0  0  0  0 
 11 10  1  0  0  0  0 
 11  5  2  0  0  0  0 
 12  7  2  0  0  0  0 
 13  9  2  0  0  0  0 
 14  1  1  0  0  0  0 
 15  2  1  0  0  0  0 
 17  4  1  0  0  0  0 
 19  6  1  0  0  0  0 
 21  8  1  0  0  0  0 
 24 10  1  0  0  0  0 
M  END 
>  <HBA> 
1 
 
>  <HBD> 
0 
 
>  <TPSA> 
12.89 
 
>  <cid> 
16458 
 
>  <dipole> 
2.56 
 
>  <excitation_energy_1> 
4.876 
 
>  <excitation_energy_2> 
5.123 
 
>  <excitation_energy_3> 
5.193 
 
>  <excitation_energy_4> 
5.32 
 
>  <homo_energy> 
-6.634 
 
>  <homo_lumo_gap> 
6.049 
 
>  <logP> 
2.672 
 
>  <lumo_energy> 
-0.585 
 
>  <melting_point> 
53.05 
 
>  <molecular_refractivity> 
53.69 
 
>  <oscillator_strength_1> 
0.0054 
 
>  <oscillator_strength_2> 
0.0008 
 
>  <oscillator_strength_3> 
0.016 
 
>  <oscillator_strength_4> 
0.0099 
 
>  <open_babel_can_smiles> 
c1ccc(cc1)Cc1ccncc1 
 
>  <mulliken_charges> 
24 
1   -0.130471 
2   -0.125554 
3   -0.128374 
4   -0.19661 
5   -0.17353 
6   -0.178467 
7   -0.201578 
8   0.036205 
9   0.041435 
10   -0.436644 
11   0.180272 
12   0.19776 
13   -0.409873 
14   0.130904 
15   0.130914 
16   0.132344 
17   0.124602 
18   0.131964 
19   0.139552 
20   0.129563 
21   0.140341 
22   0.139234 
23   0.161211 
24   0.164802 
 
>  <lowdin_charges> 
24 
1   -0.156648 
2   -0.154408 
3   -0.153905 
4   -0.172804 
5   -0.160591 
6   -0.180338 
7   -0.192576 
8   -0.089633 
9   -0.088423 
10   -0.273043 
11   -0.003939 
12   0.022739 
13   -0.153499 
14   0.156764 
15   0.158817 
16   0.160349 
17   0.156081 
18   0.159576 
19   0.166127 
20   0.160544 
21   0.157098 
22   0.156115 
23   0.160751 
24   0.164845 
 
$$$$ 
 
