PCCDB-ID:  33261 
public computational chemistry database (PCCDB) project, http://pccdb.org 
 
 38 37  0  0  0  0  0  0  0  0999 V2000 
    0.7035    0.3332    2.3798 C   0  0  0  0  0  0  0  0  0  0  0  0 
    0.8098    0.3846    0.8512 C   0  0  0  0  0  0  0  0  0  0  0  0 
    2.2360    0.3947    0.2705 C   0  0  0  0  0  0  0  0  0  0  0  0 
    3.1018    1.6318    0.5956 C   0  0  0  0  0  0  0  0  0  0  0  0 
    3.9323    1.5353    1.8847 C   0  0  0  0  0  0  0  0  0  0  0  0 
    4.8245    2.7625    2.1138 C   0  0  0  0  0  0  0  0  0  0  0  0 
   10.9161   -0.0070    6.7006 C   0  0  0  0  0  0  0  0  0  0  0  0 
    5.6612    2.6776    3.3850 C   0  0  0  0  0  0  0  0  0  0  0  0 
   10.1957    0.5325    5.4671 C   0  0  0  0  0  0  0  0  0  0  0  0 
    7.3217    1.3656    4.4442 C   0  0  0  0  0  0  0  0  0  0  0  0 
    8.2092    0.1479    4.1879 C   0  0  0  0  0  0  0  0  0  0  0  0 
   12.1443    0.6713    6.9283 O   0  0  0  0  0  0  0  0  0  0  0  0 
    6.5502    1.5768    3.2793 O   0  0  0  0  0  0  0  0  0  0  0  0 
    8.9882   -0.1947    5.3226 O   0  0  0  0  0  0  0  0  0  0  0  0 
   -0.3412    0.2211    2.6933 H   0  0  0  0  0  0  0  0  0  0  0  0 
    1.0876    1.2457    2.8480 H   0  0  0  0  0  0  0  0  0  0  0  0 
    1.2666   -0.5144    2.7901 H   0  0  0  0  0  0  0  0  0  0  0  0 
    0.2707    1.2693    0.4822 H   0  0  0  0  0  0  0  0  0  0  0  0 
    0.2814   -0.4839    0.4340 H   0  0  0  0  0  0  0  0  0  0  0  0 
    2.1421    0.3140   -0.8208 H   0  0  0  0  0  0  0  0  0  0  0  0 
    2.7672   -0.5135    0.5922 H   0  0  0  0  0  0  0  0  0  0  0  0 
    2.4618    2.5269    0.6324 H   0  0  0  0  0  0  0  0  0  0  0  0 
    3.7978    1.8004   -0.2381 H   0  0  0  0  0  0  0  0  0  0  0  0 
    4.5672    0.6418    1.8415 H   0  0  0  0  0  0  0  0  0  0  0  0 
    3.2768    1.4034    2.7550 H   0  0  0  0  0  0  0  0  0  0  0  0 
    4.2076    3.6705    2.1742 H   0  0  0  0  0  0  0  0  0  0  0  0 
    5.4995    2.8981    1.2580 H   0  0  0  0  0  0  0  0  0  0  0  0 
   11.0532   -1.0938    6.5982 H   0  0  0  0  0  0  0  0  0  0  0  0 
   10.3006    0.1657    7.5880 H   0  0  0  0  0  0  0  0  0  0  0  0 
    5.0074    2.5502    4.2659 H   0  0  0  0  0  0  0  0  0  0  0  0 
    6.2327    3.6096    3.5355 H   0  0  0  0  0  0  0  0  0  0  0  0 
   10.8314    0.4042    4.5720 H   0  0  0  0  0  0  0  0  0  0  0  0 
   10.0219    1.6116    5.5929 H   0  0  0  0  0  0  0  0  0  0  0  0 
    7.9314    2.2557    4.6748 H   0  0  0  0  0  0  0  0  0  0  0  0 
    6.6786    1.1714    5.3182 H   0  0  0  0  0  0  0  0  0  0  0  0 
    8.8446    0.3282    3.3076 H   0  0  0  0  0  0  0  0  0  0  0  0 
    7.5727   -0.7161    3.9713 H   0  0  0  0  0  0  0  0  0  0  0  0 
   12.7580    0.4160    6.2223 H   0  0  0  0  0  0  0  0  0  0  0  0 
  1 15  1  0  0  0  0 
  1 17  1  0  0  0  0 
  1 16  1  0  0  0  0 
  2  1  1  0  0  0  0 
  3 21  1  0  0  0  0 
  3  4  1  0  0  0  0 
  3  2  1  0  0  0  0 
  4 22  1  0  0  0  0 
  4  5  1  0  0  0  0 
  5  6  1  0  0  0  0 
  5 25  1  0  0  0  0 
  6 26  1  0  0  0  0 
  6  8  1  0  0  0  0 
  7 12  1  0  0  0  0 
  7 29  1  0  0  0  0 
  8 31  1  0  0  0  0 
  8 30  1  0  0  0  0 
  9 33  1  0  0  0  0 
  9  7  1  0  0  0  0 
 10 34  1  0  0  0  0 
 10 35  1  0  0  0  0 
 11 10  1  0  0  0  0 
 11 14  1  0  0  0  0 
 13  8  1  0  0  0  0 
 13 10  1  0  0  0  0 
 14  9  1  0  0  0  0 
 18  2  1  0  0  0  0 
 19  2  1  0  0  0  0 
 20  3  1  0  0  0  0 
 23  4  1  0  0  0  0 
 24  5  1  0  0  0  0 
 27  6  1  0  0  0  0 
 28  7  1  0  0  0  0 
 32  9  1  0  0  0  0 
 36 11  1  0  0  0  0 
 37 11  1  0  0  0  0 
 38 12  1  0  0  0  0 
M  END 
>  <HBA> 
3 
 
>  <HBD> 
1 
 
>  <TPSA> 
38.69 
 
>  <cid> 
33261 
 
>  <dipole> 
1.38 
 
>  <excitation_energy_1> 
6.426 
 
>  <excitation_energy_2> 
6.561 
 
>  <excitation_energy_3> 
6.57 
 
>  <excitation_energy_4> 
6.761 
 
>  <homo_energy> 
-6.887 
 
>  <homo_lumo_gap> 
8.664 
 
>  <logP> 
1.982 
 
>  <lumo_energy> 
1.777 
 
>  <melting_point> 
-29.16 
 
>  <molecular_refractivity> 
58.32 
 
>  <oscillator_strength_1> 
0.012 
 
>  <oscillator_strength_2> 
0.0203 
 
>  <oscillator_strength_3> 
0.0085 
 
>  <oscillator_strength_4> 
0.003 
 
>  <open_babel_can_smiles> 
CCCCCCCOCCOCCO 
 
>  <mulliken_charges> 
38 
1   -0.440603 
2   -0.247926 
3   -0.254554 
4   -0.254161 
5   -0.257285 
6   -0.275757 
7   -0.051922 
8   -0.009053 
9   -0.032271 
10   -0.021161 
11   -0.03735 
12   -0.612896 
13   -0.480012 
14   -0.480148 
15   0.139883 
16   0.146377 
17   0.141568 
18   0.12893 
19   0.129961 
20   0.127994 
21   0.128345 
22   0.124307 
23   0.128739 
24   0.150037 
25   0.131909 
26   0.129872 
27   0.142132 
28   0.135602 
29   0.160344 
30   0.117125 
31   0.118565 
32   0.10861 
33   0.136054 
34   0.120494 
35   0.130664 
36   0.132093 
37   0.155541 
38   0.389951 
 
>  <lowdin_charges> 
38 
1   -0.448492 
2   -0.273421 
3   -0.276236 
4   -0.27805 
5   -0.280817 
6   -0.282247 
7   -0.138002 
8   -0.126824 
9   -0.146003 
10   -0.14506 
11   -0.137459 
12   -0.464103 
13   -0.274536 
14   -0.271757 
15   0.14736 
16   0.146936 
17   0.147187 
18   0.138208 
19   0.141587 
20   0.14064 
21   0.139194 
22   0.136487 
23   0.141644 
24   0.14859 
25   0.14065 
26   0.144687 
27   0.1473 
28   0.131941 
29   0.154548 
30   0.125011 
31   0.12704 
32   0.120635 
33   0.130661 
34   0.126931 
35   0.132576 
36   0.135653 
37   0.154079 
38   0.343464 
 
$$$$ 
 
