PCCDB-ID:  40081 
public computational chemistry database (PCCDB) project, http://pccdb.org 
 
 28 29  0  0  0  0  0  0  0  0999 V2000 
    0.7749    0.0663    0.4729 C   0  0  0  0  0  0  0  0  0  0  0  0 
    7.2009   -0.1653    1.9535 C   0  0  0  0  0  0  0  0  0  0  0  0 
    2.6428    3.8194   -0.6841 C   0  0  0  0  0  0  0  0  0  0  0  0 
    4.0372    3.9041   -0.8925 C   0  0  0  0  0  0  0  0  0  0  0  0 
    2.0677    2.6248   -0.3073 C   0  0  0  0  0  0  0  0  0  0  0  0 
    4.8303    2.7929   -0.7061 C   0  0  0  0  0  0  0  0  0  0  0  0 
    3.0955   -0.8884    0.4249 C   0  0  0  0  0  0  0  0  0  0  0  0 
    4.4947   -0.8004    0.2507 C   0  0  0  0  0  0  0  0  0  0  0  0 
    2.2644    0.2003    0.2642 C   0  0  0  0  0  0  0  0  0  0  0  0 
    7.3612    0.2179    0.4983 C   0  0  0  0  0  0  0  0  0  0  0  0 
    2.8506    1.4540   -0.1124 C   0  0  0  0  0  0  0  0  0  0  0  0 
    4.2678    1.5525   -0.3100 C   0  0  0  0  0  0  0  0  0  0  0  0 
    5.0949    0.3970   -0.0970 C   0  0  0  0  0  0  0  0  0  0  0  0 
    6.4670    0.5055   -0.3549 N   0  0  0  0  0  0  0  0  0  0  0  0 
    8.6524    0.2891    0.0622 O   0  0  0  0  0  0  0  0  0  0  0  0 
    0.5150   -0.9602    0.7489 H   0  0  0  0  0  0  0  0  0  0  0  0 
    0.2086    0.3193   -0.4328 H   0  0  0  0  0  0  0  0  0  0  0  0 
    0.4112    0.7264    1.2712 H   0  0  0  0  0  0  0  0  0  0  0  0 
    6.1575   -0.1051    2.2642 H   0  0  0  0  0  0  0  0  0  0  0  0 
    7.7981    0.5072    2.5830 H   0  0  0  0  0  0  0  0  0  0  0  0 
    7.5573   -1.1881    2.1287 H   0  0  0  0  0  0  0  0  0  0  0  0 
    2.0200    4.6986   -0.8284 H   0  0  0  0  0  0  0  0  0  0  0  0 
    4.4828    4.8456   -1.2024 H   0  0  0  0  0  0  0  0  0  0  0  0 
    0.9940    2.5733   -0.1578 H   0  0  0  0  0  0  0  0  0  0  0  0 
    5.9013    2.8394   -0.8729 H   0  0  0  0  0  0  0  0  0  0  0  0 
    2.6654   -1.8499    0.6969 H   0  0  0  0  0  0  0  0  0  0  0  0 
    5.1072   -1.6913    0.3592 H   0  0  0  0  0  0  0  0  0  0  0  0 
    9.2498    0.0968    0.8012 H   0  0  0  0  0  0  0  0  0  0  0  0 
  1 16  1  0  0  0  0 
  1 18  1  0  0  0  0 
  2 21  1  0  0  0  0 
  2 19  1  0  0  0  0 
  2 20  1  0  0  0  0 
  3  5  2  0  0  0  0 
  4  6  2  0  0  0  0 
  4  3  1  0  0  0  0 
  5 24  1  0  0  0  0 
  5 11  1  0  0  0  0 
  6 12  1  0  0  0  0 
  7 26  1  0  0  0  0 
  8 27  1  0  0  0  0 
  8  7  1  0  0  0  0 
  9  7  2  0  0  0  0 
  9  1  1  0  0  0  0 
 10  2  1  0  0  0  0 
 11  9  1  0  0  0  0 
 12 11  2  0  0  0  0 
 12 13  1  0  0  0  0 
 13  8  2  0  0  0  0 
 14 13  1  0  0  0  0 
 14 10  2  0  0  0  0 
 15 10  1  0  0  0  0 
 15 28  1  0  0  0  0 
 17  1  1  0  0  0  0 
 22  3  1  0  0  0  0 
 23  4  1  0  0  0  0 
 25  6  1  0  0  0  0 
M  END 
>  <HBA> 
2 
 
>  <HBD> 
1 
 
>  <TPSA> 
29.1 
 
>  <cid> 
40081 
 
>  <dipole> 
3.73 
 
>  <excitation_energy_1> 
3.872 
 
>  <excitation_energy_2> 
4.233 
 
>  <excitation_energy_3> 
4.474 
 
>  <excitation_energy_4> 
4.584 
 
>  <homo_energy> 
-5.195 
 
>  <homo_lumo_gap> 
4.395 
 
>  <logP> 
3.18 
 
>  <lumo_energy> 
-0.8 
 
>  <melting_point> 
108.77 
 
>  <molecular_refractivity> 
63.23 
 
>  <oscillator_strength_1> 
0.1817 
 
>  <oscillator_strength_2> 
0.0159 
 
>  <oscillator_strength_3> 
0.006 
 
>  <oscillator_strength_4> 
0.0218 
 
>  <open_babel_can_smiles> 
C/C(=N\c1ccc(c2c1cccc2)C)/O 
 
>  <mulliken_charges> 
28 
1   -0.537051 
2   -0.553219 
3   -0.128276 
4   -0.135489 
5   -0.205204 
6   -0.188171 
7   -0.21639 
8   -0.164973 
9   0.146055 
10   0.480592 
11   0.062775 
12   0.096207 
13   0.19423 
14   -0.473402 
15   -0.569733 
16   0.152862 
17   0.160871 
18   0.158298 
19   0.200118 
20   0.168877 
21   0.17684 
22   0.124707 
23   0.125791 
24   0.125295 
25   0.151907 
26   0.118044 
27   0.120431 
28   0.40801 
 
>  <lowdin_charges> 
28 
1   -0.443335 
2   -0.483166 
3   -0.158017 
4   -0.162297 
5   -0.163441 
6   -0.149706 
7   -0.168982 
8   -0.198186 
9   -0.013062 
10   0.150125 
11   -0.006213 
12   -0.013963 
13   0.044775 
14   -0.170373 
15   -0.362106 
16   0.155719 
17   0.158534 
18   0.157795 
19   0.184184 
20   0.168037 
21   0.169828 
22   0.156528 
23   0.156586 
24   0.156295 
25   0.168194 
26   0.153071 
27   0.156093 
28   0.357083 
 
$$$$ 
 
