PCCDB-ID:  34725 
public computational chemistry database (PCCDB) project, http://pccdb.org 
 
 30 30  0  0  1  0  0  0  0  0999 V2000 
    0.7660   -0.0852   -0.1602 C   0  0  0  0  0  0  0  0  0  0  0  0 
    3.0316    0.3884   -1.1465 C   0  0  0  0  0  0  0  0  0  0  0  0 
    1.9929    1.4529    3.4060 C   0  0  0  0  0  0  0  0  0  0  0  0 
    4.3417    1.1467    2.5495 C   0  0  0  0  0  0  0  0  0  0  0  0 
    2.3113   -2.5435    0.5587 C   0  0  0  0  0  0  0  0  0  0  0  0 
    2.8641   -1.1653    0.8886 C   0  0  2  0  0  0  0  0  0  0  0  0 
    2.6665   -0.7850    2.3638 C   0  0  2  0  0  0  0  0  0  0  0  0 
    2.2671    0.0507    0.1347 C   0  0  0  0  0  0  0  0  0  0  0  0 
    2.8661    0.7545    2.3630 C   0  0  0  0  0  0  0  0  0  0  0  0 
    2.5985   -2.8418   -0.8071 O   0  0  0  0  0  0  0  0  0  0  0  0 
    3.4664   -1.5093    3.2849 O   0  0  0  0  0  0  0  0  0  0  0  0 
    2.4327    1.1677    1.0555 O   0  0  0  0  0  0  0  0  0  0  0  0 
    0.5826   -0.8538   -0.9181 H   0  0  0  0  0  0  0  0  0  0  0  0 
    0.3873    0.8719   -0.5326 H   0  0  0  0  0  0  0  0  0  0  0  0 
    0.1992   -0.3381    0.7427 H   0  0  0  0  0  0  0  0  0  0  0  0 
    2.9457   -0.4296   -1.8678 H   0  0  0  0  0  0  0  0  0  0  0  0 
    4.0922    0.5521   -0.9268 H   0  0  0  0  0  0  0  0  0  0  0  0 
    2.6331    1.3052   -1.5947 H   0  0  0  0  0  0  0  0  0  0  0  0 
    2.2521    1.1088    4.4139 H   0  0  0  0  0  0  0  0  0  0  0  0 
    0.9354    1.2352    3.2232 H   0  0  0  0  0  0  0  0  0  0  0  0 
    2.1288    2.5388    3.3626 H   0  0  0  0  0  0  0  0  0  0  0  0 
    4.6939    0.9133    3.5607 H   0  0  0  0  0  0  0  0  0  0  0  0 
    4.4518    2.2237    2.3894 H   0  0  0  0  0  0  0  0  0  0  0  0 
    4.9923    0.6437    1.8236 H   0  0  0  0  0  0  0  0  0  0  0  0 
    1.2274   -2.5717    0.7491 H   0  0  0  0  0  0  0  0  0  0  0  0 
    2.7824   -3.2752    1.2324 H   0  0  0  0  0  0  0  0  0  0  0  0 
    3.9454   -1.1934    0.6854 H   0  0  0  0  0  0  0  0  0  0  0  0 
    1.6368   -1.0085    2.6671 H   0  0  0  0  0  0  0  0  0  0  0  0 
    2.2660   -3.7329   -0.9924 H   0  0  0  0  0  0  0  0  0  0  0  0 
    4.3949   -1.3772    3.0347 H   0  0  0  0  0  0  0  0  0  0  0  0 
  1  8  1  0  0  0  0 
  1 15  1  0  0  0  0 
  2 17  1  0  0  0  0 
  2  8  1  0  0  0  0 
  3 19  1  0  0  0  0 
  4 22  1  0  0  0  0 
  5 25  1  0  0  0  0 
  5  6  1  0  0  0  0 
  5 26  1  0  0  0  0 
  6 27  1  6  0  0  0 
  6  7  1  0  0  0  0 
  7 28  1  1  0  0  0 
  7 11  1  0  0  0  0 
  8  6  1  0  0  0  0 
  8 12  1  0  0  0  0 
  9  7  1  0  0  0  0 
  9  4  1  0  0  0  0 
  9  3  1  0  0  0  0 
 10  5  1  0  0  0  0 
 12  9  1  0  0  0  0 
 13  1  1  0  0  0  0 
 14  1  1  0  0  0  0 
 16  2  1  0  0  0  0 
 18  2  1  0  0  0  0 
 20  3  1  0  0  0  0 
 21  3  1  0  0  0  0 
 23  4  1  0  0  0  0 
 24  4  1  0  0  0  0 
 29 10  1  0  0  0  0 
 30 11  1  0  0  0  0 
M  END 
>  <HBA> 
3 
 
>  <HBD> 
2 
 
>  <TPSA> 
49.69 
 
>  <cid> 
34725 
 
>  <dipole> 
1.61 
 
>  <excitation_energy_1> 
5.995 
 
>  <excitation_energy_2> 
6.075 
 
>  <excitation_energy_3> 
6.416 
 
>  <excitation_energy_4> 
6.443 
 
>  <homo_energy> 
-6.468 
 
>  <homo_lumo_gap> 
8.169 
 
>  <logP> 
0.543 
 
>  <lumo_energy> 
1.701 
 
>  <melting_point> 
44.36 
 
>  <molecular_refractivity> 
46.75 
 
>  <oscillator_strength_1> 
0.0208 
 
>  <oscillator_strength_2> 
0.0034 
 
>  <oscillator_strength_3> 
0.0005 
 
>  <oscillator_strength_4> 
0.0161 
 
>  <open_babel_can_smiles> 
OC[C@@H]1[C@@H](O)C(OC1(C)C)(C)C 
 
>  <mulliken_charges> 
30 
1   -0.46406 
2   -0.455405 
3   -0.460064 
4   -0.48671 
5   -0.035634 
6   -0.169691 
7   0.082961 
8   0.353973 
9   0.353698 
10   -0.623088 
11   -0.628318 
12   -0.556052 
13   0.151773 
14   0.153468 
15   0.136869 
16   0.165392 
17   0.137463 
18   0.144328 
19   0.148812 
20   0.145547 
21   0.150016 
22   0.145542 
23   0.162443 
24   0.136602 
25   0.12334 
26   0.135799 
27   0.12679 
28   0.136094 
29   0.394986 
30   0.393127 
 
>  <lowdin_charges> 
30 
1   -0.456493 
2   -0.448488 
3   -0.443544 
4   -0.463915 
5   -0.134078 
6   -0.159874 
7   -0.017418 
8   0.13467 
9   0.114091 
10   -0.473934 
11   -0.44735 
12   -0.282166 
13   0.15602 
14   0.158631 
15   0.145574 
16   0.163408 
17   0.146868 
18   0.152541 
19   0.154462 
20   0.150867 
21   0.153169 
22   0.150859 
23   0.161946 
24   0.145705 
25   0.126974 
26   0.138207 
27   0.142276 
28   0.144118 
29   0.3457 
30   0.341175 
 
$$$$ 
 
