PCCDB-ID:  49658 
public computational chemistry database (PCCDB) project, http://pccdb.org 
 
 23 23  0  0  0  0  0  0  0  0999 V2000 
   -0.9265   -0.5633   -0.9081 C   0  0  0  0  0  0  0  0  0  0  0  0 
   -0.8407   -0.2657    0.4531 C   0  0  0  0  0  0  0  0  0  0  0  0 
    0.2381   -0.8482   -1.6229 C   0  0  0  0  0  0  0  0  0  0  0  0 
    0.3962   -0.2662    1.0976 C   0  0  0  0  0  0  0  0  0  0  0  0 
    1.4841   -0.8274   -0.9934 C   0  0  0  0  0  0  0  0  0  0  0  0 
    5.3188   -1.3148   -0.3013 C   0  0  0  0  0  0  0  0  0  0  0  0 
    4.1436   -1.8065    0.5423 C   0  0  0  0  0  0  0  0  0  0  0  0 
    1.5670   -0.5447    0.3778 C   0  0  0  0  0  0  0  0  0  0  0  0 
    5.9859   -0.1688   -2.2644 N   0  0  0  0  0  0  0  0  0  0  0  0 
    4.8629   -0.5531   -1.4597 N   0  0  0  0  0  0  0  0  0  0  0  0 
    3.1172   -0.4503    1.2768 S   0  0  0  0  0  0  0  0  0  0  0  0 
   -1.8918   -0.5738   -1.4066 H   0  0  0  0  0  0  0  0  0  0  0  0 
   -1.7407   -0.0505    1.0232 H   0  0  0  0  0  0  0  0  0  0  0  0 
    0.1836   -1.0754   -2.6846 H   0  0  0  0  0  0  0  0  0  0  0  0 
    0.4560   -0.0642    2.1633 H   0  0  0  0  0  0  0  0  0  0  0  0 
    2.3861   -1.0205   -1.5671 H   0  0  0  0  0  0  0  0  0  0  0  0 
    5.8712   -2.1826   -0.6786 H   0  0  0  0  0  0  0  0  0  0  0  0 
    6.0188   -0.7441    0.3372 H   0  0  0  0  0  0  0  0  0  0  0  0 
    4.5217   -2.3920    1.3859 H   0  0  0  0  0  0  0  0  0  0  0  0 
    3.4796   -2.4464   -0.0437 H   0  0  0  0  0  0  0  0  0  0  0  0 
    6.4016    0.7030   -1.9235 H   0  0  0  0  0  0  0  0  0  0  0  0 
    5.6332    0.0130   -3.2010 H   0  0  0  0  0  0  0  0  0  0  0  0 
    4.3576    0.2679   -1.1175 H   0  0  0  0  0  0  0  0  0  0  0  0 
  1  2  2  0  0  0  0 
  2 13  1  0  0  0  0 
  2  4  1  0  0  0  0 
  3  5  2  0  0  0  0 
  3  1  1  0  0  0  0 
  4 15  1  0  0  0  0 
  5  8  1  0  0  0  0 
  6 18  1  0  0  0  0 
  6  7  1  0  0  0  0 
  7 11  1  0  0  0  0 
  7 19  1  0  0  0  0 
  8  4  2  0  0  0  0 
  8 11  1  0  0  0  0 
  9 21  1  0  0  0  0 
  9 10  1  0  0  0  0 
 10 23  1  0  0  0  0 
 10  6  1  0  0  0  0 
 12  1  1  0  0  0  0 
 14  3  1  0  0  0  0 
 16  5  1  0  0  0  0 
 17  6  1  0  0  0  0 
 20  7  1  0  0  0  0 
 22  9  1  0  0  0  0 
M  END 
>  <HBA> 
3 
 
>  <HBD> 
2 
 
>  <TPSA> 
63.35 
 
>  <cid> 
49658 
 
>  <dipole> 
1.01 
 
>  <excitation_energy_1> 
4.634 
 
>  <excitation_energy_2> 
4.763 
 
>  <excitation_energy_3> 
5.234 
 
>  <excitation_energy_4> 
5.368 
 
>  <homo_energy> 
-5.72 
 
>  <homo_lumo_gap> 
5.551 
 
>  <logP> 
2.333 
 
>  <lumo_energy> 
-0.169 
 
>  <melting_point> 
96.89 
 
>  <molecular_refractivity> 
48.48 
 
>  <oscillator_strength_1> 
0.0446 
 
>  <oscillator_strength_2> 
0.1147 
 
>  <oscillator_strength_3> 
0.015 
 
>  <oscillator_strength_4> 
0.0143 
 
>  <open_babel_can_smiles> 
NNCCSc1ccccc1 
 
>  <mulliken_charges> 
23 
1   -0.133538 
2   -0.120267 
3   -0.122829 
4   -0.155367 
5   -0.177173 
6   -0.0882 
7   -0.441186 
8   -0.080981 
9   -0.584363 
10   -0.465224 
11   0.083348 
12   0.129904 
13   0.131996 
14   0.131947 
15   0.143018 
16   0.16975 
17   0.163793 
18   0.120904 
19   0.181451 
20   0.193725 
21   0.289949 
22   0.315535 
23   0.313807 
 
>  <lowdin_charges> 
23 
1   -0.162692 
2   -0.153017 
3   -0.149161 
4   -0.162881 
5   -0.180795 
6   -0.209628 
7   -0.381332 
8   -0.119703 
9   -0.482357 
10   -0.313073 
11   0.122034 
12   0.157926 
13   0.159758 
14   0.157014 
15   0.163819 
16   0.172475 
17   0.159117 
18   0.124142 
19   0.171592 
20   0.176678 
21   0.241136 
22   0.260155 
23   0.248791 
 
$$$$ 
 
