PCCDB-ID:  26393 
public computational chemistry database (PCCDB) project, http://pccdb.org 
 
 34 36  0  0  0  0  0  0  0  0999 V2000 
    1.0444    0.5126   -2.9038 C   0  0  0  0  0  0  0  0  0  0  0  0 
    2.3553    0.8515   -2.5098 C   0  0  0  0  0  0  0  0  0  0  0  0 
   -4.4313   -5.2416   -0.9751 C   0  0  0  0  0  0  0  0  0  0  0  0 
   -4.6797   -4.8084    0.4980 C   0  0  0  0  0  0  0  0  0  0  0  0 
    0.1906   -0.1678   -2.0447 C   0  0  0  0  0  0  0  0  0  0  0  0 
    2.8363    0.5185   -1.2487 C   0  0  0  0  0  0  0  0  0  0  0  0 
   -1.3358   -1.7844    0.4328 C   0  0  0  0  0  0  0  0  0  0  0  0 
   -2.9960   -4.7719   -1.2639 C   0  0  0  0  0  0  0  0  0  0  0  0 
   -3.4027   -4.0365    0.8940 C   0  0  0  0  0  0  0  0  0  0  0  0 
   -1.4580   -3.1252   -0.3175 C   0  0  0  0  0  0  0  0  0  0  0  0 
    1.0035   -1.2283    1.3458 C   0  0  0  0  0  0  0  0  0  0  0  0 
    0.0463   -1.1999    0.3630 C   0  0  0  0  0  0  0  0  0  0  0  0 
    0.6468   -0.5217   -0.7625 C   0  0  0  0  0  0  0  0  0  0  0  0 
    1.9726   -0.1667   -0.3875 C   0  0  0  0  0  0  0  0  0  0  0  0 
    2.1625   -0.6146    0.9033 N   0  0  0  0  0  0  0  0  0  0  0  0 
   -2.8276   -3.6137   -0.3851 N   0  0  0  0  0  0  0  0  0  0  0  0 
    0.6991    0.7914   -3.8957 H   0  0  0  0  0  0  0  0  0  0  0  0 
    3.0006    1.3846   -3.2027 H   0  0  0  0  0  0  0  0  0  0  0  0 
   -5.1362   -4.7400   -1.6452 H   0  0  0  0  0  0  0  0  0  0  0  0 
   -4.5441   -6.3197   -1.1254 H   0  0  0  0  0  0  0  0  0  0  0  0 
   -4.8468   -5.6618    1.1624 H   0  0  0  0  0  0  0  0  0  0  0  0 
   -5.5618   -4.1648    0.5684 H   0  0  0  0  0  0  0  0  0  0  0  0 
   -0.8192   -0.4196   -2.3590 H   0  0  0  0  0  0  0  0  0  0  0  0 
    3.8460    0.7824   -0.9441 H   0  0  0  0  0  0  0  0  0  0  0  0 
   -1.6175   -1.9241    1.4836 H   0  0  0  0  0  0  0  0  0  0  0  0 
   -2.0687   -1.0885    0.0039 H   0  0  0  0  0  0  0  0  0  0  0  0 
   -2.8315   -4.4880   -2.3097 H   0  0  0  0  0  0  0  0  0  0  0  0 
   -2.2727   -5.5778   -1.0205 H   0  0  0  0  0  0  0  0  0  0  0  0 
   -2.7068   -4.7017    1.4468 H   0  0  0  0  0  0  0  0  0  0  0  0 
   -3.6105   -3.1748    1.5364 H   0  0  0  0  0  0  0  0  0  0  0  0 
   -0.7821   -3.8673    0.1565 H   0  0  0  0  0  0  0  0  0  0  0  0 
   -1.0992   -2.9887   -1.3448 H   0  0  0  0  0  0  0  0  0  0  0  0 
    0.9514   -1.6434    2.3437 H   0  0  0  0  0  0  0  0  0  0  0  0 
    3.0013   -0.4923    1.4481 H   0  0  0  0  0  0  0  0  0  0  0  0 
  1  2  2  0  0  0  0 
  1  5  1  0  0  0  0 
  2  6  1  0  0  0  0 
  3  4  1  0  0  0  0 
  4 22  1  0  0  0  0 
  4  9  1  0  0  0  0 
  4 21  1  0  0  0  0 
  5 13  2  0  0  0  0 
  6 24  1  0  0  0  0 
  6 14  2  0  0  0  0 
  7 25  1  0  0  0  0 
  8 28  1  0  0  0  0 
  8  3  1  0  0  0  0 
  8 16  1  0  0  0  0 
  9 29  1  0  0  0  0 
  9 30  1  0  0  0  0 
 10 31  1  0  0  0  0 
 10  7  1  0  0  0  0 
 11 33  1  0  0  0  0 
 12  7  1  0  0  0  0 
 12 11  2  0  0  0  0 
 13 14  1  0  0  0  0 
 13 12  1  0  0  0  0 
 14 15  1  0  0  0  0 
 15 11  1  0  0  0  0 
 15 34  1  0  0  0  0 
 16 10  1  0  0  0  0 
 16  9  1  0  0  0  0 
 17  1  1  0  0  0  0 
 18  2  1  0  0  0  0 
 19  3  1  0  0  0  0 
 20  3  1  0  0  0  0 
 23  5  1  0  0  0  0 
 26  7  1  0  0  0  0 
 27  8  1  0  0  0  0 
 32 10  1  0  0  0  0 
M  END 
>  <HBA> 
1 
 
>  <HBD> 
1 
 
>  <TPSA> 
19.03 
 
>  <cid> 
26393 
 
>  <dipole> 
2.33 
 
>  <excitation_energy_1> 
4.548 
 
>  <excitation_energy_2> 
4.692 
 
>  <excitation_energy_3> 
4.812 
 
>  <excitation_energy_4> 
4.861 
 
>  <homo_energy> 
-5.271 
 
>  <homo_lumo_gap> 
5.225 
 
>  <logP> 
2.744 
 
>  <lumo_energy> 
-0.046 
 
>  <melting_point> 
121.66 
 
>  <molecular_refractivity> 
72.0 
 
>  <oscillator_strength_1> 
0.0676 
 
>  <oscillator_strength_2> 
0.0011 
 
>  <oscillator_strength_3> 
0.0236 
 
>  <oscillator_strength_4> 
0.0031 
 
>  <open_babel_can_smiles> 
C1CCN(C1)CCc1c[nH]c2c1cccc2 
 
>  <mulliken_charges> 
34 
1   -0.140616 
2   -0.151799 
3   -0.278144 
4   -0.283916 
5   -0.211297 
6   -0.163175 
7   -0.353336 
8   -0.113148 
9   -0.116595 
10   -0.102558 
11   -0.005317 
12   0.072492 
13   0.078932 
14   0.312709 
15   -0.691359 
16   -0.400108 
17   0.118733 
18   0.120863 
19   0.146113 
20   0.135582 
21   0.136768 
22   0.145407 
23   0.127317 
24   0.118512 
25   0.138305 
26   0.151792 
27   0.138085 
28   0.106224 
29   0.104354 
30   0.141274 
31   0.106231 
32   0.14311 
33   0.143792 
34   0.324772 
 
>  <lowdin_charges> 
34 
1   -0.176635 
2   -0.166945 
3   -0.284589 
4   -0.286844 
5   -0.163335 
6   -0.187921 
7   -0.272631 
8   -0.200292 
9   -0.206501 
10   -0.199334 
11   -0.136889 
12   -0.059489 
13   -0.035692 
14   0.03181 
15   -0.203663 
16   -0.191249 
17   0.153197 
18   0.156197 
19   0.150494 
20   0.144107 
21   0.146559 
22   0.149448 
23   0.155948 
24   0.153229 
25   0.146498 
26   0.155534 
27   0.142595 
28   0.113482 
29   0.113492 
30   0.145108 
31   0.116395 
32   0.146021 
33   0.161377 
34   0.290518 
 
$$$$ 
 
