PCCDB-ID:  70293 
public computational chemistry database (PCCDB) project, http://pccdb.org 
 
 21 22  0  0  0  0  0  0  0  0999 V2000 
   -1.4276   -0.2440    0.2564 C   0  0  0  0  0  0  0  0  0  0  0  0 
   -0.6758    0.8250    0.7483 C   0  0  0  0  0  0  0  0  0  0  0  0 
   -0.8142   -1.2141   -0.5388 C   0  0  0  0  0  0  0  0  0  0  0  0 
    0.6830    0.9239    0.4459 C   0  0  0  0  0  0  0  0  0  0  0  0 
    0.5448   -1.1157   -0.8413 C   0  0  0  0  0  0  0  0  0  0  0  0 
    3.9238   -0.3288    1.1876 C   0  0  0  0  0  0  0  0  0  0  0  0 
    3.8969   -1.6069    0.3093 C   0  0  0  0  0  0  0  0  0  0  0  0 
    1.3024   -0.0474   -0.3488 C   0  0  0  0  0  0  0  0  0  0  0  0 
    2.7768    0.0908   -0.7215 C   0  0  0  0  0  0  0  0  0  0  0  0 
    3.5366    0.7173    0.2949 O   0  0  0  0  0  0  0  0  0  0  0  0 
    3.3965   -1.1614   -0.9541 O   0  0  0  0  0  0  0  0  0  0  0  0 
   -2.4858   -0.3209    0.4921 H   0  0  0  0  0  0  0  0  0  0  0  0 
   -1.1471    1.5819    1.3701 H   0  0  0  0  0  0  0  0  0  0  0  0 
   -1.3936   -2.0500   -0.9223 H   0  0  0  0  0  0  0  0  0  0  0  0 
    1.2745    1.7490    0.8315 H   0  0  0  0  0  0  0  0  0  0  0  0 
    1.0298   -1.8695   -1.4540 H   0  0  0  0  0  0  0  0  0  0  0  0 
    4.9170   -0.0849    1.5738 H   0  0  0  0  0  0  0  0  0  0  0  0 
    3.2211   -0.4055    2.0273 H   0  0  0  0  0  0  0  0  0  0  0  0 
    3.2443   -2.3772    0.7391 H   0  0  0  0  0  0  0  0  0  0  0  0 
    4.8889   -2.0364    0.1409 H   0  0  0  0  0  0  0  0  0  0  0  0 
    2.8965    0.6894   -1.6315 H   0  0  0  0  0  0  0  0  0  0  0  0 
  1 12  1  0  0  0  0 
  1  2  2  0  0  0  0 
  2 13  1  0  0  0  0 
  3  1  1  0  0  0  0 
  4  2  1  0  0  0  0 
  4 15  1  0  0  0  0 
  5  3  2  0  0  0  0 
  5  8  1  0  0  0  0 
  6 17  1  0  0  0  0 
  6 18  1  0  0  0  0 
  7 19  1  0  0  0  0 
  7  6  1  0  0  0  0 
  8  4  2  0  0  0  0 
  9  8  1  0  0  0  0 
  9 10  1  0  0  0  0 
 10  6  1  0  0  0  0 
 11  9  1  0  0  0  0 
 11  7  1  0  0  0  0 
 14  3  1  0  0  0  0 
 16  5  1  0  0  0  0 
 20  7  1  0  0  0  0 
 21  9  1  0  0  0  0 
M  END 
>  <HBA> 
2 
 
>  <HBD> 
0 
 
>  <TPSA> 
18.46 
 
>  <cid> 
70293 
 
>  <dipole> 
1.59 
 
>  <excitation_energy_1> 
5.315 
 
>  <excitation_energy_2> 
5.92 
 
>  <excitation_energy_3> 
5.958 
 
>  <excitation_energy_4> 
6.154 
 
>  <homo_energy> 
-6.686 
 
>  <homo_lumo_gap> 
6.588 
 
>  <logP> 
1.732 
 
>  <lumo_energy> 
-0.098 
 
>  <melting_point> 
10.5 
 
>  <molecular_refractivity> 
41.08 
 
>  <oscillator_strength_1> 
0.0008 
 
>  <oscillator_strength_2> 
0.024 
 
>  <oscillator_strength_3> 
0.001 
 
>  <oscillator_strength_4> 
0.0015 
 
>  <open_babel_can_smiles> 
C1COC(O1)c1ccccc1 
 
>  <mulliken_charges> 
21 
1   -0.12445 
2   -0.13451 
3   -0.134235 
4   -0.165273 
5   -0.165998 
6   -0.062055 
7   -0.051953 
8   0.078458 
9   0.2769 
10   -0.47774 
11   -0.482751 
12   0.129037 
13   0.129914 
14   0.129819 
15   0.144059 
16   0.144864 
17   0.156764 
18   0.148056 
19   0.146285 
20   0.154289 
21   0.160519 
 
>  <lowdin_charges> 
21 
1   -0.154593 
2   -0.157246 
3   -0.157271 
4   -0.161312 
5   -0.161416 
6   -0.149222 
7   -0.148727 
8   -0.045487 
9   0.101376 
10   -0.258541 
11   -0.262755 
12   0.155744 
13   0.1586 
14   0.158319 
15   0.166448 
16   0.167148 
17   0.154604 
18   0.142299 
19   0.143597 
20   0.15165 
21   0.156785 
 
$$$$ 
 
