PCCDB-ID:  25930 
public computational chemistry database (PCCDB) project, http://pccdb.org 
 
 22 22  0  0  0  0  0  0  0  0999 V2000 
    1.4076   -0.3517    0.6030 C   0  0  0  0  0  0  0  0  0  0  0  0 
    7.8212    1.9195   -0.3185 C   0  0  0  0  0  0  0  0  0  0  0  0 
    4.6484   -2.1013   -0.8585 C   0  0  0  0  0  0  0  0  0  0  0  0 
    2.4660    0.4378    0.4209 C   0  0  0  0  0  0  0  0  0  0  0  0 
    3.1741    0.6210   -0.8982 C   0  0  0  0  0  0  0  0  0  0  0  0 
    6.6277   -0.4129   -0.5402 C   0  0  0  0  0  0  0  0  0  0  0  0 
    6.6483    1.0028   -0.4972 C   0  0  0  0  0  0  0  0  0  0  0  0 
    5.3025   -0.7616   -0.7287 C   0  0  0  0  0  0  0  0  0  0  0  0 
    5.4207    1.5011   -0.6484 N   0  0  0  0  0  0  0  0  0  0  0  0 
    4.6137    0.4174   -0.7989 N   0  0  0  0  0  0  0  0  0  0  0  0 
    0.9144   -0.4341    1.5676 H   0  0  0  0  0  0  0  0  0  0  0  0 
    0.9851   -0.9394   -0.2101 H   0  0  0  0  0  0  0  0  0  0  0  0 
    8.3444    1.7245    0.6257 H   0  0  0  0  0  0  0  0  0  0  0  0 
    7.4826    2.9592   -0.3155 H   0  0  0  0  0  0  0  0  0  0  0  0 
    8.5540    1.7998   -1.1261 H   0  0  0  0  0  0  0  0  0  0  0  0 
    5.3936   -2.8907   -0.7292 H   0  0  0  0  0  0  0  0  0  0  0  0 
    4.1865   -2.2393   -1.8451 H   0  0  0  0  0  0  0  0  0  0  0  0 
    3.8645   -2.2474   -0.1059 H   0  0  0  0  0  0  0  0  0  0  0  0 
    2.8735    1.0172    1.2486 H   0  0  0  0  0  0  0  0  0  0  0  0 
    3.0531    1.6467   -1.2607 H   0  0  0  0  0  0  0  0  0  0  0  0 
    2.7622   -0.0566   -1.6544 H   0  0  0  0  0  0  0  0  0  0  0  0 
    7.4649   -1.0920   -0.4518 H   0  0  0  0  0  0  0  0  0  0  0  0 
  1 11  1  0  0  0  0 
  2 14  1  0  0  0  0 
  2 13  1  0  0  0  0 
  3 16  1  0  0  0  0 
  3  8  1  0  0  0  0 
  3 18  1  0  0  0  0 
  4  1  2  0  0  0  0 
  4 19  1  0  0  0  0 
  5 10  1  0  0  0  0 
  5  4  1  0  0  0  0 
  6  7  1  0  0  0  0 
  6 22  1  0  0  0  0 
  7  2  1  0  0  0  0 
  8  6  2  0  0  0  0 
  9  7  2  0  0  0  0 
 10  8  1  0  0  0  0 
 10  9  1  0  0  0  0 
 12  1  1  0  0  0  0 
 15  2  1  0  0  0  0 
 17  3  1  0  0  0  0 
 20  5  1  0  0  0  0 
 21  5  1  0  0  0  0 
M  END 
>  <HBA> 
2 
 
>  <HBD> 
0 
 
>  <TPSA> 
17.82 
 
>  <cid> 
25930 
 
>  <dipole> 
2.21 
 
>  <excitation_energy_1> 
5.288 
 
>  <excitation_energy_2> 
5.37 
 
>  <excitation_energy_3> 
5.745 
 
>  <excitation_energy_4> 
5.795 
 
>  <homo_energy> 
-6.104 
 
>  <homo_lumo_gap> 
6.28 
 
>  <logP> 
1.686 
 
>  <lumo_energy> 
0.177 
 
>  <melting_point> 
8.74 
 
>  <molecular_refractivity> 
42.56 
 
>  <oscillator_strength_1> 
0.0428 
 
>  <oscillator_strength_2> 
0.0062 
 
>  <oscillator_strength_3> 
0.0036 
 
>  <oscillator_strength_4> 
0.0109 
 
>  <open_babel_can_smiles> 
Cc1cc(nn1CC=C)C 
 
>  <mulliken_charges> 
22 
1   -0.34107 
2   -0.524271 
3   -0.535284 
4   -0.040483 
5   -0.193955 
6   -0.323694 
7   0.331908 
8   0.398005 
9   -0.35901 
10   -0.302551 
11   0.149569 
12   0.139963 
13   0.1553 
14   0.168898 
15   0.156096 
16   0.168718 
17   0.162536 
18   0.173353 
19   0.152696 
20   0.188893 
21   0.155646 
22   0.118738 
 
>  <lowdin_charges> 
22 
1   -0.335526 
2   -0.442606 
3   -0.446723 
4   -0.152876 
5   -0.191956 
6   -0.259958 
7   0.006549 
8   0.017397 
9   -0.182384 
10   0.027988 
11   0.163825 
12   0.156817 
13   0.157748 
14   0.166106 
15   0.158546 
16   0.169905 
17   0.160113 
18   0.167677 
19   0.164942 
20   0.176731 
21   0.156904 
22   0.16078 
 
$$$$ 
 
