PCCDB-ID:  7058 
public computational chemistry database (PCCDB) project, http://pccdb.org 
 
 19 20  0  0  0  0  0  0  0  0999 V2000 
    2.4248    0.7461    0.0094 C   0  0  0  0  0  0  0  0  0  0  0  0 
    2.4436   -0.6706    0.0161 C   0  0  0  0  0  0  0  0  0  0  0  0 
    1.2251    1.4218   -0.0034 C   0  0  0  0  0  0  0  0  0  0  0  0 
    1.2664   -1.3842    0.0101 C   0  0  0  0  0  0  0  0  0  0  0  0 
   -1.2642    1.3746   -0.0228 C   0  0  0  0  0  0  0  0  0  0  0  0 
   -2.4426    0.6667   -0.0280 C   0  0  0  0  0  0  0  0  0  0  0  0 
   -1.2179   -1.4254   -0.0100 C   0  0  0  0  0  0  0  0  0  0  0  0 
   -0.0066    0.7156   -0.0093 C   0  0  0  0  0  0  0  0  0  0  0  0 
    0.0111   -0.7168   -0.0023 C   0  0  0  0  0  0  0  0  0  0  0  0 
   -2.4250   -0.7548   -0.0218 C   0  0  0  0  0  0  0  0  0  0  0  0 
   -3.9330   -1.7155   -0.0213 S   0  0  0  0  0  0  0  0  0  0  0  0 
    3.3614    1.2967    0.0147 H   0  0  0  0  0  0  0  0  0  0  0  0 
    3.3956   -1.1944    0.0258 H   0  0  0  0  0  0  0  0  0  0  0  0 
    1.2046    2.5092   -0.0076 H   0  0  0  0  0  0  0  0  0  0  0  0 
    1.2812   -2.4715    0.0162 H   0  0  0  0  0  0  0  0  0  0  0  0 
   -1.2879    2.4619   -0.0271 H   0  0  0  0  0  0  0  0  0  0  0  0 
   -3.3914    1.1961   -0.0356 H   0  0  0  0  0  0  0  0  0  0  0  0 
   -1.1927   -2.5125   -0.0056 H   0  0  0  0  0  0  0  0  0  0  0  0 
   -4.7875   -0.6741   -0.0801 H   0  0  0  0  0  0  0  0  0  0  0  0 
  1 12  1  0  0  0  0 
  1  2  2  0  0  0  0 
  2 13  1  0  0  0  0 
  3  1  1  0  0  0  0 
  4  2  1  0  0  0  0 
  4 15  1  0  0  0  0 
  5  8  1  0  0  0  0 
  6  5  2  0  0  0  0 
  6 10  1  0  0  0  0 
  7 18  1  0  0  0  0 
  7  9  1  0  0  0  0 
  8  3  2  0  0  0  0 
  8  9  1  0  0  0  0 
  9  4  2  0  0  0  0 
 10 11  1  0  0  0  0 
 10  7  2  0  0  0  0 
 14  3  1  0  0  0  0 
 16  5  1  0  0  0  0 
 17  6  1  0  0  0  0 
 19 11  1  0  0  0  0 
M  END 
>  <HBA> 
1 
 
>  <HBD> 
1 
 
>  <TPSA> 
38.8 
 
>  <cid> 
7058 
 
>  <dipole> 
1.34 
 
>  <excitation_energy_1> 
3.95 
 
>  <excitation_energy_2> 
4.353 
 
>  <excitation_energy_3> 
4.594 
 
>  <excitation_energy_4> 
5.135 
 
>  <homo_energy> 
-5.644 
 
>  <homo_lumo_gap> 
4.539 
 
>  <logP> 
3.128 
 
>  <lumo_energy> 
-1.105 
 
>  <melting_point> 
73.42 
 
>  <molecular_refractivity> 
51.2 
 
>  <oscillator_strength_1> 
0.0403 
 
>  <oscillator_strength_2> 
0.0274 
 
>  <oscillator_strength_3> 
0.0023 
 
>  <oscillator_strength_4> 
0.7104 
 
>  <open_babel_can_smiles> 
Sc1ccc2c(c1)cccc2 
 
>  <mulliken_charges> 
19 
1   -0.136508 
2   -0.134059 
3   -0.189609 
4   -0.19199 
5   -0.179306 
6   -0.158303 
7   -0.23172 
8   0.130045 
9   0.149779 
10   -0.060354 
11   -0.023458 
12   0.130964 
13   0.131791 
14   0.130531 
15   0.131919 
16   0.135062 
17   0.129221 
18   0.14105 
19   0.094943 
 
>  <lowdin_charges> 
19 
1   -0.161452 
2   -0.154888 
3   -0.151872 
4   -0.155876 
5   -0.144877 
6   -0.171849 
7   -0.171351 
8   -0.006058 
9   0.006974 
10   -0.112338 
11   -0.008439 
12   0.159444 
13   0.159599 
14   0.155785 
15   0.156553 
16   0.158754 
17   0.159088 
18   0.16216 
19   0.12064 
 
$$$$ 
 
