PCCDB-ID:  10901 
public computational chemistry database (PCCDB) project, http://pccdb.org 
 
  8  7  0  0  0  0  0  0  0  0999 V2000 
    1.0805   -0.1131    0.0362 C   0  0  0  0  0  0  0  0  0  0  0  0 
    0.6046    0.8605   -0.9601 C   0  0  0  0  0  0  0  0  0  0  0  0 
    2.5438   -0.1203    0.0967 N   0  0  0  0  0  0  0  0  0  0  0  0 
    0.2225    1.6030   -1.7654 N   0  0  0  0  0  0  0  0  0  0  0  0 
    0.6081   -1.0829   -0.2002 H   0  0  0  0  0  0  0  0  0  0  0  0 
    0.6953    0.1936    1.0158 H   0  0  0  0  0  0  0  0  0  0  0  0 
    2.9258   -0.4900   -0.7717 H   0  0  0  0  0  0  0  0  0  0  0  0 
    2.8414   -0.7466    0.8419 H   0  0  0  0  0  0  0  0  0  0  0  0 
  1  3  1  0  0  0  0 
  1  6  1  0  0  0  0 
  2  1  1  0  0  0  0 
  3  8  1  0  0  0  0 
  4  2  3  0  0  0  0 
  5  1  1  0  0  0  0 
  7  3  1  0  0  0  0 
M  END 
>  <HBA> 
2 
 
>  <HBD> 
1 
 
>  <TPSA> 
49.81 
 
>  <cid> 
10901 
 
>  <dipole> 
4.56 
 
>  <excitation_energy_1> 
5.772 
 
>  <excitation_energy_2> 
6.869 
 
>  <excitation_energy_3> 
7.142 
 
>  <excitation_energy_4> 
7.276 
 
>  <homo_energy> 
-7.246 
 
>  <homo_lumo_gap> 
7.666 
 
>  <logP> 
0.169 
 
>  <lumo_energy> 
0.419 
 
>  <melting_point> 
64.24 
 
>  <molecular_refractivity> 
14.18 
 
>  <oscillator_strength_1> 
0.0103 
 
>  <oscillator_strength_2> 
0.0226 
 
>  <oscillator_strength_3> 
0.0082 
 
>  <oscillator_strength_4> 
0.009 
 
>  <open_babel_can_smiles> 
NCC#N 
 
>  <mulliken_charges> 
8 
1   -0.212774 
2   0.367301 
3   -0.699172 
4   -0.460045 
5   0.174345 
6   0.200412 
7   0.316022 
8   0.313911 
 
>  <lowdin_charges> 
8 
1   -0.199687 
2   -0.01584 
3   -0.539694 
4   -0.116178 
5   0.156507 
6   0.181749 
7   0.266794 
8   0.266348 
 
$$$$ 
 
