PCCDB-ID:  55158 
public computational chemistry database (PCCDB) project, http://pccdb.org 
 
 26 27  0  0  0  0  0  0  0  0999 V2000 
    2.0223    0.8920    0.5502 C   0  0  0  0  0  0  0  0  0  0  0  0 
    4.4233    1.0872   -3.4830 C   0  0  0  0  0  0  0  0  0  0  0  0 
    4.1932    2.4330   -3.7487 C   0  0  0  0  0  0  0  0  0  0  0  0 
    4.1042    0.5647   -2.2279 C   0  0  0  0  0  0  0  0  0  0  0  0 
    3.4641    4.6967   -2.9452 C   0  0  0  0  0  0  0  0  0  0  0  0 
    2.1203    4.7020   -0.8928 C   0  0  0  0  0  0  0  0  0  0  0  0 
    3.6423    3.2648   -2.7621 C   0  0  0  0  0  0  0  0  0  0  0  0 
    2.7860    5.4276   -2.0382 C   0  0  0  0  0  0  0  0  0  0  0  0 
    3.5553    1.3701   -1.2252 C   0  0  0  0  0  0  0  0  0  0  0  0 
    3.3176    2.7288   -1.4976 C   0  0  0  0  0  0  0  0  0  0  0  0 
    2.5110    6.8847   -2.1329 C   0  0  0  0  0  0  0  0  0  0  0  0 
    3.2845    7.6167   -3.0077 N   0  0  0  0  0  0  0  0  0  0  0  0 
    1.6009    7.3947   -1.4849 O   0  0  0  0  0  0  0  0  0  0  0  0 
    3.3408    0.8010    0.0021 O   0  0  0  0  0  0  0  0  0  0  0  0 
    2.8589    3.5330   -0.4934 O   0  0  0  0  0  0  0  0  0  0  0  0 
    2.0152    0.2247    1.4150 H   0  0  0  0  0  0  0  0  0  0  0  0 
    1.2736    0.5500   -0.1764 H   0  0  0  0  0  0  0  0  0  0  0  0 
    1.7869    1.9110    0.8667 H   0  0  0  0  0  0  0  0  0  0  0  0 
    4.8477    0.4418   -4.2460 H   0  0  0  0  0  0  0  0  0  0  0  0 
    4.4453    2.8573   -4.7173 H   0  0  0  0  0  0  0  0  0  0  0  0 
    4.2735   -0.4817   -1.9935 H   0  0  0  0  0  0  0  0  0  0  0  0 
    3.8912    5.1509   -3.8365 H   0  0  0  0  0  0  0  0  0  0  0  0 
    1.0948    4.4053   -1.1657 H   0  0  0  0  0  0  0  0  0  0  0  0 
    2.0584    5.3319   -0.0051 H   0  0  0  0  0  0  0  0  0  0  0  0 
    4.2234    7.3089   -3.2179 H   0  0  0  0  0  0  0  0  0  0  0  0 
    3.1487    8.6181   -2.9563 H   0  0  0  0  0  0  0  0  0  0  0  0 
  1 18  1  0  0  0  0 
  1 16  1  0  0  0  0 
  2  4  1  0  0  0  0 
  3  2  2  0  0  0  0 
  3  7  1  0  0  0  0 
  4 21  1  0  0  0  0 
  4  9  2  0  0  0  0 
  5  7  1  0  0  0  0 
  5  8  2  0  0  0  0 
  6 15  1  0  0  0  0 
  6 24  1  0  0  0  0 
  7 10  2  0  0  0  0 
  8  6  1  0  0  0  0 
  9 14  1  0  0  0  0 
 10  9  1  0  0  0  0 
 10 15  1  0  0  0  0 
 11  8  1  0  0  0  0 
 11 13  2  0  0  0  0 
 12 26  1  0  0  0  0 
 12 11  1  0  0  0  0 
 14  1  1  0  0  0  0 
 17  1  1  0  0  0  0 
 19  2  1  0  0  0  0 
 20  3  1  0  0  0  0 
 22  5  1  0  0  0  0 
 23  6  1  0  0  0  0 
 25 12  1  0  0  0  0 
M  END 
>  <HBA> 
4 
 
>  <HBD> 
1 
 
>  <TPSA> 
61.55 
 
>  <cid> 
55158 
 
>  <dipole> 
2.67 
 
>  <excitation_energy_1> 
3.464 
 
>  <excitation_energy_2> 
4.064 
 
>  <excitation_energy_3> 
4.188 
 
>  <excitation_energy_4> 
5.065 
 
>  <homo_energy> 
-5.859 
 
>  <homo_lumo_gap> 
4.18 
 
>  <logP> 
1.657 
 
>  <lumo_energy> 
-1.679 
 
>  <melting_point> 
140.03 
 
>  <molecular_refractivity> 
55.12 
 
>  <oscillator_strength_1> 
0.0647 
 
>  <oscillator_strength_2> 
0.2924 
 
>  <oscillator_strength_3> 
0.0033 
 
>  <oscillator_strength_4> 
0.0118 
 
>  <open_babel_can_smiles> 
COc1cccc2c1OCC(=C2)C(=O)N 
 
>  <mulliken_charges> 
26 
1   -0.214756 
2   -0.140515 
3   -0.202856 
4   -0.172547 
5   -0.184929 
6   -0.090169 
7   0.126691 
8   0.018547 
9   0.312972 
10   0.276629 
11   0.54776 
12   -0.753243 
13   -0.508137 
14   -0.520657 
15   -0.527289 
16   0.160674 
17   0.140626 
18   0.171163 
19   0.133084 
20   0.129331 
21   0.142252 
22   0.138535 
23   0.159574 
24   0.183873 
25   0.332386 
26   0.341 
 
>  <lowdin_charges> 
26 
1   -0.276908 
2   -0.168738 
3   -0.160434 
4   -0.160582 
5   -0.136283 
6   -0.113467 
7   -0.042454 
8   -0.068029 
9   0.07221 
10   0.078732 
11   0.162815 
12   -0.468879 
13   -0.302907 
14   -0.218516 
15   -0.196003 
16   0.157508 
17   0.141765 
18   0.153095 
19   0.162476 
20   0.15831 
21   0.168348 
22   0.162958 
23   0.147726 
24   0.173993 
25   0.284086 
26   0.289176 
 
$$$$ 
 
