PCCDB-ID:  29871 
public computational chemistry database (PCCDB) project, http://pccdb.org 
 
 25 25  0  0  1  0  0  0  0  0999 V2000 
    1.4756    0.6382   -0.4953 C   0  0  0  0  0  0  0  0  0  0  0  0 
    1.4046   -1.9629    2.1626 C   0  0  0  0  0  0  0  0  0  0  0  0 
    2.2558   -0.4399   -0.4148 C   0  0  0  0  0  0  0  0  0  0  0  0 
    2.7637   -2.0653    1.4648 C   0  0  0  0  0  0  0  0  0  0  0  0 
    7.3201   -0.9489   -0.6004 C   0  0  0  0  0  0  0  0  0  0  0  0 
    6.3899   -1.8779   -1.0710 C   0  0  0  0  0  0  0  0  0  0  0  0 
    6.9095    0.0376    0.2966 C   0  0  0  0  0  0  0  0  0  0  0  0 
    5.0626   -1.8203   -0.6457 C   0  0  0  0  0  0  0  0  0  0  0  0 
    5.5797    0.0919    0.7178 C   0  0  0  0  0  0  0  0  0  0  0  0 
    3.1871   -0.7625    0.7335 C   0  0  1  0  0  0  0  0  0  0  0  0 
    4.6361   -0.8349    0.2572 C   0  0  0  0  0  0  0  0  0  0  0  0 
    0.8291    0.8147   -1.3510 H   0  0  0  0  0  0  0  0  0  0  0  0 
    1.4566    1.3911    0.2903 H   0  0  0  0  0  0  0  0  0  0  0  0 
    1.1425   -2.9092    2.6490 H   0  0  0  0  0  0  0  0  0  0  0  0 
    0.6085   -1.7134    1.4534 H   0  0  0  0  0  0  0  0  0  0  0  0 
    1.4157   -1.1838    2.9351 H   0  0  0  0  0  0  0  0  0  0  0  0 
    2.2450   -1.1651   -1.2305 H   0  0  0  0  0  0  0  0  0  0  0  0 
    2.7471   -2.8943    0.7443 H   0  0  0  0  0  0  0  0  0  0  0  0 
    3.5412   -2.3137    2.1984 H   0  0  0  0  0  0  0  0  0  0  0  0 
    8.3546   -0.9940   -0.9303 H   0  0  0  0  0  0  0  0  0  0  0  0 
    6.6981   -2.6509   -1.7704 H   0  0  0  0  0  0  0  0  0  0  0  0 
    7.6237    0.7671    0.6700 H   0  0  0  0  0  0  0  0  0  0  0  0 
    4.3527   -2.5525   -1.0228 H   0  0  0  0  0  0  0  0  0  0  0  0 
    5.2678    0.8670    1.4144 H   0  0  0  0  0  0  0  0  0  0  0  0 
    3.1186    0.0586    1.4603 H   0  0  0  0  0  0  0  0  0  0  0  0 
  1  3  2  0  0  0  0 
  1 13  1  0  0  0  0 
  2 14  1  0  0  0  0 
  2 16  1  0  0  0  0 
  3 10  1  0  0  0  0 
  4  2  1  0  0  0  0 
  4 19  1  0  0  0  0 
  5  7  2  0  0  0  0 
  6  8  2  0  0  0  0 
  6  5  1  0  0  0  0 
  7 22  1  0  0  0  0 
  7  9  1  0  0  0  0 
  8 11  1  0  0  0  0 
  9 24  1  0  0  0  0 
 10 25  1  1  0  0  0 
 10  4  1  0  0  0  0 
 11  9  2  0  0  0  0 
 11 10  1  0  0  0  0 
 12  1  1  0  0  0  0 
 15  2  1  0  0  0  0 
 17  3  1  0  0  0  0 
 18  4  1  0  0  0  0 
 20  5  1  0  0  0  0 
 21  6  1  0  0  0  0 
 23  8  1  0  0  0  0 
M  END 
>  <HBA> 
0 
 
>  <HBD> 
0 
 
>  <TPSA> 
0.0 
 
>  <cid> 
29871 
 
>  <dipole> 
0.22 
 
>  <excitation_energy_1> 
5.274 
 
>  <excitation_energy_2> 
5.744 
 
>  <excitation_energy_3> 
6.038 
 
>  <excitation_energy_4> 
6.055 
 
>  <homo_energy> 
-6.427 
 
>  <homo_lumo_gap> 
6.422 
 
>  <logP> 
3.366 
 
>  <lumo_energy> 
-0.005 
 
>  <melting_point> 
-16.1 
 
>  <molecular_refractivity> 
50.16 
 
>  <oscillator_strength_1> 
0.0013 
 
>  <oscillator_strength_2> 
0.117 
 
>  <oscillator_strength_3> 
0.0056 
 
>  <oscillator_strength_4> 
0.0081 
 
>  <open_babel_can_smiles> 
CC[C@@H](c1ccccc1)C=C 
 
>  <mulliken_charges> 
25 
1   -0.344081 
2   -0.444849 
3   -0.029812 
4   -0.252427 
5   -0.130665 
6   -0.130141 
7   -0.126634 
8   -0.182976 
9   -0.188775 
10   -0.215552 
11   0.179339 
12   0.139448 
13   0.135591 
14   0.142554 
15   0.153881 
16   0.140184 
17   0.124682 
18   0.13251 
19   0.141808 
20   0.127103 
21   0.127509 
22   0.127625 
23   0.123681 
24   0.123347 
25   0.126648 
 
>  <lowdin_charges> 
25 
1   -0.344356 
2   -0.449132 
3   -0.139277 
4   -0.271412 
5   -0.160386 
6   -0.154682 
7   -0.156316 
8   -0.168997 
9   -0.167689 
10   -0.122438 
11   0.004293 
12   0.159124 
13   0.154443 
14   0.150642 
15   0.154502 
16   0.146599 
17   0.150412 
18   0.141055 
19   0.148338 
20   0.155432 
21   0.157124 
22   0.15795 
23   0.154556 
24   0.154687 
25   0.145526 
 
$$$$ 
 
