PCCDB-ID:  40828 
public computational chemistry database (PCCDB) project, http://pccdb.org 
 
 25 24  0  0  1  0  0  0  0  0999 V2000 
    2.3048   -0.1427    0.5424 C   0  0  0  0  0  0  0  0  0  0  0  0 
   -0.1816    3.8925   -2.7876 C   0  0  0  0  0  0  0  0  0  0  0  0 
    3.5510    1.8717   -0.3981 C   0  0  0  0  0  0  0  0  0  0  0  0 
    1.8804    3.5461   -1.3845 C   0  0  0  0  0  0  0  0  0  0  0  0 
    2.9945    0.4677   -0.6778 C   0  0  1  0  0  0  0  0  0  0  0  0 
    0.3715    3.2631   -1.5149 C   0  0  2  0  0  0  0  0  0  0  0  0 
    2.4237    3.4278    0.9943 N   0  0  0  0  0  0  0  0  0  0  0  0 
    2.5261    2.8985   -0.2373 N   0  0  0  0  0  0  0  0  0  0  0  0 
    4.1405   -0.2919   -1.0644 O   0  0  0  0  0  0  0  0  0  0  0  0 
    0.1078    1.8589   -1.5928 O   0  0  0  0  0  0  0  0  0  0  0  0 
    1.6510    4.3796    1.0823 O   0  0  0  0  0  0  0  0  0  0  0  0 
    1.4913    0.4944    0.9089 H   0  0  0  0  0  0  0  0  0  0  0  0 
    3.0247   -0.2693    1.3585 H   0  0  0  0  0  0  0  0  0  0  0  0 
    1.8780   -1.1244    0.3019 H   0  0  0  0  0  0  0  0  0  0  0  0 
   -0.0145    4.9748   -2.7958 H   0  0  0  0  0  0  0  0  0  0  0  0 
   -1.2565    3.7047   -2.8605 H   0  0  0  0  0  0  0  0  0  0  0  0 
    0.3009    3.4565   -3.6701 H   0  0  0  0  0  0  0  0  0  0  0  0 
    4.2154    2.1512   -1.2237 H   0  0  0  0  0  0  0  0  0  0  0  0 
    4.1381    1.8613    0.5241 H   0  0  0  0  0  0  0  0  0  0  0  0 
    2.0322    4.6269   -1.2789 H   0  0  0  0  0  0  0  0  0  0  0  0 
    2.3955    3.1941   -2.2829 H   0  0  0  0  0  0  0  0  0  0  0  0 
    2.2782    0.5348   -1.5100 H   0  0  0  0  0  0  0  0  0  0  0  0 
   -0.1344    3.6914   -0.6417 H   0  0  0  0  0  0  0  0  0  0  0  0 
    3.8483   -1.1993   -1.2405 H   0  0  0  0  0  0  0  0  0  0  0  0 
    0.1660    1.4993   -0.6950 H   0  0  0  0  0  0  0  0  0  0  0  0 
  1 12  1  0  0  0  0 
  1 13  1  0  0  0  0 
  2  6  1  0  0  0  0 
  3  8  1  0  0  0  0 
  3 19  1  0  0  0  0 
  4 20  1  0  0  0  0 
  4  8  1  0  0  0  0 
  5 22  1  6  0  0  0 
  5  3  1  0  0  0  0 
  5  1  1  0  0  0  0 
  6  4  1  0  0  0  0 
  6 23  1  1  0  0  0 
  7 11  1  0  0  0  0 
  8  7  1  0  0  0  0 
  9  5  1  0  0  0  0 
 10  6  1  0  0  0  0 
 10 25  1  0  0  0  0 
 14  1  1  0  0  0  0 
 15  2  1  0  0  0  0 
 16  2  1  0  0  0  0 
 17  2  1  0  0  0  0 
 18  3  1  0  0  0  0 
 21  4  1  0  0  0  0 
 24  9  1  0  0  0  0 
M  RAD  2   7   2  11   2 
M  END 
>  <HBA> 
5 
 
>  <HBD> 
2 
 
>  <TPSA> 
73.13 
 
>  <cid> 
40828 
 
>  <dipole> 
2.68 
 
>  <excitation_energy_1> 
3.319 
 
>  <excitation_energy_2> 
5.393 
 
>  <excitation_energy_3> 
5.636 
 
>  <excitation_energy_4> 
5.796 
 
>  <homo_energy> 
-6.202 
 
>  <homo_lumo_gap> 
5.17 
 
>  <logP> 
-0.269 
 
>  <lumo_energy> 
-1.031 
 
>  <melting_point> 
32.36 
 
>  <molecular_refractivity> 
40.91 
 
>  <oscillator_strength_1> 
0.0011 
 
>  <oscillator_strength_2> 
0.0581 
 
>  <oscillator_strength_3> 
0.0006 
 
>  <oscillator_strength_4> 
0.0327 
 
>  <open_babel_can_smiles> 
[O][N]N(C[C@H](O)C)C[C@@H](O)C 
 
>  <mulliken_charges> 
25 
1   -0.473833 
2   -0.448735 
3   -0.146197 
4   -0.138707 
5   0.125443 
6   0.112433 
7   0.149807 
8   -0.247065 
9   -0.62959 
10   -0.622983 
11   -0.381271 
12   0.143994 
13   0.166143 
14   0.14436 
15   0.149935 
16   0.164137 
17   0.152918 
18   0.170515 
19   0.182198 
20   0.172312 
21   0.157205 
22   0.144695 
23   0.155018 
24   0.394688 
25   0.40258 
 
>  <lowdin_charges> 
25 
1   -0.46541 
2   -0.44478 
3   -0.207342 
4   -0.230191 
5   -0.018621 
6   -0.005777 
7   0.049785 
8   -0.043902 
9   -0.463801 
10   -0.466546 
11   -0.2727 
12   0.152159 
13   0.161802 
14   0.150461 
15   0.154935 
16   0.162112 
17   0.155568 
18   0.161992 
19   0.170358 
20   0.165323 
21   0.160843 
22   0.138375 
23   0.146548 
24   0.346081 
25   0.342731 
 
$$$$ 
 
