PCCDB-ID:  18988 
public computational chemistry database (PCCDB) project, http://pccdb.org 
 
 18 17  0  0  0  0  0  0  0  0999 V2000 
   -2.1328    0.3665   -2.2143 C   0  0  0  0  0  0  0  0  0  0  0  0 
   -1.3966   -0.1002    0.0973 C   0  0  0  0  0  0  0  0  0  0  0  0 
    1.8474    1.6293   -3.1623 C   0  0  0  0  0  0  0  0  0  0  0  0 
    0.2205    0.8201   -1.4346 C   0  0  0  0  0  0  0  0  0  0  0  0 
   -0.4332    2.4902   -3.0243 N   0  0  0  0  0  0  0  0  0  0  0  0 
   -1.0716    0.4495   -1.2147 N   0  0  0  0  0  0  0  0  0  0  0  0 
    0.4833    1.5610   -2.6393 N   0  0  0  0  0  0  0  0  0  0  0  0 
    1.1507    0.5728   -0.6799 O   0  0  0  0  0  0  0  0  0  0  0  0 
   -0.0345    3.2413   -3.9000 O   0  0  0  0  0  0  0  0  0  0  0  0 
   -2.6568   -0.5873   -2.0807 H   0  0  0  0  0  0  0  0  0  0  0  0 
   -1.7218    0.3941   -3.2221 H   0  0  0  0  0  0  0  0  0  0  0  0 
   -2.8532    1.1851   -2.1099 H   0  0  0  0  0  0  0  0  0  0  0  0 
   -2.3373    0.3362    0.4517 H   0  0  0  0  0  0  0  0  0  0  0  0 
   -0.5947    0.1371    0.7944 H   0  0  0  0  0  0  0  0  0  0  0  0 
   -1.5127   -1.1913    0.0489 H   0  0  0  0  0  0  0  0  0  0  0  0 
    2.4274    0.8469   -2.6792 H   0  0  0  0  0  0  0  0  0  0  0  0 
    2.2849    2.6087   -2.9464 H   0  0  0  0  0  0  0  0  0  0  0  0 
    1.8231    1.4936   -4.2460 H   0  0  0  0  0  0  0  0  0  0  0  0 
  1 12  1  0  0  0  0 
  1 10  1  0  0  0  0 
  1  6  1  0  0  0  0 
  2 13  1  0  0  0  0 
  2 14  1  0  0  0  0 
  3 17  1  0  0  0  0 
  3 16  1  0  0  0  0 
  3  7  1  0  0  0  0 
  4  6  1  0  0  0  0 
  4  8  2  0  0  0  0 
  5  7  1  0  0  0  0 
  6  2  1  0  0  0  0 
  7  4  1  0  0  0  0 
  9  5  1  0  0  0  0 
 11  1  1  0  0  0  0 
 15  2  1  0  0  0  0 
 18  3  1  0  0  0  0 
M  RAD  2   5   2   9   2 
M  END 
>  <HBA> 
5 
 
>  <HBD> 
0 
 
>  <TPSA> 
52.98 
 
>  <cid> 
18988 
 
>  <dipole> 
2.76 
 
>  <excitation_energy_1> 
3.121 
 
>  <excitation_energy_2> 
4.396 
 
>  <excitation_energy_3> 
5.013 
 
>  <excitation_energy_4> 
5.751 
 
>  <homo_energy> 
-6.534 
 
>  <homo_lumo_gap> 
4.969 
 
>  <logP> 
0.281 
 
>  <lumo_energy> 
-1.565 
 
>  <melting_point> 
30.81 
 
>  <molecular_refractivity> 
32.46 
 
>  <oscillator_strength_1> 
0.0011 
 
>  <oscillator_strength_2> 
0.0121 
 
>  <oscillator_strength_3> 
0.0323 
 
>  <oscillator_strength_4> 
0.1235 
 
>  <open_babel_can_smiles> 
[O][N]N(C(=O)N(C)C)C 
 
>  <mulliken_charges> 
18 
1   -0.309311 
2   -0.319109 
3   -0.314712 
4   0.755092 
5   0.157849 
6   -0.405143 
7   -0.31607 
8   -0.509436 
9   -0.344554 
10   0.156943 
11   0.179847 
12   0.178139 
13   0.160697 
14   0.203805 
15   0.160687 
16   0.199027 
17   0.186339 
18   0.17991 
 
>  <lowdin_charges> 
18 
1   -0.350183 
2   -0.347405 
3   -0.363912 
4   0.183765 
5   0.065149 
6   -0.096326 
7   -0.053118 
8   -0.30575 
9   -0.229442 
10   0.153095 
11   0.168333 
12   0.161611 
13   0.155188 
14   0.184873 
15   0.149953 
16   0.186108 
17   0.170753 
18   0.16731 
 
$$$$ 
 
