PCCDB-ID:  18985 
public computational chemistry database (PCCDB) project, http://pccdb.org 
 
 24 25  0  0  0  0  0  0  0  0999 V2000 
    0.5611    1.4350    0.1722 C   0  0  0  0  0  0  0  0  0  0  0  0 
    1.4064    0.2625   -0.3273 C   0  0  0  0  0  0  0  0  0  0  0  0 
   -4.6412   -2.0825    0.3569 C   0  0  0  0  0  0  0  0  0  0  0  0 
   -3.2777   -1.8237    0.3912 C   0  0  0  0  0  0  0  0  0  0  0  0 
   -0.9112    1.1971   -0.1852 C   0  0  0  0  0  0  0  0  0  0  0  0 
   -5.5079   -1.0565   -0.0311 C   0  0  0  0  0  0  0  0  0  0  0  0 
    0.8934   -1.0365    0.3024 C   0  0  0  0  0  0  0  0  0  0  0  0 
   -3.7743    0.4016   -0.3306 C   0  0  0  0  0  0  0  0  0  0  0  0 
   -2.8100   -0.5461    0.0442 C   0  0  0  0  0  0  0  0  0  0  0  0 
   -1.3460   -0.2435    0.0647 C   0  0  0  0  0  0  0  0  0  0  0  0 
   -5.0924    0.1668   -0.3739 N   0  0  0  0  0  0  0  0  0  0  0  0 
   -0.5537   -1.2238    0.2911 N   0  0  0  0  0  0  0  0  0  0  0  0 
    0.9033    2.3864   -0.2506 H   0  0  0  0  0  0  0  0  0  0  0  0 
    0.6639    1.5181    1.2629 H   0  0  0  0  0  0  0  0  0  0  0  0 
    2.4673    0.4022   -0.0870 H   0  0  0  0  0  0  0  0  0  0  0  0 
    1.3320    0.1956   -1.4217 H   0  0  0  0  0  0  0  0  0  0  0  0 
   -5.0330   -3.0599    0.6241 H   0  0  0  0  0  0  0  0  0  0  0  0 
   -2.5561   -2.5811    0.6782 H   0  0  0  0  0  0  0  0  0  0  0  0 
   -1.0892    1.4377   -1.2440 H   0  0  0  0  0  0  0  0  0  0  0  0 
   -1.5559    1.8740    0.3877 H   0  0  0  0  0  0  0  0  0  0  0  0 
   -6.5832   -1.2251   -0.0687 H   0  0  0  0  0  0  0  0  0  0  0  0 
    1.2160   -1.1029    1.3529 H   0  0  0  0  0  0  0  0  0  0  0  0 
    1.3333   -1.9100   -0.1957 H   0  0  0  0  0  0  0  0  0  0  0  0 
   -3.4788    1.4072   -0.6208 H   0  0  0  0  0  0  0  0  0  0  0  0 
  1 14  1  0  0  0  0 
  2 15  1  0  0  0  0 
  2  1  1  0  0  0  0 
  2  7  1  0  0  0  0 
  3  4  1  0  0  0  0 
  3 17  1  0  0  0  0 
  4 18  1  0  0  0  0 
  5 10  1  0  0  0  0 
  5  1  1  0  0  0  0 
  5 20  1  0  0  0  0 
  6  3  2  0  0  0  0 
  7 22  1  0  0  0  0 
  8  9  1  0  0  0  0 
  9 10  1  0  0  0  0 
  9  4  2  0  0  0  0 
 10 12  2  0  0  0  0 
 11  8  2  0  0  0  0 
 11  6  1  0  0  0  0 
 12  7  1  0  0  0  0 
 13  1  1  0  0  0  0 
 16  2  1  0  0  0  0 
 19  5  1  0  0  0  0 
 21  6  1  0  0  0  0 
 23  7  1  0  0  0  0 
 24  8  1  0  0  0  0 
M  END 
>  <HBA> 
2 
 
>  <HBD> 
0 
 
>  <TPSA> 
25.25 
 
>  <cid> 
18985 
 
>  <dipole> 
2.12 
 
>  <excitation_energy_1> 
4.076 
 
>  <excitation_energy_2> 
4.487 
 
>  <excitation_energy_3> 
4.94 
 
>  <excitation_energy_4> 
4.99 
 
>  <homo_energy> 
-6.49 
 
>  <homo_lumo_gap> 
5.312 
 
>  <logP> 
1.49 
 
>  <lumo_energy> 
-1.178 
 
>  <melting_point> 
60.44 
 
>  <molecular_refractivity> 
53.33 
 
>  <oscillator_strength_1> 
0.0016 
 
>  <oscillator_strength_2> 
0.0011 
 
>  <oscillator_strength_3> 
0.205 
 
>  <oscillator_strength_4> 
0.0044 
 
>  <open_babel_can_smiles> 
c1ccc(cn1)C1=NCCCC1 
 
>  <mulliken_charges> 
24 
1   -0.266672 
2   -0.279928 
3   -0.143615 
4   -0.125453 
5   -0.342908 
6   0.041986 
7   -0.142048 
8   -0.022658 
9   0.098491 
10   0.280434 
11   -0.41805 
12   -0.454861 
13   0.140351 
14   0.142607 
15   0.137918 
16   0.140661 
17   0.137651 
18   0.169372 
19   0.163297 
20   0.161147 
21   0.141659 
22   0.150563 
23   0.15143 
24   0.138626 
 
>  <lowdin_charges> 
24 
1   -0.273078 
2   -0.286971 
3   -0.1756 
4   -0.113375 
5   -0.301796 
6   -0.084202 
7   -0.207908 
8   -0.099222 
9   -0.038 
10   0.052793 
11   -0.150586 
12   -0.180782 
13   0.149103 
14   0.14255 
15   0.148353 
16   0.141751 
17   0.163733 
18   0.180091 
19   0.158615 
20   0.162655 
21   0.154444 
22   0.14893 
23   0.152707 
24   0.155796 
 
$$$$ 
 
