PCCDB-ID:  9922 
public computational chemistry database (PCCDB) project, http://pccdb.org 
 
 24 26  0  0  0  0  0  0  0  0999 V2000 
   -2.7539   -0.4136    0.4052 C   0  0  0  0  0  0  0  0  0  0  0  0 
   -2.6300    0.9769    0.4169 C   0  0  0  0  0  0  0  0  0  0  0  0 
   -1.6400   -1.2215    0.1713 C   0  0  0  0  0  0  0  0  0  0  0  0 
   -1.3795    1.5556    0.2106 C   0  0  0  0  0  0  0  0  0  0  0  0 
   -0.0616   -3.5365   -1.4799 C   0  0  0  0  0  0  0  0  0  0  0  0 
    1.3967   -3.7415   -1.2180 C   0  0  0  0  0  0  0  0  0  0  0  0 
    2.0603   -0.9411   -0.4252 C   0  0  0  0  0  0  0  0  0  0  0  0 
   -0.3811   -0.6516   -0.0598 C   0  0  0  0  0  0  0  0  0  0  0  0 
   -0.2568    0.7561   -0.0195 C   0  0  0  0  0  0  0  0  0  0  0  0 
    0.8144   -1.4849   -0.3234 C   0  0  0  0  0  0  0  0  0  0  0  0 
    2.3055    0.4903   -0.3534 C   0  0  0  0  0  0  0  0  0  0  0  0 
    1.0715    1.4113   -0.1842 C   0  0  0  0  0  0  0  0  0  0  0  0 
    0.6134   -2.8635   -0.3696 N   0  0  0  0  0  0  0  0  0  0  0  0 
    3.4180    0.9889   -0.4508 O   0  0  0  0  0  0  0  0  0  0  0  0 
    1.2096    2.6208   -0.1764 O   0  0  0  0  0  0  0  0  0  0  0  0 
   -3.7207   -0.8760    0.5836 H   0  0  0  0  0  0  0  0  0  0  0  0 
   -3.4990    1.6033    0.5968 H   0  0  0  0  0  0  0  0  0  0  0  0 
   -1.7471   -2.2997    0.1871 H   0  0  0  0  0  0  0  0  0  0  0  0 
   -1.2418    2.6320    0.2314 H   0  0  0  0  0  0  0  0  0  0  0  0 
   -0.7822   -4.3018   -1.2009 H   0  0  0  0  0  0  0  0  0  0  0  0 
   -0.3342   -2.9330   -2.3441 H   0  0  0  0  0  0  0  0  0  0  0  0 
    2.0985   -3.2826   -1.9128 H   0  0  0  0  0  0  0  0  0  0  0  0 
    1.7419   -4.6599   -0.7496 H   0  0  0  0  0  0  0  0  0  0  0  0 
    2.9315   -1.5693   -0.5806 H   0  0  0  0  0  0  0  0  0  0  0  0 
  1  2  1  0  0  0  0 
  1 16  1  0  0  0  0 
  2 17  1  0  0  0  0 
  3 18  1  0  0  0  0 
  3  1  2  0  0  0  0 
  4 19  1  0  0  0  0 
  4  2  2  0  0  0  0 
  5  6  1  0  0  0  0 
  5 20  1  0  0  0  0 
  5 13  1  0  0  0  0 
  6 23  1  0  0  0  0 
  6 13  1  0  0  0  0 
  7 11  1  0  0  0  0 
  7 10  2  0  0  0  0 
  8  9  2  0  0  0  0 
  8  3  1  0  0  0  0 
  9  4  1  0  0  0  0 
 10  8  1  0  0  0  0 
 11 12  1  0  0  0  0 
 12 15  2  0  0  0  0 
 12  9  1  0  0  0  0 
 13 10  1  0  0  0  0 
 14 11  2  0  0  0  0 
 21  5  1  0  0  0  0 
 22  6  1  0  0  0  0 
 24  7  1  0  0  0  0 
M  END 
>  <HBA> 
3 
 
>  <HBD> 
0 
 
>  <TPSA> 
37.15 
 
>  <cid> 
9922 
 
>  <dipole> 
7.42 
 
>  <excitation_energy_1> 
2.179 
 
>  <excitation_energy_2> 
2.918 
 
>  <excitation_energy_3> 
3.358 
 
>  <excitation_energy_4> 
3.782 
 
>  <homo_energy> 
-6.327 
 
>  <homo_lumo_gap> 
3.475 
 
>  <logP> 
1.046 
 
>  <lumo_energy> 
-2.852 
 
>  <melting_point> 
109.18 
 
>  <molecular_refractivity> 
59.12 
 
>  <oscillator_strength_1> 
0.0001 
 
>  <oscillator_strength_2> 
0.0387 
 
>  <oscillator_strength_3> 
0.0011 
 
>  <oscillator_strength_4> 
0.0501 
 
>  <open_babel_can_smiles> 
O=C1C(=O)C=C(c2c1cccc2)N1CC1 
 
>  <mulliken_charges> 
24 
1   -0.119767 
2   -0.126797 
3   -0.197845 
4   -0.168921 
5   -0.197296 
6   -0.198443 
7   -0.285465 
8   0.100342 
9   0.023787 
10   0.287468 
11   0.400442 
12   0.335311 
13   -0.421225 
14   -0.461759 
15   -0.43312 
16   0.143408 
17   0.145821 
18   0.153715 
19   0.17178 
20   0.173295 
21   0.177035 
22   0.174724 
23   0.177275 
24   0.146234 
 
>  <lowdin_charges> 
24 
1   -0.1368 
2   -0.147936 
3   -0.150931 
4   -0.117901 
5   -0.222979 
6   -0.224031 
7   -0.245475 
8   -0.006707 
9   -0.045638 
10   0.073855 
11   0.113149 
12   0.125525 
13   -0.133906 
14   -0.213077 
15   -0.188661 
16   0.164691 
17   0.166732 
18   0.169393 
19   0.178912 
20   0.1665 
21   0.165337 
22   0.165493 
23   0.170471 
24   0.173984 
 
$$$$ 
 
