PCCDB-ID:  7192 
public computational chemistry database (PCCDB) project, http://pccdb.org 
 
 23 24  0  0  0  0  0  0  0  0999 V2000 
    1.6939   -0.3278   -0.7436 C   0  0  0  0  0  0  0  0  0  0  0  0 
    3.1973   -0.1766   -0.5915 C   0  0  0  0  0  0  0  0  0  0  0  0 
    5.5929   -2.9367   -0.3747 C   0  0  0  0  0  0  0  0  0  0  0  0 
    6.9520   -3.2009   -0.2294 C   0  0  0  0  0  0  0  0  0  0  0  0 
    6.0040   -0.5405   -0.3019 C   0  0  0  0  0  0  0  0  0  0  0  0 
    5.1130   -1.6177   -0.4108 C   0  0  0  0  0  0  0  0  0  0  0  0 
    7.8411   -2.1318   -0.1194 C   0  0  0  0  0  0  0  0  0  0  0  0 
    7.3627   -0.8157   -0.1566 C   0  0  0  0  0  0  0  0  0  0  0  0 
    9.9075   -0.9815    0.1137 C   0  0  0  0  0  0  0  0  0  0  0  0 
   11.1475   -0.7229    0.2440 N   0  0  0  0  0  0  0  0  0  0  0  0 
    9.2278   -2.1900    0.0323 N   0  0  0  0  0  0  0  0  0  0  0  0 
    3.7604   -1.4864   -0.5559 O   0  0  0  0  0  0  0  0  0  0  0  0 
    8.6918    0.3457    0.0010 S   0  0  0  0  0  0  0  0  0  0  0  0 
    1.2174    0.6581   -0.7689 H   0  0  0  0  0  0  0  0  0  0  0  0 
    1.2771   -0.8942    0.0950 H   0  0  0  0  0  0  0  0  0  0  0  0 
    1.4510   -0.8553   -1.6712 H   0  0  0  0  0  0  0  0  0  0  0  0 
    3.4454    0.3627    0.3344 H   0  0  0  0  0  0  0  0  0  0  0  0 
    3.6213    0.3898   -1.4337 H   0  0  0  0  0  0  0  0  0  0  0  0 
    4.8767   -3.7468   -0.4625 H   0  0  0  0  0  0  0  0  0  0  0  0 
    7.3099   -4.2265   -0.2029 H   0  0  0  0  0  0  0  0  0  0  0  0 
    5.6579    0.4854   -0.3286 H   0  0  0  0  0  0  0  0  0  0  0  0 
   11.7123   -1.5741    0.2961 H   0  0  0  0  0  0  0  0  0  0  0  0 
    9.7346   -3.0634    0.0660 H   0  0  0  0  0  0  0  0  0  0  0  0 
  1  2  1  0  0  0  0 
  1 15  1  0  0  0  0 
  2 12  1  0  0  0  0 
  2 17  1  0  0  0  0 
  3  4  2  0  0  0  0 
  4 20  1  0  0  0  0 
  4  7  1  0  0  0  0 
  5  8  1  0  0  0  0 
  6  3  1  0  0  0  0 
  6  5  2  0  0  0  0 
  7 11  1  0  0  0  0 
  8  7  2  0  0  0  0 
  8 13  1  0  0  0  0 
  9 10  2  0  0  0  0 
 10 22  1  0  0  0  0 
 11 23  1  0  0  0  0 
 11  9  1  0  0  0  0 
 12  6  1  0  0  0  0 
 13  9  1  0  0  0  0 
 14  1  1  0  0  0  0 
 16  1  1  0  0  0  0 
 18  2  1  0  0  0  0 
 19  3  1  0  0  0  0 
 21  5  1  0  0  0  0 
M  END 
>  <HBA> 
4 
 
>  <HBD> 
1 
 
>  <TPSA> 
76.38 
 
>  <cid> 
7192 
 
>  <dipole> 
3.37 
 
>  <excitation_energy_1> 
4.17 
 
>  <excitation_energy_2> 
4.216 
 
>  <excitation_energy_3> 
4.548 
 
>  <excitation_energy_4> 
4.871 
 
>  <homo_energy> 
-5.219 
 
>  <homo_lumo_gap> 
4.925 
 
>  <logP> 
2.858 
 
>  <lumo_energy> 
-0.294 
 
>  <melting_point> 
117.99 
 
>  <molecular_refractivity> 
55.32 
 
>  <oscillator_strength_1> 
0.0005 
 
>  <oscillator_strength_2> 
0.0866 
 
>  <oscillator_strength_3> 
0.0006 
 
>  <oscillator_strength_4> 
0.1534 
 
>  <open_babel_can_smiles> 
CCOc1ccc2c(c1)sc(=N)[nH]2 
 
>  <mulliken_charges> 
23 
1   -0.457074 
2   -0.029842 
3   -0.194399 
4   -0.16286 
5   -0.25682 
6   0.395884 
7   0.381209 
8   -0.157814 
9   0.328348 
10   -0.638685 
11   -0.703355 
12   -0.521898 
13   0.229833 
14   0.150074 
15   0.164354 
16   0.164208 
17   0.141573 
18   0.141489 
19   0.142058 
20   0.131578 
21   0.147728 
22   0.276449 
23   0.327962 
 
>  <lowdin_charges> 
23 
1   -0.447601 
2   -0.125187 
3   -0.180424 
4   -0.177602 
5   -0.213281 
6   0.098432 
7   0.028779 
8   -0.139968 
9   -0.009354 
10   -0.435724 
11   -0.249218 
12   -0.205455 
13   0.249778 
14   0.157717 
15   0.161332 
16   0.160505 
17   0.13855 
18   0.139164 
19   0.170731 
20   0.160803 
21   0.170393 
22   0.254981 
23   0.292649 
 
$$$$ 
 
