PCCDB-ID:  16235 
public computational chemistry database (PCCDB) project, http://pccdb.org 
 
 23 23  0  0  1  0  0  0  0  0999 V2000 
    1.1100   -0.2233   -0.2024 C   0  0  0  0  0  0  0  0  0  0  0  0 
    2.8458    4.5192   -0.1908 C   0  0  0  0  0  0  0  0  0  0  0  0 
    2.4374    3.9438    1.0131 C   0  0  0  0  0  0  0  0  0  0  0  0 
    3.1799    3.6965   -1.2673 C   0  0  0  0  0  0  0  0  0  0  0  0 
    2.3604    2.5566    1.1393 C   0  0  0  0  0  0  0  0  0  0  0  0 
    3.1015    2.3087   -1.1447 C   0  0  0  0  0  0  0  0  0  0  0  0 
    2.6897    1.7261    0.0606 C   0  0  0  0  0  0  0  0  0  0  0  0 
    2.9608   -0.2940    1.5696 C   0  0  0  0  0  0  0  0  0  0  0  0 
    2.5385    0.2031    0.1638 C   0  0  1  0  0  0  0  0  0  0  0  0 
    2.2219   -0.5189    2.5793 N   0  0  0  0  0  0  0  0  0  0  0  0 
    4.2960   -0.4592    1.6845 O   0  0  0  0  0  0  0  0  0  0  0  0 
    3.4698   -0.3655   -0.7857 O   0  0  0  0  0  0  0  0  0  0  0  0 
    0.3702    0.2627    0.4401 H   0  0  0  0  0  0  0  0  0  0  0  0 
    0.9844   -1.3095   -0.1084 H   0  0  0  0  0  0  0  0  0  0  0  0 
    0.9001    0.0754   -1.2333 H   0  0  0  0  0  0  0  0  0  0  0  0 
    2.9069    5.5998   -0.2878 H   0  0  0  0  0  0  0  0  0  0  0  0 
    2.1844    4.5734    1.8618 H   0  0  0  0  0  0  0  0  0  0  0  0 
    3.5041    4.1341   -2.2079 H   0  0  0  0  0  0  0  0  0  0  0  0 
    2.0608    2.1195    2.0873 H   0  0  0  0  0  0  0  0  0  0  0  0 
    3.3692    1.6715   -1.9800 H   0  0  0  0  0  0  0  0  0  0  0  0 
    1.2428   -0.3520    2.3473 H   0  0  0  0  0  0  0  0  0  0  0  0 
    4.6618   -0.3609    0.7835 H   0  0  0  0  0  0  0  0  0  0  0  0 
    3.2359   -1.3022   -0.8970 H   0  0  0  0  0  0  0  0  0  0  0  0 
  1 14  1  0  0  0  0 
  1  9  1  0  0  0  0 
  1 13  1  0  0  0  0 
  2  3  2  0  0  0  0 
  3  5  1  0  0  0  0 
  3 17  1  0  0  0  0 
  4  6  2  0  0  0  0 
  4  2  1  0  0  0  0 
  5 19  1  0  0  0  0 
  6  7  1  0  0  0  0 
  7  9  1  0  0  0  0 
  7  5  2  0  0  0  0 
  8 11  1  0  0  0  0 
  8 10  2  0  0  0  0 
  9 12  1  6  0  0  0 
  9  8  1  0  0  0  0 
 15  1  1  0  0  0  0 
 16  2  1  0  0  0  0 
 18  4  1  0  0  0  0 
 20  6  1  0  0  0  0 
 21 10  1  0  0  0  0 
 22 11  1  0  0  0  0 
 23 12  1  0  0  0  0 
M  END 
>  <HBA> 
3 
 
>  <HBD> 
2 
 
>  <TPSA> 
63.32 
 
>  <cid> 
16235 
 
>  <dipole> 
4.08 
 
>  <excitation_energy_1> 
5.292 
 
>  <excitation_energy_2> 
5.657 
 
>  <excitation_energy_3> 
5.745 
 
>  <excitation_energy_4> 
5.986 
 
>  <homo_energy> 
-6.71 
 
>  <homo_lumo_gap> 
6.419 
 
>  <logP> 
1.08 
 
>  <lumo_energy> 
-0.291 
 
>  <melting_point> 
107.03 
 
>  <molecular_refractivity> 
44.97 
 
>  <oscillator_strength_1> 
0.0001 
 
>  <oscillator_strength_2> 
0.0034 
 
>  <oscillator_strength_3> 
0.0421 
 
>  <oscillator_strength_4> 
0.006 
 
>  <open_babel_can_smiles> 
OC(=N)[C@@](c1ccccc1)(O)C 
 
>  <mulliken_charges> 
23 
1   -0.476166 
2   -0.123098 
3   -0.135829 
4   -0.131862 
5   -0.175359 
6   -0.168808 
7   0.129987 
8   0.477752 
9   0.137271 
10   -0.597349 
11   -0.587541 
12   -0.653358 
13   0.166105 
14   0.151972 
15   0.173421 
16   0.132719 
17   0.136026 
18   0.132763 
19   0.147963 
20   0.149162 
21   0.285734 
22   0.422929 
23   0.405564 
 
>  <lowdin_charges> 
23 
1   -0.453022 
2   -0.151373 
3   -0.152808 
4   -0.153713 
5   -0.16503 
6   -0.161248 
7   -0.018137 
8   0.106564 
9   0.089552 
10   -0.401624 
11   -0.356029 
12   -0.445624 
13   0.166195 
14   0.151616 
15   0.167312 
16   0.157402 
17   0.161653 
18   0.15919 
19   0.167623 
20   0.169118 
21   0.254305 
22   0.357307 
23   0.350768 
 
$$$$ 
 
