PCCDB-ID:  66089 
public computational chemistry database (PCCDB) project, http://pccdb.org 
 
 17 18  0  0  1  0  0  0  0  0999 V2000 
    0.9188   -0.1016   -0.0918 C   0  0  0  0  0  0  0  0  0  0  0  0 
    5.2480    2.7543   -0.0955 C   0  0  0  0  0  0  0  0  0  0  0  0 
    3.2498   -1.0667   -0.0929 C   0  0  0  0  0  0  0  0  0  0  0  0 
    3.1647    1.1267   -0.0934 C   0  0  2  0  0  0  0  0  0  0  0  0 
    4.4974    0.6530   -0.0962 C   0  0  0  0  0  0  0  0  0  0  0  0 
    2.9676    2.5155   -0.0925 C   0  0  0  0  0  0  0  0  0  0  0  0 
    5.5661    1.4645   -0.0976 N   0  0  0  0  0  0  0  0  0  0  0  0 
    4.0204    3.3144   -0.0933 N   0  0  0  0  0  0  0  0  0  0  0  0 
    4.5143   -0.7281   -0.0960 N   0  0  0  0  0  0  0  0  0  0  0  0 
    2.3671   -0.0115   -0.0904 N   0  0  0  0  0  0  0  0  0  0  0  0 
    1.7585    3.1345   -0.0897 O   0  0  0  0  0  0  0  0  0  0  0  0 
    0.6321   -1.1556   -0.0902 H   0  0  0  0  0  0  0  0  0  0  0  0 
    0.4939    0.3628   -0.9899 H   0  0  0  0  0  0  0  0  0  0  0  0 
    0.4923    0.3661    0.8039 H   0  0  0  0  0  0  0  0  0  0  0  0 
    6.0767    3.4587   -0.0958 H   0  0  0  0  0  0  0  0  0  0  0  0 
    2.8808   -2.0859   -0.0912 H   0  0  0  0  0  0  0  0  0  0  0  0 
    1.0484    2.4754   -0.0990 H   0  0  0  0  0  0  0  0  0  0  0  0 
  1 10  1  0  0  0  0 
  1 12  1  0  0  0  0 
  1 14  1  0  0  0  0 
  2  8  1  0  0  0  0 
  3 16  1  0  0  0  0 
  3 10  1  0  0  0  0 
  4  5  1  1  0  0  0 
  4  6  1  0  0  0  0 
  4 10  1  0  0  0  0 
  5  9  1  0  0  0  0 
  6 11  1  0  0  0  0 
  7  5  2  0  0  0  0 
  7  2  2  0  0  0  0 
  8  6  2  0  0  0  0 
  9  3  2  0  0  0  0 
 13  1  1  0  0  0  0 
 15  2  1  0  0  0  0 
 17 11  1  0  0  0  0 
M  RAD  1   4   2 
M  END 
>  <HBA> 
4 
 
>  <HBD> 
1 
 
>  <TPSA> 
63.57 
 
>  <cid> 
66089 
 
>  <dipole> 
7.09 
 
>  <excitation_energy_1> 
4.725 
 
>  <excitation_energy_2> 
5.067 
 
>  <excitation_energy_3> 
5.309 
 
>  <excitation_energy_4> 
5.325 
 
>  <homo_energy> 
-6.667 
 
>  <homo_lumo_gap> 
5.704 
 
>  <logP> 
-0.343 
 
>  <lumo_energy> 
-0.963 
 
>  <melting_point> 
164.55 
 
>  <molecular_refractivity> 
39.41 
 
>  <oscillator_strength_1> 
0.0019 
 
>  <oscillator_strength_2> 
0.0814 
 
>  <oscillator_strength_3> 
0.001 
 
>  <oscillator_strength_4> 
0.0001 
 
>  <open_babel_can_smiles> 
CN1C=NC2=[N]=CN=C([C]12)O 
 
>  <mulliken_charges> 
17 
1   -0.360423 
2   0.152273 
3   0.220936 
4   0.280458 
5   0.395939 
6   0.492656 
7   -0.463351 
8   -0.452458 
9   -0.463262 
10   -0.504078 
11   -0.600314 
12   0.193151 
13   0.185207 
14   0.185573 
15   0.156037 
16   0.169158 
17   0.412498 
 
>  <lowdin_charges> 
17 
1   -0.354747 
2   -0.038108 
3   -0.053672 
4   -0.069551 
5   0.064097 
6   0.137728 
7   -0.157486 
8   -0.179013 
9   -0.170108 
10   -0.031364 
11   -0.348219 
12   0.178289 
13   0.164981 
14   0.165238 
15   0.163842 
16   0.171792 
17   0.356301 
 
$$$$ 
 
