PCCDB-ID:  41979 
public computational chemistry database (PCCDB) project, http://pccdb.org 
 
 30 31  0  0  0  0  0  0  0  0999 V2000 
    0.5236   -1.3559   -2.4545 C   0  0  0  0  0  0  0  0  0  0  0  0 
    1.3639   -1.2172   -1.1817 C   0  0  0  0  0  0  0  0  0  0  0  0 
    2.8174   -0.8425   -1.4706 C   0  0  0  0  0  0  0  0  0  0  0  0 
    5.9536   -0.1837    0.5831 C   0  0  0  0  0  0  0  0  0  0  0  0 
    8.0585    0.2615    1.7731 C   0  0  0  0  0  0  0  0  0  0  0  0 
    5.1067   -0.3491   -0.4542 C   0  0  0  0  0  0  0  0  0  0  0  0 
    9.4244    0.5744    1.8455 C   0  0  0  0  0  0  0  0  0  0  0  0 
    8.0791    0.3544   -0.6656 C   0  0  0  0  0  0  0  0  0  0  0  0 
   11.5617    1.1747   -0.9875 C   0  0  0  0  0  0  0  0  0  0  0  0 
    7.3734    0.1462    0.5505 C   0  0  0  0  0  0  0  0  0  0  0  0 
    3.6809   -0.6866   -0.2226 C   0  0  0  0  0  0  0  0  0  0  0  0 
   10.0791    0.7699    0.6457 C   0  0  0  0  0  0  0  0  0  0  0  0 
    9.4155    0.6604   -0.5790 C   0  0  0  0  0  0  0  0  0  0  0  0 
    3.2156   -0.8314    0.9015 O   0  0  0  0  0  0  0  0  0  0  0  0 
   11.3945    1.0822    0.4347 O   0  0  0  0  0  0  0  0  0  0  0  0 
   10.2987    0.9026   -1.6031 O   0  0  0  0  0  0  0  0  0  0  0  0 
   -0.5113   -1.6264   -2.2169 H   0  0  0  0  0  0  0  0  0  0  0  0 
    0.9253   -2.1322   -3.1180 H   0  0  0  0  0  0  0  0  0  0  0  0 
    0.4989   -0.4176   -3.0230 H   0  0  0  0  0  0  0  0  0  0  0  0 
    1.3435   -2.1540   -0.6123 H   0  0  0  0  0  0  0  0  0  0  0  0 
    0.9256   -0.4608   -0.5201 H   0  0  0  0  0  0  0  0  0  0  0  0 
    2.8714    0.1000   -2.0389 H   0  0  0  0  0  0  0  0  0  0  0  0 
    3.2924   -1.5927   -2.1228 H   0  0  0  0  0  0  0  0  0  0  0  0 
    5.5179   -0.3157    1.5731 H   0  0  0  0  0  0  0  0  0  0  0  0 
    7.5076    0.1010    2.6952 H   0  0  0  0  0  0  0  0  0  0  0  0 
    5.4327   -0.2429   -1.4867 H   0  0  0  0  0  0  0  0  0  0  0  0 
    9.9431    0.6597    2.7939 H   0  0  0  0  0  0  0  0  0  0  0  0 
    7.5902    0.2752   -1.6295 H   0  0  0  0  0  0  0  0  0  0  0  0 
   12.2977    0.4312   -1.3148 H   0  0  0  0  0  0  0  0  0  0  0  0 
   11.8871    2.1883   -1.2489 H   0  0  0  0  0  0  0  0  0  0  0  0 
  1 17  1  0  0  0  0 
  1  2  1  0  0  0  0 
  2 20  1  0  0  0  0 
  2 21  1  0  0  0  0 
  3  2  1  0  0  0  0 
  3 11  1  0  0  0  0 
  4 24  1  0  0  0  0 
  5  7  1  0  0  0  0 
  5 25  1  0  0  0  0 
  6 11  1  0  0  0  0 
  6  4  2  0  0  0  0 
  7 27  1  0  0  0  0 
  8 13  2  0  0  0  0 
  8 10  1  0  0  0  0 
  9 15  1  0  0  0  0 
 10  4  1  0  0  0  0 
 10  5  2  0  0  0  0 
 11 14  2  0  0  0  0 
 12  7  2  0  0  0  0 
 13 12  1  0  0  0  0 
 15 12  1  0  0  0  0 
 16  9  1  0  0  0  0 
 16 13  1  0  0  0  0 
 18  1  1  0  0  0  0 
 19  1  1  0  0  0  0 
 22  3  1  0  0  0  0 
 23  3  1  0  0  0  0 
 26  6  1  0  0  0  0 
 28  8  1  0  0  0  0 
 29  9  1  0  0  0  0 
 30  9  1  0  0  0  0 
M  END 
>  <HBA> 
3 
 
>  <HBD> 
0 
 
>  <TPSA> 
35.53 
 
>  <cid> 
41979 
 
>  <dipole> 
3.98 
 
>  <excitation_energy_1> 
3.447 
 
>  <excitation_energy_2> 
3.708 
 
>  <excitation_energy_3> 
4.362 
 
>  <excitation_energy_4> 
4.821 
 
>  <homo_energy> 
-5.717 
 
>  <homo_lumo_gap> 
4.0 
 
>  <logP> 
2.798 
 
>  <lumo_energy> 
-1.717 
 
>  <melting_point> 
81.03 
 
>  <molecular_refractivity> 
62.02 
 
>  <oscillator_strength_1> 
0.0 
 
>  <oscillator_strength_2> 
0.515 
 
>  <oscillator_strength_3> 
0.1814 
 
>  <oscillator_strength_4> 
0.0788 
 
>  <open_babel_can_smiles> 
CCCC(=O)/C=C/c1ccc2c(c1)OCO2 
 
>  <mulliken_charges> 
30 
1   -0.445827 
2   -0.240131 
3   -0.360167 
4   -0.158102 
5   -0.207661 
6   -0.204606 
7   -0.182247 
8   -0.235121 
9   0.192205 
10   0.164686 
11   0.439199 
12   0.34099 
13   0.33932 
14   -0.481421 
15   -0.525637 
16   -0.532027 
17   0.145406 
18   0.138624 
19   0.138747 
20   0.14918 
21   0.150532 
22   0.154296 
23   0.153056 
24   0.164917 
25   0.145096 
26   0.1239 
27   0.152509 
28   0.148764 
29   0.165811 
30   0.165708 
 
>  <lowdin_charges> 
30 
1   -0.445089 
2   -0.269393 
3   -0.309481 
4   -0.097686 
5   -0.151913 
6   -0.224132 
7   -0.183557 
8   -0.177273 
9   0.020935 
10   -0.012569 
11   0.15451 
12   0.082923 
13   0.072712 
14   -0.261427 
15   -0.198291 
16   -0.202569 
17   0.150057 
18   0.145675 
19   0.144782 
20   0.150829 
21   0.152718 
22   0.157605 
23   0.158076 
24   0.174151 
25   0.166904 
26   0.151429 
27   0.174365 
28   0.172262 
29   0.152813 
30   0.150634 
 
$$$$ 
 
