PCCDB-ID:  52013 
public computational chemistry database (PCCDB) project, http://pccdb.org 
 
 27 26  0  0  0  0  0  0  0  0999 V2000 
    1.9861   -0.2800   -1.7454 C   0  0  0  0  0  0  0  0  0  0  0  0 
    0.4622   -1.6007   -0.3623 C   0  0  0  0  0  0  0  0  0  0  0  0 
    2.7432   -2.4040   -0.7443 C   0  0  0  0  0  0  0  0  0  0  0  0 
    2.3289   -0.4542    0.7472 C   0  0  0  0  0  0  0  0  0  0  0  0 
    3.8202   -0.0465    0.8215 C   0  0  0  0  0  0  0  0  0  0  0  0 
    4.0522    3.5809    2.7208 C   0  0  0  0  0  0  0  0  0  0  0  0 
    3.1551    4.6868    0.7220 C   0  0  0  0  0  0  0  0  0  0  0  0 
    3.5893    3.5081    1.3822 C   0  0  0  0  0  0  0  0  0  0  0  0 
    3.5096    2.2842    0.6904 C   0  0  0  0  0  0  0  0  0  0  0  0 
    4.4249    3.6407    3.8262 N   0  0  0  0  0  0  0  0  0  0  0  0 
    2.7900    5.6564    0.1837 N   0  0  0  0  0  0  0  0  0  0  0  0 
    1.8967   -1.1810   -0.5315 N   0  0  0  0  0  0  0  0  0  0  0  0 
    3.1044    2.0579   -0.4586 O   0  0  0  0  0  0  0  0  0  0  0  0 
    3.9384    1.1872    1.4788 O   0  0  0  0  0  0  0  0  0  0  0  0 
    1.6346   -0.8530   -2.6061 H   0  0  0  0  0  0  0  0  0  0  0  0 
    3.0098    0.0568   -1.8784 H   0  0  0  0  0  0  0  0  0  0  0  0 
    1.3739    0.6026   -1.5719 H   0  0  0  0  0  0  0  0  0  0  0  0 
    0.1313   -2.1100   -1.2693 H   0  0  0  0  0  0  0  0  0  0  0  0 
   -0.1433   -0.7093   -0.1937 H   0  0  0  0  0  0  0  0  0  0  0  0 
    0.3837   -2.2717    0.4945 H   0  0  0  0  0  0  0  0  0  0  0  0 
    2.3780   -2.9394   -1.6226 H   0  0  0  0  0  0  0  0  0  0  0  0 
    2.6728   -3.0424    0.1386 H   0  0  0  0  0  0  0  0  0  0  0  0 
    3.7770   -2.0985   -0.9024 H   0  0  0  0  0  0  0  0  0  0  0  0 
    1.7146    0.4426    0.7970 H   0  0  0  0  0  0  0  0  0  0  0  0 
    2.0571   -1.1253    1.5670 H   0  0  0  0  0  0  0  0  0  0  0  0 
    4.2661    0.0012   -0.1780 H   0  0  0  0  0  0  0  0  0  0  0  0 
    4.3815   -0.7631    1.4268 H   0  0  0  0  0  0  0  0  0  0  0  0 
  1 17  1  0  0  0  0 
  1 12  1  0  0  0  0 
  2 19  1  0  0  0  0 
  2 20  1  0  0  0  0 
  3 12  1  0  0  0  0 
  3 22  1  0  0  0  0 
  4 24  1  0  0  0  0 
  4  5  1  0  0  0  0 
  4 25  1  0  0  0  0 
  5 27  1  0  0  0  0 
  5 14  1  0  0  0  0 
  6 10  3  0  0  0  0 
  7  8  1  0  0  0  0 
  8  6  1  0  0  0  0 
  9  8  1  0  0  0  0 
  9 14  1  0  0  0  0 
 11  7  3  0  0  0  0 
 12  2  1  0  0  0  0 
 12  4  1  0  0  0  0 
 13  9  2  0  0  0  0 
 15  1  1  0  0  0  0 
 16  1  1  0  0  0  0 
 18  2  1  0  0  0  0 
 21  3  1  0  0  0  0 
 23  3  1  0  0  0  0 
 26  5  1  0  0  0  0 
M  RAD  1   8   2 
M  END 
>  <HBA> 
4 
 
>  <HBD> 
0 
 
>  <TPSA> 
79.87 
 
>  <cid> 
52013 
 
>  <dipole> 
23.03 
 
>  <excitation_energy_1> 
2.869 
 
>  <excitation_energy_2> 
3.592 
 
>  <excitation_energy_3> 
3.645 
 
>  <excitation_energy_4> 
3.728 
 
>  <homo_energy> 
-4.455 
 
>  <homo_lumo_gap> 
3.886 
 
>  <logP> 
0.398 
 
>  <lumo_energy> 
-0.569 
 
>  <melting_point> 
132.32 
 
>  <molecular_refractivity> 
47.49 
 
>  <oscillator_strength_1> 
0.0058 
 
>  <oscillator_strength_2> 
0.0009 
 
>  <oscillator_strength_3> 
0.0008 
 
>  <oscillator_strength_4> 
0.0008 
 
>  <open_babel_can_smiles> 
N#C[C](C(=O)OCC[N](C)(C)C)C#N 
 
>  <mulliken_charges> 
27 
1   -0.319883 
2   -0.322522 
3   -0.325523 
4   -0.170589 
5   -0.032327 
6   0.264338 
7   0.278754 
8   -0.086654 
9   0.604133 
10   -0.535832 
11   -0.532757 
12   -0.372563 
13   -0.602142 
14   -0.489839 
15   0.176207 
16   0.241337 
17   0.239016 
18   0.199525 
19   0.222453 
20   0.203488 
21   0.200292 
22   0.203296 
23   0.221831 
24   0.233584 
25   0.179866 
26   0.156775 
27   0.165735 
 
>  <lowdin_charges> 
27 
1   -0.350397 
2   -0.349814 
3   -0.352273 
4   -0.212834 
5   -0.142197 
6   -0.013165 
7   -0.00436 
8   -0.202592 
9   0.190648 
10   -0.193761 
11   -0.189575 
12   0.07763 
13   -0.379343 
14   -0.218889 
15   0.166558 
16   0.199627 
17   0.201869 
18   0.179113 
19   0.191449 
20   0.1807 
21   0.180153 
22   0.181348 
23   0.188596 
24   0.197116 
25   0.165659 
26   0.148102 
27   0.16063 
 
$$$$ 
 
