PCCDB-ID:  41837 
public computational chemistry database (PCCDB) project, http://pccdb.org 
 
 44 43  0  0  1  0  0  0  0  0999 V2000 
    2.5564   -2.2643   -4.1961 C   0  0  0  0  0  0  0  0  0  0  0  0 
    4.0172   -6.3368    6.4626 C   0  0  0  0  0  0  0  0  0  0  0  0 
    6.1804   -7.4589    5.8115 C   0  0  0  0  0  0  0  0  0  0  0  0 
    5.5064   -3.3048    2.2156 C   0  0  0  0  0  0  0  0  0  0  0  0 
    3.1788   -3.3631   -3.3281 C   0  0  0  0  0  0  0  0  0  0  0  0 
    4.7135   -3.3655   -3.3763 C   0  0  0  0  0  0  0  0  0  0  0  0 
    5.3827   -4.4948   -2.5751 C   0  0  0  0  0  0  0  0  0  0  0  0 
    5.1947   -4.4047   -1.0531 C   0  0  0  0  0  0  0  0  0  0  0  0 
    5.9282   -5.5277   -0.3030 C   0  0  0  0  0  0  0  0  0  0  0  0 
    5.6281   -5.6806    1.2020 C   0  0  0  0  0  0  0  0  0  0  0  0 
    5.1595   -5.6438    4.3151 C   0  0  0  0  0  0  0  0  0  0  0  0 
    6.4487   -5.2397    3.5826 C   0  0  0  0  0  0  0  0  0  0  0  0 
    5.3693   -6.1551    5.7563 C   0  0  0  0  0  0  0  0  0  0  0  0 
    6.2611   -4.6453    2.1639 C   0  0  2  0  0  0  0  0  0  0  0  0 
    1.4616   -2.2851   -4.1460 H   0  0  0  0  0  0  0  0  0  0  0  0 
    2.8443   -2.3796   -5.2485 H   0  0  0  0  0  0  0  0  0  0  0  0 
    2.8853   -1.2692   -3.8716 H   0  0  0  0  0  0  0  0  0  0  0  0 
    4.1505   -6.6578    7.5027 H   0  0  0  0  0  0  0  0  0  0  0  0 
    3.4102   -7.0988    5.9561 H   0  0  0  0  0  0  0  0  0  0  0  0 
    3.4406   -5.4040    6.4703 H   0  0  0  0  0  0  0  0  0  0  0  0 
    5.6789   -8.2541    5.2435 H   0  0  0  0  0  0  0  0  0  0  0  0 
    6.2885   -7.8090    6.8451 H   0  0  0  0  0  0  0  0  0  0  0  0 
    7.1877   -7.3385    5.3992 H   0  0  0  0  0  0  0  0  0  0  0  0 
    5.5537   -2.7719    1.2620 H   0  0  0  0  0  0  0  0  0  0  0  0 
    5.9354   -2.6463    2.9812 H   0  0  0  0  0  0  0  0  0  0  0  0 
    4.4464   -3.4469    2.4572 H   0  0  0  0  0  0  0  0  0  0  0  0 
    2.8071   -4.3443   -3.6577 H   0  0  0  0  0  0  0  0  0  0  0  0 
    2.8370   -3.2404   -2.2921 H   0  0  0  0  0  0  0  0  0  0  0  0 
    5.0885   -2.3944   -3.0192 H   0  0  0  0  0  0  0  0  0  0  0  0 
    5.0303   -3.4429   -4.4264 H   0  0  0  0  0  0  0  0  0  0  0  0 
    6.4595   -4.4946   -2.7976 H   0  0  0  0  0  0  0  0  0  0  0  0 
    5.0020   -5.4644   -2.9303 H   0  0  0  0  0  0  0  0  0  0  0  0 
    4.1254   -4.4500   -0.8046 H   0  0  0  0  0  0  0  0  0  0  0  0 
    5.5470   -3.4219   -0.7146 H   0  0  0  0  0  0  0  0  0  0  0  0 
    7.0134   -5.4133   -0.4455 H   0  0  0  0  0  0  0  0  0  0  0  0 
    5.6649   -6.4788   -0.7886 H   0  0  0  0  0  0  0  0  0  0  0  0 
    5.9926   -6.6741    1.4992 H   0  0  0  0  0  0  0  0  0  0  0  0 
    4.5387   -5.7073    1.3513 H   0  0  0  0  0  0  0  0  0  0  0  0 
    4.6300   -6.4192    3.7421 H   0  0  0  0  0  0  0  0  0  0  0  0 
    4.4818   -4.7804    4.3571 H   0  0  0  0  0  0  0  0  0  0  0  0 
    7.1116   -6.1113    3.5008 H   0  0  0  0  0  0  0  0  0  0  0  0 
    6.9870   -4.5037    4.1986 H   0  0  0  0  0  0  0  0  0  0  0  0 
    5.9329   -5.3833    6.3037 H   0  0  0  0  0  0  0  0  0  0  0  0 
    7.2761   -4.4358    1.7908 H   0  0  0  0  0  0  0  0  0  0  0  0 
  1 15  1  0  0  0  0 
  1 17  1  0  0  0  0 
  1  5  1  0  0  0  0 
  2 20  1  0  0  0  0 
  2 18  1  0  0  0  0 
  3 22  1  0  0  0  0 
  4 26  1  0  0  0  0 
  4 25  1  0  0  0  0 
  5 28  1  0  0  0  0 
  6  5  1  0  0  0  0 
  6 29  1  0  0  0  0 
  6  7  1  0  0  0  0 
  7  8  1  0  0  0  0 
  8 33  1  0  0  0  0 
  8 34  1  0  0  0  0 
  8  9  1  0  0  0  0 
  9 10  1  0  0  0  0 
 10 38  1  0  0  0  0 
 10 37  1  0  0  0  0 
 10 14  1  0  0  0  0 
 11 40  1  0  0  0  0 
 11 13  1  0  0  0  0 
 12 42  1  0  0  0  0 
 12 11  1  0  0  0  0 
 13  3  1  0  0  0  0 
 13 43  1  0  0  0  0 
 13  2  1  0  0  0  0 
 14 44  1  6  0  0  0 
 14  4  1  0  0  0  0 
 14 12  1  0  0  0  0 
 16  1  1  0  0  0  0 
 19  2  1  0  0  0  0 
 21  3  1  0  0  0  0 
 23  3  1  0  0  0  0 
 24  4  1  0  0  0  0 
 27  5  1  0  0  0  0 
 30  6  1  0  0  0  0 
 31  7  1  0  0  0  0 
 32  7  1  0  0  0  0 
 35  9  1  0  0  0  0 
 36  9  1  0  0  0  0 
 39 11  1  0  0  0  0 
 41 12  1  0  0  0  0 
M  END 
>  <HBA> 
0 
 
>  <HBD> 
0 
 
>  <TPSA> 
0.0 
 
>  <cid> 
41837 
 
>  <dipole> 
0.09 
 
>  <excitation_energy_1> 
7.406 
 
>  <excitation_energy_2> 
7.627 
 
>  <excitation_energy_3> 
7.655 
 
>  <excitation_energy_4> 
7.695 
 
>  <homo_energy> 
-7.837 
 
>  <homo_lumo_gap> 
10.049 
 
>  <logP> 
5.419 
 
>  <lumo_energy> 
2.212 
 
>  <melting_point> 
-31.88 
 
>  <molecular_refractivity> 
69.41 
 
>  <oscillator_strength_1> 
0.004 
 
>  <oscillator_strength_2> 
0.0095 
 
>  <oscillator_strength_3> 
0.0085 
 
>  <oscillator_strength_4> 
0.0212 
 
>  <open_babel_can_smiles> 
CCCCCCC[C@H](CCC(C)C)C 
 
>  <mulliken_charges> 
44 
1   -0.441388 
2   -0.44214 
3   -0.444554 
4   -0.45468 
5   -0.247976 
6   -0.247787 
7   -0.256228 
8   -0.256285 
9   -0.258976 
10   -0.262287 
11   -0.252663 
12   -0.270727 
13   -0.064827 
14   -0.061688 
15   0.140702 
16   0.140607 
17   0.140984 
18   0.137986 
19   0.137364 
20   0.138279 
21   0.136583 
22   0.138557 
23   0.144605 
24   0.147388 
25   0.136446 
26   0.142142 
27   0.12857 
28   0.135416 
29   0.124953 
30   0.125816 
31   0.126653 
32   0.12548 
33   0.131091 
34   0.134442 
35   0.126147 
36   0.126727 
37   0.126155 
38   0.127738 
39   0.12808 
40   0.12889 
41   0.129094 
42   0.121637 
43   0.1185 
44   0.115175 
 
>  <lowdin_charges> 
44 
1   -0.440113 
2   -0.444473 
3   -0.446477 
4   -0.45001 
5   -0.273346 
6   -0.274029 
7   -0.27377 
8   -0.278161 
9   -0.272609 
10   -0.276565 
11   -0.281851 
12   -0.28057 
13   -0.120732 
14   -0.12222 
15   0.146569 
16   0.144261 
17   0.145479 
18   0.145547 
19   0.145852 
20   0.146437 
21   0.145443 
22   0.146618 
23   0.147584 
24   0.149684 
25   0.147114 
26   0.144239 
27   0.1376 
28   0.13902 
29   0.136274 
30   0.13821 
31   0.138113 
32   0.136314 
33   0.136954 
34   0.138569 
35   0.135006 
36   0.140048 
37   0.141044 
38   0.136281 
39   0.139531 
40   0.140913 
41   0.139244 
42   0.137968 
43   0.13474 
44   0.134269 
 
$$$$ 
 
