PCCDB-ID:  26923 
public computational chemistry database (PCCDB) project, http://pccdb.org 
 
 14 13  0  0  0  0  0  0  0  0999 V2000 
    0.4368    0.5752   -0.6848 C   0  0  0  0  0  0  0  0  0  0  0  0 
    1.1963   -3.1874   -0.1367 C   0  0  0  0  0  0  0  0  0  0  0  0 
   -0.5166   -0.0319   -0.0881 N   0  0  0  0  0  0  0  0  0  0  0  0 
    0.5274    1.9023   -1.0278 N   0  0  0  0  0  0  0  0  0  0  0  0 
    1.5197   -4.4112   -0.3058 N   0  0  0  0  0  0  0  0  0  0  0  0 
    0.6810   -2.5239    0.9386 N   0  0  0  0  0  0  0  0  0  0  0  0 
    2.0003   -0.2833   -1.0332 S   0  0  0  0  0  0  0  0  0  0  0  0 
    1.4421   -2.1934   -1.6445 S   0  0  0  0  0  0  0  0  0  0  0  0 
   -1.3521    0.5511    0.0096 H   0  0  0  0  0  0  0  0  0  0  0  0 
   -0.2824    2.4902   -0.8731 H   0  0  0  0  0  0  0  0  0  0  0  0 
    1.1051    2.1554   -1.8182 H   0  0  0  0  0  0  0  0  0  0  0  0 
    1.2162   -4.9884    0.4857 H   0  0  0  0  0  0  0  0  0  0  0  0 
    0.4164   -3.0924    1.7338 H   0  0  0  0  0  0  0  0  0  0  0  0 
    0.1164   -1.6855    0.7620 H   0  0  0  0  0  0  0  0  0  0  0  0 
  1  3  1  0  0  0  0 
  2  6  2  0  0  0  0 
  3  9  1  0  0  0  0 
  4 10  1  0  0  0  0 
  4  1  2  0  0  0  0 
  5  2  1  0  0  0  0 
  5 12  1  0  0  0  0 
  6 13  1  0  0  0  0 
  7  1  1  0  0  0  0 
  8  7  1  0  0  0  0 
  8  2  1  0  0  0  0 
 11  4  1  0  0  0  0 
 14  6  1  0  0  0  0 
M  RAD  2   3   2   5   2 
M  END 
>  <HBA> 
6 
 
>  <HBD> 
4 
 
>  <TPSA> 
150.34 
 
>  <cid> 
26923 
 
>  <dipole> 
6.03 
 
>  <excitation_energy_1> 
4.139 
 
>  <excitation_energy_2> 
4.615 
 
>  <excitation_energy_3> 
4.743 
 
>  <excitation_energy_4> 
5.255 
 
>  <homo_energy> 
-6.234 
 
>  <homo_lumo_gap> 
5.135 
 
>  <logP> 
1.755 
 
>  <lumo_energy> 
-1.099 
 
>  <melting_point> 
165.13 
 
>  <molecular_refractivity> 
39.51 
 
>  <oscillator_strength_1> 
0.0143 
 
>  <oscillator_strength_2> 
0.0101 
 
>  <oscillator_strength_3> 
0.0069 
 
>  <oscillator_strength_4> 
0.0082 
 
>  <open_babel_can_smiles> 
[NH]C(=[NH2])SSC(=[NH2])[NH] 
 
>  <mulliken_charges> 
14 
1   0.297085 
2   0.26512 
3   -0.61245 
4   -0.718439 
5   -0.585784 
6   -0.735791 
7   0.032041 
8   0.086556 
9   0.286467 
10   0.335739 
11   0.356722 
12   0.272821 
13   0.319634 
14   0.400278 
 
>  <lowdin_charges> 
14 
1   -0.004207 
2   -0.011826 
3   -0.439336 
4   -0.471462 
5   -0.429967 
6   -0.487744 
7   0.061839 
8   0.103831 
9   0.258632 
10   0.286661 
11   0.300062 
12   0.251121 
13   0.279541 
14   0.302855 
 
$$$$ 
 
