PCCDB-ID:  6480 
public computational chemistry database (PCCDB) project, http://pccdb.org 
 
 18 17  0  0  0  0  0  0  0  0999 V2000 
    0.9955    0.2514   -0.1671 C   0  0  0  0  0  0  0  0  0  0  0  0 
    2.9410   -1.1413    0.7383 C   0  0  0  0  0  0  0  0  0  0  0  0 
    3.1899    0.1425   -1.4613 C   0  0  0  0  0  0  0  0  0  0  0  0 
    2.5174    0.1162   -0.0685 C   0  0  0  0  0  0  0  0  0  0  0  0 
    3.0327    1.2984    0.7579 N   0  0  0  0  0  0  0  0  0  0  0  0 
    2.6342   -2.3493    0.0442 O   0  0  0  0  0  0  0  0  0  0  0  0 
    2.6544   -0.8521   -2.3143 O   0  0  0  0  0  0  0  0  0  0  0  0 
    2.5908    1.4077    1.9004 O   0  0  0  0  0  0  0  0  0  0  0  0 
    3.8578    2.0515    0.2499 O   0  0  0  0  0  0  0  0  0  0  0  0 
    0.6074   -0.5588   -0.7892 H   0  0  0  0  0  0  0  0  0  0  0  0 
    0.7230    1.1921   -0.6561 H   0  0  0  0  0  0  0  0  0  0  0  0 
    0.5338    0.2234    0.8228 H   0  0  0  0  0  0  0  0  0  0  0  0 
    2.4774   -1.1184    1.7304 H   0  0  0  0  0  0  0  0  0  0  0  0 
    4.0280   -1.1411    0.8666 H   0  0  0  0  0  0  0  0  0  0  0  0 
    4.2778    0.0384   -1.3428 H   0  0  0  0  0  0  0  0  0  0  0  0 
    3.0036    1.1072   -1.9380 H   0  0  0  0  0  0  0  0  0  0  0  0 
    1.6855   -2.5251    0.1449 H   0  0  0  0  0  0  0  0  0  0  0  0 
    2.7958   -1.7034   -1.8618 H   0  0  0  0  0  0  0  0  0  0  0  0 
  1  4  1  0  0  0  0 
  1 12  1  0  0  0  0 
  2 14  1  0  0  0  0 
  2 13  1  0  0  0  0 
  3 15  1  0  0  0  0 
  3  4  1  0  0  0  0 
  4  2  1  0  0  0  0 
  4  5  1  0  0  0  0 
  5  8  2  0  0  0  0 
  6 17  1  0  0  0  0 
  6  2  1  0  0  0  0 
  7 18  1  0  0  0  0 
  7  3  1  0  0  0  0 
  9  5  2  0  0  0  0 
 10  1  1  0  0  0  0 
 11  1  1  0  0  0  0 
 16  3  1  0  0  0  0 
M  END 
>  <HBA> 
2 
 
>  <HBD> 
2 
 
>  <TPSA> 
86.28 
 
>  <cid> 
6480 
 
>  <dipole> 
3.18 
 
>  <excitation_energy_1> 
4.115 
 
>  <excitation_energy_2> 
4.271 
 
>  <excitation_energy_3> 
4.668 
 
>  <excitation_energy_4> 
5.335 
 
>  <homo_energy> 
-7.461 
 
>  <homo_lumo_gap> 
5.44 
 
>  <logP> 
-0.47 
 
>  <lumo_energy> 
-2.022 
 
>  <melting_point> 
53.78 
 
>  <molecular_refractivity> 
31.81 
 
>  <oscillator_strength_1> 
0.0001 
 
>  <oscillator_strength_2> 
0.0001 
 
>  <oscillator_strength_3> 
0.0031 
 
>  <oscillator_strength_4> 
0.0215 
 
>  <open_babel_can_smiles> 
OCC(N(=O)=O)(CO)C 
 
>  <mulliken_charges> 
18 
1   -0.465159 
2   -0.057373 
3   -0.025219 
4   0.07344 
5   0.46097 
6   -0.613046 
7   -0.629921 
8   -0.375551 
9   -0.369866 
10   0.170291 
11   0.175833 
12   0.175191 
13   0.173404 
14   0.173889 
15   0.142382 
16   0.167895 
17   0.411811 
18   0.411029 
 
>  <lowdin_charges> 
18 
1   -0.451126 
2   -0.139423 
3   -0.138341 
4   0.008283 
5   0.293659 
6   -0.444174 
7   -0.468747 
8   -0.244418 
9   -0.229736 
10   0.168488 
11   0.169925 
12   0.165795 
13   0.155646 
14   0.159173 
15   0.138637 
16   0.1607 
17   0.353195 
18   0.342464 
 
$$$$ 
 
