PCCDB-ID:  70359 
public computational chemistry database (PCCDB) project, http://pccdb.org 
 
 39 39  0  0  0  0  0  0  0  0999 V2000 
    2.5289   -1.0424   -1.2904 C   0  0  0  0  0  0  0  0  0  0  0  0 
    0.7478   -0.4348    0.4141 C   0  0  0  0  0  0  0  0  0  0  0  0 
    5.9389   -4.9998    3.4499 C   0  0  0  0  0  0  0  0  0  0  0  0 
    5.1924   -3.5383    5.3721 C   0  0  0  0  0  0  0  0  0  0  0  0 
    1.1417   -5.3592    2.6501 C   0  0  0  0  0  0  0  0  0  0  0  0 
    2.7376   -5.9067    0.7508 C   0  0  0  0  0  0  0  0  0  0  0  0 
    3.8787   -1.1160    2.0552 C   0  0  0  0  0  0  0  0  0  0  0  0 
    4.4467   -1.9893    2.9802 C   0  0  0  0  0  0  0  0  0  0  0  0 
    2.5220   -2.9057    1.2464 C   0  0  0  0  0  0  0  0  0  0  0  0 
    2.2576   -0.6099    0.1628 C   0  0  0  0  0  0  0  0  0  0  0  0 
    4.7463   -4.2547    4.0855 C   0  0  0  0  0  0  0  0  0  0  0  0 
    2.5931   -5.2558    2.1402 C   0  0  0  0  0  0  0  0  0  0  0  0 
    2.8948   -1.5594    1.1689 C   0  0  0  0  0  0  0  0  0  0  0  0 
    4.0701   -3.3369    3.0639 C   0  0  0  0  0  0  0  0  0  0  0  0 
    3.0868   -3.8070    2.1591 C   0  0  0  0  0  0  0  0  0  0  0  0 
    2.1134   -0.3130   -1.9962 H   0  0  0  0  0  0  0  0  0  0  0  0 
    2.0702   -2.0143   -1.5086 H   0  0  0  0  0  0  0  0  0  0  0  0 
    3.6037   -1.1309   -1.4829 H   0  0  0  0  0  0  0  0  0  0  0  0 
    0.3205    0.2963   -0.2828 H   0  0  0  0  0  0  0  0  0  0  0  0 
    0.5546   -0.0878    1.4350 H   0  0  0  0  0  0  0  0  0  0  0  0 
    0.2092   -1.3800    0.2763 H   0  0  0  0  0  0  0  0  0  0  0  0 
    6.3966   -5.6921    4.1675 H   0  0  0  0  0  0  0  0  0  0  0  0 
    6.7077   -4.2870    3.1284 H   0  0  0  0  0  0  0  0  0  0  0  0 
    5.6335   -5.5754    2.5693 H   0  0  0  0  0  0  0  0  0  0  0  0 
    5.5241   -4.2757    6.1121 H   0  0  0  0  0  0  0  0  0  0  0  0 
    4.3754   -2.9574    5.8137 H   0  0  0  0  0  0  0  0  0  0  0  0 
    6.0344   -2.8590    5.1966 H   0  0  0  0  0  0  0  0  0  0  0  0 
    0.8114   -6.4049    2.6743 H   0  0  0  0  0  0  0  0  0  0  0  0 
    0.4533   -4.8051    2.0011 H   0  0  0  0  0  0  0  0  0  0  0  0 
    1.0465   -4.9476    3.6611 H   0  0  0  0  0  0  0  0  0  0  0  0 
    2.4504   -6.9642    0.7935 H   0  0  0  0  0  0  0  0  0  0  0  0 
    3.7710   -5.8488    0.3911 H   0  0  0  0  0  0  0  0  0  0  0  0 
    2.0982   -5.4224    0.0041 H   0  0  0  0  0  0  0  0  0  0  0  0 
    4.2013   -0.0770    2.0299 H   0  0  0  0  0  0  0  0  0  0  0  0 
    5.2032   -1.6028    3.6563 H   0  0  0  0  0  0  0  0  0  0  0  0 
    1.7582   -3.2725    0.5646 H   0  0  0  0  0  0  0  0  0  0  0  0 
    2.7294    0.3722    0.3059 H   0  0  0  0  0  0  0  0  0  0  0  0 
    4.0145   -5.0087    4.3989 H   0  0  0  0  0  0  0  0  0  0  0  0 
    3.2133   -5.8459    2.8208 H   0  0  0  0  0  0  0  0  0  0  0  0 
  1 10  1  0  0  0  0 
  2 20  1  0  0  0  0 
  3 11  1  0  0  0  0 
  3 22  1  0  0  0  0 
  4 26  1  0  0  0  0 
  4 25  1  0  0  0  0 
  5 28  1  0  0  0  0 
  5 30  1  0  0  0  0 
  6 31  1  0  0  0  0 
  6 12  1  0  0  0  0 
  7  8  2  0  0  0  0 
  8 14  1  0  0  0  0 
  8 35  1  0  0  0  0 
  9 15  1  0  0  0  0 
 10 37  1  0  0  0  0 
 10  2  1  0  0  0  0 
 10 13  1  0  0  0  0 
 11 38  1  0  0  0  0 
 11  4  1  0  0  0  0 
 12 15  1  0  0  0  0 
 12  5  1  0  0  0  0 
 12 39  1  0  0  0  0 
 13  9  2  0  0  0  0 
 13  7  1  0  0  0  0 
 14 11  1  0  0  0  0 
 15 14  2  0  0  0  0 
 16  1  1  0  0  0  0 
 17  1  1  0  0  0  0 
 18  1  1  0  0  0  0 
 19  2  1  0  0  0  0 
 21  2  1  0  0  0  0 
 23  3  1  0  0  0  0 
 24  3  1  0  0  0  0 
 27  4  1  0  0  0  0 
 29  5  1  0  0  0  0 
 32  6  1  0  0  0  0 
 33  6  1  0  0  0  0 
 34  7  1  0  0  0  0 
 36  9  1  0  0  0  0 
M  END 
>  <HBA> 
0 
 
>  <HBD> 
0 
 
>  <TPSA> 
0.0 
 
>  <cid> 
70359 
 
>  <dipole> 
0.3 
 
>  <excitation_energy_1> 
5.136 
 
>  <excitation_energy_2> 
5.589 
 
>  <excitation_energy_3> 
5.709 
 
>  <excitation_energy_4> 
5.851 
 
>  <homo_energy> 
-6.055 
 
>  <homo_lumo_gap> 
6.27 
 
>  <logP> 
5.057 
 
>  <lumo_energy> 
0.215 
 
>  <melting_point> 
12.84 
 
>  <molecular_refractivity> 
70.18 
 
>  <oscillator_strength_1> 
0.0047 
 
>  <oscillator_strength_2> 
0.0114 
 
>  <oscillator_strength_3> 
0.0534 
 
>  <oscillator_strength_4> 
0.0028 
 
>  <open_babel_can_smiles> 
CC(c1cc(ccc1C(C)C)C(C)C)C 
 
>  <mulliken_charges> 
39 
1   -0.437957 
2   -0.437864 
3   -0.437436 
4   -0.451596 
5   -0.436812 
6   -0.443074 
7   -0.204462 
8   -0.185275 
9   -0.255562 
10   -0.158607 
11   -0.157008 
12   -0.158171 
13   0.197163 
14   0.1082 
15   0.122933 
16   0.139036 
17   0.141909 
18   0.14861 
19   0.139047 
20   0.148601 
21   0.141948 
22   0.138661 
23   0.145896 
24   0.14897 
25   0.140781 
26   0.150146 
27   0.144025 
28   0.138456 
29   0.143695 
30   0.147321 
31   0.139155 
32   0.149866 
33   0.142874 
34   0.116622 
35   0.118735 
36   0.117426 
37   0.126414 
38   0.135486 
39   0.131848 
 
>  <lowdin_charges> 
39 
1   -0.441167 
2   -0.442353 
3   -0.444466 
4   -0.446936 
5   -0.440538 
6   -0.440931 
7   -0.173387 
8   -0.16924 
9   -0.173667 
10   -0.117249 
11   -0.124531 
12   -0.126101 
13   -0.003511 
14   -0.01715 
15   -0.008984 
16   0.148274 
17   0.146346 
18   0.150674 
19   0.148285 
20   0.151495 
21   0.146602 
22   0.147664 
23   0.150913 
24   0.150754 
25   0.150623 
26   0.153838 
27   0.146521 
28   0.145382 
29   0.14907 
30   0.150428 
31   0.146033 
32   0.15054 
33   0.147547 
34   0.14988 
35   0.155874 
36   0.150088 
37   0.140421 
38   0.145509 
39   0.14745 
 
$$$$ 
 
