PCCDB-ID:  33104 
public computational chemistry database (PCCDB) project, http://pccdb.org 
 
 18 19  0  0  0  0  0  0  0  0999 V2000 
    0.9732    0.0474   -0.0878 C   0  0  0  0  0  0  0  0  0  0  0  0 
    4.6530    1.1646   -0.0968 C   0  0  0  0  0  0  0  0  0  0  0  0 
    3.2449    1.1854   -0.0940 C   0  0  0  0  0  0  0  0  0  0  0  0 
    5.3603   -0.0345   -0.0968 C   0  0  0  0  0  0  0  0  0  0  0  0 
    2.8138   -2.5989   -0.0891 C   0  0  0  0  0  0  0  0  0  0  0  0 
    3.9762   -3.2967   -0.0900 C   0  0  0  0  0  0  0  0  0  0  0  0 
    2.4808    0.0183   -0.0914 C   0  0  0  0  0  0  0  0  0  0  0  0 
    3.1860   -1.2028   -0.0914 C   0  0  0  0  0  0  0  0  0  0  0  0 
    4.5923   -1.1936   -0.0942 C   0  0  0  0  0  0  0  0  0  0  0  0 
    5.0763   -2.4757   -0.0935 O   0  0  0  0  0  0  0  0  0  0  0  0 
    0.5956    1.0745   -0.0886 H   0  0  0  0  0  0  0  0  0  0  0  0 
    0.5638   -0.4588    0.7961 H   0  0  0  0  0  0  0  0  0  0  0  0 
    0.5596   -0.4618   -0.9680 H   0  0  0  0  0  0  0  0  0  0  0  0 
    5.1966    2.1052   -0.0989 H   0  0  0  0  0  0  0  0  0  0  0  0 
    2.7350    2.1458   -0.0938 H   0  0  0  0  0  0  0  0  0  0  0  0 
    6.4445   -0.0718   -0.0994 H   0  0  0  0  0  0  0  0  0  0  0  0 
    1.8181   -3.0200   -0.0860 H   0  0  0  0  0  0  0  0  0  0  0  0 
    4.1961   -4.3541   -0.0906 H   0  0  0  0  0  0  0  0  0  0  0  0 
  1 12  1  0  0  0  0 
  2  4  2  0  0  0  0 
  2  3  1  0  0  0  0 
  3 15  1  0  0  0  0 
  3  7  2  0  0  0  0 
  4  9  1  0  0  0  0 
  5 17  1  0  0  0  0 
  6  5  2  0  0  0  0 
  7  1  1  0  0  0  0 
  8  7  1  0  0  0  0 
  8  5  1  0  0  0  0 
  9 10  1  0  0  0  0 
  9  8  2  0  0  0  0 
 10  6  1  0  0  0  0 
 11  1  1  0  0  0  0 
 13  1  1  0  0  0  0 
 14  2  1  0  0  0  0 
 16  4  1  0  0  0  0 
 18  6  1  0  0  0  0 
M  END 
>  <HBA> 
1 
 
>  <HBD> 
0 
 
>  <TPSA> 
13.14 
 
>  <cid> 
33104 
 
>  <dipole> 
1.05 
 
>  <excitation_energy_1> 
4.928 
 
>  <excitation_energy_2> 
5.004 
 
>  <excitation_energy_3> 
5.569 
 
>  <excitation_energy_4> 
5.795 
 
>  <homo_energy> 
-5.823 
 
>  <homo_lumo_gap> 
5.415 
 
>  <logP> 
2.741 
 
>  <lumo_energy> 
-0.408 
 
>  <melting_point> 
51.72 
 
>  <molecular_refractivity> 
41.18 
 
>  <oscillator_strength_1> 
0.0161 
 
>  <oscillator_strength_2> 
0.2031 
 
>  <oscillator_strength_3> 
0.016 
 
>  <oscillator_strength_4> 
0.0002 
 
>  <open_babel_can_smiles> 
Cc1cccc2c1cco2 
 
>  <mulliken_charges> 
18 
1   -0.528662 
2   -0.143142 
3   -0.193937 
4   -0.182663 
5   -0.222252 
6   0.080616 
7   0.115921 
8   0.067454 
9   0.313552 
10   -0.476344 
11   0.156308 
12   0.161569 
13   0.161533 
14   0.12904 
15   0.118417 
16   0.141301 
17   0.142784 
18   0.158504 
 
>  <lowdin_charges> 
18 
1   -0.441217 
2   -0.1582 
3   -0.180743 
4   -0.177844 
5   -0.215339 
6   -0.055067 
7   -0.000343 
8   -0.039525 
9   0.083303 
10   -0.114627 
11   0.157516 
12   0.160625 
13   0.160634 
14   0.159022 
15   0.154185 
16   0.166352 
17   0.170912 
18   0.170357 
 
$$$$ 
 
