PCCDB-ID:  8424 
public computational chemistry database (PCCDB) project, http://pccdb.org 
 
 25 26  0  0  1  0  0  0  0  0999 V2000 
    1.0401    0.3390    0.4993 C   0  0  0  0  0  0  0  0  0  0  0  0 
    2.5306    0.9838   -2.8411 C   0  0  0  0  0  0  0  0  0  0  0  0 
    3.4995   -0.0871   -2.2507 C   0  0  0  0  0  0  0  0  0  0  0  0 
    0.2557   -0.1436   -2.4548 C   0  0  0  0  0  0  0  0  0  0  0  0 
    1.8333   -1.8897   -1.4987 C   0  0  0  0  0  0  0  0  0  0  0  0 
    1.2797    0.8947   -1.9319 C   0  0  1  0  0  0  0  0  0  0  0  0 
    2.7079   -0.6873   -1.0626 C   0  0  2  0  0  0  0  0  0  0  0  0 
    0.9129   -1.5183   -2.6758 C   0  0  1  0  0  0  0  0  0  0  0  0 
    1.8945    0.4718   -0.6641 N   0  0  0  0  0  0  0  0  0  0  0  0 
   -0.0452   -2.5381   -2.9579 O   0  0  0  0  0  0  0  0  0  0  0  0 
    1.6589    0.1000    1.3725 H   0  0  0  0  0  0  0  0  0  0  0  0 
    0.2509   -0.4313    0.4312 H   0  0  0  0  0  0  0  0  0  0  0  0 
    0.5474    1.2991    0.6932 H   0  0  0  0  0  0  0  0  0  0  0  0 
    2.2894    0.8026   -3.8939 H   0  0  0  0  0  0  0  0  0  0  0  0 
    2.9714    1.9822   -2.7713 H   0  0  0  0  0  0  0  0  0  0  0  0 
    4.4178    0.3828   -1.8875 H   0  0  0  0  0  0  0  0  0  0  0  0 
    3.7863   -0.8496   -2.9830 H   0  0  0  0  0  0  0  0  0  0  0  0 
   -0.2096    0.1985   -3.3876 H   0  0  0  0  0  0  0  0  0  0  0  0 
   -0.5580   -0.2499   -1.7219 H   0  0  0  0  0  0  0  0  0  0  0  0 
    1.2143   -2.2151   -0.6495 H   0  0  0  0  0  0  0  0  0  0  0  0 
    2.4580   -2.7483   -1.7746 H   0  0  0  0  0  0  0  0  0  0  0  0 
    0.7907    1.8674   -1.8008 H   0  0  0  0  0  0  0  0  0  0  0  0 
    3.3615   -0.9838   -0.2337 H   0  0  0  0  0  0  0  0  0  0  0  0 
    1.5153   -1.4752   -3.5900 H   0  0  0  0  0  0  0  0  0  0  0  0 
   -0.6122   -2.6232   -2.1742 H   0  0  0  0  0  0  0  0  0  0  0  0 
  1 13  1  0  0  0  0 
  1 11  1  0  0  0  0 
  2 15  1  0  0  0  0 
  2  3  1  0  0  0  0 
  2  6  1  0  0  0  0 
  3 16  1  0  0  0  0 
  3  7  1  0  0  0  0 
  4  6  1  0  0  0  0 
  4 19  1  0  0  0  0 
  5  7  1  0  0  0  0 
  5 20  1  0  0  0  0 
  6 22  1  1  0  0  0 
  6  9  1  0  0  0  0 
  7  9  1  0  0  0  0 
  7 23  1  1  0  0  0 
  8 24  1  6  0  0  0 
  8  4  1  0  0  0  0 
  8  5  1  0  0  0  0 
  9  1  1  0  0  0  0 
 10  8  1  0  0  0  0 
 10 25  1  0  0  0  0 
 12  1  1  0  0  0  0 
 14  2  1  0  0  0  0 
 17  3  1  0  0  0  0 
 18  4  1  0  0  0  0 
 21  5  1  0  0  0  0 
M  END 
>  <HBA> 
2 
 
>  <HBD> 
1 
 
>  <TPSA> 
23.47 
 
>  <cid> 
8424 
 
>  <dipole> 
1.37 
 
>  <excitation_energy_1> 
4.908 
 
>  <excitation_energy_2> 
5.258 
 
>  <excitation_energy_3> 
5.532 
 
>  <excitation_energy_4> 
5.532 
 
>  <homo_energy> 
-5.535 
 
>  <homo_lumo_gap> 
7.396 
 
>  <logP> 
0.542 
 
>  <lumo_energy> 
1.861 
 
>  <melting_point> 
38.52 
 
>  <molecular_refractivity> 
44.31 
 
>  <oscillator_strength_1> 
0.0013 
 
>  <oscillator_strength_2> 
0.0076 
 
>  <oscillator_strength_3> 
0.0138 
 
>  <oscillator_strength_4> 
0.0141 
 
>  <open_babel_can_smiles> 
O[C@@H]1C[C@H]2CC[C@@H](C1)N2C 
 
>  <mulliken_charges> 
25 
1   -0.299037 
2   -0.276656 
3   -0.276623 
4   -0.286868 
5   -0.287787 
6   0.014517 
7   0.015317 
8   0.136028 
9   -0.369621 
10   -0.63007 
11   0.149089 
12   0.114885 
13   0.149003 
14   0.13657 
15   0.145146 
16   0.145214 
17   0.136413 
18   0.141556 
19   0.119373 
20   0.119523 
21   0.141672 
22   0.12218 
23   0.12208 
24   0.138949 
25   0.379147 
 
>  <lowdin_charges> 
25 
1   -0.360359 
2   -0.284213 
3   -0.2872 
4   -0.312493 
5   -0.313194 
6   -0.068351 
7   -0.06902 
8   -0.007933 
9   -0.187354 
10   -0.460898 
11   0.151495 
12   0.117148 
13   0.151172 
14   0.14257 
15   0.151657 
16   0.152624 
17   0.144808 
18   0.150863 
19   0.137778 
20   0.138059 
21   0.151265 
22   0.140424 
23   0.141573 
24   0.144157 
25   0.335422 
 
$$$$ 
 
