PCCDB-ID:  35784 
public computational chemistry database (PCCDB) project, http://pccdb.org 
 
 27 26  0  0  1  0  0  0  0  0999 V2000 
    1.8202    2.1631   -1.3027 C   0  0  0  0  0  0  0  0  0  0  0  0 
    5.1637   -0.9323   -4.4580 C   0  0  0  0  0  0  0  0  0  0  0  0 
    8.3075   -0.7563   -4.2694 C   0  0  0  0  0  0  0  0  0  0  0  0 
    3.1468    2.3806   -2.0375 C   0  0  0  0  0  0  0  0  0  0  0  0 
    3.8294    1.0718   -2.4584 C   0  0  0  0  0  0  0  0  0  0  0  0 
    5.1478    1.2997   -3.2100 C   0  0  0  0  0  0  0  0  0  0  0  0 
    5.9490    0.0257   -3.5466 C   0  0  2  0  0  0  0  0  0  0  0  0 
    7.3254    0.4121   -4.1462 C   0  0  2  0  0  0  0  0  0  0  0  0 
    7.1947    1.0982   -5.3972 O   0  0  0  0  0  0  0  0  0  0  0  0 
    1.3618    3.1154   -1.0126 H   0  0  0  0  0  0  0  0  0  0  0  0 
    1.9641    1.5715   -0.3898 H   0  0  0  0  0  0  0  0  0  0  0  0 
    1.1011    1.6259   -1.9335 H   0  0  0  0  0  0  0  0  0  0  0  0 
    4.2322   -1.2578   -3.9854 H   0  0  0  0  0  0  0  0  0  0  0  0 
    5.7357   -1.8366   -4.6940 H   0  0  0  0  0  0  0  0  0  0  0  0 
    4.8917   -0.4434   -5.4027 H   0  0  0  0  0  0  0  0  0  0  0  0 
    8.4572   -1.2550   -3.3046 H   0  0  0  0  0  0  0  0  0  0  0  0 
    9.2767   -0.3921   -4.6249 H   0  0  0  0  0  0  0  0  0  0  0  0 
    7.9521   -1.5112   -4.9823 H   0  0  0  0  0  0  0  0  0  0  0  0 
    3.8310    2.9547   -1.3965 H   0  0  0  0  0  0  0  0  0  0  0  0 
    2.9745    3.0011   -2.9285 H   0  0  0  0  0  0  0  0  0  0  0  0 
    3.1314    0.4942   -3.0800 H   0  0  0  0  0  0  0  0  0  0  0  0 
    4.0181    0.4601   -1.5625 H   0  0  0  0  0  0  0  0  0  0  0  0 
    5.7866    1.9545   -2.5988 H   0  0  0  0  0  0  0  0  0  0  0  0 
    4.9576    1.8511   -4.1406 H   0  0  0  0  0  0  0  0  0  0  0  0 
    6.1597   -0.5019   -2.6026 H   0  0  0  0  0  0  0  0  0  0  0  0 
    7.7717    1.1629   -3.4823 H   0  0  0  0  0  0  0  0  0  0  0  0 
    6.9109    0.4449   -6.0561 H   0  0  0  0  0  0  0  0  0  0  0  0 
  1 10  1  0  0  0  0 
  1 11  1  0  0  0  0 
  2 13  1  0  0  0  0 
  2  7  1  0  0  0  0 
  3  8  1  0  0  0  0 
  3 16  1  0  0  0  0 
  4 19  1  0  0  0  0 
  4  1  1  0  0  0  0 
  5  4  1  0  0  0  0 
  5 22  1  0  0  0  0 
  6 23  1  0  0  0  0 
  6  5  1  0  0  0  0 
  7  6  1  0  0  0  0 
  7 25  1  1  0  0  0 
  8  7  1  0  0  0  0 
  8 26  1  1  0  0  0 
  9  8  1  0  0  0  0 
 12  1  1  0  0  0  0 
 14  2  1  0  0  0  0 
 15  2  1  0  0  0  0 
 17  3  1  0  0  0  0 
 18  3  1  0  0  0  0 
 20  4  1  0  0  0  0 
 21  5  1  0  0  0  0 
 24  6  1  0  0  0  0 
 27  9  1  0  0  0  0 
M  END 
>  <HBA> 
1 
 
>  <HBD> 
1 
 
>  <TPSA> 
20.23 
 
>  <cid> 
35784 
 
>  <dipole> 
1.53 
 
>  <excitation_energy_1> 
6.459 
 
>  <excitation_energy_2> 
6.967 
 
>  <excitation_energy_3> 
7.269 
 
>  <excitation_energy_4> 
7.342 
 
>  <homo_energy> 
-7.01 
 
>  <homo_lumo_gap> 
8.906 
 
>  <logP> 
2.193 
 
>  <lumo_energy> 
1.897 
 
>  <melting_point> 
-9.27 
 
>  <molecular_refractivity> 
41.73 
 
>  <oscillator_strength_1> 
0.0139 
 
>  <oscillator_strength_2> 
0.002 
 
>  <oscillator_strength_3> 
0.0073 
 
>  <oscillator_strength_4> 
0.0013 
 
>  <open_babel_can_smiles> 
CCCC[C@H]([C@H](O)C)C 
 
>  <mulliken_charges> 
27 
1   -0.441552 
2   -0.479221 
3   -0.467727 
4   -0.246574 
5   -0.252951 
6   -0.254847 
7   -0.072807 
8   0.136321 
9   -0.627064 
10   0.141449 
11   0.140045 
12   0.140118 
13   0.15541 
14   0.142845 
15   0.136624 
16   0.14327 
17   0.15785 
18   0.135182 
19   0.130111 
20   0.132039 
21   0.129113 
22   0.122677 
23   0.123073 
24   0.144183 
25   0.114133 
26   0.131935 
27   0.386364 
 
>  <lowdin_charges> 
27 
1   -0.446194 
2   -0.456759 
3   -0.463243 
4   -0.273287 
5   -0.278685 
6   -0.278202 
7   -0.14048 
8   -0.002096 
9   -0.467576 
10   0.149176 
11   0.145635 
12   0.146806 
13   0.156375 
14   0.148033 
15   0.143416 
16   0.152783 
17   0.158151 
18   0.144966 
19   0.140033 
20   0.140222 
21   0.139228 
22   0.135362 
23   0.140174 
24   0.147171 
25   0.136532 
26   0.143524 
27   0.338936 
 
$$$$ 
 
