PCCDB-ID:  44910 
public computational chemistry database (PCCDB) project, http://pccdb.org 
 
 31 30  0  0  0  0  0  0  0  0999 V2000 
    0.5914   -0.6408    0.7387 C   0  0  0  0  0  0  0  0  0  0  0  0 
    2.8644   -3.6324   -0.4022 C   0  0  0  0  0  0  0  0  0  0  0  0 
    9.2056   -2.3218   -0.9614 C   0  0  0  0  0  0  0  0  0  0  0  0 
    2.0636   -0.6344    0.3207 C   0  0  0  0  0  0  0  0  0  0  0  0 
    2.5479   -2.9664    0.9497 C   0  0  0  0  0  0  0  0  0  0  0  0 
    5.2440   -1.9671    1.9026 C   0  0  0  0  0  0  0  0  0  0  0  0 
    6.7215   -1.6233    1.6884 C   0  0  0  0  0  0  0  0  0  0  0  0 
    4.3267   -1.2615    0.8962 C   0  0  0  0  0  0  0  0  0  0  0  0 
    7.3239   -2.2874    0.4627 C   0  0  0  0  0  0  0  0  0  0  0  0 
    2.9042   -1.5473    1.1027 N   0  0  0  0  0  0  0  0  0  0  0  0 
    6.8362   -3.2075   -0.1599 O   0  0  0  0  0  0  0  0  0  0  0  0 
    8.5197   -1.7352    0.1570 O   0  0  0  0  0  0  0  0  0  0  0  0 
    0.0611    0.1797    0.2418 H   0  0  0  0  0  0  0  0  0  0  0  0 
    0.5023   -0.5059    1.8220 H   0  0  0  0  0  0  0  0  0  0  0  0 
    0.0786   -1.5693    0.4663 H   0  0  0  0  0  0  0  0  0  0  0  0 
    2.4956   -4.6651   -0.4008 H   0  0  0  0  0  0  0  0  0  0  0  0 
    3.9415   -3.6664   -0.5967 H   0  0  0  0  0  0  0  0  0  0  0  0 
    2.3829   -3.1122   -1.2385 H   0  0  0  0  0  0  0  0  0  0  0  0 
   10.1329   -1.7575   -1.0640 H   0  0  0  0  0  0  0  0  0  0  0  0 
    8.6021   -2.2387   -1.8691 H   0  0  0  0  0  0  0  0  0  0  0  0 
    9.4170   -3.3778   -0.7729 H   0  0  0  0  0  0  0  0  0  0  0  0 
    2.4610    0.3752    0.4850 H   0  0  0  0  0  0  0  0  0  0  0  0 
    2.1374   -0.8142   -0.7698 H   0  0  0  0  0  0  0  0  0  0  0  0 
    3.0499   -3.5261    1.7467 H   0  0  0  0  0  0  0  0  0  0  0  0 
    1.4776   -3.0577    1.1594 H   0  0  0  0  0  0  0  0  0  0  0  0 
    4.9443   -1.6774    2.9163 H   0  0  0  0  0  0  0  0  0  0  0  0 
    5.1354   -3.0532    1.8283 H   0  0  0  0  0  0  0  0  0  0  0  0 
    7.3191   -1.9530    2.5494 H   0  0  0  0  0  0  0  0  0  0  0  0 
    6.8850   -0.5413    1.6116 H   0  0  0  0  0  0  0  0  0  0  0  0 
    4.6623   -1.4972   -0.1303 H   0  0  0  0  0  0  0  0  0  0  0  0 
    4.4561   -0.1779    1.0205 H   0  0  0  0  0  0  0  0  0  0  0  0 
  1 14  1  0  0  0  0 
  2 16  1  0  0  0  0 
  2  5  1  0  0  0  0 
  3 21  1  0  0  0  0 
  3 12  1  0  0  0  0 
  4 22  1  0  0  0  0 
  4  1  1  0  0  0  0 
  4 10  1  0  0  0  0 
  5 10  1  0  0  0  0 
  5 25  1  0  0  0  0 
  5 24  1  0  0  0  0 
  6 26  1  0  0  0  0 
  7  6  1  0  0  0  0 
  7 28  1  0  0  0  0 
  8 31  1  0  0  0  0 
  8 10  1  0  0  0  0 
  8  6  1  0  0  0  0 
  9  7  1  0  0  0  0 
 11  9  2  0  0  0  0 
 12  9  1  0  0  0  0 
 13  1  1  0  0  0  0 
 15  1  1  0  0  0  0 
 17  2  1  0  0  0  0 
 18  2  1  0  0  0  0 
 19  3  1  0  0  0  0 
 20  3  1  0  0  0  0 
 23  4  1  0  0  0  0 
 27  6  1  0  0  0  0 
 29  7  1  0  0  0  0 
 30  8  1  0  0  0  0 
M  END 
>  <HBA> 
3 
 
>  <HBD> 
0 
 
>  <TPSA> 
29.54 
 
>  <cid> 
44910 
 
>  <dipole> 
1.65 
 
>  <excitation_energy_1> 
4.863 
 
>  <excitation_energy_2> 
4.992 
 
>  <excitation_energy_3> 
5.316 
 
>  <excitation_energy_4> 
5.395 
 
>  <homo_energy> 
-5.366 
 
>  <homo_lumo_gap> 
5.701 
 
>  <logP> 
1.281 
 
>  <lumo_energy> 
0.335 
 
>  <melting_point> 
-13.48 
 
>  <molecular_refractivity> 
49.56 
 
>  <oscillator_strength_1> 
0.0067 
 
>  <oscillator_strength_2> 
0.0043 
 
>  <oscillator_strength_3> 
0.0122 
 
>  <oscillator_strength_4> 
0.0211 
 
>  <open_babel_can_smiles> 
CCN(CCCC(=O)OC)CC 
 
>  <mulliken_charges> 
31 
1   -0.454396 
2   -0.472499 
3   -0.218247 
4   -0.103429 
5   -0.137814 
6   -0.267823 
7   -0.366576 
8   -0.110806 
9   0.621903 
10   -0.391632 
11   -0.479044 
12   -0.45036 
13   0.140292 
14   0.154232 
15   0.147593 
16   0.138436 
17   0.176051 
18   0.142822 
19   0.164593 
20   0.170724 
21   0.16958 
22   0.131693 
23   0.111781 
24   0.140737 
25   0.138515 
26   0.143201 
27   0.161877 
28   0.176363 
29   0.16762 
30   0.128885 
31   0.125727 
 
>  <lowdin_charges> 
31 
1   -0.451395 
2   -0.469164 
3   -0.277808 
4   -0.193322 
5   -0.205919 
6   -0.276455 
7   -0.301162 
8   -0.199645 
9   0.19797 
10   -0.193872 
11   -0.268943 
12   -0.194372 
13   0.152799 
14   0.152267 
15   0.148037 
16   0.150465 
17   0.15981 
18   0.147406 
19   0.160596 
20   0.159676 
21   0.157286 
22   0.140547 
23   0.113649 
24   0.144314 
25   0.143122 
26   0.150237 
27   0.154672 
28   0.174705 
29   0.163907 
30   0.124266 
31   0.136325 
 
$$$$ 
 
