PCCDB-ID:  15864 
public computational chemistry database (PCCDB) project, http://pccdb.org 
 
 21 21  0  0  0  0  0  0  0  0999 V2000 
    3.9168   -1.1584   -0.0422 C   0  0  0  0  0  0  0  0  0  0  0  0 
   -0.3154    3.1312    4.1813 C   0  0  0  0  0  0  0  0  0  0  0  0 
    1.1082    1.5827    2.7031 C   0  0  0  0  0  0  0  0  0  0  0  0 
   -0.0392    4.3931    4.7639 C   0  0  0  0  0  0  0  0  0  0  0  0 
    2.2670    1.3379    2.0627 C   0  0  0  0  0  0  0  0  0  0  0  0 
    0.8152    2.7528    3.4830 C   0  0  0  0  0  0  0  0  0  0  0  0 
    1.2397    4.6906    4.3774 C   0  0  0  0  0  0  0  0  0  0  0  0 
    2.4278    0.0838    1.2947 C   0  0  0  0  0  0  0  0  0  0  0  0 
    2.0510    5.8316    4.6629 N   0  0  0  0  0  0  0  0  0  0  0  0 
    1.5837   -0.7844    1.1767 O   0  0  0  0  0  0  0  0  0  0  0  0 
    1.5276    6.6972    5.3720 O   0  0  0  0  0  0  0  0  0  0  0  0 
    3.1863    5.8663    4.1913 O   0  0  0  0  0  0  0  0  0  0  0  0 
    3.6540    0.0240    0.7301 O   0  0  0  0  0  0  0  0  0  0  0  0 
    1.7753    3.7203    3.6060 O   0  0  0  0  0  0  0  0  0  0  0  0 
    3.2206   -1.2293   -0.8824 H   0  0  0  0  0  0  0  0  0  0  0  0 
    3.8154   -2.0524    0.5788 H   0  0  0  0  0  0  0  0  0  0  0  0 
    4.9410   -1.0519   -0.4000 H   0  0  0  0  0  0  0  0  0  0  0  0 
   -1.2302    2.5604    4.2582 H   0  0  0  0  0  0  0  0  0  0  0  0 
    0.3136    0.8434    2.6371 H   0  0  0  0  0  0  0  0  0  0  0  0 
   -0.6746    5.0092    5.3813 H   0  0  0  0  0  0  0  0  0  0  0  0 
    3.1004    2.0319    2.0864 H   0  0  0  0  0  0  0  0  0  0  0  0 
  1 16  1  0  0  0  0 
  1 13  1  0  0  0  0 
  2 18  1  0  0  0  0 
  2  4  1  0  0  0  0 
  3  6  1  0  0  0  0 
  4 20  1  0  0  0  0 
  5 21  1  0  0  0  0 
  5  3  2  0  0  0  0 
  6 14  1  0  0  0  0 
  6  2  2  0  0  0  0 
  7  9  1  0  0  0  0 
  7  4  2  0  0  0  0 
  8  5  1  0  0  0  0 
  9 11  2  0  0  0  0 
 10  8  2  0  0  0  0 
 12  9  2  0  0  0  0 
 13  8  1  0  0  0  0 
 14  7  1  0  0  0  0 
 15  1  1  0  0  0  0 
 17  1  1  0  0  0  0 
 19  3  1  0  0  0  0 
M  END 
>  <HBA> 
3 
 
>  <HBD> 
0 
 
>  <TPSA> 
85.26 
 
>  <cid> 
15864 
 
>  <dipole> 
3.53 
 
>  <excitation_energy_1> 
3.586 
 
>  <excitation_energy_2> 
3.651 
 
>  <excitation_energy_3> 
3.92 
 
>  <excitation_energy_4> 
4.155 
 
>  <homo_energy> 
-6.855 
 
>  <homo_lumo_gap> 
3.85 
 
>  <logP> 
1.897 
 
>  <lumo_energy> 
-3.004 
 
>  <melting_point> 
76.98 
 
>  <molecular_refractivity> 
48.52 
 
>  <oscillator_strength_1> 
0.5309 
 
>  <oscillator_strength_2> 
0.0 
 
>  <oscillator_strength_3> 
0.0 
 
>  <oscillator_strength_4> 
0.0002 
 
>  <open_babel_can_smiles> 
COC(=O)/C=C/c1ccc(o1)N(=O)=O 
 
>  <mulliken_charges> 
21 
1   -0.220258 
2   -0.204034 
3   -0.157091 
4   -0.141735 
5   -0.202824 
6   0.373433 
7   0.535712 
8   0.628268 
9   0.333039 
10   -0.493759 
11   -0.400104 
12   -0.385773 
13   -0.464495 
14   -0.454923 
15   0.173138 
16   0.17398 
17   0.169255 
18   0.174302 
19   0.186667 
20   0.193993 
21   0.183209 
 
>  <lowdin_charges> 
21 
1   -0.277355 
2   -0.181783 
3   -0.124454 
4   -0.153283 
5   -0.174918 
6   0.097404 
7   0.07653 
8   0.193313 
9   0.30288 
10   -0.273014 
11   -0.252754 
12   -0.232267 
13   -0.185706 
14   -0.061084 
15   0.161539 
16   0.161962 
17   0.16213 
18   0.184974 
19   0.190727 
20   0.19938 
21   0.185781 
 
$$$$ 
 
