PCCDB-ID:  48898 
public computational chemistry database (PCCDB) project, http://pccdb.org 
 
 33 33  0  0  1  0  0  0  0  0999 V2000 
    5.1907   -0.1207   -2.1654 C   0  0  0  0  0  0  0  0  0  0  0  0 
    4.0794   -1.7912   -0.6275 C   0  0  0  0  0  0  0  0  0  0  0  0 
    0.9021    3.6288   -6.6825 C   0  0  0  0  0  0  0  0  0  0  0  0 
    2.3670    5.8083   -3.2604 C   0  0  0  0  0  0  0  0  0  0  0  0 
    1.6526    0.8705   -3.5633 C   0  0  0  0  0  0  0  0  0  0  0  0 
    1.3597    1.7660   -4.5951 C   0  0  0  0  0  0  0  0  0  0  0  0 
    2.9650    2.5568   -2.4694 C   0  0  0  0  0  0  0  0  0  0  0  0 
    3.8654   -0.7847   -1.7679 C   0  0  0  0  0  0  0  0  0  0  0  0 
    2.4678    1.2468   -2.4927 C   0  0  0  0  0  0  0  0  0  0  0  0 
    1.8793    3.0639   -4.5767 C   0  0  0  0  0  0  0  0  0  0  0  0 
    2.6867    3.4632   -3.4881 C   0  0  0  0  0  0  0  0  0  0  0  0 
    2.7946    0.2612   -1.3825 C   0  0  1  0  0  0  0  0  0  0  0  0 
    1.6278   -0.4771   -0.9996 O   0  0  0  0  0  0  0  0  0  0  0  0 
    1.6691    4.0016   -5.5486 O   0  0  0  0  0  0  0  0  0  0  0  0 
    3.2635    4.7096   -3.4363 O   0  0  0  0  0  0  0  0  0  0  0  0 
    5.9292   -0.8821   -2.4411 H   0  0  0  0  0  0  0  0  0  0  0  0 
    5.6100    0.4546   -1.3291 H   0  0  0  0  0  0  0  0  0  0  0  0 
    5.0730    0.5591   -3.0148 H   0  0  0  0  0  0  0  0  0  0  0  0 
    4.8152   -2.5501   -0.9187 H   0  0  0  0  0  0  0  0  0  0  0  0 
    3.1467   -2.2937   -0.3615 H   0  0  0  0  0  0  0  0  0  0  0  0 
    4.4612   -1.2867    0.2703 H   0  0  0  0  0  0  0  0  0  0  0  0 
    0.8847    4.5057   -7.3323 H   0  0  0  0  0  0  0  0  0  0  0  0 
   -0.1266    3.3611   -6.4065 H   0  0  0  0  0  0  0  0  0  0  0  0 
    1.3610    2.7881   -7.2189 H   0  0  0  0  0  0  0  0  0  0  0  0 
    1.7873    5.6949   -2.3341 H   0  0  0  0  0  0  0  0  0  0  0  0 
    1.6842    5.9107   -4.1092 H   0  0  0  0  0  0  0  0  0  0  0  0 
    2.9945    6.6995   -3.1852 H   0  0  0  0  0  0  0  0  0  0  0  0 
    1.2351   -0.1317   -3.5884 H   0  0  0  0  0  0  0  0  0  0  0  0 
    0.7291    1.4411   -5.4151 H   0  0  0  0  0  0  0  0  0  0  0  0 
    3.5940    2.8993   -1.6517 H   0  0  0  0  0  0  0  0  0  0  0  0 
    3.4719   -1.3272   -2.6396 H   0  0  0  0  0  0  0  0  0  0  0  0 
    3.1789    0.8284   -0.5161 H   0  0  0  0  0  0  0  0  0  0  0  0 
    0.9179    0.1676   -0.8532 H   0  0  0  0  0  0  0  0  0  0  0  0 
  1  8  1  0  0  0  0 
  1 17  1  0  0  0  0 
  2 20  1  0  0  0  0 
  2 21  1  0  0  0  0 
  3 23  1  0  0  0  0 
  3 14  1  0  0  0  0 
  4 27  1  0  0  0  0 
  4 25  1  0  0  0  0 
  5  9  2  0  0  0  0 
  6 10  2  0  0  0  0 
  6  5  1  0  0  0  0 
  7 30  1  0  0  0  0 
  8 12  1  0  0  0  0 
  8  2  1  0  0  0  0 
  9  7  1  0  0  0  0 
  9 12  1  0  0  0  0 
 10 11  1  0  0  0  0 
 11 15  1  0  0  0  0 
 11  7  2  0  0  0  0 
 12 13  1  0  0  0  0 
 12 32  1  1  0  0  0 
 13 33  1  0  0  0  0 
 14 10  1  0  0  0  0 
 15  4  1  0  0  0  0 
 16  1  1  0  0  0  0 
 18  1  1  0  0  0  0 
 19  2  1  0  0  0  0 
 22  3  1  0  0  0  0 
 24  3  1  0  0  0  0 
 26  4  1  0  0  0  0 
 28  5  1  0  0  0  0 
 29  6  1  0  0  0  0 
 31  8  1  0  0  0  0 
M  END 
>  <HBA> 
3 
 
>  <HBD> 
1 
 
>  <TPSA> 
38.69 
 
>  <cid> 
48898 
 
>  <dipole> 
2.85 
 
>  <excitation_energy_1> 
4.902 
 
>  <excitation_energy_2> 
5.31 
 
>  <excitation_energy_3> 
5.384 
 
>  <excitation_energy_4> 
5.571 
 
>  <homo_energy> 
-5.731 
 
>  <homo_lumo_gap> 
5.802 
 
>  <logP> 
2.393 
 
>  <lumo_energy> 
0.071 
 
>  <melting_point> 
35.99 
 
>  <molecular_refractivity> 
59.97 
 
>  <oscillator_strength_1> 
0.0366 
 
>  <oscillator_strength_2> 
0.004 
 
>  <oscillator_strength_3> 
0.1246 
 
>  <oscillator_strength_4> 
0.0113 
 
>  <open_babel_can_smiles> 
COc1cc(ccc1OC)[C@H](C(C)C)O 
 
>  <mulliken_charges> 
33 
1   -0.454487 
2   -0.444226 
3   -0.215546 
4   -0.210309 
5   -0.189845 
6   -0.206183 
7   -0.241412 
8   -0.074211 
9   0.110555 
10   0.348243 
11   0.316033 
12   0.087675 
13   -0.635972 
14   -0.508398 
15   -0.521199 
16   0.142132 
17   0.135547 
18   0.157651 
19   0.134644 
20   0.169327 
21   0.131636 
22   0.170895 
23   0.151597 
24   0.155997 
25   0.136291 
26   0.162586 
27   0.158268 
28   0.140287 
29   0.133973 
30   0.132776 
31   0.129403 
32   0.108526 
33   0.387745 
 
>  <lowdin_charges> 
33 
1   -0.450102 
2   -0.447617 
3   -0.276767 
4   -0.277038 
5   -0.164633 
6   -0.208582 
7   -0.181878 
8   -0.125236 
9   -0.04164 
10   0.074976 
11   0.070211 
12   -0.000114 
13   -0.463436 
14   -0.194752 
15   -0.223498 
16   0.151317 
17   0.144846 
18   0.157044 
19   0.146867 
20   0.162371 
21   0.143351 
22   0.163898 
23   0.143421 
24   0.148576 
25   0.137173 
26   0.150261 
27   0.156223 
28   0.163269 
29   0.163418 
30   0.165205 
31   0.142934 
32   0.12676 
33   0.343173 
 
$$$$ 
 
