PCCDB-ID:  11328 
public computational chemistry database (PCCDB) project, http://pccdb.org 
 
 24 25  0  0  0  0  0  0  0  0999 V2000 
    0.7621    0.0410   -0.0369 C   0  0  0  0  0  0  0  0  0  0  0  0 
    7.3254    1.3972    0.3482 C   0  0  0  0  0  0  0  0  0  0  0  0 
    6.5192   -2.3406    0.2544 C   0  0  0  0  0  0  0  0  0  0  0  0 
    7.2150   -1.1097    0.3082 C   0  0  0  0  0  0  0  0  0  0  0  0 
    5.1469   -2.3578    0.1796 C   0  0  0  0  0  0  0  0  0  0  0  0 
    2.9796    1.2699    0.1082 C   0  0  0  0  0  0  0  0  0  0  0  0 
    4.3529    1.3017    0.1852 C   0  0  0  0  0  0  0  0  0  0  0  0 
    2.9953   -1.1322    0.0746 C   0  0  0  0  0  0  0  0  0  0  0  0 
    2.2694    0.0402    0.0496 C   0  0  0  0  0  0  0  0  0  0  0  0 
    6.5511    0.1015    0.2895 C   0  0  0  0  0  0  0  0  0  0  0  0 
    4.4139   -1.1412    0.1548 C   0  0  0  0  0  0  0  0  0  0  0  0 
    5.1204    0.1045    0.2110 C   0  0  0  0  0  0  0  0  0  0  0  0 
    0.4143    0.5705   -0.9333 H   0  0  0  0  0  0  0  0  0  0  0  0 
    0.3123    0.5478    0.8264 H   0  0  0  0  0  0  0  0  0  0  0  0 
    0.3627   -0.9772   -0.0742 H   0  0  0  0  0  0  0  0  0  0  0  0 
    8.4006    1.2036    0.4064 H   0  0  0  0  0  0  0  0  0  0  0  0 
    7.0481    1.9992    1.2229 H   0  0  0  0  0  0  0  0  0  0  0  0 
    7.1472    2.0190   -0.5384 H   0  0  0  0  0  0  0  0  0  0  0  0 
    7.0791   -3.2719    0.2725 H   0  0  0  0  0  0  0  0  0  0  0  0 
    8.3011   -1.1187    0.3648 H   0  0  0  0  0  0  0  0  0  0  0  0 
    4.6041   -3.2993    0.1384 H   0  0  0  0  0  0  0  0  0  0  0  0 
    2.4208    2.2033    0.0904 H   0  0  0  0  0  0  0  0  0  0  0  0 
    4.8605    2.2603    0.2279 H   0  0  0  0  0  0  0  0  0  0  0  0 
    2.4772   -2.0887    0.0320 H   0  0  0  0  0  0  0  0  0  0  0  0 
  1  9  1  0  0  0  0 
  1 14  1  0  0  0  0 
  2 16  1  0  0  0  0 
  2 17  1  0  0  0  0 
  3 19  1  0  0  0  0 
  3  4  2  0  0  0  0 
  4 20  1  0  0  0  0 
  5  3  1  0  0  0  0 
  6  7  2  0  0  0  0 
  7 12  1  0  0  0  0 
  7 23  1  0  0  0  0 
  8 11  1  0  0  0  0 
  9  8  2  0  0  0  0 
  9  6  1  0  0  0  0 
 10  4  1  0  0  0  0 
 10  2  1  0  0  0  0 
 11  5  2  0  0  0  0 
 11 12  1  0  0  0  0 
 12 10  2  0  0  0  0 
 13  1  1  0  0  0  0 
 15  1  1  0  0  0  0 
 18  2  1  0  0  0  0 
 21  5  1  0  0  0  0 
 22  6  1  0  0  0  0 
 24  8  1  0  0  0  0 
M  END 
>  <HBA> 
0 
 
>  <HBD> 
0 
 
>  <TPSA> 
0.0 
 
>  <cid> 
11328 
 
>  <dipole> 
0.43 
 
>  <excitation_energy_1> 
4.254 
 
>  <excitation_energy_2> 
4.386 
 
>  <excitation_energy_3> 
5.339 
 
>  <excitation_energy_4> 
5.478 
 
>  <homo_energy> 
-5.595 
 
>  <homo_lumo_gap> 
4.759 
 
>  <logP> 
3.457 
 
>  <lumo_energy> 
-0.835 
 
>  <melting_point> 
57.33 
 
>  <molecular_refractivity> 
53.88 
 
>  <oscillator_strength_1> 
0.0622 
 
>  <oscillator_strength_2> 
0.0151 
 
>  <oscillator_strength_3> 
0.0029 
 
>  <oscillator_strength_4> 
0.183 
 
>  <open_babel_can_smiles> 
Cc1ccc2c(c1)cccc2C 
 
>  <mulliken_charges> 
24 
1   -0.532596 
2   -0.534779 
3   -0.129715 
4   -0.204213 
5   -0.1956 
6   -0.178841 
7   -0.197242 
8   -0.26729 
9   0.1859 
10   0.13564 
11   0.150787 
12   0.073117 
13   0.161117 
14   0.161134 
15   0.155881 
16   0.155294 
17   0.161614 
18   0.161697 
19   0.126388 
20   0.119179 
21   0.125296 
22   0.120266 
23   0.12701 
24   0.119957 
 
>  <lowdin_charges> 
24 
1   -0.442033 
2   -0.442332 
3   -0.159074 
4   -0.171218 
5   -0.16329 
6   -0.165565 
7   -0.16036 
8   -0.171211 
9   -0.000513 
10   0.00043 
11   0.003561 
12   -0.01271 
13   0.160328 
14   0.160636 
15   0.156356 
16   0.156121 
17   0.159713 
18   0.159615 
19   0.157397 
20   0.151506 
21   0.155938 
22   0.154716 
23   0.158901 
24   0.153088 
 
$$$$ 
 
