PCCDB-ID:  13717 
public computational chemistry database (PCCDB) project, http://pccdb.org 
 
 32 33  0  0  0  0  0  0  0  0999 V2000 
    5.3142   -2.4646   -1.9550 C   0  0  0  0  0  0  0  0  0  0  0  0 
    3.4592   -1.0121   -1.5024 C   0  0  0  0  0  0  0  0  0  0  0  0 
    7.2896   -2.0094    8.6317 C   0  0  0  0  0  0  0  0  0  0  0  0 
    7.8968   -1.2620    7.6222 C   0  0  0  0  0  0  0  0  0  0  0  0 
    6.0571   -2.6231    8.3905 C   0  0  0  0  0  0  0  0  0  0  0  0 
    7.2774   -1.1287    6.3799 C   0  0  0  0  0  0  0  0  0  0  0  0 
    5.4370   -2.4923    7.1514 C   0  0  0  0  0  0  0  0  0  0  0  0 
    4.6867   -0.6803    1.3086 C   0  0  0  0  0  0  0  0  0  0  0  0 
    4.8176   -1.8632    0.3257 C   0  0  0  0  0  0  0  0  0  0  0  0 
    5.8483   -0.9132    3.6524 C   0  0  0  0  0  0  0  0  0  0  0  0 
    6.0415   -1.7419    6.1285 C   0  0  0  0  0  0  0  0  0  0  0  0 
    4.8638   -1.0982    2.7305 C   0  0  0  0  0  0  0  0  0  0  0  0 
    5.3848   -1.6054    4.8154 C   0  0  0  0  0  0  0  0  0  0  0  0 
    4.2069   -2.1616    4.5957 N   0  0  0  0  0  0  0  0  0  0  0  0 
    4.7873   -1.4321   -1.0699 N   0  0  0  0  0  0  0  0  0  0  0  0 
    3.8756   -1.8441    3.2778 O   0  0  0  0  0  0  0  0  0  0  0  0 
    5.3402   -2.0859   -2.9825 H   0  0  0  0  0  0  0  0  0  0  0  0 
    4.7135   -3.3955   -1.9516 H   0  0  0  0  0  0  0  0  0  0  0  0 
    6.3380   -2.7192   -1.6609 H   0  0  0  0  0  0  0  0  0  0  0  0 
    3.5081   -0.6651   -2.5400 H   0  0  0  0  0  0  0  0  0  0  0  0 
    3.1004   -0.1774   -0.8930 H   0  0  0  0  0  0  0  0  0  0  0  0 
    2.7080   -1.8247   -1.4462 H   0  0  0  0  0  0  0  0  0  0  0  0 
    7.7721   -2.1139    9.5997 H   0  0  0  0  0  0  0  0  0  0  0  0 
    8.8544   -0.7799    7.7998 H   0  0  0  0  0  0  0  0  0  0  0  0 
    5.5772   -3.2061    9.1720 H   0  0  0  0  0  0  0  0  0  0  0  0 
    7.7604   -0.5415    5.6043 H   0  0  0  0  0  0  0  0  0  0  0  0 
    4.4807   -2.9676    6.9600 H   0  0  0  0  0  0  0  0  0  0  0  0 
    3.7051   -0.2040    1.2032 H   0  0  0  0  0  0  0  0  0  0  0  0 
    5.4426    0.0705    1.0585 H   0  0  0  0  0  0  0  0  0  0  0  0 
    4.0370   -2.6155    0.5502 H   0  0  0  0  0  0  0  0  0  0  0  0 
    5.7843   -2.3472    0.5052 H   0  0  0  0  0  0  0  0  0  0  0  0 
    6.7691   -0.3663    3.5186 H   0  0  0  0  0  0  0  0  0  0  0  0 
  1 18  1  0  0  0  0 
  1 19  1  0  0  0  0 
  1 15  1  0  0  0  0 
  2 22  1  0  0  0  0 
  2 15  1  0  0  0  0 
  2 21  1  0  0  0  0 
  3 23  1  0  0  0  0 
  4 24  1  0  0  0  0 
  4  3  2  0  0  0  0 
  5  3  1  0  0  0  0 
  5 25  1  0  0  0  0 
  6  4  1  0  0  0  0 
  7  5  2  0  0  0  0 
  8 12  1  0  0  0  0 
  9 31  1  0  0  0  0 
  9 30  1  0  0  0  0 
  9  8  1  0  0  0  0 
 10 13  1  0  0  0  0 
 11  6  2  0  0  0  0 
 11  7  1  0  0  0  0 
 12 16  1  0  0  0  0 
 12 10  2  0  0  0  0 
 13 11  1  0  0  0  0 
 14 13  2  0  0  0  0 
 15  9  1  0  0  0  0 
 16 14  1  0  0  0  0 
 17  1  1  0  0  0  0 
 20  2  1  0  0  0  0 
 26  6  1  0  0  0  0 
 27  7  1  0  0  0  0 
 28  8  1  0  0  0  0 
 29  8  1  0  0  0  0 
 32 10  1  0  0  0  0 
M  END 
>  <HBA> 
3 
 
>  <HBD> 
0 
 
>  <TPSA> 
29.27 
 
>  <cid> 
13717 
 
>  <dipole> 
2.38 
 
>  <excitation_energy_1> 
4.422 
 
>  <excitation_energy_2> 
4.895 
 
>  <excitation_energy_3> 
5.025 
 
>  <excitation_energy_4> 
5.199 
 
>  <homo_energy> 
-5.91 
 
>  <homo_lumo_gap> 
4.98 
 
>  <logP> 
2.446 
 
>  <lumo_energy> 
-0.931 
 
>  <melting_point> 
60.8 
 
>  <molecular_refractivity> 
64.22 
 
>  <oscillator_strength_1> 
0.0169 
 
>  <oscillator_strength_2> 
0.0158 
 
>  <oscillator_strength_3> 
0.3015 
 
>  <oscillator_strength_4> 
0.0156 
 
>  <open_babel_can_smiles> 
CN(CCc1onc(c1)c1ccccc1)C 
 
>  <mulliken_charges> 
32 
1   -0.296622 
2   -0.304372 
3   -0.122763 
4   -0.137135 
5   -0.135136 
6   -0.180126 
7   -0.168827 
8   -0.35616 
9   -0.114558 
10   -0.308152 
11   0.120265 
12   0.428385 
13   0.261089 
14   -0.246052 
15   -0.37096 
16   -0.37805 
17   0.149936 
18   0.122187 
19   0.150493 
20   0.151862 
21   0.152713 
22   0.123346 
23   0.132036 
24   0.131865 
25   0.134616 
26   0.128641 
27   0.164365 
28   0.17014 
29   0.16895 
30   0.135007 
31   0.144742 
32   0.148277 
 
>  <lowdin_charges> 
32 
1   -0.353559 
2   -0.359405 
3   -0.152077 
4   -0.154547 
5   -0.154272 
6   -0.158052 
7   -0.142695 
8   -0.281436 
9   -0.197683 
10   -0.251201 
11   -0.008282 
12   0.095343 
13   0.021418 
14   -0.092048 
15   -0.184953 
16   -0.0741 
17   0.149649 
18   0.122688 
19   0.149379 
20   0.151254 
21   0.150902 
22   0.124065 
23   0.158938 
24   0.158528 
25   0.161399 
26   0.158447 
27   0.175054 
28   0.164953 
29   0.168933 
30   0.129835 
31   0.149283 
32   0.174247 
 
$$$$ 
 
