PCCDB-ID:  28518 
public computational chemistry database (PCCDB) project, http://pccdb.org 
 
 25 25  0  0  0  0  0  0  0  0999 V2000 
    1.1494   -0.4945    0.7595 C   0  0  0  0  0  0  0  0  0  0  0  0 
    4.1536    4.8260    2.8155 C   0  0  0  0  0  0  0  0  0  0  0  0 
    2.1599    4.8689    0.5574 C   0  0  0  0  0  0  0  0  0  0  0  0 
    4.4901    0.0009    2.4526 C   0  0  0  0  0  0  0  0  0  0  0  0 
    2.4623    0.0469    0.1648 C   0  0  0  0  0  0  0  0  0  0  0  0 
    3.7083    3.5675    2.1157 C   0  0  0  0  0  0  0  0  0  0  0  0 
    2.7781    3.5879    1.0565 C   0  0  0  0  0  0  0  0  0  0  0  0 
    3.8636    1.2736    1.9357 C   0  0  0  0  0  0  0  0  0  0  0  0 
    2.9415    1.2950    0.8719 C   0  0  0  0  0  0  0  0  0  0  0  0 
    4.2352    2.4128    2.5390 N   0  0  0  0  0  0  0  0  0  0  0  0 
    2.4105    2.4529    0.4517 N   0  0  0  0  0  0  0  0  0  0  0  0 
    0.8107   -1.3816    0.2127 H   0  0  0  0  0  0  0  0  0  0  0  0 
    0.3639    0.2662    0.7006 H   0  0  0  0  0  0  0  0  0  0  0  0 
    1.2701   -0.7726    1.8131 H   0  0  0  0  0  0  0  0  0  0  0  0 
    4.6185    5.5340    2.1173 H   0  0  0  0  0  0  0  0  0  0  0  0 
    4.8792    4.5711    3.5909 H   0  0  0  0  0  0  0  0  0  0  0  0 
    3.3094    5.3493    3.2829 H   0  0  0  0  0  0  0  0  0  0  0  0 
    1.6079    5.3874    1.3519 H   0  0  0  0  0  0  0  0  0  0  0  0 
    1.4702    4.6439   -0.2590 H   0  0  0  0  0  0  0  0  0  0  0  0 
    2.9215    5.5694    0.1912 H   0  0  0  0  0  0  0  0  0  0  0  0 
    5.1169   -0.4805    1.6910 H   0  0  0  0  0  0  0  0  0  0  0  0 
    3.7345   -0.7328    2.7578 H   0  0  0  0  0  0  0  0  0  0  0  0 
    5.1165    0.2374    3.3155 H   0  0  0  0  0  0  0  0  0  0  0  0 
    2.2996    0.3018   -0.8880 H   0  0  0  0  0  0  0  0  0  0  0  0 
    3.2325   -0.7316    0.1984 H   0  0  0  0  0  0  0  0  0  0  0  0 
  1 14  1  0  0  0  0 
  2 17  1  0  0  0  0 
  2 16  1  0  0  0  0 
  3  7  1  0  0  0  0 
  3 18  1  0  0  0  0 
  4 22  1  0  0  0  0 
  4 23  1  0  0  0  0 
  5 25  1  0  0  0  0 
  5  1  1  0  0  0  0 
  5  9  1  0  0  0  0 
  6 10  1  0  0  0  0 
  6  2  1  0  0  0  0 
  7  6  2  0  0  0  0 
  8  4  1  0  0  0  0 
  8 10  2  0  0  0  0 
  9  8  1  0  0  0  0 
 11  9  2  0  0  0  0 
 11  7  1  0  0  0  0 
 12  1  1  0  0  0  0 
 13  1  1  0  0  0  0 
 15  2  1  0  0  0  0 
 19  3  1  0  0  0  0 
 20  3  1  0  0  0  0 
 21  4  1  0  0  0  0 
 24  5  1  0  0  0  0 
M  END 
>  <HBA> 
2 
 
>  <HBD> 
0 
 
>  <TPSA> 
25.78 
 
>  <cid> 
28518 
 
>  <dipole> 
0.12 
 
>  <excitation_energy_1> 
4.198 
 
>  <excitation_energy_2> 
4.793 
 
>  <excitation_energy_3> 
4.959 
 
>  <excitation_energy_4> 
5.555 
 
>  <homo_energy> 
-6.343 
 
>  <homo_lumo_gap> 
5.551 
 
>  <logP> 
1.964 
 
>  <lumo_energy> 
-0.792 
 
>  <melting_point> 
52.02 
 
>  <molecular_refractivity> 
46.7 
 
>  <oscillator_strength_1> 
0.005 
 
>  <oscillator_strength_2> 
0.0001 
 
>  <oscillator_strength_3> 
0.1749 
 
>  <oscillator_strength_4> 
0.0002 
 
>  <open_babel_can_smiles> 
CCc1nc(C)c(nc1C)C 
 
>  <mulliken_charges> 
25 
1   -0.444716 
2   -0.523445 
3   -0.523047 
4   -0.529116 
5   -0.314392 
6   0.272831 
7   0.273003 
8   0.268775 
9   0.259538 
10   -0.492356 
11   -0.494577 
12   0.146502 
13   0.162888 
14   0.145261 
15   0.160052 
16   0.17672 
17   0.160107 
18   0.160059 
19   0.176098 
20   0.160361 
21   0.163299 
22   0.161443 
23   0.176306 
24   0.159242 
25   0.139166 
 
>  <lowdin_charges> 
25 
1   -0.439278 
2   -0.450317 
3   -0.450391 
4   -0.452408 
5   -0.276841 
6   0.026145 
7   0.026343 
8   0.024972 
9   0.024858 
10   -0.142686 
11   -0.141848 
12   0.151804 
13   0.15773 
14   0.145732 
15   0.161968 
16   0.172031 
17   0.161696 
18   0.161932 
19   0.171681 
20   0.16195 
21   0.16286 
22   0.161325 
23   0.171574 
24   0.159704 
25   0.149463 
 
$$$$ 
 
