PCCDB-ID:  70933 
public computational chemistry database (PCCDB) project, http://pccdb.org 
 
 15 15  0  0  0  0  0  0  0  0999 V2000 
    1.2053    0.5416    0.2605 C   0  0  0  0  0  0  0  0  0  0  0  0 
    2.6532    0.1168   -0.0128 C   0  0  0  0  0  0  0  0  0  0  0  0 
    4.3876   -1.6716    0.8332 C   0  0  0  0  0  0  0  0  0  0  0  0 
    3.0129   -2.2108    1.1542 C   0  0  0  0  0  0  0  0  0  0  0  0 
    3.2488   -0.7197    1.1039 C   0  0  0  0  0  0  0  0  0  0  0  0 
    0.8035    1.1439   -0.5625 H   0  0  0  0  0  0  0  0  0  0  0  0 
    1.1356    1.1412    1.1765 H   0  0  0  0  0  0  0  0  0  0  0  0 
    0.5566   -0.3329    0.3884 H   0  0  0  0  0  0  0  0  0  0  0  0 
    3.2749    1.0097   -0.1714 H   0  0  0  0  0  0  0  0  0  0  0  0 
    2.6975   -0.4547   -0.9508 H   0  0  0  0  0  0  0  0  0  0  0  0 
    4.7410   -1.7610   -0.1915 H   0  0  0  0  0  0  0  0  0  0  0  0 
    5.1711   -1.7724    1.5796 H   0  0  0  0  0  0  0  0  0  0  0  0 
    2.8544   -2.6833    2.1200 H   0  0  0  0  0  0  0  0  0  0  0  0 
    2.4431   -2.6612    0.3443 H   0  0  0  0  0  0  0  0  0  0  0  0 
    3.2757   -0.2162    2.0706 H   0  0  0  0  0  0  0  0  0  0  0  0 
  1  8  1  0  0  0  0 
  1  7  1  0  0  0  0 
  2  1  1  0  0  0  0 
  2  5  1  0  0  0  0 
  3  5  1  0  0  0  0 
  3  4  1  0  0  0  0 
  3 12  1  0  0  0  0 
  4 13  1  0  0  0  0 
  5  4  1  0  0  0  0 
  5 15  1  0  0  0  0 
  6  1  1  0  0  0  0 
  9  2  1  0  0  0  0 
 10  2  1  0  0  0  0 
 11  3  1  0  0  0  0 
 14  4  1  0  0  0  0 
M  END 
>  <HBA> 
0 
 
>  <HBD> 
0 
 
>  <TPSA> 
0.0 
 
>  <cid> 
70933 
 
>  <dipole> 
0.09 
 
>  <excitation_energy_1> 
7.017 
 
>  <excitation_energy_2> 
7.266 
 
>  <excitation_energy_3> 
7.337 
 
>  <excitation_energy_4> 
7.382 
 
>  <homo_energy> 
-7.383 
 
>  <homo_lumo_gap> 
10.098 
 
>  <logP> 
1.806 
 
>  <lumo_energy> 
2.716 
 
>  <melting_point> 
-3.32 
 
>  <molecular_refractivity> 
24.04 
 
>  <oscillator_strength_1> 
0.0083 
 
>  <oscillator_strength_2> 
0.0023 
 
>  <oscillator_strength_3> 
0.0505 
 
>  <oscillator_strength_4> 
0.0069 
 
>  <open_babel_can_smiles> 
CCC1CC1 
 
>  <mulliken_charges> 
15 
1   -0.438777 
2   -0.256454 
3   -0.319036 
4   -0.310398 
5   -0.079433 
6   0.139568 
7   0.140595 
8   0.146201 
9   0.134354 
10   0.12609 
11   0.146244 
12   0.146592 
13   0.146526 
14   0.145981 
15   0.131947 
 
>  <lowdin_charges> 
15 
1   -0.446101 
2   -0.264284 
3   -0.318516 
4   -0.320582 
5   -0.149626 
6   0.149039 
7   0.146298 
8   0.149287 
9   0.142829 
10   0.139761 
11   0.154306 
12   0.157361 
13   0.156371 
14   0.155754 
15   0.148102 
 
$$$$ 
 
