PCCDB-ID:  16590 
public computational chemistry database (PCCDB) project, http://pccdb.org 
 
 18 17  0  0  0  0  0  0  0  0999 V2000 
    4.1885   -0.6113   -2.6087 C   0  0  0  0  0  0  0  0  0  0  0  0 
    1.1458    1.0009    5.4218 C   0  0  0  0  0  0  0  0  0  0  0  0 
    3.3633   -0.6959   -1.5630 C   0  0  0  0  0  0  0  0  0  0  0  0 
    1.2741    1.1397    4.1006 C   0  0  0  0  0  0  0  0  0  0  0  0 
    3.3385    0.2853   -0.4319 C   0  0  0  0  0  0  0  0  0  0  0  0 
    1.8887    0.1099    3.2035 C   0  0  0  0  0  0  0  0  0  0  0  0 
    4.0595   -0.5420    1.0788 S   0  0  0  0  0  0  0  0  0  0  0  0 
    3.5495    0.7449    2.6335 S   0  0  0  0  0  0  0  0  0  0  0  0 
    4.1744   -1.3482   -3.4068 H   0  0  0  0  0  0  0  0  0  0  0  0 
    4.9043    0.2020   -2.7073 H   0  0  0  0  0  0  0  0  0  0  0  0 
    0.6971    1.7771    6.0353 H   0  0  0  0  0  0  0  0  0  0  0  0 
    1.4797    0.1031    5.9375 H   0  0  0  0  0  0  0  0  0  0  0  0 
    2.6672   -1.5306   -1.4889 H   0  0  0  0  0  0  0  0  0  0  0  0 
    0.9401    2.0577    3.6182 H   0  0  0  0  0  0  0  0  0  0  0  0 
    2.3156    0.5877   -0.1860 H   0  0  0  0  0  0  0  0  0  0  0  0 
    3.9285    1.1773   -0.6571 H   0  0  0  0  0  0  0  0  0  0  0  0 
    1.2773   -0.0614    2.3119 H   0  0  0  0  0  0  0  0  0  0  0  0 
    2.0367   -0.8411    3.7212 H   0  0  0  0  0  0  0  0  0  0  0  0 
  1  3  2  0  0  0  0 
  2 12  1  0  0  0  0 
  2 11  1  0  0  0  0 
  3 13  1  0  0  0  0 
  3  5  1  0  0  0  0 
  4  2  2  0  0  0  0 
  5 15  1  0  0  0  0 
  5  7  1  0  0  0  0 
  6 18  1  0  0  0  0 
  6  4  1  0  0  0  0 
  7  8  1  0  0  0  0 
  8  6  1  0  0  0  0 
  9  1  1  0  0  0  0 
 10  1  1  0  0  0  0 
 14  4  1  0  0  0  0 
 16  5  1  0  0  0  0 
 17  6  1  0  0  0  0 
M  END 
>  <HBA> 
2 
 
>  <HBD> 
0 
 
>  <TPSA> 
50.6 
 
>  <cid> 
16590 
 
>  <dipole> 
2.29 
 
>  <excitation_energy_1> 
4.335 
 
>  <excitation_energy_2> 
4.385 
 
>  <excitation_energy_3> 
5.187 
 
>  <excitation_energy_4> 
5.212 
 
>  <homo_energy> 
-6.4 
 
>  <homo_lumo_gap> 
5.44 
 
>  <logP> 
2.74 
 
>  <lumo_energy> 
-0.961 
 
>  <melting_point> 
-49.82 
 
>  <molecular_refractivity> 
45.19 
 
>  <oscillator_strength_1> 
0.0025 
 
>  <oscillator_strength_2> 
0.0039 
 
>  <oscillator_strength_3> 
0.0 
 
>  <oscillator_strength_4> 
0.0553 
 
>  <open_babel_can_smiles> 
C=CCSSCC=C 
 
>  <mulliken_charges> 
18 
1   -0.318715 
2   -0.318759 
3   -0.056288 
4   -0.056385 
5   -0.449126 
6   -0.449348 
7   0.011187 
8   0.011345 
9   0.150317 
10   0.147895 
11   0.150352 
12   0.147907 
13   0.145764 
14   0.145777 
15   0.182493 
16   0.186469 
17   0.18259 
18   0.186525 
 
>  <lowdin_charges> 
18 
1   -0.318609 
2   -0.319522 
3   -0.155327 
4   -0.155578 
5   -0.369098 
6   -0.369956 
7   0.023969 
8   0.024081 
9   0.164856 
10   0.160988 
11   0.165607 
12   0.161111 
13   0.160396 
14   0.160443 
15   0.165528 
16   0.167408 
17   0.166759 
18   0.166943 
 
$$$$ 
 
