PCCDB-ID:  53663 
public computational chemistry database (PCCDB) project, http://pccdb.org 
 
 22 22  0  0  1  0  0  0  0  0999 V2000 
   -1.5426    0.8053    0.0240 C   0  0  0  0  0  0  0  0  0  0  0  0 
   -0.3378    1.6789   -0.3457 C   0  0  0  0  0  0  0  0  0  0  0  0 
   -1.3912   -0.6954   -0.2670 C   0  0  0  0  0  0  0  0  0  0  0  0 
    0.9622    1.3193    0.3873 C   0  0  0  0  0  0  0  0  0  0  0  0 
    1.1318   -1.2474   -0.0183 C   0  0  0  0  0  0  0  0  0  0  0  0 
   -0.2899   -1.4206    0.5228 C   0  0  1  0  0  0  0  0  0  0  0  0 
    2.7974    0.3398   -0.7451 N   0  0  0  0  0  0  0  0  0  0  0  0 
    1.6232    0.1248   -0.1357 N   0  0  0  0  0  0  0  0  0  0  0  0 
   -0.4109   -1.0305    1.8928 O   0  0  0  0  0  0  0  0  0  0  0  0 
    3.3545   -0.6764   -1.1601 O   0  0  0  0  0  0  0  0  0  0  0  0 
   -2.4219    1.1694   -0.5226 H   0  0  0  0  0  0  0  0  0  0  0  0 
   -1.7646    0.9310    1.0901 H   0  0  0  0  0  0  0  0  0  0  0  0 
   -0.5758    2.7232   -0.1032 H   0  0  0  0  0  0  0  0  0  0  0  0 
   -0.1505    1.6439   -1.4275 H   0  0  0  0  0  0  0  0  0  0  0  0 
   -1.2105   -0.8620   -1.3378 H   0  0  0  0  0  0  0  0  0  0  0  0 
   -2.3427   -1.1859   -0.0291 H   0  0  0  0  0  0  0  0  0  0  0  0 
    0.7712    1.1840    1.4571 H   0  0  0  0  0  0  0  0  0  0  0  0 
    1.7008    2.1154    0.2612 H   0  0  0  0  0  0  0  0  0  0  0  0 
    1.2023   -1.7067   -1.0117 H   0  0  0  0  0  0  0  0  0  0  0  0 
    1.8370   -1.8127    0.6096 H   0  0  0  0  0  0  0  0  0  0  0  0 
   -0.4853   -2.5023    0.4325 H   0  0  0  0  0  0  0  0  0  0  0  0 
    0.2001   -1.5760    2.4128 H   0  0  0  0  0  0  0  0  0  0  0  0 
  1 12  1  0  0  0  0 
  2 13  1  0  0  0  0 
  2  1  1  0  0  0  0 
  2  4  1  0  0  0  0 
  3 16  1  0  0  0  0 
  3  1  1  0  0  0  0 
  3  6  1  0  0  0  0 
  4 17  1  0  0  0  0 
  5  6  1  0  0  0  0 
  5 20  1  0  0  0  0 
  6 21  1  6  0  0  0 
  6  9  1  0  0  0  0 
  7  8  1  0  0  0  0 
  8  5  1  0  0  0  0 
  8  4  1  0  0  0  0 
  9 22  1  0  0  0  0 
 10  7  1  0  0  0  0 
 11  1  1  0  0  0  0 
 14  2  1  0  0  0  0 
 15  3  1  0  0  0  0 
 18  4  1  0  0  0  0 
 19  5  1  0  0  0  0 
M  RAD  2   7   2  10   2 
M  END 
>  <HBA> 
4 
 
>  <HBD> 
1 
 
>  <TPSA> 
52.9 
 
>  <cid> 
53663 
 
>  <dipole> 
3.57 
 
>  <excitation_energy_1> 
3.405 
 
>  <excitation_energy_2> 
5.239 
 
>  <excitation_energy_3> 
5.79 
 
>  <excitation_energy_4> 
5.958 
 
>  <homo_energy> 
-5.913 
 
>  <homo_lumo_gap> 
5.265 
 
>  <logP> 
0.453 
 
>  <lumo_energy> 
-0.648 
 
>  <melting_point> 
36.32 
 
>  <molecular_refractivity> 
41.55 
 
>  <oscillator_strength_1> 
0.0014 
 
>  <oscillator_strength_2> 
0.0025 
 
>  <oscillator_strength_3> 
0.1445 
 
>  <oscillator_strength_4> 
0.0108 
 
>  <open_babel_can_smiles> 
[O][N]N1CCCC[C@@H](C1)O 
 
>  <mulliken_charges> 
22 
1   -0.264173 
2   -0.26693 
3   -0.272385 
4   -0.137957 
5   -0.13349 
6   0.102775 
7   0.145366 
8   -0.231734 
9   -0.619892 
10   -0.389423 
11   0.136549 
12   0.161108 
13   0.142583 
14   0.144396 
15   0.13957 
16   0.148651 
17   0.169635 
18   0.171408 
19   0.175341 
20   0.154258 
21   0.129575 
22   0.39477 
 
>  <lowdin_charges> 
22 
1   -0.278913 
2   -0.281691 
3   -0.28314 
4   -0.205592 
5   -0.229828 
6   -0.006125 
7   0.048001 
8   -0.045297 
9   -0.466898 
10   -0.281856 
11   0.148853 
12   0.153021 
13   0.151249 
14   0.144894 
15   0.146809 
16   0.155009 
17   0.156043 
18   0.168057 
19   0.167927 
20   0.1555 
21   0.136466 
22   0.347513 
 
$$$$ 
 
