PCCDB-ID:  51576 
public computational chemistry database (PCCDB) project, http://pccdb.org 
 
 26 27  0  0  1  0  0  0  0  0999 V2000 
    1.0108    0.1689    0.0714 C   0  0  0  0  0  0  0  0  0  0  0  0 
    4.7658    0.2061    3.5204 C   0  0  0  0  0  0  0  0  0  0  0  0 
    4.7946   -0.9034    2.6761 C   0  0  0  0  0  0  0  0  0  0  0  0 
    4.0242    1.3309    3.1539 C   0  0  0  0  0  0  0  0  0  0  0  0 
    4.0842   -0.8928    1.4743 C   0  0  0  0  0  0  0  0  0  0  0  0 
    3.3128    1.3467    1.9550 C   0  0  0  0  0  0  0  0  0  0  0  0 
    3.4334    0.9541   -2.2983 C   0  0  0  0  0  0  0  0  0  0  0  0 
    3.3370    0.2313    1.1052 C   0  0  0  0  0  0  0  0  0  0  0  0 
    3.4078   -0.3889   -2.1881 C   0  0  0  0  0  0  0  0  0  0  0  0 
    2.8516    1.4933   -1.0711 C   0  0  0  0  0  0  0  0  0  0  0  0 
    3.8519   -1.4180   -3.1833 C   0  0  0  0  0  0  0  0  0  0  0  0 
    2.5180    0.2591   -0.1804 C   0  0  2  0  0  0  0  0  0  0  0  0 
    2.6151    2.6469   -0.7638 O   0  0  0  0  0  0  0  0  0  0  0  0 
    4.3450   -1.1226   -4.2428 O   0  0  0  0  0  0  0  0  0  0  0  0 
    3.6500   -2.6931   -2.7974 O   0  0  0  0  0  0  0  0  0  0  0  0 
    2.8967   -0.8781   -1.0278 O   0  0  0  0  0  0  0  0  0  0  0  0 
    0.6882    1.0576    0.6206 H   0  0  0  0  0  0  0  0  0  0  0  0 
    0.7763   -0.7207    0.6631 H   0  0  0  0  0  0  0  0  0  0  0  0 
    0.4633    0.1275   -0.8759 H   0  0  0  0  0  0  0  0  0  0  0  0 
    5.3195    0.1968    4.4552 H   0  0  0  0  0  0  0  0  0  0  0  0 
    5.3710   -1.7832    2.9488 H   0  0  0  0  0  0  0  0  0  0  0  0 
    4.0010    2.2039    3.8003 H   0  0  0  0  0  0  0  0  0  0  0  0 
    4.1157   -1.7591    0.8233 H   0  0  0  0  0  0  0  0  0  0  0  0 
    2.7584    2.2324    1.6628 H   0  0  0  0  0  0  0  0  0  0  0  0 
    3.7884    1.5211   -3.1460 H   0  0  0  0  0  0  0  0  0  0  0  0 
    3.2369   -2.6979   -1.9132 H   0  0  0  0  0  0  0  0  0  0  0  0 
  1 17  1  0  0  0  0 
  1 18  1  0  0  0  0 
  2 20  1  0  0  0  0 
  3 21  1  0  0  0  0 
  3  2  2  0  0  0  0 
  4  2  1  0  0  0  0 
  4 22  1  0  0  0  0 
  5  3  1  0  0  0  0 
  6  4  2  0  0  0  0 
  7  9  2  0  0  0  0 
  7 10  1  0  0  0  0 
  8  5  2  0  0  0  0 
  8  6  1  0  0  0  0 
  9 16  1  0  0  0  0 
 10 13  2  0  0  0  0 
 10 12  1  0  0  0  0 
 11 15  1  0  0  0  0 
 11  9  1  0  0  0  0 
 12  1  1  1  0  0  0 
 12  8  1  0  0  0  0 
 14 11  2  0  0  0  0 
 15 26  1  0  0  0  0 
 16 12  1  0  0  0  0 
 19  1  1  0  0  0  0 
 23  5  1  0  0  0  0 
 24  6  1  0  0  0  0 
 25  7  1  0  0  0  0 
M  END 
>  <HBA> 
4 
 
>  <HBD> 
1 
 
>  <TPSA> 
63.6 
 
>  <cid> 
51576 
 
>  <dipole> 
4.09 
 
>  <excitation_energy_1> 
3.251 
 
>  <excitation_energy_2> 
3.83 
 
>  <excitation_energy_3> 
3.923 
 
>  <excitation_energy_4> 
4.317 
 
>  <homo_energy> 
-6.844 
 
>  <homo_lumo_gap> 
4.31 
 
>  <logP> 
1.47 
 
>  <lumo_energy> 
-2.533 
 
>  <melting_point> 
136.16 
 
>  <molecular_refractivity> 
55.79 
 
>  <oscillator_strength_1> 
0.0041 
 
>  <oscillator_strength_2> 
0.0005 
 
>  <oscillator_strength_3> 
0.0032 
 
>  <oscillator_strength_4> 
0.0001 
 
>  <open_babel_can_smiles> 
OC(=O)C1=CC(=O)[C@](O1)(C)c1ccccc1 
 
>  <mulliken_charges> 
26 
1   -0.43552 
2   -0.122149 
3   -0.131023 
4   -0.135814 
5   -0.167812 
6   -0.1731 
7   -0.203545 
8   0.123421 
9   0.315208 
10   0.414163 
11   0.578376 
12   0.144115 
13   -0.479888 
14   -0.429246 
15   -0.572553 
16   -0.574968 
17   0.183753 
18   0.168975 
19   0.163135 
20   0.136083 
21   0.136217 
22   0.139265 
23   0.129381 
24   0.167382 
25   0.19008 
26   0.436063 
 
>  <lowdin_charges> 
26 
1   -0.432686 
2   -0.151361 
3   -0.152458 
4   -0.150053 
5   -0.166816 
6   -0.160522 
7   -0.211501 
8   -0.015151 
9   0.087545 
10   0.140777 
11   0.182904 
12   0.11017 
13   -0.233937 
14   -0.211711 
15   -0.333537 
16   -0.19678 
17   0.176855 
18   0.166629 
19   0.162617 
20   0.160864 
21   0.161421 
22   0.162839 
23   0.15939 
24   0.175742 
25   0.201352 
26   0.367408 
 
$$$$ 
 
