PCCDB-ID:  22717 
public computational chemistry database (PCCDB) project, http://pccdb.org 
 
 28 28  0  0  0  0  0  0  0  0999 V2000 
    3.4047    0.1825    2.8861 C   0  0  0  0  0  0  0  0  0  0  0  0 
    4.4908    3.0505    1.2267 C   0  0  0  0  0  0  0  0  0  0  0  0 
    6.3276    2.1901    2.7375 C   0  0  0  0  0  0  0  0  0  0  0  0 
    4.2361    0.8841    2.3639 C   0  0  0  0  0  0  0  0  0  0  0  0 
    6.4680    0.9587   -4.5323 C   0  0  0  0  0  0  0  0  0  0  0  0 
    7.6991    0.5007   -4.0581 C   0  0  0  0  0  0  0  0  0  0  0  0 
    5.3626    0.9524   -3.6789 C   0  0  0  0  0  0  0  0  0  0  0  0 
    7.8227    0.0418   -2.7482 C   0  0  0  0  0  0  0  0  0  0  0  0 
    5.4824    0.5065   -2.3637 C   0  0  0  0  0  0  0  0  0  0  0  0 
    6.7211    0.0528   -1.8778 C   0  0  0  0  0  0  0  0  0  0  0  0 
    6.4403    0.0537    0.4721 C   0  0  0  0  0  0  0  0  0  0  0  0 
    5.2113    1.8007    1.7563 C   0  0  0  0  0  0  0  0  0  0  0  0 
    6.9078   -0.4754   -0.5860 N   0  0  0  0  0  0  0  0  0  0  0  0 
    6.6228   -0.5534    1.6654 O   0  0  0  0  0  0  0  0  0  0  0  0 
    5.7807    1.2210    0.5285 O   0  0  0  0  0  0  0  0  0  0  0  0 
    2.6735   -0.4500    3.3364 H   0  0  0  0  0  0  0  0  0  0  0  0 
    4.0189    3.5869    2.0544 H   0  0  0  0  0  0  0  0  0  0  0  0 
    3.7210    2.7691    0.5038 H   0  0  0  0  0  0  0  0  0  0  0  0 
    5.2143    3.7084    0.7360 H   0  0  0  0  0  0  0  0  0  0  0  0 
    5.8964    2.7494    3.5736 H   0  0  0  0  0  0  0  0  0  0  0  0 
    7.0511    2.8309    2.2231 H   0  0  0  0  0  0  0  0  0  0  0  0 
    6.8368    1.3097    3.1288 H   0  0  0  0  0  0  0  0  0  0  0  0 
    6.3694    1.3120   -5.5551 H   0  0  0  0  0  0  0  0  0  0  0  0 
    8.5666    0.4909   -4.7132 H   0  0  0  0  0  0  0  0  0  0  0  0 
    4.3966    1.2989   -4.0384 H   0  0  0  0  0  0  0  0  0  0  0  0 
    8.7726   -0.3295   -2.3749 H   0  0  0  0  0  0  0  0  0  0  0  0 
    4.6170    0.5008   -1.7093 H   0  0  0  0  0  0  0  0  0  0  0  0 
    7.1002   -1.3758    1.4531 H   0  0  0  0  0  0  0  0  0  0  0  0 
  1 16  1  0  0  0  0 
  2 12  1  0  0  0  0 
  2 17  1  0  0  0  0 
  3 22  1  0  0  0  0 
  3 20  1  0  0  0  0 
  4  1  3  0  0  0  0 
  5  6  2  0  0  0  0 
  5  7  1  0  0  0  0 
  6  8  1  0  0  0  0 
  7  9  2  0  0  0  0 
  8 26  1  0  0  0  0 
  8 10  2  0  0  0  0 
  9 10  1  0  0  0  0 
  9 27  1  0  0  0  0 
 10 13  1  0  0  0  0 
 11 15  1  0  0  0  0 
 11 14  1  0  0  0  0 
 12  4  1  0  0  0  0 
 12  3  1  0  0  0  0 
 13 11  2  0  0  0  0 
 15 12  1  0  0  0  0 
 18  2  1  0  0  0  0 
 19  2  1  0  0  0  0 
 21  3  1  0  0  0  0 
 23  5  1  0  0  0  0 
 24  6  1  0  0  0  0 
 25  7  1  0  0  0  0 
 28 14  1  0  0  0  0 
M  END 
>  <HBA> 
3 
 
>  <HBD> 
1 
 
>  <TPSA> 
38.33 
 
>  <cid> 
22717 
 
>  <dipole> 
2.71 
 
>  <excitation_energy_1> 
4.936 
 
>  <excitation_energy_2> 
5.06 
 
>  <excitation_energy_3> 
5.19 
 
>  <excitation_energy_4> 
5.388 
 
>  <homo_energy> 
-5.589 
 
>  <homo_lumo_gap> 
5.698 
 
>  <logP> 
2.72 
 
>  <lumo_energy> 
0.109 
 
>  <melting_point> 
85.69 
 
>  <molecular_refractivity> 
59.66 
 
>  <oscillator_strength_1> 
0.0326 
 
>  <oscillator_strength_2> 
0.2404 
 
>  <oscillator_strength_3> 
0.0822 
 
>  <oscillator_strength_4> 
0.0068 
 
>  <open_babel_can_smiles> 
C#CC(O/C(=N\c1ccccc1)/O)(C)C 
 
>  <mulliken_charges> 
28 
1   -0.504901 
2   -0.446034 
3   -0.459709 
4   0.369132 
5   -0.131012 
6   -0.137235 
7   -0.143412 
8   -0.152734 
9   -0.144333 
10   0.263988 
11   0.745336 
12   0.165693 
13   -0.580816 
14   -0.593687 
15   -0.497623 
16   0.198258 
17   0.159725 
18   0.171886 
19   0.166368 
20   0.158747 
21   0.16113 
22   0.189283 
23   0.120439 
24   0.123058 
25   0.12219 
26   0.123942 
27   0.127442 
28   0.424878 
 
>  <lowdin_charges> 
28 
1   -0.233091 
2   -0.435045 
3   -0.449591 
4   -0.046105 
5   -0.171433 
6   -0.157367 
7   -0.156502 
8   -0.172021 
9   -0.179686 
10   0.054932 
11   0.209565 
12   0.155121 
13   -0.24502 
14   -0.352586 
15   -0.182529 
16   0.209748 
17   0.163944 
18   0.168069 
19   0.165085 
20   0.164564 
21   0.162346 
22   0.174581 
23   0.152752 
24   0.155319 
25   0.153772 
26   0.158969 
27   0.158978 
28   0.37323 
 
$$$$ 
 
