PCCDB-ID:  60568 
public computational chemistry database (PCCDB) project, http://pccdb.org 
 
 38 38  0  0  1  0  0  0  0  0999 V2000 
    3.9128   -0.4090   -0.8930 C   0  0  0  0  0  0  0  0  0  0  0  0 
    7.3857    4.9701    7.7699 C   0  0  0  0  0  0  0  0  0  0  0  0 
    8.0563   -0.4052    7.4951 C   0  0  0  0  0  0  0  0  0  0  0  0 
    4.2360    0.3835    0.3808 C   0  0  0  0  0  0  0  0  0  0  0  0 
    6.0350    2.9345    4.3135 C   0  0  0  0  0  0  0  0  0  0  0  0 
    6.4700    3.6393    5.4432 C   0  0  0  0  0  0  0  0  0  0  0  0 
    6.8190    0.8842    5.3001 C   0  0  0  0  0  0  0  0  0  0  0  0 
    5.7063    0.7737    3.0285 C   0  0  0  0  0  0  0  0  0  0  0  0 
    6.2168    1.5988   -0.6298 C   0  0  0  0  0  0  0  0  0  0  0  0 
    6.2029    1.5551    4.2296 C   0  0  0  0  0  0  0  0  0  0  0  0 
    5.7242    0.7349    0.5455 C   0  0  1  0  0  0  0  0  0  0  0  0 
    7.0747    2.9749    6.5079 C   0  0  0  0  0  0  0  0  0  0  0  0 
    7.2503    1.5705    6.4329 C   0  0  0  0  0  0  0  0  0  0  0  0 
    5.9730    1.4917    1.7785 N   0  0  0  0  0  0  0  0  0  0  0  0 
    7.5334    2.1136   -0.4252 O   0  0  0  0  0  0  0  0  0  0  0  0 
    7.5324    3.5668    7.6491 O   0  0  0  0  0  0  0  0  0  0  0  0 
    7.8566    0.9967    7.5123 O   0  0  0  0  0  0  0  0  0  0  0  0 
    2.8644   -0.7267   -0.8932 H   0  0  0  0  0  0  0  0  0  0  0  0 
    4.5319   -1.3117   -0.9665 H   0  0  0  0  0  0  0  0  0  0  0  0 
    4.0746    0.1801   -1.8022 H   0  0  0  0  0  0  0  0  0  0  0  0 
    7.8145    5.2329    8.7389 H   0  0  0  0  0  0  0  0  0  0  0  0 
    6.3294    5.2714    7.7472 H   0  0  0  0  0  0  0  0  0  0  0  0 
    7.9269    5.5047    6.9772 H   0  0  0  0  0  0  0  0  0  0  0  0 
    8.7080   -0.7127    6.6657 H   0  0  0  0  0  0  0  0  0  0  0  0 
    7.1051   -0.9502    7.4233 H   0  0  0  0  0  0  0  0  0  0  0  0 
    8.5405   -0.6491    8.4427 H   0  0  0  0  0  0  0  0  0  0  0  0 
    3.9108   -0.2071    1.2453 H   0  0  0  0  0  0  0  0  0  0  0  0 
    3.6544    1.3151    0.4085 H   0  0  0  0  0  0  0  0  0  0  0  0 
    5.5666    3.4660    3.4914 H   0  0  0  0  0  0  0  0  0  0  0  0 
    6.3292    4.7137    5.4834 H   0  0  0  0  0  0  0  0  0  0  0  0 
    6.9601   -0.1895    5.2348 H   0  0  0  0  0  0  0  0  0  0  0  0 
    4.6225    0.6229    3.1164 H   0  0  0  0  0  0  0  0  0  0  0  0 
    6.1583   -0.2372    3.0395 H   0  0  0  0  0  0  0  0  0  0  0  0 
    5.5028    2.4183   -0.8000 H   0  0  0  0  0  0  0  0  0  0  0  0 
    6.2654    0.9963   -1.5411 H   0  0  0  0  0  0  0  0  0  0  0  0 
    6.3038   -0.2108    0.5390 H   0  0  0  0  0  0  0  0  0  0  0  0 
    6.9658    1.7228    1.7749 H   0  0  0  0  0  0  0  0  0  0  0  0 
    7.4415    2.9379    0.0755 H   0  0  0  0  0  0  0  0  0  0  0  0 
  1  4  1  0  0  0  0 
  2 21  1  0  0  0  0 
  3 17  1  0  0  0  0 
  3 26  1  0  0  0  0 
  4 28  1  0  0  0  0 
  4 11  1  0  0  0  0 
  4 27  1  0  0  0  0 
  5  6  1  0  0  0  0 
  6 30  1  0  0  0  0 
  6 12  2  0  0  0  0 
  7 13  2  0  0  0  0 
  8 33  1  0  0  0  0 
  8 32  1  0  0  0  0 
  8 10  1  0  0  0  0 
  9 15  1  0  0  0  0 
  9 11  1  0  0  0  0 
 10  5  2  0  0  0  0 
 10  7  1  0  0  0  0 
 11 36  1  1  0  0  0 
 11 14  1  0  0  0  0 
 12 16  1  0  0  0  0 
 13 12  1  0  0  0  0 
 13 17  1  0  0  0  0 
 14  8  1  0  0  0  0 
 15 38  1  0  0  0  0 
 16  2  1  0  0  0  0 
 18  1  1  0  0  0  0 
 19  1  1  0  0  0  0 
 20  1  1  0  0  0  0 
 22  2  1  0  0  0  0 
 23  2  1  0  0  0  0 
 24  3  1  0  0  0  0 
 25  3  1  0  0  0  0 
 29  5  1  0  0  0  0 
 31  7  1  0  0  0  0 
 34  9  1  0  0  0  0 
 35  9  1  0  0  0  0 
 37 14  1  0  0  0  0 
M  END 
>  <HBA> 
4 
 
>  <HBD> 
2 
 
>  <TPSA> 
50.72 
 
>  <cid> 
60568 
 
>  <dipole> 
0.95 
 
>  <excitation_energy_1> 
4.853 
 
>  <excitation_energy_2> 
4.964 
 
>  <excitation_energy_3> 
5.101 
 
>  <excitation_energy_4> 
5.258 
 
>  <homo_energy> 
-5.295 
 
>  <homo_lumo_gap> 
5.709 
 
>  <logP> 
1.955 
 
>  <lumo_energy> 
0.414 
 
>  <melting_point> 
62.51 
 
>  <molecular_refractivity> 
67.58 
 
>  <oscillator_strength_1> 
0.0579 
 
>  <oscillator_strength_2> 
0.0071 
 
>  <oscillator_strength_3> 
0.0038 
 
>  <oscillator_strength_4> 
0.0836 
 
>  <open_babel_can_smiles> 
CC[C@H](NCc1ccc(c(c1)OC)OC)CO 
 
>  <mulliken_charges> 
38 
1   -0.455316 
2   -0.212448 
3   -0.211704 
4   -0.264534 
5   -0.186398 
6   -0.203994 
7   -0.271554 
8   -0.1831 
9   -0.050395 
10   0.12539 
11   0.063245 
12   0.3365 
13   0.342995 
14   -0.59276 
15   -0.622745 
16   -0.499723 
17   -0.501357 
18   0.14685 
19   0.146132 
20   0.148882 
21   0.168546 
22   0.149066 
23   0.148484 
24   0.149188 
25   0.148822 
26   0.168872 
27   0.14084 
28   0.140132 
29   0.13357 
30   0.129065 
31   0.124587 
32   0.156914 
33   0.114731 
34   0.126929 
35   0.147513 
36   0.10455 
37   0.295993 
38   0.398232 
 
>  <lowdin_charges> 
38 
1   -0.446253 
2   -0.274961 
3   -0.276397 
4   -0.281003 
5   -0.177547 
6   -0.206864 
7   -0.21794 
8   -0.193602 
9   -0.143951 
10   -0.024485 
11   -0.079301 
12   0.076051 
13   0.079538 
14   -0.368623 
15   -0.467146 
16   -0.190406 
17   -0.189616 
18   0.151756 
19   0.14885 
20   0.148472 
21   0.161839 
22   0.141906 
23   0.144271 
24   0.144132 
25   0.14338 
26   0.162311 
27   0.146663 
28   0.145174 
29   0.163419 
30   0.159455 
31   0.157542 
32   0.147761 
33   0.120532 
34   0.133421 
35   0.148767 
36   0.116254 
37   0.249898 
38   0.346702 
 
$$$$ 
 
