PCCDB-ID:  69837 
public computational chemistry database (PCCDB) project, http://pccdb.org 
 
 24 24  0  0  0  0  0  0  0  0999 V2000 
    2.0330   -1.0354   -0.5087 C   0  0  0  0  0  0  0  0  0  0  0  0 
    5.4864    0.1227   -0.6657 C   0  0  0  0  0  0  0  0  0  0  0  0 
    2.5283    0.1883    0.2736 C   0  0  0  0  0  0  0  0  0  0  0  0 
    4.3509    0.7912   -1.4460 C   0  0  0  0  0  0  0  0  0  0  0  0 
    1.4315    2.9396   -0.7817 C   0  0  0  0  0  0  0  0  0  0  0  0 
    2.4406    3.8459   -0.0444 C   0  0  0  0  0  0  0  0  0  0  0  0 
    3.1622    1.2884   -0.6042 C   0  0  0  0  0  0  0  0  0  0  0  0 
    2.1635    1.8848   -1.4799 N   0  0  0  0  0  0  0  0  0  0  0  0 
    3.7469    2.7098    0.5692 S   0  0  0  0  0  0  0  0  0  0  0  0 
    1.4993   -1.7208    0.1596 H   0  0  0  0  0  0  0  0  0  0  0  0 
    2.8569   -1.5973   -0.9630 H   0  0  0  0  0  0  0  0  0  0  0  0 
    1.3483   -0.7319   -1.3066 H   0  0  0  0  0  0  0  0  0  0  0  0 
    6.3091   -0.1336   -1.3422 H   0  0  0  0  0  0  0  0  0  0  0  0 
    5.1617   -0.8029   -0.1785 H   0  0  0  0  0  0  0  0  0  0  0  0 
    5.8864    0.7904    0.1055 H   0  0  0  0  0  0  0  0  0  0  0  0 
    3.2546   -0.1147    1.0361 H   0  0  0  0  0  0  0  0  0  0  0  0 
    1.6905    0.6285    0.8252 H   0  0  0  0  0  0  0  0  0  0  0  0 
    3.9582    0.0913   -2.1960 H   0  0  0  0  0  0  0  0  0  0  0  0 
    4.7551    1.6505   -1.9966 H   0  0  0  0  0  0  0  0  0  0  0  0 
    0.8266    3.5020   -1.5011 H   0  0  0  0  0  0  0  0  0  0  0  0 
    0.7470    2.4844   -0.0586 H   0  0  0  0  0  0  0  0  0  0  0  0 
    1.9823    4.3729    0.7974 H   0  0  0  0  0  0  0  0  0  0  0  0 
    2.8751    4.5876   -0.7234 H   0  0  0  0  0  0  0  0  0  0  0  0 
    2.6368    2.2967   -2.2838 H   0  0  0  0  0  0  0  0  0  0  0  0 
  1 10  1  0  0  0  0 
  1  3  1  0  0  0  0 
  2 14  1  0  0  0  0 
  2 15  1  0  0  0  0 
  3 17  1  0  0  0  0 
  3 16  1  0  0  0  0 
  4  2  1  0  0  0  0 
  4  7  1  0  0  0  0 
  5 21  1  0  0  0  0 
  5  6  1  0  0  0  0 
  6  9  1  0  0  0  0 
  6 22  1  0  0  0  0 
  7  3  1  0  0  0  0 
  7  9  1  0  0  0  0 
  8  5  1  0  0  0  0 
  8  7  1  0  0  0  0 
 11  1  1  0  0  0  0 
 12  1  1  0  0  0  0 
 13  2  1  0  0  0  0 
 18  4  1  0  0  0  0 
 19  4  1  0  0  0  0 
 20  5  1  0  0  0  0 
 23  6  1  0  0  0  0 
 24  8  1  0  0  0  0 
M  END 
>  <HBA> 
2 
 
>  <HBD> 
1 
 
>  <TPSA> 
37.33 
 
>  <cid> 
69837 
 
>  <dipole> 
1.7 
 
>  <excitation_energy_1> 
4.944 
 
>  <excitation_energy_2> 
5.162 
 
>  <excitation_energy_3> 
5.576 
 
>  <excitation_energy_4> 
5.619 
 
>  <homo_energy> 
-5.723 
 
>  <homo_lumo_gap> 
6.572 
 
>  <logP> 
2.168 
 
>  <lumo_energy> 
0.849 
 
>  <melting_point> 
42.52 
 
>  <molecular_refractivity> 
47.99 
 
>  <oscillator_strength_1> 
0.0 
 
>  <oscillator_strength_2> 
0.0103 
 
>  <oscillator_strength_3> 
0.004 
 
>  <oscillator_strength_4> 
0.0103 
 
>  <open_babel_can_smiles> 
CCC1(CC)NCCS1 
 
>  <mulliken_charges> 
24 
1   -0.455425 
2   -0.460239 
3   -0.233379 
4   -0.273904 
5   -0.156966 
6   -0.415528 
7   0.05362 
8   -0.525533 
9   0.014709 
10   0.142097 
11   0.142103 
12   0.164261 
13   0.146572 
14   0.151501 
15   0.169803 
16   0.146872 
17   0.142607 
18   0.151772 
19   0.14124 
20   0.151046 
21   0.163708 
22   0.17316 
23   0.163583 
24   0.30232 
 
>  <lowdin_charges> 
24 
1   -0.455185 
2   -0.449054 
3   -0.282541 
4   -0.283403 
5   -0.215651 
6   -0.390857 
7   -0.012837 
8   -0.332254 
9   0.007612 
10   0.152471 
11   0.146552 
12   0.158459 
13   0.154713 
14   0.150825 
15   0.161951 
16   0.152128 
17   0.150728 
18   0.151645 
19   0.148532 
20   0.154401 
21   0.153169 
22   0.166945 
23   0.152836 
24   0.258815 
 
$$$$ 
 
