PCCDB-ID:  26458 
public computational chemistry database (PCCDB) project, http://pccdb.org 
 
 25 26  0  0  0  0  0  0  0  0999 V2000 
    1.0905   -0.0205    0.0341 C   0  0  0  0  0  0  0  0  0  0  0  0 
    5.2538   -2.4755   -0.8692 C   0  0  0  0  0  0  0  0  0  0  0  0 
    6.6296   -2.5046   -1.0834 C   0  0  0  0  0  0  0  0  0  0  0  0 
    4.5570    1.2541   -0.6120 C   0  0  0  0  0  0  0  0  0  0  0  0 
    3.0505    1.1105   -0.8330 C   0  0  0  0  0  0  0  0  0  0  0  0 
    6.6612   -0.0892   -1.0102 C   0  0  0  0  0  0  0  0  0  0  0  0 
    3.0583   -1.2754   -0.5321 C   0  0  0  0  0  0  0  0  0  0  0  0 
    5.2807   -0.0640   -0.7932 C   0  0  0  0  0  0  0  0  0  0  0  0 
    4.5629   -1.2689   -0.7210 C   0  0  0  0  0  0  0  0  0  0  0  0 
    7.3380   -1.3005   -1.1547 C   0  0  0  0  0  0  0  0  0  0  0  0 
    2.5422   -0.0029   -0.0356 N   0  0  0  0  0  0  0  0  0  0  0  0 
    8.6911   -1.2491   -1.3652 O   0  0  0  0  0  0  0  0  0  0  0  0 
    0.7293    0.9204    0.4632 H   0  0  0  0  0  0  0  0  0  0  0  0 
    0.7629   -0.8391    0.6852 H   0  0  0  0  0  0  0  0  0  0  0  0 
    0.6055   -0.1581   -0.9534 H   0  0  0  0  0  0  0  0  0  0  0  0 
    4.7072   -3.4151   -0.8155 H   0  0  0  0  0  0  0  0  0  0  0  0 
    7.1493   -3.4550   -1.1928 H   0  0  0  0  0  0  0  0  0  0  0  0 
    4.7259    1.6223    0.4091 H   0  0  0  0  0  0  0  0  0  0  0  0 
    4.9671    2.0097   -1.2941 H   0  0  0  0  0  0  0  0  0  0  0  0 
    2.8345    0.9740   -1.9131 H   0  0  0  0  0  0  0  0  0  0  0  0 
    2.5390    2.0269   -0.5177 H   0  0  0  0  0  0  0  0  0  0  0  0 
    7.2288    0.8355   -1.0696 H   0  0  0  0  0  0  0  0  0  0  0  0 
    2.7775   -2.0614    0.1815 H   0  0  0  0  0  0  0  0  0  0  0  0 
    2.5748   -1.5478   -1.4967 H   0  0  0  0  0  0  0  0  0  0  0  0 
    9.0279   -2.1545   -1.4496 H   0  0  0  0  0  0  0  0  0  0  0  0 
  1 13  1  0  0  0  0 
  1 14  1  0  0  0  0 
  2 16  1  0  0  0  0 
  2  9  2  0  0  0  0 
  3  2  1  0  0  0  0 
  4 18  1  0  0  0  0 
  5  4  1  0  0  0  0 
  5 21  1  0  0  0  0 
  5 11  1  0  0  0  0 
  6  8  2  0  0  0  0 
  7 11  1  0  0  0  0 
  7 23  1  0  0  0  0 
  8  9  1  0  0  0  0 
  8  4  1  0  0  0  0 
  9  7  1  0  0  0  0 
 10  3  2  0  0  0  0 
 10  6  1  0  0  0  0 
 11  1  1  0  0  0  0 
 12 10  1  0  0  0  0 
 15  1  1  0  0  0  0 
 17  3  1  0  0  0  0 
 19  4  1  0  0  0  0 
 20  5  1  0  0  0  0 
 22  6  1  0  0  0  0 
 24  7  1  0  0  0  0 
 25 12  1  0  0  0  0 
M  END 
>  <HBA> 
2 
 
>  <HBD> 
1 
 
>  <TPSA> 
23.47 
 
>  <cid> 
26458 
 
>  <dipole> 
1.32 
 
>  <excitation_energy_1> 
4.752 
 
>  <excitation_energy_2> 
4.967 
 
>  <excitation_energy_3> 
5.024 
 
>  <excitation_energy_4> 
5.256 
 
>  <homo_energy> 
-5.603 
 
>  <homo_lumo_gap> 
5.652 
 
>  <logP> 
1.318 
 
>  <lumo_energy> 
0.049 
 
>  <melting_point> 
76.85 
 
>  <molecular_refractivity> 
52.71 
 
>  <oscillator_strength_1> 
0.016 
 
>  <oscillator_strength_2> 
0.0311 
 
>  <oscillator_strength_3> 
0.0008 
 
>  <oscillator_strength_4> 
0.039 
 
>  <open_babel_can_smiles> 
CN1CCc2c(C1)ccc(c2)O 
 
>  <mulliken_charges> 
25 
1   -0.28753 
2   -0.19001 
3   -0.197521 
4   -0.332893 
5   -0.134541 
6   -0.230812 
7   -0.179303 
8   0.124621 
9   0.102183 
10   0.355806 
11   -0.388012 
12   -0.647924 
13   0.148914 
14   0.147951 
15   0.116455 
16   0.121435 
17   0.114466 
18   0.162722 
19   0.142174 
20   0.114171 
21   0.135902 
22   0.129894 
23   0.146673 
24   0.119921 
25   0.405261 
 
>  <lowdin_charges> 
25 
1   -0.355773 
2   -0.15235 
3   -0.217939 
4   -0.277351 
5   -0.196669 
6   -0.19618 
7   -0.197065 
8   0.001616 
9   -0.036678 
10   0.103273 
11   -0.18361 
12   -0.383191 
13   0.150253 
14   0.150632 
15   0.119717 
16   0.154836 
17   0.151832 
18   0.15884 
19   0.153074 
20   0.115108 
21   0.146626 
22   0.163738 
23   0.150963 
24   0.121341 
25   0.354958 
 
$$$$ 
 
