PCCDB-ID:  34188 
public computational chemistry database (PCCDB) project, http://pccdb.org 
 
 37 37  0  0  0  0  0  0  0  0999 V2000 
    4.5004   -2.6498   -1.7865 C   0  0  0  0  0  0  0  0  0  0  0  0 
    6.0774    3.7339   -4.1761 C   0  0  0  0  0  0  0  0  0  0  0  0 
    8.5752    2.5849    0.1917 C   0  0  0  0  0  0  0  0  0  0  0  0 
    4.5852    5.3497    0.4049 C   0  0  0  0  0  0  0  0  0  0  0  0 
    4.1608   -1.2471   -1.2725 C   0  0  0  0  0  0  0  0  0  0  0  0 
    5.3622    2.5267   -3.5594 C   0  0  0  0  0  0  0  0  0  0  0  0 
    4.9729   -0.1447   -1.9689 C   0  0  0  0  0  0  0  0  0  0  0  0 
    4.5916    1.2498   -1.4549 C   0  0  0  0  0  0  0  0  0  0  0  0 
    6.8722    2.2812   -1.5616 C   0  0  0  0  0  0  0  0  0  0  0  0 
    4.7398    3.6982   -1.4272 C   0  0  0  0  0  0  0  0  0  0  0  0 
    6.5082    3.8709    0.2984 C   0  0  0  0  0  0  0  0  0  0  0  0 
    5.4273    2.4652   -2.0145 C   0  0  0  0  0  0  0  0  0  0  0  0 
    7.2455    2.8816   -0.3595 N   0  0  0  0  0  0  0  0  0  0  0  0 
    5.2891    4.2499   -0.2700 N   0  0  0  0  0  0  0  0  0  0  0  0 
    7.6568    1.5759   -2.1740 O   0  0  0  0  0  0  0  0  0  0  0  0 
    3.7084    4.1366   -1.9073 O   0  0  0  0  0  0  0  0  0  0  0  0 
    6.9185    4.4000    1.3160 O   0  0  0  0  0  0  0  0  0  0  0  0 
    3.9158   -3.4166   -1.2659 H   0  0  0  0  0  0  0  0  0  0  0  0 
    5.5622   -2.8802   -1.6373 H   0  0  0  0  0  0  0  0  0  0  0  0 
    4.2904   -2.7409   -2.8591 H   0  0  0  0  0  0  0  0  0  0  0  0 
    5.9962    3.7014   -5.2679 H   0  0  0  0  0  0  0  0  0  0  0  0 
    7.1444    3.7371   -3.9274 H   0  0  0  0  0  0  0  0  0  0  0  0 
    5.6351    4.6787   -3.8424 H   0  0  0  0  0  0  0  0  0  0  0  0 
    8.8892    1.6189   -0.1982 H   0  0  0  0  0  0  0  0  0  0  0  0 
    8.5094    2.5719    1.2786 H   0  0  0  0  0  0  0  0  0  0  0  0 
    9.2979    3.3490   -0.1108 H   0  0  0  0  0  0  0  0  0  0  0  0 
    3.6528    5.5131   -0.1306 H   0  0  0  0  0  0  0  0  0  0  0  0 
    5.1977    6.2541    0.3866 H   0  0  0  0  0  0  0  0  0  0  0  0 
    4.3935    5.0802    1.4452 H   0  0  0  0  0  0  0  0  0  0  0  0 
    4.3397   -1.2012   -0.1888 H   0  0  0  0  0  0  0  0  0  0  0  0 
    3.0874   -1.0558   -1.4122 H   0  0  0  0  0  0  0  0  0  0  0  0 
    5.8057    1.6078   -3.9487 H   0  0  0  0  0  0  0  0  0  0  0  0 
    4.3052    2.5398   -3.8415 H   0  0  0  0  0  0  0  0  0  0  0  0 
    4.7995   -0.2035   -3.0506 H   0  0  0  0  0  0  0  0  0  0  0  0 
    6.0434   -0.3257   -1.8192 H   0  0  0  0  0  0  0  0  0  0  0  0 
    4.6612    1.2610   -0.3580 H   0  0  0  0  0  0  0  0  0  0  0  0 
    3.5447    1.4620   -1.7027 H   0  0  0  0  0  0  0  0  0  0  0  0 
  1 19  1  0  0  0  0 
  1  5  1  0  0  0  0 
  1 18  1  0  0  0  0 
  2 22  1  0  0  0  0 
  2 23  1  0  0  0  0 
  2  6  1  0  0  0  0 
  3 25  1  0  0  0  0 
  4 29  1  0  0  0  0 
  5 30  1  0  0  0  0 
  6 12  1  0  0  0  0 
  7 35  1  0  0  0  0 
  7  8  1  0  0  0  0 
  7  5  1  0  0  0  0 
  8 36  1  0  0  0  0 
  9 13  1  0  0  0  0 
 10 14  1  0  0  0  0 
 11 17  2  0  0  0  0 
 12  9  1  0  0  0  0 
 12  8  1  0  0  0  0 
 12 10  1  0  0  0  0 
 13  3  1  0  0  0  0 
 13 11  1  0  0  0  0 
 14 11  1  0  0  0  0 
 14  4  1  0  0  0  0 
 15  9  2  0  0  0  0 
 16 10  2  0  0  0  0 
 20  1  1  0  0  0  0 
 21  2  1  0  0  0  0 
 24  3  1  0  0  0  0 
 26  3  1  0  0  0  0 
 27  4  1  0  0  0  0 
 28  4  1  0  0  0  0 
 31  5  1  0  0  0  0 
 32  6  1  0  0  0  0 
 33  6  1  0  0  0  0 
 34  7  1  0  0  0  0 
 37  8  1  0  0  0  0 
M  END 
>  <HBA> 
5 
 
>  <HBD> 
0 
 
>  <TPSA> 
57.69 
 
>  <cid> 
34188 
 
>  <dipole> 
0.99 
 
>  <excitation_energy_1> 
4.609 
 
>  <excitation_energy_2> 
5.175 
 
>  <excitation_energy_3> 
5.519 
 
>  <excitation_energy_4> 
5.753 
 
>  <homo_energy> 
-7.064 
 
>  <homo_lumo_gap> 
5.948 
 
>  <logP> 
1.499 
 
>  <lumo_energy> 
-1.116 
 
>  <melting_point> 
90.5 
 
>  <molecular_refractivity> 
72.03 
 
>  <oscillator_strength_1> 
0.0003 
 
>  <oscillator_strength_2> 
0.0129 
 
>  <oscillator_strength_3> 
0.0612 
 
>  <oscillator_strength_4> 
0.0044 
 
>  <open_babel_can_smiles> 
CCCCC1(CC)C(=O)N(C)C(=O)N(C1=O)C 
 
>  <mulliken_charges> 
37 
1   -0.442967 
2   -0.47373 
3   -0.318605 
4   -0.322332 
5   -0.252301 
6   -0.254555 
7   -0.261355 
8   -0.282125 
9   0.633457 
10   0.631672 
11   0.791689 
12   -0.123057 
13   -0.535757 
14   -0.535196 
15   -0.498543 
16   -0.498671 
17   -0.498544 
18   0.144696 
19   0.146235 
20   0.144658 
21   0.152554 
22   0.156502 
23   0.158362 
24   0.193763 
25   0.191119 
26   0.178329 
27   0.202783 
28   0.181454 
29   0.183113 
30   0.131824 
31   0.134088 
32   0.168981 
33   0.160041 
34   0.142611 
35   0.160255 
36   0.139536 
37   0.170013 
 
>  <lowdin_charges> 
37 
1   -0.441816 
2   -0.449047 
3   -0.346305 
4   -0.348528 
5   -0.26721 
6   -0.263972 
7   -0.277786 
8   -0.258602 
9   0.17333 
10   0.17245 
11   0.193166 
12   -0.044611 
13   -0.087004 
14   -0.084853 
15   -0.267368 
16   -0.267854 
17   -0.279344 
18   0.152275 
19   0.147425 
20   0.146473 
21   0.155614 
22   0.151252 
23   0.153476 
24   0.179217 
25   0.174802 
26   0.165908 
27   0.184189 
28   0.168418 
29   0.168894 
30   0.137129 
31   0.138493 
32   0.162902 
33   0.158107 
34   0.144612 
35   0.15257 
36   0.143117 
37   0.160481 
 
$$$$ 
 
