PCCDB-ID:  20398 
public computational chemistry database (PCCDB) project, http://pccdb.org 
 
 16 15  0  0  1  0  0  0  0  0999 V2000 
    0.3439    0.4353    0.1902 C   0  0  0  0  0  0  0  0  0  0  0  0 
   -1.5168   -1.2881   -1.8883 C   0  0  1  0  0  0  0  0  0  0  0  0 
    0.4582   -0.4122    1.1278 N   0  0  0  0  0  0  0  0  0  0  0  0 
   -3.7181   -1.7456   -1.6854 N   0  0  0  0  0  0  0  0  0  0  0  0 
   -2.4592   -2.0239   -2.3595 N   0  0  0  0  0  0  0  0  0  0  0  0 
   -0.7126    0.6474   -0.7050 N   0  0  0  0  0  0  0  0  0  0  0  0 
   -1.6271   -0.3937   -0.8406 N   0  0  0  0  0  0  0  0  0  0  0  0 
    1.2957    1.3731   -0.0414 O   0  0  0  0  0  0  0  0  0  0  0  0 
   -0.2756   -1.3690   -2.4074 O   0  0  0  0  0  0  0  0  0  0  0  0 
   -0.3450   -1.0410    1.1384 H   0  0  0  0  0  0  0  0  0  0  0  0 
   -4.4290   -1.8992   -2.3998 H   0  0  0  0  0  0  0  0  0  0  0  0 
   -3.8583   -2.5064   -1.0158 H   0  0  0  0  0  0  0  0  0  0  0  0 
   -0.4229    1.0871   -1.5744 H   0  0  0  0  0  0  0  0  0  0  0  0 
   -2.5996   -0.1433   -0.6750 H   0  0  0  0  0  0  0  0  0  0  0  0 
    1.9814    1.2061    0.6283 H   0  0  0  0  0  0  0  0  0  0  0  0 
   -0.3355   -2.0399   -3.1120 H   0  0  0  0  0  0  0  0  0  0  0  0 
  1  3  2  0  0  0  0 
  2  9  1  1  0  0  0 
  2  7  1  0  0  0  0 
  3 10  1  0  0  0  0 
  4 12  1  0  0  0  0 
  5  2  1  0  0  0  0 
  5  4  1  0  0  0  0 
  6  1  1  0  0  0  0 
  7  6  1  0  0  0  0 
  7 14  1  0  0  0  0 
  8  1  1  0  0  0  0 
  8 15  1  0  0  0  0 
 11  4  1  0  0  0  0 
 13  6  1  0  0  0  0 
 16  9  1  0  0  0  0 
M  RAD  2   2   2   5   2 
M  END 
>  <HBA> 
7 
 
>  <HBD> 
5 
 
>  <TPSA> 
122.27 
 
>  <cid> 
20398 
 
>  <dipole> 
2.5 
 
>  <excitation_energy_1> 
5.422 
 
>  <excitation_energy_2> 
5.609 
 
>  <excitation_energy_3> 
5.933 
 
>  <excitation_energy_4> 
6.073 
 
>  <homo_energy> 
-6.104 
 
>  <homo_lumo_gap> 
7.07 
 
>  <logP> 
0.316 
 
>  <lumo_energy> 
0.966 
 
>  <melting_point> 
229.58 
 
>  <molecular_refractivity> 
26.73 
 
>  <oscillator_strength_1> 
0.0033 
 
>  <oscillator_strength_2> 
0.0189 
 
>  <oscillator_strength_3> 
0.0032 
 
>  <oscillator_strength_4> 
0.0267 
 
>  <open_babel_can_smiles> 
N[N][C](NNC(=N)O)O 
 
>  <mulliken_charges> 
16 
1   0.653547 
2   0.721873 
3   -0.644313 
4   -0.628114 
5   -0.441329 
6   -0.464549 
7   -0.496261 
8   -0.605036 
9   -0.595151 
10   0.296712 
11   0.325226 
12   0.318369 
13   0.343351 
14   0.367733 
15   0.424042 
16   0.423898 
 
>  <lowdin_charges> 
16 
1   0.155392 
2   0.144314 
3   -0.467503 
4   -0.480185 
5   -0.264872 
6   -0.2395 
7   -0.230737 
8   -0.376466 
9   -0.357188 
10   0.265224 
11   0.266802 
12   0.260934 
13   0.284589 
14   0.294641 
15   0.371939 
16   0.372615 
 
$$$$ 
 
