PCCDB-ID:  50403 
public computational chemistry database (PCCDB) project, http://pccdb.org 
 
 29 28  0  0  1  0  0  0  0  0999 V2000 
    0.3995    0.0731    2.2468 C   0  0  0  0  0  0  0  0  0  0  0  0 
    3.8567    0.1450   -1.4998 C   0  0  0  0  0  0  0  0  0  0  0  0 
    1.8341   -0.2729    1.8374 C   0  0  0  0  0  0  0  0  0  0  0  0 
    2.1538    0.1211    0.3899 C   0  0  0  0  0  0  0  0  0  0  0  0 
    5.7796    0.2278    0.9248 C   0  0  0  0  0  0  0  0  0  0  0  0 
    6.4170    0.9535    2.0952 C   0  0  0  0  0  0  0  0  0  0  0  0 
    3.6006   -0.1622   -0.0213 C   0  0  2  0  0  0  0  0  0  0  0  0 
    6.3015   -0.5624    3.9262 C   0  0  0  0  0  0  0  0  0  0  0  0 
    7.2152   -1.2883    3.4301 N   0  0  0  0  0  0  0  0  0  0  0  0 
    5.6541   -0.7957    5.0929 O   0  0  0  0  0  0  0  0  0  0  0  0 
    4.4293    0.6359    0.8282 O   0  0  0  0  0  0  0  0  0  0  0  0 
    5.8359    0.5692    3.3576 O   0  0  0  0  0  0  0  0  0  0  0  0 
    0.1987   -0.2175    3.2845 H   0  0  0  0  0  0  0  0  0  0  0  0 
   -0.3326   -0.4404    1.6109 H   0  0  0  0  0  0  0  0  0  0  0  0 
    0.2120    1.1507    2.1610 H   0  0  0  0  0  0  0  0  0  0  0  0 
    3.2218   -0.4782   -2.1401 H   0  0  0  0  0  0  0  0  0  0  0  0 
    4.8984   -0.0488   -1.7776 H   0  0  0  0  0  0  0  0  0  0  0  0 
    3.6364    1.1972   -1.7124 H   0  0  0  0  0  0  0  0  0  0  0  0 
    2.0001   -1.3529    1.9616 H   0  0  0  0  0  0  0  0  0  0  0  0 
    2.5484    0.2274    2.5012 H   0  0  0  0  0  0  0  0  0  0  0  0 
    1.9620    1.1939    0.2459 H   0  0  0  0  0  0  0  0  0  0  0  0 
    1.4848   -0.4128   -0.2996 H   0  0  0  0  0  0  0  0  0  0  0  0 
    5.8588   -0.8582    1.0750 H   0  0  0  0  0  0  0  0  0  0  0  0 
    6.3503    0.4834    0.0161 H   0  0  0  0  0  0  0  0  0  0  0  0 
    6.2269    2.0266    2.0215 H   0  0  0  0  0  0  0  0  0  0  0  0 
    7.4916    0.7573    2.1216 H   0  0  0  0  0  0  0  0  0  0  0  0 
    3.8249   -1.2266    0.1695 H   0  0  0  0  0  0  0  0  0  0  0  0 
    7.4069   -2.0786    4.0448 H   0  0  0  0  0  0  0  0  0  0  0  0 
    5.0033   -0.0836    5.2194 H   0  0  0  0  0  0  0  0  0  0  0  0 
  1 13  1  0  0  0  0 
  2  7  1  0  0  0  0 
  3 19  1  0  0  0  0 
  3  1  1  0  0  0  0 
  3 20  1  0  0  0  0 
  4  3  1  0  0  0  0 
  5 23  1  0  0  0  0 
  5  6  1  0  0  0  0 
  6 26  1  0  0  0  0 
  6 12  1  0  0  0  0 
  7 27  1  1  0  0  0 
  7  4  1  0  0  0  0 
  7 11  1  0  0  0  0 
  8 10  1  0  0  0  0 
  9  8  2  0  0  0  0 
  9 28  1  0  0  0  0 
 10 29  1  0  0  0  0 
 11  5  1  0  0  0  0 
 12  8  1  0  0  0  0 
 14  1  1  0  0  0  0 
 15  1  1  0  0  0  0 
 16  2  1  0  0  0  0 
 17  2  1  0  0  0  0 
 18  2  1  0  0  0  0 
 21  4  1  0  0  0  0 
 22  4  1  0  0  0  0 
 24  5  1  0  0  0  0 
 25  6  1  0  0  0  0 
M  END 
>  <HBA> 
4 
 
>  <HBD> 
1 
 
>  <TPSA> 
61.55 
 
>  <cid> 
50403 
 
>  <dipole> 
1.14 
 
>  <excitation_energy_1> 
6.329 
 
>  <excitation_energy_2> 
6.452 
 
>  <excitation_energy_3> 
6.578 
 
>  <excitation_energy_4> 
6.888 
 
>  <homo_energy> 
-6.814 
 
>  <homo_lumo_gap> 
8.387 
 
>  <logP> 
1.987 
 
>  <lumo_energy> 
1.573 
 
>  <melting_point> 
40.18 
 
>  <molecular_refractivity> 
46.04 
 
>  <oscillator_strength_1> 
0.0015 
 
>  <oscillator_strength_2> 
0.0035 
 
>  <oscillator_strength_3> 
0.0075 
 
>  <oscillator_strength_4> 
0.0113 
 
>  <open_babel_can_smiles> 
C[C@@H](OCCOC(=N)O)CCC 
 
>  <mulliken_charges> 
29 
1   -0.442696 
2   -0.461642 
3   -0.253185 
4   -0.257254 
5   -0.031863 
6   -0.049509 
7   0.16039 
8   0.686508 
9   -0.64688 
10   -0.592775 
11   -0.487078 
12   -0.479092 
13   0.139856 
14   0.139021 
15   0.141958 
16   0.143159 
17   0.146414 
18   0.151733 
19   0.125541 
20   0.151953 
21   0.136657 
22   0.126579 
23   0.156933 
24   0.12391 
25   0.16299 
26   0.177268 
27   0.110176 
28   0.301117 
29   0.41981 
 
>  <lowdin_charges> 
29 
1   -0.442705 
2   -0.458532 
3   -0.274627 
4   -0.280816 
5   -0.140217 
6   -0.126031 
7   0.009475 
8   0.191376 
9   -0.463143 
10   -0.370725 
11   -0.274673 
12   -0.206127 
13   0.147211 
14   0.14593 
15   0.144714 
16   0.154924 
17   0.15022 
18   0.152887 
19   0.135249 
20   0.150791 
21   0.143759 
22   0.144038 
23   0.14603 
24   0.133889 
25   0.158576 
26   0.165142 
27   0.121825 
28   0.27272 
29   0.36884 
 
$$$$ 
 
