PCCDB-ID:  23891 
public computational chemistry database (PCCDB) project, http://pccdb.org 
 
 14 14  0  0  0  0  0  0  0  0999 V2000 
    1.0404    0.1361    0.1877 C   0  0  0  0  0  0  0  0  0  0  0  0 
    2.5014   -0.0315   -0.2592 C   0  0  0  0  0  0  0  0  0  0  0  0 
    3.3146    2.8226   -2.2175 C   0  0  0  0  0  0  0  0  0  0  0  0 
    2.9084    0.9701   -1.2967 C   0  0  0  0  0  0  0  0  0  0  0  0 
    2.9114    2.3231   -1.0654 N   0  0  0  0  0  0  0  0  0  0  0  0 
    3.5424    1.8246   -3.0980 N   0  0  0  0  0  0  0  0  0  0  0  0 
    3.2850    0.6201   -2.5220 N   0  0  0  0  0  0  0  0  0  0  0  0 
    0.7910   -0.5871    0.9721 H   0  0  0  0  0  0  0  0  0  0  0  0 
    0.3530   -0.0208   -0.6509 H   0  0  0  0  0  0  0  0  0  0  0  0 
    0.8711    1.1434    0.5808 H   0  0  0  0  0  0  0  0  0  0  0  0 
    2.6675   -1.0333   -0.6682 H   0  0  0  0  0  0  0  0  0  0  0  0 
    3.1606    0.0779    0.6117 H   0  0  0  0  0  0  0  0  0  0  0  0 
    3.4540    3.8692   -2.4539 H   0  0  0  0  0  0  0  0  0  0  0  0 
    3.8586    1.8663   -4.0560 H   0  0  0  0  0  0  0  0  0  0  0  0 
  1 10  1  0  0  0  0 
  1  8  1  0  0  0  0 
  2  1  1  0  0  0  0 
  2 12  1  0  0  0  0 
  3  5  1  0  0  0  0 
  4  5  2  0  0  0  0 
  4  2  1  0  0  0  0 
  6  7  1  0  0  0  0 
  6  3  1  0  0  0  0 
  7  4  1  0  0  0  0 
  9  1  1  0  0  0  0 
 11  2  1  0  0  0  0 
 13  3  1  0  0  0  0 
 14  6  1  0  0  0  0 
M  RAD  1   7   2 
M  END 
>  <HBA> 
2 
 
>  <HBD> 
1 
 
>  <TPSA> 
41.57 
 
>  <cid> 
23891 
 
>  <dipole> 
2.41 
 
>  <excitation_energy_1> 
6.223 
 
>  <excitation_energy_2> 
6.307 
 
>  <excitation_energy_3> 
6.69 
 
>  <excitation_energy_4> 
6.907 
 
>  <homo_energy> 
-6.988 
 
>  <homo_lumo_gap> 
7.312 
 
>  <logP> 
0.367 
 
>  <lumo_energy> 
0.324 
 
>  <melting_point> 
84.77 
 
>  <molecular_refractivity> 
26.16 
 
>  <oscillator_strength_1> 
0.0054 
 
>  <oscillator_strength_2> 
0.0038 
 
>  <oscillator_strength_3> 
0.0531 
 
>  <oscillator_strength_4> 
0.0365 
 
>  <open_babel_can_smiles> 
CCC1=NCN[N]1 
 
>  <mulliken_charges> 
14 
1   -0.445349 
2   -0.320083 
3   0.230624 
4   0.420995 
5   -0.471904 
6   -0.397122 
7   -0.309791 
8   0.142966 
9   0.149404 
10   0.167897 
11   0.158116 
12   0.157467 
13   0.167779 
14   0.349001 
 
>  <lowdin_charges> 
14 
1   -0.440862 
2   -0.272157 
3   -0.078841 
4   0.038998 
5   -0.202452 
6   -0.126578 
7   -0.170298 
8   0.150621 
9   0.151412 
10   0.159147 
11   0.159686 
12   0.159739 
13   0.17349 
14   0.298095 
 
$$$$ 
 
