PCCDB-ID:  70164 
public computational chemistry database (PCCDB) project, http://pccdb.org 
 
 27 27  0  0  0  0  0  0  0  0999 V2000 
    1.3542    0.5943   -0.8119 C   0  0  0  0  0  0  0  0  0  0  0  0 
    4.0770    4.7636    3.4648 C   0  0  0  0  0  0  0  0  0  0  0  0 
    5.2587   -2.5505    4.5606 C   0  0  0  0  0  0  0  0  0  0  0  0 
    3.6761    0.0455    1.6714 C   0  0  0  0  0  0  0  0  0  0  0  0 
    4.1581    1.9209    3.1409 C   0  0  0  0  0  0  0  0  0  0  0  0 
    4.1796    0.5405    2.8776 C   0  0  0  0  0  0  0  0  0  0  0  0 
    3.1567    0.9139    0.7095 C   0  0  0  0  0  0  0  0  0  0  0  0 
    3.6428    2.7836    2.1864 C   0  0  0  0  0  0  0  0  0  0  0  0 
    3.1482    2.2938    0.9590 C   0  0  0  0  0  0  0  0  0  0  0  0 
    4.7445   -0.3404    3.9301 C   0  0  0  0  0  0  0  0  0  0  0  0 
    2.6758    3.1622    0.0253 O   0  0  0  0  0  0  0  0  0  0  0  0 
    5.1847    0.0513    4.9959 O   0  0  0  0  0  0  0  0  0  0  0  0 
    2.7332    0.3934   -0.4869 O   0  0  0  0  0  0  0  0  0  0  0  0 
    3.5628    4.1521    2.2887 O   0  0  0  0  0  0  0  0  0  0  0  0 
    4.7218   -1.6496    3.5826 O   0  0  0  0  0  0  0  0  0  0  0  0 
    1.1881    0.0575   -1.7485 H   0  0  0  0  0  0  0  0  0  0  0  0 
    1.1222    1.6543   -0.9488 H   0  0  0  0  0  0  0  0  0  0  0  0 
    0.7056    0.1727   -0.0324 H   0  0  0  0  0  0  0  0  0  0  0  0 
    3.9286    5.8370    3.3361 H   0  0  0  0  0  0  0  0  0  0  0  0 
    5.1465    4.5516    3.5852 H   0  0  0  0  0  0  0  0  0  0  0  0 
    3.5371    4.4224    4.3566 H   0  0  0  0  0  0  0  0  0  0  0  0 
    5.1606   -3.5459    4.1258 H   0  0  0  0  0  0  0  0  0  0  0  0 
    4.6977   -2.4829    5.4968 H   0  0  0  0  0  0  0  0  0  0  0  0 
    6.3087   -2.3207    4.7613 H   0  0  0  0  0  0  0  0  0  0  0  0 
    3.6853   -1.0160    1.4570 H   0  0  0  0  0  0  0  0  0  0  0  0 
    4.5505    2.2726    4.0869 H   0  0  0  0  0  0  0  0  0  0  0  0 
    2.7705    4.0547    0.4053 H   0  0  0  0  0  0  0  0  0  0  0  0 
  1 13  1  0  0  0  0 
  1 18  1  0  0  0  0 
  2 20  1  0  0  0  0 
  2 21  1  0  0  0  0 
  3 24  1  0  0  0  0 
  3 23  1  0  0  0  0 
  4  6  2  0  0  0  0 
  5 26  1  0  0  0  0 
  6  5  1  0  0  0  0 
  6 10  1  0  0  0  0 
  7  9  2  0  0  0  0 
  7  4  1  0  0  0  0 
  8 14  1  0  0  0  0 
  8  5  2  0  0  0  0 
  9  8  1  0  0  0  0 
 10 12  2  0  0  0  0 
 11 27  1  0  0  0  0 
 11  9  1  0  0  0  0 
 13  7  1  0  0  0  0 
 14  2  1  0  0  0  0 
 15 10  1  0  0  0  0 
 15  3  1  0  0  0  0 
 16  1  1  0  0  0  0 
 17  1  1  0  0  0  0 
 19  2  1  0  0  0  0 
 22  3  1  0  0  0  0 
 25  4  1  0  0  0  0 
M  END 
>  <HBA> 
5 
 
>  <HBD> 
1 
 
>  <TPSA> 
64.99 
 
>  <cid> 
70164 
 
>  <dipole> 
1.97 
 
>  <excitation_energy_1> 
4.503 
 
>  <excitation_energy_2> 
4.636 
 
>  <excitation_energy_3> 
4.998 
 
>  <excitation_energy_4> 
5.233 
 
>  <homo_energy> 
-5.861 
 
>  <homo_lumo_gap> 
4.958 
 
>  <logP> 
1.196 
 
>  <lumo_energy> 
-0.903 
 
>  <melting_point> 
82.46 
 
>  <molecular_refractivity> 
52.73 
 
>  <oscillator_strength_1> 
0.0328 
 
>  <oscillator_strength_2> 
0.2271 
 
>  <oscillator_strength_3> 
0.004 
 
>  <oscillator_strength_4> 
0.0011 
 
>  <open_babel_can_smiles> 
COC(=O)c1cc(OC)c(c(c1)OC)O 
 
>  <mulliken_charges> 
27 
1   -0.217146 
2   -0.21548 
3   -0.213894 
4   -0.226681 
5   -0.238779 
6   0.04001 
7   0.330705 
8   0.353555 
9   0.267628 
10   0.594081 
11   -0.64749 
12   -0.504207 
13   -0.522753 
14   -0.559635 
15   -0.468814 
16   0.160481 
17   0.172476 
18   0.140358 
19   0.171671 
20   0.165451 
21   0.164449 
22   0.162462 
23   0.168653 
24   0.169191 
25   0.159071 
26   0.16436 
27   0.430277 
 
>  <lowdin_charges> 
27 
1   -0.275241 
2   -0.271057 
3   -0.275241 
4   -0.164212 
5   -0.191071 
6   -0.053147 
7   0.069039 
8   0.060359 
9   0.067524 
10   0.197183 
11   -0.364078 
12   -0.281496 
13   -0.221167 
14   -0.222375 
15   -0.192771 
16   0.157291 
17   0.152921 
18   0.14096 
19   0.16224 
20   0.151335 
21   0.152935 
22   0.158521 
23   0.158383 
24   0.157232 
25   0.178994 
26   0.181356 
27   0.365583 
 
$$$$ 
 
