PCCDB-ID:  20474 
public computational chemistry database (PCCDB) project, http://pccdb.org 
 
 23 23  0  0  1  0  0  0  0  0999 V2000 
    3.3427   -1.2160   -0.3471 C   0  0  0  0  0  0  0  0  0  0  0  0 
    2.5685   -0.0203    0.2190 C   0  0  0  0  0  0  0  0  0  0  0  0 
    2.7078    3.8744   -0.3438 C   0  0  0  0  0  0  0  0  0  0  0  0 
    4.0365    4.1665    0.3657 C   0  0  0  0  0  0  0  0  0  0  0  0 
    2.1396    2.5083    0.0657 C   0  0  0  0  0  0  0  0  0  0  0  0 
    5.0584    3.0339    0.1293 C   0  0  0  0  0  0  0  0  0  0  0  0 
    3.1342    1.3457   -0.1939 C   0  0  1  0  0  0  0  0  0  0  0  0 
    4.4622    1.6795    0.4939 C   0  0  0  0  0  0  0  0  0  0  0  0 
    4.9907    0.9430    1.3073 O   0  0  0  0  0  0  0  0  0  0  0  0 
    2.8815   -2.1607   -0.0374 H   0  0  0  0  0  0  0  0  0  0  0  0 
    4.3770   -1.2143    0.0074 H   0  0  0  0  0  0  0  0  0  0  0  0 
    3.3538   -1.1979   -1.4446 H   0  0  0  0  0  0  0  0  0  0  0  0 
    2.5557   -0.0791    1.3140 H   0  0  0  0  0  0  0  0  0  0  0  0 
    1.5229   -0.0741   -0.1137 H   0  0  0  0  0  0  0  0  0  0  0  0 
    2.8629    3.8928   -1.4327 H   0  0  0  0  0  0  0  0  0  0  0  0 
    1.9801    4.6645   -0.1201 H   0  0  0  0  0  0  0  0  0  0  0  0 
    3.8589    4.2674    1.4454 H   0  0  0  0  0  0  0  0  0  0  0  0 
    4.4565    5.1213    0.0271 H   0  0  0  0  0  0  0  0  0  0  0  0 
    1.2077    2.3044   -0.4765 H   0  0  0  0  0  0  0  0  0  0  0  0 
    1.8805    2.5220    1.1345 H   0  0  0  0  0  0  0  0  0  0  0  0 
    5.9722    3.1791    0.7127 H   0  0  0  0  0  0  0  0  0  0  0  0 
    5.3337    3.0160   -0.9360 H   0  0  0  0  0  0  0  0  0  0  0  0 
    3.3391    1.3381   -1.2782 H   0  0  0  0  0  0  0  0  0  0  0  0 
  1 10  1  0  0  0  0 
  1 11  1  0  0  0  0 
  1  2  1  0  0  0  0 
  2 13  1  0  0  0  0 
  3 16  1  0  0  0  0 
  3  5  1  0  0  0  0 
  3  4  1  0  0  0  0 
  4 17  1  0  0  0  0 
  5 20  1  0  0  0  0 
  6  4  1  0  0  0  0 
  6  8  1  0  0  0  0 
  6 21  1  0  0  0  0 
  7 23  1  6  0  0  0 
  7  5  1  0  0  0  0 
  7  2  1  0  0  0  0 
  7  8  1  0  0  0  0 
  8  9  2  0  0  0  0 
 12  1  1  0  0  0  0 
 14  2  1  0  0  0  0 
 15  3  1  0  0  0  0 
 18  4  1  0  0  0  0 
 19  5  1  0  0  0  0 
 22  6  1  0  0  0  0 
M  END 
>  <HBA> 
1 
 
>  <HBD> 
0 
 
>  <TPSA> 
17.07 
 
>  <cid> 
20474 
 
>  <dipole> 
2.86 
 
>  <excitation_energy_1> 
4.193 
 
>  <excitation_energy_2> 
6.059 
 
>  <excitation_energy_3> 
6.348 
 
>  <excitation_energy_4> 
6.424 
 
>  <homo_energy> 
-6.384 
 
>  <homo_lumo_gap> 
6.036 
 
>  <logP> 
2.156 
 
>  <lumo_energy> 
-0.348 
 
>  <melting_point> 
16.08 
 
>  <molecular_refractivity> 
38.66 
 
>  <oscillator_strength_1> 
0.0 
 
>  <oscillator_strength_2> 
0.0022 
 
>  <oscillator_strength_3> 
0.0022 
 
>  <oscillator_strength_4> 
0.017 
 
>  <open_babel_can_smiles> 
CC[C@H]1CCCCC1=O 
 
>  <mulliken_charges> 
23 
1   -0.455163 
2   -0.244484 
3   -0.26581 
4   -0.269462 
5   -0.273065 
6   -0.338771 
7   -0.162136 
8   0.449209 
9   -0.45107 
10   0.141144 
11   0.171248 
12   0.131535 
13   0.148629 
14   0.124834 
15   0.13277 
16   0.140268 
17   0.146002 
18   0.143211 
19   0.141743 
20   0.141905 
21   0.161816 
22   0.150428 
23   0.135219 
 
>  <lowdin_charges> 
23 
1   -0.444988 
2   -0.266617 
3   -0.2784 
4   -0.271627 
5   -0.272412 
6   -0.305436 
7   -0.160175 
8   0.161325 
9   -0.237142 
10   0.14988 
11   0.159585 
12   0.138635 
13   0.149529 
14   0.138549 
15   0.137797 
16   0.150232 
17   0.143973 
18   0.149666 
19   0.148853 
20   0.142834 
21   0.163135 
22   0.155501 
23   0.147302 
 
$$$$ 
 
