PCCDB-ID:  9956 
public computational chemistry database (PCCDB) project, http://pccdb.org 
 
 15 15  0  0  0  0  0  0  0  0999 V2000 
   -1.1775   -0.6839    0.0061 C   0  0  0  0  0  0  0  0  0  0  0  0 
    0.0144   -1.4180    0.0444 C   0  0  0  0  0  0  0  0  0  0  0  0 
   -1.0989    0.7022   -0.0254 C   0  0  0  0  0  0  0  0  0  0  0  0 
    1.2319   -0.7472    0.0384 C   0  0  0  0  0  0  0  0  0  0  0  0 
    1.1951    0.6701   -0.0358 C   0  0  0  0  0  0  0  0  0  0  0  0 
    2.4874   -1.3825    0.0470 N   0  0  0  0  0  0  0  0  0  0  0  0 
    2.4099    1.3669   -0.0317 N   0  0  0  0  0  0  0  0  0  0  0  0 
    0.0658    1.3721   -0.0555 N   0  0  0  0  0  0  0  0  0  0  0  0 
   -2.1402   -1.1855    0.0131 H   0  0  0  0  0  0  0  0  0  0  0  0 
   -0.0038   -2.5051    0.0924 H   0  0  0  0  0  0  0  0  0  0  0  0 
   -1.9990    1.3134   -0.0398 H   0  0  0  0  0  0  0  0  0  0  0  0 
    2.4343   -2.3688    0.2802 H   0  0  0  0  0  0  0  0  0  0  0  0 
    3.1466   -0.9150    0.6653 H   0  0  0  0  0  0  0  0  0  0  0  0 
    3.1015    0.9674   -0.6608 H   0  0  0  0  0  0  0  0  0  0  0  0 
    2.2612    2.3532   -0.2204 H   0  0  0  0  0  0  0  0  0  0  0  0 
  1  9  1  0  0  0  0 
  1  2  1  0  0  0  0 
  2 10  1  0  0  0  0 
  3  1  2  0  0  0  0 
  4  2  2  0  0  0  0 
  4  6  1  0  0  0  0 
  5  7  1  0  0  0  0 
  5  4  1  0  0  0  0 
  6 12  1  0  0  0  0 
  6 13  1  0  0  0  0 
  8  5  2  0  0  0  0 
  8  3  1  0  0  0  0 
 11  3  1  0  0  0  0 
 14  7  1  0  0  0  0 
 15  7  1  0  0  0  0 
M  END 
>  <HBA> 
3 
 
>  <HBD> 
2 
 
>  <TPSA> 
64.93 
 
>  <cid> 
9956 
 
>  <dipole> 
2.39 
 
>  <excitation_energy_1> 
4.539 
 
>  <excitation_energy_2> 
4.652 
 
>  <excitation_energy_3> 
5.231 
 
>  <excitation_energy_4> 
5.348 
 
>  <homo_energy> 
-5.301 
 
>  <homo_lumo_gap> 
5.274 
 
>  <logP> 
1.408 
 
>  <lumo_energy> 
-0.027 
 
>  <melting_point> 
118.13 
 
>  <molecular_refractivity> 
33.05 
 
>  <oscillator_strength_1> 
0.1123 
 
>  <oscillator_strength_2> 
0.0191 
 
>  <oscillator_strength_3> 
0.0021 
 
>  <oscillator_strength_4> 
0.0052 
 
>  <open_babel_can_smiles> 
Nc1ncccc1N 
 
>  <mulliken_charges> 
15 
1   -0.155267 
2   -0.151817 
3   0.025 
4   0.268136 
5   0.418295 
6   -0.808139 
7   -0.777545 
8   -0.49824 
9   0.125521 
10   0.123438 
11   0.130278 
12   0.317798 
13   0.328491 
14   0.325276 
15   0.328774 
 
>  <lowdin_charges> 
15 
1   -0.194204 
2   -0.170849 
3   -0.108059 
4   0.009919 
5   0.06803 
6   -0.499809 
7   -0.494767 
8   -0.183736 
9   0.15995 
10   0.153001 
11   0.153151 
12   0.27109 
13   0.27893 
14   0.278057 
15   0.279298 
 
$$$$ 
 
