PCCDB-ID:  68986 
public computational chemistry database (PCCDB) project, http://pccdb.org 
 
 19 18  0  0  0  0  0  0  0  0999 V2000 
    2.7865   -0.7783    1.2144 C   0  0  0  0  0  0  0  0  0  0  0  0 
    2.4792    2.2914   -1.2170 C   0  0  0  0  0  0  0  0  0  0  0  0 
    2.5190    2.3072    1.2963 C   0  0  0  0  0  0  0  0  0  0  0  0 
    2.4140    0.1028    0.0177 C   0  0  0  0  0  0  0  0  0  0  0  0 
    2.9749    1.5463    0.0411 C   0  0  0  0  0  0  0  0  0  0  0  0 
    4.4506    1.4583    0.0889 N   0  0  0  0  0  0  0  0  0  0  0  0 
    2.4360   -1.8052    1.0586 H   0  0  0  0  0  0  0  0  0  0  0  0 
    2.3330   -0.4163    2.1438 H   0  0  0  0  0  0  0  0  0  0  0  0 
    3.8709   -0.7982    1.3558 H   0  0  0  0  0  0  0  0  0  0  0  0 
    1.3847    2.3662   -1.2445 H   0  0  0  0  0  0  0  0  0  0  0  0 
    2.8006    1.7726   -2.1295 H   0  0  0  0  0  0  0  0  0  0  0  0 
    2.8842    3.3110   -1.2496 H   0  0  0  0  0  0  0  0  0  0  0  0 
    1.4253    2.3413    1.3599 H   0  0  0  0  0  0  0  0  0  0  0  0 
    2.8816    3.3431    1.2723 H   0  0  0  0  0  0  0  0  0  0  0  0 
    2.9089    1.8379    2.2035 H   0  0  0  0  0  0  0  0  0  0  0  0 
    1.3212    0.1590   -0.0789 H   0  0  0  0  0  0  0  0  0  0  0  0 
    2.7724   -0.3783   -0.9051 H   0  0  0  0  0  0  0  0  0  0  0  0 
    4.8430    2.4001    0.1165 H   0  0  0  0  0  0  0  0  0  0  0  0 
    4.7898    1.0431   -0.7800 H   0  0  0  0  0  0  0  0  0  0  0  0 
  1  9  1  0  0  0  0 
  1  8  1  0  0  0  0 
  2  5  1  0  0  0  0 
  3 13  1  0  0  0  0 
  3 15  1  0  0  0  0 
  4  5  1  0  0  0  0 
  4  1  1  0  0  0  0 
  5  6  1  0  0  0  0 
  5  3  1  0  0  0  0 
  6 18  1  0  0  0  0 
  7  1  1  0  0  0  0 
 10  2  1  0  0  0  0 
 11  2  1  0  0  0  0 
 12  2  1  0  0  0  0 
 14  3  1  0  0  0  0 
 16  4  1  0  0  0  0 
 17  4  1  0  0  0  0 
 19  6  1  0  0  0  0 
M  END 
>  <HBA> 
1 
 
>  <HBD> 
1 
 
>  <TPSA> 
26.02 
 
>  <cid> 
68986 
 
>  <dipole> 
1.28 
 
>  <excitation_energy_1> 
5.638 
 
>  <excitation_energy_2> 
6.553 
 
>  <excitation_energy_3> 
6.592 
 
>  <excitation_energy_4> 
6.64 
 
>  <homo_energy> 
-6.24 
 
>  <homo_lumo_gap> 
8.093 
 
>  <logP> 
1.834 
 
>  <lumo_energy> 
1.853 
 
>  <melting_point> 
39.37 
 
>  <molecular_refractivity> 
28.89 
 
>  <oscillator_strength_1> 
0.0337 
 
>  <oscillator_strength_2> 
0.0021 
 
>  <oscillator_strength_3> 
0.0029 
 
>  <oscillator_strength_4> 
0.0038 
 
>  <open_babel_can_smiles> 
CCC(N)(C)C 
 
>  <mulliken_charges> 
19 
1   -0.445418 
2   -0.444293 
3   -0.443726 
4   -0.239884 
5   0.192624 
6   -0.710063 
7   0.133403 
8   0.139619 
9   0.168276 
10   0.138141 
11   0.131363 
12   0.130754 
13   0.138746 
14   0.130206 
15   0.161135 
16   0.126149 
17   0.118291 
18   0.288041 
19   0.286635 
 
>  <lowdin_charges> 
19 
1   -0.446131 
2   -0.455184 
3   -0.44384 
4   -0.272746 
5   0.063974 
6   -0.54729 
7   0.145321 
8   0.145893 
9   0.15841 
10   0.145659 
11   0.14346 
12   0.142289 
13   0.147235 
14   0.142865 
15   0.158664 
16   0.138176 
17   0.135959 
18   0.249062 
19   0.248224 
 
$$$$ 
 
