PCCDB-ID:  45075 
public computational chemistry database (PCCDB) project, http://pccdb.org 
 
 25 24  0  0  0  0  0  0  0  0999 V2000 
    1.5090    1.2085    3.5610 C   0  0  0  0  0  0  0  0  0  0  0  0 
    6.0717    3.6473    2.6173 C   0  0  0  0  0  0  0  0  0  0  0  0 
    8.6750    1.5296    3.1985 C   0  0  0  0  0  0  0  0  0  0  0  0 
    9.2453    1.4177    0.8655 C   0  0  0  0  0  0  0  0  0  0  0  0 
    2.3552    1.4822    2.5693 C   0  0  0  0  0  0  0  0  0  0  0  0 
    3.5356    2.3966    2.7003 C   0  0  0  0  0  0  0  0  0  0  0  0 
    6.9269    1.5291    1.5285 C   0  0  0  0  0  0  0  0  0  0  0  0 
    5.8696    2.3978    2.1829 C   0  0  0  0  0  0  0  0  0  0  0  0 
    8.2942    1.9228    1.8461 N   0  0  0  0  0  0  0  0  0  0  0  0 
    4.6877    1.7110    2.2081 O   0  0  0  0  0  0  0  0  0  0  0  0 
    0.6432    0.5689    3.4137 H   0  0  0  0  0  0  0  0  0  0  0  0 
    1.6462    1.6176    4.5599 H   0  0  0  0  0  0  0  0  0  0  0  0 
    7.0630    4.0707    2.5151 H   0  0  0  0  0  0  0  0  0  0  0  0 
    5.2982    4.2594    3.0642 H   0  0  0  0  0  0  0  0  0  0  0  0 
    9.6688    1.9279    3.4304 H   0  0  0  0  0  0  0  0  0  0  0  0 
    8.7040    0.4301    3.3327 H   0  0  0  0  0  0  0  0  0  0  0  0 
    7.9636    1.9453    3.9168 H   0  0  0  0  0  0  0  0  0  0  0  0 
   10.2486    1.7838    1.1094 H   0  0  0  0  0  0  0  0  0  0  0  0 
    8.9833    1.7856   -0.1325 H   0  0  0  0  0  0  0  0  0  0  0  0 
    9.2895    0.3111    0.8238 H   0  0  0  0  0  0  0  0  0  0  0  0 
    2.2029    1.0540    1.5793 H   0  0  0  0  0  0  0  0  0  0  0  0 
    3.6896    2.6954    3.7466 H   0  0  0  0  0  0  0  0  0  0  0  0 
    3.3871    3.3142    2.1090 H   0  0  0  0  0  0  0  0  0  0  0  0 
    6.7938    1.5953    0.4405 H   0  0  0  0  0  0  0  0  0  0  0  0 
    6.7146    0.4758    1.7966 H   0  0  0  0  0  0  0  0  0  0  0  0 
  1 12  1  0  0  0  0 
  2 14  1  0  0  0  0 
  3 16  1  0  0  0  0 
  3 15  1  0  0  0  0 
  3 17  1  0  0  0  0 
  4 18  1  0  0  0  0 
  4  9  1  0  0  0  0 
  5  6  1  0  0  0  0 
  5  1  2  0  0  0  0 
  6 22  1  0  0  0  0 
  7 25  1  0  0  0  0 
  7  9  1  0  0  0  0 
  7  8  1  0  0  0  0 
  8 10  1  0  0  0  0 
  8  2  2  0  0  0  0 
  9  3  1  0  0  0  0 
 10  6  1  0  0  0  0 
 11  1  1  0  0  0  0 
 13  2  1  0  0  0  0 
 19  4  1  0  0  0  0 
 20  4  1  0  0  0  0 
 21  5  1  0  0  0  0 
 23  6  1  0  0  0  0 
 24  7  1  0  0  0  0 
M  END 
>  <HBA> 
2 
 
>  <HBD> 
0 
 
>  <TPSA> 
12.47 
 
>  <cid> 
45075 
 
>  <dipole> 
0.52 
 
>  <excitation_energy_1> 
5.225 
 
>  <excitation_energy_2> 
5.263 
 
>  <excitation_energy_3> 
5.393 
 
>  <excitation_energy_4> 
5.575 
 
>  <homo_energy> 
-5.766 
 
>  <homo_lumo_gap> 
6.022 
 
>  <logP> 
1.264 
 
>  <lumo_energy> 
0.256 
 
>  <melting_point> 
-71.98 
 
>  <molecular_refractivity> 
43.6 
 
>  <oscillator_strength_1> 
0.0026 
 
>  <oscillator_strength_2> 
0.0026 
 
>  <oscillator_strength_3> 
0.0098 
 
>  <oscillator_strength_4> 
0.0183 
 
>  <open_babel_can_smiles> 
C=CCOC(=C)CN(C)C 
 
>  <mulliken_charges> 
25 
1   -0.334317 
2   -0.446899 
3   -0.303754 
4   -0.293958 
5   -0.05375 
6   -0.076992 
7   -0.184915 
8   0.410768 
9   -0.36807 
10   -0.501808 
11   0.147549 
12   0.142377 
13   0.159273 
14   0.134877 
15   0.146695 
16   0.117637 
17   0.161613 
18   0.148779 
19   0.150124 
20   0.118535 
21   0.143078 
22   0.144762 
23   0.148634 
24   0.156403 
25   0.133356 
 
>  <lowdin_charges> 
25 
1   -0.324509 
2   -0.441778 
3   -0.358904 
4   -0.351455 
5   -0.148985 
6   -0.121455 
7   -0.198673 
8   0.092911 
9   -0.177702 
10   -0.205544 
11   0.162917 
12   0.156646 
13   0.1765 
14   0.160665 
15   0.148446 
16   0.118356 
17   0.158915 
18   0.149406 
19   0.149163 
20   0.118342 
21   0.159214 
22   0.142669 
23   0.146399 
24   0.156228 
25   0.13223 
 
$$$$ 
 
