PCCDB-ID:  33105 
public computational chemistry database (PCCDB) project, http://pccdb.org 
 
 18 19  0  0  0  0  0  0  0  0999 V2000 
    1.0143    0.0051   -0.0297 C   0  0  0  0  0  0  0  0  0  0  0  0 
    4.6487   -1.2827   -0.0265 C   0  0  0  0  0  0  0  0  0  0  0  0 
    3.2407   -1.2538   -0.0274 C   0  0  0  0  0  0  0  0  0  0  0  0 
    5.3990   -0.1122   -0.0255 C   0  0  0  0  0  0  0  0  0  0  0  0 
    5.0785    2.5079   -0.0265 C   0  0  0  0  0  0  0  0  0  0  0  0 
    3.9151    3.2034   -0.0272 C   0  0  0  0  0  0  0  0  0  0  0  0 
    2.5194   -0.0572   -0.0274 C   0  0  0  0  0  0  0  0  0  0  0  0 
    4.7103    1.1113   -0.0250 C   0  0  0  0  0  0  0  0  0  0  0  0 
    3.3043    1.0971   -0.0263 C   0  0  0  0  0  0  0  0  0  0  0  0 
    2.8162    2.3802   -0.0276 O   0  0  0  0  0  0  0  0  0  0  0  0 
    0.5817   -0.9997   -0.0345 H   0  0  0  0  0  0  0  0  0  0  0  0 
    0.6388    0.5436   -0.9083 H   0  0  0  0  0  0  0  0  0  0  0  0 
    0.6356    0.5365    0.8519 H   0  0  0  0  0  0  0  0  0  0  0  0 
    5.1550   -2.2442   -0.0266 H   0  0  0  0  0  0  0  0  0  0  0  0 
    2.6915   -2.1922   -0.0281 H   0  0  0  0  0  0  0  0  0  0  0  0 
    6.4848   -0.1440   -0.0252 H   0  0  0  0  0  0  0  0  0  0  0  0 
    6.0750    2.9275   -0.0244 H   0  0  0  0  0  0  0  0  0  0  0  0 
    3.6939    4.2604   -0.0289 H   0  0  0  0  0  0  0  0  0  0  0  0 
  1  7  1  0  0  0  0 
  1 13  1  0  0  0  0 
  2  4  2  0  0  0  0 
  3  7  2  0  0  0  0 
  3  2  1  0  0  0  0 
  4 16  1  0  0  0  0 
  4  8  1  0  0  0  0 
  5  8  1  0  0  0  0 
  5 17  1  0  0  0  0 
  6  5  2  0  0  0  0 
  7  9  1  0  0  0  0 
  9  8  2  0  0  0  0 
 10  6  1  0  0  0  0 
 10  9  1  0  0  0  0 
 11  1  1  0  0  0  0 
 12  1  1  0  0  0  0 
 14  2  1  0  0  0  0 
 15  3  1  0  0  0  0 
 18  6  1  0  0  0  0 
M  END 
>  <HBA> 
1 
 
>  <HBD> 
0 
 
>  <TPSA> 
13.14 
 
>  <cid> 
33105 
 
>  <dipole> 
0.45 
 
>  <excitation_energy_1> 
4.941 
 
>  <excitation_energy_2> 
5.104 
 
>  <excitation_energy_3> 
5.62 
 
>  <excitation_energy_4> 
5.865 
 
>  <homo_energy> 
-5.861 
 
>  <homo_lumo_gap> 
5.529 
 
>  <logP> 
2.741 
 
>  <lumo_energy> 
-0.332 
 
>  <melting_point> 
51.72 
 
>  <molecular_refractivity> 
41.18 
 
>  <oscillator_strength_1> 
0.0183 
 
>  <oscillator_strength_2> 
0.1766 
 
>  <oscillator_strength_3> 
0.0039 
 
>  <oscillator_strength_4> 
0.0052 
 
>  <open_babel_can_smiles> 
Cc1cccc2c1occ2 
 
>  <mulliken_charges> 
18 
1   -0.520991 
2   -0.128991 
3   -0.20663 
4   -0.213615 
5   -0.221416 
6   0.08414 
7   0.137357 
8   0.143302 
9   0.238025 
10   -0.479935 
11   0.154204 
12   0.168393 
13   0.168357 
14   0.125325 
15   0.120813 
16   0.129012 
17   0.144961 
18   0.157692 
 
>  <lowdin_charges> 
18 
1   -0.437626 
2   -0.165883 
3   -0.173308 
4   -0.163712 
5   -0.211773 
6   -0.055891 
7   -0.015678 
8   -0.028544 
9   0.072552 
10   -0.118505 
11   0.157683 
12   0.165085 
13   0.165039 
14   0.156985 
15   0.155824 
16   0.156518 
17   0.171107 
18   0.170126 
 
$$$$ 
 
