PCCDB-ID:  19509 
public computational chemistry database (PCCDB) project, http://pccdb.org 
 
 16 16  0  0  0  0  0  0  0  0999 V2000 
   -1.4336   -0.1945    0.0864 C   0  0  0  0  0  0  0  0  0  0  0  0 
   -0.5795   -1.2950    0.0558 C   0  0  0  0  0  0  0  0  0  0  0  0 
   -0.8792    1.0820    0.0099 C   0  0  0  0  0  0  0  0  0  0  0  0 
    0.7921   -1.0589   -0.0558 C   0  0  0  0  0  0  0  0  0  0  0  0 
    1.1537    2.5911   -0.1272 C   0  0  0  0  0  0  0  0  0  0  0  0 
    0.5113    1.2197   -0.0892 C   0  0  0  0  0  0  0  0  0  0  0  0 
    1.4737    3.0422    1.2372 N   0  0  0  0  0  0  0  0  0  0  0  0 
    1.3359    0.1603   -0.1261 N   0  0  0  0  0  0  0  0  0  0  0  0 
   -2.5097   -0.3268    0.1639 H   0  0  0  0  0  0  0  0  0  0  0  0 
   -0.9612   -2.3104    0.1076 H   0  0  0  0  0  0  0  0  0  0  0  0 
   -1.5141    1.9645    0.0211 H   0  0  0  0  0  0  0  0  0  0  0  0 
    1.4911   -1.8935   -0.0942 H   0  0  0  0  0  0  0  0  0  0  0  0 
    0.4949    3.2805   -0.6863 H   0  0  0  0  0  0  0  0  0  0  0  0 
    2.0948    2.5084   -0.6787 H   0  0  0  0  0  0  0  0  0  0  0  0 
    0.6097    3.1972    1.7560 H   0  0  0  0  0  0  0  0  0  0  0  0 
    1.9437    3.9455    1.1908 H   0  0  0  0  0  0  0  0  0  0  0  0 
  1  9  1  0  0  0  0 
  2  1  1  0  0  0  0 
  2 10  1  0  0  0  0 
  3 11  1  0  0  0  0 
  3  1  2  0  0  0  0 
  4  2  2  0  0  0  0 
  5  6  1  0  0  0  0 
  5  7  1  0  0  0  0 
  6  3  1  0  0  0  0 
  7 15  1  0  0  0  0 
  8  6  2  0  0  0  0 
  8  4  1  0  0  0  0 
 12  4  1  0  0  0  0 
 13  5  1  0  0  0  0 
 14  5  1  0  0  0  0 
 16  7  1  0  0  0  0 
M  END 
>  <HBA> 
2 
 
>  <HBD> 
1 
 
>  <TPSA> 
38.91 
 
>  <cid> 
19509 
 
>  <dipole> 
2.77 
 
>  <excitation_energy_1> 
4.744 
 
>  <excitation_energy_2> 
4.937 
 
>  <excitation_energy_3> 
5.033 
 
>  <excitation_energy_4> 
5.251 
 
>  <homo_energy> 
-6.289 
 
>  <homo_lumo_gap> 
5.733 
 
>  <logP> 
1.241 
 
>  <lumo_energy> 
-0.555 
 
>  <melting_point> 
76.9 
 
>  <molecular_refractivity> 
31.91 
 
>  <oscillator_strength_1> 
0.0019 
 
>  <oscillator_strength_2> 
0.0035 
 
>  <oscillator_strength_3> 
0.0018 
 
>  <oscillator_strength_4> 
0.0018 
 
>  <open_babel_can_smiles> 
NCc1ccccn1 
 
>  <mulliken_charges> 
16 
1   -0.101843 
2   -0.140686 
3   -0.167611 
4   0.038382 
5   -0.203429 
6   0.304734 
7   -0.701421 
8   -0.443738 
9   0.141007 
10   0.136599 
11   0.129134 
12   0.140107 
13   0.115427 
14   0.164695 
15   0.291129 
16   0.297514 
 
>  <lowdin_charges> 
16 
1   -0.126267 
2   -0.177527 
3   -0.186893 
4   -0.086762 
5   -0.209462 
6   0.052328 
7   -0.548431 
8   -0.145199 
9   0.160221 
10   0.162828 
11   0.159627 
12   0.157102 
13   0.12225 
14   0.161292 
15   0.250617 
16   0.254276 
 
$$$$ 
 
