PCCDB-ID:  10316 
public computational chemistry database (PCCDB) project, http://pccdb.org 
 
 25 26  0  0  0  0  0  0  0  0999 V2000 
    0.1990   -5.7799    1.1298 C   0  0  0  0  0  0  0  0  0  0  0  0 
   -0.4788   -3.3142   -4.6792 C   0  0  0  0  0  0  0  0  0  0  0  0 
   -0.4596   -4.7184    1.7554 C   0  0  0  0  0  0  0  0  0  0  0  0 
    1.1037   -5.5164    0.0989 C   0  0  0  0  0  0  0  0  0  0  0  0 
    0.7824   -2.7130   -4.6783 C   0  0  0  0  0  0  0  0  0  0  0  0 
   -1.2649   -3.2933   -3.5252 C   0  0  0  0  0  0  0  0  0  0  0  0 
   -0.2218   -3.4070    1.3512 C   0  0  0  0  0  0  0  0  0  0  0  0 
    1.3378   -4.2090   -0.3219 C   0  0  0  0  0  0  0  0  0  0  0  0 
    1.2590   -2.0872   -3.5279 C   0  0  0  0  0  0  0  0  0  0  0  0 
   -0.7899   -2.6918   -2.3597 C   0  0  0  0  0  0  0  0  0  0  0  0 
    0.6581   -3.1409    0.2895 C   0  0  0  0  0  0  0  0  0  0  0  0 
    0.4729   -2.1037   -2.3778 C   0  0  0  0  0  0  0  0  0  0  0  0 
    0.9196   -1.7815    0.0108 N   0  0  0  0  0  0  0  0  0  0  0  0 
    0.9780   -1.3670   -1.1994 N   0  0  0  0  0  0  0  0  0  0  0  0 
    1.4229   -0.2303   -1.4689 O   0  0  0  0  0  0  0  0  0  0  0  0 
    0.0217   -6.8016    1.4534 H   0  0  0  0  0  0  0  0  0  0  0  0 
   -0.8519   -3.7914   -5.5808 H   0  0  0  0  0  0  0  0  0  0  0  0 
   -1.1532   -4.9107    2.5695 H   0  0  0  0  0  0  0  0  0  0  0  0 
    1.6387   -6.3334   -0.3779 H   0  0  0  0  0  0  0  0  0  0  0  0 
    1.3911   -2.7179   -5.5777 H   0  0  0  0  0  0  0  0  0  0  0  0 
   -2.2521   -3.7460   -3.5278 H   0  0  0  0  0  0  0  0  0  0  0  0 
   -0.7095   -2.5714    1.8439 H   0  0  0  0  0  0  0  0  0  0  0  0 
    2.0588   -4.0107   -1.1084 H   0  0  0  0  0  0  0  0  0  0  0  0 
    2.2169   -1.5800   -3.5108 H   0  0  0  0  0  0  0  0  0  0  0  0 
   -1.3923   -2.6749   -1.4590 H   0  0  0  0  0  0  0  0  0  0  0  0 
  1 16  1  0  0  0  0 
  1  3  2  0  0  0  0 
  2  5  2  0  0  0  0 
  2  6  1  0  0  0  0 
  3 18  1  0  0  0  0 
  4  1  1  0  0  0  0 
  5  9  1  0  0  0  0 
  6 10  2  0  0  0  0 
  7  3  1  0  0  0  0 
  7 22  1  0  0  0  0 
  8  4  2  0  0  0  0 
  8 11  1  0  0  0  0 
  9 24  1  0  0  0  0 
  9 12  2  0  0  0  0 
 10 25  1  0  0  0  0 
 11  7  2  0  0  0  0 
 12 10  1  0  0  0  0 
 12 14  1  0  0  0  0 
 13 11  1  0  0  0  0 
 14 13  1  0  0  0  0 
 15 14  1  0  0  0  0 
 17  2  1  0  0  0  0 
 19  4  1  0  0  0  0 
 20  5  1  0  0  0  0 
 21  6  1  0  0  0  0 
 23  8  1  0  0  0  0 
M  RAD  2  13   2  15   2 
M  END 
>  <HBA> 
2 
 
>  <HBD> 
0 
 
>  <TPSA> 
41.11 
 
>  <cid> 
10316 
 
>  <dipole> 
4.91 
 
>  <excitation_energy_1> 
3.453 
 
>  <excitation_energy_2> 
3.776 
 
>  <excitation_energy_3> 
4.2 
 
>  <excitation_energy_4> 
4.601 
 
>  <homo_energy> 
-6.087 
 
>  <homo_lumo_gap> 
4.18 
 
>  <logP> 
4.136 
 
>  <lumo_energy> 
-1.908 
 
>  <melting_point> 
72.51 
 
>  <molecular_refractivity> 
60.43 
 
>  <oscillator_strength_1> 
0.1195 
 
>  <oscillator_strength_2> 
0.0176 
 
>  <oscillator_strength_3> 
0.0053 
 
>  <oscillator_strength_4> 
0.0022 
 
>  <open_babel_can_smiles> 
[O]N(c1ccccc1)[N]c1ccccc1 
 
>  <mulliken_charges> 
25 
1   -0.127117 
2   -0.11294 
3   -0.135928 
4   -0.138863 
5   -0.1447 
6   -0.144582 
7   -0.153098 
8   -0.134232 
9   -0.125936 
10   -0.116213 
11   0.227963 
12   0.240104 
13   -0.318054 
14   0.14258 
15   -0.42031 
16   0.132394 
17   0.143322 
18   0.135689 
19   0.135364 
20   0.146857 
21   0.146838 
22   0.14497 
23   0.138365 
24   0.170749 
25   0.166777 
 
>  <lowdin_charges> 
25 
1   -0.161191 
2   -0.143439 
3   -0.150488 
4   -0.151763 
5   -0.14903 
6   -0.145598 
7   -0.16822 
8   -0.173069 
9   -0.141565 
10   -0.146434 
11   0.021198 
12   0.019787 
13   -0.138348 
14   0.24603 
15   -0.29104 
16   0.158835 
17   0.165527 
18   0.161185 
19   0.161742 
20   0.16693 
21   0.165999 
22   0.169104 
23   0.163781 
24   0.181005 
25   0.179062 
 
$$$$ 
 
