PCCDB-ID:  68346 
public computational chemistry database (PCCDB) project, http://pccdb.org 
 
 27 26  0  0  0  0  0  0  0  0999 V2000 
    0.6616    1.0222   -0.0422 C   0  0  0  0  0  0  0  0  0  0  0  0 
    6.5286    0.2483    1.8301 C   0  0  0  0  0  0  0  0  0  0  0  0 
    4.7268    0.2032    3.6193 C   0  0  0  0  0  0  0  0  0  0  0  0 
    3.2630    1.8166   -2.3546 C   0  0  0  0  0  0  0  0  0  0  0  0 
    2.7063    3.1413   -0.2842 C   0  0  0  0  0  0  0  0  0  0  0  0 
    1.8392    0.7648   -0.6154 C   0  0  0  0  0  0  0  0  0  0  0  0 
    4.1197    0.8722    1.3157 C   0  0  0  0  0  0  0  0  0  0  0  0 
    5.0809    0.4683    2.1774 C   0  0  0  0  0  0  0  0  0  0  0  0 
    4.2665    1.1830   -0.1254 C   0  0  0  0  0  0  0  0  0  0  0  0 
    2.9899    1.7293   -0.8397 C   0  0  0  0  0  0  0  0  0  0  0  0 
    5.3091    1.0569   -0.7564 O   0  0  0  0  0  0  0  0  0  0  0  0 
   -0.1023    0.2535    0.0380 H   0  0  0  0  0  0  0  0  0  0  0  0 
    0.4063    1.9976    0.3625 H   0  0  0  0  0  0  0  0  0  0  0  0 
    7.1666    0.8529    2.4897 H   0  0  0  0  0  0  0  0  0  0  0  0 
    6.7425    0.4889    0.7912 H   0  0  0  0  0  0  0  0  0  0  0  0 
    6.8004   -0.7997    2.0203 H   0  0  0  0  0  0  0  0  0  0  0  0 
    4.9880   -0.8268    3.8984 H   0  0  0  0  0  0  0  0  0  0  0  0 
    3.6630    0.3564    3.8219 H   0  0  0  0  0  0  0  0  0  0  0  0 
    5.3045    0.8590    4.2852 H   0  0  0  0  0  0  0  0  0  0  0  0 
    2.3904    2.2351   -2.8672 H   0  0  0  0  0  0  0  0  0  0  0  0 
    3.4723    0.8288   -2.7770 H   0  0  0  0  0  0  0  0  0  0  0  0 
    4.1333    2.4474   -2.5545 H   0  0  0  0  0  0  0  0  0  0  0  0 
    1.8384    3.5804   -0.7890 H   0  0  0  0  0  0  0  0  0  0  0  0 
    3.5662    3.7959   -0.4627 H   0  0  0  0  0  0  0  0  0  0  0  0 
    2.5051    3.1347    0.7919 H   0  0  0  0  0  0  0  0  0  0  0  0 
    2.0179   -0.2387   -1.0063 H   0  0  0  0  0  0  0  0  0  0  0  0 
    3.1112    0.9818    1.7053 H   0  0  0  0  0  0  0  0  0  0  0  0 
  1 12  1  0  0  0  0 
  1 13  1  0  0  0  0 
  2 16  1  0  0  0  0 
  2  8  1  0  0  0  0 
  2 14  1  0  0  0  0 
  3 18  1  0  0  0  0 
  3 17  1  0  0  0  0 
  3 19  1  0  0  0  0 
  4 10  1  0  0  0  0 
  5 25  1  0  0  0  0 
  6  1  2  0  0  0  0 
  7 27  1  0  0  0  0 
  7  8  2  0  0  0  0 
  8  3  1  0  0  0  0 
  9  7  1  0  0  0  0 
 10  6  1  0  0  0  0 
 10  5  1  0  0  0  0 
 10  9  1  0  0  0  0 
 11  9  2  0  0  0  0 
 15  2  1  0  0  0  0 
 20  4  1  0  0  0  0 
 21  4  1  0  0  0  0 
 22  4  1  0  0  0  0 
 23  5  1  0  0  0  0 
 24  5  1  0  0  0  0 
 26  6  1  0  0  0  0 
M  END 
>  <HBA> 
1 
 
>  <HBD> 
0 
 
>  <TPSA> 
17.07 
 
>  <cid> 
68346 
 
>  <dipole> 
2.5 
 
>  <excitation_energy_1> 
3.466 
 
>  <excitation_energy_2> 
5.029 
 
>  <excitation_energy_3> 
5.331 
 
>  <excitation_energy_4> 
5.701 
 
>  <homo_energy> 
-6.21 
 
>  <homo_lumo_gap> 
4.871 
 
>  <logP> 
2.734 
 
>  <lumo_energy> 
-1.339 
 
>  <melting_point> 
3.47 
 
>  <molecular_refractivity> 
49.18 
 
>  <oscillator_strength_1> 
0.003 
 
>  <oscillator_strength_2> 
0.1362 
 
>  <oscillator_strength_3> 
0.2954 
 
>  <oscillator_strength_4> 
0.0263 
 
>  <open_babel_can_smiles> 
C=CC(C(=O)C=C(C)C)(C)C 
 
>  <mulliken_charges> 
27 
1   -0.348428 
2   -0.531069 
3   -0.511488 
4   -0.438387 
5   -0.46924 
6   -0.056205 
7   -0.242624 
8   0.209871 
9   0.434342 
10   -0.030552 
11   -0.480131 
12   0.141494 
13   0.140247 
14   0.152881 
15   0.21418 
16   0.156538 
17   0.162693 
18   0.16053 
19   0.162577 
20   0.139335 
21   0.148825 
22   0.159525 
23   0.154735 
24   0.156931 
25   0.151027 
26   0.131158 
27   0.131233 
 
>  <lowdin_charges> 
27 
1   -0.348174 
2   -0.456237 
3   -0.440741 
4   -0.435902 
5   -0.439957 
6   -0.142258 
7   -0.243191 
8   0.064538 
9   0.157683 
10   -0.016983 
11   -0.251771 
12   0.161397 
13   0.157258 
14   0.160687 
15   0.186033 
16   0.160799 
17   0.161406 
18   0.157323 
19   0.163586 
20   0.14993 
21   0.154326 
22   0.16059 
23   0.156658 
24   0.158491 
25   0.150852 
26   0.153046 
27   0.160613 
 
$$$$ 
 
