PCCDB-ID:  18539 
public computational chemistry database (PCCDB) project, http://pccdb.org 
 
 29 31  0  0  0  0  0  0  0  0999 V2000 
   -3.6782   -0.6548    0.3592 C   0  0  0  0  0  0  0  0  0  0  0  0 
   -3.6370    0.7130   -0.3325 C   0  0  0  0  0  0  0  0  0  0  0  0 
    3.6902   -0.6544    0.0077 C   0  0  0  0  0  0  0  0  0  0  0  0 
   -2.4827   -1.5106   -0.0813 C   0  0  0  0  0  0  0  0  0  0  0  0 
    2.5430   -1.4181    0.0064 C   0  0  0  0  0  0  0  0  0  0  0  0 
    3.6399    0.7565   -0.0229 C   0  0  0  0  0  0  0  0  0  0  0  0 
   -2.3765    1.4832    0.0804 C   0  0  0  0  0  0  0  0  0  0  0  0 
    0.0409   -1.4554   -0.0152 C   0  0  0  0  0  0  0  0  0  0  0  0 
   -1.1572   -0.7714   -0.0222 C   0  0  0  0  0  0  0  0  0  0  0  0 
    1.2799   -0.7711   -0.0146 C   0  0  0  0  0  0  0  0  0  0  0  0 
    2.4243    1.4267   -0.0544 C   0  0  0  0  0  0  0  0  0  0  0  0 
   -1.1060    0.6571   -0.0032 C   0  0  0  0  0  0  0  0  0  0  0  0 
    1.2110    0.6533   -0.0331 C   0  0  0  0  0  0  0  0  0  0  0  0 
    2.3147    2.8013   -0.1495 N   0  0  0  0  0  0  0  0  0  0  0  0 
    0.0337    1.3292   -0.0140 N   0  0  0  0  0  0  0  0  0  0  0  0 
   -4.6124   -1.1812    0.1299 H   0  0  0  0  0  0  0  0  0  0  0  0 
   -3.6544   -0.5124    1.4490 H   0  0  0  0  0  0  0  0  0  0  0  0 
   -4.5287    1.3017   -0.0860 H   0  0  0  0  0  0  0  0  0  0  0  0 
   -3.6467    0.5682   -1.4223 H   0  0  0  0  0  0  0  0  0  0  0  0 
    4.6626   -1.1401    0.0287 H   0  0  0  0  0  0  0  0  0  0  0  0 
   -2.6530   -1.8425   -1.1170 H   0  0  0  0  0  0  0  0  0  0  0  0 
   -2.4211   -2.4268    0.5197 H   0  0  0  0  0  0  0  0  0  0  0  0 
    2.5894   -2.5036    0.0226 H   0  0  0  0  0  0  0  0  0  0  0  0 
    4.5652    1.3276   -0.0358 H   0  0  0  0  0  0  0  0  0  0  0  0 
   -2.4905    1.8256    1.1204 H   0  0  0  0  0  0  0  0  0  0  0  0 
   -2.2437    2.3895   -0.5206 H   0  0  0  0  0  0  0  0  0  0  0  0 
    0.0425   -2.5448   -0.0133 H   0  0  0  0  0  0  0  0  0  0  0  0 
    3.0715    3.3458    0.2406 H   0  0  0  0  0  0  0  0  0  0  0  0 
    1.3850    3.1440    0.0649 H   0  0  0  0  0  0  0  0  0  0  0  0 
  1 17  1  0  0  0  0 
  2 18  1  0  0  0  0 
  2  7  1  0  0  0  0 
  2  1  1  0  0  0  0 
  3 20  1  0  0  0  0 
  4  9  1  0  0  0  0 
  4  1  1  0  0  0  0 
  4 22  1  0  0  0  0 
  5  3  1  0  0  0  0 
  5 23  1  0  0  0  0 
  6  3  2  0  0  0  0 
  7 25  1  0  0  0  0 
  8 10  1  0  0  0  0 
  8 27  1  0  0  0  0 
  9  8  2  0  0  0  0 
  9 12  1  0  0  0  0 
 10  5  2  0  0  0  0 
 11 13  2  0  0  0  0 
 11  6  1  0  0  0  0 
 12  7  1  0  0  0  0 
 13 10  1  0  0  0  0 
 13 15  1  0  0  0  0 
 14 11  1  0  0  0  0 
 14 29  1  0  0  0  0 
 14 28  1  0  0  0  0 
 15 12  2  0  0  0  0 
 16  1  1  0  0  0  0 
 19  2  1  0  0  0  0 
 21  4  1  0  0  0  0 
 24  6  1  0  0  0  0 
 26  7  1  0  0  0  0 
M  END 
>  <HBA> 
2 
 
>  <HBD> 
1 
 
>  <TPSA> 
38.91 
 
>  <cid> 
18539 
 
>  <dipole> 
1.33 
 
>  <excitation_energy_1> 
3.395 
 
>  <excitation_energy_2> 
4.098 
 
>  <excitation_energy_3> 
4.487 
 
>  <excitation_energy_4> 
4.671 
 
>  <homo_energy> 
-5.012 
 
>  <homo_lumo_gap> 
4.0 
 
>  <logP> 
3.277 
 
>  <lumo_energy> 
-1.012 
 
>  <melting_point> 
144.24 
 
>  <molecular_refractivity> 
63.58 
 
>  <oscillator_strength_1> 
0.0424 
 
>  <oscillator_strength_2> 
0.0081 
 
>  <oscillator_strength_3> 
0.0025 
 
>  <oscillator_strength_4> 
0.0025 
 
>  <open_babel_can_smiles> 
Nc1cccc2c1nc1CCCCc1c2 
 
>  <mulliken_charges> 
29 
1   -0.267389 
2   -0.269424 
3   -0.136308 
4   -0.344852 
5   -0.212725 
6   -0.199678 
7   -0.324056 
8   -0.228996 
9   0.128476 
10   0.175293 
11   0.307675 
12   0.264415 
13   0.21476 
14   -0.797527 
15   -0.612442 
16   0.135374 
17   0.137997 
18   0.135744 
19   0.1383 
20   0.12421 
21   0.154537 
22   0.146774 
23   0.118239 
24   0.114006 
25   0.153466 
26   0.156936 
27   0.126935 
28   0.317381 
29   0.34288 
 
>  <lowdin_charges> 
29 
1   -0.274924 
2   -0.276522 
3   -0.144567 
4   -0.274612 
5   -0.196292 
6   -0.215662 
7   -0.28012 
8   -0.135865 
9   -0.033817 
10   -0.009036 
11   0.060802 
12   0.041267 
13   0.014014 
14   -0.478682 
15   -0.169415 
16   0.146851 
17   0.139776 
18   0.147477 
19   0.139807 
20   0.156199 
21   0.152242 
22   0.152823 
23   0.151737 
24   0.153191 
25   0.154012 
26   0.161092 
27   0.154349 
28   0.27756 
29   0.286318 
 
$$$$ 
 
