PCCDB-ID:  6651 
public computational chemistry database (PCCDB) project, http://pccdb.org 
 
 32 32  0  0  1  0  0  0  0  0999 V2000 
    0.9758    0.3846    0.7664 C   0  0  0  0  0  0  0  0  0  0  0  0 
    3.3042    1.2415    0.4171 C   0  0  0  0  0  0  0  0  0  0  0  0 
    3.5821   -4.2489   -1.9506 C   0  0  0  0  0  0  0  0  0  0  0  0 
    4.2191   -1.5501   -0.3697 C   0  0  0  0  0  0  0  0  0  0  0  0 
    1.8728   -2.4131    0.0107 C   0  0  0  0  0  0  0  0  0  0  0  0 
    4.7606   -2.9607   -0.0872 C   0  0  0  0  0  0  0  0  0  0  0  0 
    2.4423   -3.8134    0.2863 C   0  0  0  0  0  0  0  0  0  0  0  0 
    2.8754   -1.2856    0.3444 C   0  0  2  0  0  0  0  0  0  0  0  0 
    2.3071    0.1319    0.0368 C   0  0  0  0  0  0  0  0  0  0  0  0 
    3.7689   -4.0865   -0.4349 C   0  0  1  0  0  0  0  0  0  0  0  0 
    2.0823    0.1634   -1.3860 O   0  0  0  0  0  0  0  0  0  0  0  0 
    4.2399   -5.3317    0.1108 O   0  0  0  0  0  0  0  0  0  0  0  0 
    1.0837    0.2704    1.8516 H   0  0  0  0  0  0  0  0  0  0  0  0 
    0.1967   -0.2983    0.4200 H   0  0  0  0  0  0  0  0  0  0  0  0 
    0.6304    1.4094    0.5765 H   0  0  0  0  0  0  0  0  0  0  0  0 
    3.5757    1.1915    1.4783 H   0  0  0  0  0  0  0  0  0  0  0  0 
    2.8565    2.2282    0.2388 H   0  0  0  0  0  0  0  0  0  0  0  0 
    4.2174    1.1785   -0.1794 H   0  0  0  0  0  0  0  0  0  0  0  0 
    3.1748   -3.3503   -2.4245 H   0  0  0  0  0  0  0  0  0  0  0  0 
    2.9038   -5.0844   -2.1538 H   0  0  0  0  0  0  0  0  0  0  0  0 
    4.5444   -4.4663   -2.4337 H   0  0  0  0  0  0  0  0  0  0  0  0 
    4.0829   -1.3981   -1.4467 H   0  0  0  0  0  0  0  0  0  0  0  0 
    4.9718   -0.8220   -0.0480 H   0  0  0  0  0  0  0  0  0  0  0  0 
    0.9585   -2.2958    0.6026 H   0  0  0  0  0  0  0  0  0  0  0  0 
    1.5737   -2.3187   -1.0400 H   0  0  0  0  0  0  0  0  0  0  0  0 
    4.9962   -3.0579    0.9814 H   0  0  0  0  0  0  0  0  0  0  0  0 
    5.7037   -3.1149   -0.6327 H   0  0  0  0  0  0  0  0  0  0  0  0 
    1.7122   -4.5840    0.0090 H   0  0  0  0  0  0  0  0  0  0  0  0 
    2.6281   -3.9320    1.3623 H   0  0  0  0  0  0  0  0  0  0  0  0 
    3.0616   -1.3131    1.4301 H   0  0  0  0  0  0  0  0  0  0  0  0 
    1.7236    1.0385   -1.6030 H   0  0  0  0  0  0  0  0  0  0  0  0 
    5.0786   -5.5393   -0.3325 H   0  0  0  0  0  0  0  0  0  0  0  0 
  1 13  1  0  0  0  0 
  2 16  1  0  0  0  0 
  3 10  1  0  0  0  0 
  4  6  1  0  0  0  0 
  4 23  1  0  0  0  0 
  4  8  1  0  0  0  0 
  5  7  1  0  0  0  0 
  5  8  1  0  0  0  0 
  5 24  1  0  0  0  0 
  6 26  1  0  0  0  0 
  7 29  1  0  0  0  0 
  8 30  1  1  0  0  0 
  9  8  1  0  0  0  0 
  9  2  1  0  0  0  0 
  9  1  1  0  0  0  0 
 10  6  1  0  0  0  0 
 10 12  1  1  0  0  0 
 10  7  1  0  0  0  0 
 11  9  1  0  0  0  0 
 14  1  1  0  0  0  0 
 15  1  1  0  0  0  0 
 17  2  1  0  0  0  0 
 18  2  1  0  0  0  0 
 19  3  1  0  0  0  0 
 20  3  1  0  0  0  0 
 21  3  1  0  0  0  0 
 22  4  1  0  0  0  0 
 25  5  1  0  0  0  0 
 27  6  1  0  0  0  0 
 28  7  1  0  0  0  0 
 31 11  1  0  0  0  0 
 32 12  1  0  0  0  0 
M  END 
>  <HBA> 
2 
 
>  <HBD> 
2 
 
>  <TPSA> 
40.46 
 
>  <cid> 
6651 
 
>  <dipole> 
2.23 
 
>  <excitation_energy_1> 
6.328 
 
>  <excitation_energy_2> 
6.355 
 
>  <excitation_energy_3> 
6.57 
 
>  <excitation_energy_4> 
7.03 
 
>  <homo_energy> 
-6.836 
 
>  <homo_lumo_gap> 
8.52 
 
>  <logP> 
1.698 
 
>  <lumo_energy> 
1.684 
 
>  <melting_point> 
52.64 
 
>  <molecular_refractivity> 
50.47 
 
>  <oscillator_strength_1> 
0.0223 
 
>  <oscillator_strength_2> 
0.0096 
 
>  <oscillator_strength_3> 
0.0031 
 
>  <oscillator_strength_4> 
0.0054 
 
>  <open_babel_can_smiles> 
C[C@]1(O)CC[C@@H](CC1)C(O)(C)C 
 
>  <mulliken_charges> 
32 
1   -0.467921 
2   -0.467449 
3   -0.470012 
4   -0.284336 
5   -0.289262 
6   -0.286355 
7   -0.271256 
8   -0.075079 
9   0.314468 
10   0.323664 
11   -0.643304 
12   -0.650727 
13   0.142739 
14   0.161859 
15   0.127357 
16   0.14244 
17   0.127596 
18   0.160646 
19   0.156543 
20   0.15248 
21   0.125319 
22   0.156679 
23   0.129738 
24   0.1313 
25   0.155667 
26   0.136562 
27   0.112745 
28   0.134974 
29   0.137542 
30   0.111542 
31   0.384556 
32   0.379285 
 
>  <lowdin_charges> 
32 
1   -0.457819 
2   -0.457782 
3   -0.462497 
4   -0.282802 
5   -0.282215 
6   -0.290982 
7   -0.278419 
8   -0.129264 
9   0.125558 
10   0.117098 
11   -0.466293 
12   -0.464169 
13   0.150838 
14   0.15911 
15   0.142171 
16   0.151015 
17   0.14267 
18   0.157578 
19   0.157029 
20   0.156284 
21   0.14188 
22   0.14967 
23   0.145351 
24   0.145384 
25   0.149546 
26   0.143424 
27   0.135424 
28   0.148654 
29   0.145126 
30   0.133317 
31   0.339055 
32   0.33606 
 
$$$$ 
 
