PCCDB-ID:  15506 
public computational chemistry database (PCCDB) project, http://pccdb.org 
 
 30 30  0  0  0  0  0  0  0  0999 V2000 
    1.5695   -0.3618    1.0248 C   0  0  0  0  0  0  0  0  0  0  0  0 
    3.0579   -0.7149    0.9417 C   0  0  0  0  0  0  0  0  0  0  0  0 
    3.4169   -1.5388   -0.3025 C   0  0  0  0  0  0  0  0  0  0  0  0 
    6.9680   -5.0532   -1.0358 C   0  0  0  0  0  0  0  0  0  0  0  0 
    5.4428   -5.0461   -0.8502 C   0  0  0  0  0  0  0  0  0  0  0  0 
    7.5556   -3.6402   -0.8965 C   0  0  0  0  0  0  0  0  0  0  0  0 
    4.9115   -1.8795   -0.3910 C   0  0  0  0  0  0  0  0  0  0  0  0 
    4.7639   -4.0465   -1.8022 C   0  0  0  0  0  0  0  0  0  0  0  0 
    6.8681   -2.6531   -1.8546 C   0  0  0  0  0  0  0  0  0  0  0  0 
    5.3318   -2.6125   -1.6845 C   0  0  0  0  0  0  0  0  0  0  0  0 
    1.3455    0.2233    1.9242 H   0  0  0  0  0  0  0  0  0  0  0  0 
    0.9481   -1.2655    1.0524 H   0  0  0  0  0  0  0  0  0  0  0  0 
    1.2532    0.2289    0.1561 H   0  0  0  0  0  0  0  0  0  0  0  0 
    3.3528   -1.2721    1.8425 H   0  0  0  0  0  0  0  0  0  0  0  0 
    3.6545    0.2085    0.9481 H   0  0  0  0  0  0  0  0  0  0  0  0 
    3.1172   -0.9817   -1.2031 H   0  0  0  0  0  0  0  0  0  0  0  0 
    2.8175   -2.4598   -0.3022 H   0  0  0  0  0  0  0  0  0  0  0  0 
    7.2066   -5.4441   -2.0365 H   0  0  0  0  0  0  0  0  0  0  0  0 
    7.4375   -5.7350   -0.3148 H   0  0  0  0  0  0  0  0  0  0  0  0 
    5.2053   -4.7915    0.1923 H   0  0  0  0  0  0  0  0  0  0  0  0 
    5.0358   -6.0516   -1.0189 H   0  0  0  0  0  0  0  0  0  0  0  0 
    8.6355   -3.6582   -1.0930 H   0  0  0  0  0  0  0  0  0  0  0  0 
    7.4383   -3.2975    0.1412 H   0  0  0  0  0  0  0  0  0  0  0  0 
    5.1971   -2.4643    0.4941 H   0  0  0  0  0  0  0  0  0  0  0  0 
    5.4855   -0.9432   -0.3268 H   0  0  0  0  0  0  0  0  0  0  0  0 
    3.6793   -4.0462   -1.6378 H   0  0  0  0  0  0  0  0  0  0  0  0 
    4.9138   -4.3919   -2.8357 H   0  0  0  0  0  0  0  0  0  0  0  0 
    7.0978   -2.9525   -2.8880 H   0  0  0  0  0  0  0  0  0  0  0  0 
    7.2847   -1.6452   -1.7242 H   0  0  0  0  0  0  0  0  0  0  0  0 
    4.9254   -2.0267   -2.5231 H   0  0  0  0  0  0  0  0  0  0  0  0 
  1 12  1  0  0  0  0 
  1 11  1  0  0  0  0 
  2 15  1  0  0  0  0 
  2  1  1  0  0  0  0 
  2 14  1  0  0  0  0 
  3 17  1  0  0  0  0 
  3  2  1  0  0  0  0 
  4  6  1  0  0  0  0 
  4  5  1  0  0  0  0 
  4 19  1  0  0  0  0 
  5 20  1  0  0  0  0 
  6 23  1  0  0  0  0 
  7 25  1  0  0  0  0 
  7  3  1  0  0  0  0 
  7 24  1  0  0  0  0 
  8 10  1  0  0  0  0 
  8 26  1  0  0  0  0 
  8  5  1  0  0  0  0 
  9 29  1  0  0  0  0 
  9 10  1  0  0  0  0 
  9  6  1  0  0  0  0 
 10  7  1  0  0  0  0 
 13  1  1  0  0  0  0 
 16  3  1  0  0  0  0 
 18  4  1  0  0  0  0 
 21  5  1  0  0  0  0 
 22  6  1  0  0  0  0 
 27  8  1  0  0  0  0 
 28  9  1  0  0  0  0 
 30 10  1  0  0  0  0 
M  END 
>  <HBA> 
0 
 
>  <HBD> 
0 
 
>  <TPSA> 
0.0 
 
>  <cid> 
15506 
 
>  <dipole> 
0.01 
 
>  <excitation_energy_1> 
7.206 
 
>  <excitation_energy_2> 
7.296 
 
>  <excitation_energy_3> 
7.494 
 
>  <excitation_energy_4> 
7.522 
 
>  <homo_energy> 
-7.734 
 
>  <homo_lumo_gap> 
9.897 
 
>  <logP> 
3.757 
 
>  <lumo_energy> 
2.163 
 
>  <melting_point> 
-6.64 
 
>  <molecular_refractivity> 
48.07 
 
>  <oscillator_strength_1> 
0.0007 
 
>  <oscillator_strength_2> 
0.0003 
 
>  <oscillator_strength_3> 
0.0127 
 
>  <oscillator_strength_4> 
0.0042 
 
>  <open_babel_can_smiles> 
CCCCC1CCCCC1 
 
>  <mulliken_charges> 
30 
1   -0.441294 
2   -0.246972 
3   -0.252315 
4   -0.25347 
5   -0.260137 
6   -0.259523 
7   -0.260432 
8   -0.267556 
9   -0.26503 
10   -0.073118 
11   0.140965 
12   0.140602 
13   0.140933 
14   0.129378 
15   0.129497 
16   0.125456 
17   0.131052 
18   0.125196 
19   0.127205 
20   0.130183 
21   0.128414 
22   0.128115 
23   0.131241 
24   0.130096 
25   0.124064 
26   0.131119 
27   0.124803 
28   0.123812 
29   0.124919 
30   0.112796 
 
>  <lowdin_charges> 
30 
1   -0.445948 
2   -0.272222 
3   -0.276734 
4   -0.278468 
5   -0.278334 
6   -0.276887 
7   -0.280458 
8   -0.278467 
9   -0.277654 
10   -0.129931 
11   0.149188 
12   0.146067 
13   0.146629 
14   0.138699 
15   0.138305 
16   0.136956 
17   0.138303 
18   0.135446 
19   0.142882 
20   0.136148 
21   0.142078 
22   0.140536 
23   0.136937 
24   0.138333 
25   0.138766 
26   0.139942 
27   0.137425 
28   0.136499 
29   0.139313 
30   0.136651 
 
$$$$ 
 
