PCCDB-ID:  21349 
public computational chemistry database (PCCDB) project, http://pccdb.org 
 
 23 23  0  0  1  0  0  0  0  0999 V2000 
    2.6227    1.6731   -0.1065 C   0  0  0  0  0  0  0  0  0  0  0  0 
    3.6113    0.5044   -0.0433 C   0  0  0  0  0  0  0  0  0  0  0  0 
    4.9509    1.7740   -4.8691 C   0  0  0  0  0  0  0  0  0  0  0  0 
    5.8099    1.6357   -3.7761 C   0  0  0  0  0  0  0  0  0  0  0  0 
    3.6708    1.2226   -4.8171 C   0  0  0  0  0  0  0  0  0  0  0  0 
    5.3909    0.9567   -2.6328 C   0  0  0  0  0  0  0  0  0  0  0  0 
    3.2527    0.5365   -3.6760 C   0  0  0  0  0  0  0  0  0  0  0  0 
    4.1041    0.4025   -2.5729 C   0  0  0  0  0  0  0  0  0  0  0  0 
    3.6103   -0.3248   -1.3365 C   0  0  1  0  0  0  0  0  0  0  0  0 
    4.4641   -1.5786   -1.1227 N   0  0  0  0  0  0  0  0  0  0  0  0 
    3.9894   -2.6465   -1.4925 O   0  0  0  0  0  0  0  0  0  0  0  0 
    5.5696   -1.4326   -0.6064 O   0  0  0  0  0  0  0  0  0  0  0  0 
    2.6457    2.2383    0.8309 H   0  0  0  0  0  0  0  0  0  0  0  0 
    1.5950    1.3216   -0.2578 H   0  0  0  0  0  0  0  0  0  0  0  0 
    2.8663    2.3621   -0.9217 H   0  0  0  0  0  0  0  0  0  0  0  0 
    3.3504   -0.1578    0.7917 H   0  0  0  0  0  0  0  0  0  0  0  0 
    4.6247    0.8691    0.1481 H   0  0  0  0  0  0  0  0  0  0  0  0 
    5.2800    2.3061   -5.7575 H   0  0  0  0  0  0  0  0  0  0  0  0 
    6.8107    2.0571   -3.8138 H   0  0  0  0  0  0  0  0  0  0  0  0 
    2.9976    1.3200   -5.6644 H   0  0  0  0  0  0  0  0  0  0  0  0 
    6.0698    0.8364   -1.7945 H   0  0  0  0  0  0  0  0  0  0  0  0 
    2.2566    0.1022   -3.6414 H   0  0  0  0  0  0  0  0  0  0  0  0 
    2.6164   -0.7335   -1.5269 H   0  0  0  0  0  0  0  0  0  0  0  0 
  1  2  1  0  0  0  0 
  1 13  1  0  0  0  0 
  2 17  1  0  0  0  0 
  2 16  1  0  0  0  0 
  3  5  2  0  0  0  0 
  3  4  1  0  0  0  0 
  4  6  2  0  0  0  0 
  5  7  1  0  0  0  0 
  6  8  1  0  0  0  0 
  6 21  1  0  0  0  0 
  7 22  1  0  0  0  0 
  7  8  2  0  0  0  0 
  8  9  1  0  0  0  0 
  9 23  1  6  0  0  0 
  9 10  1  0  0  0  0 
  9  2  1  0  0  0  0 
 10 12  2  0  0  0  0 
 11 10  2  0  0  0  0 
 14  1  1  0  0  0  0 
 15  1  1  0  0  0  0 
 18  3  1  0  0  0  0 
 19  4  1  0  0  0  0 
 20  5  1  0  0  0  0 
M  END 
>  <HBA> 
0 
 
>  <HBD> 
0 
 
>  <TPSA> 
45.82 
 
>  <cid> 
21349 
 
>  <dipole> 
3.89 
 
>  <excitation_energy_1> 
4.036 
 
>  <excitation_energy_2> 
4.173 
 
>  <excitation_energy_3> 
4.48 
 
>  <excitation_energy_4> 
4.778 
 
>  <homo_energy> 
-7.002 
 
>  <homo_lumo_gap> 
5.284 
 
>  <logP> 
2.938 
 
>  <lumo_energy> 
-1.717 
 
>  <melting_point> 
36.58 
 
>  <molecular_refractivity> 
49.13 
 
>  <oscillator_strength_1> 
0.0096 
 
>  <oscillator_strength_2> 
0.0044 
 
>  <oscillator_strength_3> 
0.0016 
 
>  <oscillator_strength_4> 
0.0066 
 
>  <open_babel_can_smiles> 
CC[C@@H](c1ccccc1)N(=O)=O 
 
>  <mulliken_charges> 
23 
1   -0.455355 
2   -0.26074 
3   -0.123679 
4   -0.129648 
5   -0.128453 
6   -0.173231 
7   -0.178425 
8   0.159501 
9   -0.09854 
10   0.461155 
11   -0.375138 
12   -0.379023 
13   0.157543 
14   0.147698 
15   0.164505 
16   0.155474 
17   0.171186 
18   0.137403 
19   0.139377 
20   0.137849 
21   0.160769 
22   0.136901 
23   0.172872 
 
>  <lowdin_charges> 
23 
1   -0.445331 
2   -0.27517 
3   -0.148828 
4   -0.148698 
5   -0.153555 
6   -0.157728 
7   -0.156518 
8   -0.018097 
9   -0.074539 
10   0.293975 
11   -0.237699 
12   -0.247927 
13   0.159421 
14   0.149181 
15   0.159434 
16   0.155732 
17   0.160767 
18   0.162047 
19   0.161538 
20   0.162657 
21   0.171456 
22   0.159626 
23   0.168254 
 
$$$$ 
 
