PCCDB-ID:  42094 
public computational chemistry database (PCCDB) project, http://pccdb.org 
 
 35 34  0  0  1  0  0  0  0  0999 V2000 
    5.5060    0.1174    3.6836 C   0  0  0  0  0  0  0  0  0  0  0  0 
    6.1533   -6.0454    3.4754 C   0  0  0  0  0  0  0  0  0  0  0  0 
    0.3923   -3.7844    0.5356 C   0  0  0  0  0  0  0  0  0  0  0  0 
    6.4868   -0.1420    2.5329 C   0  0  0  0  0  0  0  0  0  0  0  0 
    5.8204   -5.4029    2.1250 C   0  0  0  0  0  0  0  0  0  0  0  0 
    6.3516   -1.5266    1.8789 C   0  0  0  0  0  0  0  0  0  0  0  0 
    4.4554   -4.7015    2.1320 C   0  0  0  0  0  0  0  0  0  0  0  0 
    5.0099   -1.7191    1.1551 C   0  0  0  0  0  0  0  0  0  0  0  0 
    1.7427   -4.4591    0.5069 C   0  0  0  0  0  0  0  0  0  0  0  0 
    4.0922   -4.0797    0.7841 C   0  0  2  0  0  0  0  0  0  0  0  0 
    5.4075   -3.0506   -0.8698 N   0  0  0  0  0  0  0  0  0  0  0  0 
    4.9261   -2.9699    0.3922 N   0  0  0  0  0  0  0  0  0  0  0  0 
    1.9460   -5.6216    0.2367 O   0  0  0  0  0  0  0  0  0  0  0  0 
    6.0235   -2.0633   -1.2475 O   0  0  0  0  0  0  0  0  0  0  0  0 
    2.7260   -3.5772    0.8277 O   0  0  0  0  0  0  0  0  0  0  0  0 
    5.6985    1.0893    4.1512 H   0  0  0  0  0  0  0  0  0  0  0  0 
    5.5994   -0.6496    4.4629 H   0  0  0  0  0  0  0  0  0  0  0  0 
    4.4635    0.1212    3.3444 H   0  0  0  0  0  0  0  0  0  0  0  0 
    7.1283   -6.5436    3.4455 H   0  0  0  0  0  0  0  0  0  0  0  0 
    5.4033   -6.7953    3.7543 H   0  0  0  0  0  0  0  0  0  0  0  0 
    6.1863   -5.2959    4.2758 H   0  0  0  0  0  0  0  0  0  0  0  0 
    0.2163   -3.3296    1.5157 H   0  0  0  0  0  0  0  0  0  0  0  0 
   -0.3841   -4.5191    0.3202 H   0  0  0  0  0  0  0  0  0  0  0  0 
    0.3603   -2.9818   -0.2087 H   0  0  0  0  0  0  0  0  0  0  0  0 
    7.5132   -0.0389    2.9074 H   0  0  0  0  0  0  0  0  0  0  0  0 
    6.3660    0.6330    1.7634 H   0  0  0  0  0  0  0  0  0  0  0  0 
    5.8234   -6.1721    1.3411 H   0  0  0  0  0  0  0  0  0  0  0  0 
    6.6049   -4.6859    1.8533 H   0  0  0  0  0  0  0  0  0  0  0  0 
    6.4746   -2.3071    2.6418 H   0  0  0  0  0  0  0  0  0  0  0  0 
    7.1547   -1.6623    1.1472 H   0  0  0  0  0  0  0  0  0  0  0  0 
    4.4201   -3.9316    2.9141 H   0  0  0  0  0  0  0  0  0  0  0  0 
    3.6718   -5.4307    2.3668 H   0  0  0  0  0  0  0  0  0  0  0  0 
    4.8681   -0.9078    0.4325 H   0  0  0  0  0  0  0  0  0  0  0  0 
    4.1661   -1.7120    1.8482 H   0  0  0  0  0  0  0  0  0  0  0  0 
    4.1650   -4.8180   -0.0162 H   0  0  0  0  0  0  0  0  0  0  0  0 
  1 16  1  0  0  0  0 
  1 17  1  0  0  0  0 
  2 20  1  0  0  0  0 
  2 21  1  0  0  0  0 
  3 22  1  0  0  0  0 
  4 25  1  0  0  0  0 
  4  1  1  0  0  0  0 
  5  7  1  0  0  0  0 
  5  2  1  0  0  0  0 
  6  4  1  0  0  0  0 
  6 29  1  0  0  0  0 
  7 32  1  0  0  0  0 
  7 31  1  0  0  0  0 
  8 34  1  0  0  0  0 
  8  6  1  0  0  0  0 
  9  3  1  0  0  0  0 
  9 15  1  0  0  0  0 
 10 35  1  6  0  0  0 
 10 15  1  0  0  0  0 
 10  7  1  0  0  0  0 
 11 12  1  0  0  0  0 
 12 10  1  0  0  0  0 
 12  8  1  0  0  0  0 
 13  9  2  0  0  0  0 
 14 11  1  0  0  0  0 
 18  1  1  0  0  0  0 
 19  2  1  0  0  0  0 
 23  3  1  0  0  0  0 
 24  3  1  0  0  0  0 
 26  4  1  0  0  0  0 
 27  5  1  0  0  0  0 
 28  5  1  0  0  0  0 
 30  6  1  0  0  0  0 
 33  8  1  0  0  0  0 
M  RAD  2  11   2  14   2 
M  END 
>  <HBA> 
5 
 
>  <HBD> 
0 
 
>  <TPSA> 
58.97 
 
>  <cid> 
42094 
 
>  <dipole> 
4.15 
 
>  <excitation_energy_1> 
3.311 
 
>  <excitation_energy_2> 
5.662 
 
>  <excitation_energy_3> 
5.722 
 
>  <excitation_energy_4> 
5.828 
 
>  <homo_energy> 
-6.264 
 
>  <homo_lumo_gap> 
5.173 
 
>  <logP> 
2.459 
 
>  <lumo_energy> 
-1.091 
 
>  <melting_point> 
4.91 
 
>  <molecular_refractivity> 
59.1 
 
>  <oscillator_strength_1> 
0.001 
 
>  <oscillator_strength_2> 
0.0083 
 
>  <oscillator_strength_3> 
0.0579 
 
>  <oscillator_strength_4> 
0.0605 
 
>  <open_babel_can_smiles> 
CCCCN([C@H](OC(=O)C)CCC)[N][O] 
 
>  <mulliken_charges> 
35 
1   -0.448836 
2   -0.44522 
3   -0.525508 
4   -0.257772 
5   -0.264951 
6   -0.262809 
7   -0.279161 
8   -0.151892 
9   0.611457 
10   0.23619 
11   0.161734 
12   -0.239349 
13   -0.464236 
14   -0.36823 
15   -0.47438 
16   0.149955 
17   0.142113 
18   0.145384 
19   0.150639 
20   0.149146 
21   0.142362 
22   0.181706 
23   0.186866 
24   0.18828 
25   0.141102 
26   0.142779 
27   0.149675 
28   0.150446 
29   0.137467 
30   0.165478 
31   0.141496 
32   0.166371 
33   0.177396 
34   0.16962 
35   0.194683 
 
>  <lowdin_charges> 
35 
1   -0.447555 
2   -0.443653 
3   -0.46365 
4   -0.272568 
5   -0.27698 
6   -0.285394 
7   -0.292652 
8   -0.21822 
9   0.202098 
10   0.052595 
11   0.061887 
12   -0.039699 
13   -0.259077 
14   -0.25479 
15   -0.20851 
16   0.153774 
17   0.146921 
18   0.145011 
19   0.154027 
20   0.150991 
21   0.147192 
22   0.177536 
23   0.178919 
24   0.181954 
25   0.147031 
26   0.145931 
27   0.14985 
28   0.147743 
29   0.142107 
30   0.160542 
31   0.148016 
32   0.164213 
33   0.167798 
34   0.161171 
35   0.175442 
 
$$$$ 
 
