PCCDB-ID:  14499 
public computational chemistry database (PCCDB) project, http://pccdb.org 
 
 19 19  0  0  1  0  0  0  0  0999 V2000 
    3.3616    0.6209    0.6132 C   0  0  0  0  0  0  0  0  0  0  0  0 
    0.8068   -2.4685   -1.5022 C   0  0  0  0  0  0  0  0  0  0  0  0 
    2.6869   -2.6506   -3.2178 C   0  0  0  0  0  0  0  0  0  0  0  0 
    2.3131    0.1250   -0.3917 C   0  0  0  0  0  0  0  0  0  0  0  0 
    2.8986   -0.8864   -1.3516 C   0  0  2  0  0  0  0  0  0  0  0  0 
    2.2221   -2.0878   -1.8880 C   0  0  0  0  0  0  0  0  0  0  0  0 
    3.2018   -2.1947   -0.8302 O   0  0  0  0  0  0  0  0  0  0  0  0 
    2.9325    1.3574    1.3012 H   0  0  0  0  0  0  0  0  0  0  0  0 
    4.2096    1.0935    0.1026 H   0  0  0  0  0  0  0  0  0  0  0  0 
    3.7503   -0.2149    1.2044 H   0  0  0  0  0  0  0  0  0  0  0  0 
    0.0856   -2.0736   -2.2282 H   0  0  0  0  0  0  0  0  0  0  0  0 
    0.5388   -2.1006   -0.5097 H   0  0  0  0  0  0  0  0  0  0  0  0 
    0.7064   -3.5605   -1.4922 H   0  0  0  0  0  0  0  0  0  0  0  0 
    2.0529   -2.2936   -4.0386 H   0  0  0  0  0  0  0  0  0  0  0  0 
    2.6367   -3.7462   -3.2073 H   0  0  0  0  0  0  0  0  0  0  0  0 
    3.7213   -2.3602   -3.4244 H   0  0  0  0  0  0  0  0  0  0  0  0 
    1.9224    0.9714   -0.9744 H   0  0  0  0  0  0  0  0  0  0  0  0 
    1.4652   -0.3089    0.1479 H   0  0  0  0  0  0  0  0  0  0  0  0 
    3.7070   -0.4779   -1.9681 H   0  0  0  0  0  0  0  0  0  0  0  0 
  1 10  1  0  0  0  0 
  1  8  1  0  0  0  0 
  2 13  1  0  0  0  0 
  2 12  1  0  0  0  0 
  3 15  1  0  0  0  0 
  3  6  1  0  0  0  0 
  4 18  1  0  0  0  0 
  4  1  1  0  0  0  0 
  5 19  1  6  0  0  0 
  5  7  1  0  0  0  0 
  5  4  1  0  0  0  0 
  6  2  1  0  0  0  0 
  6  5  1  0  0  0  0 
  6  7  1  0  0  0  0 
  9  1  1  0  0  0  0 
 11  2  1  0  0  0  0 
 14  3  1  0  0  0  0 
 16  3  1  0  0  0  0 
 17  4  1  0  0  0  0 
M  END 
>  <HBA> 
1 
 
>  <HBD> 
0 
 
>  <TPSA> 
12.53 
 
>  <cid> 
14499 
 
>  <dipole> 
1.86 
 
>  <excitation_energy_1> 
6.646 
 
>  <excitation_energy_2> 
7.044 
 
>  <excitation_energy_3> 
7.111 
 
>  <excitation_energy_4> 
7.205 
 
>  <homo_energy> 
-6.895 
 
>  <homo_lumo_gap> 
9.415 
 
>  <logP> 
1.574 
 
>  <lumo_energy> 
2.52 
 
>  <melting_point> 
-1.91 
 
>  <molecular_refractivity> 
29.96 
 
>  <oscillator_strength_1> 
0.0172 
 
>  <oscillator_strength_2> 
0.0095 
 
>  <oscillator_strength_3> 
0.0184 
 
>  <oscillator_strength_4> 
0.0233 
 
>  <open_babel_can_smiles> 
CC[C@H]1OC1(C)C 
 
>  <mulliken_charges> 
19 
1   -0.447144 
2   -0.47779 
3   -0.474919 
4   -0.276056 
5   0.073715 
6   0.312742 
7   -0.483247 
8   0.143743 
9   0.142539 
10   0.166136 
11   0.147134 
12   0.159587 
13   0.154422 
14   0.145757 
15   0.153536 
16   0.157134 
17   0.135849 
18   0.143263 
19   0.123599 
 
>  <lowdin_charges> 
19 
1   -0.445981 
2   -0.445998 
3   -0.443461 
4   -0.280894 
5   -0.029868 
6   0.109561 
7   -0.303169 
8   0.151637 
9   0.148016 
10   0.159591 
11   0.156279 
12   0.159668 
13   0.156087 
14   0.154976 
15   0.154386 
16   0.158814 
17   0.148338 
18   0.150918 
19   0.1411 
 
$$$$ 
 
