PCCDB-ID:  61167 
public computational chemistry database (PCCDB) project, http://pccdb.org 
 
 24 24  0  0  0  0  0  0  0  0999 V2000 
    2.0498   -2.3922    2.0057 C   0  0  0  0  0  0  0  0  0  0  0  0 
    1.3080   -1.8777    0.7675 C   0  0  0  0  0  0  0  0  0  0  0  0 
    7.9707   -2.4648    0.1769 C   0  0  0  0  0  0  0  0  0  0  0  0 
    1.9812   -2.2669   -0.5535 C   0  0  0  0  0  0  0  0  0  0  0  0 
    6.9158   -1.5535   -0.1483 C   0  0  0  0  0  0  0  0  0  0  0  0 
    7.9904   -3.3895   -0.8229 C   0  0  0  0  0  0  0  0  0  0  0  0 
    5.2483   -1.5109   -2.1668 C   0  0  0  0  0  0  0  0  0  0  0  0 
    6.3719   -1.9890   -1.3224 C   0  0  0  0  0  0  0  0  0  0  0  0 
    3.2963   -1.5485   -0.7967 C   0  0  0  0  0  0  0  0  0  0  0  0 
    3.6865   -0.5712   -0.1923 O   0  0  0  0  0  0  0  0  0  0  0  0 
    7.0260   -3.1196   -1.7441 O   0  0  0  0  0  0  0  0  0  0  0  0 
    3.9752   -2.1266   -1.8158 O   0  0  0  0  0  0  0  0  0  0  0  0 
    1.5178   -2.1169    2.9232 H   0  0  0  0  0  0  0  0  0  0  0  0 
    3.0572   -1.9680    2.0623 H   0  0  0  0  0  0  0  0  0  0  0  0 
    2.1402   -3.4857    1.9887 H   0  0  0  0  0  0  0  0  0  0  0  0 
    1.2277   -0.7858    0.8138 H   0  0  0  0  0  0  0  0  0  0  0  0 
    0.2843   -2.2728    0.7601 H   0  0  0  0  0  0  0  0  0  0  0  0 
    8.6264   -2.4312    1.0360 H   0  0  0  0  0  0  0  0  0  0  0  0 
    1.3293   -2.0296   -1.4059 H   0  0  0  0  0  0  0  0  0  0  0  0 
    2.1630   -3.3471   -0.6100 H   0  0  0  0  0  0  0  0  0  0  0  0 
    6.5865   -0.6926    0.4159 H   0  0  0  0  0  0  0  0  0  0  0  0 
    8.6007   -4.2570   -1.0240 H   0  0  0  0  0  0  0  0  0  0  0  0 
    5.4045   -1.7949   -3.2089 H   0  0  0  0  0  0  0  0  0  0  0  0 
    5.1467   -0.4279   -2.0820 H   0  0  0  0  0  0  0  0  0  0  0  0 
  1 14  1  0  0  0  0 
  1 13  1  0  0  0  0 
  2 16  1  0  0  0  0 
  2  1  1  0  0  0  0 
  3 18  1  0  0  0  0 
  4  2  1  0  0  0  0 
  5  3  1  0  0  0  0 
  5 21  1  0  0  0  0 
  6  3  2  0  0  0  0 
  7 24  1  0  0  0  0 
  7 12  1  0  0  0  0 
  7  8  1  0  0  0  0 
  8  5  2  0  0  0  0 
  9  4  1  0  0  0  0 
  9 10  2  0  0  0  0 
 11  8  1  0  0  0  0 
 11  6  1  0  0  0  0 
 12  9  1  0  0  0  0 
 15  1  1  0  0  0  0 
 17  2  1  0  0  0  0 
 19  4  1  0  0  0  0 
 20  4  1  0  0  0  0 
 22  6  1  0  0  0  0 
 23  7  1  0  0  0  0 
M  END 
>  <HBA> 
3 
 
>  <HBD> 
0 
 
>  <TPSA> 
39.44 
 
>  <cid> 
61167 
 
>  <dipole> 
0.94 
 
>  <excitation_energy_1> 
5.533 
 
>  <excitation_energy_2> 
5.73 
 
>  <excitation_energy_3> 
5.833 
 
>  <excitation_energy_4> 
5.938 
 
>  <homo_energy> 
-6.161 
 
>  <homo_lumo_gap> 
6.231 
 
>  <logP> 
2.123 
 
>  <lumo_energy> 
0.071 
 
>  <melting_point> 
16.16 
 
>  <molecular_refractivity> 
44.19 
 
>  <oscillator_strength_1> 
0.0111 
 
>  <oscillator_strength_2> 
0.2748 
 
>  <oscillator_strength_3> 
0.0248 
 
>  <oscillator_strength_4> 
0.0024 
 
>  <open_babel_can_smiles> 
CCCC(=O)OCc1ccco1 
 
>  <mulliken_charges> 
24 
1   -0.450109 
2   -0.245102 
3   -0.183844 
4   -0.356272 
5   -0.188281 
6   0.086788 
7   -0.137643 
8   0.31923 
9   0.629292 
10   -0.483492 
11   -0.429821 
12   -0.456647 
13   0.144026 
14   0.166442 
15   0.137604 
16   0.156351 
17   0.132453 
18   0.143439 
19   0.172476 
20   0.16919 
21   0.161851 
22   0.155956 
23   0.172091 
24   0.184023 
 
>  <lowdin_charges> 
24 
1   -0.445784 
2   -0.26677 
3   -0.205672 
4   -0.301386 
5   -0.195211 
6   -0.07775 
7   -0.130606 
8   0.040943 
9   0.201738 
10   -0.272427 
11   -0.096096 
12   -0.196167 
13   0.151465 
14   0.157488 
15   0.142001 
16   0.152524 
17   0.143315 
18   0.170543 
19   0.172103 
20   0.164951 
21   0.179943 
22   0.171614 
23   0.168654 
24   0.170588 
 
$$$$ 
 
