PCCDB-ID:  56703 
public computational chemistry database (PCCDB) project, http://pccdb.org 
 
 38 37  0  0  0  0  0  0  0  0999 V2000 
    1.4702    1.4819    5.4869 C   0  0  0  0  0  0  0  0  0  0  0  0 
    1.8756    3.5936    4.1540 C   0  0  0  0  0  0  0  0  0  0  0  0 
   12.7176   -0.4144    2.9619 C   0  0  0  0  0  0  0  0  0  0  0  0 
   11.8810   -0.2297    0.5821 C   0  0  0  0  0  0  0  0  0  0  0  0 
    3.3713    1.5486    3.8476 C   0  0  0  0  0  0  0  0  0  0  0  0 
   10.5552    0.7820    2.5141 C   0  0  0  0  0  0  0  0  0  0  0  0 
    1.9544    2.0585    4.1485 C   0  0  0  0  0  0  0  0  0  0  0  0 
   11.9478    0.4547    1.9566 C   0  0  0  0  0  0  0  0  0  0  0  0 
    6.2170    2.1439    2.4439 C   0  0  0  0  0  0  0  0  0  0  0  0 
    7.4600    1.4529    1.8663 C   0  0  0  0  0  0  0  0  0  0  0  0 
    3.8124    1.9615    2.4980 N   0  0  0  0  0  0  0  0  0  0  0  0 
    9.8448    1.7441    1.6446 N   0  0  0  0  0  0  0  0  0  0  0  0 
    5.0882    1.4488    2.1967 N   0  0  0  0  0  0  0  0  0  0  0  0 
    8.5968    2.1030    2.1879 N   0  0  0  0  0  0  0  0  0  0  0  0 
    6.2713    3.2173    3.0450 O   0  0  0  0  0  0  0  0  0  0  0  0 
    7.3959    0.4337    1.1783 O   0  0  0  0  0  0  0  0  0  0  0  0 
    0.4440    1.8008    5.7015 H   0  0  0  0  0  0  0  0  0  0  0  0 
    2.1034    1.8230    6.3160 H   0  0  0  0  0  0  0  0  0  0  0  0 
    1.4870    0.3856    5.4815 H   0  0  0  0  0  0  0  0  0  0  0  0 
    0.8633    3.9285    4.4077 H   0  0  0  0  0  0  0  0  0  0  0  0 
    2.1196    4.0243    3.1759 H   0  0  0  0  0  0  0  0  0  0  0  0 
    2.5639    4.0216    4.8944 H   0  0  0  0  0  0  0  0  0  0  0  0 
   13.7303   -0.6258    2.6003 H   0  0  0  0  0  0  0  0  0  0  0  0 
   12.2144   -1.3772    3.1188 H   0  0  0  0  0  0  0  0  0  0  0  0 
   12.8055    0.0802    3.9365 H   0  0  0  0  0  0  0  0  0  0  0  0 
   12.8865   -0.4845    0.2278 H   0  0  0  0  0  0  0  0  0  0  0  0 
   11.4265    0.4141   -0.1796 H   0  0  0  0  0  0  0  0  0  0  0  0 
   11.2998   -1.1597    0.6320 H   0  0  0  0  0  0  0  0  0  0  0  0 
    3.3764    0.4528    3.8623 H   0  0  0  0  0  0  0  0  0  0  0  0 
    4.0713    1.8927    4.6265 H   0  0  0  0  0  0  0  0  0  0  0  0 
   10.6574    1.2573    3.4962 H   0  0  0  0  0  0  0  0  0  0  0  0 
    9.9747   -0.1446    2.6545 H   0  0  0  0  0  0  0  0  0  0  0  0 
    1.2990    1.6840    3.3499 H   0  0  0  0  0  0  0  0  0  0  0  0 
   12.4815    1.4083    1.8400 H   0  0  0  0  0  0  0  0  0  0  0  0 
    3.9272    2.9756    2.4903 H   0  0  0  0  0  0  0  0  0  0  0  0 
    9.6248    1.2838    0.7606 H   0  0  0  0  0  0  0  0  0  0  0  0 
    5.1398    0.6574    1.5661 H   0  0  0  0  0  0  0  0  0  0  0  0 
    8.5210    3.0117    2.6299 H   0  0  0  0  0  0  0  0  0  0  0  0 
  1 17  1  0  0  0  0 
  1 18  1  0  0  0  0 
  2 20  1  0  0  0  0 
  2 22  1  0  0  0  0 
  3 24  1  0  0  0  0 
  3 25  1  0  0  0  0 
  4 28  1  0  0  0  0 
  4  8  1  0  0  0  0 
  5 29  1  0  0  0  0 
  5  7  1  0  0  0  0 
  5 30  1  0  0  0  0 
  6 32  1  0  0  0  0 
  6 31  1  0  0  0  0 
  7  2  1  0  0  0  0 
  7  1  1  0  0  0  0 
  8  6  1  0  0  0  0 
  8  3  1  0  0  0  0 
  9 15  2  0  0  0  0 
 10 14  1  0  0  0  0 
 10  9  1  0  0  0  0 
 11  5  1  0  0  0  0 
 12 14  1  0  0  0  0 
 12  6  1  0  0  0  0 
 13  9  1  0  0  0  0 
 13 11  1  0  0  0  0 
 14 38  1  0  0  0  0 
 16 10  2  0  0  0  0 
 19  1  1  0  0  0  0 
 21  2  1  0  0  0  0 
 23  3  1  0  0  0  0 
 26  4  1  0  0  0  0 
 27  4  1  0  0  0  0 
 33  7  1  0  0  0  0 
 34  8  1  0  0  0  0 
 35 11  1  0  0  0  0 
 36 12  1  0  0  0  0 
 37 13  1  0  0  0  0 
M  END 
>  <HBA> 
6 
 
>  <HBD> 
4 
 
>  <TPSA> 
82.26 
 
>  <cid> 
56703 
 
>  <dipole> 
1.1 
 
>  <excitation_energy_1> 
4.131 
 
>  <excitation_energy_2> 
4.767 
 
>  <excitation_energy_3> 
4.863 
 
>  <excitation_energy_4> 
5.87 
 
>  <homo_energy> 
-6.316 
 
>  <homo_lumo_gap> 
5.298 
 
>  <logP> 
1.104 
 
>  <lumo_energy> 
-1.018 
 
>  <melting_point> 
122.28 
 
>  <molecular_refractivity> 
61.79 
 
>  <oscillator_strength_1> 
0.0005 
 
>  <oscillator_strength_2> 
0.1788 
 
>  <oscillator_strength_3> 
0.0014 
 
>  <oscillator_strength_4> 
0.0003 
 
>  <open_babel_can_smiles> 
CC(CNNC(=O)C(=O)NNCC(C)C)C 
 
>  <mulliken_charges> 
38 
1   -0.446479 
2   -0.45893 
3   -0.446809 
4   -0.458743 
5   -0.1106 
6   -0.110853 
7   -0.078096 
8   -0.077764 
9   0.557304 
10   0.556941 
11   -0.43719 
12   -0.437009 
13   -0.472671 
14   -0.472583 
15   -0.548965 
16   -0.548726 
17   0.146037 
18   0.143831 
19   0.143251 
20   0.147314 
21   0.147303 
22   0.148857 
23   0.146077 
24   0.143843 
25   0.143274 
26   0.147303 
27   0.147369 
28   0.148567 
29   0.143838 
30   0.140541 
31   0.143978 
32   0.140501 
33   0.139185 
34   0.139238 
35   0.330787 
36   0.330729 
37   0.364626 
38   0.364723 
 
>  <lowdin_charges> 
38 
1   -0.44095 
2   -0.45056 
3   -0.441794 
4   -0.450709 
5   -0.20713 
6   -0.208458 
7   -0.125966 
8   -0.125237 
9   0.113991 
10   0.114242 
11   -0.276455 
12   -0.278101 
13   -0.184286 
14   -0.184109 
15   -0.322369 
16   -0.322382 
17   0.150869 
18   0.148739 
19   0.147242 
20   0.15243 
21   0.149105 
22   0.151489 
23   0.151032 
24   0.147739 
25   0.14891 
26   0.152522 
27   0.150534 
28   0.150213 
29   0.144154 
30   0.135848 
31   0.146159 
32   0.134923 
33   0.145752 
34   0.144665 
35   0.264178 
36   0.266776 
37   0.303892 
38   0.303102 
 
$$$$ 
 
