PCCDB-ID:  10550 
public computational chemistry database (PCCDB) project, http://pccdb.org 
 
 29 30  0  0  1  0  0  0  0  0999 V2000 
    1.7891    0.1521    1.6060 C   0  0  0  0  0  0  0  0  0  0  0  0 
    1.0727    0.7089   -0.7397 C   0  0  0  0  0  0  0  0  0  0  0  0 
    3.5865    4.6991    2.3757 C   0  0  0  0  0  0  0  0  0  0  0  0 
    3.3856    2.6359   -0.9257 C   0  0  0  0  0  0  0  0  0  0  0  0 
    4.6604    1.3444    0.8834 C   0  0  0  0  0  0  0  0  0  0  0  0 
    2.2793    0.4724    0.1816 C   0  0  0  0  0  0  0  0  0  0  0  0 
    4.0881    3.6767    1.3542 C   0  0  2  0  0  0  0  0  0  0  0  0 
    2.9864    3.0780    0.4613 C   0  0  2  0  0  0  0  0  0  0  0  0 
    4.7834    2.4317    1.9745 C   0  0  1  0  0  0  0  0  0  0  0  0 
    3.3104    1.6092    0.1804 C   0  0  2  0  0  0  0  0  0  0  0  0 
    4.1758    2.0200    3.1993 O   0  0  0  0  0  0  0  0  0  0  0  0 
    1.1205   -0.7167    1.6039 H   0  0  0  0  0  0  0  0  0  0  0  0 
    1.2218    0.9978    2.0190 H   0  0  0  0  0  0  0  0  0  0  0  0 
    2.6157   -0.0744    2.2881 H   0  0  0  0  0  0  0  0  0  0  0  0 
    0.3714   -0.1292   -0.6615 H   0  0  0  0  0  0  0  0  0  0  0  0 
    1.3687    0.7966   -1.7897 H   0  0  0  0  0  0  0  0  0  0  0  0 
    0.5263    1.6193   -0.4618 H   0  0  0  0  0  0  0  0  0  0  0  0 
    3.1471    5.5657    1.8681 H   0  0  0  0  0  0  0  0  0  0  0  0 
    4.4044    5.0568    3.0107 H   0  0  0  0  0  0  0  0  0  0  0  0 
    2.8237    4.2739    3.0364 H   0  0  0  0  0  0  0  0  0  0  0  0 
    4.3698    2.9288   -1.2901 H   0  0  0  0  0  0  0  0  0  0  0  0 
    2.6185    2.6380   -1.6950 H   0  0  0  0  0  0  0  0  0  0  0  0 
    4.7146    0.3494    1.3364 H   0  0  0  0  0  0  0  0  0  0  0  0 
    5.4946    1.4199    0.1735 H   0  0  0  0  0  0  0  0  0  0  0  0 
    2.8029   -0.4212   -0.1923 H   0  0  0  0  0  0  0  0  0  0  0  0 
    4.8293    4.1779    0.7135 H   0  0  0  0  0  0  0  0  0  0  0  0 
    1.9608    3.4115    0.6103 H   0  0  0  0  0  0  0  0  0  0  0  0 
    5.8248    2.6354    2.2454 H   0  0  0  0  0  0  0  0  0  0  0  0 
    3.2360    1.8585    3.0168 H   0  0  0  0  0  0  0  0  0  0  0  0 
  1 13  1  0  0  0  0 
  1 14  1  0  0  0  0 
  2 15  1  0  0  0  0 
  2 17  1  0  0  0  0 
  2  6  1  0  0  0  0 
  3 19  1  0  0  0  0 
  3 20  1  0  0  0  0 
  4 10  1  0  0  0  0 
  4  8  1  0  0  0  0 
  5 23  1  0  0  0  0 
  5  9  1  0  0  0  0 
  6  1  1  0  0  0  0 
  7 26  1  6  0  0  0 
  7  9  1  0  0  0  0 
  7  3  1  0  0  0  0 
  8 27  1  1  0  0  0 
  8  7  1  0  0  0  0 
  9 28  1  1  0  0  0 
  9 11  1  0  0  0  0 
 10  6  1  1  0  0  0 
 10  8  1  0  0  0  0 
 10  5  1  0  0  0  0 
 12  1  1  0  0  0  0 
 16  2  1  0  0  0  0 
 18  3  1  0  0  0  0 
 21  4  1  0  0  0  0 
 22  4  1  0  0  0  0 
 24  5  1  0  0  0  0 
 25  6  1  0  0  0  0 
 29 11  1  0  0  0  0 
M  END 
>  <HBA> 
1 
 
>  <HBD> 
1 
 
>  <TPSA> 
20.23 
 
>  <cid> 
10550 
 
>  <dipole> 
1.75 
 
>  <excitation_energy_1> 
6.418 
 
>  <excitation_energy_2> 
6.49 
 
>  <excitation_energy_3> 
6.68 
 
>  <excitation_energy_4> 
6.749 
 
>  <homo_energy> 
-6.852 
 
>  <homo_lumo_gap> 
8.811 
 
>  <logP> 
2.049 
 
>  <lumo_energy> 
1.959 
 
>  <melting_point> 
53.24 
 
>  <molecular_refractivity> 
46.86 
 
>  <oscillator_strength_1> 
0.0095 
 
>  <oscillator_strength_2> 
0.0037 
 
>  <oscillator_strength_3> 
0.0047 
 
>  <oscillator_strength_4> 
0.0234 
 
>  <open_babel_can_smiles> 
O[C@H]1C[C@]2([C@@H]([C@H]1C)C2)C(C)C 
 
>  <mulliken_charges> 
29 
1   -0.472108 
2   -0.460423 
3   -0.441751 
4   -0.339282 
5   -0.330413 
6   -0.089455 
7   -0.104265 
8   -0.158943 
9   0.136003 
10   0.107706 
11   -0.631904 
12   0.145473 
13   0.136443 
14   0.156062 
15   0.143708 
16   0.149174 
17   0.142588 
18   0.140281 
19   0.147893 
20   0.138768 
21   0.140517 
22   0.146949 
23   0.151396 
24   0.136438 
25   0.128643 
26   0.125424 
27   0.131916 
28   0.127199 
29   0.395961 
 
>  <lowdin_charges> 
29 
1   -0.457615 
2   -0.445917 
3   -0.443596 
4   -0.313723 
5   -0.295991 
6   -0.115172 
7   -0.141643 
8   -0.176009 
9   -0.000471 
10   -0.020986 
11   -0.460007 
12   0.151836 
13   0.143218 
14   0.15289 
15   0.152072 
16   0.149964 
17   0.146544 
18   0.149122 
19   0.155205 
20   0.147463 
21   0.150617 
22   0.159573 
23   0.154173 
24   0.148546 
25   0.142369 
26   0.143012 
27   0.148822 
28   0.138391 
29   0.337311 
 
$$$$ 
 
