PCCDB-ID:  37196 
public computational chemistry database (PCCDB) project, http://pccdb.org 
 
 40 39  0  0  0  0  0  0  0  0999 V2000 
   11.3109    0.5078   -3.8270 C   0  0  0  0  0  0  0  0  0  0  0  0 
    7.0929   -5.6959   -1.2693 C   0  0  0  0  0  0  0  0  0  0  0  0 
   10.2154    0.2194   -2.7953 C   0  0  0  0  0  0  0  0  0  0  0  0 
   10.7532    0.1491   -1.3593 C   0  0  0  0  0  0  0  0  0  0  0  0 
    9.6870   -0.0715   -0.2734 C   0  0  0  0  0  0  0  0  0  0  0  0 
    8.9913   -1.4401   -0.3071 C   0  0  0  0  0  0  0  0  0  0  0  0 
    7.9792   -1.6115    0.8354 C   0  0  0  0  0  0  0  0  0  0  0  0 
    7.1956   -2.9337    0.8231 C   0  0  0  0  0  0  0  0  0  0  0  0 
    8.0604   -4.1800    1.1045 C   0  0  0  0  0  0  0  0  0  0  0  0 
    5.9140   -7.2560    0.2660 C   0  0  0  0  0  0  0  0  0  0  0  0 
    6.6526   -8.5650    0.5584 C   0  0  0  0  0  0  0  0  0  0  0  0 
    7.2118   -5.4426    1.2390 C   0  0  0  0  0  0  0  0  0  0  0  0 
    6.8406   -6.1261    0.1018 N   0  0  0  0  0  0  0  0  0  0  0  0 
    7.6056   -8.8815   -0.4538 O   0  0  0  0  0  0  0  0  0  0  0  0 
    6.8504   -5.8286    2.3492 O   0  0  0  0  0  0  0  0  0  0  0  0 
   10.9022    0.5588   -4.8427 H   0  0  0  0  0  0  0  0  0  0  0  0 
   12.0831   -0.2717   -3.8191 H   0  0  0  0  0  0  0  0  0  0  0  0 
   11.8069    1.4637   -3.6183 H   0  0  0  0  0  0  0  0  0  0  0  0 
    7.3213   -6.5725   -1.8826 H   0  0  0  0  0  0  0  0  0  0  0  0 
    7.9415   -5.0136   -1.3176 H   0  0  0  0  0  0  0  0  0  0  0  0 
    6.2185   -5.1902   -1.7049 H   0  0  0  0  0  0  0  0  0  0  0  0 
    9.7135   -0.7222   -3.0548 H   0  0  0  0  0  0  0  0  0  0  0  0 
    9.4443    1.0016   -2.8536 H   0  0  0  0  0  0  0  0  0  0  0  0 
   11.2848    1.0854   -1.1376 H   0  0  0  0  0  0  0  0  0  0  0  0 
   11.5089   -0.6489   -1.2961 H   0  0  0  0  0  0  0  0  0  0  0  0 
    8.9249    0.7188   -0.3473 H   0  0  0  0  0  0  0  0  0  0  0  0 
   10.1604    0.0558    0.7106 H   0  0  0  0  0  0  0  0  0  0  0  0 
    9.7569   -2.2282   -0.2575 H   0  0  0  0  0  0  0  0  0  0  0  0 
    8.4745   -1.5752   -1.2681 H   0  0  0  0  0  0  0  0  0  0  0  0 
    7.2560   -0.7850    0.7917 H   0  0  0  0  0  0  0  0  0  0  0  0 
    8.4999   -1.5088    1.7987 H   0  0  0  0  0  0  0  0  0  0  0  0 
    6.6844   -3.0434   -0.1438 H   0  0  0  0  0  0  0  0  0  0  0  0 
    6.4084   -2.8917    1.5861 H   0  0  0  0  0  0  0  0  0  0  0  0 
    8.5570   -4.0649    2.0726 H   0  0  0  0  0  0  0  0  0  0  0  0 
    8.8432   -4.2865    0.3461 H   0  0  0  0  0  0  0  0  0  0  0  0 
    5.2208   -7.0322    1.0822 H   0  0  0  0  0  0  0  0  0  0  0  0 
    5.3459   -7.3575   -0.6643 H   0  0  0  0  0  0  0  0  0  0  0  0 
    5.9358   -9.3930    0.5748 H   0  0  0  0  0  0  0  0  0  0  0  0 
    7.1246   -8.5029    1.5475 H   0  0  0  0  0  0  0  0  0  0  0  0 
    8.3492   -8.2721   -0.3296 H   0  0  0  0  0  0  0  0  0  0  0  0 
  1 17  1  0  0  0  0 
  1 18  1  0  0  0  0 
  1  3  1  0  0  0  0 
  2 13  1  0  0  0  0 
  3  4  1  0  0  0  0 
  4 25  1  0  0  0  0 
  4 24  1  0  0  0  0 
  4  5  1  0  0  0  0 
  5 27  1  0  0  0  0 
  6  5  1  0  0  0  0 
  6 28  1  0  0  0  0 
  6  7  1  0  0  0  0 
  7 31  1  0  0  0  0 
  8  7  1  0  0  0  0 
  8  9  1  0  0  0  0 
  8 33  1  0  0  0  0 
  9 12  1  0  0  0  0 
  9 34  1  0  0  0  0 
 10 11  1  0  0  0  0 
 10 36  1  0  0  0  0 
 11 38  1  0  0  0  0 
 11 39  1  0  0  0  0 
 12 15  2  0  0  0  0 
 13 10  1  0  0  0  0 
 13 12  1  0  0  0  0 
 14 40  1  0  0  0  0 
 14 11  1  0  0  0  0 
 16  1  1  0  0  0  0 
 19  2  1  0  0  0  0 
 20  2  1  0  0  0  0 
 21  2  1  0  0  0  0 
 22  3  1  0  0  0  0 
 23  3  1  0  0  0  0 
 26  5  1  0  0  0  0 
 29  6  1  0  0  0  0 
 30  7  1  0  0  0  0 
 32  8  1  0  0  0  0 
 35  9  1  0  0  0  0 
 37 10  1  0  0  0  0 
M  END 
>  <HBA> 
3 
 
>  <HBD> 
1 
 
>  <TPSA> 
40.54 
 
>  <cid> 
37196 
 
>  <dipole> 
3.26 
 
>  <excitation_energy_1> 
5.452 
 
>  <excitation_energy_2> 
5.684 
 
>  <excitation_energy_3> 
6.045 
 
>  <excitation_energy_4> 
6.14 
 
>  <homo_energy> 
-6.397 
 
>  <homo_lumo_gap> 
7.11 
 
>  <logP> 
2.188 
 
>  <lumo_energy> 
0.713 
 
>  <melting_point> 
12.1 
 
>  <molecular_refractivity> 
64.06 
 
>  <oscillator_strength_1> 
0.0005 
 
>  <oscillator_strength_2> 
0.0128 
 
>  <oscillator_strength_3> 
0.0107 
 
>  <oscillator_strength_4> 
0.0273 
 
>  <open_babel_can_smiles> 
CCCCCCCCC(=O)N(CCO)C 
 
>  <mulliken_charges> 
40 
1   -0.441559 
2   -0.328632 
3   -0.248206 
4   -0.248288 
5   -0.25486 
6   -0.259086 
7   -0.25367 
8   -0.269854 
9   -0.352444 
10   -0.14808 
11   -0.047861 
12   0.570563 
13   -0.422505 
14   -0.615694 
15   -0.520727 
16   0.141829 
17   0.141273 
18   0.142463 
19   0.175357 
20   0.165887 
21   0.15868 
22   0.131994 
23   0.130071 
24   0.12878 
25   0.125196 
26   0.127966 
27   0.129802 
28   0.128506 
29   0.130003 
30   0.133749 
31   0.134423 
32   0.133494 
33   0.155095 
34   0.168829 
35   0.143208 
36   0.172698 
37   0.145218 
38   0.146463 
39   0.156433 
40   0.393488 
 
>  <lowdin_charges> 
40 
1   -0.44366 
2   -0.361426 
3   -0.275291 
4   -0.276185 
5   -0.27478 
6   -0.280608 
7   -0.274561 
8   -0.272381 
9   -0.30569 
10   -0.213391 
11   -0.142379 
12   0.155407 
13   -0.117373 
14   -0.471805 
15   -0.322487 
16   0.148394 
17   0.146706 
18   0.146579 
19   0.162307 
20   0.16208 
21   0.148149 
22   0.138484 
23   0.139123 
24   0.141339 
25   0.137208 
26   0.138671 
27   0.141223 
28   0.136909 
29   0.137182 
30   0.144694 
31   0.141191 
32   0.139145 
33   0.15495 
34   0.167297 
35   0.147921 
36   0.168681 
37   0.150228 
38   0.149997 
39   0.14468 
40   0.343475 
 
$$$$ 
 
