PCCDB-ID:  70452 
public computational chemistry database (PCCDB) project, http://pccdb.org 
 
 19 18  0  0  0  0  0  0  0  0999 V2000 
    0.9520    0.1061    0.1575 C   0  0  0  0  0  0  0  0  0  0  0  0 
    2.8500   -1.3739   -0.6456 C   0  0  0  0  0  0  0  0  0  0  0  0 
    4.3663    1.3831   -0.8059 C   0  0  0  0  0  0  0  0  0  0  0  0 
    2.4834    1.1818   -2.2836 C   0  0  0  0  0  0  0  0  0  0  0  0 
    2.4626    0.0149   -0.0969 C   0  0  0  0  0  0  0  0  0  0  0  0 
    2.9318    1.1617   -0.8983 N   0  0  0  0  0  0  0  0  0  0  0  0 
    0.6463   -0.6424    0.8974 H   0  0  0  0  0  0  0  0  0  0  0  0 
    0.3689   -0.0808   -0.7517 H   0  0  0  0  0  0  0  0  0  0  0  0 
    0.6890    1.0991    0.5354 H   0  0  0  0  0  0  0  0  0  0  0  0 
    2.5881   -2.1555    0.0770 H   0  0  0  0  0  0  0  0  0  0  0  0 
    3.9260   -1.4489   -0.8386 H   0  0  0  0  0  0  0  0  0  0  0  0 
    2.3226   -1.5988   -1.5801 H   0  0  0  0  0  0  0  0  0  0  0  0 
    4.6157    2.3422   -1.2752 H   0  0  0  0  0  0  0  0  0  0  0  0 
    4.9830    0.6053   -1.2980 H   0  0  0  0  0  0  0  0  0  0  0  0 
    4.6666    1.4354    0.2467 H   0  0  0  0  0  0  0  0  0  0  0  0 
    2.7442    2.1493   -2.7285 H   0  0  0  0  0  0  0  0  0  0  0  0 
    1.3958    1.0779   -2.3363 H   0  0  0  0  0  0  0  0  0  0  0  0 
    2.9346    0.3939   -2.9167 H   0  0  0  0  0  0  0  0  0  0  0  0 
    2.9571    0.1342    0.8771 H   0  0  0  0  0  0  0  0  0  0  0  0 
  1  9  1  0  0  0  0 
  1  7  1  0  0  0  0 
  2  5  1  0  0  0  0 
  2 10  1  0  0  0  0 
  3 15  1  0  0  0  0 
  4  6  1  0  0  0  0 
  5  1  1  0  0  0  0 
  5 19  1  0  0  0  0 
  6  3  1  0  0  0  0 
  6  5  1  0  0  0  0 
  8  1  1  0  0  0  0 
 11  2  1  0  0  0  0 
 12  2  1  0  0  0  0 
 13  3  1  0  0  0  0 
 14  3  1  0  0  0  0 
 16  4  1  0  0  0  0 
 17  4  1  0  0  0  0 
 18  4  1  0  0  0  0 
M  END 
>  <HBA> 
1 
 
>  <HBD> 
0 
 
>  <TPSA> 
3.24 
 
>  <cid> 
70452 
 
>  <dipole> 
0.55 
 
>  <excitation_energy_1> 
4.975 
 
>  <excitation_energy_2> 
5.512 
 
>  <excitation_energy_3> 
5.554 
 
>  <excitation_energy_4> 
5.658 
 
>  <homo_energy> 
-5.426 
 
>  <homo_lumo_gap> 
7.595 
 
>  <logP> 
0.956 
 
>  <lumo_energy> 
2.169 
 
>  <melting_point> 
-23.26 
 
>  <molecular_refractivity> 
29.05 
 
>  <oscillator_strength_1> 
0.0044 
 
>  <oscillator_strength_2> 
0.0164 
 
>  <oscillator_strength_3> 
0.0066 
 
>  <oscillator_strength_4> 
0.0204 
 
>  <open_babel_can_smiles> 
CN(C(C)C)C 
 
>  <mulliken_charges> 
19 
1   -0.445872 
2   -0.455369 
3   -0.294576 
4   -0.302963 
5   0.054643 
6   -0.363508 
7   0.138848 
8   0.139762 
9   0.153998 
10   0.141126 
11   0.145598 
12   0.143416 
13   0.145211 
14   0.116877 
15   0.144593 
16   0.145894 
17   0.149284 
18   0.119193 
19   0.123845 
 
>  <lowdin_charges> 
19 
1   -0.450767 
2   -0.462942 
3   -0.356215 
4   -0.358395 
5   -0.055488 
6   -0.187114 
7   0.150975 
8   0.145633 
9   0.15568 
10   0.15237 
11   0.14812 
12   0.148123 
13   0.147882 
14   0.119306 
15   0.146313 
16   0.148861 
17   0.148155 
18   0.121462 
19   0.138041 
 
$$$$ 
 
