PCCDB-ID:  11174 
public computational chemistry database (PCCDB) project, http://pccdb.org 
 
 11 10  0  0  0  0  0  0  0  0999 V2000 
    0.6948    0.0983    0.2736 C   0  0  0  0  0  0  0  0  0  0  0  0 
    0.5748   -0.0695   -0.9876 N   0  0  0  0  0  0  0  0  0  0  0  0 
   -0.2558    0.2443    1.2502 N   0  0  0  0  0  0  0  0  0  0  0  0 
    2.0488    0.2958    0.6916 N   0  0  0  0  0  0  0  0  0  0  0  0 
    2.6127   -0.1832    1.8651 N   0  0  0  0  0  0  0  0  0  0  0  0 
    3.8272   -0.3296    1.8373 O   0  0  0  0  0  0  0  0  0  0  0  0 
    1.8811   -0.3673    2.8400 O   0  0  0  0  0  0  0  0  0  0  0  0 
   -0.4055   -0.0927   -1.2715 H   0  0  0  0  0  0  0  0  0  0  0  0 
   -1.1686   -0.1284    1.0292 H   0  0  0  0  0  0  0  0  0  0  0  0 
    0.0593    0.1035    2.2036 H   0  0  0  0  0  0  0  0  0  0  0  0 
    2.7119    0.2084   -0.0719 H   0  0  0  0  0  0  0  0  0  0  0  0 
  1  4  1  0  0  0  0 
  1  3  2  0  0  0  0 
  2  1  1  0  0  0  0 
  3 10  1  0  0  0  0 
  4  5  1  0  0  0  0 
  5  7  2  0  0  0  0 
  6  5  2  0  0  0  0 
  8  2  1  0  0  0  0 
  9  3  1  0  0  0  0 
 11  4  1  0  0  0  0 
M  RAD  1   2   2 
M  END 
>  <HBA> 
3 
 
>  <HBD> 
2 
 
>  <TPSA> 
110.22 
 
>  <cid> 
11174 
 
>  <dipole> 
3.23 
 
>  <excitation_energy_1> 
4.23 
 
>  <excitation_energy_2> 
4.534 
 
>  <excitation_energy_3> 
5.122 
 
>  <excitation_energy_4> 
5.473 
 
>  <homo_energy> 
-7.07 
 
>  <homo_lumo_gap> 
5.11 
 
>  <logP> 
0.375 
 
>  <lumo_energy> 
-1.959 
 
>  <melting_point> 
133.88 
 
>  <molecular_refractivity> 
24.13 
 
>  <oscillator_strength_1> 
0.0238 
 
>  <oscillator_strength_2> 
0.0009 
 
>  <oscillator_strength_3> 
0.0291 
 
>  <oscillator_strength_4> 
0.0161 
 
>  <open_babel_can_smiles> 
[NH]C(=[NH2])NN(=O)=O 
 
>  <mulliken_charges> 
11 
1   0.608411 
2   -0.631124 
3   -0.747648 
4   -0.424388 
5   0.626228 
6   -0.385432 
7   -0.422605 
8   0.288892 
9   0.33661 
10   0.374448 
11   0.376609 
 
>  <lowdin_charges> 
11 
1   0.131824 
2   -0.444428 
3   -0.477543 
4   -0.208539 
5   0.342502 
6   -0.23933 
7   -0.270443 
8   0.259798 
9   0.289691 
10   0.300432 
11   0.316037 
 
$$$$ 
 
