PCCDB-ID:  70964 
public computational chemistry database (PCCDB) project, http://pccdb.org 
 
 19 19  0  0  0  0  0  0  0  0999 V2000 
   -1.5026   -0.5273    0.2641 C   0  0  0  0  0  0  0  0  0  0  0  0 
   -0.6201   -1.5884    0.0783 C   0  0  0  0  0  0  0  0  0  0  0  0 
   -1.0389    0.7901    0.2217 C   0  0  0  0  0  0  0  0  0  0  0  0 
    0.7333   -1.3299   -0.1564 C   0  0  0  0  0  0  0  0  0  0  0  0 
    0.3185    1.0626    0.0168 C   0  0  0  0  0  0  0  0  0  0  0  0 
    1.2005   -0.0196   -0.1854 C   0  0  0  0  0  0  0  0  0  0  0  0 
    0.4431    3.4685    0.6557 C   0  0  0  0  0  0  0  0  0  0  0  0 
   -0.4322    3.6137    1.5733 N   0  0  0  0  0  0  0  0  0  0  0  0 
    0.8505    2.3565   -0.0588 N   0  0  0  0  0  0  0  0  0  0  0  0 
    2.5137    0.3110   -0.4197 O   0  0  0  0  0  0  0  0  0  0  0  0 
    1.1556    4.5452    0.2263 O   0  0  0  0  0  0  0  0  0  0  0  0 
   -2.5593   -0.7152    0.4290 H   0  0  0  0  0  0  0  0  0  0  0  0 
   -0.9747   -2.6143    0.1070 H   0  0  0  0  0  0  0  0  0  0  0  0 
   -1.7364    1.6152    0.3144 H   0  0  0  0  0  0  0  0  0  0  0  0 
    1.4327   -2.1496   -0.3115 H   0  0  0  0  0  0  0  0  0  0  0  0 
   -0.8364    2.7255    1.8618 H   0  0  0  0  0  0  0  0  0  0  0  0 
    1.7651    2.4323   -0.4849 H   0  0  0  0  0  0  0  0  0  0  0  0 
    3.0196   -0.4975   -0.5922 H   0  0  0  0  0  0  0  0  0  0  0  0 
    0.8686    5.2754    0.8021 H   0  0  0  0  0  0  0  0  0  0  0  0 
  1 12  1  0  0  0  0 
  2 13  1  0  0  0  0 
  2  1  2  0  0  0  0 
  3  1  1  0  0  0  0 
  3 14  1  0  0  0  0 
  4  2  1  0  0  0  0 
  5  3  2  0  0  0  0 
  6  4  2  0  0  0  0 
  6  5  1  0  0  0  0 
  7  8  2  0  0  0  0 
  8 16  1  0  0  0  0 
  9  5  1  0  0  0  0 
  9  7  1  0  0  0  0 
 10  6  1  0  0  0  0 
 11  7  1  0  0  0  0 
 11 19  1  0  0  0  0 
 15  4  1  0  0  0  0 
 17  9  1  0  0  0  0 
 18 10  1  0  0  0  0 
M  END 
>  <HBA> 
4 
 
>  <HBD> 
3 
 
>  <TPSA> 
75.35 
 
>  <cid> 
70964 
 
>  <dipole> 
3.4 
 
>  <excitation_energy_1> 
4.629 
 
>  <excitation_energy_2> 
4.823 
 
>  <excitation_energy_3> 
5.133 
 
>  <excitation_energy_4> 
5.486 
 
>  <homo_energy> 
-5.638 
 
>  <homo_lumo_gap> 
5.426 
 
>  <logP> 
1.656 
 
>  <lumo_energy> 
-0.212 
 
>  <melting_point> 
164.82 
 
>  <molecular_refractivity> 
41.07 
 
>  <oscillator_strength_1> 
0.0911 
 
>  <oscillator_strength_2> 
0.0006 
 
>  <oscillator_strength_3> 
0.1592 
 
>  <oscillator_strength_4> 
0.0019 
 
>  <open_babel_can_smiles> 
OC(=N)Nc1ccccc1O 
 
>  <mulliken_charges> 
19 
1   -0.143222 
2   -0.136082 
3   -0.196364 
4   -0.192287 
5   0.33023 
6   0.301794 
7   0.637593 
8   -0.653718 
9   -0.710697 
10   -0.662761 
11   -0.603617 
12   0.132854 
13   0.131906 
14   0.155316 
15   0.121994 
16   0.290152 
17   0.360243 
18   0.415407 
19   0.421259 
 
>  <lowdin_charges> 
19 
1   -0.164228 
2   -0.15973 
3   -0.185346 
4   -0.205737 
5   0.031103 
6   0.081243 
7   0.165847 
8   -0.483624 
9   -0.252132 
10   -0.391373 
11   -0.380953 
12   0.159411 
13   0.159536 
14   0.171361 
15   0.156564 
16   0.261779 
17   0.303287 
18   0.363958 
19   0.369032 
 
$$$$ 
 
