PCCDB-ID:  18554 
public computational chemistry database (PCCDB) project, http://pccdb.org 
 
 15 15  0  0  0  0  0  0  0  0999 V2000 
    3.3991   -0.3015   -1.1537 C   0  0  0  0  0  0  0  0  0  0  0  0 
    2.4753    0.0270    0.0328 C   0  0  0  0  0  0  0  0  0  0  0  0 
    3.5783   -1.2872    3.3472 C   0  0  0  0  0  0  0  0  0  0  0  0 
    3.3183   -0.1447    2.5177 C   0  0  0  0  0  0  0  0  0  0  0  0 
    3.2922   -2.3761    2.5854 C   0  0  0  0  0  0  0  0  0  0  0  0 
    2.8918   -0.6204    1.3122 C   0  0  0  0  0  0  0  0  0  0  0  0 
    2.8731   -1.9919    1.3434 O   0  0  0  0  0  0  0  0  0  0  0  0 
    3.0401    0.1825   -2.0688 H   0  0  0  0  0  0  0  0  0  0  0  0 
    3.4348   -1.3812   -1.3305 H   0  0  0  0  0  0  0  0  0  0  0  0 
    4.4209    0.0431   -0.9616 H   0  0  0  0  0  0  0  0  0  0  0  0 
    1.4486   -0.2772   -0.2148 H   0  0  0  0  0  0  0  0  0  0  0  0 
    2.4487    1.1099    0.1995 H   0  0  0  0  0  0  0  0  0  0  0  0 
    3.9293   -1.2902    4.3699 H   0  0  0  0  0  0  0  0  0  0  0  0 
    3.4306    0.8969    2.7864 H   0  0  0  0  0  0  0  0  0  0  0  0 
    3.3262   -3.4408    2.7592 H   0  0  0  0  0  0  0  0  0  0  0  0 
  1 10  1  0  0  0  0 
  1  2  1  0  0  0  0 
  2 12  1  0  0  0  0 
  2  6  1  0  0  0  0 
  3 13  1  0  0  0  0 
  4 14  1  0  0  0  0 
  4  3  1  0  0  0  0 
  5 15  1  0  0  0  0 
  5  3  2  0  0  0  0 
  6  7  1  0  0  0  0 
  6  4  2  0  0  0  0 
  7  5  1  0  0  0  0 
  8  1  1  0  0  0  0 
  9  1  1  0  0  0  0 
 11  2  1  0  0  0  0 
M  END 
>  <HBA> 
1 
 
>  <HBD> 
0 
 
>  <TPSA> 
13.14 
 
>  <cid> 
18554 
 
>  <dipole> 
0.5 
 
>  <excitation_energy_1> 
5.431 
 
>  <excitation_energy_2> 
5.749 
 
>  <excitation_energy_3> 
5.917 
 
>  <excitation_energy_4> 
6.154 
 
>  <homo_energy> 
-5.782 
 
>  <homo_lumo_gap> 
6.397 
 
>  <logP> 
1.842 
 
>  <lumo_energy> 
0.615 
 
>  <melting_point> 
5.72 
 
>  <molecular_refractivity> 
28.48 
 
>  <oscillator_strength_1> 
0.0305 
 
>  <oscillator_strength_2> 
0.1423 
 
>  <oscillator_strength_3> 
0.0567 
 
>  <oscillator_strength_4> 
0.0243 
 
>  <open_babel_can_smiles> 
CCc1ccco1 
 
>  <mulliken_charges> 
15 
1   -0.441853 
2   -0.337509 
3   -0.180927 
4   -0.211752 
5   0.079036 
6   0.350827 
7   -0.44022 
8   0.143979 
9   0.162143 
10   0.150975 
11   0.156625 
12   0.151099 
13   0.13669 
14   0.131821 
15   0.149065 
 
>  <lowdin_charges> 
15 
1   -0.439979 
2   -0.269561 
3   -0.204871 
4   -0.223302 
5   -0.084731 
6   0.068336 
7   -0.110658 
8   0.15063 
9   0.155114 
10   0.151248 
11   0.155877 
12   0.155932 
13   0.165816 
14   0.163756 
15   0.166393 
 
$$$$ 
 
