PCCDB-ID:  56140 
public computational chemistry database (PCCDB) project, http://pccdb.org 
 
 30 29  0  0  1  0  0  0  0  0999 V2000 
    2.4839   -1.6377   -0.2542 C   0  0  0  0  0  0  0  0  0  0  0  0 
    6.3156    0.4220   -4.5072 C   0  0  0  0  0  0  0  0  0  0  0  0 
    7.9530    0.5757   -2.7557 C   0  0  0  0  0  0  0  0  0  0  0  0 
    4.3556    1.7388   -2.4496 C   0  0  0  0  0  0  0  0  0  0  0  0 
    3.8441    0.7013   -1.4425 C   0  0  0  0  0  0  0  0  0  0  0  0 
    5.8861    1.8201   -2.5605 C   0  0  0  0  0  0  0  0  0  0  0  0 
    3.8305   -1.7651   -0.9824 C   0  0  1  0  0  0  0  0  0  0  0  0 
    3.8133   -3.0850   -1.7818 C   0  0  0  0  0  0  0  0  0  0  0  0 
    4.0829   -0.6644   -1.9279 N   0  0  0  0  0  0  0  0  0  0  0  0 
    6.5256    0.5961   -3.0700 N   0  0  0  0  0  0  0  0  0  0  0  0 
    3.9625   -4.1707   -1.2728 O   0  0  0  0  0  0  0  0  0  0  0  0 
    3.5642   -2.9120   -3.0922 O   0  0  0  0  0  0  0  0  0  0  0  0 
    2.3078   -2.5456    0.3288 H   0  0  0  0  0  0  0  0  0  0  0  0 
    1.6629   -1.5200   -0.9708 H   0  0  0  0  0  0  0  0  0  0  0  0 
    2.4752   -0.7839    0.4301 H   0  0  0  0  0  0  0  0  0  0  0  0 
    6.7823   -0.5127   -4.8335 H   0  0  0  0  0  0  0  0  0  0  0  0 
    6.7462    1.2507   -5.1009 H   0  0  0  0  0  0  0  0  0  0  0  0 
    5.2476    0.3587   -4.7317 H   0  0  0  0  0  0  0  0  0  0  0  0 
    8.3912   -0.3649   -3.1047 H   0  0  0  0  0  0  0  0  0  0  0  0 
    8.0957    0.6383   -1.6721 H   0  0  0  0  0  0  0  0  0  0  0  0 
    8.5092    1.4083   -3.2264 H   0  0  0  0  0  0  0  0  0  0  0  0 
    3.9989    2.7289   -2.1378 H   0  0  0  0  0  0  0  0  0  0  0  0 
    3.9009    1.5420   -3.4281 H   0  0  0  0  0  0  0  0  0  0  0  0 
    2.7685    0.8448   -1.2942 H   0  0  0  0  0  0  0  0  0  0  0  0 
    4.3269    0.8816   -0.4636 H   0  0  0  0  0  0  0  0  0  0  0  0 
    6.2906    2.0038   -1.5570 H   0  0  0  0  0  0  0  0  0  0  0  0 
    6.1651    2.6966   -3.1775 H   0  0  0  0  0  0  0  0  0  0  0  0 
    4.6239   -1.8630   -0.2255 H   0  0  0  0  0  0  0  0  0  0  0  0 
    5.0649   -0.6931   -2.2219 H   0  0  0  0  0  0  0  0  0  0  0  0 
    3.5099   -1.9267   -3.2008 H   0  0  0  0  0  0  0  0  0  0  0  0 
  1 13  1  0  0  0  0 
  1 15  1  0  0  0  0 
  2 10  1  0  0  0  0 
  3 20  1  0  0  0  0 
  4 22  1  0  0  0  0 
  4  5  1  0  0  0  0 
  5 24  1  0  0  0  0 
  5 25  1  0  0  0  0 
  6  4  1  0  0  0  0 
  6 26  1  0  0  0  0 
  7  1  1  0  0  0  0 
  7 28  1  1  0  0  0 
  8 11  2  0  0  0  0 
  8  7  1  0  0  0  0 
  9  5  1  0  0  0  0 
  9  7  1  0  0  0  0 
 10  3  1  0  0  0  0 
 10  6  1  0  0  0  0 
 12  8  1  0  0  0  0 
 14  1  1  0  0  0  0 
 16  2  1  0  0  0  0 
 17  2  1  0  0  0  0 
 18  2  1  0  0  0  0 
 19  3  1  0  0  0  0 
 21  3  1  0  0  0  0 
 23  4  1  0  0  0  0 
 27  6  1  0  0  0  0 
 29  9  1  0  0  0  0 
 30 12  1  0  0  0  0 
M  END 
>  <HBA> 
4 
 
>  <HBD> 
2 
 
>  <TPSA> 
52.57 
 
>  <cid> 
56140 
 
>  <dipole> 
6.34 
 
>  <excitation_energy_1> 
5.521 
 
>  <excitation_energy_2> 
5.561 
 
>  <excitation_energy_3> 
5.847 
 
>  <excitation_energy_4> 
5.943 
 
>  <homo_energy> 
-6.286 
 
>  <homo_lumo_gap> 
7.037 
 
>  <logP> 
0.392 
 
>  <lumo_energy> 
0.751 
 
>  <melting_point> 
79.08 
 
>  <molecular_refractivity> 
48.04 
 
>  <oscillator_strength_1> 
0.0078 
 
>  <oscillator_strength_2> 
0.0151 
 
>  <oscillator_strength_3> 
0.0067 
 
>  <oscillator_strength_4> 
0.0514 
 
>  <open_babel_can_smiles> 
C[C@@H](C(=O)O)NCCCN(C)C 
 
>  <mulliken_charges> 
30 
1   -0.463473 
2   -0.307509 
3   -0.29829 
4   -0.290984 
5   -0.109109 
6   -0.118058 
7   -0.034448 
8   0.588496 
9   -0.644793 
10   -0.387752 
11   -0.471612 
12   -0.582465 
13   0.181752 
14   0.156172 
15   0.154381 
16   0.161277 
17   0.128528 
18   0.160232 
19   0.158096 
20   0.154107 
21   0.126958 
22   0.143791 
23   0.150834 
24   0.150412 
25   0.118248 
26   0.13941 
27   0.121706 
28   0.148352 
29   0.349201 
30   0.416543 
 
>  <lowdin_charges> 
30 
1   -0.446769 
2   -0.361348 
3   -0.356588 
4   -0.28683 
5   -0.195265 
6   -0.2028 
7   -0.100032 
8   0.176917 
9   -0.382526 
10   -0.183821 
11   -0.261362 
12   -0.362701 
13   0.173075 
14   0.155832 
15   0.154948 
16   0.157152 
17   0.129008 
18   0.1522 
19   0.155239 
20   0.150186 
21   0.128002 
22   0.154681 
23   0.149695 
24   0.146441 
25   0.122519 
26   0.144763 
27   0.126233 
28   0.147524 
29   0.267522 
30   0.348104 
 
$$$$ 
 
