PCCDB-ID:  70500 
public computational chemistry database (PCCDB) project, http://pccdb.org 
 
 23 23  0  0  0  0  0  0  0  0999 V2000 
    1.0267   -0.0363   -0.3102 C   0  0  0  0  0  0  0  0  0  0  0  0 
    3.3221    0.1046   -1.3662 C   0  0  0  0  0  0  0  0  0  0  0  0 
    3.1198    1.5191    4.9938 C   0  0  0  0  0  0  0  0  0  0  0  0 
    3.0207   -1.1693    0.7732 C   0  0  0  0  0  0  0  0  0  0  0  0 
    2.8111    1.3243    0.8040 C   0  0  0  0  0  0  0  0  0  0  0  0 
    2.5390    0.0551   -0.0440 C   0  0  0  0  0  0  0  0  0  0  0  0 
    2.6971    0.7690    3.8523 O   0  0  0  0  0  0  0  0  0  0  0  0 
    2.8230   -0.9809    2.1840 O   0  0  0  0  0  0  0  0  0  0  0  0 
    3.9972    1.1746    1.6140 O   0  0  0  0  0  0  0  0  0  0  0  0 
    3.8698    0.1112    2.8838 P   0  0  0  0  0  0  0  0  0  0  0  0 
    0.7969   -0.8691   -0.9856 H   0  0  0  0  0  0  0  0  0  0  0  0 
    0.6499    0.8826   -0.7771 H   0  0  0  0  0  0  0  0  0  0  0  0 
    0.4775   -0.1927    0.6249 H   0  0  0  0  0  0  0  0  0  0  0  0 
    3.2358   -0.8409   -1.9168 H   0  0  0  0  0  0  0  0  0  0  0  0 
    4.3861    0.2934   -1.1822 H   0  0  0  0  0  0  0  0  0  0  0  0 
    2.9421    0.9014   -2.0167 H   0  0  0  0  0  0  0  0  0  0  0  0 
    2.3391    1.4252    5.7529 H   0  0  0  0  0  0  0  0  0  0  0  0 
    3.2438    2.5773    4.7355 H   0  0  0  0  0  0  0  0  0  0  0  0 
    4.0650    1.1416    5.4050 H   0  0  0  0  0  0  0  0  0  0  0  0 
    4.0806   -1.3713    0.5649 H   0  0  0  0  0  0  0  0  0  0  0  0 
    2.4546   -2.0659    0.5035 H   0  0  0  0  0  0  0  0  0  0  0  0 
    1.9593    1.5373    1.4582 H   0  0  0  0  0  0  0  0  0  0  0  0 
    2.9809    2.1956    0.1648 H   0  0  0  0  0  0  0  0  0  0  0  0 
  1  6  1  0  0  0  0 
  1 13  1  0  0  0  0 
  2 15  1  0  0  0  0 
  2  6  1  0  0  0  0 
  3 19  1  0  0  0  0 
  3 17  1  0  0  0  0 
  4  8  1  0  0  0  0 
  5 22  1  0  0  0  0 
  5  9  1  0  0  0  0 
  6  4  1  0  0  0  0 
  6  5  1  0  0  0  0 
  7  3  1  0  0  0  0 
  8 10  1  0  0  0  0 
  9 10  1  0  0  0  0 
 10  7  1  0  0  0  0 
 11  1  1  0  0  0  0 
 12  1  1  0  0  0  0 
 14  2  1  0  0  0  0 
 16  2  1  0  0  0  0 
 18  3  1  0  0  0  0 
 20  4  1  0  0  0  0 
 21  4  1  0  0  0  0 
 23  5  1  0  0  0  0 
M  END 
>  <HBA> 
3 
 
>  <HBD> 
0 
 
>  <TPSA> 
41.28 
 
>  <cid> 
70500 
 
>  <dipole> 
1.19 
 
>  <excitation_energy_1> 
6.092 
 
>  <excitation_energy_2> 
6.254 
 
>  <excitation_energy_3> 
6.294 
 
>  <excitation_energy_4> 
6.625 
 
>  <homo_energy> 
-6.539 
 
>  <homo_lumo_gap> 
7.323 
 
>  <logP> 
1.933 
 
>  <lumo_energy> 
0.784 
 
>  <melting_point> 
-16.4 
 
>  <molecular_refractivity> 
39.81 
 
>  <oscillator_strength_1> 
0.0846 
 
>  <oscillator_strength_2> 
0.0455 
 
>  <oscillator_strength_3> 
0.0529 
 
>  <oscillator_strength_4> 
0.0374 
 
>  <open_babel_can_smiles> 
COP1OCC(CO1)(C)C 
 
>  <mulliken_charges> 
23 
1   -0.469103 
2   -0.468573 
3   -0.213349 
4   -0.06182 
5   -0.073721 
6   0.093256 
7   -0.542754 
8   -0.571306 
9   -0.566723 
10   0.889793 
11   0.143369 
12   0.142972 
13   0.165017 
14   0.143508 
15   0.159007 
16   0.144499 
17   0.165266 
18   0.155532 
19   0.152988 
20   0.145452 
21   0.153514 
22   0.16301 
23   0.150165 
 
>  <lowdin_charges> 
23 
1   -0.447043 
2   -0.445392 
3   -0.278882 
4   -0.131447 
5   -0.142917 
6   -0.016476 
7   -0.416714 
8   -0.422323 
9   -0.420591 
10   0.74923 
11   0.15038 
12   0.149544 
13   0.159232 
14   0.149297 
15   0.1546 
16   0.151376 
17   0.158087 
18   0.145707 
19   0.149674 
20   0.141182 
21   0.155798 
22   0.153512 
23   0.154165 
 
$$$$ 
 
