PCCDB-ID:  47916 
public computational chemistry database (PCCDB) project, http://pccdb.org 
 
 28 30  0  0  1  0  0  0  0  0999 V2000 
   -0.7645    1.0317    1.2253 C   0  0  0  0  0  0  0  0  0  0  0  0 
   -0.9801    0.7574   -1.2715 C   0  0  0  0  0  0  0  0  0  0  0  0 
   -1.2215   -1.2439    0.2430 C   0  0  0  0  0  0  0  0  0  0  0  0 
    1.2761    1.2647   -0.2494 C   0  0  0  0  0  0  0  0  0  0  0  0 
   -1.4933    0.2678    0.0995 C   0  0  1  0  0  0  0  0  0  0  0  0 
    0.7634    0.7829    1.1310 C   0  0  2  0  0  0  0  0  0  0  0  0 
    0.5461    0.5064   -1.3863 C   0  0  1  0  0  0  0  0  0  0  0  0 
    0.3087   -1.5080    0.1394 C   0  0  2  0  0  0  0  0  0  0  0  0 
    1.0007   -0.7090    1.2291 C   0  0  0  0  0  0  0  0  0  0  0  0 
    0.7892   -0.9764   -1.1991 C   0  0  0  0  0  0  0  0  0  0  0  0 
    1.6799   -1.3518    2.1011 N   0  0  0  0  0  0  0  0  0  0  0  0 
    1.3171   -1.8070   -2.0153 N   0  0  0  0  0  0  0  0  0  0  0  0 
    2.2559   -0.4917    3.0692 O   0  0  0  0  0  0  0  0  0  0  0  0 
    1.7017   -1.1900   -3.2317 O   0  0  0  0  0  0  0  0  0  0  0  0 
   -1.1351    0.7104    2.2069 H   0  0  0  0  0  0  0  0  0  0  0  0 
   -0.9619    2.1091    1.1429 H   0  0  0  0  0  0  0  0  0  0  0  0 
   -1.1805    1.8309   -1.3903 H   0  0  0  0  0  0  0  0  0  0  0  0 
   -1.5056    0.2394   -2.0837 H   0  0  0  0  0  0  0  0  0  0  0  0 
   -1.7397   -1.8065   -0.5439 H   0  0  0  0  0  0  0  0  0  0  0  0 
   -1.5883   -1.6130    1.2092 H   0  0  0  0  0  0  0  0  0  0  0  0 
    2.3590    1.1119   -0.3260 H   0  0  0  0  0  0  0  0  0  0  0  0 
    1.0899    2.3423   -0.3517 H   0  0  0  0  0  0  0  0  0  0  0  0 
   -2.5729    0.4525    0.1724 H   0  0  0  0  0  0  0  0  0  0  0  0 
    1.2880    1.3010    1.9358 H   0  0  0  0  0  0  0  0  0  0  0  0 
    0.9171    0.8284   -2.3609 H   0  0  0  0  0  0  0  0  0  0  0  0 
    0.5445   -2.5702    0.2357 H   0  0  0  0  0  0  0  0  0  0  0  0 
    2.7335   -1.1229    3.6287 H   0  0  0  0  0  0  0  0  0  0  0  0 
    2.0842   -1.9380   -3.7155 H   0  0  0  0  0  0  0  0  0  0  0  0 
  1 15  1  0  0  0  0 
  2  5  1  0  0  0  0 
  3 20  1  0  0  0  0 
  4  6  1  0  0  0  0 
  5 23  1  1  0  0  0 
  5  3  1  0  0  0  0 
  5  1  1  0  0  0  0 
  6  1  1  0  0  0  0 
  6  9  1  0  0  0  0 
  6 24  1  1  0  0  0 
  7 25  1  6  0  0  0 
  7  2  1  0  0  0  0 
  7 10  1  0  0  0  0 
  7  4  1  0  0  0  0 
  8 26  1  1  0  0  0 
  8  3  1  0  0  0  0 
  8  9  1  0  0  0  0 
  9 11  2  0  0  0  0 
 10  8  1  0  0  0  0 
 11 13  1  0  0  0  0 
 12 10  2  0  0  0  0 
 13 27  1  0  0  0  0 
 14 12  1  0  0  0  0 
 16  1  1  0  0  0  0 
 17  2  1  0  0  0  0 
 18  2  1  0  0  0  0 
 19  3  1  0  0  0  0 
 21  4  1  0  0  0  0 
 22  4  1  0  0  0  0 
 28 14  1  0  0  0  0 
M  END 
>  <HBA> 
4 
 
>  <HBD> 
2 
 
>  <TPSA> 
65.18 
 
>  <cid> 
47916 
 
>  <dipole> 
1.27 
 
>  <excitation_energy_1> 
5.686 
 
>  <excitation_energy_2> 
5.71 
 
>  <excitation_energy_3> 
5.981 
 
>  <excitation_energy_4> 
5.993 
 
>  <homo_energy> 
-6.452 
 
>  <homo_lumo_gap> 
6.406 
 
>  <logP> 
1.713 
 
>  <lumo_energy> 
-0.046 
 
>  <melting_point> 
182.06 
 
>  <molecular_refractivity> 
52.67 
 
>  <oscillator_strength_1> 
0.0275 
 
>  <oscillator_strength_2> 
0.0681 
 
>  <oscillator_strength_3> 
0.0292 
 
>  <oscillator_strength_4> 
0.0276 
 
>  <open_babel_can_smiles> 
O/N=C/1\[C@@H]2C[C@@H]3C[C@H]1/C(=N/O)/[C@H](C2)C3 
 
>  <mulliken_charges> 
28 
1   -0.27453 
2   -0.274763 
3   -0.275114 
4   -0.280463 
5   -0.098536 
6   -0.155912 
7   -0.15571 
8   -0.204676 
9   0.346649 
10   0.346539 
11   -0.268686 
12   -0.268644 
13   -0.516344 
14   -0.516374 
15   0.144811 
16   0.134689 
17   0.134725 
18   0.144971 
19   0.145903 
20   0.145905 
21   0.157776 
22   0.138224 
23   0.127257 
24   0.165836 
25   0.165758 
26   0.161891 
27   0.414401 
28   0.414418 
 
>  <lowdin_charges> 
28 
1   -0.273723 
2   -0.275375 
3   -0.276508 
4   -0.266271 
5   -0.132198 
6   -0.145692 
7   -0.144312 
8   -0.124588 
9   0.017167 
10   0.017327 
11   -0.072605 
12   -0.07193 
13   -0.394815 
14   -0.394918 
15   0.14856 
16   0.142605 
17   0.142715 
18   0.150072 
19   0.151327 
20   0.150007 
21   0.153074 
22   0.144915 
23   0.143223 
24   0.167459 
25   0.166029 
26   0.168287 
27   0.355385 
28   0.354785 
 
$$$$ 
 
