PCCDB-ID:  38502 
public computational chemistry database (PCCDB) project, http://pccdb.org 
 
 27 29  0  0  0  0  0  0  0  0999 V2000 
   -3.6411   -0.6707    0.0224 C   0  0  0  0  0  0  0  0  0  0  0  0 
   -2.4934   -1.4228    0.0163 C   0  0  0  0  0  0  0  0  0  0  0  0 
   -3.5998    0.7475    0.0468 C   0  0  0  0  0  0  0  0  0  0  0  0 
    2.4841   -1.3824   -0.0382 C   0  0  0  0  0  0  0  0  0  0  0  0 
    3.6343   -0.6466   -0.0645 C   0  0  0  0  0  0  0  0  0  0  0  0 
   -0.0018   -1.4495   -0.0013 C   0  0  0  0  0  0  0  0  0  0  0  0 
    2.3704    1.4307   -0.0401 C   0  0  0  0  0  0  0  0  0  0  0  0 
    1.2039   -0.7486   -0.0163 C   0  0  0  0  0  0  0  0  0  0  0  0 
   -1.2259   -0.7691    0.0200 C   0  0  0  0  0  0  0  0  0  0  0  0 
    3.5922    0.7888   -0.0649 C   0  0  0  0  0  0  0  0  0  0  0  0 
   -2.3961    1.4280    0.0659 C   0  0  0  0  0  0  0  0  0  0  0  0 
    1.1531    0.6956   -0.0175 C   0  0  0  0  0  0  0  0  0  0  0  0 
   -1.1619    0.6700    0.0350 C   0  0  0  0  0  0  0  0  0  0  0  0 
    4.7952    1.4870   -0.1481 N   0  0  0  0  0  0  0  0  0  0  0  0 
   -2.2926    2.8032    0.1527 N   0  0  0  0  0  0  0  0  0  0  0  0 
   -0.0142    1.3648    0.0091 N   0  0  0  0  0  0  0  0  0  0  0  0 
   -4.6112   -1.1611    0.0126 H   0  0  0  0  0  0  0  0  0  0  0  0 
   -2.5300   -2.5088    0.0045 H   0  0  0  0  0  0  0  0  0  0  0  0 
   -4.5309    1.3091    0.0634 H   0  0  0  0  0  0  0  0  0  0  0  0 
    2.5300   -2.4689   -0.0361 H   0  0  0  0  0  0  0  0  0  0  0  0 
    4.6024   -1.1416   -0.0932 H   0  0  0  0  0  0  0  0  0  0  0  0 
    0.0074   -2.5384   -0.0094 H   0  0  0  0  0  0  0  0  0  0  0  0 
    2.3038    2.5152   -0.0359 H   0  0  0  0  0  0  0  0  0  0  0  0 
    5.5990    1.0189    0.2514 H   0  0  0  0  0  0  0  0  0  0  0  0 
    4.7493    2.4599    0.1281 H   0  0  0  0  0  0  0  0  0  0  0  0 
   -3.0573    3.3421   -0.2297 H   0  0  0  0  0  0  0  0  0  0  0  0 
   -1.3665    3.1474   -0.0748 H   0  0  0  0  0  0  0  0  0  0  0  0 
  1  3  1  0  0  0  0 
  2  9  1  0  0  0  0 
  2  1  2  0  0  0  0 
  3 19  1  0  0  0  0 
  3 11  2  0  0  0  0 
  4 20  1  0  0  0  0 
  4  8  2  0  0  0  0 
  5  4  1  0  0  0  0 
  6  9  2  0  0  0  0 
  7 23  1  0  0  0  0 
  7 12  2  0  0  0  0 
  8  6  1  0  0  0  0 
  9 13  1  0  0  0  0 
 10  5  2  0  0  0  0 
 10  7  1  0  0  0  0 
 11 15  1  0  0  0  0 
 12  8  1  0  0  0  0 
 12 16  1  0  0  0  0 
 13 11  1  0  0  0  0 
 14 10  1  0  0  0  0 
 14 25  1  0  0  0  0 
 14 24  1  0  0  0  0 
 16 13  2  0  0  0  0 
 17  1  1  0  0  0  0 
 18  2  1  0  0  0  0 
 21  5  1  0  0  0  0 
 22  6  1  0  0  0  0 
 26 15  1  0  0  0  0 
 27 15  1  0  0  0  0 
M  END 
>  <HBA> 
3 
 
>  <HBD> 
2 
 
>  <TPSA> 
64.93 
 
>  <cid> 
38502 
 
>  <dipole> 
2.27 
 
>  <excitation_energy_1> 
2.7 
 
>  <excitation_energy_2> 
3.478 
 
>  <excitation_energy_3> 
3.931 
 
>  <excitation_energy_4> 
4.091 
 
>  <homo_energy> 
-4.729 
 
>  <homo_lumo_gap> 
3.167 
 
>  <logP> 
3.715 
 
>  <lumo_energy> 
-1.562 
 
>  <melting_point> 
208.81 
 
>  <molecular_refractivity> 
68.06 
 
>  <oscillator_strength_1> 
0.0456 
 
>  <oscillator_strength_2> 
0.0461 
 
>  <oscillator_strength_3> 
0.0648 
 
>  <oscillator_strength_4> 
0.0011 
 
>  <open_babel_can_smiles> 
Nc1ccc2c(c1)nc1c(c2)cccc1N 
 
>  <mulliken_charges> 
27 
1   -0.140773 
2   -0.202677 
3   -0.201709 
4   -0.196197 
5   -0.169862 
6   -0.239731 
7   -0.224401 
8   0.154113 
9   0.159774 
10   0.322991 
11   0.304501 
12   0.273705 
13   0.237834 
14   -0.791861 
15   -0.796244 
16   -0.666049 
17   0.123457 
18   0.117739 
19   0.113159 
20   0.133799 
21   0.12537 
22   0.133321 
23   0.120322 
24   0.322509 
25   0.326007 
26   0.316759 
27   0.344145 
 
>  <lowdin_charges> 
27 
1   -0.148496 
2   -0.193802 
3   -0.216747 
4   -0.141941 
5   -0.182275 
6   -0.125053 
7   -0.217427 
8   -0.030144 
9   -0.018336 
10   0.062587 
11   0.057899 
12   0.054194 
13   0.027862 
14   -0.479065 
15   -0.47787 
16   -0.181464 
17   0.155999 
18   0.151702 
19   0.152847 
20   0.157899 
21   0.156687 
22   0.156851 
23   0.158103 
24   0.278219 
25   0.277547 
26   0.277213 
27   0.287011 
 
$$$$ 
 
