PCCDB-ID:  71003 
public computational chemistry database (PCCDB) project, http://pccdb.org 
 
 23 23  0  0  0  0  0  0  0  0999 V2000 
    4.3920   -0.6669    4.5140 C   0  0  0  0  0  0  0  0  0  0  0  0 
    3.4529   -0.6866    3.3175 C   0  0  0  0  0  0  0  0  0  0  0  0 
    5.5533   -1.3786   -0.2608 C   0  0  0  0  0  0  0  0  0  0  0  0 
    5.9692    0.9986   -0.4797 C   0  0  0  0  0  0  0  0  0  0  0  0 
    6.2447   -1.6113   -1.4439 C   0  0  0  0  0  0  0  0  0  0  0  0 
    6.6608    0.7792   -1.6625 C   0  0  0  0  0  0  0  0  0  0  0  0 
    8.0952   -0.4203   -4.2881 C   0  0  0  0  0  0  0  0  0  0  0  0 
    5.4096   -0.0735    0.2307 C   0  0  0  0  0  0  0  0  0  0  0  0 
    6.8000   -0.5332   -2.1491 C   0  0  0  0  0  0  0  0  0  0  0  0 
    4.6787    0.2338    1.4931 C   0  0  0  0  0  0  0  0  0  0  0  0 
    7.4837   -0.7803   -3.3233 N   0  0  0  0  0  0  0  0  0  0  0  0 
    4.5423    1.3560    1.9421 O   0  0  0  0  0  0  0  0  0  0  0  0 
    4.1808   -0.8778    2.0797 O   0  0  0  0  0  0  0  0  0  0  0  0 
    8.9136   -0.0605   -5.5983 S   0  0  0  0  0  0  0  0  0  0  0  0 
    3.8099   -0.5996    5.4402 H   0  0  0  0  0  0  0  0  0  0  0  0 
    5.0600    0.1975    4.4654 H   0  0  0  0  0  0  0  0  0  0  0  0 
    4.9944   -1.5804    4.5523 H   0  0  0  0  0  0  0  0  0  0  0  0 
    2.8803    0.2410    3.2468 H   0  0  0  0  0  0  0  0  0  0  0  0 
    2.7666   -1.5360    3.3588 H   0  0  0  0  0  0  0  0  0  0  0  0 
    5.1217   -2.2076    0.2879 H   0  0  0  0  0  0  0  0  0  0  0  0 
    5.8494    2.0021   -0.0854 H   0  0  0  0  0  0  0  0  0  0  0  0 
    6.3629   -2.6164   -1.8346 H   0  0  0  0  0  0  0  0  0  0  0  0 
    7.0958    1.6046   -2.2169 H   0  0  0  0  0  0  0  0  0  0  0  0 
  1 17  1  0  0  0  0 
  1 15  1  0  0  0  0 
  2 19  1  0  0  0  0 
  2  1  1  0  0  0  0 
  3  8  1  0  0  0  0 
  3 20  1  0  0  0  0 
  4 21  1  0  0  0  0 
  4  8  2  0  0  0  0 
  5  3  2  0  0  0  0 
  6  4  1  0  0  0  0 
  7 11  2  0  0  0  0 
  8 10  1  0  0  0  0 
  9  6  2  0  0  0  0 
  9  5  1  0  0  0  0 
 10 12  2  0  0  0  0 
 10 13  1  0  0  0  0 
 11  9  1  0  0  0  0 
 13  2  1  0  0  0  0 
 14  7  2  0  0  0  0 
 16  1  1  0  0  0  0 
 18  2  1  0  0  0  0 
 22  5  1  0  0  0  0 
 23  6  1  0  0  0  0 
M  END 
>  <HBA> 
4 
 
>  <HBD> 
0 
 
>  <TPSA> 
70.75 
 
>  <cid> 
71003 
 
>  <dipole> 
3.13 
 
>  <excitation_energy_1> 
4.194 
 
>  <excitation_energy_2> 
4.294 
 
>  <excitation_energy_3> 
4.5 
 
>  <excitation_energy_4> 
4.644 
 
>  <homo_energy> 
-6.514 
 
>  <homo_lumo_gap> 
4.588 
 
>  <logP> 
2.598 
 
>  <lumo_energy> 
-1.927 
 
>  <melting_point> 
86.39 
 
>  <molecular_refractivity> 
57.21 
 
>  <oscillator_strength_1> 
0.6079 
 
>  <oscillator_strength_2> 
0.0014 
 
>  <oscillator_strength_3> 
0.0001 
 
>  <oscillator_strength_4> 
0.0032 
 
>  <open_babel_can_smiles> 
CCOC(=O)c1ccc(cc1)N=C=S 
 
>  <mulliken_charges> 
23 
1   -0.462207 
2   -0.044332 
3   -0.169738 
4   -0.170238 
5   -0.141797 
6   -0.138009 
7   0.177156 
8   0.059528 
9   0.28472 
10   0.598813 
11   -0.414785 
12   -0.491234 
13   -0.478746 
14   -0.082544 
15   0.152789 
16   0.178075 
17   0.158049 
18   0.174126 
19   0.154391 
20   0.166003 
21   0.174565 
22   0.156639 
23   0.158778 
 
>  <lowdin_charges> 
23 
1   -0.455456 
2   -0.126272 
3   -0.132314 
4   -0.121271 
5   -0.159021 
6   -0.162574 
7   -0.038747 
8   -0.044162 
9   0.070276 
10   0.195449 
11   -0.069731 
12   -0.271744 
13   -0.192253 
14   -0.001224 
15   0.160356 
16   0.16684 
17   0.156813 
18   0.161045 
19   0.153736 
20   0.178999 
21   0.182739 
22   0.173547 
23   0.174968 
 
$$$$ 
 
