PCCDB-ID:  11979 
public computational chemistry database (PCCDB) project, http://pccdb.org 
 
 18 19  0  0  0  0  0  0  0  0999 V2000 
    1.0289    0.0939    0.0008 C   0  0  0  0  0  0  0  0  0  0  0  0 
    3.2806    1.2672    0.0208 C   0  0  0  0  0  0  0  0  0  0  0  0 
    4.6713    1.2909    0.0248 C   0  0  0  0  0  0  0  0  0  0  0  0 
    3.2154   -1.1632   -0.0038 C   0  0  0  0  0  0  0  0  0  0  0  0 
    6.7978   -1.5017    0.0023 C   0  0  0  0  0  0  0  0  0  0  0  0 
    2.5419    0.0616    0.0062 C   0  0  0  0  0  0  0  0  0  0  0  0 
    5.3524    0.0692    0.0137 C   0  0  0  0  0  0  0  0  0  0  0  0 
    4.6096   -1.1363   -0.0009 C   0  0  0  0  0  0  0  0  0  0  0  0 
    6.7180   -0.1975    0.0156 N   0  0  0  0  0  0  0  0  0  0  0  0 
    5.5722   -2.1324   -0.0076 N   0  0  0  0  0  0  0  0  0  0  0  0 
    0.6536    1.1213    0.0313 H   0  0  0  0  0  0  0  0  0  0  0  0 
    0.6106   -0.4376    0.8649 H   0  0  0  0  0  0  0  0  0  0  0  0 
    0.6182   -0.3818   -0.8988 H   0  0  0  0  0  0  0  0  0  0  0  0 
    2.7346    2.2073    0.0293 H   0  0  0  0  0  0  0  0  0  0  0  0 
    5.2232    2.2257    0.0358 H   0  0  0  0  0  0  0  0  0  0  0  0 
    2.6632   -2.1002   -0.0156 H   0  0  0  0  0  0  0  0  0  0  0  0 
    7.7197   -2.0702   -0.0003 H   0  0  0  0  0  0  0  0  0  0  0  0 
    5.4119   -3.1286   -0.0176 H   0  0  0  0  0  0  0  0  0  0  0  0 
  1  6  1  0  0  0  0 
  1 11  1  0  0  0  0 
  1 12  1  0  0  0  0 
  2  3  1  0  0  0  0 
  2 14  1  0  0  0  0 
  3 15  1  0  0  0  0 
  4  8  2  0  0  0  0 
  4  6  1  0  0  0  0 
  5  9  2  0  0  0  0 
  6  2  2  0  0  0  0 
  7  9  1  0  0  0  0 
  7  3  2  0  0  0  0 
  8  7  1  0  0  0  0 
 10  8  1  0  0  0  0 
 10  5  1  0  0  0  0 
 13  1  1  0  0  0  0 
 16  4  1  0  0  0  0 
 17  5  1  0  0  0  0 
 18 10  1  0  0  0  0 
M  END 
>  <HBA> 
1 
 
>  <HBD> 
1 
 
>  <TPSA> 
28.68 
 
>  <cid> 
11979 
 
>  <dipole> 
3.52 
 
>  <excitation_energy_1> 
4.882 
 
>  <excitation_energy_2> 
5.055 
 
>  <excitation_energy_3> 
5.211 
 
>  <excitation_energy_4> 
5.416 
 
>  <homo_energy> 
-5.864 
 
>  <homo_lumo_gap> 
5.535 
 
>  <logP> 
1.871 
 
>  <lumo_energy> 
-0.329 
 
>  <melting_point> 
115.27 
 
>  <molecular_refractivity> 
41.06 
 
>  <oscillator_strength_1> 
0.0989 
 
>  <oscillator_strength_2> 
0.0812 
 
>  <oscillator_strength_3> 
0.0009 
 
>  <oscillator_strength_4> 
0.0007 
 
>  <open_babel_can_smiles> 
Cc1ccc2c(c1)[nH]cn2 
 
>  <mulliken_charges> 
18 
1   -0.530683 
2   -0.19696 
3   -0.173095 
4   -0.222558 
5   0.226535 
6   0.159762 
7   0.224028 
8   0.348931 
9   -0.492311 
10   -0.683294 
11   0.155843 
12   0.159093 
13   0.159626 
14   0.118598 
15   0.13857 
16   0.117479 
17   0.159039 
18   0.331398 
 
>  <lowdin_charges> 
18 
1   -0.442648 
2   -0.181894 
3   -0.154966 
4   -0.197393 
5   -0.064816 
6   0.000344 
7   0.004239 
8   0.018574 
9   -0.189223 
10   -0.20345 
11   0.156261 
12   0.1591 
13   0.159065 
14   0.15444 
15   0.166648 
16   0.154221 
17   0.168479 
18   0.29302 
 
$$$$ 
 
