PCCDB-ID:  53600 
public computational chemistry database (PCCDB) project, http://pccdb.org 
 
 26 27  0  0  0  0  0  0  0  0999 V2000 
    0.0076   -0.2177   -0.9419 C   0  0  0  0  0  0  0  0  0  0  0  0 
    0.1945   -0.4645    1.4647 C   0  0  0  0  0  0  0  0  0  0  0  0 
   -0.8324   -1.3268   -0.9937 C   0  0  0  0  0  0  0  0  0  0  0  0 
   -0.6427   -1.5719    1.4273 C   0  0  0  0  0  0  0  0  0  0  0  0 
    3.4390    0.6068   -3.6062 C   0  0  0  0  0  0  0  0  0  0  0  0 
    2.4209    1.4018   -3.1438 C   0  0  0  0  0  0  0  0  0  0  0  0 
    1.8082    2.2463   -0.8248 C   0  0  0  0  0  0  0  0  0  0  0  0 
    3.7298    0.7482   -1.4928 C   0  0  0  0  0  0  0  0  0  0  0  0 
    0.5267    0.2243    0.2855 C   0  0  0  0  0  0  0  0  0  0  0  0 
   -1.1444   -1.9839    0.1932 C   0  0  0  0  0  0  0  0  0  0  0  0 
    1.4108    1.4284    0.4179 C   0  0  0  0  0  0  0  0  0  0  0  0 
    4.2498    0.2021   -2.5698 N   0  0  0  0  0  0  0  0  0  0  0  0 
    2.6097    1.4880   -1.7745 N   0  0  0  0  0  0  0  0  0  0  0  0 
   -2.0381   -3.1581    0.1423 N   0  0  0  0  0  0  0  0  0  0  0  0 
    1.8120    1.7949    1.5092 O   0  0  0  0  0  0  0  0  0  0  0  0 
   -2.4649   -3.5002   -0.9589 O   0  0  0  0  0  0  0  0  0  0  0  0 
   -2.2999   -3.7183    1.2049 O   0  0  0  0  0  0  0  0  0  0  0  0 
    0.2650    0.2847   -1.8669 H   0  0  0  0  0  0  0  0  0  0  0  0 
    0.6029   -0.1088    2.4042 H   0  0  0  0  0  0  0  0  0  0  0  0 
   -1.2412   -1.6878   -1.9291 H   0  0  0  0  0  0  0  0  0  0  0  0 
   -0.9121   -2.1156    2.3242 H   0  0  0  0  0  0  0  0  0  0  0  0 
    3.6362    0.3042   -4.6258 H   0  0  0  0  0  0  0  0  0  0  0  0 
    1.6120    1.9199   -3.6386 H   0  0  0  0  0  0  0  0  0  0  0  0 
    2.3580    3.1180   -0.4588 H   0  0  0  0  0  0  0  0  0  0  0  0 
    0.9104    2.5974   -1.3438 H   0  0  0  0  0  0  0  0  0  0  0  0 
    4.1114    0.6517   -0.4845 H   0  0  0  0  0  0  0  0  0  0  0  0 
  1  9  1  0  0  0  0 
  2 19  1  0  0  0  0 
  3  1  2  0  0  0  0 
  3 10  1  0  0  0  0 
  4  2  1  0  0  0  0 
  4 21  1  0  0  0  0 
  5  6  2  0  0  0  0 
  5 12  1  0  0  0  0 
  6 13  1  0  0  0  0 
  7 24  1  0  0  0  0 
  7 11  1  0  0  0  0 
  8 26  1  0  0  0  0 
  9 11  1  0  0  0  0 
  9  2  2  0  0  0  0 
 10  4  2  0  0  0  0 
 11 15  2  0  0  0  0 
 12  8  2  0  0  0  0 
 13  8  1  0  0  0  0 
 13  7  1  0  0  0  0 
 14 10  1  0  0  0  0 
 14 17  2  0  0  0  0 
 16 14  2  0  0  0  0 
 18  1  1  0  0  0  0 
 20  3  1  0  0  0  0 
 22  5  1  0  0  0  0 
 23  6  1  0  0  0  0 
 25  7  1  0  0  0  0 
M  END 
>  <HBA> 
3 
 
>  <HBD> 
0 
 
>  <TPSA> 
80.71 
 
>  <cid> 
53600 
 
>  <dipole> 
4.25 
 
>  <excitation_energy_1> 
2.735 
 
>  <excitation_energy_2> 
3.323 
 
>  <excitation_energy_3> 
3.622 
 
>  <excitation_energy_4> 
3.771 
 
>  <homo_energy> 
-6.534 
 
>  <homo_lumo_gap> 
3.355 
 
>  <logP> 
2.197 
 
>  <lumo_energy> 
-3.178 
 
>  <melting_point> 
122.24 
 
>  <molecular_refractivity> 
62.03 
 
>  <oscillator_strength_1> 
0.0156 
 
>  <oscillator_strength_2> 
0.0006 
 
>  <oscillator_strength_3> 
0.0 
 
>  <oscillator_strength_4> 
0.0049 
 
>  <open_babel_can_smiles> 
O=C(c1ccc(cc1)N(=O)=O)Cn1cncc1 
 
>  <mulliken_charges> 
26 
1   -0.176395 
2   -0.169795 
3   -0.157246 
4   -0.148523 
5   -0.032329 
6   -0.003752 
7   -0.237516 
8   0.200231 
9   0.092601 
10   0.284401 
11   0.398675 
12   -0.428865 
13   -0.381293 
14   0.385239 
15   -0.436137 
16   -0.386606 
17   -0.384579 
18   0.159756 
19   0.183859 
20   0.19296 
21   0.19327 
22   0.143454 
23   0.154791 
24   0.201697 
25   0.180806 
26   0.171297 
 
>  <lowdin_charges> 
26 
1   -0.138086 
2   -0.119385 
3   -0.136242 
4   -0.136148 
5   -0.145115 
6   -0.185267 
7   -0.217804 
8   -0.097988 
9   -0.032933 
10   0.019229 
11   0.150659 
12   -0.17733 
13   -0.016951 
14   0.30825 
15   -0.213363 
16   -0.236698 
17   -0.235712 
18   0.175239 
19   0.186762 
20   0.192876 
21   0.193346 
22   0.164583 
23   0.170047 
24   0.180294 
25   0.175239 
26   0.172497 
 
$$$$ 
 
