PCCDB-ID:  62419 
public computational chemistry database (PCCDB) project, http://pccdb.org 
 
 17 17  0  0  0  0  0  0  0  0999 V2000 
    1.2199    0.2839   -0.0881 C   0  0  0  0  0  0  0  0  0  0  0  0 
    2.7316    0.3734    0.1401 C   0  0  0  0  0  0  0  0  0  0  0  0 
    3.2834   -0.8429    0.8974 C   0  0  0  0  0  0  0  0  0  0  0  0 
    4.7923   -0.7408    1.1508 C   0  0  0  0  0  0  0  0  0  0  0  0 
    5.4468   -1.7895    2.0498 C   0  0  0  0  0  0  0  0  0  0  0  0 
    5.2759    0.2076    2.2484 C   0  0  0  0  0  0  0  0  0  0  0  0 
    5.6007   -2.9669    2.1015 O   0  0  0  0  0  0  0  0  0  0  0  0 
    5.2293    1.3615    2.5329 O   0  0  0  0  0  0  0  0  0  0  0  0 
    5.8772   -0.8298    2.9943 O   0  0  0  0  0  0  0  0  0  0  0  0 
    0.8533    1.1588   -0.6355 H   0  0  0  0  0  0  0  0  0  0  0  0 
    0.6769    0.2348    0.8632 H   0  0  0  0  0  0  0  0  0  0  0  0 
    0.9563   -0.6084   -0.6688 H   0  0  0  0  0  0  0  0  0  0  0  0 
    2.9713    1.2863    0.6996 H   0  0  0  0  0  0  0  0  0  0  0  0 
    3.2469    0.4595   -0.8267 H   0  0  0  0  0  0  0  0  0  0  0  0 
    3.0967   -1.7636    0.3302 H   0  0  0  0  0  0  0  0  0  0  0  0 
    2.7605   -0.9547    1.8564 H   0  0  0  0  0  0  0  0  0  0  0  0 
    5.3418   -0.6004    0.2118 H   0  0  0  0  0  0  0  0  0  0  0  0 
  1  2  1  0  0  0  0 
  1 11  1  0  0  0  0 
  2 13  1  0  0  0  0 
  2  3  1  0  0  0  0 
  3  4  1  0  0  0  0 
  3 16  1  0  0  0  0 
  4  5  1  0  0  0  0 
  4  6  1  0  0  0  0 
  5  7  2  0  0  0  0 
  5  9  1  0  0  0  0 
  6  8  2  0  0  0  0 
  6  9  1  0  0  0  0 
 10  1  1  0  0  0  0 
 12  1  1  0  0  0  0 
 14  2  1  0  0  0  0 
 15  3  1  0  0  0  0 
 17  4  1  0  0  0  0 
M  END 
>  <HBA> 
3 
 
>  <HBD> 
0 
 
>  <TPSA> 
43.37 
 
>  <cid> 
62419 
 
>  <dipole> 
3.41 
 
>  <excitation_energy_1> 
5.405 
 
>  <excitation_energy_2> 
5.536 
 
>  <excitation_energy_3> 
6.432 
 
>  <excitation_energy_4> 
6.566 
 
>  <homo_energy> 
-7.856 
 
>  <homo_lumo_gap> 
7.067 
 
>  <logP> 
0.486 
 
>  <lumo_energy> 
-0.789 
 
>  <melting_point> 
29.85 
 
>  <molecular_refractivity> 
30.33 
 
>  <oscillator_strength_1> 
0.0016 
 
>  <oscillator_strength_2> 
0.0003 
 
>  <oscillator_strength_3> 
0.0001 
 
>  <oscillator_strength_4> 
0.0044 
 
>  <open_babel_can_smiles> 
CCCC1C(=O)OC1=O 
 
>  <mulliken_charges> 
17 
1   -0.446412 
2   -0.263208 
3   -0.256296 
4   -0.351344 
5   0.638714 
6   0.648534 
7   -0.406039 
8   -0.41047 
9   -0.445315 
10   0.15455 
11   0.150764 
12   0.147748 
13   0.166715 
14   0.139365 
15   0.167913 
16   0.156041 
17   0.208738 
 
>  <lowdin_charges> 
17 
1   -0.444238 
2   -0.275135 
3   -0.262241 
4   -0.186081 
5   0.208243 
6   0.208633 
7   -0.16774 
8   -0.171473 
9   -0.173573 
10   0.157587 
11   0.151454 
12   0.150125 
13   0.156439 
14   0.143515 
15   0.161036 
16   0.15372 
17   0.189729 
 
$$$$ 
 
