PCCDB-ID:  13625 
public computational chemistry database (PCCDB) project, http://pccdb.org 
 
 15 16  0  0  0  0  0  0  0  0999 V2000 
   -2.0775   -0.7554   -0.0027 C   0  0  0  0  0  0  0  0  0  0  0  0 
   -2.1997    0.6420    0.0015 C   0  0  0  0  0  0  0  0  0  0  0  0 
   -0.8260   -1.3657   -0.0047 C   0  0  0  0  0  0  0  0  0  0  0  0 
   -1.0683    1.4580    0.0033 C   0  0  0  0  0  0  0  0  0  0  0  0 
    0.3217   -0.5648   -0.0021 C   0  0  0  0  0  0  0  0  0  0  0  0 
    0.1830    0.8448    0.0016 C   0  0  0  0  0  0  0  0  0  0  0  0 
    2.4558   -0.0491   -0.0015 C   0  0  0  0  0  0  0  0  0  0  0  0 
    1.6309   -1.0386   -0.0041 N   0  0  0  0  0  0  0  0  0  0  0  0 
    3.7912   -0.1621   -0.0014 O   0  0  0  0  0  0  0  0  0  0  0  0 
    1.7847    1.5896    0.0027 S   0  0  0  0  0  0  0  0  0  0  0  0 
   -2.9726   -1.3710   -0.0053 H   0  0  0  0  0  0  0  0  0  0  0  0 
   -3.1855    1.0979    0.0023 H   0  0  0  0  0  0  0  0  0  0  0  0 
   -0.7205   -2.4459   -0.0087 H   0  0  0  0  0  0  0  0  0  0  0  0 
   -1.1640    2.5396    0.0056 H   0  0  0  0  0  0  0  0  0  0  0  0 
    3.9844   -1.1180   -0.0005 H   0  0  0  0  0  0  0  0  0  0  0  0 
  1  2  1  0  0  0  0 
  2 12  1  0  0  0  0 
  2  4  2  0  0  0  0 
  3  1  2  0  0  0  0 
  3  5  1  0  0  0  0 
  4 14  1  0  0  0  0 
  5  6  2  0  0  0  0 
  6 10  1  0  0  0  0 
  6  4  1  0  0  0  0 
  7  9  1  0  0  0  0 
  7 10  1  0  0  0  0 
  8  5  1  0  0  0  0 
  8  7  2  0  0  0  0 
  9 15  1  0  0  0  0 
 11  1  1  0  0  0  0 
 13  3  1  0  0  0  0 
M  END 
>  <HBA> 
2 
 
>  <HBD> 
1 
 
>  <TPSA> 
61.1 
 
>  <cid> 
13625 
 
>  <dipole> 
0.51 
 
>  <excitation_energy_1> 
4.845 
 
>  <excitation_energy_2> 
5.071 
 
>  <excitation_energy_3> 
5.173 
 
>  <excitation_energy_4> 
5.22 
 
>  <homo_energy> 
-6.193 
 
>  <homo_lumo_gap> 
5.668 
 
>  <logP> 
1.59 
 
>  <lumo_energy> 
-0.525 
 
>  <melting_point> 
129.6 
 
>  <molecular_refractivity> 
42.45 
 
>  <oscillator_strength_1> 
0.0022 
 
>  <oscillator_strength_2> 
0.0003 
 
>  <oscillator_strength_3> 
0.1027 
 
>  <oscillator_strength_4> 
0.0002 
 
>  <open_babel_can_smiles> 
Oc1nc2c(s1)cccc2 
 
>  <mulliken_charges> 
15 
1   -0.146702 
2   -0.121136 
3   -0.150859 
4   -0.183226 
5   0.284576 
6   -0.129128 
7   0.343005 
8   -0.512027 
9   -0.587445 
10   0.223277 
11   0.133719 
12   0.133129 
13   0.142028 
14   0.143954 
15   0.426834 
 
>  <lowdin_charges> 
15 
1   -0.157815 
2   -0.16133 
3   -0.159164 
4   -0.158578 
5   0.029322 
6   -0.151133 
7   0.017881 
8   -0.21166 
9   -0.335678 
10   0.262018 
11   0.161197 
12   0.160595 
13   0.166923 
14   0.163874 
15   0.373548 
 
$$$$ 
 
