PCCDB-ID:  61984 
public computational chemistry database (PCCDB) project, http://pccdb.org 
 
 30 30  0  0  0  0  0  0  0  0999 V2000 
    1.0496    1.7916   -1.1900 C   0  0  0  0  0  0  0  0  0  0  0  0 
    2.4562    1.3189   -0.8091 C   0  0  0  0  0  0  0  0  0  0  0  0 
    2.9323    0.1161   -1.6337 C   0  0  0  0  0  0  0  0  0  0  0  0 
    4.3339   -0.3743   -1.2476 C   0  0  0  0  0  0  0  0  0  0  0  0 
    4.8085   -1.5639   -2.0933 C   0  0  0  0  0  0  0  0  0  0  0  0 
    8.2293   -5.8611   -5.6953 C   0  0  0  0  0  0  0  0  0  0  0  0 
    8.1260   -4.4509   -5.5168 C   0  0  0  0  0  0  0  0  0  0  0  0 
    6.1950   -2.0463   -1.6801 C   0  0  0  0  0  0  0  0  0  0  0  0 
    7.6875   -6.4211   -4.5729 C   0  0  0  0  0  0  0  0  0  0  0  0 
    7.5299   -4.2580   -4.2987 C   0  0  0  0  0  0  0  0  0  0  0  0 
    7.1763   -3.0088   -3.6172 C   0  0  0  0  0  0  0  0  0  0  0  0 
    7.4023   -1.9133   -4.0980 O   0  0  0  0  0  0  0  0  0  0  0  0 
    7.2575   -5.4662   -3.7134 O   0  0  0  0  0  0  0  0  0  0  0  0 
    6.5892   -3.2248   -2.4221 O   0  0  0  0  0  0  0  0  0  0  0  0 
    0.7402    2.6537   -0.5881 H   0  0  0  0  0  0  0  0  0  0  0  0 
    0.3092    0.9964   -1.0383 H   0  0  0  0  0  0  0  0  0  0  0  0 
    1.0032    2.0884   -2.2450 H   0  0  0  0  0  0  0  0  0  0  0  0 
    2.4781    1.0576    0.2586 H   0  0  0  0  0  0  0  0  0  0  0  0 
    3.1673    2.1478   -0.9344 H   0  0  0  0  0  0  0  0  0  0  0  0 
    2.9227    0.3815   -2.7010 H   0  0  0  0  0  0  0  0  0  0  0  0 
    2.2147   -0.7097   -1.5185 H   0  0  0  0  0  0  0  0  0  0  0  0 
    4.3390   -0.6546   -0.1836 H   0  0  0  0  0  0  0  0  0  0  0  0 
    5.0488    0.4550   -1.3495 H   0  0  0  0  0  0  0  0  0  0  0  0 
    4.8360   -1.2807   -3.1523 H   0  0  0  0  0  0  0  0  0  0  0  0 
    4.1008   -2.3983   -1.9991 H   0  0  0  0  0  0  0  0  0  0  0  0 
    8.6479   -6.3886   -6.5407 H   0  0  0  0  0  0  0  0  0  0  0  0 
    8.4443   -3.6669   -6.1883 H   0  0  0  0  0  0  0  0  0  0  0  0 
    6.2092   -2.3690   -0.6354 H   0  0  0  0  0  0  0  0  0  0  0  0 
    6.9457   -1.2659   -1.8303 H   0  0  0  0  0  0  0  0  0  0  0  0 
    7.5423   -7.4408   -4.2487 H   0  0  0  0  0  0  0  0  0  0  0  0 
  1 16  1  0  0  0  0 
  1  2  1  0  0  0  0 
  1 15  1  0  0  0  0 
  2 18  1  0  0  0  0 
  3 21  1  0  0  0  0 
  3  4  1  0  0  0  0 
  3  2  1  0  0  0  0 
  4 22  1  0  0  0  0 
  5 25  1  0  0  0  0 
  5  8  1  0  0  0  0 
  5  4  1  0  0  0  0 
  6  7  1  0  0  0  0 
  6  9  2  0  0  0  0 
  7 10  2  0  0  0  0 
  8 28  1  0  0  0  0 
  9 30  1  0  0  0  0 
  9 13  1  0  0  0  0 
 10 13  1  0  0  0  0 
 10 11  1  0  0  0  0 
 11 14  1  0  0  0  0 
 12 11  2  0  0  0  0 
 14  8  1  0  0  0  0 
 17  1  1  0  0  0  0 
 19  2  1  0  0  0  0 
 20  3  1  0  0  0  0 
 23  4  1  0  0  0  0 
 24  5  1  0  0  0  0 
 26  6  1  0  0  0  0 
 27  7  1  0  0  0  0 
 29  8  1  0  0  0  0 
M  END 
>  <HBA> 
3 
 
>  <HBD> 
0 
 
>  <TPSA> 
39.44 
 
>  <cid> 
61984 
 
>  <dipole> 
1.59 
 
>  <excitation_energy_1> 
4.998 
 
>  <excitation_energy_2> 
5.113 
 
>  <excitation_energy_3> 
6.01 
 
>  <excitation_energy_4> 
6.123 
 
>  <homo_energy> 
-6.509 
 
>  <homo_lumo_gap> 
5.478 
 
>  <logP> 
3.017 
 
>  <lumo_energy> 
-1.031 
 
>  <melting_point> 
25.17 
 
>  <molecular_refractivity> 
54.02 
 
>  <oscillator_strength_1> 
0.0016 
 
>  <oscillator_strength_2> 
0.4407 
 
>  <oscillator_strength_3> 
0.0117 
 
>  <oscillator_strength_4> 
0.0049 
 
>  <open_babel_can_smiles> 
CCCCCCOC(=O)c1ccco1 
 
>  <mulliken_charges> 
30 
1   -0.441767 
2   -0.24805 
3   -0.245371 
4   -0.264815 
5   -0.27989 
6   -0.189269 
7   -0.161315 
8   -0.041746 
9   0.100669 
10   0.278114 
11   0.576333 
12   -0.502723 
13   -0.4285 
14   -0.473412 
15   0.142347 
16   0.141508 
17   0.142663 
18   0.130052 
19   0.132069 
20   0.132311 
21   0.128701 
22   0.128762 
23   0.136836 
24   0.160406 
25   0.143482 
26   0.151173 
27   0.168398 
28   0.15037 
29   0.167932 
30   0.164733 
 
>  <lowdin_charges> 
30 
1   -0.444261 
2   -0.2711 
3   -0.271862 
4   -0.273051 
5   -0.285581 
6   -0.204939 
7   -0.163942 
8   -0.130068 
9   -0.057336 
10   0.026975 
11   0.188346 
12   -0.277721 
13   -0.074981 
14   -0.183213 
15   0.150276 
16   0.146972 
17   0.145592 
18   0.136975 
19   0.140282 
20   0.138616 
21   0.139014 
22   0.136494 
23   0.142619 
24   0.154121 
25   0.147478 
26   0.174788 
27   0.186005 
28   0.150254 
29   0.158565 
30   0.174685 
 
$$$$ 
 
