PCCDB-ID:  16467 
public computational chemistry database (PCCDB) project, http://pccdb.org 
 
 30 30  0  0  0  0  0  0  0  0999 V2000 
    1.1452   -1.2860   -0.3546 C   0  0  0  0  0  0  0  0  0  0  0  0 
    5.2246   -3.8824    1.9958 C   0  0  0  0  0  0  0  0  0  0  0  0 
    5.6377   -3.0266    0.9700 C   0  0  0  0  0  0  0  0  0  0  0  0 
    4.0713   -3.5846    2.7205 C   0  0  0  0  0  0  0  0  0  0  0  0 
    4.9027   -1.8812    0.6683 C   0  0  0  0  0  0  0  0  0  0  0  0 
    3.3342   -2.4369    2.4162 C   0  0  0  0  0  0  0  0  0  0  0  0 
    2.9369   -0.3254    1.0667 C   0  0  0  0  0  0  0  0  0  0  0  0 
    3.7389   -1.5749    1.3909 C   0  0  0  0  0  0  0  0  0  0  0  0 
    2.1562    0.7503   -3.7089 C   0  0  0  0  0  0  0  0  0  0  0  0 
    2.8033    0.3326   -1.2962 C   0  0  0  0  0  0  0  0  0  0  0  0 
    1.1552    1.0944   -4.4340 N   0  0  0  0  0  0  0  0  0  0  0  0 
    3.4788    0.5895   -4.1063 N   0  0  0  0  0  0  0  0  0  0  0  0 
    4.0276    0.7474   -1.2579 N   0  0  0  0  0  0  0  0  0  0  0  0 
    1.8986    0.5248   -2.3526 N   0  0  0  0  0  0  0  0  0  0  0  0 
    2.2600   -0.3577   -0.2332 N   0  0  0  0  0  0  0  0  0  0  0  0 
    1.4036   -2.2356    0.1284 H   0  0  0  0  0  0  0  0  0  0  0  0 
    0.9289   -1.4906   -1.4040 H   0  0  0  0  0  0  0  0  0  0  0  0 
    0.2354   -0.8965    0.1263 H   0  0  0  0  0  0  0  0  0  0  0  0 
    5.8019   -4.7731    2.2300 H   0  0  0  0  0  0  0  0  0  0  0  0 
    6.5399   -3.2517    0.4066 H   0  0  0  0  0  0  0  0  0  0  0  0 
    3.7430   -4.2426    3.5211 H   0  0  0  0  0  0  0  0  0  0  0  0 
    5.2189   -1.2051   -0.1213 H   0  0  0  0  0  0  0  0  0  0  0  0 
    2.4379   -2.2050    2.9887 H   0  0  0  0  0  0  0  0  0  0  0  0 
    3.5880    0.5507    1.0575 H   0  0  0  0  0  0  0  0  0  0  0  0 
    2.1684   -0.1779    1.8383 H   0  0  0  0  0  0  0  0  0  0  0  0 
    1.4297    1.2084   -5.4105 H   0  0  0  0  0  0  0  0  0  0  0  0 
    3.5969    0.4356   -5.0991 H   0  0  0  0  0  0  0  0  0  0  0  0 
    4.0590   -0.0069   -3.5267 H   0  0  0  0  0  0  0  0  0  0  0  0 
    4.1959    1.4276   -1.9978 H   0  0  0  0  0  0  0  0  0  0  0  0 
    0.9186    0.6513   -2.1352 H   0  0  0  0  0  0  0  0  0  0  0  0 
  1 15  1  0  0  0  0 
  1 18  1  0  0  0  0 
  1 16  1  0  0  0  0 
  2 19  1  0  0  0  0 
  2  4  2  0  0  0  0 
  3  2  1  0  0  0  0 
  4 21  1  0  0  0  0 
  5  3  2  0  0  0  0 
  5  8  1  0  0  0  0 
  6  4  1  0  0  0  0 
  6 23  1  0  0  0  0 
  7  8  1  0  0  0  0 
  7 25  1  0  0  0  0 
  8  6  2  0  0  0  0 
  9 14  1  0  0  0  0 
 10 13  2  0  0  0  0 
 10 15  1  0  0  0  0 
 11  9  1  0  0  0  0 
 12  9  2  0  0  0  0 
 12 28  1  0  0  0  0 
 14 30  1  0  0  0  0 
 14 10  1  0  0  0  0 
 15  7  1  0  0  0  0 
 17  1  1  0  0  0  0 
 20  3  1  0  0  0  0 
 22  5  1  0  0  0  0 
 24  7  1  0  0  0  0 
 26 11  1  0  0  0  0 
 27 12  1  0  0  0  0 
 29 13  1  0  0  0  0 
M  RAD  1  11   2 
M  END 
>  <HBA> 
5 
 
>  <HBD> 
3 
 
>  <TPSA> 
91.49 
 
>  <cid> 
16467 
 
>  <dipole> 
2.01 
 
>  <excitation_energy_1> 
5.078 
 
>  <excitation_energy_2> 
5.152 
 
>  <excitation_energy_3> 
5.214 
 
>  <excitation_energy_4> 
5.385 
 
>  <homo_energy> 
-5.921 
 
>  <homo_lumo_gap> 
5.929 
 
>  <logP> 
1.827 
 
>  <lumo_energy> 
0.008 
 
>  <melting_point> 
165.45 
 
>  <molecular_refractivity> 
61.42 
 
>  <oscillator_strength_1> 
0.0169 
 
>  <oscillator_strength_2> 
0.0184 
 
>  <oscillator_strength_3> 
0.0142 
 
>  <oscillator_strength_4> 
0.0074 
 
>  <open_babel_can_smiles> 
CN(C(=N)NC(=[NH2])[NH])Cc1ccccc1 
 
>  <mulliken_charges> 
30 
1   -0.332574 
2   -0.128828 
3   -0.131626 
4   -0.12842 
5   -0.177502 
6   -0.190001 
7   -0.226803 
8   0.149171 
9   0.601766 
10   0.636574 
11   -0.650183 
12   -0.760015 
13   -0.678866 
14   -0.663837 
15   -0.412681 
16   0.173649 
17   0.175784 
18   0.150681 
19   0.126903 
20   0.127335 
21   0.12676 
22   0.169718 
23   0.120036 
24   0.196894 
25   0.139496 
26   0.271586 
27   0.328346 
28   0.341532 
29   0.297696 
30   0.347409 
 
>  <lowdin_charges> 
30 
1   -0.359635 
2   -0.158931 
3   -0.156893 
4   -0.160288 
5   -0.15882 
6   -0.173168 
7   -0.193326 
8   -0.018033 
9   0.139358 
10   0.124347 
11   -0.478769 
12   -0.501161 
13   -0.496201 
14   -0.271947 
15   -0.113425 
16   0.161673 
17   0.165441 
18   0.144332 
19   0.15657 
20   0.156272 
21   0.157048 
22   0.17707 
23   0.152107 
24   0.182913 
25   0.144525 
26   0.249316 
27   0.281022 
28   0.289913 
29   0.259624 
30   0.299067 
 
$$$$ 
 
