PCCDB-ID:  12046 
public computational chemistry database (PCCDB) project, http://pccdb.org 
 
 20 19  0  0  1  0  0  0  0  0999 V2000 
    1.0026    1.5077   -0.2114 C   0  0  0  0  0  0  0  0  0  0  0  0 
    2.1459   -0.0437    1.4524 C   0  0  0  0  0  0  0  0  0  0  0  0 
    2.6321   -0.3012    2.9051 C   0  0  0  0  0  0  0  0  0  0  0  0 
    1.6318    1.3802    1.1939 C   0  0  1  0  0  0  0  0  0  0  0  0 
    3.9863   -1.0099    2.9678 C   0  0  0  0  0  0  0  0  0  0  0  0 
    2.7562    2.4045    1.3623 C   0  0  0  0  0  0  0  0  0  0  0  0 
    4.1541   -2.0844    3.4936 O   0  0  0  0  0  0  0  0  0  0  0  0 
    5.0068   -0.3489    2.3816 O   0  0  0  0  0  0  0  0  0  0  0  0 
    3.9281    2.1309    1.5208 O   0  0  0  0  0  0  0  0  0  0  0  0 
    2.3974    3.7057    1.3117 O   0  0  0  0  0  0  0  0  0  0  0  0 
    0.1797    0.7943   -0.3167 H   0  0  0  0  0  0  0  0  0  0  0  0 
    1.7429    1.2898   -0.9887 H   0  0  0  0  0  0  0  0  0  0  0  0 
    0.5986    2.5077   -0.4071 H   0  0  0  0  0  0  0  0  0  0  0  0 
    1.3416   -0.7463    1.2110 H   0  0  0  0  0  0  0  0  0  0  0  0 
    2.9528   -0.2470    0.7397 H   0  0  0  0  0  0  0  0  0  0  0  0 
    1.9190   -0.9183    3.4547 H   0  0  0  0  0  0  0  0  0  0  0  0 
    2.7303    0.6475    3.4485 H   0  0  0  0  0  0  0  0  0  0  0  0 
    0.8615    1.6249    1.9423 H   0  0  0  0  0  0  0  0  0  0  0  0 
    4.7047    0.5230    2.0433 H   0  0  0  0  0  0  0  0  0  0  0  0 
    1.4373    3.7878    1.1859 H   0  0  0  0  0  0  0  0  0  0  0  0 
  1  4  1  0  0  0  0 
  2  3  1  0  0  0  0 
  3  5  1  0  0  0  0 
  3 17  1  0  0  0  0 
  3 16  1  0  0  0  0 
  4  6  1  0  0  0  0 
  4  2  1  0  0  0  0 
  4 18  1  1  0  0  0 
  5  7  2  0  0  0  0 
  6  9  2  0  0  0  0 
  8  5  1  0  0  0  0 
 10  6  1  0  0  0  0 
 11  1  1  0  0  0  0 
 12  1  1  0  0  0  0 
 13  1  1  0  0  0  0 
 14  2  1  0  0  0  0 
 15  2  1  0  0  0  0 
 19  8  1  0  0  0  0 
 20 10  1  0  0  0  0 
M  END 
>  <HBA> 
4 
 
>  <HBD> 
2 
 
>  <TPSA> 
74.6 
 
>  <cid> 
12046 
 
>  <dipole> 
8.19 
 
>  <excitation_energy_1> 
5.436 
 
>  <excitation_energy_2> 
5.57 
 
>  <excitation_energy_3> 
5.732 
 
>  <excitation_energy_4> 
5.994 
 
>  <homo_energy> 
-6.836 
 
>  <homo_lumo_gap> 
6.112 
 
>  <logP> 
0.572 
 
>  <lumo_energy> 
-0.724 
 
>  <melting_point> 
127.75 
 
>  <molecular_refractivity> 
34.5 
 
>  <oscillator_strength_1> 
0.0009 
 
>  <oscillator_strength_2> 
0.0014 
 
>  <oscillator_strength_3> 
0.0016 
 
>  <oscillator_strength_4> 
0.0004 
 
>  <open_babel_can_smiles> 
OC(=O)CC[C@@H](C(=O)O)C 
 
>  <mulliken_charges> 
20 
1   -0.459596 
2   -0.275794 
3   -0.381063 
4   -0.22327 
5   0.574525 
6   0.631319 
7   -0.44889 
8   -0.593698 
9   -0.464788 
10   -0.554275 
11   0.174308 
12   0.178413 
13   0.142073 
14   0.158287 
15   0.170892 
16   0.176172 
17   0.163998 
18   0.159445 
19   0.451672 
20   0.420269 
 
>  <lowdin_charges> 
20 
1   -0.441917 
2   -0.27647 
3   -0.321158 
4   -0.16939 
5   0.185591 
6   0.207717 
7   -0.252531 
8   -0.366537 
9   -0.250001 
10   -0.330316 
11   0.166823 
12   0.166989 
13   0.147665 
14   0.160116 
15   0.161063 
16   0.172214 
17   0.161858 
18   0.15764 
19   0.358204 
20   0.362439 
 
$$$$ 
 
