PCCDB-ID:  48131 
public computational chemistry database (PCCDB) project, http://pccdb.org 
 
 21 20  0  0  0  0  0  0  0  0999 V2000 
    1.5128   -0.7031    1.3543 C   0  0  0  0  0  0  0  0  0  0  0  0 
    3.6498   -1.7920    1.4617 C   0  0  0  0  0  0  0  0  0  0  0  0 
    3.0198   -0.5809   -0.5449 C   0  0  0  0  0  0  0  0  0  0  0  0 
    4.3186    0.1285   -0.9338 C   0  0  0  0  0  0  0  0  0  0  0  0 
    5.0227   -0.8352   -2.9834 C   0  0  0  0  0  0  0  0  0  0  0  0 
    5.4522   -1.8695   -2.3753 N   0  0  0  0  0  0  0  0  0  0  0  0 
    2.8999   -0.6677    0.9110 N   0  0  0  0  0  0  0  0  0  0  0  0 
    5.0412   -0.5468   -4.3127 O   0  0  0  0  0  0  0  0  0  0  0  0 
    4.4510    0.2051   -2.3682 O   0  0  0  0  0  0  0  0  0  0  0  0 
    1.4798   -0.6972    2.4496 H   0  0  0  0  0  0  0  0  0  0  0  0 
    0.9614   -1.5986    1.0049 H   0  0  0  0  0  0  0  0  0  0  0  0 
    0.9829    0.1854    0.9949 H   0  0  0  0  0  0  0  0  0  0  0  0 
    3.6445   -1.7360    2.5560 H   0  0  0  0  0  0  0  0  0  0  0  0 
    4.6899   -1.7602    1.1260 H   0  0  0  0  0  0  0  0  0  0  0  0 
    3.2310   -2.7735    1.1644 H   0  0  0  0  0  0  0  0  0  0  0  0 
    2.9789   -1.5710   -1.0315 H   0  0  0  0  0  0  0  0  0  0  0  0 
    2.1816    0.0082   -0.9325 H   0  0  0  0  0  0  0  0  0  0  0  0 
    5.1957   -0.3727   -0.5211 H   0  0  0  0  0  0  0  0  0  0  0  0 
    4.2956    1.1667   -0.5969 H   0  0  0  0  0  0  0  0  0  0  0  0 
    5.8744   -2.5478   -3.0081 H   0  0  0  0  0  0  0  0  0  0  0  0 
    5.4414   -1.2954   -4.7806 H   0  0  0  0  0  0  0  0  0  0  0  0 
  1 10  1  0  0  0  0 
  2 13  1  0  0  0  0 
  3  7  1  0  0  0  0 
  4 19  1  0  0  0  0 
  4  3  1  0  0  0  0 
  4 18  1  0  0  0  0 
  5  6  2  0  0  0  0 
  5  9  1  0  0  0  0 
  7  1  1  0  0  0  0 
  7  2  1  0  0  0  0 
  8  5  1  0  0  0  0 
  9  4  1  0  0  0  0 
 11  1  1  0  0  0  0 
 12  1  1  0  0  0  0 
 14  2  1  0  0  0  0 
 15  2  1  0  0  0  0 
 16  3  1  0  0  0  0 
 17  3  1  0  0  0  0 
 20  6  1  0  0  0  0 
 21  8  1  0  0  0  0 
M  END 
>  <HBA> 
4 
 
>  <HBD> 
1 
 
>  <TPSA> 
55.56 
 
>  <cid> 
48131 
 
>  <dipole> 
1.77 
 
>  <excitation_energy_1> 
4.955 
 
>  <excitation_energy_2> 
5.431 
 
>  <excitation_energy_3> 
5.926 
 
>  <excitation_energy_4> 
5.94 
 
>  <homo_energy> 
-5.693 
 
>  <homo_lumo_gap> 
6.942 
 
>  <logP> 
0.344 
 
>  <lumo_energy> 
1.249 
 
>  <melting_point> 
53.76 
 
>  <molecular_refractivity> 
33.43 
 
>  <oscillator_strength_1> 
0.0028 
 
>  <oscillator_strength_2> 
0.0131 
 
>  <oscillator_strength_3> 
0.0009 
 
>  <oscillator_strength_4> 
0.0523 
 
>  <open_babel_can_smiles> 
CN(CCOC(=N)O)C 
 
>  <mulliken_charges> 
21 
1   -0.294463 
2   -0.303102 
3   -0.141159 
4   -0.034045 
5   0.645103 
6   -0.632006 
7   -0.375769 
8   -0.567842 
9   -0.449139 
10   0.147687 
11   0.118873 
12   0.149594 
13   0.146688 
14   0.162695 
15   0.1216 
16   0.141991 
17   0.143516 
18   0.176692 
19   0.159912 
20   0.275746 
21   0.407428 
 
>  <lowdin_charges> 
21 
1   -0.354243 
2   -0.353644 
3   -0.211591 
4   -0.12791 
5   0.190683 
6   -0.479188 
7   -0.185435 
8   -0.365788 
9   -0.177678 
10   0.147073 
11   0.121301 
12   0.150223 
13   0.146382 
14   0.154587 
15   0.122154 
16   0.13581 
17   0.14997 
18   0.16204 
19   0.15562 
20   0.258027 
21   0.361607 
 
$$$$ 
 
