PCCDB-ID:  13216 
public computational chemistry database (PCCDB) project, http://pccdb.org 
 
 29 30  0  0  1  0  0  0  0  0999 V2000 
   -2.5662    0.7288    0.2738 C   0  0  0  0  0  0  0  0  0  0  0  0 
   -2.5670   -0.7205   -0.2354 C   0  0  0  0  0  0  0  0  0  0  0  0 
   -1.2993    1.4769   -0.1675 C   0  0  0  0  0  0  0  0  0  0  0  0 
   -1.2893   -1.4624    0.1839 C   0  0  0  0  0  0  0  0  0  0  0  0 
    1.2572    1.4780   -0.1917 C   0  0  0  0  0  0  0  0  0  0  0  0 
    2.5335    0.7366    0.2373 C   0  0  0  0  0  0  0  0  0  0  0  0 
    1.2633   -1.4558    0.1698 C   0  0  0  0  0  0  0  0  0  0  0  0 
   -0.0168    0.7406    0.2542 C   0  0  2  0  0  0  0  0  0  0  0  0 
   -0.0179   -0.7187   -0.2593 C   0  0  2  0  0  0  0  0  0  0  0  0 
    2.5469   -0.7212   -0.2533 C   0  0  1  0  0  0  0  0  0  0  0  0 
    2.7619   -0.8017   -1.6670 O   0  0  0  0  0  0  0  0  0  0  0  0 
   -2.6178    0.7252    1.3727 H   0  0  0  0  0  0  0  0  0  0  0  0 
   -3.4612    1.2576   -0.0779 H   0  0  0  0  0  0  0  0  0  0  0  0 
   -2.6387   -0.7176   -1.3333 H   0  0  0  0  0  0  0  0  0  0  0  0 
   -3.4528   -1.2539    0.1324 H   0  0  0  0  0  0  0  0  0  0  0  0 
   -1.2956    2.4947    0.2456 H   0  0  0  0  0  0  0  0  0  0  0  0 
   -1.3051    1.5878   -1.2631 H   0  0  0  0  0  0  0  0  0  0  0  0 
   -1.2866   -2.4800   -0.2291 H   0  0  0  0  0  0  0  0  0  0  0  0 
   -1.2738   -1.5719    1.2792 H   0  0  0  0  0  0  0  0  0  0  0  0 
    1.2433    1.5950   -1.2873 H   0  0  0  0  0  0  0  0  0  0  0  0 
    1.2619    2.4980    0.2142 H   0  0  0  0  0  0  0  0  0  0  0  0 
    2.5993    0.7394    1.3347 H   0  0  0  0  0  0  0  0  0  0  0  0 
    3.4261    1.2487   -0.1408 H   0  0  0  0  0  0  0  0  0  0  0  0 
    1.2785   -2.4681   -0.2532 H   0  0  0  0  0  0  0  0  0  0  0  0 
    1.2623   -1.5653    1.2646 H   0  0  0  0  0  0  0  0  0  0  0  0 
   -0.0043    0.6936    1.3573 H   0  0  0  0  0  0  0  0  0  0  0  0 
   -0.0380   -0.6770   -1.3635 H   0  0  0  0  0  0  0  0  0  0  0  0 
    3.4141   -1.2381    0.1726 H   0  0  0  0  0  0  0  0  0  0  0  0 
    2.0208   -0.3551   -2.1044 H   0  0  0  0  0  0  0  0  0  0  0  0 
  1 12  1  0  0  0  0 
  2 15  1  0  0  0  0 
  2  4  1  0  0  0  0 
  2  1  1  0  0  0  0 
  3 16  1  0  0  0  0 
  3  8  1  0  0  0  0 
  3  1  1  0  0  0  0 
  4 19  1  0  0  0  0 
  5 21  1  0  0  0  0 
  5  6  1  0  0  0  0 
  5  8  1  0  0  0  0 
  6 22  1  0  0  0  0 
  7 25  1  0  0  0  0 
  8 26  1  1  0  0  0 
  9 27  1  6  0  0  0 
  9  7  1  0  0  0  0 
  9  4  1  0  0  0  0 
  9  8  1  0  0  0  0 
 10  7  1  0  0  0  0 
 10 28  1  1  0  0  0 
 10  6  1  0  0  0  0 
 11 10  1  0  0  0  0 
 13  1  1  0  0  0  0 
 14  2  1  0  0  0  0 
 17  3  1  0  0  0  0 
 18  4  1  0  0  0  0 
 20  5  1  0  0  0  0 
 23  6  1  0  0  0  0 
 24  7  1  0  0  0  0 
 29 11  1  0  0  0  0 
M  END 
>  <HBA> 
1 
 
>  <HBD> 
1 
 
>  <TPSA> 
20.23 
 
>  <cid> 
13216 
 
>  <dipole> 
1.88 
 
>  <excitation_energy_1> 
6.383 
 
>  <excitation_energy_2> 
6.677 
 
>  <excitation_energy_3> 
6.936 
 
>  <excitation_energy_4> 
7.048 
 
>  <homo_energy> 
-6.906 
 
>  <homo_lumo_gap> 
8.651 
 
>  <logP> 
2.338 
 
>  <lumo_energy> 
1.744 
 
>  <melting_point> 
34.56 
 
>  <molecular_refractivity> 
47.12 
 
>  <oscillator_strength_1> 
0.012 
 
>  <oscillator_strength_2> 
0.0016 
 
>  <oscillator_strength_3> 
0.0015 
 
>  <oscillator_strength_4> 
0.0159 
 
>  <open_babel_can_smiles> 
O[C@H]1CC[C@@H]2[C@@H](C1)CCCC2 
 
>  <mulliken_charges> 
29 
1   -0.259467 
2   -0.259932 
3   -0.261592 
4   -0.261062 
5   -0.283815 
6   -0.273028 
7   -0.274936 
8   -0.071312 
9   -0.094165 
10   0.133608 
11   -0.636461 
12   0.128008 
13   0.130638 
14   0.127532 
15   0.131076 
16   0.128299 
17   0.12272 
18   0.130608 
19   0.125864 
20   0.116621 
21   0.135169 
22   0.127235 
23   0.143016 
24   0.140348 
25   0.123865 
26   0.111895 
27   0.099044 
28   0.130129 
29   0.390094 
 
>  <lowdin_charges> 
29 
1   -0.276003 
2   -0.276315 
3   -0.274295 
4   -0.272954 
5   -0.278407 
6   -0.293471 
7   -0.291352 
8   -0.130081 
9   -0.132529 
10   -0.002065 
11   -0.472131 
12   0.135468 
13   0.144293 
14   0.135143 
15   0.144649 
16   0.141504 
17   0.133475 
18   0.142806 
19   0.13517 
20   0.12896 
21   0.145721 
22   0.140618 
23   0.151537 
24   0.148726 
25   0.139759 
26   0.129568 
27   0.121586 
28   0.144836 
29   0.335785 
 
$$$$ 
 
