PCCDB-ID:  23571 
public computational chemistry database (PCCDB) project, http://pccdb.org 
 
 18 18  0  0  0  0  0  0  0  0999 V2000 
    1.0941   -0.2113    0.0912 C   0  0  0  0  0  0  0  0  0  0  0  0 
    3.6602    3.3630   -0.5088 C   0  0  0  0  0  0  0  0  0  0  0  0 
    4.8757   -0.9023   -0.3307 C   0  0  0  0  0  0  0  0  0  0  0  0 
    2.5719   -0.1381   -0.0983 C   0  0  0  0  0  0  0  0  0  0  0  0 
    3.4272   -1.3394   -0.1186 C   0  0  0  0  0  0  0  0  0  0  0  0 
    4.7865    0.6134   -0.4287 C   0  0  0  0  0  0  0  0  0  0  0  0 
    3.3383    0.9771   -0.2776 C   0  0  0  0  0  0  0  0  0  0  0  0 
    3.0383   -2.4875    0.0116 O   0  0  0  0  0  0  0  0  0  0  0  0 
    5.7117    1.3867   -0.5949 O   0  0  0  0  0  0  0  0  0  0  0  0 
    2.8223    2.2103   -0.3020 O   0  0  0  0  0  0  0  0  0  0  0  0 
    0.8536   -0.6939    1.0462 H   0  0  0  0  0  0  0  0  0  0  0  0 
    0.6383   -0.8306   -0.6906 H   0  0  0  0  0  0  0  0  0  0  0  0 
    0.6395    0.7817    0.0699 H   0  0  0  0  0  0  0  0  0  0  0  0 
    2.9698    4.2079   -0.5028 H   0  0  0  0  0  0  0  0  0  0  0  0 
    4.1806    3.3064   -1.4669 H   0  0  0  0  0  0  0  0  0  0  0  0 
    4.3925    3.4671    0.2944 H   0  0  0  0  0  0  0  0  0  0  0  0 
    5.3023   -1.3354   -1.2430 H   0  0  0  0  0  0  0  0  0  0  0  0 
    5.5194   -1.2083    0.5022 H   0  0  0  0  0  0  0  0  0  0  0  0 
  1 11  1  0  0  0  0 
  2 14  1  0  0  0  0 
  2 10  1  0  0  0  0 
  2 16  1  0  0  0  0 
  3  5  1  0  0  0  0 
  3 18  1  0  0  0  0 
  4  1  1  0  0  0  0 
  5  4  1  0  0  0  0 
  5  8  2  0  0  0  0 
  6  3  1  0  0  0  0 
  6  7  1  0  0  0  0 
  7  4  2  0  0  0  0 
  9  6  2  0  0  0  0 
 10  7  1  0  0  0  0 
 12  1  1  0  0  0  0 
 13  1  1  0  0  0  0 
 15  2  1  0  0  0  0 
 17  3  1  0  0  0  0 
M  END 
>  <HBA> 
3 
 
>  <HBD> 
0 
 
>  <TPSA> 
43.37 
 
>  <cid> 
23571 
 
>  <dipole> 
2.71 
 
>  <excitation_energy_1> 
3.136 
 
>  <excitation_energy_2> 
3.783 
 
>  <excitation_energy_3> 
4.354 
 
>  <excitation_energy_4> 
5.162 
 
>  <homo_energy> 
-6.651 
 
>  <homo_lumo_gap> 
4.446 
 
>  <logP> 
0.449 
 
>  <lumo_energy> 
-2.204 
 
>  <melting_point> 
45.81 
 
>  <molecular_refractivity> 
34.66 
 
>  <oscillator_strength_1> 
0.0 
 
>  <oscillator_strength_2> 
0.0001 
 
>  <oscillator_strength_3> 
0.256 
 
>  <oscillator_strength_4> 
0.0002 
 
>  <open_babel_can_smiles> 
COC1=C(C)C(=O)CC1=O 
 
>  <mulliken_charges> 
18 
1   -0.520406 
2   -0.212918 
3   -0.455205 
4   0.054086 
5   0.404132 
6   0.417518 
7   0.287099 
8   -0.471514 
9   -0.463356 
10   -0.501641 
11   0.180921 
12   0.181029 
13   0.172756 
14   0.167654 
15   0.177575 
16   0.177682 
17   0.202227 
18   0.202362 
 
>  <lowdin_charges> 
18 
1   -0.437963 
2   -0.269643 
3   -0.330269 
4   -0.049109 
5   0.13843 
6   0.140219 
7   0.063057 
8   -0.241564 
9   -0.227386 
10   -0.171932 
11   0.17534 
12   0.176536 
13   0.168368 
14   0.161697 
15   0.162353 
16   0.163236 
17   0.189118 
18   0.189511 
 
$$$$ 
 
