PCCDB-ID:  30461 
public computational chemistry database (PCCDB) project, http://pccdb.org 
 
 29 30  0  0  0  0  0  0  0  0999 V2000 
    2.0231   -1.7085   -3.3345 C   0  0  0  0  0  0  0  0  0  0  0  0 
    3.3870   -1.6344   -2.6413 C   0  0  0  0  0  0  0  0  0  0  0  0 
    8.5808   -1.6850    2.4287 C   0  0  0  0  0  0  0  0  0  0  0  0 
    7.9077   -0.5951    1.8863 C   0  0  0  0  0  0  0  0  0  0  0  0 
    3.2609   -1.2309   -1.1646 C   0  0  0  0  0  0  0  0  0  0  0  0 
    7.0023   -3.1981    1.4138 C   0  0  0  0  0  0  0  0  0  0  0  0 
    5.4248   -0.0481   -0.6246 C   0  0  0  0  0  0  0  0  0  0  0  0 
    8.1460   -3.0049    2.1952 C   0  0  0  0  0  0  0  0  0  0  0  0 
    6.3185   -2.1102    0.8645 C   0  0  0  0  0  0  0  0  0  0  0  0 
    6.7798   -0.8063    1.0946 C   0  0  0  0  0  0  0  0  0  0  0  0 
    5.0382   -2.3268    0.1314 C   0  0  0  0  0  0  0  0  0  0  0  0 
    8.8032   -4.0875    2.7975 N   0  0  0  0  0  0  0  0  0  0  0  0 
    4.5327   -1.1806   -0.4477 N   0  0  0  0  0  0  0  0  0  0  0  0 
    4.4525   -3.4058    0.0979 O   0  0  0  0  0  0  0  0  0  0  0  0 
    6.1089    0.2768    0.5732 O   0  0  0  0  0  0  0  0  0  0  0  0 
    2.1291   -1.9958   -4.3861 H   0  0  0  0  0  0  0  0  0  0  0  0 
    1.5051   -0.7416   -3.3046 H   0  0  0  0  0  0  0  0  0  0  0  0 
    1.3746   -2.4485   -2.8506 H   0  0  0  0  0  0  0  0  0  0  0  0 
    4.0321   -0.9178   -3.1689 H   0  0  0  0  0  0  0  0  0  0  0  0 
    3.8862   -2.6092   -2.6877 H   0  0  0  0  0  0  0  0  0  0  0  0 
    9.4608   -1.5155    3.0452 H   0  0  0  0  0  0  0  0  0  0  0  0 
    8.2508    0.4192    2.0635 H   0  0  0  0  0  0  0  0  0  0  0  0 
    2.6317   -1.9546   -0.6403 H   0  0  0  0  0  0  0  0  0  0  0  0 
    2.7879   -0.2440   -1.0769 H   0  0  0  0  0  0  0  0  0  0  0  0 
    6.6030   -4.1924    1.2346 H   0  0  0  0  0  0  0  0  0  0  0  0 
    4.8355    0.8294   -0.8981 H   0  0  0  0  0  0  0  0  0  0  0  0 
    6.1735   -0.2460   -1.4100 H   0  0  0  0  0  0  0  0  0  0  0  0 
    9.7884   -3.9340    2.9757 H   0  0  0  0  0  0  0  0  0  0  0  0 
    8.6552   -4.9748    2.3318 H   0  0  0  0  0  0  0  0  0  0  0  0 
  1 17  1  0  0  0  0 
  1 18  1  0  0  0  0 
  1  2  1  0  0  0  0 
  2  5  1  0  0  0  0 
  3 21  1  0  0  0  0 
  4 22  1  0  0  0  0 
  4  3  2  0  0  0  0 
  5 24  1  0  0  0  0 
  5 23  1  0  0  0  0 
  5 13  1  0  0  0  0 
  6  8  2  0  0  0  0 
  7 13  1  0  0  0  0 
  7 15  1  0  0  0  0 
  8  3  1  0  0  0  0 
  8 12  1  0  0  0  0 
  9 10  2  0  0  0  0 
  9  6  1  0  0  0  0 
 10  4  1  0  0  0  0 
 11  9  1  0  0  0  0 
 12 28  1  0  0  0  0 
 13 11  1  0  0  0  0 
 14 11  2  0  0  0  0 
 15 10  1  0  0  0  0 
 16  1  1  0  0  0  0 
 19  2  1  0  0  0  0 
 20  2  1  0  0  0  0 
 25  6  1  0  0  0  0 
 26  7  1  0  0  0  0 
 27  7  1  0  0  0  0 
 29 12  1  0  0  0  0 
M  END 
>  <HBA> 
4 
 
>  <HBD> 
1 
 
>  <TPSA> 
55.56 
 
>  <cid> 
30461 
 
>  <dipole> 
3.04 
 
>  <excitation_energy_1> 
3.741 
 
>  <excitation_energy_2> 
4.535 
 
>  <excitation_energy_3> 
4.694 
 
>  <excitation_energy_4> 
4.947 
 
>  <homo_energy> 
-5.323 
 
>  <homo_lumo_gap> 
4.403 
 
>  <logP> 
1.99 
 
>  <lumo_energy> 
-0.92 
 
>  <melting_point> 
118.36 
 
>  <molecular_refractivity> 
61.84 
 
>  <oscillator_strength_1> 
0.0539 
 
>  <oscillator_strength_2> 
0.0025 
 
>  <oscillator_strength_3> 
0.0039 
 
>  <oscillator_strength_4> 
0.0051 
 
>  <open_babel_can_smiles> 
CCCN1COc2c(C1=O)cc(cc2)N 
 
>  <mulliken_charges> 
29 
1   -0.448065 
2   -0.258518 
3   -0.169282 
4   -0.18389 
5   -0.139894 
6   -0.234778 
7   0.087414 
8   0.308619 
9   0.026489 
10   0.307266 
11   0.591341 
12   -0.788945 
13   -0.467434 
14   -0.534843 
15   -0.519895 
16   0.149335 
17   0.141233 
18   0.154022 
19   0.129173 
20   0.164126 
21   0.125643 
22   0.141476 
23   0.181157 
24   0.138654 
25   0.15275 
26   0.160396 
27   0.146899 
28   0.317456 
29   0.322095 
 
>  <lowdin_charges> 
29 
1   -0.444133 
2   -0.28491 
3   -0.173682 
4   -0.17152 
5   -0.19771 
6   -0.168511 
7   -0.058968 
8   0.047428 
9   -0.071052 
10   0.078858 
11   0.160656 
12   -0.489429 
13   -0.119929 
14   -0.310128 
15   -0.201604 
16   0.153022 
17   0.145961 
18   0.15402 
19   0.13867 
20   0.156459 
21   0.157635 
22   0.168196 
23   0.171752 
24   0.143559 
25   0.172972 
26   0.160315 
27   0.133651 
28   0.272154 
29   0.276272 
 
$$$$ 
 
