PCCDB-ID:  14288 
public computational chemistry database (PCCDB) project, http://pccdb.org 
 
 15 15  0  0  0  0  0  0  0  0999 V2000 
    2.8478    1.2087   -1.1205 C   0  0  0  0  0  0  0  0  0  0  0  0 
    3.2481   -3.3664   -0.4584 C   0  0  0  0  0  0  0  0  0  0  0  0 
    4.8180   -2.3852   -1.8198 C   0  0  0  0  0  0  0  0  0  0  0  0 
    3.0221   -1.1532   -0.7538 C   0  0  0  0  0  0  0  0  0  0  0  0 
    5.8328   -2.2899   -2.5881 N   0  0  0  0  0  0  0  0  0  0  0  0 
    4.3058   -3.5190   -1.2061 N   0  0  0  0  0  0  0  0  0  0  0  0 
    2.5453   -2.2262   -0.1783 N   0  0  0  0  0  0  0  0  0  0  0  0 
    4.1120   -1.1745   -1.5531 N   0  0  0  0  0  0  0  0  0  0  0  0 
    2.3826   -0.0041   -0.5213 O   0  0  0  0  0  0  0  0  0  0  0  0 
    2.1618    1.9813   -0.7743 H   0  0  0  0  0  0  0  0  0  0  0  0 
    2.8066    1.1536   -2.2147 H   0  0  0  0  0  0  0  0  0  0  0  0 
    3.8636    1.4527   -0.7881 H   0  0  0  0  0  0  0  0  0  0  0  0 
    2.8549   -4.2633    0.0185 H   0  0  0  0  0  0  0  0  0  0  0  0 
    6.2458   -3.2173   -2.6970 H   0  0  0  0  0  0  0  0  0  0  0  0 
    4.4921   -0.3520   -2.0043 H   0  0  0  0  0  0  0  0  0  0  0  0 
  1 12  1  0  0  0  0 
  1 10  1  0  0  0  0 
  1  9  1  0  0  0  0 
  2  7  1  0  0  0  0 
  2 13  1  0  0  0  0 
  3  8  1  0  0  0  0 
  3  6  2  0  0  0  0 
  4  9  1  0  0  0  0 
  4  7  2  0  0  0  0 
  5  3  1  0  0  0  0 
  6  2  2  0  0  0  0 
  8  4  1  0  0  0  0 
 11  1  1  0  0  0  0 
 14  5  1  0  0  0  0 
 15  8  1  0  0  0  0 
M  RAD  1   5   2 
M  END 
>  <HBA> 
5 
 
>  <HBD> 
1 
 
>  <TPSA> 
73.92 
 
>  <cid> 
14288 
 
>  <dipole> 
4.05 
 
>  <excitation_energy_1> 
4.324 
 
>  <excitation_energy_2> 
4.742 
 
>  <excitation_energy_3> 
5.372 
 
>  <excitation_energy_4> 
5.412 
 
>  <homo_energy> 
-6.242 
 
>  <homo_lumo_gap> 
5.124 
 
>  <logP> 
0.044 
 
>  <lumo_energy> 
-1.118 
 
>  <melting_point> 
105.1 
 
>  <molecular_refractivity> 
30.72 
 
>  <oscillator_strength_1> 
0.0571 
 
>  <oscillator_strength_2> 
0.0011 
 
>  <oscillator_strength_3> 
0.0044 
 
>  <oscillator_strength_4> 
0.0001 
 
>  <open_babel_can_smiles> 
COC1=NC=[N]=C(N1)[NH] 
 
>  <mulliken_charges> 
15 
1   -0.256021 
2   0.17065 
3   0.60185 
4   0.78161 
5   -0.661852 
6   -0.434194 
7   -0.476986 
8   -0.653806 
9   -0.442812 
10   0.202195 
11   0.174915 
12   0.174728 
13   0.163087 
14   0.301104 
15   0.355533 
 
>  <lowdin_charges> 
15 
1   -0.280441 
2   -0.007509 
3   0.114055 
4   0.203791 
5   -0.441425 
6   -0.213519 
7   -0.23317 
8   -0.227453 
9   -0.149212 
10   0.182706 
11   0.155711 
12   0.156979 
13   0.166087 
14   0.267091 
15   0.306309 
 
$$$$ 
 
