PCCDB-ID:  25797 
public computational chemistry database (PCCDB) project, http://pccdb.org 
 
 22 22  0  0  0  0  0  0  0  0999 V2000 
    3.2339   -0.3684   -1.1581 C   0  0  0  0  0  0  0  0  0  0  0  0 
    6.1280   -1.8624    5.0015 C   0  0  0  0  0  0  0  0  0  0  0  0 
    2.4932    0.1897    0.0684 C   0  0  0  0  0  0  0  0  0  0  0  0 
    4.5907   -1.8938    4.9756 C   0  0  0  0  0  0  0  0  0  0  0  0 
    3.6923    0.4464    2.3076 C   0  0  0  0  0  0  0  0  0  0  0  0 
    3.3613   -2.1443    2.7521 C   0  0  0  0  0  0  0  0  0  0  0  0 
    3.0316   -0.3577    1.3688 C   0  0  0  0  0  0  0  0  0  0  0  0 
    4.0228   -1.3401    3.6906 C   0  0  0  0  0  0  0  0  0  0  0  0 
    2.8706   -1.6697    1.6054 N   0  0  0  0  0  0  0  0  0  0  0  0 
    4.1849   -0.0285    3.4535 N   0  0  0  0  0  0  0  0  0  0  0  0 
    2.7879    0.0072   -2.0855 H   0  0  0  0  0  0  0  0  0  0  0  0 
    3.1817   -1.4615   -1.1665 H   0  0  0  0  0  0  0  0  0  0  0  0 
    4.2910   -0.0790   -1.1477 H   0  0  0  0  0  0  0  0  0  0  0  0 
    6.5078   -2.2232    5.9636 H   0  0  0  0  0  0  0  0  0  0  0  0 
    6.4882   -0.8403    4.8487 H   0  0  0  0  0  0  0  0  0  0  0  0 
    6.5504   -2.4932    4.2110 H   0  0  0  0  0  0  0  0  0  0  0  0 
    1.4302   -0.0724   -0.0050 H   0  0  0  0  0  0  0  0  0  0  0  0 
    2.5536    1.2847    0.0800 H   0  0  0  0  0  0  0  0  0  0  0  0 
    4.2058   -1.2957    5.8109 H   0  0  0  0  0  0  0  0  0  0  0  0 
    4.2317   -2.9197    5.1221 H   0  0  0  0  0  0  0  0  0  0  0  0 
    3.8235    1.5125    2.1255 H   0  0  0  0  0  0  0  0  0  0  0  0 
    3.2217   -3.2085    2.9386 H   0  0  0  0  0  0  0  0  0  0  0  0 
  1 13  1  0  0  0  0 
  1  3  1  0  0  0  0 
  2 14  1  0  0  0  0 
  3 18  1  0  0  0  0 
  3  7  1  0  0  0  0 
  4  2  1  0  0  0  0 
  4 20  1  0  0  0  0 
  4 19  1  0  0  0  0 
  5 10  2  0  0  0  0 
  6 22  1  0  0  0  0 
  6  8  2  0  0  0  0 
  7  9  2  0  0  0  0 
  7  5  1  0  0  0  0 
  8  4  1  0  0  0  0 
  9  6  1  0  0  0  0 
 10  8  1  0  0  0  0 
 11  1  1  0  0  0  0 
 12  1  1  0  0  0  0 
 15  2  1  0  0  0  0 
 16  2  1  0  0  0  0 
 17  3  1  0  0  0  0 
 21  5  1  0  0  0  0 
M  END 
>  <HBA> 
2 
 
>  <HBD> 
0 
 
>  <TPSA> 
25.78 
 
>  <cid> 
25797 
 
>  <dipole> 
0.1 
 
>  <excitation_energy_1> 
3.951 
 
>  <excitation_energy_2> 
4.769 
 
>  <excitation_energy_3> 
5.01 
 
>  <excitation_energy_4> 
5.555 
 
>  <homo_energy> 
-6.517 
 
>  <homo_lumo_gap> 
5.317 
 
>  <logP> 
1.601 
 
>  <lumo_energy> 
-1.2 
 
>  <melting_point> 
41.67 
 
>  <molecular_refractivity> 
41.58 
 
>  <oscillator_strength_1> 
0.0053 
 
>  <oscillator_strength_2> 
0.0004 
 
>  <oscillator_strength_3> 
0.1441 
 
>  <oscillator_strength_4> 
0.0001 
 
>  <open_babel_can_smiles> 
CCc1ncc(nc1)CC 
 
>  <mulliken_charges> 
22 
1   -0.442546 
2   -0.442549 
3   -0.318511 
4   -0.318274 
5   -0.007744 
6   -0.007191 
7   0.299527 
8   0.298736 
9   -0.436096 
10   -0.435757 
11   0.145883 
12   0.170095 
13   0.145555 
14   0.146156 
15   0.169618 
16   0.145646 
17   0.161064 
18   0.141424 
19   0.161107 
20   0.141425 
21   0.141218 
22   0.141214 
 
>  <lowdin_charges> 
22 
1   -0.437135 
2   -0.440353 
3   -0.270576 
4   -0.274615 
5   -0.115084 
6   -0.115026 
7   0.03218 
8   0.032296 
9   -0.129725 
10   -0.129746 
11   0.151743 
12   0.158835 
13   0.147667 
14   0.151604 
15   0.15981 
16   0.150155 
17   0.15939 
18   0.145962 
19   0.161966 
20   0.147277 
21   0.156676 
22   0.156697 
 
$$$$ 
 
