PCCDB-ID:  16782 
public computational chemistry database (PCCDB) project, http://pccdb.org 
 
 11 10  0  0  0  0  0  0  0  0999 V2000 
   -1.1703    0.3523    0.1408 C   0  0  0  0  0  0  0  0  0  0  0  0 
    0.1550    0.9320   -0.2783 C   0  0  0  0  0  0  0  0  0  0  0  0 
    2.8954    0.1062   -1.3159 N   0  0  0  0  0  0  0  0  0  0  0  0 
    0.3743    1.8606   -0.9976 O   0  0  0  0  0  0  0  0  0  0  0  0 
    2.1255   -0.6006   -1.8985 O   0  0  0  0  0  0  0  0  0  0  0  0 
    4.0040    0.4917   -1.5529 O   0  0  0  0  0  0  0  0  0  0  0  0 
    1.1647    0.1538    0.3150 O   0  0  0  0  0  0  0  0  0  0  0  0 
    2.4452    0.6598    0.0122 O   0  0  0  0  0  0  0  0  0  0  0  0 
   -1.3259   -0.6041   -0.3699 H   0  0  0  0  0  0  0  0  0  0  0  0 
   -1.9604    1.0485   -0.1429 H   0  0  0  0  0  0  0  0  0  0  0  0 
   -1.1947    0.1664    1.2181 H   0  0  0  0  0  0  0  0  0  0  0  0 
  1 11  1  0  0  0  0 
  2  1  1  0  0  0  0 
  2  7  1  0  0  0  0 
  3  8  1  0  0  0  0 
  4  2  2  0  0  0  0 
  5  3  2  0  0  0  0 
  6  3  2  0  0  0  0 
  8  7  1  0  0  0  0 
  9  1  1  0  0  0  0 
 10  1  1  0  0  0  0 
M  END 
>  <HBA> 
2 
 
>  <HBD> 
0 
 
>  <TPSA> 
81.35 
 
>  <cid> 
16782 
 
>  <dipole> 
3.26 
 
>  <excitation_energy_1> 
4.997 
 
>  <excitation_energy_2> 
5.15 
 
>  <excitation_energy_3> 
5.424 
 
>  <excitation_energy_4> 
5.772 
 
>  <homo_energy> 
-8.359 
 
>  <homo_lumo_gap> 
6.076 
 
>  <logP> 
0.196 
 
>  <lumo_energy> 
-2.283 
 
>  <melting_point> 
21.64 
 
>  <molecular_refractivity> 
22.2 
 
>  <oscillator_strength_1> 
0.0013 
 
>  <oscillator_strength_2> 
0.0022 
 
>  <oscillator_strength_3> 
0.0009 
 
>  <oscillator_strength_4> 
0.0011 
 
>  <open_babel_can_smiles> 
CC(=O)OON(=O)=O 
 
>  <mulliken_charges> 
11 
1   -0.538465 
2   0.618704 
3   0.761821 
4   -0.409623 
5   -0.324765 
6   -0.314471 
7   -0.245451 
8   -0.156477 
9   0.207787 
10   0.202607 
11   0.198334 
 
>  <lowdin_charges> 
11 
1   -0.461672 
2   0.203987 
3   0.374397 
4   -0.200262 
5   -0.162374 
6   -0.149336 
7   -0.090094 
8   -0.081483 
9   0.192571 
10   0.189467 
11   0.184798 
 
$$$$ 
 
