PCCDB-ID:  10989 
public computational chemistry database (PCCDB) project, http://pccdb.org 
 
 33 32  0  0  0  0  0  0  0  0999 V2000 
    3.4623    4.6208   -1.5502 C   0  0  0  0  0  0  0  0  0  0  0  0 
    2.4215    2.4080   -0.8830 C   0  0  0  0  0  0  0  0  0  0  0  0 
    9.7287    0.7010   -0.2525 C   0  0  0  0  0  0  0  0  0  0  0  0 
   10.8847    2.9373   -0.0589 C   0  0  0  0  0  0  0  0  0  0  0  0 
    4.0330    3.5874    0.7288 C   0  0  0  0  0  0  0  0  0  0  0  0 
    8.4354    2.7633    0.5430 C   0  0  0  0  0  0  0  0  0  0  0  0 
    5.3084    2.8490    0.3293 C   0  0  0  0  0  0  0  0  0  0  0  0 
    7.3296    2.0283    1.3103 C   0  0  0  0  0  0  0  0  0  0  0  0 
    2.9705    3.7532   -0.3798 C   0  0  0  0  0  0  0  0  0  0  0  0 
    9.7908    2.0282    0.5208 C   0  0  0  0  0  0  0  0  0  0  0  0 
    6.1482    2.8003    1.4738 O   0  0  0  0  0  0  0  0  0  0  0  0 
    2.6461    4.8262   -2.2531 H   0  0  0  0  0  0  0  0  0  0  0  0 
    4.2614    4.1256   -2.1152 H   0  0  0  0  0  0  0  0  0  0  0  0 
    3.8505    5.5841   -1.1978 H   0  0  0  0  0  0  0  0  0  0  0  0 
    1.5787    2.5623   -1.5672 H   0  0  0  0  0  0  0  0  0  0  0  0 
    2.0681    1.7844   -0.0528 H   0  0  0  0  0  0  0  0  0  0  0  0 
    3.1829    1.8372   -1.4286 H   0  0  0  0  0  0  0  0  0  0  0  0 
   10.7093    0.2105   -0.2657 H   0  0  0  0  0  0  0  0  0  0  0  0 
    9.4299    0.8722   -1.2953 H   0  0  0  0  0  0  0  0  0  0  0  0 
    9.0148   -0.0038    0.1873 H   0  0  0  0  0  0  0  0  0  0  0  0 
   11.8620    2.4402   -0.0458 H   0  0  0  0  0  0  0  0  0  0  0  0 
   10.9729    3.8697    0.5110 H   0  0  0  0  0  0  0  0  0  0  0  0 
   10.6617    3.2035   -1.1004 H   0  0  0  0  0  0  0  0  0  0  0  0 
    4.3229    4.5777    1.1036 H   0  0  0  0  0  0  0  0  0  0  0  0 
    3.5901    3.0520    1.5789 H   0  0  0  0  0  0  0  0  0  0  0  0 
    8.5625    3.7465    1.0151 H   0  0  0  0  0  0  0  0  0  0  0  0 
    8.1149    2.9522   -0.4916 H   0  0  0  0  0  0  0  0  0  0  0  0 
    5.8111    3.3629   -0.5043 H   0  0  0  0  0  0  0  0  0  0  0  0 
    5.0821    1.8237   -0.0087 H   0  0  0  0  0  0  0  0  0  0  0  0 
    7.6764    1.8064    2.3272 H   0  0  0  0  0  0  0  0  0  0  0  0 
    7.0832    1.0683    0.8288 H   0  0  0  0  0  0  0  0  0  0  0  0 
    2.1321    4.2891    0.0892 H   0  0  0  0  0  0  0  0  0  0  0  0 
   10.0640    1.7993    1.5630 H   0  0  0  0  0  0  0  0  0  0  0  0 
  1 14  1  0  0  0  0 
  1  9  1  0  0  0  0 
  2  9  1  0  0  0  0 
  2 16  1  0  0  0  0 
  3 20  1  0  0  0  0 
  3 10  1  0  0  0  0 
  4 21  1  0  0  0  0 
  4 22  1  0  0  0  0 
  4 10  1  0  0  0  0 
  5 24  1  0  0  0  0 
  5 25  1  0  0  0  0 
  6 26  1  0  0  0  0 
  6  8  1  0  0  0  0 
  7  5  1  0  0  0  0 
  7 11  1  0  0  0  0 
  8 11  1  0  0  0  0 
  8 30  1  0  0  0  0 
  9 32  1  0  0  0  0 
  9  5  1  0  0  0  0 
 10  6  1  0  0  0  0 
 10 33  1  0  0  0  0 
 12  1  1  0  0  0  0 
 13  1  1  0  0  0  0 
 15  2  1  0  0  0  0 
 17  2  1  0  0  0  0 
 18  3  1  0  0  0  0 
 19  3  1  0  0  0  0 
 23  4  1  0  0  0  0 
 27  6  1  0  0  0  0 
 28  7  1  0  0  0  0 
 29  7  1  0  0  0  0 
 31  8  1  0  0  0  0 
M  END 
>  <HBA> 
1 
 
>  <HBD> 
0 
 
>  <TPSA> 
9.23 
 
>  <cid> 
10989 
 
>  <dipole> 
1.04 
 
>  <excitation_energy_1> 
6.216 
 
>  <excitation_energy_2> 
6.535 
 
>  <excitation_energy_3> 
6.631 
 
>  <excitation_energy_4> 
6.696 
 
>  <homo_energy> 
-6.588 
 
>  <homo_lumo_gap> 
8.751 
 
>  <logP> 
3.095 
 
>  <lumo_energy> 
2.163 
 
>  <melting_point> 
-38.17 
 
>  <molecular_refractivity> 
51.27 
 
>  <oscillator_strength_1> 
0.0076 
 
>  <oscillator_strength_2> 
0.0089 
 
>  <oscillator_strength_3> 
0.0119 
 
>  <oscillator_strength_4> 
0.0144 
 
>  <open_babel_can_smiles> 
CC(CCOCCC(C)C)C 
 
>  <mulliken_charges> 
33 
1   -0.445022 
2   -0.445161 
3   -0.446111 
4   -0.440569 
5   -0.269623 
6   -0.270967 
7   -0.016965 
8   -0.017534 
9   -0.074365 
10   -0.072744 
11   -0.483268 
12   0.140635 
13   0.14061 
14   0.142 
15   0.140695 
16   0.141953 
17   0.140639 
18   0.14181 
19   0.138728 
20   0.144638 
21   0.139719 
22   0.14197 
23   0.138814 
24   0.140225 
25   0.139538 
26   0.140579 
27   0.129165 
28   0.122388 
29   0.116086 
30   0.137011 
31   0.117198 
32   0.1262 
33   0.121727 
 
>  <lowdin_charges> 
33 
1   -0.44947 
2   -0.450638 
3   -0.447464 
4   -0.441551 
5   -0.283522 
6   -0.291982 
7   -0.133474 
8   -0.132585 
9   -0.121409 
10   -0.118387 
11   -0.274341 
12   0.149385 
13   0.145506 
14   0.148466 
15   0.14919 
16   0.149491 
17   0.145861 
18   0.148926 
19   0.144261 
20   0.148926 
21   0.147245 
22   0.148509 
23   0.144371 
24   0.147556 
25   0.148288 
26   0.147356 
27   0.137959 
28   0.127139 
29   0.123527 
30   0.142658 
31   0.125417 
32   0.141149 
33   0.133638 
 
$$$$ 
 
