PCCDB-ID:  23847 
public computational chemistry database (PCCDB) project, http://pccdb.org 
 
 22 21  0  0  0  0  0  0  0  0999 V2000 
    2.8509   -2.4005    2.4663 C   0  0  0  0  0  0  0  0  0  0  0  0 
    6.6478    0.8339   -0.2848 C   0  0  0  0  0  0  0  0  0  0  0  0 
    5.6636   -1.3693   -1.0835 C   0  0  0  0  0  0  0  0  0  0  0  0 
    2.6222   -0.8958    2.2868 C   0  0  0  0  0  0  0  0  0  0  0  0 
    3.2028   -0.3427    0.9815 C   0  0  0  0  0  0  0  0  0  0  0  0 
    5.3725   -0.0054   -0.4197 C   0  0  0  0  0  0  0  0  0  0  0  0 
    4.7260   -0.2614    0.9472 C   0  0  0  0  0  0  0  0  0  0  0  0 
    5.4017   -0.3968    1.9517 O   0  0  0  0  0  0  0  0  0  0  0  0 
    2.3982   -2.7576    3.3981 H   0  0  0  0  0  0  0  0  0  0  0  0 
    3.9199   -2.6323    2.5044 H   0  0  0  0  0  0  0  0  0  0  0  0 
    2.4058   -2.9717    1.6414 H   0  0  0  0  0  0  0  0  0  0  0  0 
    7.1226    0.9734   -1.2624 H   0  0  0  0  0  0  0  0  0  0  0  0 
    7.3587    0.3398    0.3838 H   0  0  0  0  0  0  0  0  0  0  0  0 
    6.4317    1.8233    0.1332 H   0  0  0  0  0  0  0  0  0  0  0  0 
    6.0911   -1.2222   -2.0814 H   0  0  0  0  0  0  0  0  0  0  0  0 
    4.7570   -1.9755   -1.1931 H   0  0  0  0  0  0  0  0  0  0  0  0 
    6.3824   -1.9388   -0.4839 H   0  0  0  0  0  0  0  0  0  0  0  0 
    3.0747   -0.3553    3.1257 H   0  0  0  0  0  0  0  0  0  0  0  0 
    1.5462   -0.6816    2.3105 H   0  0  0  0  0  0  0  0  0  0  0  0 
    2.8399    0.6821    0.8015 H   0  0  0  0  0  0  0  0  0  0  0  0 
    2.8566   -0.9228    0.1132 H   0  0  0  0  0  0  0  0  0  0  0  0 
    4.6439    0.5272   -1.0472 H   0  0  0  0  0  0  0  0  0  0  0  0 
  1 10  1  0  0  0  0 
  1  9  1  0  0  0  0 
  2 14  1  0  0  0  0 
  2 13  1  0  0  0  0 
  3 17  1  0  0  0  0 
  3  6  1  0  0  0  0 
  4 19  1  0  0  0  0 
  4  1  1  0  0  0  0 
  4 18  1  0  0  0  0 
  5  4  1  0  0  0  0 
  6  2  1  0  0  0  0 
  6  7  1  0  0  0  0 
  7  5  1  0  0  0  0 
  7  8  2  0  0  0  0 
 11  1  1  0  0  0  0 
 12  2  1  0  0  0  0 
 15  3  1  0  0  0  0 
 16  3  1  0  0  0  0 
 20  5  1  0  0  0  0 
 21  5  1  0  0  0  0 
 22  6  1  0  0  0  0 
M  END 
>  <HBA> 
1 
 
>  <HBD> 
0 
 
>  <TPSA> 
17.07 
 
>  <cid> 
23847 
 
>  <dipole> 
2.46 
 
>  <excitation_energy_1> 
4.349 
 
>  <excitation_energy_2> 
5.929 
 
>  <excitation_energy_3> 
6.562 
 
>  <excitation_energy_4> 
6.661 
 
>  <homo_energy> 
-6.498 
 
>  <homo_lumo_gap> 
6.229 
 
>  <logP> 
2.012 
 
>  <lumo_energy> 
-0.269 
 
>  <melting_point> 
-5.84 
 
>  <molecular_refractivity> 
35.96 
 
>  <oscillator_strength_1> 
0.0005 
 
>  <oscillator_strength_2> 
0.003 
 
>  <oscillator_strength_3> 
0.0057 
 
>  <oscillator_strength_4> 
0.0005 
 
>  <open_babel_can_smiles> 
CCCC(=O)C(C)C 
 
>  <mulliken_charges> 
22 
1   -0.449022 
2   -0.439804 
3   -0.452894 
4   -0.241473 
5   -0.359419 
6   -0.153093 
7   0.464484 
8   -0.458693 
9   0.144216 
10   0.165091 
11   0.133006 
12   0.138478 
13   0.169288 
14   0.146117 
15   0.153698 
16   0.146775 
17   0.164178 
18   0.157302 
19   0.129007 
20   0.161444 
21   0.151341 
22   0.129971 
 
>  <lowdin_charges> 
22 
1   -0.447137 
2   -0.440781 
3   -0.439569 
4   -0.270141 
5   -0.312308 
6   -0.154118 
7   0.16684 
8   -0.242817 
9   0.151399 
10   0.155901 
11   0.142419 
12   0.148493 
13   0.163716 
14   0.151679 
15   0.154643 
16   0.150126 
17   0.159454 
18   0.156251 
19   0.140706 
20   0.164454 
21   0.155967 
22   0.144823 
 
$$$$ 
 
