PCCDB-ID:  11604 
public computational chemistry database (PCCDB) project, http://pccdb.org 
 
 13 12  0  0  0  0  0  0  0  0999 V2000 
    1.8320   -0.0989    1.2394 C   0  0  0  0  0  0  0  0  0  0  0  0 
    2.6302    0.1516    0.2017 C   0  0  0  0  0  0  0  0  0  0  0  0 
    3.1670   -0.8912   -0.7406 C   0  0  0  0  0  0  0  0  0  0  0  0 
    4.7151   -0.9560   -0.6947 C   0  0  0  0  0  0  0  0  0  0  0  0 
    5.2642   -1.9366   -1.6355 C   0  0  0  0  0  0  0  0  0  0  0  0 
    5.6783   -2.7191   -2.3864 N   0  0  0  0  0  0  0  0  0  0  0  0 
    1.4712    0.6947    1.8879 H   0  0  0  0  0  0  0  0  0  0  0  0 
    1.5013   -1.1083    1.4762 H   0  0  0  0  0  0  0  0  0  0  0  0 
    2.9363    1.1796   -0.0003 H   0  0  0  0  0  0  0  0  0  0  0  0 
    2.8611   -0.6638   -1.7704 H   0  0  0  0  0  0  0  0  0  0  0  0 
    2.7556   -1.8758   -0.4933 H   0  0  0  0  0  0  0  0  0  0  0  0 
    5.0482   -1.2127    0.3179 H   0  0  0  0  0  0  0  0  0  0  0  0 
    5.1426    0.0273   -0.9282 H   0  0  0  0  0  0  0  0  0  0  0  0 
  1  8  1  0  0  0  0 
  1  7  1  0  0  0  0 
  2  1  2  0  0  0  0 
  3  4  1  0  0  0  0 
  3 11  1  0  0  0  0 
  3  2  1  0  0  0  0 
  4 12  1  0  0  0  0 
  5  4  1  0  0  0  0 
  6  5  3  0  0  0  0 
  9  2  1  0  0  0  0 
 10  3  1  0  0  0  0 
 13  4  1  0  0  0  0 
M  END 
>  <HBA> 
1 
 
>  <HBD> 
0 
 
>  <TPSA> 
23.79 
 
>  <cid> 
11604 
 
>  <dipole> 
3.91 
 
>  <excitation_energy_1> 
6.625 
 
>  <excitation_energy_2> 
7.082 
 
>  <excitation_energy_3> 
7.214 
 
>  <excitation_energy_4> 
7.309 
 
>  <homo_energy> 
-7.415 
 
>  <homo_lumo_gap> 
7.461 
 
>  <logP> 
1.476 
 
>  <lumo_energy> 
0.046 
 
>  <melting_point> 
-12.6 
 
>  <molecular_refractivity> 
25.42 
 
>  <oscillator_strength_1> 
0.0285 
 
>  <oscillator_strength_2> 
0.3929 
 
>  <oscillator_strength_3> 
0.0196 
 
>  <oscillator_strength_4> 
0.032 
 
>  <open_babel_can_smiles> 
C=CCCC#N 
 
>  <mulliken_charges> 
13 
1   -0.333561 
2   -0.049328 
3   -0.309081 
4   -0.341224 
5   0.349083 
6   -0.470501 
7   0.148422 
8   0.144232 
9   0.132785 
10   0.170354 
11   0.165994 
12   0.200241 
13   0.192584 
 
>  <lowdin_charges> 
13 
1   -0.329445 
2   -0.151148 
3   -0.259611 
4   -0.273831 
5   -0.016988 
6   -0.12785 
7   0.164479 
8   0.15782 
9   0.151704 
10   0.162057 
11   0.160165 
12   0.182978 
13   0.17967 
 
$$$$ 
 
