PCCDB-ID:  20987 
public computational chemistry database (PCCDB) project, http://pccdb.org 
 
 31 32  0  0  0  0  0  0  0  0999 V2000 
    0.9060    0.1403   -0.4317 C   0  0  0  0  0  0  0  0  0  0  0  0 
    6.7543   -9.4376   -0.3541 C   0  0  0  0  0  0  0  0  0  0  0  0 
    7.4489   -8.2267   -0.4743 C   0  0  0  0  0  0  0  0  0  0  0  0 
    5.3700   -9.4340   -0.1744 C   0  0  0  0  0  0  0  0  0  0  0  0 
    6.7688   -7.0162   -0.4158 C   0  0  0  0  0  0  0  0  0  0  0  0 
    4.6818   -8.2236   -0.1148 C   0  0  0  0  0  0  0  0  0  0  0  0 
    5.0797   -2.3773   -0.3379 C   0  0  0  0  0  0  0  0  0  0  0  0 
    3.0147   -3.5846    0.0202 C   0  0  0  0  0  0  0  0  0  0  0  0 
    4.3924   -1.1700   -0.2900 C   0  0  0  0  0  0  0  0  0  0  0  0 
    2.3282   -2.3823    0.0891 C   0  0  0  0  0  0  0  0  0  0  0  0 
    2.8439    1.1854    0.6105 C   0  0  0  0  0  0  0  0  0  0  0  0 
    5.3744   -7.0110   -0.2345 C   0  0  0  0  0  0  0  0  0  0  0  0 
    4.4049   -3.5956   -0.1873 C   0  0  0  0  0  0  0  0  0  0  0  0 
    3.0072   -1.1564   -0.0547 C   0  0  0  0  0  0  0  0  0  0  0  0 
    4.5730   -5.8446   -0.1582 N   0  0  0  0  0  0  0  0  0  0  0  0 
    5.2057   -4.7581   -0.2680 N   0  0  0  0  0  0  0  0  0  0  0  0 
    2.2960    0.0643    0.0187 N   0  0  0  0  0  0  0  0  0  0  0  0 
    2.2871    2.2648    0.6941 O   0  0  0  0  0  0  0  0  0  0  0  0 
    0.6652    1.1941   -0.5715 H   0  0  0  0  0  0  0  0  0  0  0  0 
    0.2156   -0.2790    0.3100 H   0  0  0  0  0  0  0  0  0  0  0  0 
    0.7939   -0.4013   -1.3743 H   0  0  0  0  0  0  0  0  0  0  0  0 
    7.2948  -10.3793   -0.4004 H   0  0  0  0  0  0  0  0  0  0  0  0 
    8.5268   -8.2336   -0.6133 H   0  0  0  0  0  0  0  0  0  0  0  0 
    4.8288  -10.3713   -0.0801 H   0  0  0  0  0  0  0  0  0  0  0  0 
    7.2882   -6.0688   -0.5060 H   0  0  0  0  0  0  0  0  0  0  0  0 
    3.6056   -8.1883    0.0251 H   0  0  0  0  0  0  0  0  0  0  0  0 
    6.1500   -2.4005   -0.5183 H   0  0  0  0  0  0  0  0  0  0  0  0 
    2.4960   -4.5298    0.1341 H   0  0  0  0  0  0  0  0  0  0  0  0 
    4.9243   -0.2416   -0.4683 H   0  0  0  0  0  0  0  0  0  0  0  0 
    1.2587   -2.3876    0.2719 H   0  0  0  0  0  0  0  0  0  0  0  0 
    3.8499    0.9990    1.0209 H   0  0  0  0  0  0  0  0  0  0  0  0 
  1 17  1  0  0  0  0 
  1 20  1  0  0  0  0 
  2  4  2  0  0  0  0 
  3  5  2  0  0  0  0 
  3  2  1  0  0  0  0 
  4  6  1  0  0  0  0 
  4 24  1  0  0  0  0 
  5 12  1  0  0  0  0 
  6 26  1  0  0  0  0 
  7  9  2  0  0  0  0 
  7 13  1  0  0  0  0 
  8 10  1  0  0  0  0 
  8 28  1  0  0  0  0 
  9 14  1  0  0  0  0 
 10 30  1  0  0  0  0 
 11 18  2  0  0  0  0 
 11 31  1  0  0  0  0 
 12 15  1  0  0  0  0 
 12  6  2  0  0  0  0 
 13  8  2  0  0  0  0 
 14 17  1  0  0  0  0 
 14 10  2  0  0  0  0 
 16 13  1  0  0  0  0 
 16 15  1  0  0  0  0 
 17 11  1  0  0  0  0 
 19  1  1  0  0  0  0 
 21  1  1  0  0  0  0 
 22  2  1  0  0  0  0 
 23  3  1  0  0  0  0 
 25  5  1  0  0  0  0 
 27  7  1  0  0  0  0 
 29  9  1  0  0  0  0 
M  RAD  2  15   2  16   2 
M  END 
>  <HBA> 
4 
 
>  <HBD> 
0 
 
>  <TPSA> 
45.03 
 
>  <cid> 
20987 
 
>  <dipole> 
3.11 
 
>  <excitation_energy_1> 
2.614 
 
>  <excitation_energy_2> 
3.329 
 
>  <excitation_energy_3> 
3.972 
 
>  <excitation_energy_4> 
4.141 
 
>  <homo_energy> 
-5.976 
 
>  <homo_lumo_gap> 
3.663 
 
>  <logP> 
4.33 
 
>  <lumo_energy> 
-2.313 
 
>  <melting_point> 
92.55 
 
>  <molecular_refractivity> 
71.86 
 
>  <oscillator_strength_1> 
0.0 
 
>  <oscillator_strength_2> 
0.9321 
 
>  <oscillator_strength_3> 
0.0125 
 
>  <oscillator_strength_4> 
0.0134 
 
>  <open_babel_can_smiles> 
O=CN(c1ccc(cc1)[N][N]c1ccccc1)C 
 
>  <mulliken_charges> 
31 
1   -0.333772 
2   -0.117422 
3   -0.145986 
4   -0.138469 
5   -0.123087 
6   -0.140053 
7   -0.152511 
8   -0.133718 
9   -0.177968 
10   -0.183414 
11   0.349814 
12   0.26956 
13   0.279694 
14   0.324134 
15   -0.310668 
16   -0.312731 
17   -0.475941 
18   -0.455721 
19   0.206498 
20   0.168207 
21   0.170425 
22   0.135609 
23   0.137031 
24   0.13627 
25   0.155153 
26   0.141066 
27   0.148676 
28   0.16133 
29   0.149029 
30   0.143377 
31   0.125588 
 
>  <lowdin_charges> 
31 
1   -0.355121 
2   -0.145842 
3   -0.149781 
4   -0.15678 
5   -0.150751 
6   -0.143735 
7   -0.135158 
8   -0.140805 
9   -0.184458 
10   -0.17441 
11   0.049132 
12   0.011632 
13   0.00428 
14   0.056497 
15   -0.084999 
16   -0.083032 
17   -0.075369 
18   -0.277287 
19   0.18466 
20   0.157002 
21   0.162511 
22   0.160883 
23   0.158567 
24   0.161357 
25   0.173328 
26   0.1651 
27   0.169515 
28   0.176909 
29   0.167466 
30   0.164632 
31   0.13406 
 
$$$$ 
 
