PCCDB-ID:  30938 
public computational chemistry database (PCCDB) project, http://pccdb.org 
 
 24 24  0  0  0  0  0  0  0  0999 V2000 
    1.1752   -1.1526    0.0645 C   0  0  0  0  0  0  0  0  0  0  0  0 
    4.9588   -1.5207   -0.2644 C   0  0  0  0  0  0  0  0  0  0  0  0 
    5.3623   -0.2098   -0.5122 C   0  0  0  0  0  0  0  0  0  0  0  0 
    3.6051   -1.8002   -0.0777 C   0  0  0  0  0  0  0  0  0  0  0  0 
    4.4041    0.8019   -0.5674 C   0  0  0  0  0  0  0  0  0  0  0  0 
    2.0535    1.6831   -0.4117 C   0  0  0  0  0  0  0  0  0  0  0  0 
    1.8365    2.3149    0.9737 C   0  0  0  0  0  0  0  0  0  0  0  0 
    2.6327   -0.7933   -0.1279 C   0  0  0  0  0  0  0  0  0  0  0  0 
    3.0425    0.5351   -0.3750 C   0  0  0  0  0  0  0  0  0  0  0  0 
    0.8121    3.4433    0.9535 C   0  0  0  0  0  0  0  0  0  0  0  0 
    0.1824    3.7843   -0.0153 O   0  0  0  0  0  0  0  0  0  0  0  0 
    0.6248    4.0797    2.1450 O   0  0  0  0  0  0  0  0  0  0  0  0 
    1.0609   -2.2236    0.2569 H   0  0  0  0  0  0  0  0  0  0  0  0 
    0.5757   -0.9113   -0.8224 H   0  0  0  0  0  0  0  0  0  0  0  0 
    0.7206   -0.6175    0.9076 H   0  0  0  0  0  0  0  0  0  0  0  0 
    5.6900   -2.3236   -0.2226 H   0  0  0  0  0  0  0  0  0  0  0  0 
    6.4119    0.0243   -0.6682 H   0  0  0  0  0  0  0  0  0  0  0  0 
    3.2905   -2.8248    0.1085 H   0  0  0  0  0  0  0  0  0  0  0  0 
    4.7153    1.8249   -0.7707 H   0  0  0  0  0  0  0  0  0  0  0  0 
    2.4110    2.4626   -1.0928 H   0  0  0  0  0  0  0  0  0  0  0  0 
    1.0834    1.3639   -0.8035 H   0  0  0  0  0  0  0  0  0  0  0  0 
    2.7871    2.7038    1.3656 H   0  0  0  0  0  0  0  0  0  0  0  0 
    1.5026    1.5575    1.6974 H   0  0  0  0  0  0  0  0  0  0  0  0 
    1.2080    3.6969    2.8214 H   0  0  0  0  0  0  0  0  0  0  0  0 
  1 13  1  0  0  0  0 
  1 15  1  0  0  0  0 
  2 16  1  0  0  0  0 
  2  4  2  0  0  0  0 
  3  2  1  0  0  0  0 
  4 18  1  0  0  0  0 
  5  3  2  0  0  0  0 
  5  9  1  0  0  0  0 
  6  9  1  0  0  0  0 
  6  7  1  0  0  0  0 
  7 22  1  0  0  0  0 
  7 23  1  0  0  0  0 
  8  4  1  0  0  0  0 
  8  1  1  0  0  0  0 
  9  8  2  0  0  0  0 
 10  7  1  0  0  0  0 
 10 12  1  0  0  0  0 
 11 10  2  0  0  0  0 
 12 24  1  0  0  0  0 
 14  1  1  0  0  0  0 
 17  3  1  0  0  0  0 
 19  5  1  0  0  0  0 
 20  6  1  0  0  0  0 
 21  6  1  0  0  0  0 
M  END 
>  <HBA> 
2 
 
>  <HBD> 
1 
 
>  <TPSA> 
37.3 
 
>  <cid> 
30938 
 
>  <dipole> 
3.94 
 
>  <excitation_energy_1> 
5.22 
 
>  <excitation_energy_2> 
5.596 
 
>  <excitation_energy_3> 
5.664 
 
>  <excitation_energy_4> 
5.86 
 
>  <homo_energy> 
-6.498 
 
>  <homo_lumo_gap> 
6.4 
 
>  <logP> 
2.012 
 
>  <lumo_energy> 
-0.098 
 
>  <melting_point> 
87.82 
 
>  <molecular_refractivity> 
47.76 
 
>  <oscillator_strength_1> 
0.0009 
 
>  <oscillator_strength_2> 
0.028 
 
>  <oscillator_strength_3> 
0.0008 
 
>  <oscillator_strength_4> 
0.0035 
 
>  <open_babel_can_smiles> 
OC(=O)CCc1ccccc1C 
 
>  <mulliken_charges> 
24 
1   -0.53952 
2   -0.125486 
3   -0.129904 
4   -0.185911 
5   -0.184412 
6   -0.345465 
7   -0.40457 
8   0.133132 
9   0.108497 
10   0.611796 
11   -0.436314 
12   -0.569335 
13   0.157647 
14   0.169919 
15   0.154946 
16   0.128283 
17   0.128302 
18   0.122251 
19   0.122575 
20   0.164896 
21   0.168103 
22   0.169052 
23   0.172929 
24   0.408587 
 
>  <lowdin_charges> 
24 
1   -0.44392 
2   -0.159896 
3   -0.158503 
4   -0.165298 
5   -0.165677 
6   -0.268592 
7   -0.323693 
8   -0.008239 
9   -0.015784 
10   0.197148 
11   -0.235857 
12   -0.362569 
13   0.157103 
14   0.163326 
15   0.155463 
16   0.158384 
17   0.155955 
18   0.153116 
19   0.152455 
20   0.163296 
21   0.164051 
22   0.163328 
23   0.165093 
24   0.35931 
 
$$$$ 
 
