PCCDB-ID:  69261 
public computational chemistry database (PCCDB) project, http://pccdb.org 
 
 23 23  0  0  0  0  0  0  0  0999 V2000 
    2.7344    1.8798   -0.6535 C   0  0  0  0  0  0  0  0  0  0  0  0 
    3.6454    1.3231   -1.7353 C   0  0  0  0  0  0  0  0  0  0  0  0 
    8.3127   -1.4713    1.0484 C   0  0  0  0  0  0  0  0  0  0  0  0 
    7.5734   -0.3988    0.5513 C   0  0  0  0  0  0  0  0  0  0  0  0 
    7.8413   -2.7750    0.9016 C   0  0  0  0  0  0  0  0  0  0  0  0 
    5.8687   -1.9210   -0.2555 C   0  0  0  0  0  0  0  0  0  0  0  0 
    6.3523   -0.6188   -0.1011 C   0  0  0  0  0  0  0  0  0  0  0  0 
    6.6248   -2.9739    0.2505 C   0  0  0  0  0  0  0  0  0  0  0  0 
    5.6071    0.5744   -0.6078 C   0  0  0  0  0  0  0  0  0  0  0  0 
    6.1178   -4.3493    0.0916 N   0  0  0  0  0  0  0  0  0  0  0  0 
    6.0018    1.7166   -0.4759 O   0  0  0  0  0  0  0  0  0  0  0  0 
    6.8032   -5.2649    0.5449 O   0  0  0  0  0  0  0  0  0  0  0  0 
    5.0410   -4.4976   -0.4840 O   0  0  0  0  0  0  0  0  0  0  0  0 
    4.4566    0.2346   -1.2220 O   0  0  0  0  0  0  0  0  0  0  0  0 
    2.0775    2.6474   -1.0783 H   0  0  0  0  0  0  0  0  0  0  0  0 
    3.3221    2.3375    0.1472 H   0  0  0  0  0  0  0  0  0  0  0  0 
    2.1078    1.0890   -0.2284 H   0  0  0  0  0  0  0  0  0  0  0  0 
    4.3085    2.0931   -2.1360 H   0  0  0  0  0  0  0  0  0  0  0  0 
    3.0768    0.8706   -2.5508 H   0  0  0  0  0  0  0  0  0  0  0  0 
    9.2579   -1.2932    1.5516 H   0  0  0  0  0  0  0  0  0  0  0  0 
    7.9238    0.6223    0.6586 H   0  0  0  0  0  0  0  0  0  0  0  0 
    8.3907   -3.6293    1.2776 H   0  0  0  0  0  0  0  0  0  0  0  0 
    4.9295   -2.1195   -0.7531 H   0  0  0  0  0  0  0  0  0  0  0  0 
  1 17  1  0  0  0  0 
  1 16  1  0  0  0  0 
  2 14  1  0  0  0  0 
  2  1  1  0  0  0  0 
  3 20  1  0  0  0  0 
  4 21  1  0  0  0  0 
  4  3  2  0  0  0  0 
  5  3  1  0  0  0  0 
  5 22  1  0  0  0  0 
  6  7  2  0  0  0  0 
  6  8  1  0  0  0  0 
  7  4  1  0  0  0  0 
  8  5  2  0  0  0  0 
  9 11  2  0  0  0  0 
  9  7  1  0  0  0  0 
 10  8  1  0  0  0  0 
 10 12  2  0  0  0  0 
 13 10  2  0  0  0  0 
 14  9  1  0  0  0  0 
 15  1  1  0  0  0  0 
 18  2  1  0  0  0  0 
 19  2  1  0  0  0  0 
 23  6  1  0  0  0  0 
M  END 
>  <HBA> 
2 
 
>  <HBD> 
0 
 
>  <TPSA> 
72.12 
 
>  <cid> 
69261 
 
>  <dipole> 
2.93 
 
>  <excitation_energy_1> 
3.747 
 
>  <excitation_energy_2> 
4.229 
 
>  <excitation_energy_3> 
4.303 
 
>  <excitation_energy_4> 
4.574 
 
>  <homo_energy> 
-7.78 
 
>  <homo_lumo_gap> 
5.2 
 
>  <logP> 
2.295 
 
>  <lumo_energy> 
-2.58 
 
>  <melting_point> 
68.4 
 
>  <molecular_refractivity> 
51.35 
 
>  <oscillator_strength_1> 
0.0 
 
>  <oscillator_strength_2> 
0.0003 
 
>  <oscillator_strength_3> 
0.0142 
 
>  <oscillator_strength_4> 
0.0003 
 
>  <open_babel_can_smiles> 
CCOC(=O)c1cccc(c1)N(=O)=O 
 
>  <mulliken_charges> 
23 
1   -0.463839 
2   -0.046727 
3   -0.146869 
4   -0.131979 
5   -0.138043 
6   -0.181285 
7   0.031259 
8   0.267292 
9   0.611887 
10   0.384854 
11   -0.48923 
12   -0.392887 
13   -0.389439 
14   -0.474347 
15   0.155376 
16   0.177562 
17   0.162048 
18   0.175436 
19   0.160182 
20   0.156824 
21   0.178907 
22   0.189061 
23   0.203957 
 
>  <lowdin_charges> 
23 
1   -0.457536 
2   -0.128115 
3   -0.146458 
4   -0.108478 
5   -0.125066 
6   -0.120307 
7   -0.038486 
8   0.001205 
9   0.197218 
10   0.309124 
11   -0.267164 
12   -0.244804 
13   -0.241086 
14   -0.187012 
15   0.162763 
16   0.167237 
17   0.159761 
18   0.163018 
19   0.157515 
20   0.171505 
21   0.184465 
22   0.191584 
23   0.199118 
 
$$$$ 
 
