PCCDB-ID:  29592 
public computational chemistry database (PCCDB) project, http://pccdb.org 
 
 22 22  0  0  0  0  0  0  0  0999 V2000 
    1.0645    0.5892   -0.2560 C   0  0  0  0  0  0  0  0  0  0  0  0 
    2.4769   -0.4417    1.5574 C   0  0  0  0  0  0  0  0  0  0  0  0 
    3.9900   -2.0493   -0.3991 C   0  0  0  0  0  0  0  0  0  0  0  0 
    1.7620   -1.9568   -1.5701 C   0  0  0  0  0  0  0  0  0  0  0  0 
    3.9075    0.8611   -1.4119 C   0  0  0  0  0  0  0  0  0  0  0  0 
    2.4180   -0.0432    0.0870 C   0  0  0  0  0  0  0  0  0  0  0  0 
    2.8784   -1.1382   -0.9310 C   0  0  0  0  0  0  0  0  0  0  0  0 
    4.6050    1.6650   -1.9600 O   0  0  0  0  0  0  0  0  0  0  0  0 
    3.4349    0.9775   -0.1421 O   0  0  0  0  0  0  0  0  0  0  0  0 
    3.4725   -0.3011   -1.9686 O   0  0  0  0  0  0  0  0  0  0  0  0 
    0.2386   -0.1003   -0.0534 H   0  0  0  0  0  0  0  0  0  0  0  0 
    1.0191    0.8874   -1.3079 H   0  0  0  0  0  0  0  0  0  0  0  0 
    0.9231    1.4845    0.3566 H   0  0  0  0  0  0  0  0  0  0  0  0 
    1.7803   -1.2630    1.7601 H   0  0  0  0  0  0  0  0  0  0  0  0 
    2.1865    0.4081    2.1825 H   0  0  0  0  0  0  0  0  0  0  0  0 
    3.4810   -0.7527    1.8531 H   0  0  0  0  0  0  0  0  0  0  0  0 
    3.6057   -2.7470    0.3514 H   0  0  0  0  0  0  0  0  0  0  0  0 
    4.8032   -1.4683    0.0468 H   0  0  0  0  0  0  0  0  0  0  0  0 
    4.4034   -2.6293   -1.2294 H   0  0  0  0  0  0  0  0  0  0  0  0 
    1.2399   -2.5473   -0.8089 H   0  0  0  0  0  0  0  0  0  0  0  0 
    2.1833   -2.6503   -2.3041 H   0  0  0  0  0  0  0  0  0  0  0  0 
    1.0359   -1.3220   -2.0819 H   0  0  0  0  0  0  0  0  0  0  0  0 
  1 11  1  0  0  0  0 
  1  6  1  0  0  0  0 
  1 13  1  0  0  0  0 
  2 14  1  0  0  0  0 
  2 16  1  0  0  0  0 
  2 15  1  0  0  0  0 
  3 18  1  0  0  0  0 
  3 17  1  0  0  0  0 
  4  7  1  0  0  0  0 
  4 20  1  0  0  0  0 
  5  9  1  0  0  0  0 
  6  2  1  0  0  0  0 
  7  3  1  0  0  0  0 
  7  6  1  0  0  0  0 
  8  5  2  0  0  0  0 
  9  6  1  0  0  0  0 
 10  5  1  0  0  0  0 
 10  7  1  0  0  0  0 
 12  1  1  0  0  0  0 
 19  3  1  0  0  0  0 
 21  4  1  0  0  0  0 
 22  4  1  0  0  0  0 
M  END 
>  <HBA> 
3 
 
>  <HBD> 
0 
 
>  <TPSA> 
35.53 
 
>  <cid> 
29592 
 
>  <dipole> 
5.62 
 
>  <excitation_energy_1> 
6.82 
 
>  <excitation_energy_2> 
7.138 
 
>  <excitation_energy_3> 
7.429 
 
>  <excitation_energy_4> 
7.525 
 
>  <homo_energy> 
-7.638 
 
>  <homo_lumo_gap> 
8.817 
 
>  <logP> 
1.71 
 
>  <lumo_energy> 
1.178 
 
>  <melting_point> 
31.22 
 
>  <molecular_refractivity> 
36.48 
 
>  <oscillator_strength_1> 
0.0004 
 
>  <oscillator_strength_2> 
0.0082 
 
>  <oscillator_strength_3> 
0.0004 
 
>  <oscillator_strength_4> 
0.0064 
 
>  <open_babel_can_smiles> 
O=C1OC(C(O1)(C)C)(C)C 
 
>  <mulliken_charges> 
22 
1   -0.463237 
2   -0.469584 
3   -0.462512 
4   -0.469228 
5   0.784564 
6   0.276037 
7   0.275191 
8   -0.468434 
9   -0.480788 
10   -0.481147 
11   0.152626 
12   0.167784 
13   0.16963 
14   0.152058 
15   0.168572 
16   0.168971 
17   0.152639 
18   0.167782 
19   0.1695 
20   0.151976 
21   0.168697 
22   0.168901 
 
>  <lowdin_charges> 
22 
1   -0.452951 
2   -0.447355 
3   -0.45529 
4   -0.449986 
5   0.230748 
6   0.119747 
7   0.11837 
8   -0.236789 
9   -0.195149 
10   -0.194826 
11   0.158654 
12   0.161645 
13   0.167136 
14   0.158958 
15   0.167231 
16   0.164949 
17   0.159173 
18   0.163979 
19   0.167738 
20   0.159568 
21   0.167672 
22   0.166778 
 
$$$$ 
 
