PCCDB-ID:  26110 
public computational chemistry database (PCCDB) project, http://pccdb.org 
 
 29 30  0  0  1  0  0  0  0  0999 V2000 
    0.8248   -0.0012    0.0133 C   0  0  0  0  0  0  0  0  0  0  0  0 
    2.8149    0.0367    1.4902 C   0  0  0  0  0  0  0  0  0  0  0  0 
    2.5959    2.6507   -0.3797 C   0  0  0  0  0  0  0  0  0  0  0  0 
    2.5454   -0.6865   -2.2928 C   0  0  0  0  0  0  0  0  0  0  0  0 
    2.5301    0.8734   -2.2701 C   0  0  0  0  0  0  0  0  0  0  0  0 
    4.5211   -0.6863   -0.7860 C   0  0  0  0  0  0  0  0  0  0  0  0 
    3.0241   -1.0515   -0.8658 C   0  0  1  0  0  0  0  0  0  0  0  0 
    4.4631    0.8425   -0.7940 C   0  0  0  0  0  0  0  0  0  0  0  0 
    2.3624    0.0505    0.0181 C   0  0  0  0  0  0  0  0  0  0  0  0 
    2.9817    1.2417   -0.8173 C   0  0  1  0  0  0  0  0  0  0  0  0 
    5.5566    1.4977   -0.8414 N   0  0  0  0  0  0  0  0  0  0  0  0 
    5.3727    2.9037   -0.8923 O   0  0  0  0  0  0  0  0  0  0  0  0 
    0.4840   -0.9327    0.4824 H   0  0  0  0  0  0  0  0  0  0  0  0 
    0.3840    0.0427   -0.9854 H   0  0  0  0  0  0  0  0  0  0  0  0 
    0.4038    0.8261    0.5962 H   0  0  0  0  0  0  0  0  0  0  0  0 
    2.5241   -0.9047    1.9728 H   0  0  0  0  0  0  0  0  0  0  0  0 
    2.3320    0.8491    2.0456 H   0  0  0  0  0  0  0  0  0  0  0  0 
    3.8944    0.1590    1.6150 H   0  0  0  0  0  0  0  0  0  0  0  0 
    2.9759    3.4028   -1.0736 H   0  0  0  0  0  0  0  0  0  0  0  0 
    2.9950    2.8910    0.6106 H   0  0  0  0  0  0  0  0  0  0  0  0 
    1.5032    2.7399   -0.3410 H   0  0  0  0  0  0  0  0  0  0  0  0 
    3.2218   -1.0869   -3.0556 H   0  0  0  0  0  0  0  0  0  0  0  0 
    1.5523   -1.0962   -2.5022 H   0  0  0  0  0  0  0  0  0  0  0  0 
    1.5281    1.2744   -2.4597 H   0  0  0  0  0  0  0  0  0  0  0  0 
    3.1972    1.3189   -3.0145 H   0  0  0  0  0  0  0  0  0  0  0  0 
    5.0997   -1.0737   -1.6314 H   0  0  0  0  0  0  0  0  0  0  0  0 
    4.9947   -1.0616    0.1276 H   0  0  0  0  0  0  0  0  0  0  0  0 
    2.8041   -2.0822   -0.5693 H   0  0  0  0  0  0  0  0  0  0  0  0 
    6.2906    3.2150   -0.9061 H   0  0  0  0  0  0  0  0  0  0  0  0 
  1  9  1  0  0  0  0 
  1 13  1  0  0  0  0 
  1 15  1  0  0  0  0 
  2 18  1  0  0  0  0 
  2 16  1  0  0  0  0 
  2 17  1  0  0  0  0 
  3 21  1  0  0  0  0 
  3 20  1  0  0  0  0 
  4  5  1  0  0  0  0 
  4  7  1  0  0  0  0 
  5 10  1  0  0  0  0 
  6 27  1  0  0  0  0 
  7  6  1  0  0  0  0 
  7 28  1  1  0  0  0 
  7  9  1  0  0  0  0 
  8  6  1  0  0  0  0 
  9  2  1  0  0  0  0 
 10  8  1  0  0  0  0 
 10  3  1  1  0  0  0 
 10  9  1  0  0  0  0 
 11  8  2  0  0  0  0 
 12 11  1  0  0  0  0 
 14  1  1  0  0  0  0 
 19  3  1  0  0  0  0 
 22  4  1  0  0  0  0 
 23  4  1  0  0  0  0 
 24  5  1  0  0  0  0 
 25  5  1  0  0  0  0 
 26  6  1  0  0  0  0 
 29 12  1  0  0  0  0 
M  END 
>  <HBA> 
2 
 
>  <HBD> 
1 
 
>  <TPSA> 
32.59 
 
>  <cid> 
26110 
 
>  <dipole> 
0.89 
 
>  <excitation_energy_1> 
5.716 
 
>  <excitation_energy_2> 
5.917 
 
>  <excitation_energy_3> 
6.132 
 
>  <excitation_energy_4> 
6.347 
 
>  <homo_energy> 
-6.327 
 
>  <homo_lumo_gap> 
6.729 
 
>  <logP> 
2.663 
 
>  <lumo_energy> 
0.403 
 
>  <melting_point> 
125.08 
 
>  <molecular_refractivity> 
49.85 
 
>  <oscillator_strength_1> 
0.0008 
 
>  <oscillator_strength_2> 
0.007 
 
>  <oscillator_strength_3> 
0.113 
 
>  <oscillator_strength_4> 
0.0446 
 
>  <open_babel_can_smiles> 
O/N=C\1/C[C@H]2C([C@]1(C)CC2)(C)C 
 
>  <mulliken_charges> 
29 
1   -0.471388 
2   -0.468699 
3   -0.469396 
4   -0.278932 
5   -0.290188 
6   -0.317301 
7   -0.114397 
8   0.339663 
9   0.093 
10   0.052244 
11   -0.299454 
12   -0.515554 
13   0.142941 
14   0.146496 
15   0.14593 
16   0.14074 
17   0.146225 
18   0.155952 
19   0.167907 
20   0.15029 
21   0.131231 
22   0.136666 
23   0.139751 
24   0.141742 
25   0.152044 
26   0.155709 
27   0.161627 
28   0.113768 
29   0.41138 
 
>  <lowdin_charges> 
29 
1   -0.447921 
2   -0.447196 
3   -0.442314 
4   -0.287209 
5   -0.281794 
6   -0.281542 
7   -0.133327 
8   0.012949 
9   0.004875 
10   -0.002505 
11   -0.078833 
12   -0.390987 
13   0.151764 
14   0.151349 
15   0.151805 
16   0.149707 
17   0.152634 
18   0.154176 
19   0.165187 
20   0.154939 
21   0.142389 
22   0.146736 
23   0.14528 
24   0.146202 
25   0.154553 
26   0.158997 
27   0.160289 
28   0.139606 
29   0.350191 
 
$$$$ 
 
