PCCDB-ID:  11474 
public computational chemistry database (PCCDB) project, http://pccdb.org 
 
 15 15  0  0  0  0  0  0  0  0999 V2000 
   -1.4345   -0.2089   -0.3541 C   0  0  0  0  0  0  0  0  0  0  0  0 
   -0.6357   -1.2401    0.1483 C   0  0  0  0  0  0  0  0  0  0  0  0 
   -0.9201    1.0825   -0.3985 C   0  0  0  0  0  0  0  0  0  0  0  0 
    0.6475   -0.9240    0.5840 C   0  0  0  0  0  0  0  0  0  0  0  0 
    1.0271    2.6823    0.0597 C   0  0  0  0  0  0  0  0  0  0  0  0 
    0.3829    1.3036    0.0635 C   0  0  0  0  0  0  0  0  0  0  0  0 
    1.1489    0.3184    0.5444 N   0  0  0  0  0  0  0  0  0  0  0  0 
    2.3500    2.6548    0.5293 O   0  0  0  0  0  0  0  0  0  0  0  0 
   -2.4419   -0.4126   -0.7073 H   0  0  0  0  0  0  0  0  0  0  0  0 
   -0.9988   -2.2617    0.2013 H   0  0  0  0  0  0  0  0  0  0  0  0 
   -1.5123    1.9089   -0.7831 H   0  0  0  0  0  0  0  0  0  0  0  0 
    1.3064   -1.6929    0.9827 H   0  0  0  0  0  0  0  0  0  0  0  0 
    0.4142    3.3603    0.6778 H   0  0  0  0  0  0  0  0  0  0  0  0 
    0.9975    3.0865   -0.9655 H   0  0  0  0  0  0  0  0  0  0  0  0 
    2.5095    1.7232    0.7839 H   0  0  0  0  0  0  0  0  0  0  0  0 
  1  2  1  0  0  0  0 
  2 10  1  0  0  0  0 
  2  4  2  0  0  0  0 
  3  1  2  0  0  0  0 
  3  6  1  0  0  0  0 
  4 12  1  0  0  0  0 
  5  6  1  0  0  0  0 
  5  8  1  0  0  0  0 
  5 13  1  0  0  0  0 
  6  7  2  0  0  0  0 
  7  4  1  0  0  0  0 
  8 15  1  0  0  0  0 
  9  1  1  0  0  0  0 
 11  3  1  0  0  0  0 
 14  5  1  0  0  0  0 
M  END 
>  <HBA> 
2 
 
>  <HBD> 
1 
 
>  <TPSA> 
33.12 
 
>  <cid> 
11474 
 
>  <dipole> 
3.88 
 
>  <excitation_energy_1> 
5.115 
 
>  <excitation_energy_2> 
5.218 
 
>  <excitation_energy_3> 
5.449 
 
>  <excitation_energy_4> 
5.491 
 
>  <homo_energy> 
-6.678 
 
>  <homo_lumo_gap> 
5.807 
 
>  <logP> 
0.574 
 
>  <lumo_energy> 
-0.871 
 
>  <melting_point> 
41.27 
 
>  <molecular_refractivity> 
30.36 
 
>  <oscillator_strength_1> 
0.057 
 
>  <oscillator_strength_2> 
0.0036 
 
>  <oscillator_strength_3> 
0.0331 
 
>  <oscillator_strength_4> 
0.0023 
 
>  <open_babel_can_smiles> 
OCc1ccccn1 
 
>  <mulliken_charges> 
15 
1   -0.100195 
2   -0.148458 
3   -0.161946 
4   0.047733 
5   -0.04722 
6   0.280373 
7   -0.50877 
8   -0.639141 
9   0.148621 
10   0.14314 
11   0.140741 
12   0.148678 
13   0.142007 
14   0.142663 
15   0.411774 
 
>  <lowdin_charges> 
15 
1   -0.119475 
2   -0.177546 
3   -0.178319 
4   -0.081688 
5   -0.135887 
6   0.04181 
7   -0.16725 
8   -0.471489 
9   0.165036 
10   0.166227 
11   0.166892 
12   0.162007 
13   0.144364 
14   0.142558 
15   0.34276 
 
$$$$ 
 
