PCCDB-ID:  59868 
public computational chemistry database (PCCDB) project, http://pccdb.org 
 
 31 32  0  0  1  0  0  0  0  0999 V2000 
    1.3632    0.4903   -1.2250 C   0  0  0  0  0  0  0  0  0  0  0  0 
    2.1890    0.4214    0.0633 C   0  0  0  0  0  0  0  0  0  0  0  0 
    5.6191    2.4213    0.8748 C   0  0  0  0  0  0  0  0  0  0  0  0 
    6.3317    3.7370    1.2405 C   0  0  0  0  0  0  0  0  0  0  0  0 
    3.7070    0.2645   -0.1781 C   0  0  0  0  0  0  0  0  0  0  0  0 
    3.6600    3.6064   -0.2145 C   0  0  0  0  0  0  0  0  0  0  0  0 
    4.8001    2.5678   -0.4207 C   0  0  2  0  0  0  0  0  0  0  0  0 
    5.3936    4.8970    1.0787 C   0  0  0  0  0  0  0  0  0  0  0  0 
    4.2129    4.8411    0.4341 C   0  0  0  0  0  0  0  0  0  0  0  0 
    4.7522    7.1647    1.3754 C   0  0  0  0  0  0  0  0  0  0  0  0 
    4.7391    8.3923    1.7234 N   0  0  0  0  0  0  0  0  0  0  0  0 
    4.4155    1.2689   -0.9709 N   0  0  0  0  0  0  0  0  0  0  0  0 
    5.6968    6.1641    1.5842 N   0  0  0  0  0  0  0  0  0  0  0  0 
    3.4015    6.4233    0.4472 S   0  0  0  0  0  0  0  0  0  0  0  0 
    1.6255    1.3679   -1.8284 H   0  0  0  0  0  0  0  0  0  0  0  0 
    1.5233   -0.4008   -1.8457 H   0  0  0  0  0  0  0  0  0  0  0  0 
    0.2915    0.5556   -1.0076 H   0  0  0  0  0  0  0  0  0  0  0  0 
    1.8618   -0.4454    0.6553 H   0  0  0  0  0  0  0  0  0  0  0  0 
    1.9854    1.3040    0.6818 H   0  0  0  0  0  0  0  0  0  0  0  0 
    4.9598    2.1340    1.7038 H   0  0  0  0  0  0  0  0  0  0  0  0 
    6.3546    1.6198    0.7481 H   0  0  0  0  0  0  0  0  0  0  0  0 
    7.2171    3.8779    0.6019 H   0  0  0  0  0  0  0  0  0  0  0  0 
    6.7041    3.6864    2.2738 H   0  0  0  0  0  0  0  0  0  0  0  0 
    4.2168    0.1747    0.7872 H   0  0  0  0  0  0  0  0  0  0  0  0 
    3.8630   -0.6976   -0.6879 H   0  0  0  0  0  0  0  0  0  0  0  0 
    2.8582    3.1773    0.4005 H   0  0  0  0  0  0  0  0  0  0  0  0 
    3.2092    3.8464   -1.1874 H   0  0  0  0  0  0  0  0  0  0  0  0 
    5.4749    3.0064   -1.1708 H   0  0  0  0  0  0  0  0  0  0  0  0 
    5.5839    8.6468    2.2416 H   0  0  0  0  0  0  0  0  0  0  0  0 
    3.9889    1.3819   -1.8859 H   0  0  0  0  0  0  0  0  0  0  0  0 
    6.5344    6.3537    2.1166 H   0  0  0  0  0  0  0  0  0  0  0  0 
  1 17  1  0  0  0  0 
  1  2  1  0  0  0  0 
  2 18  1  0  0  0  0 
  2 19  1  0  0  0  0 
  3  4  1  0  0  0  0 
  3 20  1  0  0  0  0 
  4 23  1  0  0  0  0 
  5  2  1  0  0  0  0 
  5 24  1  0  0  0  0 
  6 26  1  0  0  0  0 
  6  9  1  0  0  0  0 
  7 28  1  6  0  0  0 
  7  6  1  0  0  0  0 
  7  3  1  0  0  0  0 
  8  4  1  0  0  0  0 
  8 13  1  0  0  0  0 
  9 14  1  0  0  0  0 
  9  8  2  0  0  0  0 
 10 13  1  0  0  0  0 
 10 11  2  0  0  0  0 
 11 29  1  0  0  0  0 
 12  7  1  0  0  0  0 
 12  5  1  0  0  0  0 
 13 31  1  0  0  0  0 
 14 10  1  0  0  0  0 
 15  1  1  0  0  0  0 
 16  1  1  0  0  0  0 
 21  3  1  0  0  0  0 
 22  4  1  0  0  0  0 
 25  5  1  0  0  0  0 
 27  6  1  0  0  0  0 
 30 12  1  0  0  0  0 
M  END 
>  <HBA> 
4 
 
>  <HBD> 
2 
 
>  <TPSA> 
79.18 
 
>  <cid> 
59868 
 
>  <dipole> 
4.48 
 
>  <excitation_energy_1> 
3.988 
 
>  <excitation_energy_2> 
4.397 
 
>  <excitation_energy_3> 
4.664 
 
>  <excitation_energy_4> 
4.788 
 
>  <homo_energy> 
-5.021 
 
>  <homo_lumo_gap> 
5.573 
 
>  <logP> 
2.554 
 
>  <lumo_energy> 
0.552 
 
>  <melting_point> 
123.32 
 
>  <molecular_refractivity> 
61.17 
 
>  <oscillator_strength_1> 
0.0014 
 
>  <oscillator_strength_2> 
0.0012 
 
>  <oscillator_strength_3> 
0.0232 
 
>  <oscillator_strength_4> 
0.0198 
 
>  <open_babel_can_smiles> 
CCCN[C@@H]1CCc2c(C1)sc(=N)[nH]2 
 
>  <mulliken_charges> 
31 
1   -0.450163 
2   -0.254694 
3   -0.280045 
4   -0.345005 
5   -0.13548 
6   -0.328748 
7   0.045237 
8   0.387918 
9   -0.200955 
10   0.319498 
11   -0.641202 
12   -0.570674 
13   -0.670008 
14   0.207523 
15   0.137718 
16   0.142968 
17   0.150013 
18   0.130494 
19   0.137846 
20   0.146601 
21   0.152918 
22   0.159914 
23   0.147508 
24   0.141576 
25   0.136751 
26   0.1611 
27   0.145031 
28   0.135627 
29   0.27063 
30   0.296716 
31   0.323387 
 
>  <lowdin_charges> 
31 
1   -0.449374 
2   -0.295135 
3   -0.278515 
4   -0.272615 
5   -0.206095 
6   -0.286767 
7   -0.060629 
8   0.009769 
9   -0.19391 
10   -0.012638 
11   -0.44626 
12   -0.361513 
13   -0.25127 
14   0.23282 
15   0.142897 
16   0.147172 
17   0.152701 
18   0.14452 
19   0.139898 
20   0.147249 
21   0.15693 
22   0.154663 
23   0.151422 
24   0.146271 
25   0.141505 
26   0.155142 
27   0.151545 
28   0.144371 
29   0.251278 
30   0.255886 
31   0.288682 
 
$$$$ 
 
