PCCDB-ID:  33273 
public computational chemistry database (PCCDB) project, http://pccdb.org 
 
 27 28  0  0  1  0  0  0  0  0999 V2000 
   -1.2191   -0.9367    1.9661 C   0  0  0  0  0  0  0  0  0  0  0  0 
   -0.1561   -0.3197    2.6271 C   0  0  0  0  0  0  0  0  0  0  0  0 
   -1.0763   -1.3027    0.6255 C   0  0  0  0  0  0  0  0  0  0  0  0 
    1.0418   -0.0735    1.9524 C   0  0  0  0  0  0  0  0  0  0  0  0 
    0.1219   -1.0534   -0.0448 C   0  0  0  0  0  0  0  0  0  0  0  0 
    2.5101   -0.1984   -0.1166 C   0  0  0  0  0  0  0  0  0  0  0  0 
    3.3607   -1.4777   -0.3345 C   0  0  0  0  0  0  0  0  0  0  0  0 
    4.9471   -2.7060    2.7461 C   0  0  0  0  0  0  0  0  0  0  0  0 
    3.5003   -3.2379    2.9311 C   0  0  0  0  0  0  0  0  0  0  0  0 
    1.2012   -0.4376    0.6080 C   0  0  0  0  0  0  0  0  0  0  0  0 
    3.7974   -2.1249    0.9521 C   0  0  3  0  0  0  0  0  0  0  0  0 
    4.9152   -1.8707    1.5310 N   0  0  0  0  0  0  0  0  0  0  0  0 
    2.9773   -3.0762    1.5667 N   0  0  0  0  0  0  0  0  0  0  0  0 
   -2.1528   -1.1269    2.4884 H   0  0  0  0  0  0  0  0  0  0  0  0 
   -0.2587   -0.0256    3.6685 H   0  0  0  0  0  0  0  0  0  0  0  0 
   -1.9008   -1.7769    0.0993 H   0  0  0  0  0  0  0  0  0  0  0  0 
    1.8654    0.4100    2.4727 H   0  0  0  0  0  0  0  0  0  0  0  0 
    0.2199   -1.3330   -1.0920 H   0  0  0  0  0  0  0  0  0  0  0  0 
    2.3106    0.2432   -1.1013 H   0  0  0  0  0  0  0  0  0  0  0  0 
    3.1153    0.5244    0.4412 H   0  0  0  0  0  0  0  0  0  0  0  0 
    4.2607   -1.2080   -0.8945 H   0  0  0  0  0  0  0  0  0  0  0  0 
    2.7955   -2.2015   -0.9343 H   0  0  0  0  0  0  0  0  0  0  0  0 
    5.6559   -3.5318    2.5918 H   0  0  0  0  0  0  0  0  0  0  0  0 
    5.3015   -2.1293    3.6069 H   0  0  0  0  0  0  0  0  0  0  0  0 
    2.9333   -2.6262    3.6493 H   0  0  0  0  0  0  0  0  0  0  0  0 
    3.4590   -4.2814    3.2577 H   0  0  0  0  0  0  0  0  0  0  0  0 
    1.9766   -2.9471    1.4638 H   0  0  0  0  0  0  0  0  0  0  0  0 
  1 14  1  0  0  0  0 
  1  2  1  0  0  0  0 
  2 15  1  0  0  0  0 
  3  1  2  0  0  0  0 
  4 17  1  0  0  0  0 
  4  2  2  0  0  0  0 
  5 10  2  0  0  0  0 
  5  3  1  0  0  0  0 
  6 20  1  0  0  0  0 
  6 10  1  0  0  0  0 
  7  6  1  0  0  0  0 
  7 11  1  0  0  0  0 
  8  9  1  0  0  0  0 
  8 24  1  0  0  0  0 
  9 26  1  0  0  0  0 
  9 25  1  0  0  0  0 
 10  4  1  0  0  0  0 
 11 12  1  0  0  0  0 
 11 13  1  0  0  0  0 
 12  8  1  0  0  0  0 
 13  9  1  0  0  0  0 
 16  3  1  0  0  0  0 
 18  5  1  0  0  0  0 
 19  6  1  0  0  0  0 
 21  7  1  0  0  0  0 
 22  7  1  0  0  0  0 
 23  8  1  0  0  0  0 
 27 13  1  0  0  0  0 
M  RAD  2  11   2  12   2 
M  END 
>  <HBA> 
2 
 
>  <HBD> 
1 
 
>  <TPSA> 
24.39 
 
>  <cid> 
33273 
 
>  <dipole> 
2.7 
 
>  <excitation_energy_1> 
4.704 
 
>  <excitation_energy_2> 
4.788 
 
>  <excitation_energy_3> 
5.192 
 
>  <excitation_energy_4> 
5.322 
 
>  <homo_energy> 
-5.665 
 
>  <homo_lumo_gap> 
5.442 
 
>  <logP> 
1.385 
 
>  <lumo_energy> 
-0.223 
 
>  <melting_point> 
72.12 
 
>  <molecular_refractivity> 
62.25 
 
>  <oscillator_strength_1> 
0.0099 
 
>  <oscillator_strength_2> 
0.0095 
 
>  <oscillator_strength_3> 
0.005 
 
>  <oscillator_strength_4> 
0.0005 
 
>  <open_babel_can_smiles> 
C1CN[C]([N]1)CCc1ccccc1 
 
>  <mulliken_charges> 
27 
1   -0.133191 
2   -0.129047 
3   -0.129006 
4   -0.188165 
5   -0.188808 
6   -0.348234 
7   -0.335837 
8   -0.158941 
9   -0.149312 
10   0.153515 
11   0.481939 
12   -0.472061 
13   -0.601703 
14   0.131814 
15   0.13265 
16   0.13277 
17   0.13534 
18   0.127755 
19   0.151238 
20   0.163336 
21   0.172358 
22   0.150585 
23   0.147903 
24   0.143645 
25   0.137887 
26   0.147272 
27   0.324298 
 
>  <lowdin_charges> 
27 
1   -0.162071 
2   -0.154248 
3   -0.156749 
4   -0.171637 
5   -0.171062 
6   -0.269592 
7   -0.281439 
8   -0.211501 
9   -0.212924 
10   -0.009763 
11   0.082179 
12   -0.249484 
13   -0.317236 
14   0.158948 
15   0.157587 
16   0.159994 
17   0.160945 
18   0.154418 
19   0.154993 
20   0.160566 
21   0.17145 
22   0.154625 
23   0.145629 
24   0.148081 
25   0.135719 
26   0.147367 
27   0.275205 
 
$$$$ 
 
