PCCDB-ID:  22478 
public computational chemistry database (PCCDB) project, http://pccdb.org 
 
 26 25  0  0  0  0  0  0  0  0999 V2000 
    1.1603   -1.4287   -0.0655 C   0  0  0  0  0  0  0  0  0  0  0  0 
    3.6214   -1.9583   -0.2113 C   0  0  0  0  0  0  0  0  0  0  0  0 
    2.5655   -1.0186    0.3943 C   0  0  0  0  0  0  0  0  0  0  0  0 
    2.8517    0.4628    0.0445 C   0  0  0  0  0  0  0  0  0  0  0  0 
    1.2047    2.3286   -0.2225 C   0  0  0  0  0  0  0  0  0  0  0  0 
    4.9250    1.8359   -0.0415 C   0  0  0  0  0  0  0  0  0  0  0  0 
    1.0751    2.4457   -1.4914 N   0  0  0  0  0  0  0  0  0  0  0  0 
    4.6365    2.7138   -0.9186 N   0  0  0  0  0  0  0  0  0  0  0  0 
    1.8015    1.3494    0.5448 N   0  0  0  0  0  0  0  0  0  0  0  0 
    4.1470    0.8628    0.5598 N   0  0  0  0  0  0  0  0  0  0  0  0 
    0.6676    3.2765    0.5887 O   0  0  0  0  0  0  0  0  0  0  0  0 
    6.1891    1.7700    0.4627 O   0  0  0  0  0  0  0  0  0  0  0  0 
    0.9554   -2.4655    0.2222 H   0  0  0  0  0  0  0  0  0  0  0  0 
    1.0716   -1.3654   -1.1579 H   0  0  0  0  0  0  0  0  0  0  0  0 
    0.3912   -0.7891    0.3738 H   0  0  0  0  0  0  0  0  0  0  0  0 
    3.3950   -2.9980    0.0483 H   0  0  0  0  0  0  0  0  0  0  0  0 
    4.6378   -1.7468    0.1362 H   0  0  0  0  0  0  0  0  0  0  0  0 
    3.6245   -1.8834   -1.3060 H   0  0  0  0  0  0  0  0  0  0  0  0 
    2.6039   -1.1034    1.4921 H   0  0  0  0  0  0  0  0  0  0  0  0 
    2.8531    0.5630   -1.0488 H   0  0  0  0  0  0  0  0  0  0  0  0 
    1.4549    1.6536   -2.0058 H   0  0  0  0  0  0  0  0  0  0  0  0 
    3.6582    2.7126   -1.2028 H   0  0  0  0  0  0  0  0  0  0  0  0 
    1.9086    1.6104    1.5183 H   0  0  0  0  0  0  0  0  0  0  0  0 
    4.6609    0.1942    1.1165 H   0  0  0  0  0  0  0  0  0  0  0  0 
    0.2235    3.8995   -0.0135 H   0  0  0  0  0  0  0  0  0  0  0  0 
    6.6642    2.5013    0.0303 H   0  0  0  0  0  0  0  0  0  0  0  0 
  1 13  1  0  0  0  0 
  1 15  1  0  0  0  0 
  1  3  1  0  0  0  0 
  2 16  1  0  0  0  0 
  2 17  1  0  0  0  0 
  2  3  1  0  0  0  0 
  3 19  1  0  0  0  0 
  4  3  1  0  0  0  0 
  4  9  1  0  0  0  0 
  4 10  1  0  0  0  0 
  5  9  1  0  0  0  0 
  5 11  1  0  0  0  0 
  6 12  1  0  0  0  0 
  6 10  1  0  0  0  0 
  7  5  2  0  0  0  0 
  8  6  2  0  0  0  0 
  9 23  1  0  0  0  0 
 10 24  1  0  0  0  0 
 14  1  1  0  0  0  0 
 18  2  1  0  0  0  0 
 20  4  1  0  0  0  0 
 21  7  1  0  0  0  0 
 22  8  1  0  0  0  0 
 25 11  1  0  0  0  0 
 26 12  1  0  0  0  0 
M  END 
>  <HBA> 
6 
 
>  <HBD> 
4 
 
>  <TPSA> 
110.24 
 
>  <cid> 
22478 
 
>  <dipole> 
3.69 
 
>  <excitation_energy_1> 
5.784 
 
>  <excitation_energy_2> 
5.989 
 
>  <excitation_energy_3> 
6.082 
 
>  <excitation_energy_4> 
6.265 
 
>  <homo_energy> 
-6.387 
 
>  <homo_lumo_gap> 
7.837 
 
>  <logP> 
1.488 
 
>  <lumo_energy> 
1.45 
 
>  <melting_point> 
199.74 
 
>  <molecular_refractivity> 
43.15 
 
>  <oscillator_strength_1> 
0.0041 
 
>  <oscillator_strength_2> 
0.0108 
 
>  <oscillator_strength_3> 
0.0087 
 
>  <oscillator_strength_4> 
0.0096 
 
>  <open_babel_can_smiles> 
CC(C(NC(=N)O)NC(=N)O)C 
 
>  <mulliken_charges> 
26 
1   -0.446354 
2   -0.449326 
3   -0.112328 
4   0.171499 
5   0.633275 
6   0.645019 
7   -0.656778 
8   -0.664146 
9   -0.57736 
10   -0.622789 
11   -0.599304 
12   -0.612759 
13   0.148937 
14   0.142557 
15   0.171362 
16   0.155602 
17   0.145131 
18   0.152446 
19   0.129 
20   0.138468 
21   0.286272 
22   0.300925 
23   0.33643 
24   0.339103 
25   0.423766 
26   0.421353 
 
>  <lowdin_charges> 
26 
1   -0.443561 
2   -0.443251 
3   -0.129693 
4   0.007548 
5   0.158175 
6   0.162947 
7   -0.496407 
8   -0.484754 
9   -0.291806 
10   -0.308582 
11   -0.377144 
12   -0.389081 
13   0.153334 
14   0.146376 
15   0.1645 
16   0.156382 
17   0.148246 
18   0.151239 
19   0.137422 
20   0.141282 
21   0.256213 
22   0.262083 
23   0.287999 
24   0.289915 
25   0.371201 
26   0.369416 
 
$$$$ 
 
