PCCDB-ID:  70364 
public computational chemistry database (PCCDB) project, http://pccdb.org 
 
 30 30  0  0  1  0  0  0  0  0999 V2000 
    7.2696   -4.5563   -0.4574 C   0  0  0  0  0  0  0  0  0  0  0  0 
    6.4986   -3.3439    0.0345 C   0  0  0  0  0  0  0  0  0  0  0  0 
    3.0579   -3.1192    2.9011 C   0  0  0  0  0  0  0  0  0  0  0  0 
    2.5953   -0.7643    2.8115 C   0  0  0  0  0  0  0  0  0  0  0  0 
    2.7311   -3.1418    4.2584 C   0  0  0  0  0  0  0  0  0  0  0  0 
    2.2701   -0.7707    4.1637 C   0  0  0  0  0  0  0  0  0  0  0  0 
    3.3624   -1.9450    0.6832 C   0  0  0  0  0  0  0  0  0  0  0  0 
    2.9980   -1.9388    2.1524 C   0  0  0  0  0  0  0  0  0  0  0  0 
    2.3369   -1.9626    4.8945 C   0  0  0  0  0  0  0  0  0  0  0  0 
    4.6440   -1.1277    0.3377 C   0  0  1  0  0  0  0  0  0  0  0  0 
    5.1521   -1.5983   -1.0384 C   0  0  0  0  0  0  0  0  0  0  0  0 
    4.3371    0.3010    0.3385 N   0  0  0  0  0  0  0  0  0  0  0  0 
    2.0028   -1.9100    6.2213 O   0  0  0  0  0  0  0  0  0  0  0  0 
    4.8212   -1.0373   -2.0588 O   0  0  0  0  0  0  0  0  0  0  0  0 
    5.9331   -2.7047   -1.1276 O   0  0  0  0  0  0  0  0  0  0  0  0 
    7.7361   -5.0724    0.3887 H   0  0  0  0  0  0  0  0  0  0  0  0 
    8.0537   -4.2549   -1.1585 H   0  0  0  0  0  0  0  0  0  0  0  0 
    6.6018   -5.2566   -0.9682 H   0  0  0  0  0  0  0  0  0  0  0  0 
    7.1647   -2.6427    0.5523 H   0  0  0  0  0  0  0  0  0  0  0  0 
    5.7064   -3.6424    0.7303 H   0  0  0  0  0  0  0  0  0  0  0  0 
    3.3536   -4.0484    2.4179 H   0  0  0  0  0  0  0  0  0  0  0  0 
    2.5569    0.1643    2.2522 H   0  0  0  0  0  0  0  0  0  0  0  0 
    2.7816   -4.0748    4.8175 H   0  0  0  0  0  0  0  0  0  0  0  0 
    1.9576    0.1371    4.6705 H   0  0  0  0  0  0  0  0  0  0  0  0 
    2.5511   -1.5291    0.0717 H   0  0  0  0  0  0  0  0  0  0  0  0 
    3.4900   -2.9829    0.3512 H   0  0  0  0  0  0  0  0  0  0  0  0 
    5.3943   -1.3147    1.1111 H   0  0  0  0  0  0  0  0  0  0  0  0 
    3.8956    0.5158   -0.5571 H   0  0  0  0  0  0  0  0  0  0  0  0 
    5.2046    0.8362    0.3468 H   0  0  0  0  0  0  0  0  0  0  0  0 
    2.0790   -2.7997    6.5995 H   0  0  0  0  0  0  0  0  0  0  0  0 
  1  2  1  0  0  0  0 
  1 16  1  0  0  0  0 
  2 19  1  0  0  0  0 
  2 20  1  0  0  0  0 
  3  5  2  0  0  0  0 
  4  6  1  0  0  0  0 
  5 23  1  0  0  0  0 
  5  9  1  0  0  0  0 
  6 24  1  0  0  0  0 
  6  9  2  0  0  0  0 
  7  8  1  0  0  0  0 
  8  4  2  0  0  0  0 
  8  3  1  0  0  0  0 
  9 13  1  0  0  0  0 
 10 12  1  0  0  0  0 
 10  7  1  0  0  0  0 
 10 27  1  1  0  0  0 
 11 10  1  0  0  0  0 
 12 29  1  0  0  0  0 
 13 30  1  0  0  0  0 
 14 11  2  0  0  0  0 
 15 11  1  0  0  0  0 
 15  2  1  0  0  0  0 
 17  1  1  0  0  0  0 
 18  1  1  0  0  0  0 
 21  3  1  0  0  0  0 
 22  4  1  0  0  0  0 
 25  7  1  0  0  0  0 
 26  7  1  0  0  0  0 
 28 12  1  0  0  0  0 
M  END 
>  <HBA> 
4 
 
>  <HBD> 
2 
 
>  <TPSA> 
72.55 
 
>  <cid> 
70364 
 
>  <dipole> 
4.19 
 
>  <excitation_energy_1> 
4.933 
 
>  <excitation_energy_2> 
5.062 
 
>  <excitation_energy_3> 
5.101 
 
>  <excitation_energy_4> 
5.386 
 
>  <homo_energy> 
-5.84 
 
>  <homo_lumo_gap> 
5.823 
 
>  <logP> 
1.525 
 
>  <lumo_energy> 
-0.016 
 
>  <melting_point> 
112.16 
 
>  <molecular_refractivity> 
56.65 
 
>  <oscillator_strength_1> 
0.0253 
 
>  <oscillator_strength_2> 
0.0363 
 
>  <oscillator_strength_3> 
0.0352 
 
>  <oscillator_strength_4> 
0.0022 
 
>  <open_babel_can_smiles> 
CCOC(=O)[C@H](Cc1ccc(cc1)O)N 
 
>  <mulliken_charges> 
30 
1   -0.455902 
2   -0.047652 
3   -0.201401 
4   -0.174055 
5   -0.194233 
6   -0.160789 
7   -0.351527 
8   0.16064 
9   0.350068 
10   -0.087293 
11   0.592049 
12   -0.699998 
13   -0.643398 
14   -0.45855 
15   -0.447219 
16   0.151798 
17   0.171022 
18   0.168332 
19   0.151835 
20   0.153345 
21   0.118063 
22   0.159447 
23   0.115081 
24   0.139266 
25   0.165447 
26   0.147905 
27   0.151594 
28   0.317399 
29   0.302995 
30   0.405731 
 
>  <lowdin_charges> 
30 
1   -0.449538 
2   -0.130254 
3   -0.162802 
4   -0.146507 
5   -0.21928 
6   -0.185569 
7   -0.270153 
8   -0.026516 
9   0.103161 
10   -0.107615 
11   0.18002 
12   -0.530804 
13   -0.380887 
14   -0.253148 
15   -0.191975 
16   0.159735 
17   0.164874 
18   0.163997 
19   0.145452 
20   0.145595 
21   0.151123 
22   0.173595 
23   0.151924 
24   0.167517 
25   0.163921 
26   0.14887 
27   0.155414 
28   0.264561 
29   0.259692 
30   0.355597 
 
$$$$ 
 
