PCCDB-ID:  21150 
public computational chemistry database (PCCDB) project, http://pccdb.org 
 
 25 25  0  0  0  0  0  0  0  0999 V2000 
    0.7660    1.3089   -0.1973 C   0  0  0  0  0  0  0  0  0  0  0  0 
    1.4827    0.0210    0.2338 C   0  0  0  0  0  0  0  0  0  0  0  0 
   -0.6950    1.3155    0.2777 C   0  0  0  0  0  0  0  0  0  0  0  0 
    0.7239   -1.2253   -0.2468 C   0  0  0  0  0  0  0  0  0  0  0  0 
   -1.4509    0.0544   -0.1745 C   0  0  0  0  0  0  0  0  0  0  0  0 
   -1.4597   -2.4754   -0.4049 C   0  0  0  0  0  0  0  0  0  0  0  0 
   -0.7503   -1.2619    0.2324 C   0  0  0  0  0  0  0  0  0  0  0  0 
   -2.8707   -2.5175   -0.0226 N   0  0  0  0  0  0  0  0  0  0  0  0 
   -0.8755   -1.4371    1.6990 N   0  0  0  0  0  0  0  0  0  0  0  0 
    0.7887    1.3817   -1.2949 H   0  0  0  0  0  0  0  0  0  0  0  0 
    1.2976    2.1896    0.1856 H   0  0  0  0  0  0  0  0  0  0  0  0 
    1.5694    0.0008    1.3302 H   0  0  0  0  0  0  0  0  0  0  0  0 
    2.5090    0.0047   -0.1541 H   0  0  0  0  0  0  0  0  0  0  0  0 
   -1.2138    2.2063   -0.0988 H   0  0  0  0  0  0  0  0  0  0  0  0 
   -0.7187    1.4021    1.3747 H   0  0  0  0  0  0  0  0  0  0  0  0 
    1.2385   -2.1377    0.0885 H   0  0  0  0  0  0  0  0  0  0  0  0 
    0.7407   -1.2476   -1.3466 H   0  0  0  0  0  0  0  0  0  0  0  0 
   -1.5320    0.0642   -1.2702 H   0  0  0  0  0  0  0  0  0  0  0  0 
   -2.4740    0.0489    0.2114 H   0  0  0  0  0  0  0  0  0  0  0  0 
   -0.8895   -3.3824   -0.1180 H   0  0  0  0  0  0  0  0  0  0  0  0 
   -1.3908   -2.3968   -1.4979 H   0  0  0  0  0  0  0  0  0  0  0  0 
   -2.9093   -2.4782    0.9958 H   0  0  0  0  0  0  0  0  0  0  0  0 
   -3.2835   -3.4029   -0.3091 H   0  0  0  0  0  0  0  0  0  0  0  0 
   -0.5959   -0.5909    2.1899 H   0  0  0  0  0  0  0  0  0  0  0  0 
   -0.2347   -2.1686    2.0091 H   0  0  0  0  0  0  0  0  0  0  0  0 
  1 11  1  0  0  0  0 
  1  2  1  0  0  0  0 
  1  3  1  0  0  0  0 
  2 12  1  0  0  0  0 
  3 15  1  0  0  0  0 
  4 16  1  0  0  0  0 
  4  7  1  0  0  0  0 
  4  2  1  0  0  0  0 
  5 19  1  0  0  0  0 
  5  7  1  0  0  0  0 
  5  3  1  0  0  0  0 
  6 20  1  0  0  0  0 
  6  8  1  0  0  0  0 
  6  7  1  0  0  0  0 
  7  9  1  0  0  0  0 
  8 22  1  0  0  0  0 
  9 25  1  0  0  0  0 
  9 24  1  0  0  0  0 
 10  1  1  0  0  0  0 
 13  2  1  0  0  0  0 
 14  3  1  0  0  0  0 
 17  4  1  0  0  0  0 
 18  5  1  0  0  0  0 
 21  6  1  0  0  0  0 
 23  8  1  0  0  0  0 
M  END 
>  <HBA> 
2 
 
>  <HBD> 
2 
 
>  <TPSA> 
52.04 
 
>  <cid> 
21150 
 
>  <dipole> 
1.85 
 
>  <excitation_energy_1> 
5.328 
 
>  <excitation_energy_2> 
5.684 
 
>  <excitation_energy_3> 
5.855 
 
>  <excitation_energy_4> 
6.083 
 
>  <homo_energy> 
-5.875 
 
>  <homo_lumo_gap> 
7.66 
 
>  <logP> 
2.007 
 
>  <lumo_energy> 
1.785 
 
>  <melting_point> 
114.87 
 
>  <molecular_refractivity> 
39.1 
 
>  <oscillator_strength_1> 
0.0013 
 
>  <oscillator_strength_2> 
0.0185 
 
>  <oscillator_strength_3> 
0.006 
 
>  <oscillator_strength_4> 
0.0037 
 
>  <open_babel_can_smiles> 
NCC1(N)CCCCC1 
 
>  <mulliken_charges> 
25 
1   -0.252649 
2   -0.260657 
3   -0.275413 
4   -0.266016 
5   -0.250721 
6   -0.116988 
7   0.17662 
8   -0.727387 
9   -0.741924 
10   0.128865 
11   0.12881 
12   0.115384 
13   0.132281 
14   0.13499 
15   0.121716 
16   0.116492 
17   0.126021 
18   0.12733 
19   0.162314 
20   0.094977 
21   0.12953 
22   0.314362 
23   0.289146 
24   0.302776 
25   0.290141 
 
>  <lowdin_charges> 
25 
1   -0.277018 
2   -0.277027 
3   -0.279682 
4   -0.289981 
5   -0.277245 
6   -0.204843 
7   0.052231 
8   -0.559755 
9   -0.55536 
10   0.136 
11   0.143028 
12   0.129317 
13   0.143875 
14   0.147141 
15   0.130253 
16   0.136431 
17   0.138312 
18   0.14181 
19   0.160292 
20   0.110953 
21   0.136267 
22   0.257789 
23   0.251158 
24   0.254545 
25   0.251513 
 
$$$$ 
 
