PCCDB-ID:  6957 
public computational chemistry database (PCCDB) project, http://pccdb.org 
 
 19 19  0  0  0  0  0  0  0  0999 V2000 
   -1.3035    0.1177    0.1828 C   0  0  0  0  0  0  0  0  0  0  0  0 
   -0.5592   -1.0614    0.1742 C   0  0  0  0  0  0  0  0  0  0  0  0 
   -0.6747    1.3383   -0.0495 C   0  0  0  0  0  0  0  0  0  0  0  0 
    0.8114   -0.9984   -0.0479 C   0  0  0  0  0  0  0  0  0  0  0  0 
    0.7086    1.4341   -0.2707 C   0  0  0  0  0  0  0  0  0  0  0  0 
    1.4620    0.2321   -0.2474 C   0  0  0  0  0  0  0  0  0  0  0  0 
    1.2171    2.8272   -0.5925 C   0  0  0  0  0  0  0  0  0  0  0  0 
    2.9424    0.2040   -0.3811 C   0  0  0  0  0  0  0  0  0  0  0  0 
    0.6444    3.6016   -1.4286 N   0  0  0  0  0  0  0  0  0  0  0  0 
    2.2556    3.3094    0.1153 O   0  0  0  0  0  0  0  0  0  0  0  0 
    3.7115    1.1033   -0.0715 O   0  0  0  0  0  0  0  0  0  0  0  0 
    3.4127   -0.9670   -0.8566 O   0  0  0  0  0  0  0  0  0  0  0  0 
   -2.3740    0.0907    0.3657 H   0  0  0  0  0  0  0  0  0  0  0  0 
   -1.0390   -2.0206    0.3435 H   0  0  0  0  0  0  0  0  0  0  0  0 
   -1.2611    2.2515   -0.0517 H   0  0  0  0  0  0  0  0  0  0  0  0 
    1.4020   -1.9071   -0.0581 H   0  0  0  0  0  0  0  0  0  0  0  0 
   -0.1501    3.1302   -1.8623 H   0  0  0  0  0  0  0  0  0  0  0  0 
    2.8432    2.5661    0.3714 H   0  0  0  0  0  0  0  0  0  0  0  0 
    4.3858   -0.8892   -0.8511 H   0  0  0  0  0  0  0  0  0  0  0  0 
  1 13  1  0  0  0  0 
  2  1  1  0  0  0  0 
  2 14  1  0  0  0  0 
  3  1  2  0  0  0  0 
  4  2  2  0  0  0  0 
  5  6  2  0  0  0  0 
  5  3  1  0  0  0  0 
  6  4  1  0  0  0  0 
  7  5  1  0  0  0  0 
  7 10  1  0  0  0  0 
  8  6  1  0  0  0  0 
  8 11  2  0  0  0  0 
  9  7  2  0  0  0  0 
 10 18  1  0  0  0  0 
 12 19  1  0  0  0  0 
 12  8  1  0  0  0  0 
 15  3  1  0  0  0  0 
 16  4  1  0  0  0  0 
 17  9  1  0  0  0  0 
M  END 
>  <HBA> 
4 
 
>  <HBD> 
2 
 
>  <TPSA> 
80.39 
 
>  <cid> 
6957 
 
>  <dipole> 
6.16 
 
>  <excitation_energy_1> 
4.21 
 
>  <excitation_energy_2> 
4.277 
 
>  <excitation_energy_3> 
4.847 
 
>  <excitation_energy_4> 
5.057 
 
>  <homo_energy> 
-6.841 
 
>  <homo_lumo_gap> 
4.879 
 
>  <logP> 
1.184 
 
>  <lumo_energy> 
-1.962 
 
>  <melting_point> 
185.45 
 
>  <molecular_refractivity> 
41.5 
 
>  <oscillator_strength_1> 
0.0466 
 
>  <oscillator_strength_2> 
0.0039 
 
>  <oscillator_strength_3> 
0.0108 
 
>  <oscillator_strength_4> 
0.0144 
 
>  <open_babel_can_smiles> 
OC(=O)c1ccccc1C(=N)O 
 
>  <mulliken_charges> 
19 
1   -0.114605 
2   -0.127727 
3   -0.187391 
4   -0.159737 
5   0.038028 
6   0.036703 
7   0.419298 
8   0.547892 
9   -0.573489 
10   -0.598245 
11   -0.498121 
12   -0.561292 
13   0.150708 
14   0.148512 
15   0.162716 
16   0.16926 
17   0.282186 
18   0.441913 
19   0.42339 
 
>  <lowdin_charges> 
19 
1   -0.129397 
2   -0.150168 
3   -0.152945 
4   -0.133465 
5   -0.017435 
6   -0.052434 
7   0.125257 
8   0.211544 
9   -0.390579 
10   -0.369541 
11   -0.277018 
12   -0.335007 
13   0.166584 
14   0.167542 
15   0.174267 
16   0.17795 
17   0.255406 
18   0.361039 
19   0.3684 
 
$$$$ 
 
