PCCDB-ID:  20438 
public computational chemistry database (PCCDB) project, http://pccdb.org 
 
 19 19  0  0  0  0  0  0  0  0999 V2000 
    3.5803    1.4127    0.8949 C   0  0  0  0  0  0  0  0  0  0  0  0 
    1.8406   -5.0206   -0.1348 C   0  0  0  0  0  0  0  0  0  0  0  0 
    4.3927   -2.0965    3.0351 C   0  0  0  0  0  0  0  0  0  0  0  0 
    3.3338   -1.3368    1.2188 C   0  0  0  0  0  0  0  0  0  0  0  0 
    3.2887   -3.5302    1.7091 C   0  0  0  0  0  0  0  0  0  0  0  0 
    5.8473   -3.5288    5.6297 N   0  0  0  0  0  0  0  0  0  0  0  0 
    4.0794   -1.0336    2.2836 N   0  0  0  0  0  0  0  0  0  0  0  0 
    4.0372   -3.3631    2.8135 N   0  0  0  0  0  0  0  0  0  0  0  0 
    2.9049   -2.5637    0.8744 N   0  0  0  0  0  0  0  0  0  0  0  0 
    5.1747   -1.7911    4.1561 N   0  0  0  0  0  0  0  0  0  0  0  0 
    5.4846   -2.7629    4.8784 N   0  0  0  0  0  0  0  0  0  0  0  0 
    2.8276   -0.0588    0.1174 S   0  0  0  0  0  0  0  0  0  0  0  0 
    2.8105   -5.1977    1.4027 S   0  0  0  0  0  0  0  0  0  0  0  0 
    3.3179    2.2541    0.2485 H   0  0  0  0  0  0  0  0  0  0  0  0 
    4.6646    1.3084    0.9505 H   0  0  0  0  0  0  0  0  0  0  0  0 
    3.1767    1.5710    1.8959 H   0  0  0  0  0  0  0  0  0  0  0  0 
    1.4920   -6.0270   -0.3800 H   0  0  0  0  0  0  0  0  0  0  0  0 
    2.4627   -4.6343   -0.9433 H   0  0  0  0  0  0  0  0  0  0  0  0 
    0.9880   -4.3578    0.0196 H   0  0  0  0  0  0  0  0  0  0  0  0 
  1 15  1  0  0  0  0 
  1 16  1  0  0  0  0 
  2 19  1  0  0  0  0 
  2 13  1  0  0  0  0 
  3 10  1  0  0  0  0 
  4  7  2  0  0  0  0 
  5  8  2  0  0  0  0 
  7  3  2  0  0  0  0 
  8  3  2  0  0  0  0 
  9  4  1  0  0  0  0 
  9  5  1  0  0  0  0 
 10 11  2  0  0  0  0 
 11  6  2  0  0  0  0 
 12  1  1  0  0  0  0 
 12  4  1  0  0  0  0 
 13  5  1  0  0  0  0 
 14  1  1  0  0  0  0 
 17  2  1  0  0  0  0 
 18  2  1  0  0  0  0 
M  RAD  2   6   2   9   2 
M  END 
>  <HBA> 
6 
 
>  <HBD> 
0 
 
>  <TPSA> 
139.02 
 
>  <cid> 
20438 
 
>  <dipole> 
1.83 
 
>  <excitation_energy_1> 
4.182 
 
>  <excitation_energy_2> 
4.342 
 
>  <excitation_energy_3> 
4.524 
 
>  <excitation_energy_4> 
4.616 
 
>  <homo_energy> 
-6.814 
 
>  <homo_lumo_gap> 
5.023 
 
>  <logP> 
1.71 
 
>  <lumo_energy> 
-1.791 
 
>  <melting_point> 
132.43 
 
>  <molecular_refractivity> 
48.81 
 
>  <oscillator_strength_1> 
0.0074 
 
>  <oscillator_strength_2> 
0.0261 
 
>  <oscillator_strength_3> 
0.0003 
 
>  <oscillator_strength_4> 
0.0 
 
>  <open_babel_can_smiles> 
CSC1=[N]=[C](=[N]=C([N]1)SC)N=[N]=[N] 
 
>  <mulliken_charges> 
19 
1   -0.586517 
2   -0.58702 
3   0.625279 
4   0.264496 
5   0.258984 
6   -0.205522 
7   -0.461954 
8   -0.473716 
9   -0.44613 
10   -0.432954 
11   0.474633 
12   0.188996 
13   0.192058 
14   0.18425 
15   0.205876 
16   0.205062 
17   0.184688 
18   0.2043 
19   0.205191 
 
>  <lowdin_charges> 
19 
1   -0.538859 
2   -0.541172 
3   0.140836 
4   0.00065 
5   -0.000871 
6   -0.031517 
7   -0.19698 
8   -0.215742 
9   -0.204634 
10   -0.159494 
11   0.230844 
12   0.219185 
13   0.22194 
14   0.178674 
15   0.178879 
16   0.179568 
17   0.177487 
18   0.180517 
19   0.180691 
 
$$$$ 
 
