PCCDB-ID:  35169 
public computational chemistry database (PCCDB) project, http://pccdb.org 
 
 25 25  0  0  1  0  0  0  0  0999 V2000 
    1.4224    1.3941   -3.1277 C   0  0  0  0  0  0  0  0  0  0  0  0 
   11.0505   -2.5014   -0.8100 C   0  0  0  0  0  0  0  0  0  0  0  0 
    2.9142    1.5063   -2.8204 C   0  0  0  0  0  0  0  0  0  0  0  0 
   10.0409   -1.3818   -1.0532 C   0  0  0  0  0  0  0  0  0  0  0  0 
    7.1250    1.6380   -1.9129 C   0  0  0  0  0  0  0  0  0  0  0  0 
    5.3017    0.2238   -2.2094 C   0  0  2  0  0  0  0  0  0  0  0  0 
    7.4416   -0.6429   -1.6765 C   0  0  2  0  0  0  0  0  0  0  0  0 
    7.6447    2.8051   -1.8898 N   0  0  0  0  0  0  0  0  0  0  0  0 
    5.7459    1.4261   -2.1972 N   0  0  0  0  0  0  0  0  0  0  0  0 
    7.9563    0.5273   -1.6438 N   0  0  0  0  0  0  0  0  0  0  0  0 
    6.1013   -0.8791   -1.9587 N   0  0  0  0  0  0  0  0  0  0  0  0 
    3.6054   -0.1793   -2.5492 S   0  0  0  0  0  0  0  0  0  0  0  0 
    8.3802   -2.1176   -1.3633 S   0  0  0  0  0  0  0  0  0  0  0  0 
    1.0142    2.3959   -3.2997 H   0  0  0  0  0  0  0  0  0  0  0  0 
    0.8703    0.9441   -2.2962 H   0  0  0  0  0  0  0  0  0  0  0  0 
    1.2377    0.7972   -4.0269 H   0  0  0  0  0  0  0  0  0  0  0  0 
   12.0354   -2.0611   -0.6206 H   0  0  0  0  0  0  0  0  0  0  0  0 
   11.1386   -3.1629   -1.6781 H   0  0  0  0  0  0  0  0  0  0  0  0 
   10.7819   -3.1094    0.0604 H   0  0  0  0  0  0  0  0  0  0  0  0 
    3.1042    2.0919   -1.9186 H   0  0  0  0  0  0  0  0  0  0  0  0 
    3.4685    1.9638   -3.6423 H   0  0  0  0  0  0  0  0  0  0  0  0 
   10.2995   -0.7750   -1.9230 H   0  0  0  0  0  0  0  0  0  0  0  0 
    9.9530   -0.7139   -0.1940 H   0  0  0  0  0  0  0  0  0  0  0  0 
    6.9076    3.4825   -2.1038 H   0  0  0  0  0  0  0  0  0  0  0  0 
    5.7245   -1.8176   -1.9754 H   0  0  0  0  0  0  0  0  0  0  0  0 
  1  3  1  0  0  0  0 
  1 15  1  0  0  0  0 
  2 17  1  0  0  0  0 
  2 19  1  0  0  0  0 
  3 12  1  0  0  0  0 
  3 20  1  0  0  0  0 
  4  2  1  0  0  0  0 
  4 23  1  0  0  0  0 
  5  8  1  0  0  0  0 
  5 10  2  0  0  0  0 
  6 12  1  6  0  0  0 
  6  9  1  0  0  0  0 
  6 11  1  0  0  0  0 
  7 10  1  0  0  0  0 
  7 13  1  1  0  0  0 
  9  5  2  0  0  0  0 
 11  7  1  0  0  0  0 
 13  4  1  0  0  0  0 
 14  1  1  0  0  0  0 
 16  1  1  0  0  0  0 
 18  2  1  0  0  0  0 
 21  3  1  0  0  0  0 
 22  4  1  0  0  0  0 
 24  8  1  0  0  0  0 
 25 11  1  0  0  0  0 
M  RAD  3   6   2   7   2   8   2 
M  END 
>  <HBA> 
6 
 
>  <HBD> 
1 
 
>  <TPSA> 
115.29 
 
>  <cid> 
35169 
 
>  <dipole> 
4.06 
 
>  <excitation_energy_1> 
4.523 
 
>  <excitation_energy_2> 
4.874 
 
>  <excitation_energy_3> 
4.895 
 
>  <excitation_energy_4> 
5.182 
 
>  <homo_energy> 
-6.09 
 
>  <homo_lumo_gap> 
5.437 
 
>  <logP> 
2.259 
 
>  <lumo_energy> 
-0.653 
 
>  <melting_point> 
125.3 
 
>  <molecular_refractivity> 
57.29 
 
>  <oscillator_strength_1> 
0.0024 
 
>  <oscillator_strength_2> 
0.0051 
 
>  <oscillator_strength_3> 
0.0003 
 
>  <oscillator_strength_4> 
0.0 
 
>  <open_babel_can_smiles> 
CCS[C]1N[C](SCC)N=[C](=N1)[NH] 
 
>  <mulliken_charges> 
25 
1   -0.46706 
2   -0.467246 
3   -0.389735 
4   -0.389378 
5   0.501153 
6   0.325036 
7   0.320277 
8   -0.599377 
9   -0.478586 
10   -0.442536 
11   -0.646579 
12   0.136024 
13   0.130359 
14   0.167417 
15   0.168335 
16   0.168208 
17   0.168056 
18   0.166791 
19   0.165882 
20   0.201892 
21   0.201367 
22   0.208226 
23   0.205437 
24   0.28293 
25   0.363106 
 
>  <lowdin_charges> 
25 
1   -0.447285 
2   -0.447848 
3   -0.352527 
4   -0.349781 
5   0.103015 
6   -0.002893 
7   -0.003061 
8   -0.389933 
9   -0.231906 
10   -0.195083 
11   -0.239604 
12   0.158446 
13   0.154066 
14   0.164664 
15   0.161887 
16   0.161158 
17   0.165107 
18   0.16052 
19   0.160137 
20   0.175497 
21   0.175862 
22   0.17949 
23   0.177557 
24   0.254203 
25   0.308311 
 
$$$$ 
 
