PCCDB-ID:  70790 
public computational chemistry database (PCCDB) project, http://pccdb.org 
 
 21 21  0  0  0  0  0  0  0  0999 V2000 
    2.1875   -1.1964   -0.6223 C   0  0  0  0  0  0  0  0  0  0  0  0 
    4.0354   -3.6637    2.9238 C   0  0  0  0  0  0  0  0  0  0  0  0 
    4.0259    1.3142    3.2796 C   0  0  0  0  0  0  0  0  0  0  0  0 
    3.4082    1.3400    2.0319 C   0  0  0  0  0  0  0  0  0  0  0  0 
    4.3490    0.0817    3.8414 C   0  0  0  0  0  0  0  0  0  0  0  0 
    2.4670    0.1348    0.0391 C   0  0  0  0  0  0  0  0  0  0  0  0 
    4.3832   -2.4274    3.7227 C   0  0  0  0  0  0  0  0  0  0  0  0 
    3.1357    0.1232    1.3922 C   0  0  0  0  0  0  0  0  0  0  0  0 
    4.0385   -1.0837    3.1276 C   0  0  0  0  0  0  0  0  0  0  0  0 
    3.4430   -1.0671    1.9268 N   0  0  0  0  0  0  0  0  0  0  0  0 
    2.1737    1.1981   -0.4825 O   0  0  0  0  0  0  0  0  0  0  0  0 
    4.9263   -2.4854    4.8137 O   0  0  0  0  0  0  0  0  0  0  0  0 
    1.5839   -1.8346    0.0316 H   0  0  0  0  0  0  0  0  0  0  0  0 
    3.1237   -1.7368   -0.8022 H   0  0  0  0  0  0  0  0  0  0  0  0 
    1.6694   -1.0222   -1.5669 H   0  0  0  0  0  0  0  0  0  0  0  0 
    4.5454   -3.6491    1.9543 H   0  0  0  0  0  0  0  0  0  0  0  0 
    2.9622   -3.6934    2.7072 H   0  0  0  0  0  0  0  0  0  0  0  0 
    4.3313   -4.5481    3.4906 H   0  0  0  0  0  0  0  0  0  0  0  0 
    4.2519    2.2381    3.8047 H   0  0  0  0  0  0  0  0  0  0  0  0 
    3.1309    2.2646    1.5381 H   0  0  0  0  0  0  0  0  0  0  0  0 
    4.8307   -0.0098    4.8085 H   0  0  0  0  0  0  0  0  0  0  0  0 
  1 13  1  0  0  0  0 
  1  6  1  0  0  0  0 
  2 18  1  0  0  0  0 
  2  7  1  0  0  0  0 
  3 19  1  0  0  0  0 
  3  5  1  0  0  0  0 
  4  3  2  0  0  0  0 
  5 21  1  0  0  0  0 
  6  8  1  0  0  0  0 
  7 12  2  0  0  0  0 
  8 10  2  0  0  0  0 
  8  4  1  0  0  0  0 
  9  7  1  0  0  0  0 
  9  5  2  0  0  0  0 
 10  9  1  0  0  0  0 
 11  6  2  0  0  0  0 
 14  1  1  0  0  0  0 
 15  1  1  0  0  0  0 
 16  2  1  0  0  0  0 
 17  2  1  0  0  0  0 
 20  4  1  0  0  0  0 
M  END 
>  <HBA> 
3 
 
>  <HBD> 
0 
 
>  <TPSA> 
47.03 
 
>  <cid> 
70790 
 
>  <dipole> 
0.01 
 
>  <excitation_energy_1> 
3.496 
 
>  <excitation_energy_2> 
3.506 
 
>  <excitation_energy_3> 
4.062 
 
>  <excitation_energy_4> 
4.08 
 
>  <homo_energy> 
-6.901 
 
>  <homo_lumo_gap> 
4.836 
 
>  <logP> 
1.487 
 
>  <lumo_energy> 
-2.065 
 
>  <melting_point> 
89.62 
 
>  <molecular_refractivity> 
44.63 
 
>  <oscillator_strength_1> 
0.0 
 
>  <oscillator_strength_2> 
0.0 
 
>  <oscillator_strength_3> 
0.0003 
 
>  <oscillator_strength_4> 
0.0 
 
>  <open_babel_can_smiles> 
CC(=O)c1cccc(n1)C(=O)C 
 
>  <mulliken_charges> 
21 
1   -0.521231 
2   -0.521335 
3   -0.103055 
4   -0.142409 
5   -0.14236 
6   0.416857 
7   0.41692 
8   0.228812 
9   0.228834 
10   -0.554963 
11   -0.443934 
12   -0.443889 
13   0.178961 
14   0.178918 
15   0.174606 
16   0.17896 
17   0.178924 
18   0.174599 
19   0.157983 
20   0.179401 
21   0.179399 
 
>  <lowdin_charges> 
21 
1   -0.469468 
2   -0.465954 
3   -0.125516 
4   -0.132151 
5   -0.130009 
6   0.161346 
7   0.157938 
8   0.004505 
9   0.004505 
10   -0.137406 
11   -0.232929 
12   -0.231479 
13   0.178658 
14   0.177855 
15   0.171218 
16   0.177443 
17   0.175937 
18   0.171713 
19   0.171314 
20   0.186696 
21   0.185784 
 
$$$$ 
 
