PCCDB-ID:  26313 
public computational chemistry database (PCCDB) project, http://pccdb.org 
 
 24 24  0  0  1  0  0  0  0  0999 V2000 
    1.5844    0.3906    1.2886 C   0  0  0  0  0  0  0  0  0  0  0  0 
    3.3341   -1.3266   -1.7871 C   0  0  0  0  0  0  0  0  0  0  0  0 
    5.7376   -1.6492    2.2640 C   0  0  0  0  0  0  0  0  0  0  0  0 
    1.9398   -0.0086   -0.1480 C   0  0  0  0  0  0  0  0  0  0  0  0 
    2.5839   -2.4666    0.3819 C   0  0  0  0  0  0  0  0  0  0  0  0 
    3.6501   -2.7543    1.4311 C   0  0  0  0  0  0  0  0  0  0  0  0 
    4.2778   -0.7359    0.4444 C   0  0  0  0  0  0  0  0  0  0  0  0 
    2.9912   -1.1366   -0.2963 C   0  0  1  0  0  0  0  0  0  0  0  0 
    4.5758   -1.7117    1.3913 N   0  0  0  0  0  0  0  0  0  0  0  0 
    3.7190   -3.7015    2.1864 O   0  0  0  0  0  0  0  0  0  0  0  0 
    4.9448    0.2623    0.2542 O   0  0  0  0  0  0  0  0  0  0  0  0 
    0.8206    1.1756    1.2847 H   0  0  0  0  0  0  0  0  0  0  0  0 
    2.4573    0.7855    1.8201 H   0  0  0  0  0  0  0  0  0  0  0  0 
    1.1842   -0.4484    1.8698 H   0  0  0  0  0  0  0  0  0  0  0  0 
    2.4290   -1.5649   -2.3574 H   0  0  0  0  0  0  0  0  0  0  0  0 
    4.0507   -2.1435   -1.9319 H   0  0  0  0  0  0  0  0  0  0  0  0 
    3.7746   -0.4123   -2.1960 H   0  0  0  0  0  0  0  0  0  0  0  0 
    5.4866   -2.1298    3.2111 H   0  0  0  0  0  0  0  0  0  0  0  0 
    5.9998   -0.6007    2.4138 H   0  0  0  0  0  0  0  0  0  0  0  0 
    6.5898   -2.1705    1.8155 H   0  0  0  0  0  0  0  0  0  0  0  0 
    2.3255    0.8721   -0.6746 H   0  0  0  0  0  0  0  0  0  0  0  0 
    1.0336   -0.3248   -0.6823 H   0  0  0  0  0  0  0  0  0  0  0  0 
    1.6086   -2.4240    0.8771 H   0  0  0  0  0  0  0  0  0  0  0  0 
    2.5449   -3.3077   -0.3187 H   0  0  0  0  0  0  0  0  0  0  0  0 
  1 13  1  0  0  0  0 
  1 14  1  0  0  0  0 
  3 19  1  0  0  0  0 
  3 18  1  0  0  0  0 
  4  1  1  0  0  0  0 
  5 23  1  0  0  0  0 
  5  6  1  0  0  0  0 
  6 10  2  0  0  0  0 
  7  9  1  0  0  0  0 
  8  2  1  6  0  0  0 
  8  4  1  0  0  0  0 
  8  5  1  0  0  0  0 
  8  7  1  0  0  0  0 
  9  6  1  0  0  0  0 
  9  3  1  0  0  0  0 
 11  7  2  0  0  0  0 
 12  1  1  0  0  0  0 
 15  2  1  0  0  0  0 
 16  2  1  0  0  0  0 
 17  2  1  0  0  0  0 
 20  3  1  0  0  0  0 
 21  4  1  0  0  0  0 
 22  4  1  0  0  0  0 
 24  5  1  0  0  0  0 
M  END 
>  <HBA> 
3 
 
>  <HBD> 
0 
 
>  <TPSA> 
37.38 
 
>  <cid> 
26313 
 
>  <dipole> 
1.64 
 
>  <excitation_energy_1> 
4.91 
 
>  <excitation_energy_2> 
5.479 
 
>  <excitation_energy_3> 
6.418 
 
>  <excitation_energy_4> 
6.501 
 
>  <homo_energy> 
-6.923 
 
>  <homo_lumo_gap> 
6.446 
 
>  <logP> 
0.729 
 
>  <lumo_energy> 
-0.476 
 
>  <melting_point> 
58.79 
 
>  <molecular_refractivity> 
45.41 
 
>  <oscillator_strength_1> 
0.0021 
 
>  <oscillator_strength_2> 
0.0007 
 
>  <oscillator_strength_3> 
0.0212 
 
>  <oscillator_strength_4> 
0.248 
 
>  <open_babel_can_smiles> 
CC[C@]1(C)CC(=O)N(C1=O)C 
 
>  <mulliken_charges> 
24 
1   -0.469579 
2   -0.461059 
3   -0.324818 
4   -0.2583 
5   -0.40756 
6   0.589601 
7   0.608366 
8   0.00341 
9   -0.464337 
10   -0.482117 
11   -0.503189 
12   0.15542 
13   0.163512 
14   0.146367 
15   0.15202 
16   0.149358 
17   0.174364 
18   0.189946 
19   0.189808 
20   0.178031 
21   0.160756 
22   0.138103 
23   0.186792 
24   0.185105 
 
>  <lowdin_charges> 
24 
1   -0.455233 
2   -0.437167 
3   -0.350619 
4   -0.26839 
5   -0.30772 
6   0.165003 
7   0.164124 
8   -0.018997 
9   -0.07474 
10   -0.262698 
11   -0.268462 
12   0.158849 
13   0.15739 
14   0.148027 
15   0.154836 
16   0.15298 
17   0.165973 
18   0.176617 
19   0.175748 
20   0.165811 
21   0.158782 
22   0.146214 
23   0.176301 
24   0.177371 
 
$$$$ 
 
