PCCDB-ID:  70982 
public computational chemistry database (PCCDB) project, http://pccdb.org 
 
 27 27  0  0  0  0  0  0  0  0999 V2000 
    3.1437   -0.4328   -1.3113 C   0  0  0  0  0  0  0  0  0  0  0  0 
    1.0445   -0.0472   -0.0135 C   0  0  0  0  0  0  0  0  0  0  0  0 
    3.0717   -0.9090    1.1654 C   0  0  0  0  0  0  0  0  0  0  0  0 
    2.1969    2.5531    0.5175 C   0  0  0  0  0  0  0  0  0  0  0  0 
    2.6902    3.8380    0.7764 C   0  0  0  0  0  0  0  0  0  0  0  0 
    4.4484    1.7316    0.4336 C   0  0  0  0  0  0  0  0  0  0  0  0 
    3.0689    1.4753    0.3390 C   0  0  0  0  0  0  0  0  0  0  0  0 
    4.9633    3.0030    0.6950 C   0  0  0  0  0  0  0  0  0  0  0  0 
    4.0548    4.0680    0.8646 C   0  0  0  0  0  0  0  0  0  0  0  0 
    2.5810    0.0434    0.0491 C   0  0  0  0  0  0  0  0  0  0  0  0 
    6.3327    3.2427    0.8467 N   0  0  0  0  0  0  0  0  0  0  0  0 
    4.6125    5.3060    1.1039 O   0  0  0  0  0  0  0  0  0  0  0  0 
    2.8109   -1.4557   -1.5276 H   0  0  0  0  0  0  0  0  0  0  0  0 
    4.2388   -0.4300   -1.3226 H   0  0  0  0  0  0  0  0  0  0  0  0 
    2.8004    0.2165   -2.1248 H   0  0  0  0  0  0  0  0  0  0  0  0 
    0.7421   -1.0809   -0.2169 H   0  0  0  0  0  0  0  0  0  0  0  0 
    0.6317    0.5812   -0.8109 H   0  0  0  0  0  0  0  0  0  0  0  0 
    0.5804    0.2526    0.9329 H   0  0  0  0  0  0  0  0  0  0  0  0 
    2.7376   -1.9354    0.9684 H   0  0  0  0  0  0  0  0  0  0  0  0 
    2.6773   -0.6031    2.1410 H   0  0  0  0  0  0  0  0  0  0  0  0 
    4.1642   -0.9227    1.2384 H   0  0  0  0  0  0  0  0  0  0  0  0 
    1.1238    2.4169    0.4561 H   0  0  0  0  0  0  0  0  0  0  0  0 
    1.9974    4.6687    0.9054 H   0  0  0  0  0  0  0  0  0  0  0  0 
    5.1596    0.9184    0.3071 H   0  0  0  0  0  0  0  0  0  0  0  0 
    6.9285    2.6156    0.3204 H   0  0  0  0  0  0  0  0  0  0  0  0 
    6.5909    4.2127    0.7113 H   0  0  0  0  0  0  0  0  0  0  0  0 
    3.9001    5.9584    1.1811 H   0  0  0  0  0  0  0  0  0  0  0  0 
  1 10  1  0  0  0  0 
  2 10  1  0  0  0  0 
  2 18  1  0  0  0  0 
  3 21  1  0  0  0  0 
  3 20  1  0  0  0  0 
  4  5  2  0  0  0  0 
  5  9  1  0  0  0  0 
  5 23  1  0  0  0  0 
  6  8  1  0  0  0  0 
  7  6  2  0  0  0  0 
  7  4  1  0  0  0  0 
  8 11  1  0  0  0  0 
  8  9  2  0  0  0  0 
  9 12  1  0  0  0  0 
 10  7  1  0  0  0  0 
 10  3  1  0  0  0  0 
 12 27  1  0  0  0  0 
 13  1  1  0  0  0  0 
 14  1  1  0  0  0  0 
 15  1  1  0  0  0  0 
 16  2  1  0  0  0  0 
 17  2  1  0  0  0  0 
 19  3  1  0  0  0  0 
 22  4  1  0  0  0  0 
 24  6  1  0  0  0  0 
 25 11  1  0  0  0  0 
 26 11  1  0  0  0  0 
M  END 
>  <HBA> 
2 
 
>  <HBD> 
2 
 
>  <TPSA> 
46.25 
 
>  <cid> 
70982 
 
>  <dipole> 
1.4 
 
>  <excitation_energy_1> 
4.416 
 
>  <excitation_energy_2> 
4.621 
 
>  <excitation_energy_3> 
4.832 
 
>  <excitation_energy_4> 
5.04 
 
>  <homo_energy> 
-5.059 
 
>  <homo_lumo_gap> 
5.475 
 
>  <logP> 
2.853 
 
>  <lumo_energy> 
0.416 
 
>  <melting_point> 
103.24 
 
>  <molecular_refractivity> 
52.14 
 
>  <oscillator_strength_1> 
0.007 
 
>  <oscillator_strength_2> 
0.0664 
 
>  <oscillator_strength_3> 
0.0072 
 
>  <oscillator_strength_4> 
0.0002 
 
>  <open_babel_can_smiles> 
Oc1ccc(cc1N)C(C)(C)C 
 
>  <mulliken_charges> 
27 
1   -0.436069 
2   -0.455652 
3   -0.436677 
4   -0.215159 
5   -0.198209 
6   -0.253015 
7   0.180612 
8   0.284939 
9   0.31167 
10   0.017823 
11   -0.793151 
12   -0.670523 
13   0.134637 
14   0.138222 
15   0.144669 
16   0.137841 
17   0.143115 
18   0.144342 
19   0.133806 
20   0.146779 
21   0.141327 
22   0.118086 
23   0.110432 
24   0.110537 
25   0.31485 
26   0.335802 
27   0.408969 
 
>  <lowdin_charges> 
27 
1   -0.437265 
2   -0.444126 
3   -0.435874 
4   -0.190683 
5   -0.208457 
6   -0.204351 
7   -0.007552 
8   0.036409 
9   0.066389 
10   0.019071 
11   -0.491617 
12   -0.39994 
13   0.143708 
14   0.144037 
15   0.151088 
16   0.147636 
17   0.149348 
18   0.14906 
19   0.143197 
20   0.151123 
21   0.145586 
22   0.155568 
23   0.150801 
24   0.150741 
25   0.274764 
26   0.281351 
27   0.359989 
 
$$$$ 
 
