PCCDB-ID:  32594 
public computational chemistry database (PCCDB) project, http://pccdb.org 
 
 26 26  0  0  0  0  0  0  0  0999 V2000 
    0.6611    0.2930    0.1779 C   0  0  0  0  0  0  0  0  0  0  0  0 
    2.3547    0.0468   -1.6834 C   0  0  0  0  0  0  0  0  0  0  0  0 
    5.0322   -1.9899    2.8181 C   0  0  0  0  0  0  0  0  0  0  0  0 
    6.5577    1.2266   -0.5092 C   0  0  0  0  0  0  0  0  0  0  0  0 
    7.1554    0.2229    0.2347 C   0  0  0  0  0  0  0  0  0  0  0  0 
    3.0431    1.0408    0.5687 C   0  0  0  0  0  0  0  0  0  0  0  0 
    2.1323    0.0213   -0.1651 C   0  0  0  0  0  0  0  0  0  0  0  0 
    4.5190    0.7648    0.4424 C   0  0  0  0  0  0  0  0  0  0  0  0 
    5.1580   -0.2623    1.1934 C   0  0  0  0  0  0  0  0  0  0  0  0 
    5.2428    1.4955   -0.4020 N   0  0  0  0  0  0  0  0  0  0  0  0 
    6.4504   -0.5298    1.0982 N   0  0  0  0  0  0  0  0  0  0  0  0 
    4.3849   -0.9742    2.0439 O   0  0  0  0  0  0  0  0  0  0  0  0 
    0.0018   -0.4308   -0.3158 H   0  0  0  0  0  0  0  0  0  0  0  0 
    0.3603    1.2954   -0.1535 H   0  0  0  0  0  0  0  0  0  0  0  0 
    0.4811    0.2295    1.2577 H   0  0  0  0  0  0  0  0  0  0  0  0 
    1.7190   -0.6944   -2.1826 H   0  0  0  0  0  0  0  0  0  0  0  0 
    3.3950   -0.1685   -1.9483 H   0  0  0  0  0  0  0  0  0  0  0  0 
    2.1082    1.0329   -2.0981 H   0  0  0  0  0  0  0  0  0  0  0  0 
    5.8248   -1.5629    3.4396 H   0  0  0  0  0  0  0  0  0  0  0  0 
    5.4714   -2.7555    2.1714 H   0  0  0  0  0  0  0  0  0  0  0  0 
    4.2462   -2.4198    3.4407 H   0  0  0  0  0  0  0  0  0  0  0  0 
    7.1305    1.8345   -1.2052 H   0  0  0  0  0  0  0  0  0  0  0  0 
    8.2186    0.0073    0.1517 H   0  0  0  0  0  0  0  0  0  0  0  0 
    2.7699    1.0479    1.6311 H   0  0  0  0  0  0  0  0  0  0  0  0 
    2.8607    2.0438    0.1661 H   0  0  0  0  0  0  0  0  0  0  0  0 
    2.3891   -0.9797    0.2072 H   0  0  0  0  0  0  0  0  0  0  0  0 
  1 15  1  0  0  0  0 
  2  7  1  0  0  0  0 
  3 19  1  0  0  0  0 
  3 21  1  0  0  0  0 
  4 10  1  0  0  0  0 
  4  5  2  0  0  0  0 
  5 11  1  0  0  0  0 
  6 24  1  0  0  0  0 
  7  1  1  0  0  0  0 
  7 26  1  0  0  0  0 
  7  6  1  0  0  0  0 
  8  6  1  0  0  0  0 
  8  9  1  0  0  0  0 
  9 12  1  0  0  0  0 
 10  8  2  0  0  0  0 
 11  9  2  0  0  0  0 
 12  3  1  0  0  0  0 
 13  1  1  0  0  0  0 
 14  1  1  0  0  0  0 
 16  2  1  0  0  0  0 
 17  2  1  0  0  0  0 
 18  2  1  0  0  0  0 
 20  3  1  0  0  0  0 
 22  4  1  0  0  0  0 
 23  5  1  0  0  0  0 
 25  6  1  0  0  0  0 
M  END 
>  <HBA> 
3 
 
>  <HBD> 
0 
 
>  <TPSA> 
35.01 
 
>  <cid> 
32594 
 
>  <dipole> 
1.51 
 
>  <excitation_energy_1> 
4.332 
 
>  <excitation_energy_2> 
4.752 
 
>  <excitation_energy_3> 
5.17 
 
>  <excitation_energy_4> 
5.79 
 
>  <homo_energy> 
-6.365 
 
>  <homo_lumo_gap> 
5.361 
 
>  <logP> 
1.684 
 
>  <lumo_energy> 
-1.004 
 
>  <melting_point> 
42.28 
 
>  <molecular_refractivity> 
47.91 
 
>  <oscillator_strength_1> 
0.0054 
 
>  <oscillator_strength_2> 
0.155 
 
>  <oscillator_strength_3> 
0.0001 
 
>  <oscillator_strength_4> 
0.0039 
 
>  <open_babel_can_smiles> 
COc1nccnc1CC(C)C 
 
>  <mulliken_charges> 
26 
1   -0.441284 
2   -0.439584 
3   -0.206954 
4   0.008871 
5   0.030074 
6   -0.310864 
7   -0.07768 
8   0.252777 
9   0.525902 
10   -0.441538 
11   -0.480777 
12   -0.494416 
13   0.141015 
14   0.140316 
15   0.140923 
16   0.137213 
17   0.150254 
18   0.142224 
19   0.166798 
20   0.166243 
21   0.163002 
22   0.143302 
23   0.145617 
24   0.148904 
25   0.152402 
26   0.137261 
 
>  <lowdin_charges> 
26 
1   -0.442704 
2   -0.446323 
3   -0.278887 
4   -0.134768 
5   -0.103159 
6   -0.276236 
7   -0.116744 
8   0.021543 
9   0.111195 
10   -0.126287 
11   -0.161867 
12   -0.188492 
13   0.150058 
14   0.145593 
15   0.146101 
16   0.148134 
17   0.15149 
18   0.147442 
19   0.157975 
20   0.157781 
21   0.160495 
22   0.162882 
23   0.159567 
24   0.155693 
25   0.15814 
26   0.141379 
 
$$$$ 
 
