PCCDB-ID:  19913 
public computational chemistry database (PCCDB) project, http://pccdb.org 
 
 22 22  0  0  1  0  0  0  0  0999 V2000 
    1.1103   -0.2497   -0.1637 C   0  0  0  0  0  0  0  0  0  0  0  0 
    3.9943    0.3116    2.0230 C   0  0  0  0  0  0  0  0  0  0  0  0 
    3.0295    4.3066   -1.3230 C   0  0  0  0  0  0  0  0  0  0  0  0 
    3.5234    3.2253   -2.0538 C   0  0  0  0  0  0  0  0  0  0  0  0 
    2.3888    4.0801   -0.1023 C   0  0  0  0  0  0  0  0  0  0  0  0 
    3.3759    1.9258   -1.5645 C   0  0  0  0  0  0  0  0  0  0  0  0 
    2.2371    2.7804    0.3802 C   0  0  0  0  0  0  0  0  0  0  0  0 
    2.5140    0.2665    0.1583 C   0  0  1  0  0  0  0  0  0  0  0  0 
    2.7258    1.6884   -0.3488 C   0  0  0  0  0  0  0  0  0  0  0  0 
    2.6609    0.1634    1.5716 O   0  0  0  0  0  0  0  0  0  0  0  0 
    0.9325   -0.2345   -1.2438 H   0  0  0  0  0  0  0  0  0  0  0  0 
    0.3563    0.3810    0.3186 H   0  0  0  0  0  0  0  0  0  0  0  0 
    0.9935   -1.2742    0.2039 H   0  0  0  0  0  0  0  0  0  0  0  0 
    3.9794    0.1642    3.1061 H   0  0  0  0  0  0  0  0  0  0  0  0 
    4.3988    1.3093    1.8018 H   0  0  0  0  0  0  0  0  0  0  0  0 
    4.6577   -0.4423    1.5693 H   0  0  0  0  0  0  0  0  0  0  0  0 
    3.1461    5.3195   -1.6994 H   0  0  0  0  0  0  0  0  0  0  0  0 
    4.0308    3.3924   -3.0005 H   0  0  0  0  0  0  0  0  0  0  0  0 
    2.0059    4.9183    0.4745 H   0  0  0  0  0  0  0  0  0  0  0  0 
    3.7702    1.0865   -2.1347 H   0  0  0  0  0  0  0  0  0  0  0  0 
    1.7480    2.6007    1.3336 H   0  0  0  0  0  0  0  0  0  0  0  0 
    3.2557   -0.3900   -0.3294 H   0  0  0  0  0  0  0  0  0  0  0  0 
  1  8  1  0  0  0  0 
  1 13  1  0  0  0  0 
  1 12  1  0  0  0  0 
  2 14  1  0  0  0  0 
  3  5  2  0  0  0  0 
  4  6  2  0  0  0  0 
  4  3  1  0  0  0  0 
  5  7  1  0  0  0  0 
  5 19  1  0  0  0  0 
  6  9  1  0  0  0  0 
  7 21  1  0  0  0  0 
  8 22  1  6  0  0  0 
  8 10  1  0  0  0  0 
  9  8  1  0  0  0  0 
  9  7  2  0  0  0  0 
 10  2  1  0  0  0  0 
 11  1  1  0  0  0  0 
 15  2  1  0  0  0  0 
 16  2  1  0  0  0  0 
 17  3  1  0  0  0  0 
 18  4  1  0  0  0  0 
 20  6  1  0  0  0  0 
M  END 
>  <HBA> 
1 
 
>  <HBD> 
0 
 
>  <TPSA> 
9.23 
 
>  <cid> 
19913 
 
>  <dipole> 
1.03 
 
>  <excitation_energy_1> 
5.304 
 
>  <excitation_energy_2> 
5.827 
 
>  <excitation_energy_3> 
5.984 
 
>  <excitation_energy_4> 
6.021 
 
>  <homo_energy> 
-6.539 
 
>  <homo_lumo_gap> 
6.536 
 
>  <logP> 
2.394 
 
>  <lumo_energy> 
-0.003 
 
>  <melting_point> 
-3.13 
 
>  <molecular_refractivity> 
42.11 
 
>  <oscillator_strength_1> 
0.0001 
 
>  <oscillator_strength_2> 
0.0266 
 
>  <oscillator_strength_3> 
0.008 
 
>  <oscillator_strength_4> 
0.0017 
 
>  <open_babel_can_smiles> 
CO[C@H](c1ccccc1)C 
 
>  <mulliken_charges> 
22 
1   -0.444041 
2   -0.200638 
3   -0.1295 
4   -0.129422 
5   -0.129754 
6   -0.185804 
7   -0.176213 
8   0.080508 
9   0.136888 
10   -0.470004 
11   0.146871 
12   0.157246 
13   0.154467 
14   0.155834 
15   0.143243 
16   0.128397 
17   0.12818 
18   0.128308 
19   0.129161 
20   0.122463 
21   0.142078 
22   0.111733 
 
>  <lowdin_charges> 
22 
1   -0.441614 
2   -0.282224 
3   -0.15911 
4   -0.154815 
5   -0.156198 
6   -0.170317 
7   -0.159513 
8   0.005582 
9   -0.021259 
10   -0.270286 
11   0.153793 
12   0.159013 
13   0.155895 
14   0.152245 
15   0.138463 
16   0.132543 
17   0.156245 
18   0.156538 
19   0.1581 
20   0.154504 
21   0.163362 
22   0.129051 
 
$$$$ 
 
