PCCDB-ID:  22410 
public computational chemistry database (PCCDB) project, http://pccdb.org 
 
 38 39  0  0  0  0  0  0  0  0999 V2000 
   -1.0243    2.8186    3.7427 C   0  0  0  0  0  0  0  0  0  0  0  0 
   -3.1928   -6.1541    0.2494 C   0  0  0  0  0  0  0  0  0  0  0  0 
   -2.2222    1.9329    4.1160 C   0  0  0  0  0  0  0  0  0  0  0  0 
   -0.2056    2.1843    2.6076 C   0  0  0  0  0  0  0  0  0  0  0  0 
   -2.3999   -6.1713    1.5671 C   0  0  0  0  0  0  0  0  0  0  0  0 
   -3.5982   -4.7193   -0.1287 C   0  0  0  0  0  0  0  0  0  0  0  0 
   -1.7781    0.4948    4.4137 C   0  0  0  0  0  0  0  0  0  0  0  0 
    0.1801    0.7360    2.9391 C   0  0  0  0  0  0  0  0  0  0  0  0 
   -3.1743   -5.4354    2.6761 C   0  0  0  0  0  0  0  0  0  0  0  0 
   -4.3339   -4.0404    1.0383 C   0  0  0  0  0  0  0  0  0  0  0  0 
   -2.6140   -1.9366    2.8145 C   0  0  0  0  0  0  0  0  0  0  0  0 
   -1.2917   -1.1603    2.5525 C   0  0  0  0  0  0  0  0  0  0  0  0 
   -2.4934   -3.1956    2.3102 N   0  0  0  0  0  0  0  0  0  0  0  0 
   -1.0148   -0.0482    3.2791 N   0  0  0  0  0  0  0  0  0  0  0  0 
   -3.5870   -4.0718    2.3108 N   0  0  0  0  0  0  0  0  0  0  0  0 
   -3.6119   -1.4784    3.3531 O   0  0  0  0  0  0  0  0  0  0  0  0 
   -0.5467   -1.5866    1.6609 O   0  0  0  0  0  0  0  0  0  0  0  0 
   -0.3804    2.9451    4.6258 H   0  0  0  0  0  0  0  0  0  0  0  0 
   -1.3619    3.8219    3.4555 H   0  0  0  0  0  0  0  0  0  0  0  0 
   -4.1012   -6.7634    0.3704 H   0  0  0  0  0  0  0  0  0  0  0  0 
   -2.6114   -6.6173   -0.5570 H   0  0  0  0  0  0  0  0  0  0  0  0 
   -2.9479    1.9088    3.2928 H   0  0  0  0  0  0  0  0  0  0  0  0 
   -2.7427    2.3351    4.9940 H   0  0  0  0  0  0  0  0  0  0  0  0 
    0.7062    2.7636    2.4150 H   0  0  0  0  0  0  0  0  0  0  0  0 
   -0.7918    2.1876    1.6791 H   0  0  0  0  0  0  0  0  0  0  0  0 
   -1.4197   -5.6955    1.4171 H   0  0  0  0  0  0  0  0  0  0  0  0 
   -2.1958   -7.2016    1.8849 H   0  0  0  0  0  0  0  0  0  0  0  0 
   -4.2398   -4.7190   -1.0189 H   0  0  0  0  0  0  0  0  0  0  0  0 
   -2.7036   -4.1366   -0.3918 H   0  0  0  0  0  0  0  0  0  0  0  0 
   -2.6305   -0.1465    4.6143 H   0  0  0  0  0  0  0  0  0  0  0  0 
   -1.1111    0.4895    5.2896 H   0  0  0  0  0  0  0  0  0  0  0  0 
    0.8605    0.7167    3.8037 H   0  0  0  0  0  0  0  0  0  0  0  0 
    0.6758    0.2438    2.1032 H   0  0  0  0  0  0  0  0  0  0  0  0 
   -2.5924   -5.3712    3.6002 H   0  0  0  0  0  0  0  0  0  0  0  0 
   -4.0964   -5.9871    2.9041 H   0  0  0  0  0  0  0  0  0  0  0  0 
   -5.2847   -4.5568    1.2270 H   0  0  0  0  0  0  0  0  0  0  0  0 
   -4.5711   -2.9952    0.8205 H   0  0  0  0  0  0  0  0  0  0  0  0 
   -1.6878   -3.3466    1.7050 H   0  0  0  0  0  0  0  0  0  0  0  0 
  1  3  1  0  0  0  0 
  1 18  1  0  0  0  0 
  2 20  1  0  0  0  0 
  2  5  1  0  0  0  0 
  3  7  1  0  0  0  0 
  3 23  1  0  0  0  0 
  4  8  1  0  0  0  0 
  4  1  1  0  0  0  0 
  5 27  1  0  0  0  0 
  5  9  1  0  0  0  0 
  6  2  1  0  0  0  0 
  6 10  1  0  0  0  0 
  7 30  1  0  0  0  0 
  7 31  1  0  0  0  0 
  8 14  1  0  0  0  0 
  8 32  1  0  0  0  0 
  9 35  1  0  0  0  0 
  9 34  1  0  0  0  0 
 10 36  1  0  0  0  0 
 10 15  1  0  0  0  0 
 11 16  2  0  0  0  0 
 12 11  1  0  0  0  0 
 12 14  1  0  0  0  0 
 13 15  1  0  0  0  0 
 13 11  1  0  0  0  0 
 14  7  1  0  0  0  0 
 15  9  1  0  0  0  0 
 17 12  2  0  0  0  0 
 19  1  1  0  0  0  0 
 21  2  1  0  0  0  0 
 22  3  1  0  0  0  0 
 24  4  1  0  0  0  0 
 25  4  1  0  0  0  0 
 26  5  1  0  0  0  0 
 28  6  1  0  0  0  0 
 29  6  1  0  0  0  0 
 33  8  1  0  0  0  0 
 37 10  1  0  0  0  0 
 38 13  1  0  0  0  0 
M  END 
>  <HBA> 
5 
 
>  <HBD> 
1 
 
>  <TPSA> 
52.65 
 
>  <cid> 
22410 
 
>  <dipole> 
1.02 
 
>  <excitation_energy_1> 
4.005 
 
>  <excitation_energy_2> 
4.345 
 
>  <excitation_energy_3> 
5.264 
 
>  <excitation_energy_4> 
5.424 
 
>  <homo_energy> 
-5.902 
 
>  <homo_lumo_gap> 
5.219 
 
>  <logP> 
0.783 
 
>  <lumo_energy> 
-0.683 
 
>  <melting_point> 
89.84 
 
>  <molecular_refractivity> 
72.39 
 
>  <oscillator_strength_1> 
0.0033 
 
>  <oscillator_strength_2> 
0.0322 
 
>  <oscillator_strength_3> 
0.1275 
 
>  <oscillator_strength_4> 
0.008 
 
>  <open_babel_can_smiles> 
O=C(C(=O)N1CCCCC1)NN1CCCCC1 
 
>  <mulliken_charges> 
38 
1   -0.267482 
2   -0.258436 
3   -0.260867 
4   -0.261539 
5   -0.281593 
6   -0.278985 
7   -0.162866 
8   -0.155375 
9   -0.132349 
10   -0.134599 
11   0.559045 
12   0.546901 
13   -0.491843 
14   -0.433739 
15   -0.252406 
16   -0.506155 
17   -0.549177 
18   0.130062 
19   0.140072 
20   0.131237 
21   0.138672 
22   0.151049 
23   0.139951 
24   0.139487 
25   0.146624 
26   0.136369 
27   0.139224 
28   0.139188 
29   0.140137 
30   0.214067 
31   0.136204 
32   0.142068 
33   0.193471 
34   0.15547 
35   0.14647 
36   0.145669 
37   0.16153 
38   0.354445 
 
>  <lowdin_charges> 
38 
1   -0.280879 
2   -0.280576 
3   -0.283379 
4   -0.282496 
5   -0.29609 
6   -0.297795 
7   -0.208947 
8   -0.202536 
9   -0.208331 
10   -0.207289 
11   0.130664 
12   0.128668 
13   -0.20378 
14   -0.077664 
15   -0.105449 
16   -0.288291 
17   -0.335459 
18   0.138899 
19   0.147366 
20   0.139338 
21   0.148125 
22   0.150918 
23   0.15135 
24   0.150145 
25   0.14794 
26   0.139743 
27   0.149284 
28   0.150517 
29   0.143021 
30   0.189599 
31   0.138347 
32   0.142917 
33   0.178753 
34   0.155347 
35   0.148251 
36   0.147477 
37   0.157352 
38   0.28494 
 
$$$$ 
 
