PCCDB-ID:  50408 
public computational chemistry database (PCCDB) project, http://pccdb.org 
 
 23 22  0  0  0  0  0  0  0  0999 V2000 
    4.0989   -1.0221    1.5548 C   0  0  0  0  0  0  0  0  0  0  0  0 
    3.6595   -0.8818    0.0943 C   0  0  0  0  0  0  0  0  0  0  0  0 
    3.5078    0.5669   -0.3548 C   0  0  0  0  0  0  0  0  0  0  0  0 
    4.7321    2.5717   -0.6433 C   0  0  0  0  0  0  0  0  0  0  0  0 
    6.1660    3.0843   -0.5706 C   0  0  0  0  0  0  0  0  0  0  0  0 
    6.2423    4.9732   -2.0032 C   0  0  0  0  0  0  0  0  0  0  0  0 
    6.1910    4.2250   -3.0324 N   0  0  0  0  0  0  0  0  0  0  0  0 
    6.3339    6.3273   -1.9216 O   0  0  0  0  0  0  0  0  0  0  0  0 
    4.7712    1.2073   -0.2740 O   0  0  0  0  0  0  0  0  0  0  0  0 
    6.2148    4.5111   -0.7471 O   0  0  0  0  0  0  0  0  0  0  0  0 
    4.2108   -2.0757    1.8339 H   0  0  0  0  0  0  0  0  0  0  0  0 
    3.3629   -0.5730    2.2335 H   0  0  0  0  0  0  0  0  0  0  0  0 
    5.0571   -0.5209    1.7209 H   0  0  0  0  0  0  0  0  0  0  0  0 
    2.6969   -1.3869   -0.0622 H   0  0  0  0  0  0  0  0  0  0  0  0 
    4.3859   -1.3740   -0.5649 H   0  0  0  0  0  0  0  0  0  0  0  0 
    2.7773    1.0926    0.2857 H   0  0  0  0  0  0  0  0  0  0  0  0 
    3.1284    0.6126   -1.3896 H   0  0  0  0  0  0  0  0  0  0  0  0 
    4.3402    2.6967   -1.6630 H   0  0  0  0  0  0  0  0  0  0  0  0 
    4.0943    3.1511    0.0451 H   0  0  0  0  0  0  0  0  0  0  0  0 
    6.7881    2.5936   -1.3217 H   0  0  0  0  0  0  0  0  0  0  0  0 
    6.5749    2.9077    0.4266 H   0  0  0  0  0  0  0  0  0  0  0  0 
    6.2478    4.7516   -3.9030 H   0  0  0  0  0  0  0  0  0  0  0  0 
    6.3381    6.6869   -2.8217 H   0  0  0  0  0  0  0  0  0  0  0  0 
  1 13  1  0  0  0  0 
  1 11  1  0  0  0  0 
  1 12  1  0  0  0  0 
  2  1  1  0  0  0  0 
  3  9  1  0  0  0  0 
  3  2  1  0  0  0  0 
  3 16  1  0  0  0  0 
  4  5  1  0  0  0  0 
  4  9  1  0  0  0  0 
  4 19  1  0  0  0  0 
  5 21  1  0  0  0  0 
  6  8  1  0  0  0  0 
  6 10  1  0  0  0  0 
  7  6  2  0  0  0  0 
 10  5  1  0  0  0  0 
 14  2  1  0  0  0  0 
 15  2  1  0  0  0  0 
 17  3  1  0  0  0  0 
 18  4  1  0  0  0  0 
 20  5  1  0  0  0  0 
 22  7  1  0  0  0  0 
 23  8  1  0  0  0  0 
M  END 
>  <HBA> 
4 
 
>  <HBD> 
1 
 
>  <TPSA> 
61.55 
 
>  <cid> 
50408 
 
>  <dipole> 
2.06 
 
>  <excitation_energy_1> 
5.859 
 
>  <excitation_energy_2> 
6.156 
 
>  <excitation_energy_3> 
6.487 
 
>  <excitation_energy_4> 
6.623 
 
>  <homo_energy> 
-6.822 
 
>  <homo_lumo_gap> 
8.006 
 
>  <logP> 
1.209 
 
>  <lumo_energy> 
1.184 
 
>  <melting_point> 
41.51 
 
>  <molecular_refractivity> 
36.42 
 
>  <oscillator_strength_1> 
0.005 
 
>  <oscillator_strength_2> 
0.0048 
 
>  <oscillator_strength_3> 
0.0428 
 
>  <oscillator_strength_4> 
0.0133 
 
>  <open_babel_can_smiles> 
CCCOCCOC(=N)O 
 
>  <mulliken_charges> 
23 
1   -0.441 
2   -0.267785 
3   -0.002248 
4   -0.025569 
5   -0.051192 
6   0.643063 
7   -0.62587 
8   -0.566693 
9   -0.482633 
10   -0.448831 
11   0.140986 
12   0.13728 
13   0.163906 
14   0.132488 
15   0.147411 
16   0.115114 
17   0.121122 
18   0.149792 
19   0.127011 
20   0.183791 
21   0.164084 
22   0.277189 
23   0.408581 
 
>  <lowdin_charges> 
23 
1   -0.445957 
2   -0.279842 
3   -0.127149 
4   -0.140791 
5   -0.128555 
6   0.190769 
7   -0.473152 
8   -0.362521 
9   -0.275415 
10   -0.176069 
11   0.147904 
12   0.146018 
13   0.157256 
14   0.145511 
15   0.150686 
16   0.125113 
17   0.127473 
18   0.142082 
19   0.131651 
20   0.167951 
21   0.158512 
22   0.258156 
23   0.36037 
 
$$$$ 
 
