PCCDB-ID:  18353 
public computational chemistry database (PCCDB) project, http://pccdb.org 
 
 25 24  0  0  0  0  0  0  0  0999 V2000 
    2.4416    0.9325   -4.0141 C   0  0  0  0  0  0  0  0  0  0  0  0 
    4.3619   -2.6316    1.4734 C   0  0  0  0  0  0  0  0  0  0  0  0 
    8.1652    1.7402   -1.5220 C   0  0  0  0  0  0  0  0  0  0  0  0 
    3.0187    1.4942   -2.7300 C   0  0  0  0  0  0  0  0  0  0  0  0 
    4.8081   -1.2116    1.1845 C   0  0  0  0  0  0  0  0  0  0  0  0 
    6.6620    1.7823   -1.6093 C   0  0  0  0  0  0  0  0  0  0  0  0 
    6.0094    2.5926   -2.2188 O   0  0  0  0  0  0  0  0  0  0  0  0 
    3.8938    1.6757    0.1966 O   0  0  0  0  0  0  0  0  0  0  0  0 
    3.8446    0.4469   -2.1342 O   0  0  0  0  0  0  0  0  0  0  0  0 
    4.3928   -0.8866   -0.1682 O   0  0  0  0  0  0  0  0  0  0  0  0 
    6.1063    0.7465   -0.8984 O   0  0  0  0  0  0  0  0  0  0  0  0 
    4.4550    0.6270   -0.6771 P   0  0  0  0  0  0  0  0  0  0  0  0 
    1.8157    1.6916   -4.4967 H   0  0  0  0  0  0  0  0  0  0  0  0 
    1.8260    0.0501   -3.8138 H   0  0  0  0  0  0  0  0  0  0  0  0 
    3.2397    0.6510   -4.7079 H   0  0  0  0  0  0  0  0  0  0  0  0 
    4.6671   -2.9165    2.4863 H   0  0  0  0  0  0  0  0  0  0  0  0 
    4.8128   -3.3325    0.7641 H   0  0  0  0  0  0  0  0  0  0  0  0 
    3.2734   -2.7157    1.4008 H   0  0  0  0  0  0  0  0  0  0  0  0 
    8.4797    1.8230   -0.4764 H   0  0  0  0  0  0  0  0  0  0  0  0 
    8.5864    2.5603   -2.1040 H   0  0  0  0  0  0  0  0  0  0  0  0 
    8.5354    0.7817   -1.9005 H   0  0  0  0  0  0  0  0  0  0  0  0 
    2.2369    1.7689   -2.0165 H   0  0  0  0  0  0  0  0  0  0  0  0 
    3.6543    2.3631   -2.9110 H   0  0  0  0  0  0  0  0  0  0  0  0 
    5.8980   -1.1139    1.2446 H   0  0  0  0  0  0  0  0  0  0  0  0 
    4.3520   -0.4962    1.8763 H   0  0  0  0  0  0  0  0  0  0  0  0 
  1 14  1  0  0  0  0 
  1  4  1  0  0  0  0 
  2 16  1  0  0  0  0 
  3 19  1  0  0  0  0 
  4  9  1  0  0  0  0 
  4 22  1  0  0  0  0 
  5 24  1  0  0  0  0 
  5  2  1  0  0  0  0 
  5 25  1  0  0  0  0 
  6  3  1  0  0  0  0 
  6 11  1  0  0  0  0 
  7  6  2  0  0  0  0 
  9 12  1  0  0  0  0 
 10  5  1  0  0  0  0 
 11 12  1  0  0  0  0 
 12 10  1  0  0  0  0 
 12  8  2  0  0  0  0 
 13  1  1  0  0  0  0 
 15  1  1  0  0  0  0 
 17  2  1  0  0  0  0 
 18  2  1  0  0  0  0 
 20  3  1  0  0  0  0 
 21  3  1  0  0  0  0 
 23  4  1  0  0  0  0 
M  END 
>  <HBA> 
5 
 
>  <HBD> 
0 
 
>  <TPSA> 
71.64 
 
>  <cid> 
18353 
 
>  <dipole> 
2.81 
 
>  <excitation_energy_1> 
5.676 
 
>  <excitation_energy_2> 
6.754 
 
>  <excitation_energy_3> 
6.895 
 
>  <excitation_energy_4> 
7.106 
 
>  <homo_energy> 
-7.799 
 
>  <homo_lumo_gap> 
7.546 
 
>  <logP> 
1.731 
 
>  <lumo_energy> 
-0.253 
 
>  <melting_point> 
-14.24 
 
>  <molecular_refractivity> 
43.07 
 
>  <oscillator_strength_1> 
0.0009 
 
>  <oscillator_strength_2> 
0.0328 
 
>  <oscillator_strength_3> 
0.0048 
 
>  <oscillator_strength_4> 
0.0008 
 
>  <open_babel_can_smiles> 
CCOP(=O)(OC(=O)C)OCC 
 
>  <mulliken_charges> 
25 
1   -0.458314 
2   -0.455215 
3   -0.525647 
4   -0.044761 
5   -0.04283 
6   0.614251 
7   -0.434244 
8   -0.55262 
9   -0.516958 
10   -0.497785 
11   -0.526534 
12   1.211997 
13   0.152281 
14   0.163657 
15   0.164767 
16   0.15192 
17   0.166269 
18   0.169109 
19   0.191271 
20   0.188567 
21   0.190364 
22   0.169233 
23   0.188664 
24   0.157498 
25   0.175061 
 
>  <lowdin_charges> 
25 
1   -0.449674 
2   -0.444984 
3   -0.461086 
4   -0.11478 
5   -0.113224 
6   0.226747 
7   -0.229723 
8   -0.575839 
9   -0.385732 
10   -0.384159 
11   -0.350528 
12   1.136634 
13   0.1611 
14   0.160137 
15   0.161398 
16   0.158978 
17   0.162548 
18   0.161012 
19   0.182341 
20   0.180246 
21   0.182908 
22   0.159861 
23   0.166176 
24   0.147282 
25   0.162359 
 
$$$$ 
 
