PCCDB-ID:  60993 
public computational chemistry database (PCCDB) project, http://pccdb.org 
 
 24 23  0  0  0  0  0  0  0  0999 V2000 
    1.3567   -0.0361   -0.8119 C   0  0  0  0  0  0  0  0  0  0  0  0 
    2.9923   -3.5354    0.9869 C   0  0  0  0  0  0  0  0  0  0  0  0 
    2.6447   -0.6328   -1.3824 C   0  0  0  0  0  0  0  0  0  0  0  0 
    2.7306   -2.8389   -0.3497 C   0  0  0  0  0  0  0  0  0  0  0  0 
    5.5441   -0.3930   -0.0747 C   0  0  0  0  0  0  0  0  0  0  0  0 
    4.7839   -1.5673   -0.7002 C   0  0  0  0  0  0  0  0  0  0  0  0 
    6.9712   -0.4861   -0.4063 N   0  0  0  0  0  0  0  0  0  0  0  0 
    3.3433   -1.5074   -0.4313 N   0  0  0  0  0  0  0  0  0  0  0  0 
    0.8879    0.6309   -1.5450 H   0  0  0  0  0  0  0  0  0  0  0  0 
    1.5733    0.5377    0.0952 H   0  0  0  0  0  0  0  0  0  0  0  0 
    0.6226   -0.8072   -0.5534 H   0  0  0  0  0  0  0  0  0  0  0  0 
    2.4923   -4.5109    1.0136 H   0  0  0  0  0  0  0  0  0  0  0  0 
    2.6139   -2.9248    1.8132 H   0  0  0  0  0  0  0  0  0  0  0  0 
    4.0603   -3.7095    1.1598 H   0  0  0  0  0  0  0  0  0  0  0  0 
    3.3205    0.1893   -1.6407 H   0  0  0  0  0  0  0  0  0  0  0  0 
    2.4305   -1.1618   -2.3319 H   0  0  0  0  0  0  0  0  0  0  0  0 
    1.6488   -2.7185   -0.4672 H   0  0  0  0  0  0  0  0  0  0  0  0 
    3.0597   -3.4864   -1.1863 H   0  0  0  0  0  0  0  0  0  0  0  0 
    5.3200   -0.3750    1.0058 H   0  0  0  0  0  0  0  0  0  0  0  0 
    5.1712    0.5523   -0.4876 H   0  0  0  0  0  0  0  0  0  0  0  0 
    5.1787   -2.4950   -0.2686 H   0  0  0  0  0  0  0  0  0  0  0  0 
    5.0081   -1.6099   -1.7812 H   0  0  0  0  0  0  0  0  0  0  0  0 
    7.3849   -1.2775    0.0861 H   0  0  0  0  0  0  0  0  0  0  0  0 
    7.4589    0.3393   -0.0630 H   0  0  0  0  0  0  0  0  0  0  0  0 
  1 11  1  0  0  0  0 
  1 10  1  0  0  0  0 
  2 12  1  0  0  0  0 
  2 14  1  0  0  0  0 
  2 13  1  0  0  0  0 
  3  1  1  0  0  0  0 
  3  8  1  0  0  0  0 
  4  2  1  0  0  0  0 
  5 19  1  0  0  0  0 
  6  8  1  0  0  0  0 
  6 21  1  0  0  0  0 
  6  5  1  0  0  0  0 
  7  5  1  0  0  0  0 
  7 24  1  0  0  0  0 
  7 23  1  0  0  0  0 
  8  4  1  0  0  0  0 
  9  1  1  0  0  0  0 
 15  3  1  0  0  0  0 
 16  3  1  0  0  0  0 
 17  4  1  0  0  0  0 
 18  4  1  0  0  0  0 
 20  5  1  0  0  0  0 
 22  6  1  0  0  0  0 
M  END 
>  <HBA> 
2 
 
>  <HBD> 
1 
 
>  <TPSA> 
29.26 
 
>  <cid> 
60993 
 
>  <dipole> 
0.84 
 
>  <excitation_energy_1> 
5.197 
 
>  <excitation_energy_2> 
5.462 
 
>  <excitation_energy_3> 
5.536 
 
>  <excitation_energy_4> 
5.607 
 
>  <homo_energy> 
-5.54 
 
>  <homo_lumo_gap> 
7.783 
 
>  <logP> 
0.987 
 
>  <lumo_energy> 
2.242 
 
>  <melting_point> 
30.32 
 
>  <molecular_refractivity> 
36.56 
 
>  <oscillator_strength_1> 
0.0041 
 
>  <oscillator_strength_2> 
0.045 
 
>  <oscillator_strength_3> 
0.0522 
 
>  <oscillator_strength_4> 
0.0069 
 
>  <open_babel_can_smiles> 
NCCN(CC)CC 
 
>  <mulliken_charges> 
24 
1   -0.439296 
2   -0.439089 
3   -0.122552 
4   -0.120755 
5   -0.136615 
6   -0.120919 
7   -0.720115 
8   -0.37944 
9   0.137949 
10   0.152202 
11   0.144974 
12   0.137896 
13   0.153036 
14   0.142812 
15   0.139839 
16   0.11336 
17   0.136904 
18   0.113126 
19   0.122547 
20   0.13846 
21   0.1266 
22   0.131008 
23   0.291242 
24   0.296826 
 
>  <lowdin_charges> 
24 
1   -0.452088 
2   -0.448225 
3   -0.197692 
4   -0.196215 
5   -0.208947 
6   -0.203871 
7   -0.562773 
8   -0.193621 
9   0.150526 
10   0.15328 
11   0.147726 
12   0.148886 
13   0.154273 
14   0.144258 
15   0.145991 
16   0.11899 
17   0.142392 
18   0.119567 
19   0.120707 
20   0.140374 
21   0.140227 
22   0.128257 
23   0.251532 
24   0.256446 
 
$$$$ 
 
