PCCDB-ID:  70751 
public computational chemistry database (PCCDB) project, http://pccdb.org 
 
 17 17  0  0  0  0  0  0  0  0999 V2000 
   -0.6541    1.1708    0.0452 C   0  0  0  0  0  0  0  0  0  0  0  0 
   -2.8689   -0.0008   -0.0765 C   0  0  0  0  0  0  0  0  0  0  0  0 
   -1.3656    0.0185   -0.1136 C   0  0  0  0  0  0  0  0  0  0  0  0 
   -0.6391   -1.2456   -0.2672 C   0  0  0  0  0  0  0  0  0  0  0  0 
    1.3490    0.1325    0.0085 C   0  0  0  0  0  0  0  0  0  0  0  0 
   -1.0559   -2.4382   -0.4781 N   0  0  0  0  0  0  0  0  0  0  0  0 
    0.7184    1.2678    0.1018 N   0  0  0  0  0  0  0  0  0  0  0  0 
    0.7619   -1.0720   -0.1477 N   0  0  0  0  0  0  0  0  0  0  0  0 
   -3.4677   -0.6296   -1.2129 O   0  0  0  0  0  0  0  0  0  0  0  0 
    2.6893    0.0863    0.0652 O   0  0  0  0  0  0  0  0  0  0  0  0 
   -1.1776    2.1192    0.1544 H   0  0  0  0  0  0  0  0  0  0  0  0 
   -3.2457    1.0249    0.0568 H   0  0  0  0  0  0  0  0  0  0  0  0 
   -3.2225   -0.5923    0.7768 H   0  0  0  0  0  0  0  0  0  0  0  0 
   -2.0689   -2.4318   -0.6033 H   0  0  0  0  0  0  0  0  0  0  0  0 
    1.3272   -1.9099   -0.2327 H   0  0  0  0  0  0  0  0  0  0  0  0 
   -3.1027   -0.2043   -2.0055 H   0  0  0  0  0  0  0  0  0  0  0  0 
    2.9787    1.0090    0.1857 H   0  0  0  0  0  0  0  0  0  0  0  0 
  1  7  1  0  0  0  0 
  1 11  1  0  0  0  0 
  2 12  1  0  0  0  0 
  2 13  1  0  0  0  0 
  3  2  1  0  0  0  0 
  3  1  2  0  0  0  0 
  4  8  1  0  0  0  0 
  4  3  1  0  0  0  0 
  5 10  1  0  0  0  0 
  5  7  2  0  0  0  0 
  6  4  2  0  0  0  0 
  8  5  1  0  0  0  0 
  9  2  1  0  0  0  0 
 10 17  1  0  0  0  0 
 14  6  1  0  0  0  0 
 15  8  1  0  0  0  0 
 16  9  1  0  0  0  0 
M  END 
>  <HBA> 
4 
 
>  <HBD> 
3 
 
>  <TPSA> 
92.0 
 
>  <cid> 
70751 
 
>  <dipole> 
3.0 
 
>  <excitation_energy_1> 
4.304 
 
>  <excitation_energy_2> 
5.116 
 
>  <excitation_energy_3> 
5.175 
 
>  <excitation_energy_4> 
5.469 
 
>  <homo_energy> 
-5.845 
 
>  <homo_lumo_gap> 
4.993 
 
>  <logP> 
-0.574 
 
>  <lumo_energy> 
-0.852 
 
>  <melting_point> 
174.15 
 
>  <molecular_refractivity> 
35.39 
 
>  <oscillator_strength_1> 
0.1067 
 
>  <oscillator_strength_2> 
0.0021 
 
>  <oscillator_strength_3> 
0.0052 
 
>  <oscillator_strength_4> 
0.0603 
 
>  <open_babel_can_smiles> 
OCc1cnc([nH]c1=N)O 
 
>  <mulliken_charges> 
17 
1   -0.031592 
2   -0.122499 
3   0.068326 
4   0.449624 
5   0.73316 
6   -0.667878 
7   -0.519197 
8   -0.645042 
9   -0.6068 
10   -0.596774 
11   0.146038 
12   0.13764 
13   0.165002 
14   0.310555 
15   0.355782 
16   0.391946 
17   0.431709 
 
>  <lowdin_charges> 
17 
1   -0.0795 
2   -0.129975 
3   -0.114265 
4   0.09114 
5   0.186281 
6   -0.440948 
7   -0.255675 
8   -0.200762 
9   -0.465754 
10   -0.342888 
11   0.160734 
12   0.137886 
13   0.157135 
14   0.265209 
15   0.31046 
16   0.345267 
17   0.375655 
 
$$$$ 
 
