PCCDB-ID:  32334 
public computational chemistry database (PCCDB) project, http://pccdb.org 
 
 27 28  0  0  1  0  0  0  0  0999 V2000 
   -2.8706    1.8232   -0.3165 C   0  0  0  0  0  0  0  0  0  0  0  0 
   -1.6174    2.4190   -0.3729 C   0  0  0  0  0  0  0  0  0  0  0  0 
    0.9205   -1.9498   -0.1236 C   0  0  0  0  0  0  0  0  0  0  0  0 
   -1.8669   -0.3893   -0.1702 C   0  0  0  0  0  0  0  0  0  0  0  0 
    1.7250    0.4588   -0.2698 C   0  0  0  0  0  0  0  0  0  0  0  0 
    0.7083   -0.4530   -0.1962 C   0  0  0  0  0  0  0  0  0  0  0  0 
   -2.9944    0.4231   -0.2152 C   0  0  0  0  0  0  0  0  0  0  0  0 
   -0.5914    0.1960   -0.2280 C   0  0  0  0  0  0  0  0  0  0  0  0 
    1.7958   -2.4455    1.0590 C   0  0  1  0  0  0  0  0  0  0  0  0 
   -0.4832    1.6053   -0.3315 C   0  0  0  0  0  0  0  0  0  0  0  0 
    1.1066   -2.1982    2.4207 C   0  0  0  0  0  0  0  0  0  0  0  0 
    2.1314   -3.8477    0.8469 N   0  0  0  0  0  0  0  0  0  0  0  0 
   -4.2141   -0.1931   -0.1606 O   0  0  0  0  0  0  0  0  0  0  0  0 
    0.7409   -3.0968    3.1404 O   0  0  0  0  0  0  0  0  0  0  0  0 
    0.9338   -0.9072    2.7873 O   0  0  0  0  0  0  0  0  0  0  0  0 
    1.1967    2.1197   -0.3860 S   0  0  0  0  0  0  0  0  0  0  0  0 
   -3.7651    2.4420   -0.3500 H   0  0  0  0  0  0  0  0  0  0  0  0 
   -1.5294    3.4986   -0.4489 H   0  0  0  0  0  0  0  0  0  0  0  0 
    1.4114   -2.3086   -1.0349 H   0  0  0  0  0  0  0  0  0  0  0  0 
   -0.0471   -2.4623   -0.0755 H   0  0  0  0  0  0  0  0  0  0  0  0 
   -2.0005   -1.4627   -0.0881 H   0  0  0  0  0  0  0  0  0  0  0  0 
    2.7873    0.2473   -0.3002 H   0  0  0  0  0  0  0  0  0  0  0  0 
    2.7334   -1.8731    1.0525 H   0  0  0  0  0  0  0  0  0  0  0  0 
    1.2946   -4.4024    1.0341 H   0  0  0  0  0  0  0  0  0  0  0  0 
    2.7855   -4.1386    1.5732 H   0  0  0  0  0  0  0  0  0  0  0  0 
   -4.9123    0.4791   -0.1813 H   0  0  0  0  0  0  0  0  0  0  0  0 
    1.2058   -0.3167    2.0591 H   0  0  0  0  0  0  0  0  0  0  0  0 
  1  7  2  0  0  0  0 
  2 10  2  0  0  0  0 
  2  1  1  0  0  0  0 
  3 20  1  0  0  0  0 
  3  9  1  0  0  0  0 
  4 21  1  0  0  0  0 
  5  6  2  0  0  0  0 
  6  3  1  0  0  0  0 
  7  4  1  0  0  0  0 
  7 13  1  0  0  0  0 
  8  6  1  0  0  0  0 
  8  4  2  0  0  0  0 
  9 23  1  6  0  0  0 
  9 11  1  0  0  0  0 
 10  8  1  0  0  0  0 
 11 15  1  0  0  0  0 
 11 14  2  0  0  0  0 
 12 24  1  0  0  0  0 
 12  9  1  0  0  0  0 
 12 25  1  0  0  0  0 
 16 10  1  0  0  0  0 
 16  5  1  0  0  0  0 
 17  1  1  0  0  0  0 
 18  2  1  0  0  0  0 
 19  3  1  0  0  0  0 
 22  5  1  0  0  0  0 
 26 13  1  0  0  0  0 
 27 15  1  0  0  0  0 
M  END 
>  <HBA> 
5 
 
>  <HBD> 
3 
 
>  <TPSA> 
111.79 
 
>  <cid> 
32334 
 
>  <dipole> 
3.95 
 
>  <excitation_energy_1> 
4.177 
 
>  <excitation_energy_2> 
4.714 
 
>  <excitation_energy_3> 
4.894 
 
>  <excitation_energy_4> 
5.084 
 
>  <homo_energy> 
-5.959 
 
>  <homo_lumo_gap> 
4.789 
 
>  <logP> 
2.262 
 
>  <lumo_energy> 
-1.17 
 
>  <melting_point> 
222.77 
 
>  <molecular_refractivity> 
62.91 
 
>  <oscillator_strength_1> 
0.0724 
 
>  <oscillator_strength_2> 
0.0566 
 
>  <oscillator_strength_3> 
0.0007 
 
>  <oscillator_strength_4> 
0.0002 
 
>  <open_babel_can_smiles> 
OC(=O)[C@H](Cc1csc2c1cc(O)cc2)N 
 
>  <mulliken_charges> 
27 
1   -0.181098 
2   -0.169662 
3   -0.322351 
4   -0.217686 
5   -0.423358 
6   0.08215 
7   0.352565 
8   0.129915 
9   -0.118724 
10   -0.153267 
11   0.579365 
12   -0.691905 
13   -0.641817 
14   -0.451121 
15   -0.569973 
16   0.237721 
17   0.12688 
18   0.148159 
19   0.189534 
20   0.161898 
21   0.150238 
22   0.181051 
23   0.152945 
24   0.309928 
25   0.308979 
26   0.409904 
27   0.419728 
 
>  <lowdin_charges> 
27 
1   -0.205306 
2   -0.144805 
3   -0.272603 
4   -0.187923 
5   -0.329263 
6   -0.045521 
7   0.104875 
8   -0.015537 
9   -0.112317 
10   -0.152945 
11   0.175016 
12   -0.532522 
13   -0.37723 
14   -0.251205 
15   -0.356481 
16   0.29343 
17   0.159032 
18   0.166701 
19   0.176856 
20   0.158916 
21   0.170467 
22   0.181528 
23   0.152053 
24   0.263094 
25   0.264302 
26   0.360185 
27   0.357201 
 
$$$$ 
 
