PCCDB-ID:  6500 
public computational chemistry database (PCCDB) project, http://pccdb.org 
 
 21 20  0  0  0  0  0  0  0  0999 V2000 
    2.1698   -1.3508   -3.0643 C   0  0  0  0  0  0  0  0  0  0  0  0 
    4.6111   -3.6037    0.4224 C   0  0  0  0  0  0  0  0  0  0  0  0 
    5.7225   -2.1236    2.0531 C   0  0  0  0  0  0  0  0  0  0  0  0 
    3.1438   -0.5592   -2.2139 C   0  0  0  0  0  0  0  0  0  0  0  0 
    3.9766    0.3302    0.9748 C   0  0  0  0  0  0  0  0  0  0  0  0 
    3.5311    1.1716    1.6419 N   0  0  0  0  0  0  0  0  0  0  0  0 
    4.7915   -2.2379    0.9246 N   0  0  0  0  0  0  0  0  0  0  0  0 
    5.8902   -0.3846   -0.7835 O   0  0  0  0  0  0  0  0  0  0  0  0 
    3.4581   -1.3583   -1.0359 O   0  0  0  0  0  0  0  0  0  0  0  0 
    4.6923   -0.9302   -0.0997 P   0  0  2  0  0  0  0  0  0  0  0  0 
    1.9020   -0.7692   -3.9531 H   0  0  0  0  0  0  0  0  0  0  0  0 
    1.2550   -1.5724   -2.5060 H   0  0  0  0  0  0  0  0  0  0  0  0 
    2.6172   -2.2946   -3.3914 H   0  0  0  0  0  0  0  0  0  0  0  0 
    4.2610   -4.2339    1.2475 H   0  0  0  0  0  0  0  0  0  0  0  0 
    5.5483   -4.0277    0.0341 H   0  0  0  0  0  0  0  0  0  0  0  0 
    3.8581   -3.6127   -0.3652 H   0  0  0  0  0  0  0  0  0  0  0  0 
    5.3820   -2.7853    2.8568 H   0  0  0  0  0  0  0  0  0  0  0  0 
    5.7285   -1.1012    2.4411 H   0  0  0  0  0  0  0  0  0  0  0  0 
    6.7481   -2.4001    1.7734 H   0  0  0  0  0  0  0  0  0  0  0  0 
    2.7015    0.3845   -1.8745 H   0  0  0  0  0  0  0  0  0  0  0  0 
    4.0721   -0.3411   -2.7488 H   0  0  0  0  0  0  0  0  0  0  0  0 
  1 12  1  0  0  0  0 
  1  4  1  0  0  0  0 
  2  7  1  0  0  0  0 
  2 14  1  0  0  0  0 
  3 18  1  0  0  0  0 
  3 17  1  0  0  0  0 
  4 20  1  0  0  0  0 
  4  9  1  0  0  0  0 
  5  6  3  0  0  0  0 
  7  3  1  0  0  0  0 
  9 10  1  0  0  0  0 
 10  8  2  6  0  0  0 
 10  7  1  0  0  0  0 
 10  5  1  0  0  0  0 
 11  1  1  0  0  0  0 
 13  1  1  0  0  0  0 
 15  2  1  0  0  0  0 
 16  2  1  0  0  0  0 
 19  3  1  0  0  0  0 
 21  4  1  0  0  0  0 
M  END 
>  <HBA> 
4 
 
>  <HBD> 
0 
 
>  <TPSA> 
63.14 
 
>  <cid> 
6500 
 
>  <dipole> 
4.27 
 
>  <excitation_energy_1> 
5.361 
 
>  <excitation_energy_2> 
6.024 
 
>  <excitation_energy_3> 
6.248 
 
>  <excitation_energy_4> 
6.427 
 
>  <homo_energy> 
-7.021 
 
>  <homo_lumo_gap> 
6.531 
 
>  <logP> 
1.259 
 
>  <lumo_energy> 
-0.49 
 
>  <melting_point> 
14.77 
 
>  <molecular_refractivity> 
38.54 
 
>  <oscillator_strength_1> 
0.0027 
 
>  <oscillator_strength_2> 
0.0786 
 
>  <oscillator_strength_3> 
0.0084 
 
>  <oscillator_strength_4> 
0.0035 
 
>  <open_babel_can_smiles> 
CCO[P@](=O)(N(C)C)C#N 
 
>  <mulliken_charges> 
21 
1   -0.458726 
2   -0.314987 
3   -0.321663 
4   -0.047075 
5   0.080148 
6   -0.353258 
7   -0.496222 
8   -0.511514 
9   -0.53419 
10   1.071278 
11   0.159704 
12   0.169094 
13   0.165127 
14   0.163884 
15   0.160512 
16   0.192186 
17   0.167796 
18   0.185439 
19   0.170273 
20   0.166782 
21   0.185412 
 
>  <lowdin_charges> 
21 
1   -0.447676 
2   -0.348649 
3   -0.344964 
4   -0.114739 
5   -0.187555 
6   -0.07775 
7   -0.319749 
8   -0.5632 
9   -0.392712 
10   1.016359 
11   0.164483 
12   0.16291 
13   0.160798 
14   0.158441 
15   0.148491 
16   0.176812 
17   0.160961 
18   0.173364 
19   0.152608 
20   0.154908 
21   0.166859 
 
$$$$ 
 
