PCCDB-ID:  70791 
public computational chemistry database (PCCDB) project, http://pccdb.org 
 
 19 19  0  0  0  0  0  0  0  0999 V2000 
    3.4010    1.1915    0.4107 C   0  0  0  0  0  0  0  0  0  0  0  0 
    1.9524   -4.3625    2.4133 C   0  0  0  0  0  0  0  0  0  0  0  0 
    0.5038   -2.6152    3.2974 C   0  0  0  0  0  0  0  0  0  0  0  0 
    2.6644   -3.4040    1.7034 C   0  0  0  0  0  0  0  0  0  0  0  0 
    1.2216   -1.6623    2.5830 C   0  0  0  0  0  0  0  0  0  0  0  0 
    0.1246   -4.9550    3.9490 C   0  0  0  0  0  0  0  0  0  0  0  0 
    0.8662   -3.9704    3.2151 C   0  0  0  0  0  0  0  0  0  0  0  0 
    2.3048   -2.0520    1.7836 C   0  0  0  0  0  0  0  0  0  0  0  0 
    3.1104   -1.0719    0.9942 C   0  0  0  0  0  0  0  0  0  0  0  0 
   -0.4773   -5.7531    4.5438 N   0  0  0  0  0  0  0  0  0  0  0  0 
    4.0564   -1.3741    0.2949 O   0  0  0  0  0  0  0  0  0  0  0  0 
    2.6692    0.1948    1.1446 O   0  0  0  0  0  0  0  0  0  0  0  0 
    2.9111    2.1383    0.6383 H   0  0  0  0  0  0  0  0  0  0  0  0 
    3.3603    0.9828   -0.6613 H   0  0  0  0  0  0  0  0  0  0  0  0 
    4.4459    1.2103    0.7308 H   0  0  0  0  0  0  0  0  0  0  0  0 
    2.2260   -5.4107    2.3547 H   0  0  0  0  0  0  0  0  0  0  0  0 
   -0.3367   -2.3216    3.9175 H   0  0  0  0  0  0  0  0  0  0  0  0 
    3.5056   -3.6826    1.0780 H   0  0  0  0  0  0  0  0  0  0  0  0 
    0.9471   -0.6156    2.6424 H   0  0  0  0  0  0  0  0  0  0  0  0 
  1 13  1  0  0  0  0 
  1 15  1  0  0  0  0 
  1 12  1  0  0  0  0 
  2  7  2  0  0  0  0 
  3 17  1  0  0  0  0 
  4  8  2  0  0  0  0 
  4  2  1  0  0  0  0 
  5 19  1  0  0  0  0 
  5  3  2  0  0  0  0 
  6 10  3  0  0  0  0 
  7  3  1  0  0  0  0 
  7  6  1  0  0  0  0 
  8  5  1  0  0  0  0 
  9 12  1  0  0  0  0 
  9  8  1  0  0  0  0 
 11  9  2  0  0  0  0 
 14  1  1  0  0  0  0 
 16  2  1  0  0  0  0 
 18  4  1  0  0  0  0 
M  END 
>  <HBA> 
3 
 
>  <HBD> 
0 
 
>  <TPSA> 
50.09 
 
>  <cid> 
70791 
 
>  <dipole> 
4.29 
 
>  <excitation_energy_1> 
4.553 
 
>  <excitation_energy_2> 
4.718 
 
>  <excitation_energy_3> 
4.994 
 
>  <excitation_energy_4> 
5.831 
 
>  <homo_energy> 
-7.483 
 
>  <homo_lumo_gap> 
5.279 
 
>  <logP> 
1.345 
 
>  <lumo_energy> 
-2.204 
 
>  <melting_point> 
68.0 
 
>  <molecular_refractivity> 
42.44 
 
>  <oscillator_strength_1> 
0.0001 
 
>  <oscillator_strength_2> 
0.0257 
 
>  <oscillator_strength_3> 
0.4888 
 
>  <oscillator_strength_4> 
0.0 
 
>  <open_babel_can_smiles> 
COC(=O)c1ccc(cc1)C#N 
 
>  <mulliken_charges> 
19 
1   -0.220086 
2   -0.143801 
3   -0.142896 
4   -0.158498 
5   -0.164067 
6   0.242656 
7   0.139896 
8   0.063473 
9   0.597372 
10   -0.470307 
11   -0.481824 
12   -0.465744 
13   0.169367 
14   0.176627 
15   0.176296 
16   0.167082 
17   0.165519 
18   0.178158 
19   0.170776 
 
>  <lowdin_charges> 
19 
1   -0.273212 
2   -0.130702 
3   -0.132684 
4   -0.124813 
5   -0.132691 
6   -0.011331 
7   -0.008613 
8   -0.029686 
9   0.194469 
10   -0.108242 
11   -0.259833 
12   -0.187021 
13   0.16314 
14   0.161156 
15   0.161456 
16   0.176695 
17   0.177721 
18   0.185493 
19   0.178698 
 
$$$$ 
 
