PCCDB-ID:  67460 
public computational chemistry database (PCCDB) project, http://pccdb.org 
 
 27 30  0  0  0  0  0  0  0  0999 V2000 
    4.3860    0.4045   -0.0002 C   0  0  0  0  0  0  0  0  0  0  0  0 
    3.6661    1.6226   -0.0000 C   0  0  0  0  0  0  0  0  0  0  0  0 
   -4.3236   -0.5508    0.0001 C   0  0  0  0  0  0  0  0  0  0  0  0 
   -4.3191    0.8548   -0.0000 C   0  0  0  0  0  0  0  0  0  0  0  0 
    3.7177   -0.8015   -0.0001 C   0  0  0  0  0  0  0  0  0  0  0  0 
    2.2879    1.6179   -0.0002 C   0  0  0  0  0  0  0  0  0  0  0  0 
   -3.1337   -1.2759    0.0003 C   0  0  0  0  0  0  0  0  0  0  0  0 
   -3.1236    1.5756    0.0001 C   0  0  0  0  0  0  0  0  0  0  0  0 
    1.5884   -2.0942   -0.0001 C   0  0  0  0  0  0  0  0  0  0  0  0 
    0.2146   -2.1434    0.0003 C   0  0  0  0  0  0  0  0  0  0  0  0 
    2.3001   -0.8539   -0.0003 C   0  0  0  0  0  0  0  0  0  0  0  0 
    1.5819    0.3893   -0.0004 C   0  0  0  0  0  0  0  0  0  0  0  0 
   -1.9214   -0.5745    0.0005 C   0  0  0  0  0  0  0  0  0  0  0  0 
   -0.5155   -0.9279    0.0002 C   0  0  0  0  0  0  0  0  0  0  0  0 
   -1.9509    0.8339    0.0003 C   0  0  0  0  0  0  0  0  0  0  0  0 
    0.1741    0.2804   -0.0002 C   0  0  0  0  0  0  0  0  0  0  0  0 
   -0.6784    1.3594   -0.0000 O   0  0  0  0  0  0  0  0  0  0  0  0 
    5.4724    0.4230   -0.0009 H   0  0  0  0  0  0  0  0  0  0  0  0 
    4.2052    2.5660    0.0009 H   0  0  0  0  0  0  0  0  0  0  0  0 
   -5.2726   -1.0793    0.0001 H   0  0  0  0  0  0  0  0  0  0  0  0 
   -5.2628    1.3926   -0.0005 H   0  0  0  0  0  0  0  0  0  0  0  0 
    4.2735   -1.7362    0.0006 H   0  0  0  0  0  0  0  0  0  0  0  0 
    1.7265    2.5470   -0.0005 H   0  0  0  0  0  0  0  0  0  0  0  0 
   -3.1480   -2.3623    0.0002 H   0  0  0  0  0  0  0  0  0  0  0  0 
   -3.1032    2.6604    0.0003 H   0  0  0  0  0  0  0  0  0  0  0  0 
    2.1651   -3.0155   -0.0004 H   0  0  0  0  0  0  0  0  0  0  0  0 
   -0.3058   -3.0968    0.0010 H   0  0  0  0  0  0  0  0  0  0  0  0 
  1  5  2  0  0  0  0 
  1  2  1  0  0  0  0 
  2 19  1  0  0  0  0 
  3  7  2  0  0  0  0 
  4  8  2  0  0  0  0 
  4  3  1  0  0  0  0 
  5 22  1  0  0  0  0 
  6  2  2  0  0  0  0 
  7 13  1  0  0  0  0 
  8 25  1  0  0  0  0 
  8 15  1  0  0  0  0 
  9 10  2  0  0  0  0 
 10 27  1  0  0  0  0 
 11  9  1  0  0  0  0 
 11  5  1  0  0  0  0 
 12 11  2  0  0  0  0 
 12  6  1  0  0  0  0 
 12 16  1  0  0  0  0 
 14 10  1  0  0  0  0 
 14 13  1  0  0  0  0 
 15 13  2  0  0  0  0 
 16 17  1  0  0  0  0 
 16 14  2  0  0  0  0 
 17 15  1  0  0  0  0 
 18  1  1  0  0  0  0 
 20  3  1  0  0  0  0 
 21  4  1  0  0  0  0 
 23  6  1  0  0  0  0 
 24  7  1  0  0  0  0 
 26  9  1  0  0  0  0 
M  END 
>  <HBA> 
1 
 
>  <HBD> 
0 
 
>  <TPSA> 
13.14 
 
>  <cid> 
67460 
 
>  <dipole> 
0.52 
 
>  <excitation_energy_1> 
3.969 
 
>  <excitation_energy_2> 
4.048 
 
>  <excitation_energy_3> 
4.555 
 
>  <excitation_energy_4> 
4.772 
 
>  <homo_energy> 
-5.573 
 
>  <homo_lumo_gap> 
4.506 
 
>  <logP> 
4.739 
 
>  <lumo_energy> 
-1.067 
 
>  <melting_point> 
137.56 
 
>  <molecular_refractivity> 
71.23 
 
>  <oscillator_strength_1> 
0.0542 
 
>  <oscillator_strength_2> 
0.0616 
 
>  <oscillator_strength_3> 
0.3985 
 
>  <oscillator_strength_4> 
0.2942 
 
>  <open_babel_can_smiles> 
c1ccc2c(c1)c1oc3c(c1cc2)cccc3 
 
>  <mulliken_charges> 
27 
1   -0.125002 
2   -0.145972 
3   -0.144111 
4   -0.138404 
5   -0.211584 
6   -0.163952 
7   -0.192159 
8   -0.203978 
9   -0.208595 
10   -0.191098 
11   0.151778 
12   0.065382 
13   0.067518 
14   0.106625 
15   0.331544 
16   0.20056 
17   -0.552051 
18   0.13122 
19   0.1328 
20   0.130141 
21   0.133085 
22   0.131894 
23   0.147921 
24   0.134756 
25   0.14634 
26   0.129869 
27   0.135474 
 
>  <lowdin_charges> 
27 
1   -0.155293 
2   -0.155347 
3   -0.166585 
4   -0.153909 
5   -0.154862 
6   -0.152478 
7   -0.152768 
8   -0.174097 
9   -0.167294 
10   -0.154176 
11   0.00368 
12   -0.017157 
13   -0.033297 
14   -0.041217 
15   0.094762 
16   0.089549 
17   -0.123146 
18   0.157463 
19   0.160139 
20   0.159244 
21   0.161036 
22   0.158889 
23   0.168262 
24   0.158621 
25   0.168326 
26   0.159539 
27   0.16212 
 
$$$$ 
 
