PCCDB-ID:  6493 
public computational chemistry database (PCCDB) project, http://pccdb.org 
 
 21 20  0  0  0  0  0  0  0  0999 V2000 
    1.5171   -1.1920    0.2210 C   0  0  0  0  0  0  0  0  0  0  0  0 
    0.5103    1.6558    2.3748 C   0  0  0  0  0  0  0  0  0  0  0  0 
    2.8755    2.4850    0.4352 C   0  0  0  0  0  0  0  0  0  0  0  0 
    1.8035    0.2706   -0.1334 C   0  0  0  0  0  0  0  0  0  0  0  0 
    1.9232    1.0652    2.3180 C   0  0  0  0  0  0  0  0  0  0  0  0 
    2.5998    1.0579    0.9338 C   0  0  0  0  0  0  0  0  0  0  0  0 
    3.8588    0.3991    1.1785 O   0  0  0  0  0  0  0  0  0  0  0  0 
    1.0808   -1.7205   -0.6339 H   0  0  0  0  0  0  0  0  0  0  0  0 
    0.8124   -1.2793    1.0554 H   0  0  0  0  0  0  0  0  0  0  0  0 
    2.4405   -1.7045    0.5085 H   0  0  0  0  0  0  0  0  0  0  0  0 
    0.1335    1.6369    3.4034 H   0  0  0  0  0  0  0  0  0  0  0  0 
   -0.1966    1.0890    1.7580 H   0  0  0  0  0  0  0  0  0  0  0  0 
    0.4839    2.6983    2.0378 H   0  0  0  0  0  0  0  0  0  0  0  0 
    1.9507    3.0406    0.2448 H   0  0  0  0  0  0  0  0  0  0  0  0 
    3.4399    2.4603   -0.5065 H   0  0  0  0  0  0  0  0  0  0  0  0 
    3.4693    3.0364    1.1719 H   0  0  0  0  0  0  0  0  0  0  0  0 
    0.8656    0.7983   -0.3499 H   0  0  0  0  0  0  0  0  0  0  0  0 
    2.3846    0.3070   -1.0677 H   0  0  0  0  0  0  0  0  0  0  0  0 
    1.9081    0.0337    2.6884 H   0  0  0  0  0  0  0  0  0  0  0  0 
    2.5839    1.6183    2.9973 H   0  0  0  0  0  0  0  0  0  0  0  0 
    4.3573    0.4091    0.3452 H   0  0  0  0  0  0  0  0  0  0  0  0 
  1 10  1  0  0  0  0 
  1  9  1  0  0  0  0 
  2 11  1  0  0  0  0 
  3  6  1  0  0  0  0 
  3 16  1  0  0  0  0 
  4  1  1  0  0  0  0 
  4  6  1  0  0  0  0 
  5  2  1  0  0  0  0 
  5 19  1  0  0  0  0 
  5 20  1  0  0  0  0 
  6  7  1  0  0  0  0 
  6  5  1  0  0  0  0 
  8  1  1  0  0  0  0 
 12  2  1  0  0  0  0 
 13  2  1  0  0  0  0 
 14  3  1  0  0  0  0 
 15  3  1  0  0  0  0 
 17  4  1  0  0  0  0 
 18  4  1  0  0  0  0 
 21  7  1  0  0  0  0 
M  END 
>  <HBA> 
1 
 
>  <HBD> 
1 
 
>  <TPSA> 
20.23 
 
>  <cid> 
6493 
 
>  <dipole> 
1.41 
 
>  <excitation_energy_1> 
6.439 
 
>  <excitation_energy_2> 
7.102 
 
>  <excitation_energy_3> 
7.318 
 
>  <excitation_energy_4> 
7.441 
 
>  <homo_energy> 
-7.045 
 
>  <homo_lumo_gap> 
8.876 
 
>  <logP> 
1.557 
 
>  <lumo_energy> 
1.831 
 
>  <melting_point> 
3.08 
 
>  <molecular_refractivity> 
32.16 
 
>  <oscillator_strength_1> 
0.0143 
 
>  <oscillator_strength_2> 
0.0023 
 
>  <oscillator_strength_3> 
0.0109 
 
>  <oscillator_strength_4> 
0.0127 
 
>  <open_babel_can_smiles> 
CCC(CC)(O)C 
 
>  <mulliken_charges> 
21 
1   -0.449903 
2   -0.45912 
3   -0.462726 
4   -0.265697 
5   -0.258105 
6   0.314556 
7   -0.642701 
8   0.138318 
9   0.145914 
10   0.15892 
11   0.146915 
12   0.146935 
13   0.144873 
14   0.144368 
15   0.12736 
16   0.152873 
17   0.133117 
18   0.114675 
19   0.14828 
20   0.140477 
21   0.38067 
 
>  <lowdin_charges> 
21 
1   -0.451223 
2   -0.448202 
3   -0.459625 
4   -0.28938 
5   -0.278687 
6   0.120504 
7   -0.464933 
8   0.149811 
9   0.14845 
10   0.156206 
11   0.152746 
12   0.149047 
13   0.146093 
14   0.152161 
15   0.142878 
16   0.156885 
17   0.14457 
18   0.134925 
19   0.150858 
20   0.150623 
21   0.336291 
 
$$$$ 
 
