PCCDB-ID:  9151 
public computational chemistry database (PCCDB) project, http://pccdb.org 
 
 27 30  0  0  0  0  0  0  0  0999 V2000 
    3.8721   -1.3718    0.0048 C   0  0  0  0  0  0  0  0  0  0  0  0 
    2.7441   -2.2168    0.0008 C   0  0  0  0  0  0  0  0  0  0  0  0 
   -3.2090   -1.9123    0.0013 C   0  0  0  0  0  0  0  0  0  0  0  0 
   -4.1812   -0.9027   -0.0014 C   0  0  0  0  0  0  0  0  0  0  0  0 
    3.6893   -0.0074    0.0052 C   0  0  0  0  0  0  0  0  0  0  0  0 
    1.4678   -1.6912   -0.0010 C   0  0  0  0  0  0  0  0  0  0  0  0 
   -1.8538   -1.6037    0.0020 C   0  0  0  0  0  0  0  0  0  0  0  0 
   -3.7925    0.4312   -0.0029 C   0  0  0  0  0  0  0  0  0  0  0  0 
    2.2420    1.9807    0.0033 C   0  0  0  0  0  0  0  0  0  0  0  0 
    1.0027    2.5617    0.0009 C   0  0  0  0  0  0  0  0  0  0  0  0 
    2.3913    0.5639    0.0029 C   0  0  0  0  0  0  0  0  0  0  0  0 
    1.2338   -0.2905    0.0003 C   0  0  0  0  0  0  0  0  0  0  0  0 
   -1.4168   -0.2623   -0.0004 C   0  0  0  0  0  0  0  0  0  0  0  0 
   -2.4294    0.7342   -0.0023 C   0  0  0  0  0  0  0  0  0  0  0  0 
   -0.1371    1.7273   -0.0004 C   0  0  0  0  0  0  0  0  0  0  0  0 
   -0.0732    0.3258   -0.0002 C   0  0  0  0  0  0  0  0  0  0  0  0 
   -1.7739    2.3628   -0.0027 S   0  0  0  0  0  0  0  0  0  0  0  0 
    4.8729   -1.7946    0.0065 H   0  0  0  0  0  0  0  0  0  0  0  0 
    2.8764   -3.2955    0.0004 H   0  0  0  0  0  0  0  0  0  0  0  0 
   -3.5145   -2.9548    0.0030 H   0  0  0  0  0  0  0  0  0  0  0  0 
   -5.2365   -1.1600   -0.0019 H   0  0  0  0  0  0  0  0  0  0  0  0 
    4.5461    0.6623    0.0076 H   0  0  0  0  0  0  0  0  0  0  0  0 
    0.6367   -2.3799   -0.0050 H   0  0  0  0  0  0  0  0  0  0  0  0 
   -1.1490   -2.4230    0.0051 H   0  0  0  0  0  0  0  0  0  0  0  0 
   -4.5320    1.2268   -0.0044 H   0  0  0  0  0  0  0  0  0  0  0  0 
    3.1368    2.5977    0.0050 H   0  0  0  0  0  0  0  0  0  0  0  0 
    0.8892    3.6417    0.0012 H   0  0  0  0  0  0  0  0  0  0  0  0 
  1  5  1  0  0  0  0 
  1 18  1  0  0  0  0 
  2  1  2  0  0  0  0 
  3  7  1  0  0  0  0 
  3 20  1  0  0  0  0 
  4  3  2  0  0  0  0 
  5 22  1  0  0  0  0 
  6 12  2  0  0  0  0 
  6  2  1  0  0  0  0 
  7 24  1  0  0  0  0 
  8 14  2  0  0  0  0 
  8  4  1  0  0  0  0 
  9 26  1  0  0  0  0 
 10 27  1  0  0  0  0 
 10  9  2  0  0  0  0 
 11  9  1  0  0  0  0 
 11  5  2  0  0  0  0 
 12 11  1  0  0  0  0 
 13 16  1  0  0  0  0 
 13  7  2  0  0  0  0 
 14 13  1  0  0  0  0 
 15 16  2  0  0  0  0 
 15 10  1  0  0  0  0 
 16 12  1  0  0  0  0 
 17 14  1  0  0  0  0 
 17 15  1  0  0  0  0 
 19  2  1  0  0  0  0 
 21  4  1  0  0  0  0 
 23  6  1  0  0  0  0 
 25  8  1  0  0  0  0 
M  END 
>  <HBA> 
1 
 
>  <HBD> 
0 
 
>  <TPSA> 
28.24 
 
>  <cid> 
9151 
 
>  <dipole> 
0.77 
 
>  <excitation_energy_1> 
3.764 
 
>  <excitation_energy_2> 
3.93 
 
>  <excitation_energy_3> 
4.508 
 
>  <excitation_energy_4> 
4.747 
 
>  <homo_energy> 
-5.625 
 
>  <homo_lumo_gap> 
4.283 
 
>  <logP> 
5.208 
 
>  <lumo_energy> 
-1.342 
 
>  <melting_point> 
137.56 
 
>  <molecular_refractivity> 
76.84 
 
>  <oscillator_strength_1> 
0.0559 
 
>  <oscillator_strength_2> 
0.1941 
 
>  <oscillator_strength_3> 
0.04 
 
>  <oscillator_strength_4> 
0.1441 
 
>  <open_babel_can_smiles> 
c1ccc2c(c1)ccc1c2c2ccccc2s1 
 
>  <mulliken_charges> 
27 
1   -0.131085 
2   -0.138634 
3   -0.144416 
4   -0.115662 
5   -0.200469 
6   -0.187078 
7   -0.17423 
8   -0.181369 
9   -0.173615 
10   -0.182334 
11   0.128963 
12   0.103684 
13   0.112006 
14   -0.145215 
15   -0.15952 
16   0.012675 
17   0.214467 
18   0.13134 
19   0.130679 
20   0.131392 
21   0.133281 
22   0.131033 
23   0.137651 
24   0.146459 
25   0.141864 
26   0.134345 
27   0.143787 
 
>  <lowdin_charges> 
27 
1   -0.160606 
2   -0.150536 
3   -0.160416 
4   -0.152265 
5   -0.153938 
6   -0.166469 
7   -0.163251 
8   -0.164896 
9   -0.150624 
10   -0.162435 
11   -0.002017 
12   0.00368 
13   -0.015466 
14   -0.12692 
15   -0.12964 
16   -0.028365 
17   0.274569 
18   0.158961 
19   0.157023 
20   0.158168 
21   0.159426 
22   0.158794 
23   0.161687 
24   0.162652 
25   0.166192 
26   0.161716 
27   0.164978 
 
$$$$ 
 
