PCCDB-ID:  70458 
public computational chemistry database (PCCDB) project, http://pccdb.org 
 
 23 22  0  0  0  0  0  0  0  0999 V2000 
    1.5200   -0.8494    1.3445 C   0  0  0  0  0  0  0  0  0  0  0  0 
    3.3709    0.9276    1.4779 C   0  0  0  0  0  0  0  0  0  0  0  0 
    0.6856   -1.7944    0.4760 C   0  0  0  0  0  0  0  0  0  0  0  0 
    4.0497    0.5055    2.7893 C   0  0  0  0  0  0  0  0  0  0  0  0 
    3.6800   -1.1836    0.0081 C   0  0  0  0  0  0  0  0  0  0  0  0 
    2.6978   -0.1704    0.6154 C   0  0  0  0  0  0  0  0  0  0  0  0 
   -0.4802   -2.2597    1.1491 O   0  0  0  0  0  0  0  0  0  0  0  0 
    5.2314   -0.2534    2.6051 O   0  0  0  0  0  0  0  0  0  0  0  0 
    4.0489   -2.1686    0.9903 O   0  0  0  0  0  0  0  0  0  0  0  0 
    1.8949   -1.4087    2.2111 H   0  0  0  0  0  0  0  0  0  0  0  0 
    0.8488   -0.0733    1.7337 H   0  0  0  0  0  0  0  0  0  0  0  0 
    4.1237    1.4436    0.8664 H   0  0  0  0  0  0  0  0  0  0  0  0 
    2.6008    1.6741    1.7209 H   0  0  0  0  0  0  0  0  0  0  0  0 
    1.2980   -2.6410    0.1287 H   0  0  0  0  0  0  0  0  0  0  0  0 
    0.3158   -1.2692   -0.4124 H   0  0  0  0  0  0  0  0  0  0  0  0 
    3.3316   -0.0204    3.4409 H   0  0  0  0  0  0  0  0  0  0  0  0 
    4.3524    1.4126    3.3250 H   0  0  0  0  0  0  0  0  0  0  0  0 
    4.5726   -0.6580   -0.3592 H   0  0  0  0  0  0  0  0  0  0  0  0 
    3.2091   -1.6900   -0.8454 H   0  0  0  0  0  0  0  0  0  0  0  0 
    2.2800    0.3577   -0.2562 H   0  0  0  0  0  0  0  0  0  0  0  0 
   -0.1837   -2.7624    1.9238 H   0  0  0  0  0  0  0  0  0  0  0  0 
    4.9524   -1.0995    2.2041 H   0  0  0  0  0  0  0  0  0  0  0  0 
    4.6649   -2.7913    0.5741 H   0  0  0  0  0  0  0  0  0  0  0  0 
  1 11  1  0  0  0  0 
  1 10  1  0  0  0  0 
  2 13  1  0  0  0  0 
  2  4  1  0  0  0  0 
  3  7  1  0  0  0  0 
  3  1  1  0  0  0  0 
  4 17  1  0  0  0  0 
  4 16  1  0  0  0  0 
  5  6  1  0  0  0  0 
  5  9  1  0  0  0  0 
  6  1  1  0  0  0  0 
  6  2  1  0  0  0  0 
  7 21  1  0  0  0  0 
  8  4  1  0  0  0  0 
 12  2  1  0  0  0  0 
 14  3  1  0  0  0  0 
 15  3  1  0  0  0  0 
 18  5  1  0  0  0  0 
 19  5  1  0  0  0  0 
 20  6  1  0  0  0  0 
 22  8  1  0  0  0  0 
 23  9  1  0  0  0  0 
M  END 
>  <HBA> 
3 
 
>  <HBD> 
3 
 
>  <TPSA> 
60.69 
 
>  <cid> 
70458 
 
>  <dipole> 
2.25 
 
>  <excitation_energy_1> 
5.886 
 
>  <excitation_energy_2> 
6.321 
 
>  <excitation_energy_3> 
6.472 
 
>  <excitation_energy_4> 
6.599 
 
>  <homo_energy> 
-6.615 
 
>  <homo_lumo_gap> 
7.818 
 
>  <logP> 
-0.64 
 
>  <lumo_energy> 
1.203 
 
>  <melting_point> 
29.29 
 
>  <molecular_refractivity> 
34.44 
 
>  <oscillator_strength_1> 
0.002 
 
>  <oscillator_strength_2> 
0.0061 
 
>  <oscillator_strength_3> 
0.0019 
 
>  <oscillator_strength_4> 
0.0025 
 
>  <open_babel_can_smiles> 
OCCC(CCO)CO 
 
>  <mulliken_charges> 
23 
1   -0.28059 
2   -0.279721 
3   -0.033771 
4   -0.029735 
5   -0.061305 
6   -0.110571 
7   -0.616977 
8   -0.65285 
9   -0.626022 
10   0.144471 
11   0.145191 
12   0.13708 
13   0.127779 
14   0.124672 
15   0.140021 
16   0.115355 
17   0.136977 
18   0.143924 
19   0.137353 
20   0.130581 
21   0.387044 
22   0.413468 
23   0.407628 
 
>  <lowdin_charges> 
23 
1   -0.300317 
2   -0.298612 
3   -0.139241 
4   -0.139934 
5   -0.146241 
6   -0.138156 
7   -0.467525 
8   -0.496668 
9   -0.466213 
10   0.146626 
11   0.151647 
12   0.147096 
13   0.146586 
14   0.128328 
15   0.143088 
16   0.123673 
17   0.144204 
18   0.141447 
19   0.13705 
20   0.147944 
21   0.341733 
22   0.337914 
23   0.35557 
 
$$$$ 
 
