PCCDB-ID:  72725 
public computational chemistry database (PCCDB) project, http://pccdb.org 
 
 24 26  0  0  0  0  0  0  0  0999 V2000 
   -3.5780   -0.7020   -0.0150 C   0  0  0  0  0  0  0  0  0  0  0  0 
   -3.5732    0.7027   -0.0327 C   0  0  0  0  0  0  0  0  0  0  0  0 
   -2.3823   -1.4049    0.0045 C   0  0  0  0  0  0  0  0  0  0  0  0 
   -2.3716    1.4053   -0.0310 C   0  0  0  0  0  0  0  0  0  0  0  0 
    2.4147   -1.4306    0.0475 C   0  0  0  0  0  0  0  0  0  0  0  0 
    2.3355    1.4417   -0.0015 C   0  0  0  0  0  0  0  0  0  0  0  0 
    3.5976   -0.7394    0.0486 C   0  0  0  0  0  0  0  0  0  0  0  0 
   -1.1497   -0.7214    0.0068 C   0  0  0  0  0  0  0  0  0  0  0  0 
    1.1590   -0.7489    0.0266 C   0  0  0  0  0  0  0  0  0  0  0  0 
    3.6151    0.7689    0.0115 C   0  0  0  0  0  0  0  0  0  0  0  0 
   -1.1786    0.6876   -0.0114 C   0  0  0  0  0  0  0  0  0  0  0  0 
    1.1809    0.7264    0.0053 C   0  0  0  0  0  0  0  0  0  0  0  0 
    4.8374   -1.2772    0.0957 N   0  0  0  0  0  0  0  0  0  0  0  0 
    0.0340   -1.4285    0.0266 N   0  0  0  0  0  0  0  0  0  0  0  0 
    4.7031    1.3538   -0.0120 O   0  0  0  0  0  0  0  0  0  0  0  0 
   -0.0031    1.3915   -0.0095 O   0  0  0  0  0  0  0  0  0  0  0  0 
   -4.5220   -1.2387   -0.0165 H   0  0  0  0  0  0  0  0  0  0  0  0 
   -4.5115    1.2492   -0.0482 H   0  0  0  0  0  0  0  0  0  0  0  0 
   -2.3557   -2.4899    0.0185 H   0  0  0  0  0  0  0  0  0  0  0  0 
   -2.3396    2.4901   -0.0443 H   0  0  0  0  0  0  0  0  0  0  0  0 
    2.3820   -2.5156    0.0696 H   0  0  0  0  0  0  0  0  0  0  0  0 
    2.3268    2.5255   -0.0234 H   0  0  0  0  0  0  0  0  0  0  0  0 
    4.9965   -2.2653   -0.0200 H   0  0  0  0  0  0  0  0  0  0  0  0 
    5.6066   -0.6256   -0.0039 H   0  0  0  0  0  0  0  0  0  0  0  0 
  1  3  2  0  0  0  0 
  2  4  2  0  0  0  0 
  2  1  1  0  0  0  0 
  3  8  1  0  0  0  0 
  3 19  1  0  0  0  0 
  4 11  1  0  0  0  0 
  5  7  2  0  0  0  0 
  5 21  1  0  0  0  0 
  6 12  1  0  0  0  0 
  6 10  1  0  0  0  0 
  7 13  1  0  0  0  0 
  8 14  1  0  0  0  0 
  9 14  1  0  0  0  0 
  9  5  1  0  0  0  0 
 10  7  1  0  0  0  0 
 11 16  1  0  0  0  0 
 11  8  2  0  0  0  0 
 12  9  2  0  0  0  0 
 15 10  2  0  0  0  0 
 16 12  1  0  0  0  0 
 17  1  1  0  0  0  0 
 18  2  1  0  0  0  0 
 20  4  1  0  0  0  0 
 22  6  1  0  0  0  0 
 23 13  1  0  0  0  0 
 24 13  1  0  0  0  0 
M  RAD  2   6   2  14   2 
M  END 
>  <HBA> 
4 
 
>  <HBD> 
1 
 
>  <TPSA> 
69.12 
 
>  <cid> 
72725 
 
>  <dipole> 
2.37 
 
>  <excitation_energy_1> 
2.663 
 
>  <excitation_energy_2> 
3.124 
 
>  <excitation_energy_3> 
3.192 
 
>  <excitation_energy_4> 
3.626 
 
>  <homo_energy> 
-5.595 
 
>  <homo_lumo_gap> 
2.977 
 
>  <logP> 
2.456 
 
>  <lumo_energy> 
-2.618 
 
>  <melting_point> 
185.49 
 
>  <molecular_refractivity> 
61.31 
 
>  <oscillator_strength_1> 
0.1075 
 
>  <oscillator_strength_2> 
0.4205 
 
>  <oscillator_strength_3> 
0.0 
 
>  <oscillator_strength_4> 
0.0008 
 
>  <open_babel_can_smiles> 
O=C1[CH]C2=C(C=C1N)[N]c1c(O2)cccc1 
 
>  <mulliken_charges> 
24 
1   -0.132997 
2   -0.135864 
3   -0.169011 
4   -0.189598 
5   -0.260337 
6   -0.304941 
7   0.324089 
8   0.270944 
9   0.309785 
10   0.425985 
11   0.33593 
12   0.387681 
13   -0.797958 
14   -0.575668 
15   -0.533907 
16   -0.535725 
17   0.138529 
18   0.141804 
19   0.150611 
20   0.152655 
21   0.137219 
22   0.15759 
23   0.340208 
24   0.362977 
 
>  <lowdin_charges> 
24 
1   -0.161782 
2   -0.144497 
3   -0.143934 
4   -0.172592 
5   -0.2408 
6   -0.234646 
7   0.050278 
8   0.007984 
9   0.048628 
10   0.135719 
11   0.088484 
12   0.109504 
13   -0.431097 
14   -0.143566 
15   -0.282923 
16   -0.094481 
17   0.163742 
18   0.165021 
19   0.170574 
20   0.17132 
21   0.166614 
22   0.179731 
23   0.28964 
24   0.303079 
 
$$$$ 
 
