PCCDB-ID:  9309 
public computational chemistry database (PCCDB) project, http://pccdb.org 
 
 19 19  0  0  0  0  0  0  0  0999 V2000 
    1.6283    0.4282    1.0300 C   0  0  0  0  0  0  0  0  0  0  0  0 
    2.7775    1.1049    1.0231 C   0  0  0  0  0  0  0  0  0  0  0  0 
    7.5428    0.0310   -0.5592 C   0  0  0  0  0  0  0  0  0  0  0  0 
    6.4688   -0.8435   -0.3759 C   0  0  0  0  0  0  0  0  0  0  0  0 
    7.3075    1.4044   -0.6221 C   0  0  0  0  0  0  0  0  0  0  0  0 
    3.5008    1.5678   -0.2171 C   0  0  0  0  0  0  0  0  0  0  0  0 
    5.1714   -0.3462   -0.2580 C   0  0  0  0  0  0  0  0  0  0  0  0 
    6.0062    1.8980   -0.5043 C   0  0  0  0  0  0  0  0  0  0  0  0 
    4.9216    1.0319   -0.3249 C   0  0  0  0  0  0  0  0  0  0  0  0 
    1.1502    0.1212    1.9564 H   0  0  0  0  0  0  0  0  0  0  0  0 
    1.1170    0.1606    0.1071 H   0  0  0  0  0  0  0  0  0  0  0  0 
    3.2606    1.3498    1.9697 H   0  0  0  0  0  0  0  0  0  0  0  0 
    8.5544   -0.3561   -0.6481 H   0  0  0  0  0  0  0  0  0  0  0  0 
    6.6424   -1.9154   -0.3250 H   0  0  0  0  0  0  0  0  0  0  0  0 
    8.1357    2.0947   -0.7611 H   0  0  0  0  0  0  0  0  0  0  0  0 
    3.5396    2.6661   -0.2285 H   0  0  0  0  0  0  0  0  0  0  0  0 
    2.9213    1.2687   -1.1014 H   0  0  0  0  0  0  0  0  0  0  0  0 
    4.3398   -1.0298   -0.1057 H   0  0  0  0  0  0  0  0  0  0  0  0 
    5.8306    2.9705   -0.5554 H   0  0  0  0  0  0  0  0  0  0  0  0 
  1 10  1  0  0  0  0 
  2  1  2  0  0  0  0 
  2 12  1  0  0  0  0 
  3  4  1  0  0  0  0 
  4 14  1  0  0  0  0 
  4  7  2  0  0  0  0 
  5  3  2  0  0  0  0 
  5  8  1  0  0  0  0 
  6  2  1  0  0  0  0 
  7 18  1  0  0  0  0 
  8  9  2  0  0  0  0 
  9  7  1  0  0  0  0 
  9  6  1  0  0  0  0 
 11  1  1  0  0  0  0 
 13  3  1  0  0  0  0 
 15  5  1  0  0  0  0 
 16  6  1  0  0  0  0 
 17  6  1  0  0  0  0 
 19  8  1  0  0  0  0 
M  END 
>  <HBA> 
0 
 
>  <HBD> 
0 
 
>  <TPSA> 
0.0 
 
>  <cid> 
9309 
 
>  <dipole> 
0.13 
 
>  <excitation_energy_1> 
5.249 
 
>  <excitation_energy_2> 
5.742 
 
>  <excitation_energy_3> 
5.996 
 
>  <excitation_energy_4> 
6.061 
 
>  <homo_energy> 
-6.43 
 
>  <homo_lumo_gap> 
6.446 
 
>  <logP> 
2.415 
 
>  <lumo_energy> 
0.016 
 
>  <melting_point> 
-14.78 
 
>  <molecular_refractivity> 
40.55 
 
>  <oscillator_strength_1> 
0.0066 
 
>  <oscillator_strength_2> 
0.067 
 
>  <oscillator_strength_3> 
0.0576 
 
>  <oscillator_strength_4> 
0.0259 
 
>  <open_babel_can_smiles> 
C=CCc1ccccc1 
 
>  <mulliken_charges> 
19 
1   -0.346407 
2   -0.030042 
3   -0.131263 
4   -0.128954 
5   -0.125489 
6   -0.391477 
7   -0.171943 
8   -0.191881 
9   0.167442 
10   0.140717 
11   0.135698 
12   0.132272 
13   0.127156 
14   0.128054 
15   0.127404 
16   0.150898 
17   0.155212 
18   0.131066 
19   0.121536 
 
>  <lowdin_charges> 
19 
1   -0.346017 
2   -0.14125 
3   -0.160121 
4   -0.152453 
5   -0.157216 
6   -0.267772 
7   -0.16381 
8   -0.167297 
9   -0.003475 
10   0.159675 
11   0.154329 
12   0.153656 
13   0.15584 
14   0.154826 
15   0.157522 
16   0.153619 
17   0.157968 
18   0.160478 
19   0.151498 
 
$$$$ 
 
