PCCDB-ID:  47372 
public computational chemistry database (PCCDB) project, http://pccdb.org 
 
 31 32  0  0  0  0  0  0  0  0999 V2000 
    1.8585    2.4225    1.8468 C   0  0  0  0  0  0  0  0  0  0  0  0 
    5.0551    1.1623   -6.8511 C   0  0  0  0  0  0  0  0  0  0  0  0 
    5.1117   -1.7747   -4.0993 C   0  0  0  0  0  0  0  0  0  0  0  0 
    4.8260    2.9681   -2.5876 C   0  0  0  0  0  0  0  0  0  0  0  0 
    5.4041    2.7870   -3.8363 C   0  0  0  0  0  0  0  0  0  0  0  0 
    3.3883    2.0914   -0.7210 C   0  0  0  0  0  0  0  0  0  0  0  0 
    3.0618   -0.3450   -0.7009 C   0  0  0  0  0  0  0  0  0  0  0  0 
    2.0943    1.0779    1.1746 C   0  0  0  0  0  0  0  0  0  0  0  0 
    4.0914    1.9381   -1.9781 C   0  0  0  0  0  0  0  0  0  0  0  0 
    2.8395    1.0228   -0.0996 C   0  0  0  0  0  0  0  0  0  0  0  0 
    5.2528    1.5665   -4.5088 C   0  0  0  0  0  0  0  0  0  0  0  0 
    3.9546    0.7048   -2.6533 C   0  0  0  0  0  0  0  0  0  0  0  0 
    4.5275    0.5132   -3.9190 C   0  0  0  0  0  0  0  0  0  0  0  0 
    1.6778    0.0411    1.6827 O   0  0  0  0  0  0  0  0  0  0  0  0 
    5.8875    1.4103   -5.7101 O   0  0  0  0  0  0  0  0  0  0  0  0 
    4.3608   -0.6653   -4.6046 O   0  0  0  0  0  0  0  0  0  0  0  0 
    3.2118   -0.3092   -2.1345 O   0  0  0  0  0  0  0  0  0  0  0  0 
    1.2653    3.0855    1.2061 H   0  0  0  0  0  0  0  0  0  0  0  0 
    2.8050    2.9319    2.0620 H   0  0  0  0  0  0  0  0  0  0  0  0 
    1.3217    2.2528    2.7818 H   0  0  0  0  0  0  0  0  0  0  0  0 
    4.3727    2.0057   -7.0187 H   0  0  0  0  0  0  0  0  0  0  0  0 
    4.4825    0.2396   -6.7334 H   0  0  0  0  0  0  0  0  0  0  0  0 
    5.7360    1.0753   -7.7006 H   0  0  0  0  0  0  0  0  0  0  0  0 
    4.7985   -2.0343   -3.0829 H   0  0  0  0  0  0  0  0  0  0  0  0 
    6.1868   -1.5567   -4.1144 H   0  0  0  0  0  0  0  0  0  0  0  0 
    4.9003   -2.6112   -4.7690 H   0  0  0  0  0  0  0  0  0  0  0  0 
    4.9290    3.9198   -2.0725 H   0  0  0  0  0  0  0  0  0  0  0  0 
    5.9780    3.5711   -4.3185 H   0  0  0  0  0  0  0  0  0  0  0  0 
    3.2959    3.0931   -0.3085 H   0  0  0  0  0  0  0  0  0  0  0  0 
    2.2111   -0.9988   -0.5080 H   0  0  0  0  0  0  0  0  0  0  0  0 
    3.9559   -0.8199   -0.2657 H   0  0  0  0  0  0  0  0  0  0  0  0 
  1 19  1  0  0  0  0 
  1 20  1  0  0  0  0 
  2 22  1  0  0  0  0 
  2 15  1  0  0  0  0 
  3 24  1  0  0  0  0 
  4 27  1  0  0  0  0 
  4  9  1  0  0  0  0 
  5  4  2  0  0  0  0 
  6 29  1  0  0  0  0 
  6 10  2  0  0  0  0 
  7 30  1  0  0  0  0 
  7 31  1  0  0  0  0 
  7 10  1  0  0  0  0 
  8 14  2  0  0  0  0 
  8  1  1  0  0  0  0 
  9  6  1  0  0  0  0 
 10  8  1  0  0  0  0 
 11 13  2  0  0  0  0 
 11  5  1  0  0  0  0 
 12 17  1  0  0  0  0 
 12  9  2  0  0  0  0 
 13 12  1  0  0  0  0 
 15 11  1  0  0  0  0 
 16  3  1  0  0  0  0 
 16 13  1  0  0  0  0 
 17  7  1  0  0  0  0 
 18  1  1  0  0  0  0 
 21  2  1  0  0  0  0 
 23  2  1  0  0  0  0 
 25  3  1  0  0  0  0 
 26  3  1  0  0  0  0 
 28  5  1  0  0  0  0 
M  END 
>  <HBA> 
4 
 
>  <HBD> 
0 
 
>  <TPSA> 
44.76 
 
>  <cid> 
47372 
 
>  <dipole> 
2.67 
 
>  <excitation_energy_1> 
3.362 
 
>  <excitation_energy_2> 
3.523 
 
>  <excitation_energy_3> 
3.843 
 
>  <excitation_energy_4> 
4.76 
 
>  <homo_energy> 
-5.815 
 
>  <homo_lumo_gap> 
3.905 
 
>  <logP> 
2.069 
 
>  <lumo_energy> 
-1.91 
 
>  <melting_point> 
91.23 
 
>  <molecular_refractivity> 
63.71 
 
>  <oscillator_strength_1> 
0.1492 
 
>  <oscillator_strength_2> 
0.02 
 
>  <oscillator_strength_3> 
0.3006 
 
>  <oscillator_strength_4> 
0.0132 
 
>  <open_babel_can_smiles> 
COc1c(OC)ccc2c1OCC(=C2)C(=O)C 
 
>  <mulliken_charges> 
31 
1   -0.540739 
2   -0.220653 
3   -0.211684 
4   -0.208821 
5   -0.187653 
6   -0.186572 
7   -0.092281 
8   0.421691 
9   0.134522 
10   0.016336 
11   0.331244 
12   0.280193 
13   0.263571 
14   -0.469152 
15   -0.520644 
16   -0.523942 
17   -0.525866 
18   0.171104 
19   0.167232 
20   0.182139 
21   0.143807 
22   0.180507 
23   0.160367 
24   0.161293 
25   0.150194 
26   0.162062 
27   0.133891 
28   0.140638 
29   0.144243 
30   0.188986 
31   0.153987 
 
>  <lowdin_charges> 
31 
1   -0.476405 
2   -0.278529 
3   -0.269712 
4   -0.147632 
5   -0.192991 
6   -0.121081 
7   -0.116691 
8   0.154512 
9   -0.057234 
10   -0.079004 
11   0.093139 
12   0.093184 
13   0.038167 
14   -0.255336 
15   -0.218129 
16   -0.220267 
17   -0.191069 
18   0.171101 
19   0.167702 
20   0.175775 
21   0.142384 
22   0.159481 
23   0.15794 
24   0.148861 
25   0.142759 
26   0.158857 
27   0.161171 
28   0.17074 
29   0.165529 
30   0.176192 
31   0.146587 
 
$$$$ 
 
