PCCDB-ID:  11491 
public computational chemistry database (PCCDB) project, http://pccdb.org 
 
 30 31  0  0  0  0  0  0  0  0999 V2000 
    0.3963   -0.5102   -2.1690 C   0  0  0  0  0  0  0  0  0  0  0  0 
   10.0130   -5.0101    0.3658 C   0  0  0  0  0  0  0  0  0  0  0  0 
    2.4521   -3.4186   -3.5745 C   0  0  0  0  0  0  0  0  0  0  0  0 
    7.9088   -2.1685    1.8342 C   0  0  0  0  0  0  0  0  0  0  0  0 
    1.4238   -2.4861   -3.3858 C   0  0  0  0  0  0  0  0  0  0  0  0 
    8.9428   -3.0927    1.6378 C   0  0  0  0  0  0  0  0  0  0  0  0 
    3.5660   -3.4199   -2.7458 C   0  0  0  0  0  0  0  0  0  0  0  0 
    6.7996   -2.1607    0.9991 C   0  0  0  0  0  0  0  0  0  0  0  0 
    2.6165   -1.5431   -1.5301 C   0  0  0  0  0  0  0  0  0  0  0  0 
    7.7650   -4.0158   -0.2372 C   0  0  0  0  0  0  0  0  0  0  0  0 
    1.4917   -1.5334   -2.3629 C   0  0  0  0  0  0  0  0  0  0  0  0 
    8.8879   -4.0280    0.5979 C   0  0  0  0  0  0  0  0  0  0  0  0 
    3.6481   -2.4712   -1.7118 C   0  0  0  0  0  0  0  0  0  0  0  0 
    6.7275   -3.0958   -0.0479 C   0  0  0  0  0  0  0  0  0  0  0  0 
    4.7244   -2.3651   -0.7932 N   0  0  0  0  0  0  0  0  0  0  0  0 
    5.6519   -3.2011   -0.9674 N   0  0  0  0  0  0  0  0  0  0  0  0 
   -0.5201   -0.8014   -2.6922 H   0  0  0  0  0  0  0  0  0  0  0  0 
    0.6973    0.4728   -2.5545 H   0  0  0  0  0  0  0  0  0  0  0  0 
    0.1535   -0.3796   -1.1085 H   0  0  0  0  0  0  0  0  0  0  0  0 
   10.6420   -5.1156    1.2557 H   0  0  0  0  0  0  0  0  0  0  0  0 
   10.6616   -4.6844   -0.4582 H   0  0  0  0  0  0  0  0  0  0  0  0 
    9.6304   -6.0023    0.1020 H   0  0  0  0  0  0  0  0  0  0  0  0 
    2.3728   -4.1495   -4.3752 H   0  0  0  0  0  0  0  0  0  0  0  0 
    7.9759   -1.4544    2.6510 H   0  0  0  0  0  0  0  0  0  0  0  0 
    0.5574   -2.5028   -4.0431 H   0  0  0  0  0  0  0  0  0  0  0  0 
    9.8023   -3.0853    2.3043 H   0  0  0  0  0  0  0  0  0  0  0  0 
    4.3720   -4.1336   -2.8719 H   0  0  0  0  0  0  0  0  0  0  0  0 
    5.9867   -1.4565    1.1343 H   0  0  0  0  0  0  0  0  0  0  0  0 
    2.7150   -0.8282   -0.7173 H   0  0  0  0  0  0  0  0  0  0  0  0 
    7.6704   -4.7253   -1.0552 H   0  0  0  0  0  0  0  0  0  0  0  0 
  1 19  1  0  0  0  0 
  2 12  1  0  0  0  0 
  2 20  1  0  0  0  0 
  3  5  2  0  0  0  0 
  3  7  1  0  0  0  0 
  4 24  1  0  0  0  0 
  5 11  1  0  0  0  0 
  6  4  1  0  0  0  0 
  6 26  1  0  0  0  0 
  7 13  2  0  0  0  0 
  8 28  1  0  0  0  0 
  8  4  2  0  0  0  0 
  9 29  1  0  0  0  0 
 10 14  2  0  0  0  0 
 10 12  1  0  0  0  0 
 11  1  1  0  0  0  0 
 11  9  2  0  0  0  0 
 12  6  2  0  0  0  0 
 13  9  1  0  0  0  0 
 13 15  1  0  0  0  0 
 14  8  1  0  0  0  0 
 16 15  1  0  0  0  0 
 16 14  1  0  0  0  0 
 17  1  1  0  0  0  0 
 18  1  1  0  0  0  0 
 21  2  1  0  0  0  0 
 22  2  1  0  0  0  0 
 23  3  1  0  0  0  0 
 25  5  1  0  0  0  0 
 27  7  1  0  0  0  0 
 30 10  1  0  0  0  0 
M  RAD  2  15   2  16   2 
M  END 
>  <HBA> 
2 
 
>  <HBD> 
0 
 
>  <TPSA> 
24.72 
 
>  <cid> 
11491 
 
>  <dipole> 
0.06 
 
>  <excitation_energy_1> 
2.61 
 
>  <excitation_energy_2> 
3.587 
 
>  <excitation_energy_3> 
3.838 
 
>  <excitation_energy_4> 
3.9 
 
>  <homo_energy> 
-6.027 
 
>  <homo_lumo_gap> 
3.962 
 
>  <logP> 
4.719 
 
>  <lumo_energy> 
-2.065 
 
>  <melting_point> 
70.49 
 
>  <molecular_refractivity> 
66.99 
 
>  <oscillator_strength_1> 
0.0 
 
>  <oscillator_strength_2> 
0.6144 
 
>  <oscillator_strength_3> 
0.0 
 
>  <oscillator_strength_4> 
0.23 
 
>  <open_babel_can_smiles> 
Cc1cccc(c1)[N][N]c1cccc(c1)C 
 
>  <mulliken_charges> 
30 
1   -0.52864 
2   -0.528671 
3   -0.143743 
4   -0.143795 
5   -0.169241 
6   -0.168908 
7   -0.127256 
8   -0.12731 
9   -0.195788 
10   -0.196073 
11   0.169239 
12   0.169307 
13   0.273148 
14   0.273235 
15   -0.308008 
16   -0.308045 
17   0.15575 
18   0.167631 
19   0.162405 
20   0.155938 
21   0.167787 
22   0.162071 
23   0.133569 
24   0.133584 
25   0.125355 
26   0.125304 
27   0.152586 
28   0.152585 
29   0.133 
30   0.132985 
 
>  <lowdin_charges> 
30 
1   -0.440476 
2   -0.442428 
3   -0.151814 
4   -0.151771 
5   -0.159367 
6   -0.159293 
7   -0.157478 
8   -0.157421 
9   -0.156283 
10   -0.156417 
11   0.000669 
12   0.000518 
13   0.012725 
14   0.012686 
15   -0.08156 
16   -0.081543 
17   0.157738 
18   0.162814 
19   0.159776 
20   0.157997 
21   0.16399 
22   0.160479 
23   0.159507 
24   0.159472 
25   0.15653 
26   0.156568 
27   0.173085 
28   0.173075 
29   0.164125 
30   0.164101 
 
$$$$ 
 
