PCCDB-ID:  31232 
public computational chemistry database (PCCDB) project, http://pccdb.org 
 
 30 30  0  0  0  0  0  0  0  0999 V2000 
    3.4064   -1.3287    0.7335 C   0  0  0  0  0  0  0  0  0  0  0  0 
    2.6732    6.9593   -7.1338 C   0  0  0  0  0  0  0  0  0  0  0  0 
    2.1043   -0.7709    0.1308 C   0  0  0  0  0  0  0  0  0  0  0  0 
    2.2849    7.3056   -5.9039 C   0  0  0  0  0  0  0  0  0  0  0  0 
    2.4522    1.7401   -0.1358 C   0  0  0  0  0  0  0  0  0  0  0  0 
    2.6928    2.8431   -0.9511 C   0  0  0  0  0  0  0  0  0  0  0  0 
    3.0608    3.8127   -3.2769 C   0  0  0  0  0  0  0  0  0  0  0  0 
    1.8495    4.0565   -4.1829 C   0  0  0  0  0  0  0  0  0  0  0  0 
    2.4467    0.3988   -2.0994 C   0  0  0  0  0  0  0  0  0  0  0  0 
    2.3253    0.4691   -0.7055 C   0  0  0  0  0  0  0  0  0  0  0  0 
    2.8095    2.6571   -2.3336 C   0  0  0  0  0  0  0  0  0  0  0  0 
    1.9868    6.3482   -4.8097 C   0  0  0  0  0  0  0  0  0  0  0  0 
    2.6807    1.4439   -2.8976 N   0  0  0  0  0  0  0  0  0  0  0  0 
    1.6450    6.6988   -3.6958 O   0  0  0  0  0  0  0  0  0  0  0  0 
    2.1329    5.0565   -5.1853 O   0  0  0  0  0  0  0  0  0  0  0  0 
    3.2060   -2.2234    1.3337 H   0  0  0  0  0  0  0  0  0  0  0  0 
    3.8906   -0.5879    1.3799 H   0  0  0  0  0  0  0  0  0  0  0  0 
    4.1189   -1.5985   -0.0539 H   0  0  0  0  0  0  0  0  0  0  0  0 
    2.8780    7.7108   -7.8911 H   0  0  0  0  0  0  0  0  0  0  0  0 
    2.7962    5.9190   -7.4171 H   0  0  0  0  0  0  0  0  0  0  0  0 
    1.3991   -0.5454    0.9412 H   0  0  0  0  0  0  0  0  0  0  0  0 
    1.6308   -1.5453   -0.4855 H   0  0  0  0  0  0  0  0  0  0  0  0 
    2.1615    8.3447   -5.6127 H   0  0  0  0  0  0  0  0  0  0  0  0 
    2.3581    1.8671    0.9410 H   0  0  0  0  0  0  0  0  0  0  0  0 
    2.7884    3.8379   -0.5254 H   0  0  0  0  0  0  0  0  0  0  0  0 
    3.2808    4.7250   -2.7148 H   0  0  0  0  0  0  0  0  0  0  0  0 
    3.9251    3.5820   -3.9108 H   0  0  0  0  0  0  0  0  0  0  0  0 
    0.9820    4.3726   -3.5982 H   0  0  0  0  0  0  0  0  0  0  0  0 
    1.6106    3.1517   -4.7438 H   0  0  0  0  0  0  0  0  0  0  0  0 
    2.3452   -0.5652   -2.5997 H   0  0  0  0  0  0  0  0  0  0  0  0 
  1 16  1  0  0  0  0 
  1 17  1  0  0  0  0 
  2  4  2  0  0  0  0 
  3  1  1  0  0  0  0 
  3 21  1  0  0  0  0 
  4 23  1  0  0  0  0 
  4 12  1  0  0  0  0 
  5 24  1  0  0  0  0 
  6 25  1  0  0  0  0 
  6  5  2  0  0  0  0 
  7 26  1  0  0  0  0 
  7 11  1  0  0  0  0 
  8 28  1  0  0  0  0 
  8  7  1  0  0  0  0 
  9 10  2  0  0  0  0 
 10  5  1  0  0  0  0 
 10  3  1  0  0  0  0 
 11  6  1  0  0  0  0 
 12 14  2  0  0  0  0 
 13 11  2  0  0  0  0 
 13  9  1  0  0  0  0 
 15 12  1  0  0  0  0 
 15  8  1  0  0  0  0 
 18  1  1  0  0  0  0 
 19  2  1  0  0  0  0 
 20  2  1  0  0  0  0 
 22  3  1  0  0  0  0 
 27  7  1  0  0  0  0 
 29  8  1  0  0  0  0 
 30  9  1  0  0  0  0 
M  END 
>  <HBA> 
3 
 
>  <HBD> 
0 
 
>  <TPSA> 
39.19 
 
>  <cid> 
31232 
 
>  <dipole> 
1.51 
 
>  <excitation_energy_1> 
4.701 
 
>  <excitation_energy_2> 
4.827 
 
>  <excitation_energy_3> 
4.898 
 
>  <excitation_energy_4> 
5.073 
 
>  <homo_energy> 
-6.697 
 
>  <homo_lumo_gap> 
5.519 
 
>  <logP> 
1.916 
 
>  <lumo_energy> 
-1.178 
 
>  <melting_point> 
16.02 
 
>  <molecular_refractivity> 
59.02 
 
>  <oscillator_strength_1> 
0.0001 
 
>  <oscillator_strength_2> 
0.0074 
 
>  <oscillator_strength_3> 
0.0195 
 
>  <oscillator_strength_4> 
0.0024 
 
>  <open_babel_can_smiles> 
C=CC(=O)OCCc1ccc(cn1)CC 
 
>  <mulliken_charges> 
30 
1   -0.435197 
2   -0.311057 
3   -0.345834 
4   -0.13027 
5   -0.147537 
6   -0.171816 
7   -0.34093 
8   -0.046542 
9   -0.015102 
10   0.158013 
11   0.288506 
12   0.611705 
13   -0.468636 
14   -0.491596 
15   -0.476497 
16   0.148102 
17   0.149426 
18   0.153425 
19   0.157251 
20   0.17751 
21   0.148109 
22   0.148584 
23   0.157167 
24   0.136118 
25   0.141417 
26   0.165267 
27   0.165442 
28   0.167222 
29   0.174398 
30   0.133352 
 
>  <lowdin_charges> 
30 
1   -0.442682 
2   -0.275503 
3   -0.272488 
4   -0.176922 
5   -0.134489 
6   -0.178803 
7   -0.288615 
8   -0.130106 
9   -0.099884 
10   -0.021824 
11   0.047309 
12   0.193755 
13   -0.160106 
14   -0.271199 
15   -0.192591 
16   0.152271 
17   0.151802 
18   0.1537 
19   0.169432 
20   0.175564 
21   0.152355 
22   0.153064 
23   0.172269 
24   0.158114 
25   0.165071 
26   0.161061 
27   0.164769 
28   0.158225 
29   0.164193 
30   0.152258 
 
$$$$ 
 
