PCCDB-ID:  62497 
public computational chemistry database (PCCDB) project, http://pccdb.org 
 
 21 20  0  0  0  0  0  0  0  0999 V2000 
    0.4791   -1.9063    0.5701 C   0  0  0  0  0  0  0  0  0  0  0  0 
    8.0306   -4.0997    1.8704 C   0  0  0  0  0  0  0  0  0  0  0  0 
    1.9373   -1.9841    1.0322 C   0  0  0  0  0  0  0  0  0  0  0  0 
    6.8551   -4.0655    1.2529 C   0  0  0  0  0  0  0  0  0  0  0  0 
    2.9199   -1.4343   -0.0106 C   0  0  0  0  0  0  0  0  0  0  0  0 
    4.3854   -1.4798    0.4346 C   0  0  0  0  0  0  0  0  0  0  0  0 
    4.9568   -2.8809    0.4916 C   0  0  0  0  0  0  0  0  0  0  0  0 
    4.4599   -3.8771    0.0205 O   0  0  0  0  0  0  0  0  0  0  0  0 
    6.1632   -2.8705    1.1426 O   0  0  0  0  0  0  0  0  0  0  0  0 
   -0.2016   -2.3036    1.3315 H   0  0  0  0  0  0  0  0  0  0  0  0 
    0.3248   -2.4850   -0.3486 H   0  0  0  0  0  0  0  0  0  0  0  0 
    0.1808   -0.8708    0.3639 H   0  0  0  0  0  0  0  0  0  0  0  0 
    8.5675   -5.0375    1.9537 H   0  0  0  0  0  0  0  0  0  0  0  0 
    8.4779   -3.2100    2.3014 H   0  0  0  0  0  0  0  0  0  0  0  0 
    2.1954   -3.0263    1.2556 H   0  0  0  0  0  0  0  0  0  0  0  0 
    2.0548   -1.4231    1.9709 H   0  0  0  0  0  0  0  0  0  0  0  0 
    6.3558   -4.9146    0.8012 H   0  0  0  0  0  0  0  0  0  0  0  0 
    2.6620   -0.3915   -0.2384 H   0  0  0  0  0  0  0  0  0  0  0  0 
    2.8140   -1.9979   -0.9453 H   0  0  0  0  0  0  0  0  0  0  0  0 
    4.5252   -1.0101    1.4161 H   0  0  0  0  0  0  0  0  0  0  0  0 
    5.0206   -0.9099   -0.2582 H   0  0  0  0  0  0  0  0  0  0  0  0 
  1  3  1  0  0  0  0 
  1 10  1  0  0  0  0 
  2 13  1  0  0  0  0 
  2 14  1  0  0  0  0 
  3 15  1  0  0  0  0 
  3 16  1  0  0  0  0 
  4  2  2  0  0  0  0 
  5  6  1  0  0  0  0 
  5  3  1  0  0  0  0 
  6  7  1  0  0  0  0 
  6 20  1  0  0  0  0 
  7  9  1  0  0  0  0 
  8  7  2  0  0  0  0 
  9  4  1  0  0  0  0 
 11  1  1  0  0  0  0 
 12  1  1  0  0  0  0 
 17  4  1  0  0  0  0 
 18  5  1  0  0  0  0 
 19  5  1  0  0  0  0 
 21  6  1  0  0  0  0 
M  END 
>  <HBA> 
2 
 
>  <HBD> 
0 
 
>  <TPSA> 
26.3 
 
>  <cid> 
62497 
 
>  <dipole> 
1.45 
 
>  <excitation_energy_1> 
5.661 
 
>  <excitation_energy_2> 
5.911 
 
>  <excitation_energy_3> 
6.468 
 
>  <excitation_energy_4> 
6.849 
 
>  <homo_energy> 
-6.773 
 
>  <homo_lumo_gap> 
6.512 
 
>  <logP> 
1.863 
 
>  <lumo_energy> 
-0.261 
 
>  <melting_point> 
-35.38 
 
>  <molecular_refractivity> 
36.57 
 
>  <oscillator_strength_1> 
0.0006 
 
>  <oscillator_strength_2> 
0.3231 
 
>  <oscillator_strength_3> 
0.0424 
 
>  <oscillator_strength_4> 
0.0289 
 
>  <open_babel_can_smiles> 
CCCCC(=O)OC=C 
 
>  <mulliken_charges> 
21 
1   -0.443321 
2   -0.388275 
3   -0.254882 
4   0.154727 
5   -0.246378 
6   -0.370803 
7   0.632236 
8   -0.465554 
9   -0.460421 
10   0.14413 
11   0.147601 
12   0.139528 
13   0.154696 
14   0.155218 
15   0.154957 
16   0.126588 
17   0.182639 
18   0.131835 
19   0.154668 
20   0.172224 
21   0.178587 
 
>  <lowdin_charges> 
21 
1   -0.443714 
2   -0.363938 
3   -0.274889 
4   -0.037201 
5   -0.271247 
6   -0.302825 
7   0.210017 
8   -0.251712 
9   -0.156412 
10   0.151939 
11   0.149623 
12   0.144101 
13   0.172928 
14   0.170289 
15   0.149537 
16   0.136454 
17   0.175183 
18   0.143341 
19   0.154001 
20   0.16818 
21   0.176345 
 
$$$$ 
 
