PCCDB-ID:  11429 
public computational chemistry database (PCCDB) project, http://pccdb.org 
 
 16 15  0  0  1  0  0  0  0  0999 V2000 
    3.0054   -1.0840   -0.9065 C   0  0  0  0  0  0  0  0  0  0  0  0 
    2.4438   -0.0582    0.0828 C   0  0  0  0  0  0  0  0  0  0  0  0 
    2.4762    2.3724    0.8916 C   0  0  0  0  0  0  0  0  0  0  0  0 
    3.0683    1.3303   -0.0611 C   0  0  1  0  0  0  0  0  0  0  0  0 
    3.1319    3.6172    0.7481 O   0  0  0  0  0  0  0  0  0  0  0  0 
    4.4963    1.3070    0.1245 O   0  0  0  0  0  0  0  0  0  0  0  0 
    2.5579   -2.0711   -0.7485 H   0  0  0  0  0  0  0  0  0  0  0  0 
    4.0906   -1.1765   -0.7991 H   0  0  0  0  0  0  0  0  0  0  0  0 
    2.8006   -0.7838   -1.9409 H   0  0  0  0  0  0  0  0  0  0  0  0 
    2.5950   -0.4107    1.1156 H   0  0  0  0  0  0  0  0  0  0  0  0 
    1.3568    0.0343   -0.0476 H   0  0  0  0  0  0  0  0  0  0  0  0 
    2.5514    1.9949    1.9299 H   0  0  0  0  0  0  0  0  0  0  0  0 
    1.4131    2.5325    0.6790 H   0  0  0  0  0  0  0  0  0  0  0  0 
    2.9423    1.6927   -1.0885 H   0  0  0  0  0  0  0  0  0  0  0  0 
    4.0720    3.3901    0.6335 H   0  0  0  0  0  0  0  0  0  0  0  0 
    4.6678    0.8759    0.9795 H   0  0  0  0  0  0  0  0  0  0  0  0 
  1  8  1  0  0  0  0 
  1  7  1  0  0  0  0 
  1  2  1  0  0  0  0 
  2 10  1  0  0  0  0 
  3 12  1  0  0  0  0 
  4 14  1  6  0  0  0 
  4  2  1  0  0  0  0 
  4  6  1  0  0  0  0 
  4  3  1  0  0  0  0 
  5  3  1  0  0  0  0 
  6 16  1  0  0  0  0 
  9  1  1  0  0  0  0 
 11  2  1  0  0  0  0 
 13  3  1  0  0  0  0 
 15  5  1  0  0  0  0 
M  END 
>  <HBA> 
2 
 
>  <HBD> 
2 
 
>  <TPSA> 
40.46 
 
>  <cid> 
11429 
 
>  <dipole> 
2.55 
 
>  <excitation_energy_1> 
6.398 
 
>  <excitation_energy_2> 
7.045 
 
>  <excitation_energy_3> 
7.071 
 
>  <excitation_energy_4> 
7.148 
 
>  <homo_energy> 
-6.955 
 
>  <homo_lumo_gap> 
8.544 
 
>  <logP> 
-0.25 
 
>  <lumo_energy> 
1.589 
 
>  <melting_point> 
12.0 
 
>  <molecular_refractivity> 
23.67 
 
>  <oscillator_strength_1> 
0.0017 
 
>  <oscillator_strength_2> 
0.0056 
 
>  <oscillator_strength_3> 
0.021 
 
>  <oscillator_strength_4> 
0.0266 
 
>  <open_babel_can_smiles> 
CC[C@@H](CO)O 
 
>  <mulliken_charges> 
16 
1   -0.438738 
2   -0.279257 
3   -0.019508 
4   0.099649 
5   -0.624944 
6   -0.6284 
7   0.144916 
8   0.156391 
9   0.148273 
10   0.12394 
11   0.142479 
12   0.10112 
13   0.140368 
14   0.149051 
15   0.397295 
16   0.387365 
 
>  <lowdin_charges> 
16 
1   -0.441002 
2   -0.286163 
3   -0.148748 
4   -0.020089 
5   -0.467304 
6   -0.464989 
7   0.150997 
8   0.152772 
9   0.150003 
10   0.135705 
11   0.148861 
12   0.115799 
13   0.145847 
14   0.148189 
15   0.339934 
16   0.34019 
 
$$$$ 
 
