PCCDB-ID:  61030 
public computational chemistry database (PCCDB) project, http://pccdb.org 
 
 38 37  0  0  0  0  0  0  0  0999 V2000 
    2.6080    1.8204    0.2601 C   0  0  0  0  0  0  0  0  0  0  0  0 
    9.8689   -5.6426   -8.7914 C   0  0  0  0  0  0  0  0  0  0  0  0 
    2.2030    0.3902   -0.1163 C   0  0  0  0  0  0  0  0  0  0  0  0 
    9.3281   -5.3282   -7.3937 C   0  0  0  0  0  0  0  0  0  0  0  0 
    2.7773   -0.1049   -1.4542 C   0  0  0  0  0  0  0  0  0  0  0  0 
    4.3049   -0.2573   -1.4818 C   0  0  0  0  0  0  0  0  0  0  0  0 
    4.8299   -0.8160   -2.8108 C   0  0  0  0  0  0  0  0  0  0  0  0 
    6.3552   -0.9791   -2.8469 C   0  0  0  0  0  0  0  0  0  0  0  0 
    6.8670   -1.5501   -4.1763 C   0  0  0  0  0  0  0  0  0  0  0  0 
    9.3889   -3.8348   -7.0658 C   0  0  0  0  0  0  0  0  0  0  0  0 
    8.3842   -1.7059   -4.1911 C   0  0  0  0  0  0  0  0  0  0  0  0 
    8.8610   -3.5048   -5.6824 C   0  0  0  0  0  0  0  0  0  0  0  0 
    8.4939   -4.3164   -4.8591 O   0  0  0  0  0  0  0  0  0  0  0  0 
    8.8605   -2.1662   -5.4776 O   0  0  0  0  0  0  0  0  0  0  0  0 
    2.1323    2.1301    1.1977 H   0  0  0  0  0  0  0  0  0  0  0  0 
    2.3054    2.5335   -0.5173 H   0  0  0  0  0  0  0  0  0  0  0  0 
    3.6911    1.9170    0.3946 H   0  0  0  0  0  0  0  0  0  0  0  0 
    9.8152   -6.7164   -9.0021 H   0  0  0  0  0  0  0  0  0  0  0  0 
   10.9174   -5.3359   -8.8934 H   0  0  0  0  0  0  0  0  0  0  0  0 
    9.2959   -5.1222   -9.5690 H   0  0  0  0  0  0  0  0  0  0  0  0 
    1.1072    0.3326   -0.1639 H   0  0  0  0  0  0  0  0  0  0  0  0 
    2.5079   -0.2988    0.6845 H   0  0  0  0  0  0  0  0  0  0  0  0 
    9.8922   -5.8839   -6.6359 H   0  0  0  0  0  0  0  0  0  0  0  0 
    8.2907   -5.6721   -7.3051 H   0  0  0  0  0  0  0  0  0  0  0  0 
    2.4665    0.5811   -2.2566 H   0  0  0  0  0  0  0  0  0  0  0  0 
    2.3232   -1.0770   -1.6940 H   0  0  0  0  0  0  0  0  0  0  0  0 
    4.6162   -0.9213   -0.6613 H   0  0  0  0  0  0  0  0  0  0  0  0 
    4.7834    0.7125   -1.2873 H   0  0  0  0  0  0  0  0  0  0  0  0 
    4.5165   -0.1551   -3.6325 H   0  0  0  0  0  0  0  0  0  0  0  0 
    4.3580   -1.7897   -3.0077 H   0  0  0  0  0  0  0  0  0  0  0  0 
    6.6685   -1.6365   -2.0230 H   0  0  0  0  0  0  0  0  0  0  0  0 
    6.8289   -0.0042   -2.6575 H   0  0  0  0  0  0  0  0  0  0  0  0 
    6.5694   -0.8950   -5.0060 H   0  0  0  0  0  0  0  0  0  0  0  0 
    6.4121   -2.5310   -4.3587 H   0  0  0  0  0  0  0  0  0  0  0  0 
    8.8198   -3.2429   -7.7950 H   0  0  0  0  0  0  0  0  0  0  0  0 
   10.4197   -3.4591   -7.1283 H   0  0  0  0  0  0  0  0  0  0  0  0 
    8.7146   -2.4063   -3.4191 H   0  0  0  0  0  0  0  0  0  0  0  0 
    8.8828   -0.7435   -4.0437 H   0  0  0  0  0  0  0  0  0  0  0  0 
  1 17  1  0  0  0  0 
  1 15  1  0  0  0  0 
  2  4  1  0  0  0  0 
  3  1  1  0  0  0  0 
  3 22  1  0  0  0  0 
  4 24  1  0  0  0  0 
  4 10  1  0  0  0  0 
  4 23  1  0  0  0  0 
  5  3  1  0  0  0  0 
  6  5  1  0  0  0  0 
  6 28  1  0  0  0  0 
  6 27  1  0  0  0  0 
  7  6  1  0  0  0  0 
  8  7  1  0  0  0  0 
  8 32  1  0  0  0  0 
  8 31  1  0  0  0  0 
  9  8  1  0  0  0  0 
 10 12  1  0  0  0  0 
 11  9  1  0  0  0  0 
 11 38  1  0  0  0  0 
 11 37  1  0  0  0  0 
 12 14  1  0  0  0  0 
 12 13  2  0  0  0  0 
 14 11  1  0  0  0  0 
 16  1  1  0  0  0  0 
 18  2  1  0  0  0  0 
 19  2  1  0  0  0  0 
 20  2  1  0  0  0  0 
 21  3  1  0  0  0  0 
 25  5  1  0  0  0  0 
 26  5  1  0  0  0  0 
 29  7  1  0  0  0  0 
 30  7  1  0  0  0  0 
 33  9  1  0  0  0  0 
 34  9  1  0  0  0  0 
 35 10  1  0  0  0  0 
 36 10  1  0  0  0  0 
M  END 
>  <HBA> 
2 
 
>  <HBD> 
0 
 
>  <TPSA> 
26.3 
 
>  <cid> 
61030 
 
>  <dipole> 
1.49 
 
>  <excitation_energy_1> 
5.838 
 
>  <excitation_energy_2> 
7.011 
 
>  <excitation_energy_3> 
7.394 
 
>  <excitation_energy_4> 
7.451 
 
>  <homo_energy> 
-7.244 
 
>  <homo_lumo_gap> 
7.742 
 
>  <logP> 
3.69 
 
>  <lumo_energy> 
0.498 
 
>  <melting_point> 
-18.11 
 
>  <molecular_refractivity> 
61.08 
 
>  <oscillator_strength_1> 
0.0005 
 
>  <oscillator_strength_2> 
0.0254 
 
>  <oscillator_strength_3> 
0.0546 
 
>  <oscillator_strength_4> 
0.0526 
 
>  <open_babel_can_smiles> 
CCCCCCCCOC(=O)CCC 
 
>  <mulliken_charges> 
38 
1   -0.443338 
2   -0.446962 
3   -0.248352 
4   -0.242403 
5   -0.249393 
6   -0.254072 
7   -0.252194 
8   -0.264744 
9   -0.278196 
10   -0.354367 
11   -0.043395 
12   0.621787 
13   -0.481531 
14   -0.470722 
15   0.142104 
16   0.14015 
17   0.145678 
18   0.147745 
19   0.141732 
20   0.141627 
21   0.13061 
22   0.129734 
23   0.152825 
24   0.149253 
25   0.125647 
26   0.128008 
27   0.127626 
28   0.131337 
29   0.128724 
30   0.13223 
31   0.136709 
32   0.128309 
33   0.140006 
34   0.159418 
35   0.167337 
36   0.169036 
37   0.165164 
38   0.146874 
 
>  <lowdin_charges> 
38 
1   -0.446632 
2   -0.443125 
3   -0.271474 
4   -0.268263 
5   -0.276089 
6   -0.277275 
7   -0.272691 
8   -0.274695 
9   -0.287034 
10   -0.303214 
11   -0.133487 
12   0.202009 
13   -0.270906 
14   -0.199849 
15   0.149877 
16   0.146424 
17   0.145044 
18   0.151119 
19   0.145197 
20   0.147476 
21   0.139521 
22   0.139498 
23   0.153586 
24   0.149325 
25   0.137722 
26   0.140114 
27   0.138641 
28   0.138741 
29   0.13924 
30   0.139809 
31   0.142818 
32   0.137559 
33   0.145926 
34   0.154775 
35   0.167295 
36   0.16624 
37   0.157247 
38   0.149532 
 
$$$$ 
 
