PCCDB-ID:  36586 
public computational chemistry database (PCCDB) project, http://pccdb.org 
 
 20 20  0  0  0  0  0  0  0  0999 V2000 
    1.7019   -0.0432    1.2652 C   0  0  0  0  0  0  0  0  0  0  0  0 
    4.3836   -0.9589   -1.3609 C   0  0  0  0  0  0  0  0  0  0  0  0 
    2.8435   -2.4063   -0.1767 C   0  0  0  0  0  0  0  0  0  0  0  0 
    2.8241    0.1012    0.2477 C   0  0  0  0  0  0  0  0  0  0  0  0 
    3.3457   -1.1209   -0.4311 C   0  0  0  0  0  0  0  0  0  0  0  0 
    4.8972   -2.0674   -2.0145 C   0  0  0  0  0  0  0  0  0  0  0  0 
    3.3623   -3.5208   -0.8369 C   0  0  0  0  0  0  0  0  0  0  0  0 
    4.4004   -3.3576   -1.7669 C   0  0  0  0  0  0  0  0  0  0  0  0 
    3.2866    1.2052   -0.0074 O   0  0  0  0  0  0  0  0  0  0  0  0 
    5.9126   -2.0267   -2.9436 O   0  0  0  0  0  0  0  0  0  0  0  0 
    2.9164   -4.7956   -0.6336 O   0  0  0  0  0  0  0  0  0  0  0  0 
    4.9068   -4.4399   -2.4092 O   0  0  0  0  0  0  0  0  0  0  0  0 
    1.9909   -0.7125    2.0841 H   0  0  0  0  0  0  0  0  0  0  0  0 
    0.8005   -0.4608    0.8006 H   0  0  0  0  0  0  0  0  0  0  0  0 
    1.4716    0.9434    1.6707 H   0  0  0  0  0  0  0  0  0  0  0  0 
    4.7626    0.0418   -1.5479 H   0  0  0  0  0  0  0  0  0  0  0  0 
    2.0402   -2.5537    0.5404 H   0  0  0  0  0  0  0  0  0  0  0  0 
    6.2000   -1.1096   -3.0674 H   0  0  0  0  0  0  0  0  0  0  0  0 
    2.2061   -4.7730    0.0259 H   0  0  0  0  0  0  0  0  0  0  0  0 
    5.6050   -4.1169   -3.0055 H   0  0  0  0  0  0  0  0  0  0  0  0 
  1 15  1  0  0  0  0 
  1 13  1  0  0  0  0 
  2  5  2  0  0  0  0 
  3 17  1  0  0  0  0 
  4  1  1  0  0  0  0 
  5  3  1  0  0  0  0 
  5  4  1  0  0  0  0 
  6  8  2  0  0  0  0 
  6  2  1  0  0  0  0 
  7 11  1  0  0  0  0 
  7  3  2  0  0  0  0 
  8  7  1  0  0  0  0 
  9  4  2  0  0  0  0 
 10  6  1  0  0  0  0 
 11 19  1  0  0  0  0 
 12  8  1  0  0  0  0 
 14  1  1  0  0  0  0 
 16  2  1  0  0  0  0 
 18 10  1  0  0  0  0 
 20 12  1  0  0  0  0 
M  END 
>  <HBA> 
4 
 
>  <HBD> 
3 
 
>  <TPSA> 
77.76 
 
>  <cid> 
36586 
 
>  <dipole> 
0.79 
 
>  <excitation_energy_1> 
3.846 
 
>  <excitation_energy_2> 
4.17 
 
>  <excitation_energy_3> 
4.33 
 
>  <excitation_energy_4> 
4.829 
 
>  <homo_energy> 
-5.834 
 
>  <homo_lumo_gap> 
4.542 
 
>  <logP> 
1.006 
 
>  <lumo_energy> 
-1.293 
 
>  <melting_point> 
161.14 
 
>  <molecular_refractivity> 
42.71 
 
>  <oscillator_strength_1> 
0.0001 
 
>  <oscillator_strength_2> 
0.0921 
 
>  <oscillator_strength_3> 
0.1663 
 
>  <oscillator_strength_4> 
0.0008 
 
>  <open_babel_can_smiles> 
CC(=O)c1cc(O)c(c(c1)O)O 
 
>  <mulliken_charges> 
20 
1   -0.542808 
2   -0.244554 
3   -0.26806 
4   0.40388 
5   0.072289 
6   0.319086 
7   0.321163 
8   0.293095 
9   -0.463689 
10   -0.683043 
11   -0.633015 
12   -0.632755 
13   0.167493 
14   0.168784 
15   0.181346 
16   0.154187 
17   0.121252 
18   0.423411 
19   0.409937 
20   0.432 
 
>  <lowdin_charges> 
20 
1   -0.477594 
2   -0.196256 
3   -0.2154 
4   0.16147 
5   -0.052896 
6   0.064883 
7   0.079139 
8   0.066365 
9   -0.254283 
10   -0.397276 
11   -0.366956 
12   -0.355155 
13   0.16828 
14   0.169035 
15   0.174724 
16   0.174884 
17   0.158398 
18   0.368177 
19   0.360564 
20   0.369899 
 
$$$$ 
 
