PCCDB-ID:  68092 
public computational chemistry database (PCCDB) project, http://pccdb.org 
 
 20 21  0  0  0  0  0  0  0  0999 V2000 
    2.4643    0.8951   -0.0349 C   0  0  0  0  0  0  0  0  0  0  0  0 
    2.5614   -0.5172    0.0064 C   0  0  0  0  0  0  0  0  0  0  0  0 
    1.2311    1.5024   -0.0427 C   0  0  0  0  0  0  0  0  0  0  0  0 
    1.4308   -1.3013    0.0460 C   0  0  0  0  0  0  0  0  0  0  0  0 
   -1.2455    1.3079   -0.0292 C   0  0  0  0  0  0  0  0  0  0  0  0 
   -2.3552    0.4959   -0.0169 C   0  0  0  0  0  0  0  0  0  0  0  0 
    0.0437    0.7232   -0.0080 C   0  0  0  0  0  0  0  0  0  0  0  0 
    0.1380   -0.7068    0.0456 C   0  0  0  0  0  0  0  0  0  0  0  0 
   -1.1006   -1.4307    0.0590 C   0  0  0  0  0  0  0  0  0  0  0  0 
   -1.1856   -2.9392    0.0850 C   0  0  0  0  0  0  0  0  0  0  0  0 
   -2.2892   -0.8561    0.0150 N   0  0  0  0  0  0  0  0  0  0  0  0 
   -0.2803   -3.5109    0.9253 O   0  0  0  0  0  0  0  0  0  0  0  0 
   -1.9847   -3.5916   -0.5426 O   0  0  0  0  0  0  0  0  0  0  0  0 
    3.3691    1.4959   -0.0636 H   0  0  0  0  0  0  0  0  0  0  0  0 
    3.5413   -0.9862    0.0075 H   0  0  0  0  0  0  0  0  0  0  0  0 
    1.1445    2.5853   -0.0809 H   0  0  0  0  0  0  0  0  0  0  0  0 
    1.5202   -2.3792    0.0863 H   0  0  0  0  0  0  0  0  0  0  0  0 
   -1.3497    2.3892   -0.0629 H   0  0  0  0  0  0  0  0  0  0  0  0 
   -3.3582    0.9155   -0.0371 H   0  0  0  0  0  0  0  0  0  0  0  0 
   -0.4469   -4.4715    0.8693 H   0  0  0  0  0  0  0  0  0  0  0  0 
  1  2  1  0  0  0  0 
  2 15  1  0  0  0  0 
  2  4  2  0  0  0  0 
  3  1  2  0  0  0  0 
  3  7  1  0  0  0  0 
  4 17  1  0  0  0  0 
  5  6  2  0  0  0  0 
  5  7  1  0  0  0  0 
  6 11  1  0  0  0  0 
  7  8  2  0  0  0  0 
  8  4  1  0  0  0  0 
  8  9  1  0  0  0  0 
  9 10  1  0  0  0  0 
 10 12  1  0  0  0  0 
 11  9  2  0  0  0  0 
 13 10  2  0  0  0  0 
 14  1  1  0  0  0  0 
 16  3  1  0  0  0  0 
 18  5  1  0  0  0  0 
 19  6  1  0  0  0  0 
 20 12  1  0  0  0  0 
M  END 
>  <HBA> 
3 
 
>  <HBD> 
1 
 
>  <TPSA> 
50.19 
 
>  <cid> 
68092 
 
>  <dipole> 
3.98 
 
>  <excitation_energy_1> 
4.003 
 
>  <excitation_energy_2> 
4.043 
 
>  <excitation_energy_3> 
4.487 
 
>  <excitation_energy_4> 
4.686 
 
>  <homo_energy> 
-6.422 
 
>  <homo_lumo_gap> 
4.533 
 
>  <logP> 
1.933 
 
>  <lumo_energy> 
-1.888 
 
>  <melting_point> 
155.49 
 
>  <molecular_refractivity> 
48.7 
 
>  <oscillator_strength_1> 
0.0503 
 
>  <oscillator_strength_2> 
0.0519 
 
>  <oscillator_strength_3> 
0.0006 
 
>  <oscillator_strength_4> 
0.0008 
 
>  <open_babel_can_smiles> 
OC(=O)c1nccc2c1cccc2 
 
>  <mulliken_charges> 
20 
1   -0.125804 
2   -0.134938 
3   -0.183405 
4   -0.176512 
5   -0.189903 
6   0.026356 
7   0.147209 
8   0.104462 
9   0.183493 
10   0.521837 
11   -0.455332 
12   -0.566227 
13   -0.4331 
14   0.141119 
15   0.140185 
16   0.139368 
17   0.159519 
18   0.141775 
19   0.148479 
20   0.411418 
 
>  <lowdin_charges> 
20 
1   -0.143333 
2   -0.151746 
3   -0.153453 
4   -0.145663 
5   -0.158002 
6   -0.097264 
7   0.014192 
8   -0.013949 
9   0.021147 
10   0.192293 
11   -0.120171 
12   -0.356259 
13   -0.234528 
14   0.164361 
15   0.163275 
16   0.160614 
17   0.172239 
18   0.164464 
19   0.161669 
20   0.360114 
 
$$$$ 
 
