PCCDB-ID:  47796 
public computational chemistry database (PCCDB) project, http://pccdb.org 
 
 21 21  0  0  1  0  0  0  0  0999 V2000 
    1.5001    0.0324   -0.5951 C   0  0  0  0  0  0  0  0  0  0  0  0 
    2.9749    0.1026   -0.1831 C   0  0  0  0  0  0  0  0  0  0  0  0 
    4.6703   -0.3766    1.7916 C   0  0  0  0  0  0  0  0  0  0  0  0 
    2.9863   -1.7531    1.7174 C   0  0  0  0  0  0  0  0  0  0  0  0 
    3.2068   -0.2755    1.2760 C   0  0  2  0  0  0  0  0  0  0  0  0 
    4.2628   -1.6650    2.5867 C   0  0  2  0  0  0  0  0  0  0  0  0 
    3.9865   -1.3832    4.0542 C   0  0  0  0  0  0  0  0  0  0  0  0 
    2.8944   -1.2833    4.5558 O   0  0  0  0  0  0  0  0  0  0  0  0 
    5.1022   -1.2096    4.8210 O   0  0  0  0  0  0  0  0  0  0  0  0 
    1.3689    0.2911   -1.6517 H   0  0  0  0  0  0  0  0  0  0  0  0 
    0.8904    0.7251   -0.0026 H   0  0  0  0  0  0  0  0  0  0  0  0 
    1.0943   -0.9753   -0.4459 H   0  0  0  0  0  0  0  0  0  0  0  0 
    3.3588    1.1179   -0.3585 H   0  0  0  0  0  0  0  0  0  0  0  0 
    3.5692   -0.5645   -0.8251 H   0  0  0  0  0  0  0  0  0  0  0  0 
    5.0704    0.4670    2.3651 H   0  0  0  0  0  0  0  0  0  0  0  0 
    5.3720   -0.6161    0.9849 H   0  0  0  0  0  0  0  0  0  0  0  0 
    3.1173   -2.4524    0.8841 H   0  0  0  0  0  0  0  0  0  0  0  0 
    2.0657   -1.9896    2.2548 H   0  0  0  0  0  0  0  0  0  0  0  0 
    2.6285    0.3898    1.9293 H   0  0  0  0  0  0  0  0  0  0  0  0 
    4.9651   -2.5057    2.5137 H   0  0  0  0  0  0  0  0  0  0  0  0 
    5.8962   -1.3122    4.2704 H   0  0  0  0  0  0  0  0  0  0  0  0 
  1 12  1  0  0  0  0 
  1  2  1  0  0  0  0 
  1 11  1  0  0  0  0 
  2  5  1  0  0  0  0 
  3 15  1  0  0  0  0 
  3  6  1  0  0  0  0 
  4 18  1  0  0  0  0 
  4  6  1  0  0  0  0 
  5  4  1  0  0  0  0 
  5  3  1  0  0  0  0 
  5 19  1  1  0  0  0 
  6 20  1  6  0  0  0 
  6  7  1  0  0  0  0 
  7  8  2  0  0  0  0 
  7  9  1  0  0  0  0 
 10  1  1  0  0  0  0 
 13  2  1  0  0  0  0 
 14  2  1  0  0  0  0 
 16  3  1  0  0  0  0 
 17  4  1  0  0  0  0 
 21  9  1  0  0  0  0 
M  END 
>  <HBA> 
2 
 
>  <HBD> 
1 
 
>  <TPSA> 
37.3 
 
>  <cid> 
47796 
 
>  <dipole> 
4.18 
 
>  <excitation_energy_1> 
5.611 
 
>  <excitation_energy_2> 
6.385 
 
>  <excitation_energy_3> 
7.057 
 
>  <excitation_energy_4> 
7.161 
 
>  <homo_energy> 
-7.266 
 
>  <homo_lumo_gap> 
7.513 
 
>  <logP> 
1.507 
 
>  <lumo_energy> 
0.248 
 
>  <melting_point> 
72.51 
 
>  <molecular_refractivity> 
35.42 
 
>  <oscillator_strength_1> 
0.0017 
 
>  <oscillator_strength_2> 
0.0087 
 
>  <oscillator_strength_3> 
0.0052 
 
>  <oscillator_strength_4> 
0.0138 
 
>  <open_babel_can_smiles> 
CC[C@@H]1C[C@H](C1)C(=O)O 
 
>  <mulliken_charges> 
21 
1   -0.446039 
2   -0.259695 
3   -0.297416 
4   -0.272095 
5   -0.068678 
6   -0.250917 
7   0.601544 
8   -0.439602 
9   -0.570399 
10   0.14466 
11   0.147461 
12   0.149588 
13   0.134647 
14   0.124417 
15   0.149684 
16   0.144126 
17   0.133577 
18   0.173531 
19   0.145499 
20   0.14693 
21   0.409177 
 
>  <lowdin_charges> 
21 
1   -0.444194 
2   -0.274579 
3   -0.288463 
4   -0.283912 
5   -0.12603 
6   -0.179444 
7   0.194098 
8   -0.239708 
9   -0.361126 
10   0.149804 
11   0.151024 
12   0.149223 
13   0.142487 
14   0.137652 
15   0.148007 
16   0.150811 
17   0.148014 
18   0.163881 
19   0.15218 
20   0.151773 
21   0.358504 
 
$$$$ 
 
