PCCDB-ID:  15420 
public computational chemistry database (PCCDB) project, http://pccdb.org 
 
 25 25  0  0  0  0  0  0  0  0999 V2000 
    0.8546   -0.2877   -0.0652 C   0  0  0  0  0  0  0  0  0  0  0  0 
    2.3794   -0.1793    0.0406 C   0  0  0  0  0  0  0  0  0  0  0  0 
    2.8394    0.8721    1.0578 C   0  0  0  0  0  0  0  0  0  0  0  0 
    4.3730    0.9875    1.1642 C   0  0  0  0  0  0  0  0  0  0  0  0 
    5.0386    1.6700    3.5179 C   0  0  0  0  0  0  0  0  0  0  0  0 
    5.0204    3.3573    1.8164 C   0  0  0  0  0  0  0  0  0  0  0  0 
    5.4202    2.6205    4.4654 C   0  0  0  0  0  0  0  0  0  0  0  0 
    5.4009    4.3200    2.7470 C   0  0  0  0  0  0  0  0  0  0  0  0 
    4.8286    2.0155    2.1781 C   0  0  0  0  0  0  0  0  0  0  0  0 
    5.6018    3.9520    4.0811 C   0  0  0  0  0  0  0  0  0  0  0  0 
    5.9790    4.9336    4.9593 O   0  0  0  0  0  0  0  0  0  0  0  0 
    0.5570   -1.0482   -0.7962 H   0  0  0  0  0  0  0  0  0  0  0  0 
    0.4103    0.6657   -0.3764 H   0  0  0  0  0  0  0  0  0  0  0  0 
    0.4089   -0.5601    0.8994 H   0  0  0  0  0  0  0  0  0  0  0  0 
    2.7989    0.0628   -0.9465 H   0  0  0  0  0  0  0  0  0  0  0  0 
    2.7982   -1.1579    0.3158 H   0  0  0  0  0  0  0  0  0  0  0  0 
    2.4277    0.6316    2.0482 H   0  0  0  0  0  0  0  0  0  0  0  0 
    2.4232    1.8530    0.7876 H   0  0  0  0  0  0  0  0  0  0  0  0 
    4.7799    1.2400    0.1755 H   0  0  0  0  0  0  0  0  0  0  0  0 
    4.7863    0.0035    1.4247 H   0  0  0  0  0  0  0  0  0  0  0  0 
    4.9059    0.6367    3.8320 H   0  0  0  0  0  0  0  0  0  0  0  0 
    4.8721    3.6558    0.7805 H   0  0  0  0  0  0  0  0  0  0  0  0 
    5.5819    2.3254    5.5012 H   0  0  0  0  0  0  0  0  0  0  0  0 
    5.5519    5.3557    2.4587 H   0  0  0  0  0  0  0  0  0  0  0  0 
    6.0839    4.5413    5.8398 H   0  0  0  0  0  0  0  0  0  0  0  0 
  1  2  1  0  0  0  0 
  1 14  1  0  0  0  0 
  2 16  1  0  0  0  0 
  2  3  1  0  0  0  0 
  3  4  1  0  0  0  0 
  3 17  1  0  0  0  0 
  4 20  1  0  0  0  0 
  4  9  1  0  0  0  0 
  5 21  1  0  0  0  0 
  5  7  2  0  0  0  0 
  6  9  2  0  0  0  0 
  6  8  1  0  0  0  0 
  7 23  1  0  0  0  0 
  8 10  2  0  0  0  0 
  9  5  1  0  0  0  0 
 10  7  1  0  0  0  0 
 10 11  1  0  0  0  0 
 11 25  1  0  0  0  0 
 12  1  1  0  0  0  0 
 13  1  1  0  0  0  0 
 15  2  1  0  0  0  0 
 18  3  1  0  0  0  0 
 19  4  1  0  0  0  0 
 22  6  1  0  0  0  0 
 24  8  1  0  0  0  0 
M  END 
>  <HBA> 
1 
 
>  <HBD> 
1 
 
>  <TPSA> 
20.23 
 
>  <cid> 
15420 
 
>  <dipole> 
1.36 
 
>  <excitation_energy_1> 
4.932 
 
>  <excitation_energy_2> 
5.061 
 
>  <excitation_energy_3> 
5.494 
 
>  <excitation_energy_4> 
5.688 
 
>  <homo_energy> 
-5.736 
 
>  <homo_lumo_gap> 
5.81 
 
>  <logP> 
2.735 
 
>  <lumo_energy> 
0.073 
 
>  <melting_point> 
46.13 
 
>  <molecular_refractivity> 
47.85 
 
>  <oscillator_strength_1> 
0.033 
 
>  <oscillator_strength_2> 
0.0003 
 
>  <oscillator_strength_3> 
0.05 
 
>  <oscillator_strength_4> 
0.0465 
 
>  <open_babel_can_smiles> 
CCCCc1ccc(cc1)O 
 
>  <mulliken_charges> 
25 
1   -0.441425 
2   -0.246024 
3   -0.239867 
4   -0.349667 
5   -0.187931 
6   -0.187747 
7   -0.192895 
8   -0.157342 
9   0.172139 
10   0.346569 
11   -0.645078 
12   0.141699 
13   0.142532 
14   0.141973 
15   0.130377 
16   0.129809 
17   0.132211 
18   0.133344 
19   0.13746 
20   0.136372 
21   0.122413 
22   0.123101 
23   0.115273 
24   0.137111 
25   0.405593 
 
>  <lowdin_charges> 
25 
1   -0.44502 
2   -0.272426 
3   -0.272067 
4   -0.271487 
5   -0.155537 
6   -0.153817 
7   -0.212732 
8   -0.184062 
9   -0.020137 
10   0.097504 
11   -0.380958 
12   0.150153 
13   0.146942 
14   0.14654 
15   0.138322 
16   0.138125 
17   0.140097 
18   0.140787 
19   0.145721 
20   0.145185 
21   0.153474 
22   0.153957 
23   0.150362 
24   0.164946 
25   0.356128 
 
$$$$ 
 
