PCCDB-ID:  7675 
public computational chemistry database (PCCDB) project, http://pccdb.org 
 
 18 18  0  0  0  0  0  0  0  0999 V2000 
   -1.4504   -0.2927    0.0270 C   0  0  0  0  0  0  0  0  0  0  0  0 
   -0.5859   -1.3870    0.0305 C   0  0  0  0  0  0  0  0  0  0  0  0 
   -0.9131    0.9902   -0.0439 C   0  0  0  0  0  0  0  0  0  0  0  0 
    1.1153    2.5215   -0.2179 C   0  0  0  0  0  0  0  0  0  0  0  0 
    0.7833   -1.1380   -0.0348 C   0  0  0  0  0  0  0  0  0  0  0  0 
    2.4269    2.6548    0.5769 C   0  0  0  0  0  0  0  0  0  0  0  0 
    0.4770    1.1518   -0.1171 C   0  0  0  0  0  0  0  0  0  0  0  0 
    1.3076    0.0909   -0.1110 N   0  0  0  0  0  0  0  0  0  0  0  0 
    3.4775    1.8880    0.0258 O   0  0  0  0  0  0  0  0  0  0  0  0 
   -2.5263   -0.4356    0.0833 H   0  0  0  0  0  0  0  0  0  0  0  0 
   -0.9581   -2.4053    0.0849 H   0  0  0  0  0  0  0  0  0  0  0  0 
   -1.5589    1.8635   -0.0416 H   0  0  0  0  0  0  0  0  0  0  0  0 
    1.3420    2.7351   -1.2722 H   0  0  0  0  0  0  0  0  0  0  0  0 
    0.3976    3.2822    0.1144 H   0  0  0  0  0  0  0  0  0  0  0  0 
    1.4969   -1.9598   -0.0273 H   0  0  0  0  0  0  0  0  0  0  0  0 
    2.2392    2.3916    1.6327 H   0  0  0  0  0  0  0  0  0  0  0  0 
    2.7530    3.7007    0.5562 H   0  0  0  0  0  0  0  0  0  0  0  0 
    3.1122    0.9837   -0.0475 H   0  0  0  0  0  0  0  0  0  0  0  0 
  1  2  1  0  0  0  0 
  1 10  1  0  0  0  0 
  2 11  1  0  0  0  0 
  3 12  1  0  0  0  0 
  3  1  2  0  0  0  0 
  4  7  1  0  0  0  0 
  4 14  1  0  0  0  0 
  4  6  1  0  0  0  0 
  5 15  1  0  0  0  0 
  5  2  2  0  0  0  0 
  6 16  1  0  0  0  0 
  7  8  2  0  0  0  0 
  7  3  1  0  0  0  0 
  8  5  1  0  0  0  0 
  9  6  1  0  0  0  0 
 13  4  1  0  0  0  0 
 17  6  1  0  0  0  0 
 18  9  1  0  0  0  0 
M  END 
>  <HBA> 
2 
 
>  <HBD> 
1 
 
>  <TPSA> 
33.12 
 
>  <cid> 
7675 
 
>  <dipole> 
4.16 
 
>  <excitation_energy_1> 
4.804 
 
>  <excitation_energy_2> 
5.056 
 
>  <excitation_energy_3> 
5.209 
 
>  <excitation_energy_4> 
5.381 
 
>  <homo_energy> 
-6.553 
 
>  <homo_lumo_gap> 
5.63 
 
>  <logP> 
0.616 
 
>  <lumo_energy> 
-0.922 
 
>  <melting_point> 
40.61 
 
>  <molecular_refractivity> 
35.17 
 
>  <oscillator_strength_1> 
0.0059 
 
>  <oscillator_strength_2> 
0.0044 
 
>  <oscillator_strength_3> 
0.004 
 
>  <oscillator_strength_4> 
0.043 
 
>  <open_babel_can_smiles> 
OCCc1ccccn1 
 
>  <mulliken_charges> 
18 
1   -0.094737 
2   -0.151832 
3   -0.181845 
4   -0.351322 
5   0.052001 
6   -0.014791 
7   0.338081 
8   -0.505477 
9   -0.638818 
10   0.147675 
11   0.143313 
12   0.13968 
13   0.171543 
14   0.13691 
15   0.148657 
16   0.113722 
17   0.136507 
18   0.410733 
 
>  <lowdin_charges> 
18 
1   -0.118753 
2   -0.177805 
3   -0.181545 
4   -0.301259 
5   -0.082217 
6   -0.125257 
7   0.061826 
8   -0.163416 
9   -0.485193 
10   0.163734 
11   0.166177 
12   0.165297 
13   0.16539 
14   0.152695 
15   0.161265 
16   0.120604 
17   0.142407 
18   0.33605 
 
$$$$ 
 
