PCCDB-ID:  31001 
public computational chemistry database (PCCDB) project, http://pccdb.org 
 
 38 37  0  0  0  0  0  0  0  0999 V2000 
    2.8047    0.1457    0.7256 C   0  0  0  0  0  0  0  0  0  0  0  0 
    6.6943   -2.7827   -4.5692 C   0  0  0  0  0  0  0  0  0  0  0  0 
    1.3011   -0.0666    0.4713 C   0  0  0  0  0  0  0  0  0  0  0  0 
    6.5325   -3.4502   -5.9401 C   0  0  0  0  0  0  0  0  0  0  0  0 
    3.6157    0.7537   -0.4281 C   0  0  0  0  0  0  0  0  0  0  0  0 
    5.3529   -2.5191   -3.8756 C   0  0  0  0  0  0  0  0  0  0  0  0 
    4.4315    0.3422   -2.7111 C   0  0  0  0  0  0  0  0  0  0  0  0 
    5.7267   -0.4733   -2.5384 C   0  0  0  0  0  0  0  0  0  0  0  0 
    0.5063    1.1725    0.0709 C   0  0  0  0  0  0  0  0  0  0  0  0 
    7.8530   -3.6785   -6.6661 C   0  0  0  0  0  0  0  0  0  0  0  0 
    3.4516    0.0008   -1.6728 N   0  0  0  0  0  0  0  0  0  0  0  0 
    5.5256   -1.9235   -2.5467 N   0  0  0  0  0  0  0  0  0  0  0  0 
    0.7952    1.4789   -1.2972 O   0  0  0  0  0  0  0  0  0  0  0  0 
    8.4335   -2.4071   -6.9515 O   0  0  0  0  0  0  0  0  0  0  0  0 
    3.2412   -0.8291    0.9778 H   0  0  0  0  0  0  0  0  0  0  0  0 
    2.9331    0.7876    1.6094 H   0  0  0  0  0  0  0  0  0  0  0  0 
    7.2448   -1.8436   -4.6983 H   0  0  0  0  0  0  0  0  0  0  0  0 
    7.3050   -3.4152   -3.9111 H   0  0  0  0  0  0  0  0  0  0  0  0 
    0.8506   -0.4755    1.3855 H   0  0  0  0  0  0  0  0  0  0  0  0 
    1.1582   -0.8250   -0.3086 H   0  0  0  0  0  0  0  0  0  0  0  0 
    5.8895   -2.8355   -6.5849 H   0  0  0  0  0  0  0  0  0  0  0  0 
    6.0304   -4.4223   -5.8297 H   0  0  0  0  0  0  0  0  0  0  0  0 
    4.6747    0.7289   -0.1439 H   0  0  0  0  0  0  0  0  0  0  0  0 
    3.3509    1.8183   -0.5572 H   0  0  0  0  0  0  0  0  0  0  0  0 
    4.8308   -3.4755   -3.7389 H   0  0  0  0  0  0  0  0  0  0  0  0 
    4.7123   -1.9149   -4.5478 H   0  0  0  0  0  0  0  0  0  0  0  0 
    3.9831    0.1014   -3.6828 H   0  0  0  0  0  0  0  0  0  0  0  0 
    4.6737    1.4222   -2.7326 H   0  0  0  0  0  0  0  0  0  0  0  0 
    6.2027   -0.1984   -1.5868 H   0  0  0  0  0  0  0  0  0  0  0  0 
    6.4385   -0.1996   -3.3260 H   0  0  0  0  0  0  0  0  0  0  0  0 
    0.7666    2.0211    0.7243 H   0  0  0  0  0  0  0  0  0  0  0  0 
   -0.5706    0.9771    0.1943 H   0  0  0  0  0  0  0  0  0  0  0  0 
    7.6738   -4.2435   -7.5958 H   0  0  0  0  0  0  0  0  0  0  0  0 
    8.5240   -4.2849   -6.0349 H   0  0  0  0  0  0  0  0  0  0  0  0 
    2.5172    0.2068   -2.0195 H   0  0  0  0  0  0  0  0  0  0  0  0 
    4.6859   -2.0924   -1.9932 H   0  0  0  0  0  0  0  0  0  0  0  0 
    0.3611    2.3153   -1.5221 H   0  0  0  0  0  0  0  0  0  0  0  0 
    9.3080   -2.5594   -7.3393 H   0  0  0  0  0  0  0  0  0  0  0  0 
  1 15  1  0  0  0  0 
  1 16  1  0  0  0  0 
  2 18  1  0  0  0  0 
  2  6  1  0  0  0  0 
  3  1  1  0  0  0  0 
  3 19  1  0  0  0  0 
  4 22  1  0  0  0  0 
  4  2  1  0  0  0  0 
  5 23  1  0  0  0  0 
  5  1  1  0  0  0  0 
  6 25  1  0  0  0  0 
  6 12  1  0  0  0  0 
  7  8  1  0  0  0  0 
  7 11  1  0  0  0  0 
  8 29  1  0  0  0  0 
  9 32  1  0  0  0  0 
  9  3  1  0  0  0  0 
  9 31  1  0  0  0  0 
 10 34  1  0  0  0  0 
 10  4  1  0  0  0  0 
 11  5  1  0  0  0  0 
 12  8  1  0  0  0  0 
 12 36  1  0  0  0  0 
 13  9  1  0  0  0  0 
 14 10  1  0  0  0  0 
 17  2  1  0  0  0  0 
 20  3  1  0  0  0  0 
 21  4  1  0  0  0  0 
 24  5  1  0  0  0  0 
 26  6  1  0  0  0  0 
 27  7  1  0  0  0  0 
 28  7  1  0  0  0  0 
 30  8  1  0  0  0  0 
 33 10  1  0  0  0  0 
 35 11  1  0  0  0  0 
 37 13  1  0  0  0  0 
 38 14  1  0  0  0  0 
M  END 
>  <HBA> 
4 
 
>  <HBD> 
4 
 
>  <TPSA> 
64.52 
 
>  <cid> 
31001 
 
>  <dipole> 
2.33 
 
>  <excitation_energy_1> 
4.919 
 
>  <excitation_energy_2> 
5.204 
 
>  <excitation_energy_3> 
5.229 
 
>  <excitation_energy_4> 
5.333 
 
>  <homo_energy> 
-5.29 
 
>  <homo_lumo_gap> 
6.963 
 
>  <logP> 
0.492 
 
>  <lumo_energy> 
1.674 
 
>  <melting_point> 
62.38 
 
>  <molecular_refractivity> 
58.11 
 
>  <oscillator_strength_1> 
0.007 
 
>  <oscillator_strength_2> 
0.0041 
 
>  <oscillator_strength_3> 
0.0032 
 
>  <oscillator_strength_4> 
0.0014 
 
>  <open_babel_can_smiles> 
OCCCCNCCNCCCCO 
 
>  <mulliken_charges> 
38 
1   -0.254161 
2   -0.244077 
3   -0.278456 
4   -0.266219 
5   -0.117841 
6   -0.129253 
7   -0.140882 
8   -0.135379 
9   -0.033599 
10   -0.031695 
11   -0.57566 
12   -0.548503 
13   -0.620086 
14   -0.616522 
15   0.140212 
16   0.120833 
17   0.155235 
18   0.132239 
19   0.135001 
20   0.158234 
21   0.14084 
22   0.125383 
23   0.135291 
24   0.115 
25   0.122865 
26   0.106256 
27   0.13292 
28   0.107045 
29   0.133713 
30   0.135857 
31   0.121739 
32   0.124166 
33   0.114736 
34   0.115652 
35   0.328129 
36   0.304926 
37   0.395972 
38   0.390087 
 
>  <lowdin_charges> 
38 
1   -0.279173 
2   -0.283943 
3   -0.289034 
4   -0.283443 
5   -0.202016 
6   -0.204838 
7   -0.21926 
8   -0.216672 
9   -0.131541 
10   -0.134521 
11   -0.374706 
12   -0.367463 
13   -0.475366 
14   -0.475838 
15   0.147988 
16   0.137962 
17   0.15007 
18   0.143793 
19   0.150218 
20   0.155362 
21   0.147316 
22   0.141307 
23   0.139906 
24   0.11745 
25   0.137136 
26   0.114588 
27   0.140831 
28   0.118059 
29   0.138238 
30   0.144995 
31   0.127373 
32   0.12791 
33   0.124575 
34   0.125028 
35   0.262391 
36   0.255548 
37   0.346966 
38   0.342805 
 
$$$$ 
 
