PCCDB-ID:  6974 
public computational chemistry database (PCCDB) project, http://pccdb.org 
 
 20 20  0  0  0  0  0  0  0  0999 V2000 
    1.0230   -0.1245    0.2540 C   0  0  0  0  0  0  0  0  0  0  0  0 
    6.8294   -0.0902   -0.7469 C   0  0  0  0  0  0  0  0  0  0  0  0 
    3.2375    1.0509   -0.1743 C   0  0  0  0  0  0  0  0  0  0  0  0 
    4.6112    1.0273   -0.4066 C   0  0  0  0  0  0  0  0  0  0  0  0 
    3.2161   -1.3343   -0.0849 C   0  0  0  0  0  0  0  0  0  0  0  0 
    2.5105   -0.1330   -0.0085 C   0  0  0  0  0  0  0  0  0  0  0  0 
    5.3422   -0.1649   -0.4985 C   0  0  0  0  0  0  0  0  0  0  0  0 
    4.5908   -1.3458   -0.3268 C   0  0  0  0  0  0  0  0  0  0  0  0 
    5.2190   -2.6788   -0.3968 N   0  0  0  0  0  0  0  0  0  0  0  0 
    4.5613   -3.6455   -0.0093 O   0  0  0  0  0  0  0  0  0  0  0  0 
    6.3637   -2.7643   -0.8444 O   0  0  0  0  0  0  0  0  0  0  0  0 
    0.6157    0.8896    0.1989 H   0  0  0  0  0  0  0  0  0  0  0  0 
    0.7924   -0.5233    1.2495 H   0  0  0  0  0  0  0  0  0  0  0  0 
    0.4850   -0.7432   -0.4736 H   0  0  0  0  0  0  0  0  0  0  0  0 
    7.1525    0.9549   -0.7145 H   0  0  0  0  0  0  0  0  0  0  0  0 
    7.0955   -0.5100   -1.7212 H   0  0  0  0  0  0  0  0  0  0  0  0 
    7.3983   -0.6580   -0.0056 H   0  0  0  0  0  0  0  0  0  0  0  0 
    2.7240    2.0078   -0.1189 H   0  0  0  0  0  0  0  0  0  0  0  0 
    5.1445    1.9670   -0.5219 H   0  0  0  0  0  0  0  0  0  0  0  0 
    2.7126   -2.2852    0.0433 H   0  0  0  0  0  0  0  0  0  0  0  0 
  1 13  1  0  0  0  0 
  2 15  1  0  0  0  0 
  2  7  1  0  0  0  0 
  2 17  1  0  0  0  0 
  3 18  1  0  0  0  0 
  3  6  2  0  0  0  0 
  4  3  1  0  0  0  0 
  5  6  1  0  0  0  0 
  5 20  1  0  0  0  0 
  6  1  1  0  0  0  0 
  7  4  2  0  0  0  0 
  7  8  1  0  0  0  0 
  8  5  2  0  0  0  0 
  9  8  1  0  0  0  0 
  9 10  2  0  0  0  0 
 11  9  2  0  0  0  0 
 12  1  1  0  0  0  0 
 14  1  1  0  0  0  0 
 16  2  1  0  0  0  0 
 19  4  1  0  0  0  0 
M  END 
>  <HBA> 
0 
 
>  <HBD> 
0 
 
>  <TPSA> 
45.82 
 
>  <cid> 
6974 
 
>  <dipole> 
4.49 
 
>  <excitation_energy_1> 
3.705 
 
>  <excitation_energy_2> 
3.89 
 
>  <excitation_energy_3> 
4.276 
 
>  <excitation_energy_4> 
4.632 
 
>  <homo_energy> 
-6.972 
 
>  <homo_lumo_gap> 
4.735 
 
>  <logP> 
2.735 
 
>  <lumo_energy> 
-2.237 
 
>  <melting_point> 
51.79 
 
>  <molecular_refractivity> 
45.2 
 
>  <oscillator_strength_1> 
0.0038 
 
>  <oscillator_strength_2> 
0.0319 
 
>  <oscillator_strength_3> 
0.0024 
 
>  <oscillator_strength_4> 
0.1687 
 
>  <open_babel_can_smiles> 
Cc1ccc(c(c1)N(=O)=O)C 
 
>  <mulliken_charges> 
20 
1   -0.529944 
2   -0.501823 
3   -0.15477 
4   -0.196548 
5   -0.204167 
6   0.165713 
7   0.163585 
8   0.214253 
9   0.370949 
10   -0.395279 
11   -0.400167 
12   0.159577 
13   0.173514 
14   0.171323 
15   0.14659 
16   0.186181 
17   0.179107 
18   0.136639 
19   0.138294 
20   0.176973 
 
>  <lowdin_charges> 
20 
1   -0.441862 
2   -0.4385 
3   -0.14443 
4   -0.160969 
5   -0.14652 
6   0.002781 
7   0.020034 
8   -0.005156 
9   0.306307 
10   -0.252853 
11   -0.242883 
12   0.15906 
13   0.166563 
14   0.167432 
15   0.151321 
16   0.175615 
17   0.17377 
18   0.162219 
19   0.163179 
20   0.184892 
 
$$$$ 
 
