PCCDB-ID:  42007 
public computational chemistry database (PCCDB) project, http://pccdb.org 
 
 15 14  0  0  0  0  0  0  0  0999 V2000 
    0.9313    0.0180    0.1361 C   0  0  0  0  0  0  0  0  0  0  0  0 
    2.4618    0.0245    0.0731 C   0  0  0  0  0  0  0  0  0  0  0  0 
    2.9940    0.1374   -1.3564 C   0  0  0  0  0  0  0  0  0  0  0  0 
    4.9219    0.1053   -2.7599 N   0  0  0  0  0  0  0  0  0  0  0  0 
    4.4585    0.2118   -1.3566 N   0  0  0  0  0  0  0  0  0  0  0  0 
    0.5788   -0.0687    1.1697 H   0  0  0  0  0  0  0  0  0  0  0  0 
    0.5123   -0.8222   -0.4308 H   0  0  0  0  0  0  0  0  0  0  0  0 
    0.5127    0.9415   -0.2818 H   0  0  0  0  0  0  0  0  0  0  0  0 
    2.8491   -0.8980    0.5304 H   0  0  0  0  0  0  0  0  0  0  0  0 
    2.8637    0.8556    0.6655 H   0  0  0  0  0  0  0  0  0  0  0  0 
    2.6139    1.0637   -1.8129 H   0  0  0  0  0  0  0  0  0  0  0  0 
    2.6222   -0.6984   -1.9756 H   0  0  0  0  0  0  0  0  0  0  0  0 
    5.9203    0.3238   -2.6983 H   0  0  0  0  0  0  0  0  0  0  0  0 
    4.5363    0.9439   -3.2039 H   0  0  0  0  0  0  0  0  0  0  0  0 
    4.7831   -0.6672   -0.9469 H   0  0  0  0  0  0  0  0  0  0  0  0 
  1  6  1  0  0  0  0 
  2  1  1  0  0  0  0 
  2  9  1  0  0  0  0 
  2 10  1  0  0  0  0 
  3  2  1  0  0  0  0 
  4 13  1  0  0  0  0 
  4  5  1  0  0  0  0 
  5  3  1  0  0  0  0 
  5 15  1  0  0  0  0 
  7  1  1  0  0  0  0 
  8  1  1  0  0  0  0 
 11  3  1  0  0  0  0 
 12  3  1  0  0  0  0 
 14  4  1  0  0  0  0 
M  END 
>  <HBA> 
2 
 
>  <HBD> 
2 
 
>  <TPSA> 
38.05 
 
>  <cid> 
42007 
 
>  <dipole> 
0.4 
 
>  <excitation_energy_1> 
4.793 
 
>  <excitation_energy_2> 
5.299 
 
>  <excitation_energy_3> 
5.539 
 
>  <excitation_energy_4> 
6.009 
 
>  <homo_energy> 
-5.249 
 
>  <homo_lumo_gap> 
7.551 
 
>  <logP> 
0.951 
 
>  <lumo_energy> 
2.302 
 
>  <melting_point> 
56.86 
 
>  <molecular_refractivity> 
22.04 
 
>  <oscillator_strength_1> 
0.0039 
 
>  <oscillator_strength_2> 
0.0137 
 
>  <oscillator_strength_3> 
0.0053 
 
>  <oscillator_strength_4> 
0.0412 
 
>  <open_babel_can_smiles> 
CCCNN 
 
>  <mulliken_charges> 
15 
1   -0.444397 
2   -0.262038 
3   -0.106047 
4   -0.595921 
5   -0.470667 
6   0.146068 
7   0.145097 
8   0.144405 
9   0.129092 
10   0.149318 
11   0.129528 
12   0.127019 
13   0.303226 
14   0.301319 
15   0.304 
 
>  <lowdin_charges> 
15 
1   -0.44344 
2   -0.27732 
3   -0.211261 
4   -0.496414 
5   -0.323151 
6   0.151018 
7   0.149019 
8   0.148202 
9   0.138506 
10   0.149862 
11   0.134931 
12   0.126506 
13   0.251389 
14   0.251675 
15   0.25048 
 
$$$$ 
 
