PCCDB-ID:  18062 
public computational chemistry database (PCCDB) project, http://pccdb.org 
 
 32 32  0  0  0  0  0  0  0  0999 V2000 
    1.1169    0.1957    0.3286 C   0  0  0  0  0  0  0  0  0  0  0  0 
    3.4293    0.0124    1.3619 C   0  0  0  0  0  0  0  0  0  0  0  0 
    2.7223   -5.1008   -4.1393 C   0  0  0  0  0  0  0  0  0  0  0  0 
    5.0302   -5.2849   -3.0961 C   0  0  0  0  0  0  0  0  0  0  0  0 
    2.4929   -2.5483   -0.1315 C   0  0  0  0  0  0  0  0  0  0  0  0 
    3.4389   -1.3366   -1.9719 C   0  0  0  0  0  0  0  0  0  0  0  0 
    2.7055   -3.7519   -0.8028 C   0  0  0  0  0  0  0  0  0  0  0  0 
    3.6514   -2.5401   -2.6434 C   0  0  0  0  0  0  0  0  0  0  0  0 
    2.8538   -1.3207   -0.7010 C   0  0  0  0  0  0  0  0  0  0  0  0 
    3.2900   -3.7677   -2.0739 C   0  0  0  0  0  0  0  0  0  0  0  0 
    2.6181   -0.0115    0.0528 C   0  0  0  0  0  0  0  0  0  0  0  0 
    3.5280   -5.0770   -2.8268 C   0  0  0  0  0  0  0  0  0  0  0  0 
    3.0821    1.0470   -0.7999 O   0  0  0  0  0  0  0  0  0  0  0  0 
    3.0594   -6.1351   -1.9760 O   0  0  0  0  0  0  0  0  0  0  0  0 
    0.7013   -0.6052    0.9486 H   0  0  0  0  0  0  0  0  0  0  0  0 
    0.5650    0.2253   -0.6156 H   0  0  0  0  0  0  0  0  0  0  0  0 
    0.9547    1.1447    0.8575 H   0  0  0  0  0  0  0  0  0  0  0  0 
    3.1393   -0.8005    2.0354 H   0  0  0  0  0  0  0  0  0  0  0  0 
    3.2677    0.9600    1.8938 H   0  0  0  0  0  0  0  0  0  0  0  0 
    4.4965   -0.0845    1.1411 H   0  0  0  0  0  0  0  0  0  0  0  0 
    3.0176   -4.2902   -4.8133 H   0  0  0  0  0  0  0  0  0  0  0  0 
    1.6545   -5.0004   -3.9233 H   0  0  0  0  0  0  0  0  0  0  0  0 
    2.8833   -6.0500   -4.6685 H   0  0  0  0  0  0  0  0  0  0  0  0 
    5.4489   -4.4833   -3.7130 H   0  0  0  0  0  0  0  0  0  0  0  0 
    5.1942   -6.2332   -3.6258 H   0  0  0  0  0  0  0  0  0  0  0  0 
    5.5778   -5.3161   -2.1495 H   0  0  0  0  0  0  0  0  0  0  0  0 
    2.0348   -2.5773    0.8546 H   0  0  0  0  0  0  0  0  0  0  0  0 
    3.7273   -0.3998   -2.4333 H   0  0  0  0  0  0  0  0  0  0  0  0 
    2.4168   -4.6886   -0.3416 H   0  0  0  0  0  0  0  0  0  0  0  0 
    4.1083   -2.5111   -3.6300 H   0  0  0  0  0  0  0  0  0  0  0  0 
    2.9419    1.8775   -0.3193 H   0  0  0  0  0  0  0  0  0  0  0  0 
    3.2095   -6.9663   -2.4522 H   0  0  0  0  0  0  0  0  0  0  0  0 
  1 17  1  0  0  0  0 
  1 15  1  0  0  0  0 
  2 19  1  0  0  0  0 
  2 18  1  0  0  0  0 
  3 22  1  0  0  0  0 
  3 12  1  0  0  0  0 
  4 12  1  0  0  0  0 
  4 26  1  0  0  0  0 
  5 27  1  0  0  0  0 
  6  9  2  0  0  0  0 
  7 29  1  0  0  0  0 
  7  5  2  0  0  0  0 
  8 10  2  0  0  0  0 
  8  6  1  0  0  0  0 
  9  5  1  0  0  0  0 
  9 11  1  0  0  0  0 
 10  7  1  0  0  0  0 
 11  1  1  0  0  0  0 
 11  2  1  0  0  0  0 
 12 10  1  0  0  0  0 
 12 14  1  0  0  0  0 
 13 31  1  0  0  0  0 
 13 11  1  0  0  0  0 
 16  1  1  0  0  0  0 
 20  2  1  0  0  0  0 
 21  3  1  0  0  0  0 
 23  3  1  0  0  0  0 
 24  4  1  0  0  0  0 
 25  4  1  0  0  0  0 
 28  6  1  0  0  0  0 
 30  8  1  0  0  0  0 
 32 14  1  0  0  0  0 
M  END 
>  <HBA> 
2 
 
>  <HBD> 
2 
 
>  <TPSA> 
40.46 
 
>  <cid> 
18062 
 
>  <dipole> 
0.02 
 
>  <excitation_energy_1> 
5.264 
 
>  <excitation_energy_2> 
5.601 
 
>  <excitation_energy_3> 
5.762 
 
>  <excitation_energy_4> 
5.79 
 
>  <homo_energy> 
-6.123 
 
>  <homo_lumo_gap> 
6.324 
 
>  <logP> 
2.141 
 
>  <lumo_energy> 
0.201 
 
>  <melting_point> 
60.46 
 
>  <molecular_refractivity> 
57.69 
 
>  <oscillator_strength_1> 
0.0017 
 
>  <oscillator_strength_2> 
0.0 
 
>  <oscillator_strength_3> 
0.0148 
 
>  <oscillator_strength_4> 
0.1123 
 
>  <open_babel_can_smiles> 
CC(c1ccc(cc1)C(O)(C)C)(O)C 
 
>  <mulliken_charges> 
32 
1   -0.451387 
2   -0.451387 
3   -0.451001 
4   -0.451731 
5   -0.186722 
6   -0.181999 
7   -0.182157 
8   -0.18688 
9   0.129836 
10   0.129982 
11   0.259883 
12   0.259854 
13   -0.649747 
14   -0.649751 
15   0.146635 
16   0.163163 
17   0.126193 
18   0.146988 
19   0.126095 
20   0.163039 
21   0.146774 
22   0.163066 
23   0.126079 
24   0.146821 
25   0.126206 
26   0.163152 
27   0.118402 
28   0.153678 
29   0.153698 
30   0.118395 
31   0.387405 
32   0.387417 
 
>  <lowdin_charges> 
32 
1   -0.454829 
2   -0.45285 
3   -0.452775 
4   -0.454886 
5   -0.16609 
6   -0.161945 
7   -0.161953 
8   -0.166086 
9   -0.012745 
10   -0.012734 
11   0.128158 
12   0.128173 
13   -0.457229 
14   -0.457245 
15   0.154943 
16   0.161224 
17   0.1414 
18   0.155003 
19   0.141257 
20   0.159512 
21   0.15487 
22   0.159536 
23   0.141282 
24   0.155075 
25   0.141373 
26   0.16118 
27   0.150388 
28   0.171691 
29   0.171695 
30   0.150382 
31   0.34211 
32   0.342114 
 
$$$$ 
 
