PCCDB-ID:  38752 
public computational chemistry database (PCCDB) project, http://pccdb.org 
 
 37 38  0  0  0  0  0  0  0  0999 V2000 
    0.9142   -0.4231    0.1400 C   0  0  0  0  0  0  0  0  0  0  0  0 
    0.7970    4.7630    0.7560 C   0  0  0  0  0  0  0  0  0  0  0  0 
    2.8014    5.3674    1.9247 C   0  0  0  0  0  0  0  0  0  0  0  0 
    5.7299   -5.3880   -0.1634 C   0  0  0  0  0  0  0  0  0  0  0  0 
    5.8223   -2.5793   -0.4962 C   0  0  0  0  0  0  0  0  0  0  0  0 
    5.8300   -1.1932   -0.6458 C   0  0  0  0  0  0  0  0  0  0  0  0 
    2.3874    2.4149   -0.4106 C   0  0  0  0  0  0  0  0  0  0  0  0 
    2.6512    3.1946    0.8951 C   0  0  0  0  0  0  0  0  0  0  0  0 
    3.4200   -2.5733   -0.0614 C   0  0  0  0  0  0  0  0  0  0  0  0 
    2.3710   -0.1798   -0.1439 C   0  0  0  0  0  0  0  0  0  0  0  0 
    4.6226   -3.2637   -0.2034 C   0  0  0  0  0  0  0  0  0  0  0  0 
    3.4074   -1.1800   -0.2139 C   0  0  0  0  0  0  0  0  0  0  0  0 
    2.9726    1.0362   -0.3890 C   0  0  0  0  0  0  0  0  0  0  0  0 
    4.6267   -0.5059   -0.5032 C   0  0  0  0  0  0  0  0  0  0  0  0 
    4.3336    0.8420   -0.5884 N   0  0  0  0  0  0  0  0  0  0  0  0 
    2.2439    4.5967    0.8202 N   0  0  0  0  0  0  0  0  0  0  0  0 
    4.5443   -4.6275   -0.0401 O   0  0  0  0  0  0  0  0  0  0  0  0 
    0.7286   -1.4858    0.3243 H   0  0  0  0  0  0  0  0  0  0  0  0 
    0.2706   -0.1262   -0.6990 H   0  0  0  0  0  0  0  0  0  0  0  0 
    0.5632    0.1224    1.0253 H   0  0  0  0  0  0  0  0  0  0  0  0 
    0.5571    5.8288    0.6771 H   0  0  0  0  0  0  0  0  0  0  0  0 
    0.2736    4.3603    1.6466 H   0  0  0  0  0  0  0  0  0  0  0  0 
    0.3908    4.2672   -0.1302 H   0  0  0  0  0  0  0  0  0  0  0  0 
    2.5407    6.4247    1.8033 H   0  0  0  0  0  0  0  0  0  0  0  0 
    3.8937    5.2848    1.9213 H   0  0  0  0  0  0  0  0  0  0  0  0 
    2.4370    5.0392    2.9186 H   0  0  0  0  0  0  0  0  0  0  0  0 
    5.4400   -6.4273    0.0063 H   0  0  0  0  0  0  0  0  0  0  0  0 
    6.4822   -5.0984    0.5839 H   0  0  0  0  0  0  0  0  0  0  0  0 
    6.1725   -5.2981   -1.1656 H   0  0  0  0  0  0  0  0  0  0  0  0 
    6.7532   -3.1231   -0.6044 H   0  0  0  0  0  0  0  0  0  0  0  0 
    6.7579   -0.6723   -0.8682 H   0  0  0  0  0  0  0  0  0  0  0  0 
    2.8014    2.9992   -1.2441 H   0  0  0  0  0  0  0  0  0  0  0  0 
    1.3113    2.3302   -0.5919 H   0  0  0  0  0  0  0  0  0  0  0  0 
    3.7295    3.1765    1.0944 H   0  0  0  0  0  0  0  0  0  0  0  0 
    2.1692    2.6638    1.7407 H   0  0  0  0  0  0  0  0  0  0  0  0 
    2.5191   -3.1362    0.1639 H   0  0  0  0  0  0  0  0  0  0  0  0 
    4.9795    1.5633   -0.8696 H   0  0  0  0  0  0  0  0  0  0  0  0 
  1 18  1  0  0  0  0 
  1 20  1  0  0  0  0 
  2 16  1  0  0  0  0 
  2 22  1  0  0  0  0 
  3 26  1  0  0  0  0 
  4 17  1  0  0  0  0 
  4 27  1  0  0  0  0 
  4 28  1  0  0  0  0 
  5 11  2  0  0  0  0 
  6 14  2  0  0  0  0 
  6  5  1  0  0  0  0 
  7 13  1  0  0  0  0 
  7  8  1  0  0  0  0 
  8 34  1  0  0  0  0 
  8 35  1  0  0  0  0 
  9 36  1  0  0  0  0 
 10  1  1  0  0  0  0 
 11  9  1  0  0  0  0 
 11 17  1  0  0  0  0 
 12 10  1  0  0  0  0 
 12  9  2  0  0  0  0 
 13 10  2  0  0  0  0 
 14 12  1  0  0  0  0 
 15 14  1  0  0  0  0 
 15 13  1  0  0  0  0 
 16  8  1  0  0  0  0 
 16  3  1  0  0  0  0 
 19  1  1  0  0  0  0 
 21  2  1  0  0  0  0 
 23  2  1  0  0  0  0 
 24  3  1  0  0  0  0 
 25  3  1  0  0  0  0 
 29  4  1  0  0  0  0 
 30  5  1  0  0  0  0 
 31  6  1  0  0  0  0 
 32  7  1  0  0  0  0 
 33  7  1  0  0  0  0 
 37 15  1  0  0  0  0 
M  END 
>  <HBA> 
2 
 
>  <HBD> 
1 
 
>  <TPSA> 
28.26 
 
>  <cid> 
38752 
 
>  <dipole> 
2.19 
 
>  <excitation_energy_1> 
4.274 
 
>  <excitation_energy_2> 
4.44 
 
>  <excitation_energy_3> 
4.56 
 
>  <excitation_energy_4> 
4.751 
 
>  <homo_energy> 
-4.931 
 
>  <homo_lumo_gap> 
4.898 
 
>  <logP> 
2.589 
 
>  <lumo_energy> 
-0.033 
 
>  <melting_point> 
111.36 
 
>  <molecular_refractivity> 
72.04 
 
>  <oscillator_strength_1> 
0.0544 
 
>  <oscillator_strength_2> 
0.0038 
 
>  <oscillator_strength_3> 
0.159 
 
>  <oscillator_strength_4> 
0.0007 
 
>  <open_babel_can_smiles> 
COc1ccc2c(c1)c(C)c([nH]2)CCN(C)C 
 
>  <mulliken_charges> 
37 
1   -0.538066 
2   -0.302874 
3   -0.294445 
4   -0.207585 
5   -0.218417 
6   -0.181046 
7   -0.355262 
8   -0.105198 
9   -0.277004 
10   0.038125 
11   0.376169 
12   0.082839 
13   0.28967 
14   0.33014 
15   -0.755822 
16   -0.368557 
17   -0.517617 
18   0.160916 
19   0.153903 
20   0.153193 
21   0.149843 
22   0.118596 
23   0.154455 
24   0.148429 
25   0.14718 
26   0.119866 
27   0.162593 
28   0.144487 
29   0.144499 
30   0.122343 
31   0.118694 
32   0.149552 
33   0.156934 
34   0.133993 
35   0.120142 
36   0.1275 
37   0.317832 
 
>  <lowdin_charges> 
37 
1   -0.440298 
2   -0.358728 
3   -0.351254 
4   -0.277455 
5   -0.219528 
6   -0.182566 
7   -0.281733 
8   -0.19713 
9   -0.19724 
10   -0.077022 
11   0.090752 
12   -0.023186 
13   0.022144 
14   0.021534 
15   -0.216649 
16   -0.185967 
17   -0.212338 
18   0.159324 
19   0.154984 
20   0.154553 
21   0.149928 
22   0.121555 
23   0.151575 
24   0.148161 
25   0.146513 
26   0.120719 
27   0.157364 
28   0.141156 
29   0.139632 
30   0.159877 
31   0.154418 
32   0.155226 
33   0.15739 
34   0.140679 
35   0.122819 
36   0.162711 
37   0.288078 
 
$$$$ 
 
