PCCDB-ID:  22776 
public computational chemistry database (PCCDB) project, http://pccdb.org 
 
 28 29  0  0  0  0  0  0  0  0999 V2000 
    4.0280    1.1553   -1.6324 C   0  0  0  0  0  0  0  0  0  0  0  0 
    0.9451   -5.4691    2.1887 C   0  0  0  0  0  0  0  0  0  0  0  0 
    1.3811   -6.3414    1.1899 C   0  0  0  0  0  0  0  0  0  0  0  0 
    1.2066   -4.0967    2.0825 C   0  0  0  0  0  0  0  0  0  0  0  0 
    5.1300   -2.8392   -4.5145 C   0  0  0  0  0  0  0  0  0  0  0  0 
    5.3834   -1.4697   -4.6339 C   0  0  0  0  0  0  0  0  0  0  0  0 
    2.0754   -5.8436    0.0883 C   0  0  0  0  0  0  0  0  0  0  0  0 
    1.8982   -3.5937    0.9869 C   0  0  0  0  0  0  0  0  0  0  0  0 
    4.4350   -3.3094   -3.4077 C   0  0  0  0  0  0  0  0  0  0  0  0 
    4.9469   -0.5751   -3.6573 C   0  0  0  0  0  0  0  0  0  0  0  0 
    2.3377   -4.4714   -0.0200 C   0  0  0  0  0  0  0  0  0  0  0  0 
    3.9836   -2.4321   -2.4095 C   0  0  0  0  0  0  0  0  0  0  0  0 
    4.2457   -1.0426   -2.5367 C   0  0  0  0  0  0  0  0  0  0  0  0 
    3.0514   -4.0765   -1.1803 N   0  0  0  0  0  0  0  0  0  0  0  0 
    3.2722   -2.8359   -1.2594 N   0  0  0  0  0  0  0  0  0  0  0  0 
    3.7892   -0.2407   -1.5419 O   0  0  0  0  0  0  0  0  0  0  0  0 
    3.5817    1.5893   -0.7361 H   0  0  0  0  0  0  0  0  0  0  0  0 
    3.5529    1.5901   -2.5215 H   0  0  0  0  0  0  0  0  0  0  0  0 
    5.1021    1.3818   -1.6495 H   0  0  0  0  0  0  0  0  0  0  0  0 
    0.4033   -5.8535    3.0489 H   0  0  0  0  0  0  0  0  0  0  0  0 
    1.1809   -7.4064    1.2690 H   0  0  0  0  0  0  0  0  0  0  0  0 
    0.8662   -3.4200    2.8620 H   0  0  0  0  0  0  0  0  0  0  0  0 
    5.4737   -3.5294   -5.2794 H   0  0  0  0  0  0  0  0  0  0  0  0 
    5.9253   -1.0885   -5.4954 H   0  0  0  0  0  0  0  0  0  0  0  0 
    2.4272   -6.4983   -0.7034 H   0  0  0  0  0  0  0  0  0  0  0  0 
    2.1121   -2.5356    0.8846 H   0  0  0  0  0  0  0  0  0  0  0  0 
    4.2192   -4.3645   -3.2812 H   0  0  0  0  0  0  0  0  0  0  0  0 
    5.1528    0.4822   -3.7737 H   0  0  0  0  0  0  0  0  0  0  0  0 
  1 16  1  0  0  0  0 
  1 17  1  0  0  0  0 
  2 20  1  0  0  0  0 
  3 21  1  0  0  0  0 
  3  2  2  0  0  0  0 
  4  2  1  0  0  0  0 
  4 22  1  0  0  0  0 
  5  9  1  0  0  0  0 
  6  5  2  0  0  0  0 
  6 10  1  0  0  0  0 
  7  3  1  0  0  0  0 
  8  4  2  0  0  0  0 
  9 27  1  0  0  0  0 
  9 12  2  0  0  0  0 
 10 13  2  0  0  0  0 
 11  7  2  0  0  0  0 
 11  8  1  0  0  0  0 
 12 15  1  0  0  0  0 
 13 12  1  0  0  0  0 
 13 16  1  0  0  0  0 
 14 11  1  0  0  0  0 
 15 14  1  0  0  0  0 
 18  1  1  0  0  0  0 
 19  1  1  0  0  0  0 
 23  5  1  0  0  0  0 
 24  6  1  0  0  0  0 
 25  7  1  0  0  0  0 
 26  8  1  0  0  0  0 
 28 10  1  0  0  0  0 
M  RAD  2  14   2  15   2 
M  END 
>  <HBA> 
3 
 
>  <HBD> 
0 
 
>  <TPSA> 
33.95 
 
>  <cid> 
22776 
 
>  <dipole> 
1.89 
 
>  <excitation_energy_1> 
2.503 
 
>  <excitation_energy_2> 
3.294 
 
>  <excitation_energy_3> 
3.801 
 
>  <excitation_energy_4> 
4.016 
 
>  <homo_energy> 
-5.763 
 
>  <homo_lumo_gap> 
3.736 
 
>  <logP> 
4.111 
 
>  <lumo_energy> 
-2.027 
 
>  <melting_point> 
66.92 
 
>  <molecular_refractivity> 
63.55 
 
>  <oscillator_strength_1> 
0.0 
 
>  <oscillator_strength_2> 
0.4937 
 
>  <oscillator_strength_3> 
0.2603 
 
>  <oscillator_strength_4> 
0.0308 
 
>  <open_babel_can_smiles> 
COc1ccccc1[N][N]c1ccccc1 
 
>  <mulliken_charges> 
28 
1   -0.217931 
2   -0.118643 
3   -0.139066 
4   -0.146966 
5   -0.148392 
6   -0.123323 
7   -0.1421 
8   -0.125842 
9   -0.130288 
10   -0.208351 
11   0.2691 
12   0.224553 
13   0.368422 
14   -0.309441 
15   -0.302567 
16   -0.489261 
17   0.174147 
18   0.15391 
19   0.153879 
20   0.131497 
21   0.132604 
22   0.133096 
23   0.131935 
24   0.133806 
25   0.138511 
26   0.162306 
27   0.158563 
28   0.135841 
 
>  <lowdin_charges> 
28 
1   -0.275071 
2   -0.149445 
3   -0.1562 
4   -0.155412 
5   -0.17611 
6   -0.13586 
7   -0.15016 
8   -0.149651 
9   -0.139126 
10   -0.214721 
11   0.012581 
12   -0.017846 
13   0.108028 
14   -0.086439 
15   -0.071273 
16   -0.177159 
17   0.165886 
18   0.147058 
19   0.144658 
20   0.159314 
21   0.157602 
22   0.159715 
23   0.160594 
24   0.160721 
25   0.166859 
26   0.174978 
27   0.173681 
28   0.162798 
 
$$$$ 
 
