PCCDB-ID:  32722 
public computational chemistry database (PCCDB) project, http://pccdb.org 
 
 23 23  0  0  0  0  0  0  0  0999 V2000 
    2.8026   -0.0045    0.5064 C   0  0  0  0  0  0  0  0  0  0  0  0 
    1.4853    1.3887   -1.1771 C   0  0  0  0  0  0  0  0  0  0  0  0 
    2.8358    0.8118   -0.7794 C   0  0  0  0  0  0  0  0  0  0  0  0 
    6.9353    0.6201   -1.2822 C   0  0  0  0  0  0  0  0  0  0  0  0 
    7.0910    3.0596   -0.7247 C   0  0  0  0  0  0  0  0  0  0  0  0 
    5.0253    1.8042   -0.7797 C   0  0  0  0  0  0  0  0  0  0  0  0 
    7.4936   -0.4829   -1.6084 N   0  0  0  0  0  0  0  0  0  0  0  0 
    7.6660    4.1835   -0.5279 N   0  0  0  0  0  0  0  0  0  0  0  0 
    7.6448    1.8380   -1.0795 N   0  0  0  0  0  0  0  0  0  0  0  0 
    5.5597    0.6777   -1.1032 N   0  0  0  0  0  0  0  0  0  0  0  0 
    5.7079    2.9768   -0.5811 N   0  0  0  0  0  0  0  0  0  0  0  0 
    3.7147    1.9719   -0.5969 O   0  0  0  0  0  0  0  0  0  0  0  0 
    2.1257   -0.8576    0.3853 H   0  0  0  0  0  0  0  0  0  0  0  0 
    2.4430    0.6046    1.3433 H   0  0  0  0  0  0  0  0  0  0  0  0 
    3.7977   -0.3904    0.7419 H   0  0  0  0  0  0  0  0  0  0  0  0 
    0.7749    0.5754   -1.3588 H   0  0  0  0  0  0  0  0  0  0  0  0 
    1.5682    1.9847   -2.0913 H   0  0  0  0  0  0  0  0  0  0  0  0 
    1.0823    2.0257   -0.3820 H   0  0  0  0  0  0  0  0  0  0  0  0 
    3.2603    0.2136   -1.5892 H   0  0  0  0  0  0  0  0  0  0  0  0 
    8.5063   -0.3713   -1.7033 H   0  0  0  0  0  0  0  0  0  0  0  0 
    8.6753    4.1201   -0.6630 H   0  0  0  0  0  0  0  0  0  0  0  0 
    8.6481    1.8162   -1.1996 H   0  0  0  0  0  0  0  0  0  0  0  0 
    5.2174    3.8270   -0.3384 H   0  0  0  0  0  0  0  0  0  0  0  0 
  1 15  1  0  0  0  0 
  1 14  1  0  0  0  0 
  2  3  1  0  0  0  0 
  2 18  1  0  0  0  0 
  3 12  1  0  0  0  0 
  3  1  1  0  0  0  0 
  4 10  2  0  0  0  0 
  4  9  1  0  0  0  0 
  5 11  1  0  0  0  0 
  5  8  2  0  0  0  0 
  6 12  1  0  0  0  0 
  6 11  1  0  0  0  0 
  7  4  1  0  0  0  0 
  9  5  1  0  0  0  0 
 10  6  2  0  0  0  0 
 11 23  1  0  0  0  0 
 13  1  1  0  0  0  0 
 16  2  1  0  0  0  0 
 17  2  1  0  0  0  0 
 19  3  1  0  0  0  0 
 20  7  1  0  0  0  0 
 21  8  1  0  0  0  0 
 22  9  1  0  0  0  0 
M  RAD  1   7   2 
M  END 
>  <HBA> 
6 
 
>  <HBD> 
2 
 
>  <TPSA> 
99.94 
 
>  <cid> 
32722 
 
>  <dipole> 
1.52 
 
>  <excitation_energy_1> 
5.399 
 
>  <excitation_energy_2> 
5.533 
 
>  <excitation_energy_3> 
5.621 
 
>  <excitation_energy_4> 
5.672 
 
>  <homo_energy> 
-6.387 
 
>  <homo_lumo_gap> 
6.283 
 
>  <logP> 
0.986 
 
>  <lumo_energy> 
-0.103 
 
>  <melting_point> 
153.93 
 
>  <molecular_refractivity> 
44.74 
 
>  <oscillator_strength_1> 
0.0027 
 
>  <oscillator_strength_2> 
0.0784 
 
>  <oscillator_strength_3> 
0.0013 
 
>  <oscillator_strength_4> 
0.0118 
 
>  <open_babel_can_smiles> 
N=C1NC(=[N]=C(N1)OC(C)C)[NH] 
 
>  <mulliken_charges> 
23 
1   -0.461049 
2   -0.453571 
3   0.129019 
4   0.611639 
5   0.693382 
6   0.780613 
7   -0.615948 
8   -0.651722 
9   -0.699246 
10   -0.518312 
11   -0.674931 
12   -0.51304 
13   0.152404 
14   0.150023 
15   0.184111 
16   0.1554 
17   0.160159 
18   0.156223 
19   0.182332 
20   0.262959 
21   0.279783 
22   0.328575 
23   0.361198 
 
>  <lowdin_charges> 
23 
1   -0.454934 
2   -0.449206 
3   0.017547 
4   0.130064 
5   0.140674 
6   0.188612 
7   -0.414891 
8   -0.456732 
9   -0.281762 
10   -0.235924 
11   -0.229661 
12   -0.185317 
13   0.160654 
14   0.154376 
15   0.171116 
16   0.161399 
17   0.160184 
18   0.157663 
19   0.166168 
20   0.241748 
21   0.255099 
22   0.288324 
23   0.314798 
 
$$$$ 
 
