PCCDB-ID:  13165 
public computational chemistry database (PCCDB) project, http://pccdb.org 
 
 16 15  0  0  0  0  0  0  0  0999 V2000 
    3.0761   -2.0556   -0.1452 C   0  0  0  0  0  0  0  0  0  0  0  0 
    3.4304   -1.1376    0.7567 C   0  0  0  0  0  0  0  0  0  0  0  0 
    2.0185    2.8112    2.2297 C   0  0  0  0  0  0  0  0  0  0  0  0 
    3.3215    2.4687    1.5221 C   0  0  0  0  0  0  0  0  0  0  0  0 
    3.1091    0.2959    0.5442 C   0  0  0  0  0  0  0  0  0  0  0  0 
    2.0446    2.4551    3.6023 O   0  0  0  0  0  0  0  0  0  0  0  0 
    2.5351    0.7580   -0.4205 O   0  0  0  0  0  0  0  0  0  0  0  0 
    3.5552    1.0406    1.5923 O   0  0  0  0  0  0  0  0  0  0  0  0 
    3.3029   -3.1084   -0.0080 H   0  0  0  0  0  0  0  0  0  0  0  0 
    2.5481   -1.7638   -1.0486 H   0  0  0  0  0  0  0  0  0  0  0  0 
    3.9604   -1.3929    1.6695 H   0  0  0  0  0  0  0  0  0  0  0  0 
    1.1804    2.3336    1.6995 H   0  0  0  0  0  0  0  0  0  0  0  0 
    1.8643    3.8950    2.1920 H   0  0  0  0  0  0  0  0  0  0  0  0 
    4.1702    2.9173    2.0437 H   0  0  0  0  0  0  0  0  0  0  0  0 
    3.3034    2.7834    0.4760 H   0  0  0  0  0  0  0  0  0  0  0  0 
    2.2493    1.5069    3.6391 H   0  0  0  0  0  0  0  0  0  0  0  0 
  1  9  1  0  0  0  0 
  1  2  2  0  0  0  0 
  2 11  1  0  0  0  0 
  3  6  1  0  0  0  0 
  4  8  1  0  0  0  0 
  4 14  1  0  0  0  0 
  4  3  1  0  0  0  0 
  5  2  1  0  0  0  0 
  5  8  1  0  0  0  0 
  6 16  1  0  0  0  0 
  7  5  2  0  0  0  0 
 10  1  1  0  0  0  0 
 12  3  1  0  0  0  0 
 13  3  1  0  0  0  0 
 15  4  1  0  0  0  0 
M  END 
>  <HBA> 
3 
 
>  <HBD> 
1 
 
>  <TPSA> 
46.53 
 
>  <cid> 
13165 
 
>  <dipole> 
1.89 
 
>  <excitation_energy_1> 
4.747 
 
>  <excitation_energy_2> 
5.296 
 
>  <excitation_energy_3> 
6.191 
 
>  <excitation_energy_4> 
6.443 
 
>  <homo_energy> 
-7.266 
 
>  <homo_lumo_gap> 
5.842 
 
>  <logP> 
-0.292 
 
>  <lumo_energy> 
-1.423 
 
>  <melting_point> 
-15.44 
 
>  <molecular_refractivity> 
28.12 
 
>  <oscillator_strength_1> 
0.0016 
 
>  <oscillator_strength_2> 
0.0215 
 
>  <oscillator_strength_3> 
0.2691 
 
>  <oscillator_strength_4> 
0.1469 
 
>  <open_babel_can_smiles> 
OCCOC(=O)C=C 
 
>  <mulliken_charges> 
16 
1   -0.299895 
2   -0.135121 
3   -0.04869 
4   -0.073118 
5   0.606505 
6   -0.612743 
7   -0.48501 
8   -0.486608 
9   0.160871 
10   0.183485 
11   0.154809 
12   0.147156 
13   0.153557 
14   0.164745 
15   0.174452 
16   0.395606 
 
>  <lowdin_charges> 
16 
1   -0.259234 
2   -0.188047 
3   -0.143378 
4   -0.150117 
5   0.194886 
6   -0.463657 
7   -0.267875 
8   -0.205486 
9   0.169255 
10   0.181064 
11   0.170458 
12   0.141518 
13   0.15346 
14   0.160812 
15   0.16488 
16   0.341462 
 
$$$$ 
 
