PCCDB-ID:  69170 
public computational chemistry database (PCCDB) project, http://pccdb.org 
 
 30 32  0  0  0  0  0  0  0  0999 V2000 
    0.9317    0.1107   -0.2457 C   0  0  0  0  0  0  0  0  0  0  0  0 
    2.4058    2.6618    0.0327 C   0  0  0  0  0  0  0  0  0  0  0  0 
    8.7084   -3.6049    0.7705 C   0  0  0  0  0  0  0  0  0  0  0  0 
    9.4191   -2.3759    0.9029 C   0  0  0  0  0  0  0  0  0  0  0  0 
    7.3518   -3.6045    0.5774 C   0  0  0  0  0  0  0  0  0  0  0  0 
    8.7539   -1.1797    0.8389 C   0  0  0  0  0  0  0  0  0  0  0  0 
    3.1140   -1.0831    0.0365 C   0  0  0  0  0  0  0  0  0  0  0  0 
    4.5045    1.3223    0.2975 C   0  0  0  0  0  0  0  0  0  0  0  0 
    5.2318   -2.3463    0.3070 C   0  0  0  0  0  0  0  0  0  0  0  0 
    6.6309    0.0735    0.5685 C   0  0  0  0  0  0  0  0  0  0  0  0 
    2.4258    0.1024   -0.0312 C   0  0  0  0  0  0  0  0  0  0  0  0 
    3.1459    1.3481    0.1042 C   0  0  0  0  0  0  0  0  0  0  0  0 
    6.6187   -2.3793    0.5050 C   0  0  0  0  0  0  0  0  0  0  0  0 
    7.3390   -1.1337    0.6394 C   0  0  0  0  0  0  0  0  0  0  0  0 
    4.5269   -1.1390    0.2379 C   0  0  0  0  0  0  0  0  0  0  0  0 
    5.2453    0.1034    0.3722 C   0  0  0  0  0  0  0  0  0  0  0  0 
    0.5422   -0.9082   -0.3311 H   0  0  0  0  0  0  0  0  0  0  0  0 
    0.6546    0.6523   -1.1596 H   0  0  0  0  0  0  0  0  0  0  0  0 
    0.4040    0.6020    0.5823 H   0  0  0  0  0  0  0  0  0  0  0  0 
    3.0922    3.5055    0.1506 H   0  0  0  0  0  0  0  0  0  0  0  0 
    1.6407    2.7410    0.8160 H   0  0  0  0  0  0  0  0  0  0  0  0 
    1.8861    2.7846   -0.9266 H   0  0  0  0  0  0  0  0  0  0  0  0 
    9.2522   -4.5443    0.8228 H   0  0  0  0  0  0  0  0  0  0  0  0 
   10.4950   -2.3951    1.0542 H   0  0  0  0  0  0  0  0  0  0  0  0 
    6.8076   -4.5407    0.4758 H   0  0  0  0  0  0  0  0  0  0  0  0 
    9.2937   -0.2408    0.9395 H   0  0  0  0  0  0  0  0  0  0  0  0 
    2.5746   -2.0229   -0.0657 H   0  0  0  0  0  0  0  0  0  0  0  0 
    5.0495    2.2589    0.3989 H   0  0  0  0  0  0  0  0  0  0  0  0 
    4.6891   -3.2842    0.2047 H   0  0  0  0  0  0  0  0  0  0  0  0 
    7.1729    1.0120    0.6691 H   0  0  0  0  0  0  0  0  0  0  0  0 
  1 11  1  0  0  0  0 
  1 19  1  0  0  0  0 
  2 12  1  0  0  0  0 
  2 20  1  0  0  0  0 
  2 21  1  0  0  0  0 
  3 23  1  0  0  0  0 
  3  4  2  0  0  0  0 
  4 24  1  0  0  0  0 
  5  3  1  0  0  0  0 
  6  4  1  0  0  0  0 
  6 26  1  0  0  0  0 
  7 15  1  0  0  0  0 
  8 16  1  0  0  0  0 
  8 28  1  0  0  0  0 
  9 13  1  0  0  0  0 
 10 14  1  0  0  0  0 
 10 30  1  0  0  0  0 
 11  7  2  0  0  0  0 
 11 12  1  0  0  0  0 
 12  8  2  0  0  0  0 
 13  5  2  0  0  0  0 
 13 14  1  0  0  0  0 
 14  6  2  0  0  0  0 
 15  9  2  0  0  0  0 
 15 16  1  0  0  0  0 
 16 10  2  0  0  0  0 
 17  1  1  0  0  0  0 
 18  1  1  0  0  0  0 
 22  2  1  0  0  0  0 
 25  5  1  0  0  0  0 
 27  7  1  0  0  0  0 
 29  9  1  0  0  0  0 
M  END 
>  <HBA> 
0 
 
>  <HBD> 
0 
 
>  <TPSA> 
0.0 
 
>  <cid> 
69170 
 
>  <dipole> 
0.94 
 
>  <excitation_energy_1> 
3.223 
 
>  <excitation_energy_2> 
3.807 
 
>  <excitation_energy_3> 
4.504 
 
>  <excitation_energy_4> 
4.811 
 
>  <homo_energy> 
-5.086 
 
>  <homo_lumo_gap> 
3.595 
 
>  <logP> 
4.61 
 
>  <lumo_energy> 
-1.491 
 
>  <melting_point> 
102.67 
 
>  <molecular_refractivity> 
71.39 
 
>  <oscillator_strength_1> 
0.0513 
 
>  <oscillator_strength_2> 
0.0028 
 
>  <oscillator_strength_3> 
0.0006 
 
>  <oscillator_strength_4> 
0.0003 
 
>  <open_babel_can_smiles> 
Cc1cc2cc3ccccc3cc2cc1C 
 
>  <mulliken_charges> 
30 
1   -0.53469 
2   -0.534747 
3   -0.140417 
4   -0.140697 
5   -0.185122 
6   -0.185218 
7   -0.267328 
8   -0.267611 
9   -0.302585 
10   -0.302666 
11   0.138547 
12   0.138872 
13   0.147481 
14   0.147589 
15   0.164804 
16   0.16499 
17   0.15707 
18   0.159348 
19   0.159427 
20   0.157074 
21   0.159436 
22   0.159358 
23   0.128141 
24   0.1282 
25   0.127843 
26   0.127903 
27   0.12108 
28   0.121082 
29   0.126416 
30   0.126421 
 
>  <lowdin_charges> 
30 
1   -0.441033 
2   -0.440837 
3   -0.161691 
4   -0.158629 
5   -0.15603 
6   -0.156068 
7   -0.169929 
8   -0.170065 
9   -0.162507 
10   -0.162498 
11   -0.005731 
12   -0.006835 
13   -0.002049 
14   -0.002004 
15   -0.001828 
16   -0.001889 
17   0.157453 
18   0.15864 
19   0.159351 
20   0.158688 
21   0.158924 
22   0.158218 
23   0.158102 
24   0.155949 
25   0.157271 
26   0.157186 
27   0.153893 
28   0.153994 
29   0.155978 
30   0.155974 
 
$$$$ 
 
