PCCDB-ID:  15381 
public computational chemistry database (PCCDB) project, http://pccdb.org 
 
 22 23  0  0  1  0  0  0  0  0999 V2000 
    0.7872    1.4009   -0.3107 C   0  0  0  0  0  0  0  0  0  0  0  0 
    0.7647   -0.4296    1.4041 C   0  0  0  0  0  0  0  0  0  0  0  0 
   -0.7751    1.3609   -0.2904 C   0  0  0  0  0  0  0  0  0  0  0  0 
   -0.7955   -0.3990    1.3398 C   0  0  0  0  0  0  0  0  0  0  0  0 
   -0.7798   -0.9292   -1.0027 C   0  0  0  0  0  0  0  0  0  0  0  0 
    1.3098   -0.0120    0.0225 C   0  0  1  0  0  0  0  0  0  0  0  0 
    0.7819   -0.9801   -1.0571 C   0  0  1  0  0  0  0  0  0  0  0  0 
   -1.2801    0.0107    0.0115 N   0  0  2  0  0  0  0  0  0  0  0  0 
    1.3053   -2.3016   -0.9383 O   0  0  0  0  0  0  0  0  0  0  0  0 
    1.1745    2.1229    0.4187 H   0  0  0  0  0  0  0  0  0  0  0  0 
    1.1588    1.7149   -1.2945 H   0  0  0  0  0  0  0  0  0  0  0  0 
    1.1354   -1.4262    1.6780 H   0  0  0  0  0  0  0  0  0  0  0  0 
    1.1443    0.2545    2.1726 H   0  0  0  0  0  0  0  0  0  0  0  0 
   -1.1910    1.6677   -1.2570 H   0  0  0  0  0  0  0  0  0  0  0  0 
   -1.1782    2.0453    0.4647 H   0  0  0  0  0  0  0  0  0  0  0  0 
   -1.2074    0.2991    2.0773 H   0  0  0  0  0  0  0  0  0  0  0  0 
   -1.2223   -1.3848    1.5617 H   0  0  0  0  0  0  0  0  0  0  0  0 
   -1.1638   -1.9318   -0.7729 H   0  0  0  0  0  0  0  0  0  0  0  0 
   -1.1992   -0.6414   -1.9739 H   0  0  0  0  0  0  0  0  0  0  0  0 
    2.4050   -0.0328    0.0192 H   0  0  0  0  0  0  0  0  0  0  0  0 
    1.1397   -0.6457   -2.0372 H   0  0  0  0  0  0  0  0  0  0  0  0 
    0.9843   -2.6757   -0.1026 H   0  0  0  0  0  0  0  0  0  0  0  0 
  1  3  1  0  0  0  0 
  1  6  1  0  0  0  0 
  1 10  1  0  0  0  0 
  2 12  1  0  0  0  0 
  2 13  1  0  0  0  0 
  3  8  1  0  0  0  0 
  3 15  1  0  0  0  0 
  4  2  1  0  0  0  0 
  4 17  1  0  0  0  0 
  4 16  1  0  0  0  0 
  5 18  1  0  0  0  0 
  6 20  1  1  0  0  0 
  6  2  1  0  0  0  0 
  7 21  1  6  0  0  0 
  7  5  1  0  0  0  0 
  7  9  1  0  0  0  0 
  7  6  1  0  0  0  0 
  8  5  1  6  0  0  0 
  8  4  1  0  0  0  0 
  9 22  1  0  0  0  0 
 11  1  1  0  0  0  0 
 14  3  1  0  0  0  0 
 19  5  1  0  0  0  0 
M  END 
>  <HBA> 
2 
 
>  <HBD> 
1 
 
>  <TPSA> 
23.47 
 
>  <cid> 
15381 
 
>  <dipole> 
1.47 
 
>  <excitation_energy_1> 
4.95 
 
>  <excitation_energy_2> 
5.355 
 
>  <excitation_energy_3> 
5.566 
 
>  <excitation_energy_4> 
5.721 
 
>  <homo_energy> 
-5.573 
 
>  <homo_lumo_gap> 
7.116 
 
>  <logP> 
0.011 
 
>  <lumo_energy> 
1.543 
 
>  <melting_point> 
39.18 
 
>  <molecular_refractivity> 
39.51 
 
>  <oscillator_strength_1> 
0.0015 
 
>  <oscillator_strength_2> 
0.0252 
 
>  <oscillator_strength_3> 
0.0282 
 
>  <oscillator_strength_4> 
0.0032 
 
>  <open_babel_can_smiles> 
O[C@H]1CN2CC[C@H]1CC2 
 
>  <mulliken_charges> 
22 
1   -0.288925 
2   -0.304844 
3   -0.147497 
4   -0.146143 
5   -0.177558 
6   -0.110022 
7   0.141065 
8   -0.368692 
9   -0.636067 
10   0.135812 
11   0.136254 
12   0.125353 
13   0.140546 
14   0.142483 
15   0.141457 
16   0.143767 
17   0.136816 
18   0.139729 
19   0.145889 
20   0.133957 
21   0.13247 
22   0.384152 
 
>  <lowdin_charges> 
22 
1   -0.302569 
2   -0.307955 
3   -0.212823 
4   -0.214007 
5   -0.22902 
6   -0.144249 
7   -0.023705 
8   -0.184336 
9   -0.461135 
10   0.146831 
11   0.144381 
12   0.136821 
13   0.149348 
14   0.145645 
15   0.146669 
16   0.147743 
17   0.141869 
18   0.146113 
19   0.149596 
20   0.146703 
21   0.143047 
22   0.335031 
 
$$$$ 
 
