PCCDB-ID:  12856 
public computational chemistry database (PCCDB) project, http://pccdb.org 
 
 23 25  0  0  0  0  0  0  0  0999 V2000 
   -2.0866   -0.8356   -0.0883 C   0  0  0  0  0  0  0  0  0  0  0  0 
   -2.3049    0.5469    0.0524 C   0  0  0  0  0  0  0  0  0  0  0  0 
    6.0694    1.0475    0.2953 C   0  0  0  0  0  0  0  0  0  0  0  0 
    6.6180   -0.1677   -0.1077 C   0  0  0  0  0  0  0  0  0  0  0  0 
   -0.7988   -1.3505   -0.1541 C   0  0  0  0  0  0  0  0  0  0  0  0 
    4.6838    1.1810    0.3270 C   0  0  0  0  0  0  0  0  0  0  0  0 
   -1.2391    1.4397    0.1291 C   0  0  0  0  0  0  0  0  0  0  0  0 
    5.7419   -1.1979   -0.4620 C   0  0  0  0  0  0  0  0  0  0  0  0 
    0.2912   -0.4689   -0.0796 C   0  0  0  0  0  0  0  0  0  0  0  0 
    3.8881    0.0882   -0.0518 C   0  0  0  0  0  0  0  0  0  0  0  0 
    0.0567    0.9221    0.0626 C   0  0  0  0  0  0  0  0  0  0  0  0 
    2.4113    0.1699   -0.0354 C   0  0  0  0  0  0  0  0  0  0  0  0 
    4.4138   -1.0869   -0.4414 N   0  0  0  0  0  0  0  0  0  0  0  0 
    1.6179   -0.8486   -0.1305 N   0  0  0  0  0  0  0  0  0  0  0  0 
    1.5917    1.7586    0.1233 S   0  0  0  0  0  0  0  0  0  0  0  0 
   -2.9384   -1.5072   -0.1452 H   0  0  0  0  0  0  0  0  0  0  0  0 
   -3.3213    0.9273    0.1014 H   0  0  0  0  0  0  0  0  0  0  0  0 
    6.7062    1.8784    0.5856 H   0  0  0  0  0  0  0  0  0  0  0  0 
    7.6923   -0.3196   -0.1477 H   0  0  0  0  0  0  0  0  0  0  0  0 
   -0.6111   -2.4139   -0.2623 H   0  0  0  0  0  0  0  0  0  0  0  0 
    4.2308    2.1132    0.6507 H   0  0  0  0  0  0  0  0  0  0  0  0 
   -1.4143    2.5057    0.2371 H   0  0  0  0  0  0  0  0  0  0  0  0 
    6.1309   -2.1629   -0.7837 H   0  0  0  0  0  0  0  0  0  0  0  0 
  1  2  1  0  0  0  0 
  2 17  1  0  0  0  0 
  2  7  2  0  0  0  0 
  3  6  1  0  0  0  0 
  3 18  1  0  0  0  0 
  4  3  2  0  0  0  0 
  5  1  2  0  0  0  0 
  5  9  1  0  0  0  0 
  6 21  1  0  0  0  0 
  7 22  1  0  0  0  0 
  8 13  2  0  0  0  0 
  8  4  1  0  0  0  0 
  9 11  2  0  0  0  0 
 10 12  1  0  0  0  0 
 10  6  2  0  0  0  0 
 11 15  1  0  0  0  0 
 11  7  1  0  0  0  0 
 12 15  1  0  0  0  0 
 13 10  1  0  0  0  0 
 14  9  1  0  0  0  0 
 14 12  2  0  0  0  0 
 16  1  1  0  0  0  0 
 19  4  1  0  0  0  0 
 20  5  1  0  0  0  0 
 23  8  1  0  0  0  0 
M  END 
>  <HBA> 
3 
 
>  <HBD> 
0 
 
>  <TPSA> 
54.02 
 
>  <cid> 
12856 
 
>  <dipole> 
2.37 
 
>  <excitation_energy_1> 
3.977 
 
>  <excitation_energy_2> 
4.071 
 
>  <excitation_energy_3> 
4.108 
 
>  <excitation_energy_4> 
4.542 
 
>  <homo_energy> 
-6.231 
 
>  <homo_lumo_gap> 
4.474 
 
>  <logP> 
3.358 
 
>  <lumo_energy> 
-1.758 
 
>  <melting_point> 
116.17 
 
>  <molecular_refractivity> 
62.85 
 
>  <oscillator_strength_1> 
0.1188 
 
>  <oscillator_strength_2> 
0.4061 
 
>  <oscillator_strength_3> 
0.0866 
 
>  <oscillator_strength_4> 
0.0018 
 
>  <open_babel_can_smiles> 
c1ccc(nc1)c1nc2c(s1)cccc2 
 
>  <mulliken_charges> 
23 
1   -0.147969 
2   -0.117136 
3   -0.105581 
4   -0.13813 
5   -0.143638 
6   -0.174392 
7   -0.183316 
8   0.043499 
9   0.285966 
10   0.280389 
11   -0.122344 
12   0.053003 
13   -0.439738 
14   -0.464246 
15   0.205735 
16   0.13568 
17   0.135151 
18   0.149371 
19   0.144324 
20   0.150606 
21   0.160121 
22   0.144951 
23   0.147692 
 
>  <lowdin_charges> 
23 
1   -0.160083 
2   -0.152265 
3   -0.126992 
4   -0.167199 
5   -0.147639 
6   -0.171133 
7   -0.159706 
8   -0.081579 
9   0.020481 
10   0.042428 
11   -0.146297 
12   -0.068341 
13   -0.122286 
14   -0.126221 
15   0.240425 
16   0.162363 
17   0.160868 
18   0.167769 
19   0.165596 
20   0.17147 
21   0.17363 
22   0.164443 
23   0.160267 
 
$$$$ 
 
