PCCDB-ID:  14859 
public computational chemistry database (PCCDB) project, http://pccdb.org 
 
 28 27  0  0  1  0  0  0  0  0999 V2000 
    3.1279   -0.8436    0.5585 C   0  0  0  0  0  0  0  0  0  0  0  0 
    2.6650   -0.6619   -0.8916 C   0  0  0  0  0  0  0  0  0  0  0  0 
    1.1742    3.0095   -0.8593 C   0  0  0  0  0  0  0  0  0  0  0  0 
    1.7306    4.3316   -0.3139 C   0  0  0  0  0  0  0  0  0  0  0  0 
    2.1730    1.8494   -0.7295 C   0  0  0  0  0  0  0  0  0  0  0  0 
    0.7495    5.4939   -0.4121 C   0  0  0  0  0  0  0  0  0  0  0  0 
    1.1109    0.4166   -2.5684 C   0  0  0  0  0  0  0  0  0  0  0  0 
    1.6281    0.4584   -1.1184 C   0  0  1  0  0  0  0  0  0  0  0  0 
   -0.3881    5.1857    0.3896 O   0  0  0  0  0  0  0  0  0  0  0  0 
    2.1134    0.6987   -3.5439 O   0  0  0  0  0  0  0  0  0  0  0  0 
    3.7830   -1.7179    0.6486 H   0  0  0  0  0  0  0  0  0  0  0  0 
    2.2753   -0.9982    1.2322 H   0  0  0  0  0  0  0  0  0  0  0  0 
    3.6897    0.0213    0.9280 H   0  0  0  0  0  0  0  0  0  0  0  0 
    2.2235   -1.6067   -1.2385 H   0  0  0  0  0  0  0  0  0  0  0  0 
    3.5296   -0.4800   -1.5426 H   0  0  0  0  0  0  0  0  0  0  0  0 
    0.8873    3.1573   -1.9112 H   0  0  0  0  0  0  0  0  0  0  0  0 
    0.2492    2.7673   -0.3224 H   0  0  0  0  0  0  0  0  0  0  0  0 
    2.6464    4.6074   -0.8562 H   0  0  0  0  0  0  0  0  0  0  0  0 
    2.0137    4.2070    0.7399 H   0  0  0  0  0  0  0  0  0  0  0  0 
    2.5203    1.8137    0.3104 H   0  0  0  0  0  0  0  0  0  0  0  0 
    3.0713    2.0650   -1.3297 H   0  0  0  0  0  0  0  0  0  0  0  0 
    0.4594    5.6493   -1.4654 H   0  0  0  0  0  0  0  0  0  0  0  0 
    1.2365    6.4197   -0.0650 H   0  0  0  0  0  0  0  0  0  0  0  0 
    0.2497    1.0912   -2.6890 H   0  0  0  0  0  0  0  0  0  0  0  0 
    0.7612   -0.5950   -2.8019 H   0  0  0  0  0  0  0  0  0  0  0  0 
    0.7551    0.2505   -0.4775 H   0  0  0  0  0  0  0  0  0  0  0  0 
   -1.0281    5.9062    0.2909 H   0  0  0  0  0  0  0  0  0  0  0  0 
    2.3587    1.6315   -3.4481 H   0  0  0  0  0  0  0  0  0  0  0  0 
  1 11  1  0  0  0  0 
  1 13  1  0  0  0  0 
  1 12  1  0  0  0  0 
  2  1  1  0  0  0  0 
  3  5  1  0  0  0  0 
  3 17  1  0  0  0  0 
  3  4  1  0  0  0  0 
  4 19  1  0  0  0  0 
  5 20  1  0  0  0  0 
  6  4  1  0  0  0  0 
  6 23  1  0  0  0  0 
  6  9  1  0  0  0  0 
  7  8  1  0  0  0  0 
  8  2  1  0  0  0  0 
  8  5  1  0  0  0  0 
  8 26  1  1  0  0  0 
 10 28  1  0  0  0  0 
 10  7  1  0  0  0  0 
 14  2  1  0  0  0  0 
 15  2  1  0  0  0  0 
 16  3  1  0  0  0  0 
 18  4  1  0  0  0  0 
 21  5  1  0  0  0  0 
 22  6  1  0  0  0  0 
 24  7  1  0  0  0  0 
 25  7  1  0  0  0  0 
 27  9  1  0  0  0  0 
M  END 
>  <HBA> 
2 
 
>  <HBD> 
2 
 
>  <TPSA> 
40.46 
 
>  <cid> 
14859 
 
>  <dipole> 
2.57 
 
>  <excitation_energy_1> 
6.314 
 
>  <excitation_energy_2> 
6.367 
 
>  <excitation_energy_3> 
6.821 
 
>  <excitation_energy_4> 
6.921 
 
>  <homo_energy> 
-6.969 
 
>  <homo_lumo_gap> 
8.58 
 
>  <logP> 
1.167 
 
>  <lumo_energy> 
1.611 
 
>  <melting_point> 
9.35 
 
>  <molecular_refractivity> 
42.89 
 
>  <oscillator_strength_1> 
0.0046 
 
>  <oscillator_strength_2> 
0.0001 
 
>  <oscillator_strength_3> 
0.0023 
 
>  <oscillator_strength_4> 
0.0091 
 
>  <open_babel_can_smiles> 
OCCCC[C@@H](CO)CC 
 
>  <mulliken_charges> 
28 
1   -0.450234 
2   -0.246904 
3   -0.261712 
4   -0.263661 
5   -0.281027 
6   -0.032706 
7   -0.049231 
8   -0.084363 
9   -0.616104 
10   -0.620792 
11   0.142665 
12   0.139447 
13   0.144711 
14   0.12681 
15   0.144858 
16   0.116768 
17   0.160573 
18   0.126631 
19   0.14611 
20   0.141478 
21   0.117659 
22   0.11457 
23   0.119631 
24   0.124708 
25   0.141106 
26   0.114262 
27   0.392457 
28   0.392289 
 
>  <lowdin_charges> 
28 
1   -0.449396 
2   -0.275057 
3   -0.278684 
4   -0.280015 
5   -0.283687 
6   -0.131198 
7   -0.138128 
8   -0.146014 
9   -0.476332 
10   -0.468845 
11   0.150894 
12   0.145563 
13   0.146993 
14   0.140877 
15   0.147633 
16   0.129777 
17   0.154436 
18   0.142788 
19   0.147267 
20   0.146654 
21   0.131988 
22   0.120693 
23   0.127132 
24   0.128116 
25   0.144965 
26   0.137651 
27   0.345491 
28   0.338439 
 
$$$$ 
 
