PCCDB-ID:  35597 
public computational chemistry database (PCCDB) project, http://pccdb.org 
 
 20 20  0  0  0  0  0  0  0  0999 V2000 
    0.9453   -0.0731    0.3425 C   0  0  0  0  0  0  0  0  0  0  0  0 
    3.2369    0.8711    0.9115 C   0  0  0  0  0  0  0  0  0  0  0  0 
    2.4635   -0.1844    0.1021 C   0  0  0  0  0  0  0  0  0  0  0  0 
    2.9412   -1.5820    0.4309 C   0  0  0  0  0  0  0  0  0  0  0  0 
    3.7666   -3.5817   -0.2088 C   0  0  0  0  0  0  0  0  0  0  0  0 
    3.3194   -3.2267    1.9285 C   0  0  0  0  0  0  0  0  0  0  0  0 
    3.3720   -2.3513   -0.5766 N   0  0  0  0  0  0  0  0  0  0  0  0 
    2.8933   -1.9750    1.7117 N   0  0  0  0  0  0  0  0  0  0  0  0 
    3.7700   -4.0881    1.0198 N   0  0  0  0  0  0  0  0  0  0  0  0 
    4.2059   -4.3899   -1.1778 O   0  0  0  0  0  0  0  0  0  0  0  0 
    3.2944   -3.6687    3.1896 O   0  0  0  0  0  0  0  0  0  0  0  0 
    0.5953    0.9312    0.0791 H   0  0  0  0  0  0  0  0  0  0  0  0 
    0.7072   -0.2570    1.3953 H   0  0  0  0  0  0  0  0  0  0  0  0 
    0.3906   -0.7962   -0.2657 H   0  0  0  0  0  0  0  0  0  0  0  0 
    2.8911    1.8761    0.6452 H   0  0  0  0  0  0  0  0  0  0  0  0 
    4.3129    0.8195    0.7110 H   0  0  0  0  0  0  0  0  0  0  0  0 
    3.0832    0.7246    1.9851 H   0  0  0  0  0  0  0  0  0  0  0  0 
    2.6631   -0.0370   -0.9646 H   0  0  0  0  0  0  0  0  0  0  0  0 
    4.1404   -3.8792   -2.0051 H   0  0  0  0  0  0  0  0  0  0  0  0 
    2.9476   -2.9337    3.7268 H   0  0  0  0  0  0  0  0  0  0  0  0 
  1 13  1  0  0  0  0 
  2 17  1  0  0  0  0 
  3  1  1  0  0  0  0 
  3  4  1  0  0  0  0 
  3  2  1  0  0  0  0 
  4  8  1  0  0  0  0 
  5  9  2  0  0  0  0 
  6 11  1  0  0  0  0 
  7  5  2  0  0  0  0 
  7  4  2  0  0  0  0 
  8  6  2  0  0  0  0 
  9  6  2  0  0  0  0 
 10  5  1  0  0  0  0 
 11 20  1  0  0  0  0 
 12  1  1  0  0  0  0 
 14  1  1  0  0  0  0 
 15  2  1  0  0  0  0 
 16  2  1  0  0  0  0 
 18  3  1  0  0  0  0 
 19 10  1  0  0  0  0 
M  END 
>  <HBA> 
3 
 
>  <HBD> 
2 
 
>  <TPSA> 
78.61 
 
>  <cid> 
35597 
 
>  <dipole> 
3.17 
 
>  <excitation_energy_1> 
5.193 
 
>  <excitation_energy_2> 
5.346 
 
>  <excitation_energy_3> 
5.586 
 
>  <excitation_energy_4> 
5.773 
 
>  <homo_energy> 
-7.478 
 
>  <homo_lumo_gap> 
6.512 
 
>  <logP> 
-0.418 
 
>  <lumo_energy> 
-0.966 
 
>  <melting_point> 
186.76 
 
>  <molecular_refractivity> 
40.06 
 
>  <oscillator_strength_1> 
0.0083 
 
>  <oscillator_strength_2> 
0.0001 
 
>  <oscillator_strength_3> 
0.0 
 
>  <oscillator_strength_4> 
0.0205 
 
>  <open_babel_can_smiles> 
O[C]1=[N]=[C](=[N]=C(N=1)C(C)C)O 
 
>  <mulliken_charges> 
20 
1   -0.450533 
2   -0.449016 
3   -0.135539 
4   0.466112 
5   0.643564 
6   0.639199 
7   -0.522925 
8   -0.516318 
9   -0.451451 
10   -0.573614 
11   -0.573533 
12   0.149924 
13   0.162765 
14   0.152998 
15   0.147659 
16   0.150843 
17   0.164202 
18   0.151718 
19   0.422542 
20   0.421404 
 
>  <lowdin_charges> 
20 
1   -0.43849 
2   -0.435988 
3   -0.125162 
4   0.129688 
5   0.175261 
6   0.176802 
7   -0.239193 
8   -0.238579 
9   -0.185158 
10   -0.317329 
11   -0.320813 
12   0.153334 
13   0.156371 
14   0.155408 
15   0.152334 
16   0.151521 
17   0.156936 
18   0.154259 
19   0.36941 
20   0.369388 
 
$$$$ 
 
