PCCDB-ID:  49306 
public computational chemistry database (PCCDB) project, http://pccdb.org 
 
 35 35  0  0  1  0  0  0  0  0999 V2000 
    1.5863    1.8123    0.0993 C   0  0  0  0  0  0  0  0  0  0  0  0 
    6.1189   -1.9961    5.1097 C   0  0  0  0  0  0  0  0  0  0  0  0 
    8.5546   -1.7716    4.6352 C   0  0  0  0  0  0  0  0  0  0  0  0 
    3.0961    1.6115    0.2629 C   0  0  0  0  0  0  0  0  0  0  0  0 
    3.4584    0.7446    1.4759 C   0  0  0  0  0  0  0  0  0  0  0  0 
    4.9716    0.5460    1.6426 C   0  0  0  0  0  0  0  0  0  0  0  0 
    5.3015   -0.3327    2.8577 C   0  0  0  0  0  0  0  0  0  0  0  0 
    7.0960   -1.4904    4.3427 C   0  0  0  0  0  0  0  0  0  0  0  0 
    7.5319    0.7464    3.3173 C   0  0  0  0  0  0  0  0  0  0  0  0 
    7.4383   -1.2430    1.8794 C   0  0  0  0  0  0  0  0  0  0  0  0 
    8.4776    0.7146    1.2011 C   0  0  0  0  0  0  0  0  0  0  0  0 
    6.8226   -0.5943    3.1203 C   0  0  2  0  0  0  0  0  0  0  0  0 
    8.2630    1.3379    2.4617 N   0  0  0  0  0  0  0  0  0  0  0  0 
    8.1706   -0.6622    1.0177 N   0  0  0  0  0  0  0  0  0  0  0  0 
    7.3140    1.3563    4.5011 O   0  0  0  0  0  0  0  0  0  0  0  0 
    7.1303   -2.5422    1.6836 O   0  0  0  0  0  0  0  0  0  0  0  0 
    8.9524    1.3511    0.2892 O   0  0  0  0  0  0  0  0  0  0  0  0 
    1.3605    2.4314   -0.7759 H   0  0  0  0  0  0  0  0  0  0  0  0 
    1.1536    2.3073    0.9775 H   0  0  0  0  0  0  0  0  0  0  0  0 
    1.0694    0.8533   -0.0290 H   0  0  0  0  0  0  0  0  0  0  0  0 
    6.3577   -2.6243    5.9637 H   0  0  0  0  0  0  0  0  0  0  0  0 
    5.0646   -1.8152    4.9310 H   0  0  0  0  0  0  0  0  0  0  0  0 
    8.6611   -2.4119    5.5149 H   0  0  0  0  0  0  0  0  0  0  0  0 
    9.1100   -0.8441    4.8190 H   0  0  0  0  0  0  0  0  0  0  0  0 
    9.0423   -2.2701    3.7890 H   0  0  0  0  0  0  0  0  0  0  0  0 
    3.5896    2.5885    0.3570 H   0  0  0  0  0  0  0  0  0  0  0  0 
    3.5067    1.1503   -0.6458 H   0  0  0  0  0  0  0  0  0  0  0  0 
    2.9678   -0.2357    1.3804 H   0  0  0  0  0  0  0  0  0  0  0  0 
    3.0460    1.2046    2.3865 H   0  0  0  0  0  0  0  0  0  0  0  0 
    5.4559    1.5253    1.7444 H   0  0  0  0  0  0  0  0  0  0  0  0 
    5.3799    0.0925    0.7307 H   0  0  0  0  0  0  0  0  0  0  0  0 
    4.8051   -1.3042    2.7414 H   0  0  0  0  0  0  0  0  0  0  0  0 
    4.8751    0.1276    3.7579 H   0  0  0  0  0  0  0  0  0  0  0  0 
    6.8135    0.7553    5.0815 H   0  0  0  0  0  0  0  0  0  0  0  0 
    6.6412   -2.8740    2.4576 H   0  0  0  0  0  0  0  0  0  0  0  0 
  1  4  1  0  0  0  0 
  1 19  1  0  0  0  0 
  2 21  1  0  0  0  0 
  3 24  1  0  0  0  0 
  3 23  1  0  0  0  0 
  4 26  1  0  0  0  0 
  4  5  1  0  0  0  0 
  5  6  1  0  0  0  0 
  5 29  1  0  0  0  0 
  6 30  1  0  0  0  0 
  6  7  1  0  0  0  0 
  7 12  1  0  0  0  0 
  7 33  1  0  0  0  0 
  8  3  1  0  0  0  0 
  8  2  2  0  0  0  0 
  9 15  1  0  0  0  0 
 10 12  1  0  0  0  0 
 11 13  2  0  0  0  0 
 12  9  1  0  0  0  0 
 12  8  1  1  0  0  0 
 13  9  2  0  0  0  0 
 14 11  1  0  0  0  0 
 14 10  2  0  0  0  0 
 15 34  1  0  0  0  0 
 16 10  1  0  0  0  0 
 16 35  1  0  0  0  0 
 17 11  2  0  0  0  0 
 18  1  1  0  0  0  0 
 20  1  1  0  0  0  0 
 22  2  1  0  0  0  0 
 25  3  1  0  0  0  0 
 27  4  1  0  0  0  0 
 28  5  1  0  0  0  0 
 31  6  1  0  0  0  0 
 32  7  1  0  0  0  0 
M  END 
>  <HBA> 
5 
 
>  <HBD> 
2 
 
>  <TPSA> 
75.27 
 
>  <cid> 
49306 
 
>  <dipole> 
9.45 
 
>  <excitation_energy_1> 
4.02 
 
>  <excitation_energy_2> 
4.238 
 
>  <excitation_energy_3> 
5.015 
 
>  <excitation_energy_4> 
5.349 
 
>  <homo_energy> 
-6.89 
 
>  <homo_lumo_gap> 
5.393 
 
>  <logP> 
2.153 
 
>  <lumo_energy> 
-1.497 
 
>  <melting_point> 
122.4 
 
>  <molecular_refractivity> 
71.37 
 
>  <oscillator_strength_1> 
0.0004 
 
>  <oscillator_strength_2> 
0.0002 
 
>  <oscillator_strength_3> 
0.0319 
 
>  <oscillator_strength_4> 
0.004 
 
>  <open_babel_can_smiles> 
CCCCC[C@@]1(C(=C)C)C(=N[C](=[N]=C1O)=O)O 
 
>  <mulliken_charges> 
35 
1   -0.443611 
2   -0.410649 
3   -0.525689 
4   -0.25134 
5   -0.251615 
6   -0.288689 
7   -0.276639 
8   0.127632 
9   0.544515 
10   0.544634 
11   0.618126 
12   -0.174181 
13   -0.469968 
14   -0.469804 
15   -0.578585 
16   -0.578733 
17   -0.429592 
18   0.149066 
19   0.141782 
20   0.141604 
21   0.16391 
22   0.164629 
23   0.168392 
24   0.19029 
25   0.190325 
26   0.141859 
27   0.141609 
28   0.128911 
29   0.129297 
30   0.167402 
31   0.167299 
32   0.146549 
33   0.146784 
34   0.417229 
35   0.417251 
 
>  <lowdin_charges> 
35 
1   -0.445283 
2   -0.352278 
3   -0.452101 
4   -0.271724 
5   -0.272608 
6   -0.28674 
7   -0.267774 
8   -0.023086 
9   0.146892 
10   0.146936 
11   0.177419 
12   -0.064141 
13   -0.185475 
14   -0.185438 
15   -0.33192 
16   -0.331664 
17   -0.209957 
18   0.153844 
19   0.147188 
20   0.14633 
21   0.171161 
22   0.16756 
23   0.16697 
24   0.17549 
25   0.176169 
26   0.144561 
27   0.1452 
28   0.137306 
29   0.138282 
30   0.157389 
31   0.158091 
32   0.148332 
33   0.149234 
34   0.363437 
35   0.362399 
 
$$$$ 
 
