PCCDB-ID:  14313 
public computational chemistry database (PCCDB) project, http://pccdb.org 
 
 19 20  0  0  0  0  0  0  0  0999 V2000 
    0.9733    0.0919   -0.0041 C   0  0  0  0  0  0  0  0  0  0  0  0 
    4.6614   -1.0285   -0.0053 C   0  0  0  0  0  0  0  0  0  0  0  0 
    3.2606   -1.0451   -0.0052 C   0  0  0  0  0  0  0  0  0  0  0  0 
    5.3459    0.1869   -0.0029 C   0  0  0  0  0  0  0  0  0  0  0  0 
    2.4815    0.1235   -0.0026 C   0  0  0  0  0  0  0  0  0  0  0  0 
    4.5990    1.3620   -0.0005 C   0  0  0  0  0  0  0  0  0  0  0  0 
    3.1919    1.3249   -0.0005 C   0  0  0  0  0  0  0  0  0  0  0  0 
    5.0130    2.7740   -0.0009 C   0  0  0  0  0  0  0  0  0  0  0  0 
    3.6711    3.5920   -0.0049 C   0  0  0  0  0  0  0  0  0  0  0  0 
    2.6720    2.6301    0.0024 N   0  0  0  0  0  0  0  0  0  0  0  0 
    6.1178    3.2712    0.0017 O   0  0  0  0  0  0  0  0  0  0  0  0 
    3.5299    4.7933   -0.0134 O   0  0  0  0  0  0  0  0  0  0  0  0 
    0.6031   -0.9371    0.0047 H   0  0  0  0  0  0  0  0  0  0  0  0 
    0.5571    0.5838   -0.8934 H   0  0  0  0  0  0  0  0  0  0  0  0 
    0.5551    0.6000    0.8751 H   0  0  0  0  0  0  0  0  0  0  0  0 
    5.2083   -1.9662   -0.0075 H   0  0  0  0  0  0  0  0  0  0  0  0 
    2.7456   -2.0031   -0.0072 H   0  0  0  0  0  0  0  0  0  0  0  0 
    6.4308    0.2342   -0.0030 H   0  0  0  0  0  0  0  0  0  0  0  0 
    1.6897    2.8650   -0.0108 H   0  0  0  0  0  0  0  0  0  0  0  0 
  1  5  1  0  0  0  0 
  1 13  1  0  0  0  0 
  1 15  1  0  0  0  0 
  2  3  2  0  0  0  0 
  2  4  1  0  0  0  0 
  3  5  1  0  0  0  0 
  4  6  2  0  0  0  0 
  5  7  2  0  0  0  0 
  7  6  1  0  0  0  0 
  7 10  1  0  0  0  0 
  8  6  1  0  0  0  0 
  8 11  2  0  0  0  0 
  9  8  1  0  0  0  0 
  9 10  1  0  0  0  0 
 12  9  2  0  0  0  0 
 14  1  1  0  0  0  0 
 16  2  1  0  0  0  0 
 17  3  1  0  0  0  0 
 18  4  1  0  0  0  0 
 19 10  1  0  0  0  0 
M  END 
>  <HBA> 
3 
 
>  <HBD> 
1 
 
>  <TPSA> 
46.17 
 
>  <cid> 
14313 
 
>  <dipole> 
6.25 
 
>  <excitation_energy_1> 
2.68 
 
>  <excitation_energy_2> 
3.015 
 
>  <excitation_energy_3> 
4.19 
 
>  <excitation_energy_4> 
4.358 
 
>  <homo_energy> 
-6.425 
 
>  <homo_lumo_gap> 
3.842 
 
>  <logP> 
1.268 
 
>  <lumo_energy> 
-2.582 
 
>  <melting_point> 
123.24 
 
>  <molecular_refractivity> 
47.12 
 
>  <oscillator_strength_1> 
0.0 
 
>  <oscillator_strength_2> 
0.0251 
 
>  <oscillator_strength_3> 
0.0805 
 
>  <oscillator_strength_4> 
0.0 
 
>  <open_babel_can_smiles> 
O=C1Nc2c(C1=O)cccc2C 
 
>  <mulliken_charges> 
19 
1   -0.546415 
2   -0.135034 
3   -0.189655 
4   -0.176575 
5   0.164622 
6   0.076764 
7   0.263369 
8   0.317838 
9   0.576481 
10   -0.752807 
11   -0.430934 
12   -0.454087 
13   0.170551 
14   0.168331 
15   0.168156 
16   0.141112 
17   0.136776 
18   0.162552 
19   0.338953 
 
>  <lowdin_charges> 
19 
1   -0.445517 
2   -0.171903 
3   -0.132691 
4   -0.112617 
5   -0.029806 
6   -0.081158 
7   0.063833 
8   0.125646 
9   0.136275 
10   -0.244205 
11   -0.180428 
12   -0.218114 
13   0.166315 
14   0.162839 
15   0.162842 
16   0.165 
17   0.16253 
18   0.174294 
19   0.296865 
 
$$$$ 
 
