PCCDB-ID:  44548 
public computational chemistry database (PCCDB) project, http://pccdb.org 
 
 19 19  0  0  0  0  0  0  0  0999 V2000 
    0.6746   -0.0397    0.0231 C   0  0  0  0  0  0  0  0  0  0  0  0 
    6.9066    0.5459    0.0469 C   0  0  0  0  0  0  0  0  0  0  0  0 
    8.1112    1.4891    0.0205 C   0  0  0  0  0  0  0  0  0  0  0  0 
    2.1645    0.0706    0.0140 C   0  0  0  0  0  0  0  0  0  0  0  0 
    4.5682    0.7861    0.0345 C   0  0  0  0  0  0  0  0  0  0  0  0 
    5.6987    1.3663    0.0729 N   0  0  0  0  0  0  0  0  0  0  0  0 
    2.9451   -0.9538   -0.0170 N   0  0  0  0  0  0  0  0  0  0  0  0 
    4.2576   -0.5645   -0.0410 N   0  0  0  0  0  0  0  0  0  0  0  0 
    8.0553    2.4019    1.0982 O   0  0  0  0  0  0  0  0  0  0  0  0 
    2.9928    1.6443    0.0448 S   0  0  0  0  0  0  0  0  0  0  0  0 
    0.3979   -1.0969    0.0158 H   0  0  0  0  0  0  0  0  0  0  0  0 
    0.2355    0.4469   -0.8556 H   0  0  0  0  0  0  0  0  0  0  0  0 
    0.2475    0.4342    0.9144 H   0  0  0  0  0  0  0  0  0  0  0  0 
    6.9678   -0.0852    0.9497 H   0  0  0  0  0  0  0  0  0  0  0  0 
    6.9328   -0.1227   -0.8314 H   0  0  0  0  0  0  0  0  0  0  0  0 
    8.1332    2.0117   -0.9503 H   0  0  0  0  0  0  0  0  0  0  0  0 
    9.0431    0.9224    0.1214 H   0  0  0  0  0  0  0  0  0  0  0  0 
    4.9499   -1.2922    0.0536 H   0  0  0  0  0  0  0  0  0  0  0  0 
    7.1472    2.7548    1.0716 H   0  0  0  0  0  0  0  0  0  0  0  0 
  1 13  1  0  0  0  0 
  2  6  1  0  0  0  0 
  2 14  1  0  0  0  0 
  3  2  1  0  0  0  0 
  3 17  1  0  0  0  0 
  3  9  1  0  0  0  0 
  4  1  1  0  0  0  0 
  4 10  1  0  0  0  0 
  5 10  1  0  0  0  0 
  5  6  2  0  0  0  0 
  7  4  2  0  0  0  0 
  8  7  1  0  0  0  0 
  8  5  1  0  0  0  0 
  8 18  1  0  0  0  0 
 11  1  1  0  0  0  0 
 12  1  1  0  0  0  0 
 15  2  1  0  0  0  0 
 16  3  1  0  0  0  0 
 19  9  1  0  0  0  0 
M  END 
>  <HBA> 
5 
 
>  <HBD> 
2 
 
>  <TPSA> 
86.28 
 
>  <cid> 
44548 
 
>  <dipole> 
3.88 
 
>  <excitation_energy_1> 
4.557 
 
>  <excitation_energy_2> 
4.836 
 
>  <excitation_energy_3> 
5.176 
 
>  <excitation_energy_4> 
5.586 
 
>  <homo_energy> 
-5.959 
 
>  <homo_lumo_gap> 
5.516 
 
>  <logP> 
0.324 
 
>  <lumo_energy> 
-0.444 
 
>  <melting_point> 
90.9 
 
>  <molecular_refractivity> 
40.15 
 
>  <oscillator_strength_1> 
0.0029 
 
>  <oscillator_strength_2> 
0.1374 
 
>  <oscillator_strength_3> 
0.0079 
 
>  <oscillator_strength_4> 
0.0013 
 
>  <open_babel_can_smiles> 
Cc1n[nH]/c(=N\CCO)/s1 
 
>  <mulliken_charges> 
19 
1   -0.512838 
2   -0.173698 
3   -0.013954 
4   0.120613 
5   0.336651 
6   -0.504614 
7   -0.234277 
8   -0.456508 
9   -0.62695 
10   0.221895 
11   0.192764 
12   0.181693 
13   0.181344 
14   0.139537 
15   0.125369 
16   0.123771 
17   0.135698 
18   0.359139 
19   0.404363 
 
>  <lowdin_charges> 
19 
1   -0.437912 
2   -0.223505 
3   -0.133789 
4   -0.090503 
5   -0.022032 
6   -0.263166 
7   -0.111786 
8   -0.203104 
9   -0.469667 
10   0.238995 
11   0.180456 
12   0.173987 
13   0.173827 
14   0.137577 
15   0.133713 
16   0.127389 
17   0.143739 
18   0.303794 
19   0.341984 
 
$$$$ 
 
