PCCDB-ID:  18393 
public computational chemistry database (PCCDB) project, http://pccdb.org 
 
 24 23  0  0  0  0  0  0  0  0999 V2000 
    0.2278    0.2919   -0.2804 C   0  0  0  0  0  0  0  0  0  0  0  0 
    1.7138   -0.7995   -1.9789 C   0  0  0  0  0  0  0  0  0  0  0  0 
    1.9057    1.6650   -1.5599 C   0  0  0  0  0  0  0  0  0  0  0  0 
    2.8254    0.9584    1.3547 C   0  0  0  0  0  0  0  0  0  0  0  0 
    2.7157   -0.0162    0.1747 C   0  0  0  0  0  0  0  0  0  0  0  0 
    3.9153    0.5505    2.3391 C   0  0  0  0  0  0  0  0  0  0  0  0 
    1.6396    0.2983   -0.8990 C   0  0  0  0  0  0  0  0  0  0  0  0 
    3.9392    1.5113    3.3912 O   0  0  0  0  0  0  0  0  0  0  0  0 
   -0.5347    0.4403   -1.0548 H   0  0  0  0  0  0  0  0  0  0  0  0 
    0.1017    1.0889    0.4607 H   0  0  0  0  0  0  0  0  0  0  0  0 
    0.0166   -0.6642    0.2153 H   0  0  0  0  0  0  0  0  0  0  0  0 
    0.9718   -0.6269   -2.7682 H   0  0  0  0  0  0  0  0  0  0  0  0 
    1.5214   -1.7913   -1.5510 H   0  0  0  0  0  0  0  0  0  0  0  0 
    2.7038   -0.8261   -2.4514 H   0  0  0  0  0  0  0  0  0  0  0  0 
    1.1935    1.8458   -2.3744 H   0  0  0  0  0  0  0  0  0  0  0  0 
    2.9162    1.7099   -1.9853 H   0  0  0  0  0  0  0  0  0  0  0  0 
    1.8049    2.4907   -0.8469 H   0  0  0  0  0  0  0  0  0  0  0  0 
    1.8790    1.0166    1.9057 H   0  0  0  0  0  0  0  0  0  0  0  0 
    3.0499    1.9734    1.0056 H   0  0  0  0  0  0  0  0  0  0  0  0 
    2.5208   -1.0262    0.5660 H   0  0  0  0  0  0  0  0  0  0  0  0 
    3.6923   -0.0721   -0.3297 H   0  0  0  0  0  0  0  0  0  0  0  0 
    4.8888    0.5051    1.8219 H   0  0  0  0  0  0  0  0  0  0  0  0 
    3.7073   -0.4600    2.7299 H   0  0  0  0  0  0  0  0  0  0  0  0 
    4.6327    1.2505    4.0157 H   0  0  0  0  0  0  0  0  0  0  0  0 
  1 11  1  0  0  0  0 
  1 10  1  0  0  0  0 
  2 13  1  0  0  0  0 
  2  7  1  0  0  0  0 
  3  7  1  0  0  0  0 
  3 17  1  0  0  0  0 
  4 18  1  0  0  0  0 
  4  6  1  0  0  0  0 
  5 20  1  0  0  0  0 
  5  4  1  0  0  0  0 
  6 23  1  0  0  0  0 
  6  8  1  0  0  0  0 
  7  1  1  0  0  0  0 
  7  5  1  0  0  0  0 
  8 24  1  0  0  0  0 
  9  1  1  0  0  0  0 
 12  2  1  0  0  0  0 
 14  2  1  0  0  0  0 
 15  3  1  0  0  0  0 
 16  3  1  0  0  0  0 
 19  4  1  0  0  0  0 
 21  5  1  0  0  0  0 
 22  6  1  0  0  0  0 
M  END 
>  <HBA> 
1 
 
>  <HBD> 
1 
 
>  <TPSA> 
20.23 
 
>  <cid> 
18393 
 
>  <dipole> 
1.45 
 
>  <excitation_energy_1> 
6.321 
 
>  <excitation_energy_2> 
7.107 
 
>  <excitation_energy_3> 
7.427 
 
>  <excitation_energy_4> 
7.581 
 
>  <homo_energy> 
-7.105 
 
>  <homo_lumo_gap> 
9.184 
 
>  <logP> 
1.805 
 
>  <lumo_energy> 
2.079 
 
>  <melting_point> 
10.08 
 
>  <molecular_refractivity> 
36.66 
 
>  <oscillator_strength_1> 
0.0008 
 
>  <oscillator_strength_2> 
0.0014 
 
>  <oscillator_strength_3> 
0.0178 
 
>  <oscillator_strength_4> 
0.0125 
 
>  <open_babel_can_smiles> 
OCCCC(C)(C)C 
 
>  <mulliken_charges> 
24 
1   -0.44597 
2   -0.441123 
3   -0.445724 
4   -0.272178 
5   -0.256174 
6   -0.027902 
7   0.103101 
8   -0.620916 
9   0.137317 
10   0.145389 
11   0.135894 
12   0.137161 
13   0.136383 
14   0.136371 
15   0.137252 
16   0.135873 
17   0.145385 
18   0.148107 
19   0.148181 
20   0.122501 
21   0.122437 
22   0.114553 
23   0.114567 
24   0.389515 
 
>  <lowdin_charges> 
24 
1   -0.445876 
2   -0.441113 
3   -0.444995 
4   -0.283925 
5   -0.273672 
6   -0.131315 
7   0.015846 
8   -0.475888 
9   0.147876 
10   0.149559 
11   0.145713 
12   0.14689 
13   0.14502 
14   0.145098 
15   0.14782 
16   0.145049 
17   0.149518 
18   0.149328 
19   0.148634 
20   0.136636 
21   0.137009 
22   0.121653 
23   0.121018 
24   0.344114 
 
$$$$ 
 
