PCCDB-ID:  22682 
public computational chemistry database (PCCDB) project, http://pccdb.org 
 
 30 30  0  0  0  0  0  0  0  0999 V2000 
    0.9897    0.4695    0.1945 C   0  0  0  0  0  0  0  0  0  0  0  0 
    2.3931   -0.5042   -1.6627 C   0  0  0  0  0  0  0  0  0  0  0  0 
    5.4527   -2.6987    2.5322 C   0  0  0  0  0  0  0  0  0  0  0  0 
    4.6443   -3.1099    1.2919 C   0  0  0  0  0  0  0  0  0  0  0  0 
    5.1829   -1.2345    2.9113 C   0  0  0  0  0  0  0  0  0  0  0  0 
    4.9119   -2.1680    0.1086 C   0  0  0  0  0  0  0  0  0  0  0  0 
    5.4332   -0.2948    1.7190 C   0  0  0  0  0  0  0  0  0  0  0  0 
    3.0301    1.6150   -0.5708 C   0  0  0  0  0  0  0  0  0  0  0  0 
    4.6271   -0.6934    0.4665 C   0  0  0  0  0  0  0  0  0  0  0  0 
    2.4250    0.2668   -0.3296 C   0  0  0  0  0  0  0  0  0  0  0  0 
    3.5347    2.6526   -0.7104 N   0  0  0  0  0  0  0  0  0  0  0  0 
    3.1753   -0.4761    0.6900 N   0  0  0  0  0  0  0  0  0  0  0  0 
    0.3789    1.0072   -0.5365 H   0  0  0  0  0  0  0  0  0  0  0  0 
    0.9888    1.0454    1.1265 H   0  0  0  0  0  0  0  0  0  0  0  0 
    0.5430   -0.5103    0.3875 H   0  0  0  0  0  0  0  0  0  0  0  0 
    1.7993    0.0404   -2.4034 H   0  0  0  0  0  0  0  0  0  0  0  0 
    1.9418   -1.4861   -1.4915 H   0  0  0  0  0  0  0  0  0  0  0  0 
    3.3970   -0.6450   -2.0718 H   0  0  0  0  0  0  0  0  0  0  0  0 
    6.5261   -2.8248    2.3250 H   0  0  0  0  0  0  0  0  0  0  0  0 
    5.2183   -3.3585    3.3773 H   0  0  0  0  0  0  0  0  0  0  0  0 
    3.5726   -3.0808    1.5282 H   0  0  0  0  0  0  0  0  0  0  0  0 
    4.8811   -4.1433    1.0088 H   0  0  0  0  0  0  0  0  0  0  0  0 
    5.8138   -0.9331    3.7570 H   0  0  0  0  0  0  0  0  0  0  0  0 
    4.1430   -1.1382    3.2569 H   0  0  0  0  0  0  0  0  0  0  0  0 
    4.3067   -2.4659   -0.7549 H   0  0  0  0  0  0  0  0  0  0  0  0 
    5.9651   -2.2511   -0.1985 H   0  0  0  0  0  0  0  0  0  0  0  0 
    6.5003   -0.3269    1.4601 H   0  0  0  0  0  0  0  0  0  0  0  0 
    5.2107    0.7472    1.9851 H   0  0  0  0  0  0  0  0  0  0  0  0 
    4.9661   -0.0530   -0.3608 H   0  0  0  0  0  0  0  0  0  0  0  0 
    3.0344   -0.0106    1.5836 H   0  0  0  0  0  0  0  0  0  0  0  0 
  1 15  1  0  0  0  0 
  1 14  1  0  0  0  0 
  2 17  1  0  0  0  0 
  2 10  1  0  0  0  0 
  3  5  1  0  0  0  0 
  3 20  1  0  0  0  0 
  4 21  1  0  0  0  0 
  4  3  1  0  0  0  0 
  5 24  1  0  0  0  0 
  5 23  1  0  0  0  0 
  6  9  1  0  0  0  0 
  6  4  1  0  0  0  0 
  7 28  1  0  0  0  0 
  7  5  1  0  0  0  0 
  8 10  1  0  0  0  0 
  9 12  1  0  0  0  0 
  9  7  1  0  0  0  0 
 10  1  1  0  0  0  0 
 10 12  1  0  0  0  0 
 11  8  3  0  0  0  0 
 12 30  1  0  0  0  0 
 13  1  1  0  0  0  0 
 16  2  1  0  0  0  0 
 18  2  1  0  0  0  0 
 19  3  1  0  0  0  0 
 22  4  1  0  0  0  0 
 25  6  1  0  0  0  0 
 26  6  1  0  0  0  0 
 27  7  1  0  0  0  0 
 29  9  1  0  0  0  0 
M  END 
>  <HBA> 
2 
 
>  <HBD> 
1 
 
>  <TPSA> 
35.82 
 
>  <cid> 
22682 
 
>  <dipole> 
3.07 
 
>  <excitation_energy_1> 
5.791 
 
>  <excitation_energy_2> 
6.122 
 
>  <excitation_energy_3> 
6.276 
 
>  <excitation_energy_4> 
6.381 
 
>  <homo_energy> 
-6.476 
 
>  <homo_lumo_gap> 
7.456 
 
>  <logP> 
2.602 
 
>  <lumo_energy> 
0.98 
 
>  <melting_point> 
65.46 
 
>  <molecular_refractivity> 
50.66 
 
>  <oscillator_strength_1> 
0.0065 
 
>  <oscillator_strength_2> 
0.0056 
 
>  <oscillator_strength_3> 
0.0237 
 
>  <oscillator_strength_4> 
0.0106 
 
>  <open_babel_can_smiles> 
N#CC(NC1CCCCC1)(C)C 
 
>  <mulliken_charges> 
30 
1   -0.450017 
2   -0.437327 
3   -0.256526 
4   -0.258793 
5   -0.262069 
6   -0.246426 
7   -0.298278 
8   0.337286 
9   0.034855 
10   0.122297 
11   -0.483098 
12   -0.559792 
13   0.164115 
14   0.156744 
15   0.168856 
16   0.159388 
17   0.165093 
18   0.16814 
19   0.12725 
20   0.131182 
21   0.143168 
22   0.128623 
23   0.136036 
24   0.129046 
25   0.131625 
26   0.124306 
27   0.14039 
28   0.142756 
29   0.134784 
30   0.306388 
 
>  <lowdin_charges> 
30 
1   -0.436106 
2   -0.437027 
3   -0.276671 
4   -0.277788 
5   -0.280331 
6   -0.282997 
7   -0.284162 
8   -0.038895 
9   -0.068357 
10   0.069706 
11   -0.140338 
12   -0.344357 
13   0.164648 
14   0.157642 
15   0.164128 
16   0.162798 
17   0.162176 
18   0.162042 
19   0.135231 
20   0.144475 
21   0.143719 
22   0.14214 
23   0.146962 
24   0.135337 
25   0.145377 
26   0.137159 
27   0.14694 
28   0.146191 
29   0.141384 
30   0.258975 
 
$$$$ 
 
