PCCDB-ID:  13176 
public computational chemistry database (PCCDB) project, http://pccdb.org 
 
 15 14  0  0  0  0  0  0  0  0999 V2000 
    0.9964   -0.2054    0.0363 C   0  0  0  0  0  0  0  0  0  0  0  0 
    5.7799    1.8579    3.0047 C   0  0  0  0  0  0  0  0  0  0  0  0 
    3.6653    1.8924    4.3562 C   0  0  0  0  0  0  0  0  0  0  0  0 
    2.3185    0.0324    0.0268 C   0  0  0  0  0  0  0  0  0  0  0  0 
    3.0502    0.5854    1.1106 C   0  0  0  0  0  0  0  0  0  0  0  0 
    3.7357    1.0522    2.0020 C   0  0  0  0  0  0  0  0  0  0  0  0 
    4.4611    1.6069    3.0991 C   0  0  0  0  0  0  0  0  0  0  0  0 
    0.5019   -0.6316   -0.8311 H   0  0  0  0  0  0  0  0  0  0  0  0 
    0.3808    0.0183    0.9023 H   0  0  0  0  0  0  0  0  0  0  0  0 
    6.3295    2.2827    3.8399 H   0  0  0  0  0  0  0  0  0  0  0  0 
    6.3365    1.6475    2.0972 H   0  0  0  0  0  0  0  0  0  0  0  0 
    4.3026    2.3233    5.1339 H   0  0  0  0  0  0  0  0  0  0  0  0 
    3.2115    0.9736    4.7463 H   0  0  0  0  0  0  0  0  0  0  0  0 
    2.8469    2.5915    4.1475 H   0  0  0  0  0  0  0  0  0  0  0  0 
    2.8940   -0.2069   -0.8679 H   0  0  0  0  0  0  0  0  0  0  0  0 
  1  9  1  0  0  0  0 
  2  7  2  0  0  0  0 
  2 10  1  0  0  0  0 
  3 13  1  0  0  0  0 
  3 12  1  0  0  0  0 
  4  1  2  0  0  0  0 
  4  5  1  0  0  0  0 
  5  6  3  0  0  0  0 
  6  7  1  0  0  0  0 
  7  3  1  0  0  0  0 
  8  1  1  0  0  0  0 
 11  2  1  0  0  0  0 
 14  3  1  0  0  0  0 
 15  4  1  0  0  0  0 
M  END 
>  <HBA> 
0 
 
>  <HBD> 
0 
 
>  <TPSA> 
0.0 
 
>  <cid> 
13176 
 
>  <dipole> 
0.32 
 
>  <excitation_energy_1> 
4.487 
 
>  <excitation_energy_2> 
4.581 
 
>  <excitation_energy_3> 
5.361 
 
>  <excitation_energy_4> 
5.611 
 
>  <homo_energy> 
-5.878 
 
>  <homo_lumo_gap> 
4.732 
 
>  <logP> 
1.752 
 
>  <lumo_energy> 
-1.146 
 
>  <melting_point> 
-47.66 
 
>  <molecular_refractivity> 
32.98 
 
>  <oscillator_strength_1> 
0.604 
 
>  <oscillator_strength_2> 
0.0004 
 
>  <oscillator_strength_3> 
0.0039 
 
>  <oscillator_strength_4> 
0.0033 
 
>  <open_babel_can_smiles> 
C=CC#CC(=C)C 
 
>  <mulliken_charges> 
15 
1   -0.31209 
2   -0.359876 
3   -0.492997 
4   -0.190339 
5   -0.031085 
6   0.055237 
7   0.08616 
8   0.149712 
9   0.153756 
10   0.141677 
11   0.152778 
12   0.152968 
13   0.167246 
14   0.167083 
15   0.159771 
 
>  <lowdin_charges> 
15 
1   -0.30742 
2   -0.327584 
3   -0.433522 
4   -0.140334 
5   -0.064478 
6   -0.058307 
7   0.013708 
8   0.16514 
9   0.166714 
10   0.161072 
11   0.167081 
12   0.158245 
13   0.164418 
14   0.164568 
15   0.170701 
 
$$$$ 
 
