PCCDB-ID:  16239 
public computational chemistry database (PCCDB) project, http://pccdb.org 
 
 11 10  0  0  1  0  0  0  0  0999 V2000 
    0.9935    0.0442    0.0514 C   0  0  0  0  0  0  0  0  0  0  0  0 
    4.2336   -0.6641   -1.1703 C   0  0  0  0  0  0  0  0  0  0  0  0 
    2.2013    0.0538    0.0699 C   0  0  0  0  0  0  0  0  0  0  0  0 
    3.6740    0.0908    0.0432 C   0  0  2  0  0  0  0  0  0  0  0  0 
    4.1670    1.4309    0.1024 O   0  0  0  0  0  0  0  0  0  0  0  0 
   -0.0730    0.0322    0.0540 H   0  0  0  0  0  0  0  0  0  0  0  0 
    3.9132   -1.7114   -1.1652 H   0  0  0  0  0  0  0  0  0  0  0  0 
    5.3269   -0.6252   -1.1497 H   0  0  0  0  0  0  0  0  0  0  0  0 
    3.8819   -0.2069   -2.1023 H   0  0  0  0  0  0  0  0  0  0  0  0 
    4.0542   -0.3773    0.9591 H   0  0  0  0  0  0  0  0  0  0  0  0 
    3.7535    1.9197   -0.6278 H   0  0  0  0  0  0  0  0  0  0  0  0 
  1  6  1  0  0  0  0 
  1  3  3  0  0  0  0 
  2  7  1  0  0  0  0 
  2  8  1  0  0  0  0 
  2  4  1  0  0  0  0 
  4  3  1  0  0  0  0 
  4  5  1  0  0  0  0 
  4 10  1  1  0  0  0 
  9  2  1  0  0  0  0 
 11  5  1  0  0  0  0 
M  END 
>  <HBA> 
1 
 
>  <HBD> 
1 
 
>  <TPSA> 
20.23 
 
>  <cid> 
16239 
 
>  <dipole> 
1.53 
 
>  <excitation_energy_1> 
6.237 
 
>  <excitation_energy_2> 
6.519 
 
>  <excitation_energy_3> 
6.73 
 
>  <excitation_energy_4> 
6.91 
 
>  <homo_energy> 
-7.244 
 
>  <homo_lumo_gap> 
8.136 
 
>  <logP> 
0.0 
 
>  <lumo_energy> 
0.893 
 
>  <melting_point> 
10.73 
 
>  <molecular_refractivity> 
20.67 
 
>  <oscillator_strength_1> 
0.002 
 
>  <oscillator_strength_2> 
0.0177 
 
>  <oscillator_strength_3> 
0.0113 
 
>  <oscillator_strength_4> 
0.0397 
 
>  <open_babel_can_smiles> 
C[C@H](C#C)O 
 
>  <mulliken_charges> 
11 
1   -0.484041 
2   -0.446074 
3   0.309769 
4   0.004066 
5   -0.603826 
6   0.192456 
7   0.15613 
8   0.162663 
9   0.146555 
10   0.172417 
11   0.389885 
 
>  <lowdin_charges> 
11 
1   -0.245163 
2   -0.447114 
3   -0.059604 
4   0.016889 
5   -0.451592 
6   0.204686 
7   0.159419 
8   0.158797 
9   0.152837 
10   0.165591 
11   0.345254 
 
$$$$ 
 
