PCCDB-ID:  33380 
public computational chemistry database (PCCDB) project, http://pccdb.org 
 
 40 40  0  0  1  0  0  0  0  0999 V2000 
    3.6436   -0.9592    0.2956 C   0  0  0  0  0  0  0  0  0  0  0  0 
   13.5987   -0.1718    0.6256 C   0  0  0  0  0  0  0  0  0  0  0  0 
    9.0790   -4.2709    6.8111 C   0  0  0  0  0  0  0  0  0  0  0  0 
    3.2737   -0.5467    1.7266 C   0  0  0  0  0  0  0  0  0  0  0  0 
   12.2825   -0.7692    1.1325 C   0  0  0  0  0  0  0  0  0  0  0  0 
    3.8117   -1.4809    2.8209 C   0  0  0  0  0  0  0  0  0  0  0  0 
   11.3419    0.2787    1.7376 C   0  0  0  0  0  0  0  0  0  0  0  0 
    5.3368   -1.4711    2.9727 C   0  0  0  0  0  0  0  0  0  0  0  0 
   10.0453   -0.3162    2.2973 C   0  0  0  0  0  0  0  0  0  0  0  0 
    8.6220   -3.3705    5.6974 C   0  0  2  0  0  0  0  0  0  0  0  0 
    6.9756   -2.4415    4.3621 C   0  0  0  0  0  0  0  0  0  0  0  0 
    9.3575   -1.8190    3.9728 C   0  0  0  0  0  0  0  0  0  0  0  0 
    5.7373   -2.3424    4.0649 N   0  0  0  0  0  0  0  0  0  0  0  0 
   10.3293   -1.2189    3.4041 N   0  0  0  0  0  0  0  0  0  0  0  0 
    7.3677   -3.2782    5.4084 N   0  0  0  0  0  0  0  0  0  0  0  0 
    9.6156   -2.6832    5.0375 N   0  0  0  0  0  0  0  0  0  0  0  0 
    8.0058   -1.7407    3.6835 N   0  0  0  0  0  0  0  0  0  0  0  0 
    3.1824   -0.2898   -0.4397 H   0  0  0  0  0  0  0  0  0  0  0  0 
    3.2998   -1.9784    0.0796 H   0  0  0  0  0  0  0  0  0  0  0  0 
    4.7263   -0.9341    0.1256 H   0  0  0  0  0  0  0  0  0  0  0  0 
   14.2480   -0.9426    0.1946 H   0  0  0  0  0  0  0  0  0  0  0  0 
   14.1527    0.3126    1.4393 H   0  0  0  0  0  0  0  0  0  0  0  0 
   13.4224    0.5852   -0.1490 H   0  0  0  0  0  0  0  0  0  0  0  0 
    8.2058   -4.7229    7.2815 H   0  0  0  0  0  0  0  0  0  0  0  0 
    9.6455   -3.7087    7.5635 H   0  0  0  0  0  0  0  0  0  0  0  0 
    9.7314   -5.0648    6.4268 H   0  0  0  0  0  0  0  0  0  0  0  0 
    2.1798   -0.5078    1.8111 H   0  0  0  0  0  0  0  0  0  0  0  0 
    3.6265    0.4782    1.9146 H   0  0  0  0  0  0  0  0  0  0  0  0 
   12.4858   -1.5350    1.8905 H   0  0  0  0  0  0  0  0  0  0  0  0 
   11.7687   -1.2809    0.3052 H   0  0  0  0  0  0  0  0  0  0  0  0 
    3.4896   -2.5126    2.6270 H   0  0  0  0  0  0  0  0  0  0  0  0 
    3.3803   -1.2023    3.7902 H   0  0  0  0  0  0  0  0  0  0  0  0 
   11.0849    1.0313    0.9787 H   0  0  0  0  0  0  0  0  0  0  0  0 
   11.8563    0.8100    2.5496 H   0  0  0  0  0  0  0  0  0  0  0  0 
    5.6658   -0.4282    3.1471 H   0  0  0  0  0  0  0  0  0  0  0  0 
    5.8055   -1.7898    2.0242 H   0  0  0  0  0  0  0  0  0  0  0  0 
    9.5138   -0.8409    1.4816 H   0  0  0  0  0  0  0  0  0  0  0  0 
    9.3858    0.5086    2.6211 H   0  0  0  0  0  0  0  0  0  0  0  0 
   10.5904   -2.7793    5.2877 H   0  0  0  0  0  0  0  0  0  0  0  0 
    7.7396   -1.1324    2.9234 H   0  0  0  0  0  0  0  0  0  0  0  0 
  1  4  1  0  0  0  0 
  2  5  1  0  0  0  0 
  2 22  1  0  0  0  0 
  3 24  1  0  0  0  0 
  3 25  1  0  0  0  0 
  4 27  1  0  0  0  0 
  4 28  1  0  0  0  0 
  4  6  1  0  0  0  0 
  5  7  1  0  0  0  0 
  5 29  1  0  0  0  0 
  6  8  1  0  0  0  0 
  6 32  1  0  0  0  0 
  7  9  1  0  0  0  0 
  7 34  1  0  0  0  0 
  8 35  1  0  0  0  0 
  8 13  1  0  0  0  0 
  9 38  1  0  0  0  0 
  9 14  1  0  0  0  0 
 10  3  1  6  0  0  0 
 11 15  2  0  0  0  0 
 12 16  1  0  0  0  0 
 13 11  1  0  0  0  0 
 14 12  2  0  0  0  0 
 15 10  1  0  0  0  0 
 16 39  1  0  0  0  0 
 16 10  1  0  0  0  0 
 17 12  1  0  0  0  0 
 17 11  1  0  0  0  0 
 18  1  1  0  0  0  0 
 19  1  1  0  0  0  0 
 20  1  1  0  0  0  0 
 21  2  1  0  0  0  0 
 23  2  1  0  0  0  0 
 26  3  1  0  0  0  0 
 30  5  1  0  0  0  0 
 31  6  1  0  0  0  0 
 33  7  1  0  0  0  0 
 36  8  1  0  0  0  0 
 37  9  1  0  0  0  0 
 40 17  1  0  0  0  0 
M  RAD  2  10   2  13   2 
M  END 
>  <HBA> 
5 
 
>  <HBD> 
2 
 
>  <TPSA> 
62.73 
 
>  <cid> 
33380 
 
>  <dipole> 
2.63 
 
>  <excitation_energy_1> 
4.884 
 
>  <excitation_energy_2> 
4.94 
 
>  <excitation_energy_3> 
5.142 
 
>  <excitation_energy_4> 
5.397 
 
>  <homo_energy> 
-6.161 
 
>  <homo_lumo_gap> 
5.581 
 
>  <logP> 
2.75 
 
>  <lumo_energy> 
-0.58 
 
>  <melting_point> 
120.8 
 
>  <molecular_refractivity> 
72.25 
 
>  <oscillator_strength_1> 
0.0001 
 
>  <oscillator_strength_2> 
0.1038 
 
>  <oscillator_strength_3> 
0.0954 
 
>  <oscillator_strength_4> 
0.0 
 
>  <open_babel_can_smiles> 
CCCC[N]C1=N[C](C)N/C(=N/CCCC)/N1 
 
>  <mulliken_charges> 
40 
1   -0.442671 
2   -0.44188 
3   -0.535359 
4   -0.256765 
5   -0.245354 
6   -0.246181 
7   -0.245807 
8   -0.164553 
9   -0.162551 
10   0.517906 
11   0.653219 
12   0.76497 
13   -0.461538 
14   -0.506877 
15   -0.488797 
16   -0.675649 
17   -0.74663 
18   0.141997 
19   0.144701 
20   0.138377 
21   0.140619 
22   0.141493 
23   0.138378 
24   0.205119 
25   0.172109 
26   0.175287 
27   0.13542 
28   0.125894 
29   0.151754 
30   0.122669 
31   0.141666 
32   0.144132 
33   0.122637 
34   0.138002 
35   0.120336 
36   0.128484 
37   0.124833 
38   0.128662 
39   0.346586 
40   0.355363 
 
>  <lowdin_charges> 
40 
1   -0.446375 
2   -0.446978 
3   -0.452826 
4   -0.272363 
5   -0.27624 
6   -0.275046 
7   -0.277 
8   -0.212198 
9   -0.207069 
10   0.116847 
11   0.11784 
12   0.136796 
13   -0.213864 
14   -0.270368 
15   -0.193658 
16   -0.229252 
17   -0.27141 
18   0.150634 
19   0.147027 
20   0.140817 
21   0.149797 
22   0.147363 
23   0.144967 
24   0.189013 
25   0.169717 
26   0.171344 
27   0.142478 
28   0.135395 
29   0.150286 
30   0.136598 
31   0.146093 
32   0.150306 
33   0.139574 
34   0.146233 
35   0.123951 
36   0.12936 
37   0.128443 
38   0.1328 
39   0.302445 
40   0.298519 
 
$$$$ 
 
