PCCDB-ID:  6739 
public computational chemistry database (PCCDB) project, http://pccdb.org 
 
 20 20  0  0  0  0  0  0  0  0999 V2000 
    0.9631    0.0887    0.1102 C   0  0  0  0  0  0  0  0  0  0  0  0 
    2.3382   -2.5180   -0.0420 C   0  0  0  0  0  0  0  0  0  0  0  0 
    4.6099    1.1867    0.2033 C   0  0  0  0  0  0  0  0  0  0  0  0 
    3.2156    1.1915    0.1969 C   0  0  0  0  0  0  0  0  0  0  0  0 
    5.2845   -0.0237    0.1470 C   0  0  0  0  0  0  0  0  0  0  0  0 
    2.4741    0.0070    0.1251 C   0  0  0  0  0  0  0  0  0  0  0  0 
    3.1395   -1.2410    0.0712 C   0  0  0  0  0  0  0  0  0  0  0  0 
    4.5462   -1.2080    0.1005 C   0  0  0  0  0  0  0  0  0  0  0  0 
    5.3430   -2.4484    0.0992 N   0  0  0  0  0  0  0  0  0  0  0  0 
    6.4769   -2.3955   -0.3787 O   0  0  0  0  0  0  0  0  0  0  0  0 
    4.8487   -3.4614    0.5970 O   0  0  0  0  0  0  0  0  0  0  0  0 
    0.6330    1.1200    0.2641 H   0  0  0  0  0  0  0  0  0  0  0  0 
    0.5119   -0.5265    0.8971 H   0  0  0  0  0  0  0  0  0  0  0  0 
    0.5431   -0.2516   -0.8448 H   0  0  0  0  0  0  0  0  0  0  0  0 
    1.3690   -2.3235   -0.5063 H   0  0  0  0  0  0  0  0  0  0  0  0 
    2.1587   -2.9594    0.9455 H   0  0  0  0  0  0  0  0  0  0  0  0 
    2.8561   -3.2783   -0.6275 H   0  0  0  0  0  0  0  0  0  0  0  0 
    5.1638    2.1190    0.2564 H   0  0  0  0  0  0  0  0  0  0  0  0 
    2.6840    2.1385    0.2458 H   0  0  0  0  0  0  0  0  0  0  0  0 
    6.3659   -0.0786    0.1455 H   0  0  0  0  0  0  0  0  0  0  0  0 
  1  6  1  0  0  0  0 
  1 12  1  0  0  0  0 
  1 13  1  0  0  0  0 
  2  7  1  0  0  0  0 
  2 16  1  0  0  0  0 
  3 18  1  0  0  0  0 
  4  3  1  0  0  0  0 
  4 19  1  0  0  0  0 
  5  3  2  0  0  0  0 
  6  4  2  0  0  0  0 
  7  8  2  0  0  0  0 
  7  6  1  0  0  0  0 
  8  5  1  0  0  0  0 
  9  8  1  0  0  0  0 
  9 11  2  0  0  0  0 
 10  9  2  0  0  0  0 
 14  1  1  0  0  0  0 
 15  2  1  0  0  0  0 
 17  2  1  0  0  0  0 
 20  5  1  0  0  0  0 
M  END 
>  <HBA> 
0 
 
>  <HBD> 
0 
 
>  <TPSA> 
45.82 
 
>  <cid> 
6739 
 
>  <dipole> 
4.57 
 
>  <excitation_energy_1> 
3.706 
 
>  <excitation_energy_2> 
3.942 
 
>  <excitation_energy_3> 
4.309 
 
>  <excitation_energy_4> 
4.633 
 
>  <homo_energy> 
-7.026 
 
>  <homo_lumo_gap> 
4.855 
 
>  <logP> 
2.735 
 
>  <lumo_energy> 
-2.171 
 
>  <melting_point> 
51.79 
 
>  <molecular_refractivity> 
45.2 
 
>  <oscillator_strength_1> 
0.018 
 
>  <oscillator_strength_2> 
0.0201 
 
>  <oscillator_strength_3> 
0.005 
 
>  <oscillator_strength_4> 
0.1329 
 
>  <open_babel_can_smiles> 
O=N(=O)c1cccc(c1C)C 
 
>  <mulliken_charges> 
20 
1   -0.538691 
2   -0.511885 
3   -0.141042 
4   -0.160425 
5   -0.139991 
6   0.110793 
7   0.119258 
8   0.205481 
9   0.352984 
10   -0.385681 
11   -0.389947 
12   0.160673 
13   0.17078 
14   0.171784 
15   0.152871 
16   0.183965 
17   0.18 
18   0.145385 
19   0.136113 
20   0.177574 
 
>  <lowdin_charges> 
20 
1   -0.443258 
2   -0.445188 
3   -0.154383 
4   -0.146465 
5   -0.141025 
6   -0.002335 
7   0.01346 
8   -0.001352 
9   0.304263 
10   -0.247315 
11   -0.244378 
12   0.159512 
13   0.16567 
14   0.164237 
15   0.15811 
16   0.175046 
17   0.174345 
18   0.166761 
19   0.161655 
20   0.182639 
 
$$$$ 
 
