PCCDB-ID:  51169 
public computational chemistry database (PCCDB) project, http://pccdb.org 
 
 23 23  0  0  0  0  0  0  0  0999 V2000 
    0.9732   -0.1430   -0.5464 C   0  0  0  0  0  0  0  0  0  0  0  0 
    1.0425    4.1119   -0.5268 C   0  0  0  0  0  0  0  0  0  0  0  0 
    4.5500   -1.3837   -0.0009 C   0  0  0  0  0  0  0  0  0  0  0  0 
    5.2138   -0.2121    0.3581 C   0  0  0  0  0  0  0  0  0  0  0  0 
    3.1822   -1.3566   -0.2830 C   0  0  0  0  0  0  0  0  0  0  0  0 
    4.4955    0.9811    0.4401 C   0  0  0  0  0  0  0  0  0  0  0  0 
    2.4443   -0.1708   -0.2151 C   0  0  0  0  0  0  0  0  0  0  0  0 
    2.0416    3.0065   -0.8066 C   0  0  0  0  0  0  0  0  0  0  0  0 
    3.1296    1.0009    0.1585 C   0  0  0  0  0  0  0  0  0  0  0  0 
    2.4345    2.2509    0.2931 N   0  0  0  0  0  0  0  0  0  0  0  0 
    2.5242    2.7918   -1.9065 O   0  0  0  0  0  0  0  0  0  0  0  0 
    1.5556    2.2984    1.4134 O   0  0  0  0  0  0  0  0  0  0  0  0 
    0.5995   -1.1509   -0.7495 H   0  0  0  0  0  0  0  0  0  0  0  0 
    0.7895    0.4715   -1.4360 H   0  0  0  0  0  0  0  0  0  0  0  0 
    0.3880    0.2828    0.2756 H   0  0  0  0  0  0  0  0  0  0  0  0 
    1.3740    4.7566    0.2933 H   0  0  0  0  0  0  0  0  0  0  0  0 
    0.0731    3.6947   -0.2364 H   0  0  0  0  0  0  0  0  0  0  0  0 
    0.9317    4.6994   -1.4394 H   0  0  0  0  0  0  0  0  0  0  0  0 
    5.0947   -2.3219   -0.0662 H   0  0  0  0  0  0  0  0  0  0  0  0 
    6.2787   -0.2233    0.5717 H   0  0  0  0  0  0  0  0  0  0  0  0 
    2.6749   -2.2746   -0.5699 H   0  0  0  0  0  0  0  0  0  0  0  0 
    4.9866    1.9109    0.7125 H   0  0  0  0  0  0  0  0  0  0  0  0 
    2.1162    2.6348    2.1345 H   0  0  0  0  0  0  0  0  0  0  0  0 
  1  7  1  0  0  0  0 
  1 15  1  0  0  0  0 
  2 17  1  0  0  0  0 
  2 16  1  0  0  0  0 
  3  4  2  0  0  0  0 
  4  6  1  0  0  0  0 
  4 20  1  0  0  0  0 
  5  7  2  0  0  0  0 
  5  3  1  0  0  0  0 
  6 22  1  0  0  0  0 
  7  9  1  0  0  0  0 
  8  2  1  0  0  0  0 
  8 10  1  0  0  0  0 
  9 10  1  0  0  0  0 
  9  6  2  0  0  0  0 
 10 12  1  0  0  0  0 
 11  8  2  0  0  0  0 
 12 23  1  0  0  0  0 
 13  1  1  0  0  0  0 
 14  1  1  0  0  0  0 
 18  2  1  0  0  0  0 
 19  3  1  0  0  0  0 
 21  5  1  0  0  0  0 
M  END 
>  <HBA> 
3 
 
>  <HBD> 
1 
 
>  <TPSA> 
40.54 
 
>  <cid> 
51169 
 
>  <dipole> 
3.13 
 
>  <excitation_energy_1> 
5.117 
 
>  <excitation_energy_2> 
5.157 
 
>  <excitation_energy_3> 
5.31 
 
>  <excitation_energy_4> 
5.602 
 
>  <homo_energy> 
-6.607 
 
>  <homo_lumo_gap> 
6.144 
 
>  <logP> 
1.737 
 
>  <lumo_energy> 
-0.463 
 
>  <melting_point> 
92.8 
 
>  <molecular_refractivity> 
46.54 
 
>  <oscillator_strength_1> 
0.0078 
 
>  <oscillator_strength_2> 
0.0107 
 
>  <oscillator_strength_3> 
0.0129 
 
>  <oscillator_strength_4> 
0.0372 
 
>  <open_babel_can_smiles> 
CC(=O)N(c1ccccc1C)O 
 
>  <mulliken_charges> 
23 
1   -0.549827 
2   -0.520071 
3   -0.110209 
4   -0.146119 
5   -0.207065 
6   -0.136713 
7   0.204559 
8   0.568005 
9   0.233485 
10   -0.333265 
11   -0.481921 
12   -0.504425 
13   0.153272 
14   0.183864 
15   0.179786 
16   0.161514 
17   0.18245 
18   0.178469 
19   0.132759 
20   0.133537 
21   0.128548 
22   0.13394 
23   0.415428 
 
>  <lowdin_charges> 
23 
1   -0.448873 
2   -0.470084 
3   -0.146658 
4   -0.15868 
5   -0.164939 
6   -0.151725 
7   0.015677 
8   0.162421 
9   0.027653 
10   -0.014476 
11   -0.283915 
12   -0.380814 
13   0.157224 
14   0.172387 
15   0.170009 
16   0.167632 
17   0.176562 
18   0.174035 
19   0.160139 
20   0.158537 
21   0.158091 
22   0.163132 
23   0.356665 
 
$$$$ 
 
