PCCDB-ID:  12257 
public computational chemistry database (PCCDB) project, http://pccdb.org 
 
 14 13  0  0  0  0  0  0  0  0999 V2000 
    0.8888    0.1497    0.0546 C   0  0  0  0  0  0  0  0  0  0  0  0 
    3.0271    1.3958   -0.5653 C   0  0  0  0  0  0  0  0  0  0  0  0 
    3.0087   -1.1571    1.9562 C   0  0  0  0  0  0  0  0  0  0  0  0 
    2.4135    0.1379    0.0323 C   0  0  0  0  0  0  0  0  0  0  0  0 
    2.7127   -2.2087    1.4406 O   0  0  0  0  0  0  0  0  0  0  0  0 
    2.9153    0.0615    1.4054 O   0  0  0  0  0  0  0  0  0  0  0  0 
    0.4996    0.2358   -0.9661 H   0  0  0  0  0  0  0  0  0  0  0  0 
    0.5184    1.0002    0.6376 H   0  0  0  0  0  0  0  0  0  0  0  0 
    0.5023   -0.7755    0.4907 H   0  0  0  0  0  0  0  0  0  0  0  0 
    2.7065    1.5101   -1.6065 H   0  0  0  0  0  0  0  0  0  0  0  0 
    4.1201    1.3448   -0.5441 H   0  0  0  0  0  0  0  0  0  0  0  0 
    2.7115    2.2845   -0.0080 H   0  0  0  0  0  0  0  0  0  0  0  0 
    3.4109   -1.0548    2.9766 H   0  0  0  0  0  0  0  0  0  0  0  0 
    2.7691   -0.7541   -0.4915 H   0  0  0  0  0  0  0  0  0  0  0  0 
  1  9  1  0  0  0  0 
  1  8  1  0  0  0  0 
  2 11  1  0  0  0  0 
  2 12  1  0  0  0  0 
  2  4  1  0  0  0  0 
  3 13  1  0  0  0  0 
  4  1  1  0  0  0  0 
  4  6  1  0  0  0  0 
  5  3  2  0  0  0  0 
  6  3  1  0  0  0  0 
  7  1  1  0  0  0  0 
 10  2  1  0  0  0  0 
 14  4  1  0  0  0  0 
M  END 
>  <HBA> 
2 
 
>  <HBD> 
0 
 
>  <TPSA> 
26.3 
 
>  <cid> 
12257 
 
>  <dipole> 
2.06 
 
>  <excitation_energy_1> 
5.791 
 
>  <excitation_energy_2> 
7.404 
 
>  <excitation_energy_3> 
7.74 
 
>  <excitation_energy_4> 
7.769 
 
>  <homo_energy> 
-7.568 
 
>  <homo_lumo_gap> 
7.837 
 
>  <logP> 
1.204 
 
>  <lumo_energy> 
0.269 
 
>  <melting_point> 
-40.46 
 
>  <molecular_refractivity> 
23.02 
 
>  <oscillator_strength_1> 
0.0014 
 
>  <oscillator_strength_2> 
0.0031 
 
>  <oscillator_strength_3> 
0.0533 
 
>  <oscillator_strength_4> 
0.1387 
 
>  <open_babel_can_smiles> 
O=COC(C)C 
 
>  <mulliken_charges> 
14 
1   -0.45714 
2   -0.451186 
3   0.390451 
4   0.118504 
5   -0.424143 
6   -0.422465 
7   0.150486 
8   0.153669 
9   0.174423 
10   0.151412 
11   0.159686 
12   0.157638 
13   0.134186 
14   0.164479 
 
>  <lowdin_charges> 
14 
1   -0.45371 
2   -0.444627 
3   0.089553 
4   0.011589 
5   -0.258523 
6   -0.189602 
7   0.157589 
8   0.156084 
9   0.166991 
10   0.157045 
11   0.157903 
12   0.15789 
13   0.135979 
14   0.15584 
 
$$$$ 
 
