PCCDB-ID:  34556 
public computational chemistry database (PCCDB) project, http://pccdb.org 
 
 36 37  0  0  0  0  0  0  0  0999 V2000 
    8.1808   -6.0599    1.3286 C   0  0  0  0  0  0  0  0  0  0  0  0 
    5.5168    4.9388   -3.0249 C   0  0  0  0  0  0  0  0  0  0  0  0 
   10.1469   -3.8743    0.9975 C   0  0  0  0  0  0  0  0  0  0  0  0 
    8.3507    4.4750   -2.2898 C   0  0  0  0  0  0  0  0  0  0  0  0 
    6.4264   -4.4991    0.4079 C   0  0  0  0  0  0  0  0  0  0  0  0 
    5.0410    2.5645   -2.3074 C   0  0  0  0  0  0  0  0  0  0  0  0 
    6.0117   -3.2730   -0.1060 C   0  0  0  0  0  0  0  0  0  0  0  0 
    5.4138    1.3248   -1.8051 C   0  0  0  0  0  0  0  0  0  0  0  0 
    8.2781   -2.4508    0.0989 C   0  0  0  0  0  0  0  0  0  0  0  0 
    7.6852    2.1381   -1.6212 C   0  0  0  0  0  0  0  0  0  0  0  0 
    7.7583   -4.7219    0.7730 C   0  0  0  0  0  0  0  0  0  0  0  0 
    5.9670    3.6066   -2.4766 C   0  0  0  0  0  0  0  0  0  0  0  0 
    8.6992   -3.6735    0.6134 C   0  0  0  0  0  0  0  0  0  0  0  0 
    7.3164    3.3863   -2.1255 C   0  0  0  0  0  0  0  0  0  0  0  0 
    6.9374   -2.2375   -0.2644 C   0  0  0  0  0  0  0  0  0  0  0  0 
    6.7542    1.1045   -1.4557 C   0  0  0  0  0  0  0  0  0  0  0  0 
    6.4229   -1.0279   -0.7917 N   0  0  0  0  0  0  0  0  0  0  0  0 
    7.2724   -0.1049   -0.9309 N   0  0  0  0  0  0  0  0  0  0  0  0 
    7.3334   -6.7495    1.3867 H   0  0  0  0  0  0  0  0  0  0  0  0 
    8.6052   -5.9645    2.3368 H   0  0  0  0  0  0  0  0  0  0  0  0 
    8.9543   -6.5311    0.7079 H   0  0  0  0  0  0  0  0  0  0  0  0 
    4.4473    4.9309   -3.2553 H   0  0  0  0  0  0  0  0  0  0  0  0 
    6.0554    5.2027   -3.9445 H   0  0  0  0  0  0  0  0  0  0  0  0 
    5.6992    5.7534   -2.3115 H   0  0  0  0  0  0  0  0  0  0  0  0 
   10.7303   -2.9671    0.8157 H   0  0  0  0  0  0  0  0  0  0  0  0 
   10.6094   -4.6901    0.4266 H   0  0  0  0  0  0  0  0  0  0  0  0 
   10.2532   -4.1340    2.0588 H   0  0  0  0  0  0  0  0  0  0  0  0 
    9.3344    4.1371   -1.9509 H   0  0  0  0  0  0  0  0  0  0  0  0 
    8.0901    5.3738   -1.7161 H   0  0  0  0  0  0  0  0  0  0  0  0 
    8.4479    4.7881   -3.3377 H   0  0  0  0  0  0  0  0  0  0  0  0 
    5.7031   -5.3018    0.5299 H   0  0  0  0  0  0  0  0  0  0  0  0 
    4.0021    2.7389   -2.5789 H   0  0  0  0  0  0  0  0  0  0  0  0 
    4.9787   -3.0961   -0.3897 H   0  0  0  0  0  0  0  0  0  0  0  0 
    4.6941    0.5245   -1.6761 H   0  0  0  0  0  0  0  0  0  0  0  0 
    8.9821   -1.6353   -0.0303 H   0  0  0  0  0  0  0  0  0  0  0  0 
    8.7164    1.9393   -1.3416 H   0  0  0  0  0  0  0  0  0  0  0  0 
  1 19  1  0  0  0  0 
  1 20  1  0  0  0  0 
  2 12  1  0  0  0  0 
  2 24  1  0  0  0  0 
  3 27  1  0  0  0  0 
  4 14  1  0  0  0  0 
  4 28  1  0  0  0  0 
  4 29  1  0  0  0  0 
  5 31  1  0  0  0  0 
  5 11  2  0  0  0  0 
  6  8  1  0  0  0  0 
  7  5  1  0  0  0  0 
  8 34  1  0  0  0  0 
  8 16  2  0  0  0  0 
  9 13  2  0  0  0  0 
 10 16  1  0  0  0  0 
 10 36  1  0  0  0  0 
 11  1  1  0  0  0  0 
 12  6  2  0  0  0  0 
 12 14  1  0  0  0  0 
 13 11  1  0  0  0  0 
 13  3  1  0  0  0  0 
 14 10  2  0  0  0  0 
 15  7  2  0  0  0  0 
 15  9  1  0  0  0  0 
 16 18  1  0  0  0  0 
 17 15  1  0  0  0  0 
 18 17  1  0  0  0  0 
 21  1  1  0  0  0  0 
 22  2  1  0  0  0  0 
 23  2  1  0  0  0  0 
 25  3  1  0  0  0  0 
 26  3  1  0  0  0  0 
 30  4  1  0  0  0  0 
 32  6  1  0  0  0  0 
 33  7  1  0  0  0  0 
 35  9  1  0  0  0  0 
M  RAD  2  17   2  18   2 
M  END 
>  <HBA> 
2 
 
>  <HBD> 
0 
 
>  <TPSA> 
24.72 
 
>  <cid> 
34556 
 
>  <dipole> 
0.62 
 
>  <excitation_energy_1> 
2.63 
 
>  <excitation_energy_2> 
3.475 
 
>  <excitation_energy_3> 
3.907 
 
>  <excitation_energy_4> 
3.928 
 
>  <homo_energy> 
-5.761 
 
>  <homo_lumo_gap> 
3.821 
 
>  <logP> 
5.336 
 
>  <lumo_energy> 
-1.94 
 
>  <melting_point> 
80.17 
 
>  <molecular_refractivity> 
76.92 
 
>  <oscillator_strength_1> 
0.0 
 
>  <oscillator_strength_2> 
0.889 
 
>  <oscillator_strength_3> 
0.0581 
 
>  <oscillator_strength_4> 
0.0219 
 
>  <open_babel_can_smiles> 
Cc1ccc(cc1C)[N][N]c1ccc(c(c1)C)C 
 
>  <mulliken_charges> 
36 
1   -0.534112 
2   -0.534555 
3   -0.531609 
4   -0.533268 
5   -0.195902 
6   -0.201614 
7   -0.13998 
8   -0.124931 
9   -0.191876 
10   -0.206721 
11   0.143174 
12   0.141863 
13   0.120838 
14   0.127444 
15   0.277329 
16   0.278395 
17   -0.31449 
18   -0.314615 
19   0.156864 
20   0.162211 
21   0.162226 
22   0.157236 
23   0.16189 
24   0.162303 
25   0.160195 
26   0.15943 
27   0.159315 
28   0.158851 
29   0.159666 
30   0.160247 
31   0.124709 
32   0.12546 
33   0.136568 
34   0.150847 
35   0.145874 
36   0.130738 
 
>  <lowdin_charges> 
36 
1   -0.442463 
2   -0.441149 
3   -0.441373 
4   -0.439671 
5   -0.17008 
6   -0.162207 
7   -0.149115 
8   -0.15644 
9   -0.163746 
10   -0.156483 
11   0.002612 
12   0.001494 
13   -0.005244 
14   -0.010315 
15   0.007833 
16   0.007746 
17   -0.084671 
18   -0.085459 
19   0.158789 
20   0.159607 
21   0.161429 
22   0.156785 
23   0.160389 
24   0.160892 
25   0.160169 
26   0.15947 
27   0.157071 
28   0.158697 
29   0.158961 
30   0.157717 
31   0.156567 
32   0.153854 
33   0.164469 
34   0.172886 
35   0.169756 
36   0.161224 
 
$$$$ 
 
