PCCDB-ID:  19385 
public computational chemistry database (PCCDB) project, http://pccdb.org 
 
 21 22  0  0  1  0  0  0  0  0999 V2000 
   -1.3594   -0.0515   -0.1572 C   0  0  0  0  0  0  0  0  0  0  0  0 
   -0.6091    1.1120   -0.0550 C   0  0  0  0  0  0  0  0  0  0  0  0 
    0.6790   -1.3435    0.0435 C   0  0  0  0  0  0  0  0  0  0  0  0 
   -0.7179   -1.3028   -0.1076 C   0  0  0  0  0  0  0  0  0  0  0  0 
    0.7804    1.0893    0.0994 C   0  0  0  0  0  0  0  0  0  0  0  0 
    1.4152   -0.1664    0.1497 C   0  0  0  0  0  0  0  0  0  0  0  0 
    1.5539    2.3656    0.2189 C   0  0  1  0  0  0  0  0  0  0  0  0 
    3.7317    2.7263   -0.2104 C   0  0  0  0  0  0  0  0  0  0  0  0 
   -1.4529   -2.4787   -0.1551 N   0  0  0  0  0  0  0  0  0  0  0  0 
    2.3200    2.5062    1.4803 N   0  0  0  0  0  0  0  0  0  0  0  0 
    3.5250    2.7091    1.2338 N   0  0  0  0  0  0  0  0  0  0  0  0 
    2.7690   -0.1679    0.2978 O   0  0  0  0  0  0  0  0  0  0  0  0 
    2.5540    2.5299   -0.8106 O   0  0  0  0  0  0  0  0  0  0  0  0 
    5.1658    2.9663   -0.9404 S   0  0  0  0  0  0  0  0  0  0  0  0 
   -2.4384   -0.0002   -0.2716 H   0  0  0  0  0  0  0  0  0  0  0  0 
   -1.1164    2.0728   -0.0992 H   0  0  0  0  0  0  0  0  0  0  0  0 
    1.1908   -2.3034    0.0888 H   0  0  0  0  0  0  0  0  0  0  0  0 
    0.8721    3.2234    0.1651 H   0  0  0  0  0  0  0  0  0  0  0  0 
   -2.3732   -2.4090   -0.5688 H   0  0  0  0  0  0  0  0  0  0  0  0 
   -0.9559   -3.3077   -0.4534 H   0  0  0  0  0  0  0  0  0  0  0  0 
    3.0969   -1.0794    0.3420 H   0  0  0  0  0  0  0  0  0  0  0  0 
  1  4  2  0  0  0  0 
  1  2  1  0  0  0  0 
  2  5  2  0  0  0  0 
  3 17  1  0  0  0  0 
  3  6  2  0  0  0  0 
  4  3  1  0  0  0  0 
  5  6  1  0  0  0  0 
  5  7  1  0  0  0  0 
  6 12  1  0  0  0  0 
  7 18  1  6  0  0  0 
  7 10  1  0  0  0  0 
  8 11  2  0  0  0  0 
  9  4  1  0  0  0  0 
 11 10  1  0  0  0  0 
 12 21  1  0  0  0  0 
 13  8  1  0  0  0  0 
 13  7  1  0  0  0  0 
 14  8  2  0  0  0  0 
 15  1  1  0  0  0  0 
 16  2  1  0  0  0  0 
 19  9  1  0  0  0  0 
 20  9  1  0  0  0  0 
M  RAD  1  10   2 
M  END 
>  <HBA> 
6 
 
>  <HBD> 
2 
 
>  <TPSA> 
112.29 
 
>  <cid> 
19385 
 
>  <dipole> 
7.67 
 
>  <excitation_energy_1> 
2.245 
 
>  <excitation_energy_2> 
2.687 
 
>  <excitation_energy_3> 
3.412 
 
>  <excitation_energy_4> 
3.508 
 
>  <homo_energy> 
-5.973 
 
>  <homo_lumo_gap> 
3.284 
 
>  <logP> 
1.193 
 
>  <lumo_energy> 
-2.689 
 
>  <melting_point> 
157.13 
 
>  <molecular_refractivity> 
60.91 
 
>  <oscillator_strength_1> 
0.0002 
 
>  <oscillator_strength_2> 
0.0039 
 
>  <oscillator_strength_3> 
0.0003 
 
>  <oscillator_strength_4> 
0.0035 
 
>  <open_babel_can_smiles> 
Nc1ccc(c(c1)O)[C@H]1[N]N=[C](=S)O1 
 
>  <mulliken_charges> 
21 
1   -0.17668 
2   -0.205231 
3   -0.242377 
4   0.334504 
5   0.163042 
6   0.319082 
7   0.075744 
8   0.344167 
9   -0.792919 
10   -0.135239 
11   -0.170447 
12   -0.644999 
13   -0.397224 
14   -0.120929 
15   0.12569 
16   0.138998 
17   0.117084 
18   0.189497 
19   0.330679 
20   0.328441 
21   0.419118 
 
>  <lowdin_charges> 
21 
1   -0.217089 
2   -0.128185 
3   -0.25341 
4   0.084312 
5   -0.084319 
6   0.127109 
7   0.028879 
8   -0.002714 
9   -0.473536 
10   -0.048794 
11   -0.05481 
12   -0.364773 
13   -0.13733 
14   -0.055933 
15   0.157066 
16   0.162594 
17   0.154553 
18   0.177752 
19   0.282057 
20   0.281803 
21   0.364767 
 
$$$$ 
 
