PCCDB-ID:  68443 
public computational chemistry database (PCCDB) project, http://pccdb.org 
 
 18 18  0  0  0  0  0  0  0  0999 V2000 
   -1.2327   -0.6781   -0.1242 C   0  0  0  0  0  0  0  0  0  0  0  0 
   -0.0373   -1.3745   -0.1388 C   0  0  0  0  0  0  0  0  0  0  0  0 
   -1.2347    0.7206   -0.0329 C   0  0  0  0  0  0  0  0  0  0  0  0 
    1.1925   -0.6801   -0.0673 C   0  0  0  0  0  0  0  0  0  0  0  0 
   -0.0432    1.4414    0.0306 C   0  0  0  0  0  0  0  0  0  0  0  0 
    1.1846    0.7290   -0.0034 C   0  0  0  0  0  0  0  0  0  0  0  0 
    2.5059   -1.3596   -0.0609 C   0  0  0  0  0  0  0  0  0  0  0  0 
    0.0046    2.8222    0.1707 N   0  0  0  0  0  0  0  0  0  0  0  0 
    2.3033    1.4830    0.0259 O   0  0  0  0  0  0  0  0  0  0  0  0 
    3.5744   -0.7631   -0.1542 O   0  0  0  0  0  0  0  0  0  0  0  0 
    2.5428   -2.7032    0.0624 O   0  0  0  0  0  0  0  0  0  0  0  0 
   -2.1758   -1.2118   -0.1888 H   0  0  0  0  0  0  0  0  0  0  0  0 
   -0.0639   -2.4561   -0.2506 H   0  0  0  0  0  0  0  0  0  0  0  0 
   -2.1782    1.2610   -0.0133 H   0  0  0  0  0  0  0  0  0  0  0  0 
   -0.7874    3.3296   -0.2009 H   0  0  0  0  0  0  0  0  0  0  0  0 
    0.8962    3.2328   -0.0767 H   0  0  0  0  0  0  0  0  0  0  0  0 
    3.0694    0.8576   -0.0649 H   0  0  0  0  0  0  0  0  0  0  0  0 
    1.6548   -3.0486    0.2474 H   0  0  0  0  0  0  0  0  0  0  0  0 
  1  3  1  0  0  0  0 
  2  1  2  0  0  0  0 
  2  4  1  0  0  0  0 
  3 14  1  0  0  0  0 
  3  5  2  0  0  0  0 
  4  7  1  0  0  0  0 
  4  6  2  0  0  0  0 
  5  8  1  0  0  0  0 
  6  9  1  0  0  0  0 
  6  5  1  0  0  0  0 
  7 11  1  0  0  0  0 
 10  7  2  0  0  0  0 
 11 18  1  0  0  0  0 
 12  1  1  0  0  0  0 
 13  2  1  0  0  0  0 
 15  8  1  0  0  0  0 
 16  8  1  0  0  0  0 
 17  9  1  0  0  0  0 
M  END 
>  <HBA> 
4 
 
>  <HBD> 
3 
 
>  <TPSA> 
83.55 
 
>  <cid> 
68443 
 
>  <dipole> 
4.0 
 
>  <excitation_energy_1> 
3.653 
 
>  <excitation_energy_2> 
4.783 
 
>  <excitation_energy_3> 
4.865 
 
>  <excitation_energy_4> 
5.045 
 
>  <homo_energy> 
-5.543 
 
>  <homo_lumo_gap> 
4.204 
 
>  <logP> 
1.254 
 
>  <lumo_energy> 
-1.339 
 
>  <melting_point> 
185.78 
 
>  <molecular_refractivity> 
39.83 
 
>  <oscillator_strength_1> 
0.0716 
 
>  <oscillator_strength_2> 
0.0126 
 
>  <oscillator_strength_3> 
0.0534 
 
>  <oscillator_strength_4> 
0.0102 
 
>  <open_babel_can_smiles> 
OC(=O)c1cccc(c1O)N 
 
>  <mulliken_charges> 
18 
1   -0.139273 
2   -0.227567 
3   -0.181166 
4   0.031915 
5   0.296182 
6   0.263438 
7   0.585134 
8   -0.792361 
9   -0.67345 
10   -0.513808 
11   -0.57104 
12   0.132858 
13   0.116522 
14   0.12773 
15   0.322463 
16   0.348532 
17   0.451016 
18   0.422874 
 
>  <lowdin_charges> 
18 
1   -0.165367 
2   -0.1847 
3   -0.18049 
4   -0.111775 
5   0.040042 
6   0.101268 
7   0.213359 
8   -0.481201 
9   -0.381831 
10   -0.284822 
11   -0.338731 
12   0.161654 
13   0.147973 
14   0.159534 
15   0.279827 
16   0.290668 
17   0.373911 
18   0.360681 
 
$$$$ 
 
