PCCDB-ID:  20836 
public computational chemistry database (PCCDB) project, http://pccdb.org 
 
 15 14  0  0  0  0  0  0  0  0999 V2000 
    1.5494    0.5298   -0.1607 C   0  0  0  0  0  0  0  0  0  0  0  0 
    3.0271    0.1330   -0.0797 C   0  0  0  0  0  0  0  0  0  0  0  0 
    3.2593   -1.1701    0.6957 C   0  0  0  0  0  0  0  0  0  0  0  0 
    4.7343   -1.5629    0.7903 C   0  0  0  0  0  0  0  0  0  0  0  0 
    4.9391   -2.8026    1.4603 O   0  0  0  0  0  0  0  0  0  0  0  0 
    1.4168    1.4614   -0.7223 H   0  0  0  0  0  0  0  0  0  0  0  0 
    1.1237    0.6794    0.8391 H   0  0  0  0  0  0  0  0  0  0  0  0 
    0.9578   -0.2476   -0.6592 H   0  0  0  0  0  0  0  0  0  0  0  0 
    3.5985    0.9454    0.3917 H   0  0  0  0  0  0  0  0  0  0  0  0 
    3.4327    0.0265   -1.0957 H   0  0  0  0  0  0  0  0  0  0  0  0 
    2.7087   -1.9951    0.2243 H   0  0  0  0  0  0  0  0  0  0  0  0 
    2.8508   -1.0653    1.7136 H   0  0  0  0  0  0  0  0  0  0  0  0 
    5.3102   -0.7533    1.2703 H   0  0  0  0  0  0  0  0  0  0  0  0 
    5.1528   -1.7034   -0.2125 H   0  0  0  0  0  0  0  0  0  0  0  0 
    4.6020   -2.7017    2.3641 H   0  0  0  0  0  0  0  0  0  0  0  0 
  1  2  1  0  0  0  0 
  1  7  1  0  0  0  0 
  2  9  1  0  0  0  0 
  2  3  1  0  0  0  0 
  3  4  1  0  0  0  0 
  3 12  1  0  0  0  0 
  4 13  1  0  0  0  0 
  4  5  1  0  0  0  0 
  5 15  1  0  0  0  0 
  6  1  1  0  0  0  0 
  8  1  1  0  0  0  0 
 10  2  1  0  0  0  0 
 11  3  1  0  0  0  0 
 14  4  1  0  0  0  0 
M  END 
>  <HBA> 
1 
 
>  <HBD> 
1 
 
>  <TPSA> 
20.23 
 
>  <cid> 
20836 
 
>  <dipole> 
1.72 
 
>  <excitation_energy_1> 
6.45 
 
>  <excitation_energy_2> 
7.239 
 
>  <excitation_energy_3> 
7.381 
 
>  <excitation_energy_4> 
7.606 
 
>  <homo_energy> 
-7.075 
 
>  <homo_lumo_gap> 
9.176 
 
>  <logP> 
0.779 
 
>  <lumo_energy> 
2.101 
 
>  <melting_point> 
-6.62 
 
>  <molecular_refractivity> 
22.5 
 
>  <oscillator_strength_1> 
0.0089 
 
>  <oscillator_strength_2> 
0.0164 
 
>  <oscillator_strength_3> 
0.0193 
 
>  <oscillator_strength_4> 
0.0205 
 
>  <open_babel_can_smiles> 
CCCCO 
 
>  <mulliken_charges> 
15 
1   -0.44 
2   -0.254563 
3   -0.270472 
4   -0.025926 
5   -0.615762 
6   0.143889 
7   0.141974 
8   0.144823 
9   0.13229 
10   0.135569 
11   0.144769 
12   0.118073 
13   0.116101 
14   0.144552 
15   0.384684 
 
>  <lowdin_charges> 
15 
1   -0.443744 
2   -0.272938 
3   -0.293927 
4   -0.136324 
5   -0.467395 
6   0.150429 
7   0.146135 
8   0.149294 
9   0.14059 
10   0.140649 
11   0.148057 
12   0.132201 
13   0.124056 
14   0.144569 
15   0.338347 
 
$$$$ 
 
