PCCDB-ID:  16907 
public computational chemistry database (PCCDB) project, http://pccdb.org 
 
 12 11  0  0  0  0  0  0  0  0999 V2000 
    0.8455    0.5335    1.2295 C   0  0  0  0  0  0  0  0  0  0  0  0 
    1.7426   -2.8024   -0.0980 C   0  0  0  0  0  0  0  0  0  0  0  0 
    1.9065   -1.3447    0.2882 C   0  0  0  0  0  0  0  0  0  0  0  0 
    2.9308   -0.7133    0.1445 O   0  0  0  0  0  0  0  0  0  0  0  0 
    0.7725   -0.8420    0.8116 O   0  0  0  0  0  0  0  0  0  0  0  0 
    2.7959   -3.8957    0.9445 S   0  0  0  0  0  0  0  0  0  0  0  0 
   -0.1470    0.7749    1.6102 H   0  0  0  0  0  0  0  0  0  0  0  0 
    1.1029    1.1769    0.3844 H   0  0  0  0  0  0  0  0  0  0  0  0 
    1.5989    0.6529    2.0123 H   0  0  0  0  0  0  0  0  0  0  0  0 
    2.0139   -2.9236   -1.1499 H   0  0  0  0  0  0  0  0  0  0  0  0 
    0.7142   -3.1340    0.0505 H   0  0  0  0  0  0  0  0  0  0  0  0 
    3.9557   -3.2666    0.6580 H   0  0  0  0  0  0  0  0  0  0  0  0 
  1  7  1  0  0  0  0 
  1  9  1  0  0  0  0 
  2 11  1  0  0  0  0 
  2  3  1  0  0  0  0 
  2  6  1  0  0  0  0 
  3  5  1  0  0  0  0 
  4  3  2  0  0  0  0 
  5  1  1  0  0  0  0 
  8  1  1  0  0  0  0 
 10  2  1  0  0  0  0 
 12  6  1  0  0  0  0 
M  END 
>  <HBA> 
3 
 
>  <HBD> 
1 
 
>  <TPSA> 
65.1 
 
>  <cid> 
16907 
 
>  <dipole> 
1.95 
 
>  <excitation_energy_1> 
4.861 
 
>  <excitation_energy_2> 
5.592 
 
>  <excitation_energy_3> 
5.73 
 
>  <excitation_energy_4> 
6.373 
 
>  <homo_energy> 
-6.689 
 
>  <homo_lumo_gap> 
6.256 
 
>  <logP> 
0.089 
 
>  <lumo_energy> 
-0.433 
 
>  <melting_point> 
8.13 
 
>  <molecular_refractivity> 
25.75 
 
>  <oscillator_strength_1> 
0.0071 
 
>  <oscillator_strength_2> 
0.0138 
 
>  <oscillator_strength_3> 
0.0111 
 
>  <oscillator_strength_4> 
0.0165 
 
>  <open_babel_can_smiles> 
COC(=O)CS 
 
>  <mulliken_charges> 
12 
1   -0.222217 
2   -0.500503 
3   0.626738 
4   -0.467314 
5   -0.436812 
6   -0.056926 
7   0.1689 
8   0.174109 
9   0.176665 
10   0.209121 
11   0.206463 
12   0.121777 
 
>  <lowdin_charges> 
12 
1   -0.277872 
2   -0.392847 
3   0.190766 
4   -0.265655 
5   -0.184215 
6   -0.055845 
7   0.162834 
8   0.162546 
9   0.163634 
10   0.181356 
11   0.185386 
12   0.129912 
 
$$$$ 
 
