PCCDB-ID:  19755 
public computational chemistry database (PCCDB) project, http://pccdb.org 
 
 25 26  0  0  1  0  0  0  0  0999 V2000 
    0.9098    0.0881    0.0146 C   0  0  0  0  0  0  0  0  0  0  0  0 
    7.3012   -1.2077   -1.1928 C   0  0  0  0  0  0  0  0  0  0  0  0 
    6.6004   -2.4120   -1.0935 C   0  0  0  0  0  0  0  0  0  0  0  0 
    6.6156   -0.0031   -1.0623 C   0  0  0  0  0  0  0  0  0  0  0  0 
    5.2269   -2.3895   -0.8670 C   0  0  0  0  0  0  0  0  0  0  0  0 
    3.0085    1.2812   -0.8008 C   0  0  0  0  0  0  0  0  0  0  0  0 
    4.5328    1.3672   -0.6555 C   0  0  0  0  0  0  0  0  0  0  0  0 
    3.0215   -1.2072   -0.5259 C   0  0  0  0  0  0  0  0  0  0  0  0 
    2.4416    0.1098    0.0146 C   0  0  2  0  0  0  0  0  0  0  0  0 
    5.2325    0.0304   -0.8330 C   0  0  0  0  0  0  0  0  0  0  0  0 
    4.5260   -1.1816   -0.7374 C   0  0  0  0  0  0  0  0  0  0  0  0 
    0.4999    1.0105    0.4428 H   0  0  0  0  0  0  0  0  0  0  0  0 
    0.5223   -0.7544    0.6001 H   0  0  0  0  0  0  0  0  0  0  0  0 
    0.5182   -0.0088   -1.0064 H   0  0  0  0  0  0  0  0  0  0  0  0 
    8.3734   -1.2083   -1.3712 H   0  0  0  0  0  0  0  0  0  0  0  0 
    7.1211   -3.3611   -1.1906 H   0  0  0  0  0  0  0  0  0  0  0  0 
    7.1592    0.9370   -1.1373 H   0  0  0  0  0  0  0  0  0  0  0  0 
    4.6790   -3.3268   -0.7876 H   0  0  0  0  0  0  0  0  0  0  0  0 
    2.7392    1.1446   -1.8587 H   0  0  0  0  0  0  0  0  0  0  0  0 
    2.5526    2.2270   -0.4805 H   0  0  0  0  0  0  0  0  0  0  0  0 
    4.7717    1.7616    0.3442 H   0  0  0  0  0  0  0  0  0  0  0  0 
    4.9427    2.0951   -1.3675 H   0  0  0  0  0  0  0  0  0  0  0  0 
    2.5298   -1.4340   -1.4858 H   0  0  0  0  0  0  0  0  0  0  0  0 
    2.7592   -2.0362    0.1449 H   0  0  0  0  0  0  0  0  0  0  0  0 
    2.7834    0.2307    1.0547 H   0  0  0  0  0  0  0  0  0  0  0  0 
  1 12  1  0  0  0  0 
  1 13  1  0  0  0  0 
  2  3  2  0  0  0  0 
  2  4  1  0  0  0  0 
  3  5  1  0  0  0  0 
  4 10  2  0  0  0  0 
  5 18  1  0  0  0  0 
  5 11  2  0  0  0  0 
  6  7  1  0  0  0  0 
  6 20  1  0  0  0  0 
  6  9  1  0  0  0  0 
  7 21  1  0  0  0  0 
  8  9  1  0  0  0  0 
  8 24  1  0  0  0  0 
  9  1  1  0  0  0  0 
  9 25  1  1  0  0  0 
 10 11  1  0  0  0  0 
 10  7  1  0  0  0  0 
 11  8  1  0  0  0  0 
 14  1  1  0  0  0  0 
 15  2  1  0  0  0  0 
 16  3  1  0  0  0  0 
 17  4  1  0  0  0  0 
 19  6  1  0  0  0  0 
 22  7  1  0  0  0  0 
 23  8  1  0  0  0  0 
M  END 
>  <HBA> 
0 
 
>  <HBD> 
0 
 
>  <TPSA> 
0.0 
 
>  <cid> 
19755 
 
>  <dipole> 
0.57 
 
>  <excitation_energy_1> 
5.148 
 
>  <excitation_energy_2> 
5.701 
 
>  <excitation_energy_3> 
5.891 
 
>  <excitation_energy_4> 
6.059 
 
>  <homo_energy> 
-6.21 
 
>  <homo_lumo_gap> 
6.348 
 
>  <logP> 
2.811 
 
>  <lumo_energy> 
0.139 
 
>  <melting_point> 
32.58 
 
>  <molecular_refractivity> 
48.68 
 
>  <oscillator_strength_1> 
0.0085 
 
>  <oscillator_strength_2> 
0.0064 
 
>  <oscillator_strength_3> 
0.0075 
 
>  <oscillator_strength_4> 
0.0204 
 
>  <open_babel_can_smiles> 
C[C@@H]1CCc2c(C1)cccc2 
 
>  <mulliken_charges> 
25 
1   -0.446437 
2   -0.129481 
3   -0.130694 
4   -0.188559 
5   -0.188859 
6   -0.262617 
7   -0.346308 
8   -0.338664 
9   -0.079148 
10   0.121416 
11   0.118848 
12   0.141189 
13   0.140956 
14   0.139246 
15   0.123608 
16   0.123591 
17   0.117493 
18   0.117308 
19   0.132873 
20   0.129277 
21   0.149701 
22   0.143553 
23   0.145282 
24   0.141104 
25   0.125321 
 
>  <lowdin_charges> 
25 
1   -0.444061 
2   -0.158725 
3   -0.161806 
4   -0.165602 
5   -0.165582 
6   -0.275012 
7   -0.277217 
8   -0.276701 
9   -0.122347 
10   -0.015324 
11   -0.014983 
12   0.149176 
13   0.149526 
14   0.145336 
15   0.153208 
16   0.1552 
17   0.152234 
18   0.152284 
19   0.138801 
20   0.143595 
21   0.150258 
22   0.152504 
23   0.149066 
24   0.150567 
25   0.135603 
 
$$$$ 
 
