PCCDB-ID:  50398 
public computational chemistry database (PCCDB) project, http://pccdb.org 
 
 29 30  0  0  1  0  0  0  0  0999 V2000 
    0.9786   -0.1469    0.0638 C   0  0  0  0  0  0  0  0  0  0  0  0 
    3.2204    2.9506    0.8229 C   0  0  0  0  0  0  0  0  0  0  0  0 
    5.1003    1.3661    0.2994 C   0  0  0  0  0  0  0  0  0  0  0  0 
    2.5685    1.9437    1.8142 C   0  0  0  0  0  0  0  0  0  0  0  0 
    4.5842    0.5034    1.4864 C   0  0  0  0  0  0  0  0  0  0  0  0 
    2.9036    1.1898   -0.9250 C   0  0  0  0  0  0  0  0  0  0  0  0 
    3.9237    2.1626   -0.2991 C   0  0  1  0  0  0  0  0  0  0  0  0 
    3.0398    0.5097    1.4854 C   0  0  2  0  0  0  0  0  0  0  0  0 
    3.1475   -1.3155   -0.2766 C   0  0  0  0  0  0  0  0  0  0  0  0 
    2.5138    0.0559    0.0773 C   0  0  1  0  0  0  0  0  0  0  0  0 
    3.8118   -1.6794   -1.2943 N   0  0  0  0  0  0  0  0  0  0  0  0 
    2.9271   -2.2911    0.6581 O   0  0  0  0  0  0  0  0  0  0  0  0 
    0.4569    0.7779    0.3268 H   0  0  0  0  0  0  0  0  0  0  0  0 
    0.6494   -0.9236    0.7640 H   0  0  0  0  0  0  0  0  0  0  0  0 
    0.6465   -0.4467   -0.9363 H   0  0  0  0  0  0  0  0  0  0  0  0 
    3.9478    3.5895    1.3386 H   0  0  0  0  0  0  0  0  0  0  0  0 
    2.4636    3.6192    0.3953 H   0  0  0  0  0  0  0  0  0  0  0  0 
    5.5459    0.7276   -0.4724 H   0  0  0  0  0  0  0  0  0  0  0  0 
    5.8866    2.0536    0.6330 H   0  0  0  0  0  0  0  0  0  0  0  0 
    1.4757    2.0110    1.7798 H   0  0  0  0  0  0  0  0  0  0  0  0 
    2.8542    2.1756    2.8469 H   0  0  0  0  0  0  0  0  0  0  0  0 
    4.9336    0.9117    2.4426 H   0  0  0  0  0  0  0  0  0  0  0  0 
    4.9683   -0.5193    1.4229 H   0  0  0  0  0  0  0  0  0  0  0  0 
    3.2953    0.7803   -1.8621 H   0  0  0  0  0  0  0  0  0  0  0  0 
    2.0016    1.7477   -1.2061 H   0  0  0  0  0  0  0  0  0  0  0  0 
    4.2883    2.8519   -1.0704 H   0  0  0  0  0  0  0  0  0  0  0  0 
    2.6641   -0.1644    2.2687 H   0  0  0  0  0  0  0  0  0  0  0  0 
    3.9339   -0.9087   -1.9483 H   0  0  0  0  0  0  0  0  0  0  0  0 
    2.4335   -1.9209    1.4041 H   0  0  0  0  0  0  0  0  0  0  0  0 
  1 10  1  0  0  0  0 
  1 13  1  0  0  0  0 
  1 14  1  0  0  0  0 
  2 16  1  0  0  0  0 
  2  4  1  0  0  0  0 
  3 19  1  0  0  0  0 
  3  5  1  0  0  0  0 
  4 21  1  0  0  0  0 
  5 22  1  0  0  0  0 
  6  7  1  0  0  0  0 
  6 10  1  0  0  0  0 
  7 26  1  6  0  0  0 
  7  3  1  0  0  0  0 
  7  2  1  0  0  0  0 
  8  5  1  0  0  0  0 
  8  4  1  0  0  0  0 
  8 27  1  1  0  0  0 
  9 12  1  0  0  0  0 
 10  9  1  6  0  0  0 
 10  8  1  0  0  0  0 
 11  9  2  0  0  0  0 
 12 29  1  0  0  0  0 
 15  1  1  0  0  0  0 
 17  2  1  0  0  0  0 
 18  3  1  0  0  0  0 
 20  4  1  0  0  0  0 
 23  5  1  0  0  0  0 
 24  6  1  0  0  0  0 
 25  6  1  0  0  0  0 
 28 11  1  0  0  0  0 
M  END 
>  <HBA> 
2 
 
>  <HBD> 
1 
 
>  <TPSA> 
43.09 
 
>  <cid> 
50398 
 
>  <dipole> 
4.41 
 
>  <excitation_energy_1> 
6.069 
 
>  <excitation_energy_2> 
6.202 
 
>  <excitation_energy_3> 
6.246 
 
>  <excitation_energy_4> 
6.721 
 
>  <homo_energy> 
-6.885 
 
>  <homo_lumo_gap> 
7.772 
 
>  <logP> 
2.388 
 
>  <lumo_energy> 
0.887 
 
>  <melting_point> 
110.26 
 
>  <molecular_refractivity> 
48.6 
 
>  <oscillator_strength_1> 
0.0025 
 
>  <oscillator_strength_2> 
0.0061 
 
>  <oscillator_strength_3> 
0.0012 
 
>  <oscillator_strength_4> 
0.0008 
 
>  <open_babel_can_smiles> 
OC(=N)[C@]1(C)C[C@@H]2CC[C@H]1CC2 
 
>  <mulliken_charges> 
29 
1   -0.46667 
2   -0.269664 
3   -0.273131 
4   -0.279723 
5   -0.285664 
6   -0.312351 
7   -0.08542 
8   -0.114497 
9   0.486167 
10   0.021877 
11   -0.604098 
12   -0.589928 
13   0.155207 
14   0.133881 
15   0.165054 
16   0.135704 
17   0.134315 
18   0.144209 
19   0.135676 
20   0.137424 
21   0.140185 
22   0.134485 
23   0.166379 
24   0.134333 
25   0.139049 
26   0.120809 
27   0.099158 
28   0.288134 
29   0.409099 
 
>  <lowdin_charges> 
29 
1   -0.444561 
2   -0.286092 
3   -0.287345 
4   -0.282187 
5   -0.2881 
6   -0.281016 
7   -0.131235 
8   -0.137078 
9   0.126545 
10   -0.029545 
11   -0.401669 
12   -0.368691 
13   0.153875 
14   0.144855 
15   0.160683 
16   0.145703 
17   0.145171 
18   0.149626 
19   0.146447 
20   0.141509 
21   0.147109 
22   0.145025 
23   0.157911 
24   0.144361 
25   0.148705 
26   0.144506 
27   0.131938 
28   0.253608 
29   0.349941 
 
$$$$ 
 
