PCCDB-ID:  37590 
public computational chemistry database (PCCDB) project, http://pccdb.org 
 
 17 16  0  0  0  0  0  0  0  0999 V2000 
    0.9771   -0.1504    0.3369 C   0  0  0  0  0  0  0  0  0  0  0  0 
    3.2314   -1.2080    0.8638 C   0  0  0  0  0  0  0  0  0  0  0  0 
    3.2786    1.2610   -1.9704 C   0  0  0  0  0  0  0  0  0  0  0  0 
    2.5064   -0.0492    0.1608 C   0  0  0  0  0  0  0  0  0  0  0  0 
    2.8285   -0.0428   -1.3272 C   0  0  0  0  0  0  0  0  0  0  0  0 
    3.4647    1.1198   -3.3490 O   0  0  0  0  0  0  0  0  0  0  0  0 
    2.7247   -1.0394   -2.0253 O   0  0  0  0  0  0  0  0  0  0  0  0 
    0.7176   -0.1354    1.4009 H   0  0  0  0  0  0  0  0  0  0  0  0 
    0.6072   -1.0843   -0.0985 H   0  0  0  0  0  0  0  0  0  0  0  0 
    0.4553    0.6824   -0.1485 H   0  0  0  0  0  0  0  0  0  0  0  0 
    2.9699   -1.2313    1.9272 H   0  0  0  0  0  0  0  0  0  0  0  0 
    4.3198   -1.1088    0.7846 H   0  0  0  0  0  0  0  0  0  0  0  0 
    2.9448   -2.1625    0.4121 H   0  0  0  0  0  0  0  0  0  0  0  0 
    4.2090    1.5801   -1.4665 H   0  0  0  0  0  0  0  0  0  0  0  0 
    2.5288    2.0392   -1.7460 H   0  0  0  0  0  0  0  0  0  0  0  0 
    2.8445    0.9048    0.5889 H   0  0  0  0  0  0  0  0  0  0  0  0 
    3.2896    0.1743   -3.5289 H   0  0  0  0  0  0  0  0  0  0  0  0 
  1  8  1  0  0  0  0 
  2 11  1  0  0  0  0 
  3 15  1  0  0  0  0 
  3 14  1  0  0  0  0 
  3  5  1  0  0  0  0 
  4  1  1  0  0  0  0 
  4 16  1  0  0  0  0 
  4  2  1  0  0  0  0 
  5  4  1  0  0  0  0 
  6  3  1  0  0  0  0 
  7  5  2  0  0  0  0 
  9  1  1  0  0  0  0 
 10  1  1  0  0  0  0 
 12  2  1  0  0  0  0 
 13  2  1  0  0  0  0 
 17  6  1  0  0  0  0 
M  END 
>  <HBA> 
2 
 
>  <HBD> 
1 
 
>  <TPSA> 
37.3 
 
>  <cid> 
37590 
 
>  <dipole> 
3.09 
 
>  <excitation_energy_1> 
4.616 
 
>  <excitation_energy_2> 
5.672 
 
>  <excitation_energy_3> 
6.562 
 
>  <excitation_energy_4> 
6.804 
 
>  <homo_energy> 
-7.222 
 
>  <homo_lumo_gap> 
6.452 
 
>  <logP> 
0.204 
 
>  <lumo_energy> 
-0.77 
 
>  <melting_point> 
14.11 
 
>  <molecular_refractivity> 
27.51 
 
>  <oscillator_strength_1> 
0.0005 
 
>  <oscillator_strength_2> 
0.0294 
 
>  <oscillator_strength_3> 
0.003 
 
>  <oscillator_strength_4> 
0.0015 
 
>  <open_babel_can_smiles> 
OCC(=O)C(C)C 
 
>  <mulliken_charges> 
17 
1   -0.449067 
2   -0.445073 
3   -0.075782 
4   -0.155423 
5   0.419973 
6   -0.625064 
7   -0.469124 
8   0.155283 
9   0.17146 
10   0.151152 
11   0.148881 
12   0.150532 
13   0.173542 
14   0.151866 
15   0.15269 
16   0.135275 
17   0.408877 
 
>  <lowdin_charges> 
17 
1   -0.436489 
2   -0.434691 
3   -0.167881 
4   -0.149559 
5   0.155734 
6   -0.460022 
7   -0.244931 
8   0.155321 
9   0.162724 
10   0.153994 
11   0.152478 
12   0.15174 
13   0.164042 
14   0.152402 
15   0.153311 
16   0.145715 
17   0.346113 
 
$$$$ 
 
