PCCDB-ID:  6748 
public computational chemistry database (PCCDB) project, http://pccdb.org 
 
 21 22  0  0  0  0  0  0  0  0999 V2000 
    0.8781    0.0677   -0.0223 C   0  0  0  0  0  0  0  0  0  0  0  0 
    4.5348   -3.5131   -0.0577 C   0  0  0  0  0  0  0  0  0  0  0  0 
    3.1327   -3.5433   -0.0600 C   0  0  0  0  0  0  0  0  0  0  0  0 
    5.1863   -2.2901   -0.0432 C   0  0  0  0  0  0  0  0  0  0  0  0 
    2.3943   -2.3680   -0.0484 C   0  0  0  0  0  0  0  0  0  0  0  0 
    4.3659    1.3784   -0.0103 C   0  0  0  0  0  0  0  0  0  0  0  0 
    3.0125    1.2721   -0.0120 C   0  0  0  0  0  0  0  0  0  0  0  0 
    4.4691   -1.0843   -0.0308 C   0  0  0  0  0  0  0  0  0  0  0  0 
    3.0534   -1.1213   -0.0337 C   0  0  0  0  0  0  0  0  0  0  0  0 
    5.2165    0.2008   -0.0163 C   0  0  0  0  0  0  0  0  0  0  0  0 
    2.3365    0.0775   -0.0231 N   0  0  0  0  0  0  0  0  0  0  0  0 
    6.4499    0.2459   -0.0095 O   0  0  0  0  0  0  0  0  0  0  0  0 
    0.5188    1.0975   -0.0074 H   0  0  0  0  0  0  0  0  0  0  0  0 
    0.4890   -0.4499    0.8615 H   0  0  0  0  0  0  0  0  0  0  0  0 
    0.4874   -0.4249   -0.9198 H   0  0  0  0  0  0  0  0  0  0  0  0 
    5.1011   -4.4398   -0.0675 H   0  0  0  0  0  0  0  0  0  0  0  0 
    2.6090   -4.4955   -0.0714 H   0  0  0  0  0  0  0  0  0  0  0  0 
    6.2692   -2.2150   -0.0404 H   0  0  0  0  0  0  0  0  0  0  0  0 
    1.3118   -2.4214   -0.0506 H   0  0  0  0  0  0  0  0  0  0  0  0 
    4.8352    2.3554   -0.0031 H   0  0  0  0  0  0  0  0  0  0  0  0 
    2.3755    2.1508   -0.0055 H   0  0  0  0  0  0  0  0  0  0  0  0 
  1 13  1  0  0  0  0 
  1 14  1  0  0  0  0 
  2  4  1  0  0  0  0 
  3  2  2  0  0  0  0 
  3  5  1  0  0  0  0 
  4 18  1  0  0  0  0 
  4  8  2  0  0  0  0 
  5  9  2  0  0  0  0 
  6 20  1  0  0  0  0 
  7  6  2  0  0  0  0 
  7 21  1  0  0  0  0 
  8 10  1  0  0  0  0 
  9  8  1  0  0  0  0 
  9 11  1  0  0  0  0 
 10  6  1  0  0  0  0 
 10 12  2  0  0  0  0 
 11  1  1  0  0  0  0 
 11  7  1  0  0  0  0 
 15  1  1  0  0  0  0 
 16  2  1  0  0  0  0 
 17  3  1  0  0  0  0 
 19  5  1  0  0  0  0 
M  END 
>  <HBA> 
2 
 
>  <HBD> 
0 
 
>  <TPSA> 
22.0 
 
>  <cid> 
6748 
 
>  <dipole> 
6.2 
 
>  <excitation_energy_1> 
3.699 
 
>  <excitation_energy_2> 
4.095 
 
>  <excitation_energy_3> 
4.597 
 
>  <excitation_energy_4> 
4.746 
 
>  <homo_energy> 
-5.698 
 
>  <homo_lumo_gap> 
4.629 
 
>  <logP> 
1.538 
 
>  <lumo_energy> 
-1.069 
 
>  <melting_point> 
86.26 
 
>  <molecular_refractivity> 
49.47 
 
>  <oscillator_strength_1> 
0.0 
 
>  <oscillator_strength_2> 
0.1317 
 
>  <oscillator_strength_3> 
0.0487 
 
>  <oscillator_strength_4> 
0.0 
 
>  <open_babel_can_smiles> 
Cn1ccc(=O)c2c1cccc2 
 
>  <mulliken_charges> 
21 
1   -0.330126 
2   -0.12917 
3   -0.133873 
4   -0.181472 
5   -0.181218 
6   -0.239889 
7   0.070135 
8   0.022992 
9   0.320424 
10   0.426975 
11   -0.514059 
12   -0.535991 
13   0.175067 
14   0.179244 
15   0.179161 
16   0.13501 
17   0.134932 
18   0.167484 
19   0.132379 
20   0.143769 
21   0.158225 
 
>  <lowdin_charges> 
21 
1   -0.346196 
2   -0.16639 
3   -0.13907 
4   -0.12051 
5   -0.193311 
6   -0.235489 
7   -0.082382 
8   -0.055334 
9   0.0504 
10   0.1257 
11   -0.027986 
12   -0.305145 
13   0.167388 
14   0.163088 
15   0.162874 
16   0.161511 
17   0.160989 
18   0.178244 
19   0.159958 
20   0.174504 
21   0.167155 
 
$$$$ 
 
