PCCDB-ID:  11948 
public computational chemistry database (PCCDB) project, http://pccdb.org 
 
 31 33  0  0  0  0  0  0  0  0999 V2000 
    1.8341    0.3693   -4.6484 C   0  0  0  0  0  0  0  0  0  0  0  0 
    0.9920    0.2896   -3.5389 C   0  0  0  0  0  0  0  0  0  0  0  0 
    3.2170    0.2796   -4.4718 C   0  0  0  0  0  0  0  0  0  0  0  0 
    4.5907   -6.5952    0.2075 C   0  0  0  0  0  0  0  0  0  0  0  0 
    3.7999   -6.4165   -0.9536 C   0  0  0  0  0  0  0  0  0  0  0  0 
    1.5311    0.1227   -2.2614 C   0  0  0  0  0  0  0  0  0  0  0  0 
    3.7500    0.1124   -3.1941 C   0  0  0  0  0  0  0  0  0  0  0  0 
    5.0033   -5.5038    0.9395 C   0  0  0  0  0  0  0  0  0  0  0  0 
    3.4374   -5.1514   -1.3603 C   0  0  0  0  0  0  0  0  0  0  0  0 
    4.6865   -1.7758    0.8559 C   0  0  0  0  0  0  0  0  0  0  0  0 
    5.0505   -3.0338    1.2712 C   0  0  0  0  0  0  0  0  0  0  0  0 
    3.5004   -0.1553   -0.6860 C   0  0  0  0  0  0  0  0  0  0  0  0 
    3.4864   -2.6876   -1.0249 C   0  0  0  0  0  0  0  0  0  0  0  0 
    2.9154    0.0330   -2.0701 C   0  0  0  0  0  0  0  0  0  0  0  0 
    3.8903   -1.5811   -0.3089 C   0  0  0  0  0  0  0  0  0  0  0  0 
    4.6451   -4.1874    0.5463 C   0  0  0  0  0  0  0  0  0  0  0  0 
    3.8457   -4.0050   -0.6272 C   0  0  0  0  0  0  0  0  0  0  0  0 
    1.4175    0.5032   -5.6432 H   0  0  0  0  0  0  0  0  0  0  0  0 
   -0.0852    0.3619   -3.6650 H   0  0  0  0  0  0  0  0  0  0  0  0 
    3.8810    0.3443   -5.3299 H   0  0  0  0  0  0  0  0  0  0  0  0 
    4.8713   -7.5980    0.5184 H   0  0  0  0  0  0  0  0  0  0  0  0 
    3.4794   -7.2842   -1.5242 H   0  0  0  0  0  0  0  0  0  0  0  0 
    0.8691    0.0660   -1.3999 H   0  0  0  0  0  0  0  0  0  0  0  0 
    4.8277    0.0431   -3.0631 H   0  0  0  0  0  0  0  0  0  0  0  0 
    5.6115   -5.6365    1.8316 H   0  0  0  0  0  0  0  0  0  0  0  0 
    2.8302   -5.0124   -2.2519 H   0  0  0  0  0  0  0  0  0  0  0  0 
    5.0097   -0.9053    1.4233 H   0  0  0  0  0  0  0  0  0  0  0  0 
    5.6608   -3.1615    2.1625 H   0  0  0  0  0  0  0  0  0  0  0  0 
    2.7836    0.2168    0.0599 H   0  0  0  0  0  0  0  0  0  0  0  0 
    4.3893    0.4817   -0.5798 H   0  0  0  0  0  0  0  0  0  0  0  0 
    2.8814   -2.5654   -1.9190 H   0  0  0  0  0  0  0  0  0  0  0  0 
  1  3  2  0  0  0  0 
  1  2  1  0  0  0  0 
  2  6  2  0  0  0  0 
  3  7  1  0  0  0  0 
  4 21  1  0  0  0  0 
  4  8  2  0  0  0  0 
  5  4  1  0  0  0  0 
  6 14  1  0  0  0  0 
  6 23  1  0  0  0  0 
  7 24  1  0  0  0  0 
  7 14  2  0  0  0  0 
  8 25  1  0  0  0  0 
  9  5  2  0  0  0  0 
  9 17  1  0  0  0  0 
 10 11  1  0  0  0  0 
 10 27  1  0  0  0  0 
 11 28  1  0  0  0  0 
 12 30  1  0  0  0  0 
 12 15  1  0  0  0  0 
 12 29  1  0  0  0  0 
 13 17  2  0  0  0  0 
 13 15  1  0  0  0  0 
 14 12  1  0  0  0  0 
 15 10  2  0  0  0  0 
 16  8  1  0  0  0  0 
 16 11  2  0  0  0  0 
 17 16  1  0  0  0  0 
 18  1  1  0  0  0  0 
 19  2  1  0  0  0  0 
 20  3  1  0  0  0  0 
 22  5  1  0  0  0  0 
 26  9  1  0  0  0  0 
 31 13  1  0  0  0  0 
M  END 
>  <HBA> 
0 
 
>  <HBD> 
0 
 
>  <TPSA> 
0.0 
 
>  <cid> 
11948 
 
>  <dipole> 
0.36 
 
>  <excitation_energy_1> 
4.32 
 
>  <excitation_energy_2> 
4.429 
 
>  <excitation_energy_3> 
4.918 
 
>  <excitation_energy_4> 
5.02 
 
>  <homo_energy> 
-5.682 
 
>  <homo_lumo_gap> 
4.83 
 
>  <logP> 
4.431 
 
>  <lumo_energy> 
-0.852 
 
>  <melting_point> 
82.88 
 
>  <molecular_refractivity> 
73.4 
 
>  <oscillator_strength_1> 
0.0347 
 
>  <oscillator_strength_2> 
0.0171 
 
>  <oscillator_strength_3> 
0.001 
 
>  <oscillator_strength_4> 
0.0927 
 
>  <open_babel_can_smiles> 
c1ccc(cc1)Cc1ccc2c(c1)cccc2 
 
>  <mulliken_charges> 
31 
1   -0.130647 
2   -0.128389 
3   -0.129575 
4   -0.13546 
5   -0.1373 
6   -0.180458 
7   -0.169543 
8   -0.193547 
9   -0.189964 
10   -0.179034 
11   -0.193148 
12   -0.435486 
13   -0.26224 
14   0.159071 
15   0.165478 
16   0.137779 
17   0.138271 
18   0.128843 
19   0.129472 
20   0.12997 
21   0.127692 
22   0.128058 
23   0.126888 
24   0.129109 
25   0.127166 
26   0.130154 
27   0.120892 
28   0.127972 
29   0.161068 
30   0.156646 
31   0.140262 
 
>  <lowdin_charges> 
31 
1   -0.159554 
2   -0.153621 
3   -0.156318 
4   -0.160515 
5   -0.160595 
6   -0.16919 
7   -0.159798 
8   -0.156749 
9   -0.156295 
10   -0.16842 
11   -0.154511 
12   -0.273441 
13   -0.169537 
14   -0.002116 
15   -0.006063 
16   -0.004271 
17   0.000906 
18   0.156926 
19   0.155656 
20   0.158511 
21   0.156906 
22   0.158443 
23   0.15669 
24   0.155518 
25   0.156256 
26   0.157817 
27   0.155377 
28   0.156744 
29   0.161517 
30   0.15947 
31   0.164255 
 
$$$$ 
 
