PCCDB-ID:  13210 
public computational chemistry database (PCCDB) project, http://pccdb.org 
 
 21 22  0  0  1  0  0  0  0  0999 V2000 
    3.2805    1.1909   -0.1202 C   0  0  0  0  0  0  0  0  0  0  0  0 
    2.3762   -0.0211    0.1456 C   0  0  0  0  0  0  0  0  0  0  0  0 
    1.8854   -2.4794    0.1105 C   0  0  0  0  0  0  0  0  0  0  0  0 
    4.2240   -1.7360    0.5658 C   0  0  0  0  0  0  0  0  0  0  0  0 
    3.2627   -1.5126   -1.7326 C   0  0  0  0  0  0  0  0  0  0  0  0 
    2.9439   -1.4069   -0.2276 C   0  0  2  0  0  0  0  0  0  0  0  0 
    2.3384   -3.8093   -0.2092 O   0  0  0  0  0  0  0  0  0  0  0  0 
    4.7157   -3.0556    0.2501 O   0  0  0  0  0  0  0  0  0  0  0  0 
    3.7401   -2.8292   -2.0825 O   0  0  0  0  0  0  0  0  0  0  0  0 
    3.8603   -3.9459   -0.8597 P   0  0  2  0  0  0  0  0  0  0  0  0 
    2.7709    2.1097    0.1887 H   0  0  0  0  0  0  0  0  0  0  0  0 
    3.5286    1.2977   -1.1816 H   0  0  0  0  0  0  0  0  0  0  0  0 
    4.2203    1.1352    0.4395 H   0  0  0  0  0  0  0  0  0  0  0  0 
    1.4301    0.1148   -0.3966 H   0  0  0  0  0  0  0  0  0  0  0  0 
    2.1097   -0.0393    1.2116 H   0  0  0  0  0  0  0  0  0  0  0  0 
    0.9618   -2.2926   -0.4529 H   0  0  0  0  0  0  0  0  0  0  0  0 
    1.6461   -2.4531    1.1816 H   0  0  0  0  0  0  0  0  0  0  0  0 
    4.0257   -1.6982    1.6450 H   0  0  0  0  0  0  0  0  0  0  0  0 
    5.0252   -1.0242    0.3370 H   0  0  0  0  0  0  0  0  0  0  0  0 
    4.0384   -0.7950   -2.0233 H   0  0  0  0  0  0  0  0  0  0  0  0 
    2.3632   -1.3099   -2.3285 H   0  0  0  0  0  0  0  0  0  0  0  0 
  1  2  1  0  0  0  0 
  1 11  1  0  0  0  0 
  1 13  1  0  0  0  0 
  2 15  1  0  0  0  0 
  3 17  1  0  0  0  0 
  4 18  1  0  0  0  0 
  5  6  1  0  0  0  0 
  6  3  1  0  0  0  0 
  6  2  1  1  0  0  0 
  6  4  1  0  0  0  0 
  7  3  1  0  0  0  0 
  8  4  1  0  0  0  0 
  9  5  1  0  0  0  0 
 10  9  1  6  0  0  0 
 10  7  1  0  0  0  0 
 10  8  1  0  0  0  0 
 12  1  1  0  0  0  0 
 14  2  1  0  0  0  0 
 16  3  1  0  0  0  0 
 19  4  1  0  0  0  0 
 20  5  1  0  0  0  0 
 21  5  1  0  0  0  0 
M  END 
>  <HBA> 
3 
 
>  <HBD> 
0 
 
>  <TPSA> 
41.28 
 
>  <cid> 
13210 
 
>  <dipole> 
4.55 
 
>  <excitation_energy_1> 
6.568 
 
>  <excitation_energy_2> 
6.876 
 
>  <excitation_energy_3> 
6.878 
 
>  <excitation_energy_4> 
6.924 
 
>  <homo_energy> 
-7.23 
 
>  <homo_lumo_gap> 
8.278 
 
>  <logP> 
1.687 
 
>  <lumo_energy> 
1.048 
 
>  <melting_point> 
6.18 
 
>  <molecular_refractivity> 
37.7 
 
>  <oscillator_strength_1> 
0.0005 
 
>  <oscillator_strength_2> 
0.0017 
 
>  <oscillator_strength_3> 
0.0018 
 
>  <oscillator_strength_4> 
0.0188 
 
>  <open_babel_can_smiles> 
CC[C@]12COP(OC1)OC2 
 
>  <mulliken_charges> 
21 
1   -0.460708 
2   -0.266653 
3   -0.006316 
4   -0.00517 
5   -0.005519 
6   -0.104912 
7   -0.575496 
8   -0.578006 
9   -0.577703 
10   0.934267 
11   0.156578 
12   0.155586 
13   0.155493 
14   0.143138 
15   0.14317 
16   0.147599 
17   0.147592 
18   0.146725 
19   0.151748 
20   0.15182 
21   0.146767 
 
>  <lowdin_charges> 
21 
1   -0.447699 
2   -0.268736 
3   -0.127685 
4   -0.127646 
5   -0.130164 
6   -0.053949 
7   -0.421495 
8   -0.419937 
9   -0.420573 
10   0.771869 
11   0.159209 
12   0.151075 
13   0.152351 
14   0.148497 
15   0.147095 
16   0.147689 
17   0.145735 
18   0.145448 
19   0.150404 
20   0.150633 
21   0.147879 
 
$$$$ 
 
