PCCDB-ID:  26395 
public computational chemistry database (PCCDB) project, http://pccdb.org 
 
 37 38  0  0  0  0  0  0  0  0999 V2000 
    2.6601   -0.8852   -2.6277 C   0  0  0  0  0  0  0  0  0  0  0  0 
    2.3183    0.7650    0.7517 C   0  0  0  0  0  0  0  0  0  0  0  0 
    3.1180    0.5027   -2.1413 C   0  0  0  0  0  0  0  0  0  0  0  0 
    3.5510    0.0189    0.2370 C   0  0  0  0  0  0  0  0  0  0  0  0 
    9.4104   -3.0551   -4.4550 C   0  0  0  0  0  0  0  0  0  0  0  0 
   10.1185   -2.0782   -3.7632 C   0  0  0  0  0  0  0  0  0  0  0  0 
    6.1612    0.7524   -2.4214 C   0  0  0  0  0  0  0  0  0  0  0  0 
    5.3890   -0.0255   -1.3365 C   0  0  0  0  0  0  0  0  0  0  0  0 
    7.2848   -1.9478   -3.9974 C   0  0  0  0  0  0  0  0  0  0  0  0 
    8.7145    0.8275   -2.1202 C   0  0  0  0  0  0  0  0  0  0  0  0 
    7.5659    0.2491   -2.6032 C   0  0  0  0  0  0  0  0  0  0  0  0 
    8.0051   -2.9890   -4.5707 C   0  0  0  0  0  0  0  0  0  0  0  0 
    7.9795   -0.9494   -3.2940 C   0  0  0  0  0  0  0  0  0  0  0  0 
    9.3959   -1.0317   -3.1880 C   0  0  0  0  0  0  0  0  0  0  0  0 
    9.8162    0.0660   -2.4594 N   0  0  0  0  0  0  0  0  0  0  0  0 
    4.0746    0.5443   -1.0279 N   0  0  0  0  0  0  0  0  0  0  0  0 
    7.2955   -3.9505   -5.2534 O   0  0  0  0  0  0  0  0  0  0  0  0 
    1.9560   -0.7736   -3.4606 H   0  0  0  0  0  0  0  0  0  0  0  0 
    2.1511   -1.4491   -1.8380 H   0  0  0  0  0  0  0  0  0  0  0  0 
    3.4985   -1.4941   -2.9841 H   0  0  0  0  0  0  0  0  0  0  0  0 
    2.0901    0.4425    1.7740 H   0  0  0  0  0  0  0  0  0  0  0  0 
    1.4267    0.5741    0.1452 H   0  0  0  0  0  0  0  0  0  0  0  0 
    2.5013    1.8450    0.7624 H   0  0  0  0  0  0  0  0  0  0  0  0 
    2.2388    1.0854   -1.8459 H   0  0  0  0  0  0  0  0  0  0  0  0 
    3.5602    1.0483   -2.9818 H   0  0  0  0  0  0  0  0  0  0  0  0 
    3.3288   -1.0654    0.1891 H   0  0  0  0  0  0  0  0  0  0  0  0 
    4.3534    0.1282    0.9771 H   0  0  0  0  0  0  0  0  0  0  0  0 
    9.9464   -3.8834   -4.9151 H   0  0  0  0  0  0  0  0  0  0  0  0 
   11.2008   -2.1358   -3.6806 H   0  0  0  0  0  0  0  0  0  0  0  0 
    6.1711    1.8118   -2.1379 H   0  0  0  0  0  0  0  0  0  0  0  0 
    5.6315    0.6913   -3.3808 H   0  0  0  0  0  0  0  0  0  0  0  0 
    5.9829    0.0171   -0.4160 H   0  0  0  0  0  0  0  0  0  0  0  0 
    5.3420   -1.0948   -1.6166 H   0  0  0  0  0  0  0  0  0  0  0  0 
    6.2048   -1.9275   -4.1065 H   0  0  0  0  0  0  0  0  0  0  0  0 
    8.8340    1.7409   -1.5524 H   0  0  0  0  0  0  0  0  0  0  0  0 
   10.7734    0.2989   -2.2490 H   0  0  0  0  0  0  0  0  0  0  0  0 
    7.9169   -4.6127   -5.5914 H   0  0  0  0  0  0  0  0  0  0  0  0 
  1  3  1  0  0  0  0 
  1 19  1  0  0  0  0 
  2 23  1  0  0  0  0 
  2 21  1  0  0  0  0 
  3 24  1  0  0  0  0 
  3 16  1  0  0  0  0 
  4  2  1  0  0  0  0 
  4 27  1  0  0  0  0 
  5  6  1  0  0  0  0 
  6 29  1  0  0  0  0 
  6 14  2  0  0  0  0 
  7 30  1  0  0  0  0 
  7  8  1  0  0  0  0 
  8 16  1  0  0  0  0 
  8 32  1  0  0  0  0 
  9 13  2  0  0  0  0 
 10 35  1  0  0  0  0 
 11  7  1  0  0  0  0 
 11 10  2  0  0  0  0 
 12  5  2  0  0  0  0 
 12  9  1  0  0  0  0 
 13 14  1  0  0  0  0 
 13 11  1  0  0  0  0 
 14 15  1  0  0  0  0 
 15 36  1  0  0  0  0 
 15 10  1  0  0  0  0 
 16  4  1  0  0  0  0 
 17 12  1  0  0  0  0 
 18  1  1  0  0  0  0 
 20  1  1  0  0  0  0 
 22  2  1  0  0  0  0 
 25  3  1  0  0  0  0 
 26  4  1  0  0  0  0 
 28  5  1  0  0  0  0 
 31  7  1  0  0  0  0 
 33  8  1  0  0  0  0 
 34  9  1  0  0  0  0 
 37 17  1  0  0  0  0 
M  END 
>  <HBA> 
2 
 
>  <HBD> 
2 
 
>  <TPSA> 
39.26 
 
>  <cid> 
26395 
 
>  <dipole> 
2.72 
 
>  <excitation_energy_1> 
4.261 
 
>  <excitation_energy_2> 
4.498 
 
>  <excitation_energy_3> 
4.57 
 
>  <excitation_energy_4> 
4.69 
 
>  <homo_energy> 
-5.067 
 
>  <homo_lumo_gap> 
4.95 
 
>  <logP> 
2.758 
 
>  <lumo_energy> 
-0.117 
 
>  <melting_point> 
140.05 
 
>  <molecular_refractivity> 
72.22 
 
>  <oscillator_strength_1> 
0.056 
 
>  <oscillator_strength_2> 
0.024 
 
>  <oscillator_strength_3> 
0.0002 
 
>  <oscillator_strength_4> 
0.0031 
 
>  <open_babel_can_smiles> 
CCN(CCc1c[nH]c2c1cc(O)cc2)CC 
 
>  <mulliken_charges> 
37 
1   -0.463762 
2   -0.45789 
3   -0.138632 
4   -0.102386 
5   -0.218429 
6   -0.167139 
7   -0.356701 
8   -0.106509 
9   -0.259911 
10   -0.002741 
11   0.063359 
12   0.352952 
13   0.083772 
14   0.312961 
15   -0.695493 
16   -0.387603 
17   -0.656415 
18   0.141558 
19   0.147887 
20   0.154249 
21   0.14149 
22   0.14716 
23   0.154175 
24   0.140987 
25   0.142779 
26   0.111733 
27   0.13392 
28   0.110586 
29   0.122546 
30   0.144399 
31   0.145636 
32   0.133704 
33   0.122399 
34   0.134087 
35   0.145367 
36   0.323835 
37   0.402068 
 
>  <lowdin_charges> 
37 
1   -0.469341 
2   -0.449868 
3   -0.209455 
4   -0.194703 
5   -0.218979 
6   -0.174683 
7   -0.272461 
8   -0.198396 
9   -0.198874 
10   -0.135214 
11   -0.06305 
12   0.090168 
13   -0.02347 
14   0.016057 
15   -0.202288 
16   -0.194474 
17   -0.393842 
18   0.153085 
19   0.150173 
20   0.151017 
21   0.15167 
22   0.14802 
23   0.152033 
24   0.145668 
25   0.145583 
26   0.113774 
27   0.143058 
28   0.151457 
29   0.154171 
30   0.151297 
31   0.148661 
32   0.144468 
33   0.120128 
34   0.16218 
35   0.16274 
36   0.288775 
37   0.354916 
 
$$$$ 
 
