PCCDB-ID:  6440 
public computational chemistry database (PCCDB) project, http://pccdb.org 
 
 22 21  0  0  1  0  0  0  0  0999 V2000 
    2.7536    0.3596    1.6020 C   0  0  0  0  0  0  0  0  0  0  0  0 
    2.5332   -1.9397   -1.5845 C   0  0  0  0  0  0  0  0  0  0  0  0 
    4.5492   -1.5467   -0.1448 C   0  0  0  0  0  0  0  0  0  0  0  0 
    2.5298   -2.6008    0.8468 C   0  0  0  0  0  0  0  0  0  0  0  0 
    2.4587   -0.1264    0.1758 C   0  0  1  0  0  0  0  0  0  0  0  0 
    3.0078   -1.5505   -0.1706 C   0  0  0  0  0  0  0  0  0  0  0  0 
    1.0964   -2.5820    0.9239 O   0  0  0  0  0  0  0  0  0  0  0  0 
    1.0638   -0.0121   -0.0924 O   0  0  0  0  0  0  0  0  0  0  0  0 
    3.8245    0.3710    1.8341 H   0  0  0  0  0  0  0  0  0  0  0  0 
    2.2450   -0.2648    2.3460 H   0  0  0  0  0  0  0  0  0  0  0  0 
    2.3702    1.3786    1.7128 H   0  0  0  0  0  0  0  0  0  0  0  0 
    2.9501   -2.9119   -1.8757 H   0  0  0  0  0  0  0  0  0  0  0  0 
    2.8666   -1.1963   -2.3181 H   0  0  0  0  0  0  0  0  0  0  0  0 
    1.4449   -1.9954   -1.6390 H   0  0  0  0  0  0  0  0  0  0  0  0 
    4.9457   -2.5249   -0.4433 H   0  0  0  0  0  0  0  0  0  0  0  0 
    4.9526   -1.3149    0.8470 H   0  0  0  0  0  0  0  0  0  0  0  0 
    4.9433   -0.8047   -0.8488 H   0  0  0  0  0  0  0  0  0  0  0  0 
    2.9637   -2.3935    1.8357 H   0  0  0  0  0  0  0  0  0  0  0  0 
    2.8780   -3.5969    0.5324 H   0  0  0  0  0  0  0  0  0  0  0  0 
    2.9372    0.5691   -0.5272 H   0  0  0  0  0  0  0  0  0  0  0  0 
    0.8172   -3.1953    1.6195 H   0  0  0  0  0  0  0  0  0  0  0  0 
    0.6455   -0.7624    0.3675 H   0  0  0  0  0  0  0  0  0  0  0  0 
  1 11  1  0  0  0  0 
  1  9  1  0  0  0  0 
  1 10  1  0  0  0  0 
  2  6  1  0  0  0  0 
  3 16  1  0  0  0  0 
  4  7  1  0  0  0  0 
  4 18  1  0  0  0  0 
  5 20  1  6  0  0  0 
  5  1  1  0  0  0  0 
  6  3  1  0  0  0  0 
  6  5  1  0  0  0  0 
  6  4  1  0  0  0  0 
  7 21  1  0  0  0  0 
  8  5  1  0  0  0  0 
  8 22  1  0  0  0  0 
 12  2  1  0  0  0  0 
 13  2  1  0  0  0  0 
 14  2  1  0  0  0  0 
 15  3  1  0  0  0  0 
 17  3  1  0  0  0  0 
 19  4  1  0  0  0  0 
M  END 
>  <HBA> 
2 
 
>  <HBD> 
2 
 
>  <TPSA> 
40.46 
 
>  <cid> 
6440 
 
>  <dipole> 
3.35 
 
>  <excitation_energy_1> 
5.965 
 
>  <excitation_energy_2> 
6.505 
 
>  <excitation_energy_3> 
6.56 
 
>  <excitation_energy_4> 
6.892 
 
>  <homo_energy> 
-6.612 
 
>  <homo_lumo_gap> 
8.087 
 
>  <logP> 
0.386 
 
>  <lumo_energy> 
1.475 
 
>  <melting_point> 
29.36 
 
>  <molecular_refractivity> 
33.02 
 
>  <oscillator_strength_1> 
0.0025 
 
>  <oscillator_strength_2> 
0.0011 
 
>  <oscillator_strength_3> 
0.0079 
 
>  <oscillator_strength_4> 
0.045 
 
>  <open_babel_can_smiles> 
OCC([C@@H](O)C)(C)C 
 
>  <mulliken_charges> 
22 
1   -0.465793 
2   -0.434894 
3   -0.460375 
4   -0.036692 
5   0.160056 
6   0.038393 
7   -0.63839 
8   -0.65266 
9   0.134548 
10   0.137463 
11   0.157755 
12   0.125838 
13   0.139711 
14   0.169412 
15   0.141696 
16   0.143443 
17   0.14982 
18   0.127298 
19   0.12577 
20   0.121832 
21   0.40248 
22   0.413288 
 
>  <lowdin_charges> 
22 
1   -0.463399 
2   -0.440793 
3   -0.444457 
4   -0.135081 
5   0.000954 
6   -0.015939 
7   -0.4744 
8   -0.478851 
9   0.144771 
10   0.146875 
11   0.159123 
12   0.140973 
13   0.150922 
14   0.16147 
15   0.149098 
16   0.14725 
17   0.155168 
18   0.130669 
19   0.131835 
20   0.13882 
21   0.352326 
22   0.342667 
 
$$$$ 
 
