PCCDB-ID:  23365 
public computational chemistry database (PCCDB) project, http://pccdb.org 
 
 22 21  0  0  0  0  0  0  0  0999 V2000 
    2.5228    0.7852    3.6785 C   0  0  0  0  0  0  0  0  0  0  0  0 
    3.4207    1.7748    2.9504 C   0  0  0  0  0  0  0  0  0  0  0  0 
    5.0918   -0.6045   -1.0314 C   0  0  0  0  0  0  0  0  0  0  0  0 
    5.3783   -0.0188    0.3543 C   0  0  0  0  0  0  0  0  0  0  0  0 
    4.2300   -1.8728   -0.9952 C   0  0  0  0  0  0  0  0  0  0  0  0 
    4.1759    0.6583    0.9834 C   0  0  0  0  0  0  0  0  0  0  0  0 
    4.9023   -2.9387   -0.2381 N   0  0  0  0  0  0  0  0  0  0  0  0 
    3.0913    0.8103    0.4578 O   0  0  0  0  0  0  0  0  0  0  0  0 
    4.4748    1.0961    2.2290 O   0  0  0  0  0  0  0  0  0  0  0  0 
    1.7840    1.3251    4.2822 H   0  0  0  0  0  0  0  0  0  0  0  0 
    3.1106    0.1449    4.3444 H   0  0  0  0  0  0  0  0  0  0  0  0 
    1.9872    0.1550    2.9630 H   0  0  0  0  0  0  0  0  0  0  0  0 
    3.9482    2.4270    3.6513 H   0  0  0  0  0  0  0  0  0  0  0  0 
    2.8475    2.3857    2.2488 H   0  0  0  0  0  0  0  0  0  0  0  0 
    6.0503   -0.8369   -1.5166 H   0  0  0  0  0  0  0  0  0  0  0  0 
    4.5916    0.1444   -1.6555 H   0  0  0  0  0  0  0  0  0  0  0  0 
    6.1847    0.7247    0.3111 H   0  0  0  0  0  0  0  0  0  0  0  0 
    5.7208   -0.8077    1.0332 H   0  0  0  0  0  0  0  0  0  0  0  0 
    3.9765   -2.1566   -2.0321 H   0  0  0  0  0  0  0  0  0  0  0  0 
    3.2856   -1.6455   -0.4906 H   0  0  0  0  0  0  0  0  0  0  0  0 
    5.6890   -3.2988   -0.7779 H   0  0  0  0  0  0  0  0  0  0  0  0 
    4.2680   -3.7247   -0.1081 H   0  0  0  0  0  0  0  0  0  0  0  0 
  1 10  1  0  0  0  0 
  1 11  1  0  0  0  0 
  2 13  1  0  0  0  0 
  2  1  1  0  0  0  0 
  3  5  1  0  0  0  0 
  3  4  1  0  0  0  0 
  4  6  1  0  0  0  0 
  4 18  1  0  0  0  0 
  5 20  1  0  0  0  0 
  5  7  1  0  0  0  0 
  6  9  1  0  0  0  0 
  7 22  1  0  0  0  0 
  8  6  2  0  0  0  0 
  9  2  1  0  0  0  0 
 12  1  1  0  0  0  0 
 14  2  1  0  0  0  0 
 15  3  1  0  0  0  0 
 16  3  1  0  0  0  0 
 17  4  1  0  0  0  0 
 19  5  1  0  0  0  0 
 21  7  1  0  0  0  0 
M  END 
>  <HBA> 
3 
 
>  <HBD> 
1 
 
>  <TPSA> 
52.32 
 
>  <cid> 
23365 
 
>  <dipole> 
1.07 
 
>  <excitation_energy_1> 
5.642 
 
>  <excitation_energy_2> 
5.838 
 
>  <excitation_energy_3> 
6.042 
 
>  <excitation_energy_4> 
6.48 
 
>  <homo_energy> 
-6.321 
 
>  <homo_lumo_gap> 
6.909 
 
>  <logP> 
0.989 
 
>  <lumo_energy> 
0.588 
 
>  <melting_point> 
40.13 
 
>  <molecular_refractivity> 
34.95 
 
>  <oscillator_strength_1> 
0.0118 
 
>  <oscillator_strength_2> 
0.0008 
 
>  <oscillator_strength_3> 
0.0028 
 
>  <oscillator_strength_4> 
0.0027 
 
>  <open_babel_can_smiles> 
NCCCC(=O)OCC 
 
>  <mulliken_charges> 
22 
1   -0.460434 
2   -0.042678 
3   -0.249744 
4   -0.355142 
5   -0.149882 
6   0.624003 
7   -0.717617 
8   -0.489092 
9   -0.46196 
10   0.147462 
11   0.157446 
12   0.1745 
13   0.149828 
14   0.167535 
15   0.123526 
16   0.151151 
17   0.164566 
18   0.198612 
19   0.114617 
20   0.163854 
21   0.290974 
22   0.298477 
 
>  <lowdin_charges> 
22 
1   -0.458823 
2   -0.13255 
3   -0.278661 
4   -0.307556 
5   -0.207842 
6   0.203053 
7   -0.563856 
8   -0.278052 
9   -0.198012 
10   0.158431 
11   0.15755 
12   0.165895 
13   0.152336 
14   0.158753 
15   0.140267 
16   0.156768 
17   0.168225 
18   0.183071 
19   0.119866 
20   0.152954 
21   0.25137 
22   0.256811 
 
$$$$ 
 
