PCCDB-ID:  28824 
public computational chemistry database (PCCDB) project, http://pccdb.org 
 
 29 31  0  0  1  0  0  0  0  0999 V2000 
   -3.6776    0.0804    0.8369 C   0  0  0  0  0  0  0  0  0  0  0  0 
   -3.3270   -1.2638    0.7332 C   0  0  0  0  0  0  0  0  0  0  0  0 
    3.5543   -1.0835    0.3107 C   0  0  0  0  0  0  0  0  0  0  0  0 
   -2.8351    1.0525    0.2970 C   0  0  0  0  0  0  0  0  0  0  0  0 
   -2.1374   -1.6244    0.0977 C   0  0  0  0  0  0  0  0  0  0  0  0 
    2.3730   -1.4535   -0.3220 C   0  0  0  0  0  0  0  0  0  0  0  0 
   -0.7160    1.7626   -0.8858 C   0  0  0  0  0  0  0  0  0  0  0  0 
    0.5565    1.9314   -0.0440 C   0  0  0  0  0  0  0  0  0  0  0  0 
    3.6415    0.2131    0.8083 C   0  0  0  0  0  0  0  0  0  0  0  0 
   -1.6369    0.7033   -0.3338 C   0  0  0  0  0  0  0  0  0  0  0  0 
   -1.2765   -0.6539   -0.4220 C   0  0  0  0  0  0  0  0  0  0  0  0 
    1.3075   -0.5501   -0.4426 C   0  0  0  0  0  0  0  0  0  0  0  0 
    1.5189    0.7565    0.0545 C   0  0  0  0  0  0  0  0  0  0  0  0 
    0.0188   -1.0479   -1.1358 C   0  0  1  0  0  0  0  0  0  0  0  0 
    2.6624    1.1068    0.6723 N   0  0  0  0  0  0  0  0  0  0  0  0 
    0.0798   -2.4497   -1.3750 O   0  0  0  0  0  0  0  0  0  0  0  0 
   -4.6048    0.3722    1.3228 H   0  0  0  0  0  0  0  0  0  0  0  0 
   -3.9805   -2.0351    1.1320 H   0  0  0  0  0  0  0  0  0  0  0  0 
    4.3823   -1.7794    0.4091 H   0  0  0  0  0  0  0  0  0  0  0  0 
   -3.1110    2.1029    0.3604 H   0  0  0  0  0  0  0  0  0  0  0  0 
   -1.9006   -2.6763   -0.0229 H   0  0  0  0  0  0  0  0  0  0  0  0 
    2.2714   -2.4453   -0.7477 H   0  0  0  0  0  0  0  0  0  0  0  0 
   -0.4437    1.5370   -1.9265 H   0  0  0  0  0  0  0  0  0  0  0  0 
   -1.2389    2.7252   -0.9120 H   0  0  0  0  0  0  0  0  0  0  0  0 
    0.2735    2.2148    0.9786 H   0  0  0  0  0  0  0  0  0  0  0  0 
    1.1399    2.7761   -0.4301 H   0  0  0  0  0  0  0  0  0  0  0  0 
    4.5359    0.5567    1.3265 H   0  0  0  0  0  0  0  0  0  0  0  0 
   -0.0091   -0.6235   -2.1480 H   0  0  0  0  0  0  0  0  0  0  0  0 
    0.1356   -2.8891   -0.5102 H   0  0  0  0  0  0  0  0  0  0  0  0 
  1 17  1  0  0  0  0 
  2  1  1  0  0  0  0 
  2 18  1  0  0  0  0 
  3 19  1  0  0  0  0 
  3  9  2  0  0  0  0 
  4 20  1  0  0  0  0 
  4  1  2  0  0  0  0 
  5  2  2  0  0  0  0 
  6  3  1  0  0  0  0 
  7 10  1  0  0  0  0 
  7  8  1  0  0  0  0 
  8 13  1  0  0  0  0 
  8 25  1  0  0  0  0 
  9 27  1  0  0  0  0 
 10  4  1  0  0  0  0 
 11 10  2  0  0  0  0 
 11  5  1  0  0  0  0 
 12  6  2  0  0  0  0 
 12 13  1  0  0  0  0 
 13 15  2  0  0  0  0 
 14 28  1  6  0  0  0 
 14 12  1  0  0  0  0 
 14 11  1  0  0  0  0 
 15  9  1  0  0  0  0 
 16 14  1  0  0  0  0 
 16 29  1  0  0  0  0 
 21  5  1  0  0  0  0 
 22  6  1  0  0  0  0 
 23  7  1  0  0  0  0 
 24  7  1  0  0  0  0 
 26  8  1  0  0  0  0 
M  END 
>  <HBA> 
2 
 
>  <HBD> 
1 
 
>  <TPSA> 
33.12 
 
>  <cid> 
28824 
 
>  <dipole> 
0.97 
 
>  <excitation_energy_1> 
4.802 
 
>  <excitation_energy_2> 
5.083 
 
>  <excitation_energy_3> 
5.103 
 
>  <excitation_energy_4> 
5.238 
 
>  <homo_energy> 
-6.517 
 
>  <homo_lumo_gap> 
5.919 
 
>  <logP> 
2.262 
 
>  <lumo_energy> 
-0.599 
 
>  <melting_point> 
103.92 
 
>  <molecular_refractivity> 
62.67 
 
>  <oscillator_strength_1> 
0.0057 
 
>  <oscillator_strength_2> 
0.0025 
 
>  <oscillator_strength_3> 
0.0245 
 
>  <oscillator_strength_4> 
0.0647 
 
>  <open_babel_can_smiles> 
O[C@H]1c2ccccc2CCc2c1cccn2 
 
>  <mulliken_charges> 
29 
1   -0.12313 
2   -0.131082 
3   -0.14221 
4   -0.19318 
5   -0.190507 
6   -0.158722 
7   -0.370511 
8   -0.30634 
9   0.041899 
10   0.13385 
11   0.101689 
12   0.071762 
13   0.245657 
14   -0.009179 
15   -0.473541 
16   -0.617478 
17   0.129589 
18   0.129082 
19   0.134819 
20   0.124986 
21   0.120527 
22   0.150708 
23   0.150104 
24   0.146911 
25   0.16701 
26   0.164847 
27   0.138905 
28   0.174268 
29   0.389267 
 
>  <lowdin_charges> 
29 
1   -0.155509 
2   -0.159303 
3   -0.182735 
4   -0.163762 
5   -0.166448 
6   -0.143409 
7   -0.278054 
8   -0.27561 
9   -0.088768 
10   -0.009238 
11   -0.027466 
12   -0.049873 
13   0.046738 
14   0.000405 
15   -0.157296 
16   -0.438787 
17   0.158209 
18   0.159118 
19   0.1638 
20   0.153895 
21   0.15381 
22   0.167265 
23   0.149212 
24   0.155764 
25   0.16301 
26   0.166017 
27   0.155545 
28   0.162987 
29   0.340482 
 
$$$$ 
 
