PCCDB-ID:  43027 
public computational chemistry database (PCCDB) project, http://pccdb.org 
 
 32 33  0  0  1  0  0  0  0  0999 V2000 
    2.8351    2.7636    1.8280 C   0  0  0  0  0  0  0  0  0  0  0  0 
    3.0808    1.5962   -4.3956 C   0  0  0  0  0  0  0  0  0  0  0  0 
    4.2902    2.3450    1.9787 C   0  0  0  0  0  0  0  0  0  0  0  0 
    6.9445    1.0371   -2.7159 C   0  0  0  0  0  0  0  0  0  0  0  0 
    6.4335   -0.4341   -2.7466 C   0  0  0  0  0  0  0  0  0  0  0  0 
    4.7139    2.2834   -2.7450 C   0  0  0  0  0  0  0  0  0  0  0  0 
    3.9111   -0.0220   -2.7936 C   0  0  0  0  0  0  0  0  0  0  0  0 
    5.8866    1.7927   -1.8764 C   0  0  1  0  0  0  0  0  0  0  0  0 
    5.1240   -0.4002   -1.9251 C   0  0  2  0  0  0  0  0  0  0  0  0 
    4.7212    0.8560    0.1743 C   0  0  0  0  0  0  0  0  0  0  0  0 
    4.2044    1.1862   -3.5710 N   0  0  0  0  0  0  0  0  0  0  0  0 
    5.3862    0.7168   -1.0076 N   0  0  0  0  0  0  0  0  0  0  0  0 
    4.0782   -0.0275    0.7208 O   0  0  0  0  0  0  0  0  0  0  0  0 
    4.9063    2.1041    0.6957 O   0  0  0  0  0  0  0  0  0  0  0  0 
    2.4157    3.0221    2.8076 H   0  0  0  0  0  0  0  0  0  0  0  0 
    2.2459    1.9444    1.4066 H   0  0  0  0  0  0  0  0  0  0  0  0 
    2.7478    3.6388    1.1752 H   0  0  0  0  0  0  0  0  0  0  0  0 
    3.3748    2.4459   -5.0222 H   0  0  0  0  0  0  0  0  0  0  0  0 
    2.1918    1.8961   -3.8065 H   0  0  0  0  0  0  0  0  0  0  0  0 
    2.7876    0.7714   -5.0547 H   0  0  0  0  0  0  0  0  0  0  0  0 
    4.3794    1.4437    2.5896 H   0  0  0  0  0  0  0  0  0  0  0  0 
    4.8918    3.1434    2.4218 H   0  0  0  0  0  0  0  0  0  0  0  0 
    7.0340    1.4645   -3.7180 H   0  0  0  0  0  0  0  0  0  0  0  0 
    7.9225    1.1013   -2.2287 H   0  0  0  0  0  0  0  0  0  0  0  0 
    7.1542   -1.1073   -2.2723 H   0  0  0  0  0  0  0  0  0  0  0  0 
    6.2555   -0.7874   -3.7653 H   0  0  0  0  0  0  0  0  0  0  0  0 
    5.0482    3.0885   -3.4123 H   0  0  0  0  0  0  0  0  0  0  0  0 
    3.9375    2.7074   -2.0777 H   0  0  0  0  0  0  0  0  0  0  0  0 
    3.0332    0.1029   -2.1299 H   0  0  0  0  0  0  0  0  0  0  0  0 
    3.6801   -0.8328   -3.4965 H   0  0  0  0  0  0  0  0  0  0  0  0 
    6.2939    2.6108   -1.2819 H   0  0  0  0  0  0  0  0  0  0  0  0 
    4.9213   -1.3102   -1.3593 H   0  0  0  0  0  0  0  0  0  0  0  0 
  1  3  1  0  0  0  0 
  1 15  1  0  0  0  0 
  2 19  1  0  0  0  0 
  2 11  1  0  0  0  0 
  3 22  1  0  0  0  0 
  3 21  1  0  0  0  0 
  4 24  1  0  0  0  0 
  4  8  1  0  0  0  0 
  5  4  1  0  0  0  0 
  5 25  1  0  0  0  0 
  5  9  1  0  0  0  0 
  6 28  1  0  0  0  0 
  6  8  1  0  0  0  0 
  7 29  1  0  0  0  0 
  7  9  1  0  0  0  0 
  8 31  1  1  0  0  0 
  8 12  1  0  0  0  0 
  9 32  1  1  0  0  0 
  9 12  1  0  0  0  0 
 10 14  1  0  0  0  0 
 10 13  2  0  0  0  0 
 11  7  1  0  0  0  0 
 11  6  1  0  0  0  0 
 12 10  1  0  0  0  0 
 14  3  1  0  0  0  0 
 16  1  1  0  0  0  0 
 17  1  1  0  0  0  0 
 18  2  1  0  0  0  0 
 20  2  1  0  0  0  0 
 23  4  1  0  0  0  0 
 26  5  1  0  0  0  0 
 27  6  1  0  0  0  0 
 30  7  1  0  0  0  0 
M  END 
>  <HBA> 
4 
 
>  <HBD> 
0 
 
>  <TPSA> 
32.78 
 
>  <cid> 
43027 
 
>  <dipole> 
2.24 
 
>  <excitation_energy_1> 
5.25 
 
>  <excitation_energy_2> 
5.702 
 
>  <excitation_energy_3> 
5.756 
 
>  <excitation_energy_4> 
5.842 
 
>  <homo_energy> 
-5.802 
 
>  <homo_lumo_gap> 
7.301 
 
>  <logP> 
0.797 
 
>  <lumo_energy> 
1.499 
 
>  <melting_point> 
43.98 
 
>  <molecular_refractivity> 
61.25 
 
>  <oscillator_strength_1> 
0.0083 
 
>  <oscillator_strength_2> 
0.0145 
 
>  <oscillator_strength_3> 
0.0061 
 
>  <oscillator_strength_4> 
0.0081 
 
>  <open_babel_can_smiles> 
CCOC(=O)N1[C@@H]2CC[C@H]1CN(C2)C 
 
>  <mulliken_charges> 
32 
1   -0.461537 
2   -0.289035 
3   -0.032825 
4   -0.265699 
5   -0.266167 
6   -0.112997 
7   -0.118257 
8   -0.007205 
9   -0.007236 
10   0.787088 
11   -0.396534 
12   -0.449924 
13   -0.536764 
14   -0.495341 
15   0.145662 
16   0.17689 
17   0.150743 
18   0.147259 
19   0.121969 
20   0.148639 
21   0.170038 
22   0.145798 
23   0.14858 
24   0.143464 
25   0.144795 
26   0.148555 
27   0.138963 
28   0.122784 
29   0.132318 
30   0.140038 
31   0.159639 
32   0.1663 
 
>  <lowdin_charges> 
32 
1   -0.45805 
2   -0.355603 
3   -0.126224 
4   -0.281046 
5   -0.282135 
6   -0.212415 
7   -0.210863 
8   -0.065702 
9   -0.061624 
10   0.205695 
11   -0.190991 
12   -0.113558 
13   -0.327538 
14   -0.218787 
15   0.156014 
16   0.166605 
17   0.152749 
18   0.150164 
19   0.123158 
20   0.151224 
21   0.159253 
22   0.149881 
23   0.153228 
24   0.149265 
25   0.151753 
26   0.153185 
27   0.147145 
28   0.125861 
29   0.130134 
30   0.14765 
31   0.163967 
32   0.167605 
 
$$$$ 
 
