PCCDB-ID:  22334 
public computational chemistry database (PCCDB) project, http://pccdb.org 
 
 27 28  0  0  0  0  0  0  0  0999 V2000 
    1.8731   -1.2990   -0.6641 C   0  0  0  0  0  0  0  0  0  0  0  0 
    2.4302   -0.0755    0.0704 C   0  0  0  0  0  0  0  0  0  0  0  0 
    6.1412   -0.5589   -3.3891 C   0  0  0  0  0  0  0  0  0  0  0  0 
    6.2274   -0.6220   -1.9963 C   0  0  0  0  0  0  0  0  0  0  0  0 
    5.0281    0.0401   -3.9735 C   0  0  0  0  0  0  0  0  0  0  0  0 
    5.2087   -0.0962   -1.2061 C   0  0  0  0  0  0  0  0  0  0  0  0 
    4.0084    0.5712   -3.1786 C   0  0  0  0  0  0  0  0  0  0  0  0 
    1.3106    3.2371   -0.6526 C   0  0  0  0  0  0  0  0  0  0  0  0 
    2.6793    3.7883   -0.2779 C   0  0  0  0  0  0  0  0  0  0  0  0 
    4.0788    0.5121   -1.7817 C   0  0  0  0  0  0  0  0  0  0  0  0 
    2.9834    1.0453   -0.8509 C   0  0  0  0  0  0  0  0  0  0  0  0 
    1.5800    1.8383   -1.7987 S   0  0  0  0  0  0  0  0  0  0  0  0 
    3.7076    2.3810    0.2834 S   0  0  0  0  0  0  0  0  0  0  0  0 
    1.4954   -2.0286    0.0611 H   0  0  0  0  0  0  0  0  0  0  0  0 
    2.6410   -1.7915   -1.2689 H   0  0  0  0  0  0  0  0  0  0  0  0 
    1.0439   -1.0211   -1.3233 H   0  0  0  0  0  0  0  0  0  0  0  0 
    3.2347   -0.3918    0.7472 H   0  0  0  0  0  0  0  0  0  0  0  0 
    1.6562    0.3661    0.7069 H   0  0  0  0  0  0  0  0  0  0  0  0 
    6.9346   -0.9694   -4.0078 H   0  0  0  0  0  0  0  0  0  0  0  0 
    7.0919   -1.0790   -1.5219 H   0  0  0  0  0  0  0  0  0  0  0  0 
    4.9454    0.1010   -5.0555 H   0  0  0  0  0  0  0  0  0  0  0  0 
    5.3041   -0.1468   -0.1251 H   0  0  0  0  0  0  0  0  0  0  0  0 
    3.1604    1.0467   -3.6587 H   0  0  0  0  0  0  0  0  0  0  0  0 
    0.7072    3.9750   -1.1925 H   0  0  0  0  0  0  0  0  0  0  0  0 
    0.7598    2.9126    0.2354 H   0  0  0  0  0  0  0  0  0  0  0  0 
    2.6149    4.4946    0.5573 H   0  0  0  0  0  0  0  0  0  0  0  0 
    3.1463    4.2872   -1.1316 H   0  0  0  0  0  0  0  0  0  0  0  0 
  1 14  1  0  0  0  0 
  1  2  1  0  0  0  0 
  2 18  1  0  0  0  0 
  2 17  1  0  0  0  0 
  3  4  1  0  0  0  0 
  4 20  1  0  0  0  0 
  4  6  2  0  0  0  0 
  5  3  2  0  0  0  0 
  5  7  1  0  0  0  0 
  6 22  1  0  0  0  0 
  7 10  2  0  0  0  0 
  8  9  1  0  0  0  0 
  8 25  1  0  0  0  0 
  9 13  1  0  0  0  0 
  9 26  1  0  0  0  0 
 10  6  1  0  0  0  0 
 10 11  1  0  0  0  0 
 11  2  1  0  0  0  0 
 11 13  1  0  0  0  0 
 12 11  1  0  0  0  0 
 12  8  1  0  0  0  0 
 15  1  1  0  0  0  0 
 16  1  1  0  0  0  0 
 19  3  1  0  0  0  0 
 21  5  1  0  0  0  0 
 23  7  1  0  0  0  0 
 24  8  1  0  0  0  0 
 27  9  1  0  0  0  0 
M  END 
>  <HBA> 
2 
 
>  <HBD> 
0 
 
>  <TPSA> 
50.6 
 
>  <cid> 
22334 
 
>  <dipole> 
0.88 
 
>  <excitation_energy_1> 
4.438 
 
>  <excitation_energy_2> 
4.761 
 
>  <excitation_energy_3> 
4.993 
 
>  <excitation_energy_4> 
5.142 
 
>  <homo_energy> 
-5.987 
 
>  <homo_lumo_gap> 
5.581 
 
>  <logP> 
3.729 
 
>  <lumo_energy> 
-0.405 
 
>  <melting_point> 
51.96 
 
>  <molecular_refractivity> 
63.59 
 
>  <oscillator_strength_1> 
0.0077 
 
>  <oscillator_strength_2> 
0.0031 
 
>  <oscillator_strength_3> 
0.0046 
 
>  <oscillator_strength_4> 
0.0027 
 
>  <open_babel_can_smiles> 
CCC1(SCCS1)c1ccccc1 
 
>  <mulliken_charges> 
27 
1   -0.45639 
2   -0.229406 
3   -0.126864 
4   -0.13221 
5   -0.132794 
6   -0.168063 
7   -0.186503 
8   -0.414563 
9   -0.413013 
10   0.19705 
11   -0.362513 
12   0.114534 
13   0.110103 
14   0.145026 
15   0.159175 
16   0.165246 
17   0.149316 
18   0.152657 
19   0.129388 
20   0.130748 
21   0.130531 
22   0.136921 
23   0.157348 
24   0.183078 
25   0.187251 
26   0.182317 
27   0.191629 
 
>  <lowdin_charges> 
27 
1   -0.456385 
2   -0.27795 
3   -0.159019 
4   -0.154712 
5   -0.152204 
6   -0.156399 
7   -0.167821 
8   -0.376426 
9   -0.375728 
10   -0.008788 
11   -0.165681 
12   0.10112 
13   0.089364 
14   0.154208 
15   0.157481 
16   0.159166 
17   0.150869 
18   0.154672 
19   0.158992 
20   0.159154 
21   0.156187 
22   0.158339 
23   0.172203 
24   0.174877 
25   0.164442 
26   0.172895 
27   0.167145 
 
$$$$ 
 
