PCCDB-ID:  45402 
public computational chemistry database (PCCDB) project, http://pccdb.org 
 
 32 33  0  0  1  0  0  0  0  0999 V2000 
    0.6721    1.1582   -0.8718 C   0  0  0  0  0  0  0  0  0  0  0  0 
    1.4483   -0.0243   -0.2698 C   0  0  0  0  0  0  0  0  0  0  0  0 
   -0.7458    1.2365   -0.2825 C   0  0  0  0  0  0  0  0  0  0  0  0 
    0.1121   -4.9639    2.3194 C   0  0  0  0  0  0  0  0  0  0  0  0 
   -0.5447   -3.8849    1.6532 C   0  0  0  0  0  0  0  0  0  0  0  0 
    0.6314   -1.3269   -0.3740 C   0  0  0  0  0  0  0  0  0  0  0  0 
   -1.4468   -0.1293   -0.4035 C   0  0  0  0  0  0  0  0  0  0  0  0 
    0.9603   -4.5404    3.3053 C   0  0  0  0  0  0  0  0  0  0  0  0 
   -2.1193   -1.0501    2.2841 C   0  0  0  0  0  0  0  0  0  0  0  0 
   -0.7074   -1.2903    1.6958 C   0  0  1  0  0  0  0  0  0  0  0  0 
   -0.1942   -2.6491    2.1365 C   0  0  0  0  0  0  0  0  0  0  0  0 
   -2.0903   -1.1749    3.7415 N   0  0  0  0  0  0  0  0  0  0  0  0 
   -0.7154   -1.2437    0.2186 N   0  0  0  0  0  0  0  0  0  0  0  0 
    0.9628   -2.8101    3.4366 S   0  0  0  0  0  0  0  0  0  0  0  0 
    0.5957    1.0195   -1.9610 H   0  0  0  0  0  0  0  0  0  0  0  0 
    1.2130    2.0997   -0.7138 H   0  0  0  0  0  0  0  0  0  0  0  0 
    1.6815    0.1847    0.7833 H   0  0  0  0  0  0  0  0  0  0  0  0 
    2.4114   -0.1549   -0.7804 H   0  0  0  0  0  0  0  0  0  0  0  0 
   -1.3375    2.0037   -0.7994 H   0  0  0  0  0  0  0  0  0  0  0  0 
   -0.6947    1.5364    0.7739 H   0  0  0  0  0  0  0  0  0  0  0  0 
   -0.0401   -6.0089    2.0700 H   0  0  0  0  0  0  0  0  0  0  0  0 
   -1.2340   -4.0065    0.8252 H   0  0  0  0  0  0  0  0  0  0  0  0 
    1.1677   -2.1596    0.0889 H   0  0  0  0  0  0  0  0  0  0  0  0 
    0.5004   -1.5818   -1.4358 H   0  0  0  0  0  0  0  0  0  0  0  0 
   -1.5430   -0.3805   -1.4701 H   0  0  0  0  0  0  0  0  0  0  0  0 
   -2.4654   -0.0881   -0.0104 H   0  0  0  0  0  0  0  0  0  0  0  0 
    1.5762   -5.1373    3.9647 H   0  0  0  0  0  0  0  0  0  0  0  0 
   -2.8232   -1.7308    1.7733 H   0  0  0  0  0  0  0  0  0  0  0  0 
   -2.4335   -0.0249    2.0629 H   0  0  0  0  0  0  0  0  0  0  0  0 
   -0.0606   -0.5178    2.1470 H   0  0  0  0  0  0  0  0  0  0  0  0 
   -1.9508   -2.1493    4.0021 H   0  0  0  0  0  0  0  0  0  0  0  0 
   -2.9917   -0.8974    4.1245 H   0  0  0  0  0  0  0  0  0  0  0  0 
  1 16  1  0  0  0  0 
  1  3  1  0  0  0  0 
  1  2  1  0  0  0  0 
  2 17  1  0  0  0  0 
  3 20  1  0  0  0  0 
  4  8  2  0  0  0  0 
  5 11  2  0  0  0  0 
  5  4  1  0  0  0  0 
  6  2  1  0  0  0  0 
  6 23  1  0  0  0  0 
  6 13  1  0  0  0  0 
  7  3  1  0  0  0  0 
  7 26  1  0  0  0  0 
  7 13  1  0  0  0  0 
  8 14  1  0  0  0  0 
  8 27  1  0  0  0  0 
  9 12  1  0  0  0  0 
 10 11  1  0  0  0  0 
 10 30  1  1  0  0  0 
 10  9  1  0  0  0  0 
 11 14  1  0  0  0  0 
 12 31  1  0  0  0  0 
 12 32  1  0  0  0  0 
 13 10  1  0  0  0  0 
 15  1  1  0  0  0  0 
 18  2  1  0  0  0  0 
 19  3  1  0  0  0  0 
 21  4  1  0  0  0  0 
 22  5  1  0  0  0  0 
 24  6  1  0  0  0  0 
 25  7  1  0  0  0  0 
 28  9  1  0  0  0  0 
 29  9  1  0  0  0  0 
M  END 
>  <HBA> 
3 
 
>  <HBD> 
1 
 
>  <TPSA> 
57.5 
 
>  <cid> 
45402 
 
>  <dipole> 
1.28 
 
>  <excitation_energy_1> 
4.357 
 
>  <excitation_energy_2> 
4.975 
 
>  <excitation_energy_3> 
5.17 
 
>  <excitation_energy_4> 
5.248 
 
>  <homo_energy> 
-5.459 
 
>  <homo_lumo_gap> 
5.317 
 
>  <logP> 
2.872 
 
>  <lumo_energy> 
-0.142 
 
>  <melting_point> 
81.86 
 
>  <molecular_refractivity> 
65.53 
 
>  <oscillator_strength_1> 
0.002 
 
>  <oscillator_strength_2> 
0.0131 
 
>  <oscillator_strength_3> 
0.0015 
 
>  <oscillator_strength_4> 
0.0879 
 
>  <open_babel_can_smiles> 
NC[C@@H](c1cccs1)N1CCCCC1 
 
>  <mulliken_charges> 
32 
1   -0.257665 
2   -0.268512 
3   -0.266635 
4   -0.101504 
5   -0.115033 
6   -0.147313 
7   -0.147674 
8   -0.348863 
9   -0.156314 
10   0.043999 
11   -0.173175 
12   -0.726049 
13   -0.399489 
14   0.242713 
15   0.126553 
16   0.132475 
17   0.138436 
18   0.13111 
19   0.129166 
20   0.137303 
21   0.136682 
22   0.145925 
23   0.158384 
24   0.130642 
25   0.134471 
26   0.142882 
27   0.167684 
28   0.127237 
29   0.143761 
30   0.128359 
31   0.312273 
32   0.298171 
 
>  <lowdin_charges> 
32 
1   -0.276336 
2   -0.292818 
3   -0.295951 
4   -0.182784 
5   -0.192963 
6   -0.208543 
7   -0.206403 
8   -0.331739 
9   -0.210579 
10   -0.060583 
11   -0.167972 
12   -0.553089 
13   -0.189671 
14   0.307541 
15   0.134478 
16   0.143483 
17   0.140255 
18   0.145756 
19   0.145927 
20   0.139375 
21   0.161724 
22   0.16959 
23   0.157423 
24   0.136939 
25   0.139343 
26   0.146159 
27   0.181191 
28   0.126365 
29   0.143944 
30   0.135277 
31   0.258439 
32   0.256223 
 
$$$$ 
 
