PCCDB-ID:  68129 
public computational chemistry database (PCCDB) project, http://pccdb.org 
 
 12 12  0  0  0  0  0  0  0  0999 V2000 
   -0.7703    1.1576   -0.0019 C   0  0  0  0  0  0  0  0  0  0  0  0 
   -1.3207   -0.0725    0.0432 C   0  0  0  0  0  0  0  0  0  0  0  0 
    0.7647   -1.1108    0.0164 C   0  0  0  0  0  0  0  0  0  0  0  0 
    0.6789    1.3528   -0.0422 C   0  0  0  0  0  0  0  0  0  0  0  0 
    1.4241    0.0708   -0.0310 C   0  0  0  0  0  0  0  0  0  0  0  0 
    1.2339    2.4455   -0.0812 O   0  0  0  0  0  0  0  0  0  0  0  0 
    2.7753    0.1869   -0.0690 O   0  0  0  0  0  0  0  0  0  0  0  0 
   -0.5967   -1.2127    0.0555 O   0  0  0  0  0  0  0  0  0  0  0  0 
   -1.4041    2.0371   -0.0096 H   0  0  0  0  0  0  0  0  0  0  0  0 
   -2.3833   -0.2835    0.0752 H   0  0  0  0  0  0  0  0  0  0  0  0 
    1.2354   -2.0879    0.0299 H   0  0  0  0  0  0  0  0  0  0  0  0 
    3.1809   -0.6953   -0.0621 H   0  0  0  0  0  0  0  0  0  0  0  0 
  1  2  2  0  0  0  0 
  2  8  1  0  0  0  0 
  2 10  1  0  0  0  0 
  3 11  1  0  0  0  0 
  3  8  1  0  0  0  0 
  4  5  1  0  0  0  0 
  4  1  1  0  0  0  0 
  5  3  2  0  0  0  0 
  6  4  2  0  0  0  0 
  7 12  1  0  0  0  0 
  7  5  1  0  0  0  0 
  9  1  1  0  0  0  0 
M  END 
>  <HBA> 
3 
 
>  <HBD> 
1 
 
>  <TPSA> 
50.44 
 
>  <cid> 
68129 
 
>  <dipole> 
4.66 
 
>  <excitation_energy_1> 
3.952 
 
>  <excitation_energy_2> 
4.982 
 
>  <excitation_energy_3> 
5.214 
 
>  <excitation_energy_4> 
5.347 
 
>  <homo_energy> 
-6.362 
 
>  <homo_lumo_gap> 
5.298 
 
>  <logP> 
0.345 
 
>  <lumo_energy> 
-1.064 
 
>  <melting_point> 
77.96 
 
>  <molecular_refractivity> 
27.0 
 
>  <oscillator_strength_1> 
0.0 
 
>  <oscillator_strength_2> 
0.1308 
 
>  <oscillator_strength_3> 
0.0001 
 
>  <oscillator_strength_4> 
0.0014 
 
>  <open_babel_can_smiles> 
O=c1ccocc1O 
 
>  <mulliken_charges> 
12 
1   -0.227868 
2   0.115596 
3   0.023749 
4   0.439895 
5   0.261391 
6   -0.499573 
7   -0.60618 
8   -0.41465 
9   0.163293 
10   0.175491 
11   0.15967 
12   0.409184 
 
>  <lowdin_charges> 
12 
1   -0.224997 
2   -0.024988 
3   -0.108624 
4   0.123392 
5   0.049338 
6   -0.266489 
7   -0.343617 
8   -0.093851 
9   0.185495 
10   0.174405 
11   0.169575 
12   0.360361 
 
$$$$ 
 
