PCCDB-ID:  65036 
public computational chemistry database (PCCDB) project, http://pccdb.org 
 
 19 18  0  0  0  0  0  0  0  0999 V2000 
    3.9120    0.5987   -1.8760 C   0  0  0  0  0  0  0  0  0  0  0  0 
    3.6387   -0.4328    5.2527 C   0  0  0  0  0  0  0  0  0  0  0  0 
    4.4470    0.4895   -0.6591 C   0  0  0  0  0  0  0  0  0  0  0  0 
    3.8526   -0.2395    3.9485 C   0  0  0  0  0  0  0  0  0  0  0  0 
    5.2303    1.5724    0.0160 C   0  0  0  0  0  0  0  0  0  0  0  0 
    5.2007   -0.2951    3.3099 C   0  0  0  0  0  0  0  0  0  0  0  0 
    7.2023    1.1483    2.2481 O   0  0  0  0  0  0  0  0  0  0  0  0 
    4.4369    2.1938    1.5677 S   0  0  0  0  0  0  0  0  0  0  0  0 
    5.9271    1.4083    3.0098 S   0  0  1  0  0  0  0  0  0  0  0  0 
    3.3655   -0.2202   -2.3353 H   0  0  0  0  0  0  0  0  0  0  0  0 
    4.0045    1.5114   -2.4611 H   0  0  0  0  0  0  0  0  0  0  0  0 
    2.6426   -0.3668    5.6806 H   0  0  0  0  0  0  0  0  0  0  0  0 
    4.4477   -0.6761    5.9385 H   0  0  0  0  0  0  0  0  0  0  0  0 
    4.3275   -0.4376   -0.0987 H   0  0  0  0  0  0  0  0  0  0  0  0 
    3.0206    0.0079    3.2928 H   0  0  0  0  0  0  0  0  0  0  0  0 
    5.3587    2.4408   -0.6358 H   0  0  0  0  0  0  0  0  0  0  0  0 
    6.2335    1.2357    0.3244 H   0  0  0  0  0  0  0  0  0  0  0  0 
    5.2084   -0.7913    2.3343 H   0  0  0  0  0  0  0  0  0  0  0  0 
    5.9479   -0.7704    3.9551 H   0  0  0  0  0  0  0  0  0  0  0  0 
  1  3  2  0  0  0  0 
  2 12  1  0  0  0  0 
  2 13  1  0  0  0  0 
  3 14  1  0  0  0  0 
  3  5  1  0  0  0  0 
  4  2  2  0  0  0  0 
  5 17  1  0  0  0  0 
  5  8  1  0  0  0  0 
  6  4  1  0  0  0  0 
  6 19  1  0  0  0  0 
  8  9  1  0  0  0  0 
  9  7  2  6  0  0  0 
  9  6  1  0  0  0  0 
 10  1  1  0  0  0  0 
 11  1  1  0  0  0  0 
 15  4  1  0  0  0  0 
 16  5  1  0  0  0  0 
 18  6  1  0  0  0  0 
M  END 
>  <HBA> 
2 
 
>  <HBD> 
0 
 
>  <TPSA> 
61.58 
 
>  <cid> 
65036 
 
>  <dipole> 
2.57 
 
>  <excitation_energy_1> 
3.808 
 
>  <excitation_energy_2> 
4.443 
 
>  <excitation_energy_3> 
4.693 
 
>  <excitation_energy_4> 
4.993 
 
>  <homo_energy> 
-6.365 
 
>  <homo_lumo_gap> 
4.991 
 
>  <logP> 
2.621 
 
>  <lumo_energy> 
-1.374 
 
>  <melting_point> 
-39.49 
 
>  <molecular_refractivity> 
45.88 
 
>  <oscillator_strength_1> 
0.008 
 
>  <oscillator_strength_2> 
0.0081 
 
>  <oscillator_strength_3> 
0.0341 
 
>  <oscillator_strength_4> 
0.0004 
 
>  <open_babel_can_smiles> 
C=CCS[S@](=O)CC=C 
 
>  <mulliken_charges> 
19 
1   -0.33367 
2   -0.320793 
3   -0.020337 
4   -0.065042 
5   -0.509792 
6   -0.51228 
7   -0.583075 
8   -0.040381 
9   0.656594 
10   0.146909 
11   0.142943 
12   0.157161 
13   0.148659 
14   0.132111 
15   0.16721 
16   0.192677 
17   0.2398 
18   0.202908 
19   0.198395 
 
>  <lowdin_charges> 
19 
1   -0.333091 
2   -0.314005 
3   -0.150875 
4   -0.163125 
5   -0.376182 
6   -0.41526 
7   -0.620029 
8   -0.048182 
9   0.723124 
10   0.163943 
11   0.158436 
12   0.167293 
13   0.161183 
14   0.152594 
15   0.170579 
16   0.175229 
17   0.1915 
18   0.176394 
19   0.180473 
 
$$$$ 
 
