PCCDB-ID:  22649 
public computational chemistry database (PCCDB) project, http://pccdb.org 
 
 19 19  0  0  0  0  0  0  0  0999 V2000 
   -1.8967   -0.0265    0.0246 C   0  0  0  0  0  0  0  0  0  0  0  0 
   -1.2441    1.2085    0.0578 C   0  0  0  0  0  0  0  0  0  0  0  0 
   -1.1546   -1.2027   -0.0867 C   0  0  0  0  0  0  0  0  0  0  0  0 
    0.1457    1.2713   -0.0146 C   0  0  0  0  0  0  0  0  0  0  0  0 
    0.2368   -1.1488   -0.1742 C   0  0  0  0  0  0  0  0  0  0  0  0 
    0.8798    0.0893   -0.1373 C   0  0  0  0  0  0  0  0  0  0  0  0 
    3.0489    0.8381   -1.1705 C   0  0  0  0  0  0  0  0  0  0  0  0 
    4.2959    1.0394   -1.2651 N   0  0  0  0  0  0  0  0  0  0  0  0 
    2.8952   -0.6369    0.8235 N   0  0  0  0  0  0  0  0  0  0  0  0 
    2.3201    0.1285   -0.1700 N   0  0  0  0  0  0  0  0  0  0  0  0 
    2.1936    1.3125   -2.1078 O   0  0  0  0  0  0  0  0  0  0  0  0 
    4.1112   -0.6782    0.8508 O   0  0  0  0  0  0  0  0  0  0  0  0 
   -2.9803   -0.0704    0.0862 H   0  0  0  0  0  0  0  0  0  0  0  0 
   -1.8175    2.1265    0.1497 H   0  0  0  0  0  0  0  0  0  0  0  0 
   -1.6563   -2.1656   -0.1131 H   0  0  0  0  0  0  0  0  0  0  0  0 
    0.6600    2.2257    0.0193 H   0  0  0  0  0  0  0  0  0  0  0  0 
    0.8252   -2.0553   -0.2684 H   0  0  0  0  0  0  0  0  0  0  0  0 
    4.8064    0.6095   -0.4988 H   0  0  0  0  0  0  0  0  0  0  0  0 
    2.7693    1.7668   -2.7509 H   0  0  0  0  0  0  0  0  0  0  0  0 
  1  2  1  0  0  0  0 
  1 13  1  0  0  0  0 
  2 14  1  0  0  0  0 
  3  1  2  0  0  0  0 
  4 16  1  0  0  0  0 
  4  2  2  0  0  0  0 
  5  6  2  0  0  0  0 
  5  3  1  0  0  0  0 
  6  4  1  0  0  0  0 
  7 10  1  0  0  0  0 
  8  7  2  0  0  0  0 
  8 18  1  0  0  0  0 
  9 12  2  0  0  0  0 
 10  6  1  0  0  0  0 
 10  9  1  0  0  0  0 
 11  7  1  0  0  0  0 
 15  3  1  0  0  0  0 
 17  5  1  0  0  0  0 
 19 11  1  0  0  0  0 
M  END 
>  <HBA> 
5 
 
>  <HBD> 
1 
 
>  <TPSA> 
75.76 
 
>  <cid> 
22649 
 
>  <dipole> 
3.31 
 
>  <excitation_energy_1> 
2.884 
 
>  <excitation_energy_2> 
4.12 
 
>  <excitation_energy_3> 
4.282 
 
>  <excitation_energy_4> 
4.851 
 
>  <homo_energy> 
-6.656 
 
>  <homo_lumo_gap> 
4.574 
 
>  <logP> 
1.953 
 
>  <lumo_energy> 
-2.082 
 
>  <melting_point> 
118.35 
 
>  <molecular_refractivity> 
43.88 
 
>  <oscillator_strength_1> 
0.0018 
 
>  <oscillator_strength_2> 
0.0376 
 
>  <oscillator_strength_3> 
0.0013 
 
>  <oscillator_strength_4> 
0.0302 
 
>  <open_babel_can_smiles> 
O=NN(c1ccccc1)C(=N)O 
 
>  <mulliken_charges> 
19 
1   -0.115922 
2   -0.146692 
3   -0.144341 
4   -0.114674 
5   -0.125277 
6   0.296481 
7   0.670177 
8   -0.628721 
9   0.187762 
10   -0.444963 
11   -0.587777 
12   -0.333431 
13   0.139205 
14   0.141642 
15   0.14259 
16   0.147968 
17   0.152048 
18   0.338282 
19   0.425644 
 
>  <lowdin_charges> 
19 
1   -0.145369 
2   -0.15021 
3   -0.149279 
4   -0.148184 
5   -0.152522 
6   0.044554 
7   0.155002 
8   -0.421815 
9   0.084597 
10   -0.031867 
11   -0.358924 
12   -0.211794 
13   0.161075 
14   0.16449 
15   0.164532 
16   0.169837 
17   0.171876 
18   0.281278 
19   0.372725 
 
$$$$ 
 
