PCCDB-ID:  27010 
public computational chemistry database (PCCDB) project, http://pccdb.org 
 
 25 25  0  0  0  0  0  0  0  0999 V2000 
    0.8722   -0.2068   -0.2044 C   0  0  0  0  0  0  0  0  0  0  0  0 
    3.1537    0.3320   -1.1338 C   0  0  0  0  0  0  0  0  0  0  0  0 
    1.8455    1.5122    3.3119 C   0  0  0  0  0  0  0  0  0  0  0  0 
    4.2552    1.2483    2.6168 C   0  0  0  0  0  0  0  0  0  0  0  0 
    2.9466   -1.1523    0.9498 C   0  0  0  0  0  0  0  0  0  0  0  0 
    2.6680   -0.7416    2.4006 C   0  0  0  0  0  0  0  0  0  0  0  0 
    2.3543    0.0184    0.1333 C   0  0  0  0  0  0  0  0  0  0  0  0 
    2.8086    0.7966    2.3618 C   0  0  0  0  0  0  0  0  0  0  0  0 
    2.4489    1.1649    1.0104 O   0  0  0  0  0  0  0  0  0  0  0  0 
    0.7506   -1.0127   -0.9384 H   0  0  0  0  0  0  0  0  0  0  0  0 
    0.4421    0.7094   -0.6223 H   0  0  0  0  0  0  0  0  0  0  0  0 
    0.2974   -0.4697    0.6905 H   0  0  0  0  0  0  0  0  0  0  0  0 
    3.1286   -0.5125   -1.8329 H   0  0  0  0  0  0  0  0  0  0  0  0 
    4.1981    0.5461   -0.8841 H   0  0  0  0  0  0  0  0  0  0  0  0 
    2.7386    1.2091   -1.6420 H   0  0  0  0  0  0  0  0  0  0  0  0 
    2.0623    1.2567    4.3560 H   0  0  0  0  0  0  0  0  0  0  0  0 
    0.8109    1.2292    3.0917 H   0  0  0  0  0  0  0  0  0  0  0  0 
    1.9324    2.5985    3.2006 H   0  0  0  0  0  0  0  0  0  0  0  0 
    4.5436    1.0836    3.6621 H   0  0  0  0  0  0  0  0  0  0  0  0 
    4.3568    2.3155    2.3938 H   0  0  0  0  0  0  0  0  0  0  0  0 
    4.9589    0.7031    1.9780 H   0  0  0  0  0  0  0  0  0  0  0  0 
    2.5009   -2.1156    0.6808 H   0  0  0  0  0  0  0  0  0  0  0  0 
    4.0260   -1.2280    0.7719 H   0  0  0  0  0  0  0  0  0  0  0  0 
    3.3521   -1.2050    3.1191 H   0  0  0  0  0  0  0  0  0  0  0  0 
    1.6478   -1.0194    2.6912 H   0  0  0  0  0  0  0  0  0  0  0  0 
  1  7  1  0  0  0  0 
  1 12  1  0  0  0  0 
  2 14  1  0  0  0  0 
  2  7  1  0  0  0  0 
  3 16  1  0  0  0  0 
  4 19  1  0  0  0  0 
  5  6  1  0  0  0  0 
  6 25  1  0  0  0  0 
  6 24  1  0  0  0  0 
  7  5  1  0  0  0  0 
  7  9  1  0  0  0  0 
  8  6  1  0  0  0  0 
  8  4  1  0  0  0  0 
  8  3  1  0  0  0  0 
  9  8  1  0  0  0  0 
 10  1  1  0  0  0  0 
 11  1  1  0  0  0  0 
 13  2  1  0  0  0  0 
 15  2  1  0  0  0  0 
 17  3  1  0  0  0  0 
 18  3  1  0  0  0  0 
 20  4  1  0  0  0  0 
 21  4  1  0  0  0  0 
 22  5  1  0  0  0  0 
 23  5  1  0  0  0  0 
M  END 
>  <HBA> 
1 
 
>  <HBD> 
0 
 
>  <TPSA> 
9.23 
 
>  <cid> 
27010 
 
>  <dipole> 
1.36 
 
>  <excitation_energy_1> 
5.992 
 
>  <excitation_energy_2> 
6.42 
 
>  <excitation_energy_3> 
6.572 
 
>  <excitation_energy_4> 
6.693 
 
>  <homo_energy> 
-6.378 
 
>  <homo_lumo_gap> 
8.365 
 
>  <logP> 
2.354 
 
>  <lumo_energy> 
1.986 
 
>  <melting_point> 
7.78 
 
>  <molecular_refractivity> 
39.62 
 
>  <oscillator_strength_1> 
0.0336 
 
>  <oscillator_strength_2> 
0.0 
 
>  <oscillator_strength_3> 
0.001 
 
>  <oscillator_strength_4> 
0.0126 
 
>  <open_babel_can_smiles> 
CC1(C)CCC(O1)(C)C 
 
>  <mulliken_charges> 
25 
1   -0.45092 
2   -0.451029 
3   -0.451304 
4   -0.451321 
5   -0.310909 
6   -0.310191 
7   0.350328 
8   0.350172 
9   -0.545302 
10   0.133465 
11   0.152222 
12   0.140284 
13   0.134991 
14   0.144091 
15   0.150442 
16   0.135104 
17   0.144217 
18   0.150538 
19   0.133502 
20   0.152435 
21   0.140082 
22   0.140641 
23   0.138994 
24   0.140537 
25   0.138931 
 
>  <lowdin_charges> 
25 
1   -0.454725 
2   -0.447417 
3   -0.443296 
4   -0.452312 
5   -0.288764 
6   -0.291468 
7   0.130934 
8   0.132482 
9   -0.285654 
10   0.147138 
11   0.156612 
12   0.148821 
13   0.148668 
14   0.150224 
15   0.155713 
16   0.147075 
17   0.150434 
18   0.153193 
19   0.145493 
20   0.154731 
21   0.149454 
22   0.151283 
23   0.143871 
24   0.152626 
25   0.144884 
 
$$$$ 
 
