PCCDB-ID:  65512 
public computational chemistry database (PCCDB) project, http://pccdb.org 
 
 23 23  0  0  0  0  0  0  0  0999 V2000 
    1.8153    2.3523   -0.1653 C   0  0  0  0  0  0  0  0  0  0  0  0 
    1.5419   -0.0490   -3.5078 C   0  0  0  0  0  0  0  0  0  0  0  0 
    0.9336    0.2508   -4.7202 C   0  0  0  0  0  0  0  0  0  0  0  0 
    2.3073    2.2244   -3.3376 C   0  0  0  0  0  0  0  0  0  0  0  0 
    2.7368    1.1998   -0.5004 C   0  0  0  0  0  0  0  0  0  0  0  0 
    2.2245    0.9430   -2.7806 C   0  0  0  0  0  0  0  0  0  0  0  0 
    1.7122    2.5483   -4.5653 C   0  0  0  0  0  0  0  0  0  0  0  0 
    1.0151    1.5397   -5.2517 C   0  0  0  0  0  0  0  0  0  0  0  0 
    1.8840    3.9716   -5.0338 C   0  0  0  0  0  0  0  0  0  0  0  0 
    2.8735    0.5723   -1.5967 N   0  0  0  0  0  0  0  0  0  0  0  0 
    3.5057    0.7605    0.5349 O   0  0  0  0  0  0  0  0  0  0  0  0 
    0.4184    1.8503   -6.4576 O   0  0  0  0  0  0  0  0  0  0  0  0 
    2.4666    4.7969   -4.3638 O   0  0  0  0  0  0  0  0  0  0  0  0 
    1.3681    4.3132   -6.2316 O   0  0  0  0  0  0  0  0  0  0  0  0 
    1.1154    2.5535   -0.9768 H   0  0  0  0  0  0  0  0  0  0  0  0 
    2.3895    3.2673    0.0256 H   0  0  0  0  0  0  0  0  0  0  0  0 
    1.2432    2.1204    0.7421 H   0  0  0  0  0  0  0  0  0  0  0  0 
    1.4956   -1.0554   -3.1038 H   0  0  0  0  0  0  0  0  0  0  0  0 
    0.3966   -0.5234   -5.2655 H   0  0  0  0  0  0  0  0  0  0  0  0 
    2.8643    3.0107   -2.8404 H   0  0  0  0  0  0  0  0  0  0  0  0 
    3.3073    1.2838    1.3267 H   0  0  0  0  0  0  0  0  0  0  0  0 
    0.0398    1.0539   -6.8598 H   0  0  0  0  0  0  0  0  0  0  0  0 
    0.9270    3.5464   -6.6465 H   0  0  0  0  0  0  0  0  0  0  0  0 
  1 16  1  0  0  0  0 
  1 17  1  0  0  0  0 
  2 18  1  0  0  0  0 
  2  6  2  0  0  0  0 
  3  2  1  0  0  0  0 
  4 20  1  0  0  0  0 
  4  6  1  0  0  0  0 
  5  1  1  0  0  0  0 
  5 11  1  0  0  0  0 
  6 10  1  0  0  0  0 
  7  4  2  0  0  0  0 
  8  3  2  0  0  0  0 
  8  7  1  0  0  0  0 
  9  7  1  0  0  0  0 
  9 13  2  0  0  0  0 
 10  5  2  0  0  0  0 
 11 21  1  0  0  0  0 
 12  8  1  0  0  0  0 
 14  9  1  0  0  0  0 
 15  1  1  0  0  0  0 
 19  3  1  0  0  0  0 
 22 12  1  0  0  0  0 
 23 14  1  0  0  0  0 
M  END 
>  <HBA> 
5 
 
>  <HBD> 
3 
 
>  <TPSA> 
86.63 
 
>  <cid> 
65512 
 
>  <dipole> 
5.26 
 
>  <excitation_energy_1> 
4.054 
 
>  <excitation_energy_2> 
4.693 
 
>  <excitation_energy_3> 
4.75 
 
>  <excitation_energy_4> 
4.845 
 
>  <homo_energy> 
-5.913 
 
>  <homo_lumo_gap> 
4.716 
 
>  <logP> 
1.122 
 
>  <lumo_energy> 
-1.197 
 
>  <melting_point> 
191.9 
 
>  <molecular_refractivity> 
49.74 
 
>  <oscillator_strength_1> 
0.0622 
 
>  <oscillator_strength_2> 
0.0008 
 
>  <oscillator_strength_3> 
0.1519 
 
>  <oscillator_strength_4> 
0.0108 
 
>  <open_babel_can_smiles> 
C/C(=N\c1ccc(c(c1)C(=O)O)O)/O 
 
>  <mulliken_charges> 
23 
1   -0.556138 
2   -0.148002 
3   -0.189486 
4   -0.221219 
5   0.484322 
6   0.258358 
7   0.014392 
8   0.300491 
9   0.575416 
10   -0.478744 
11   -0.565466 
12   -0.690811 
13   -0.465647 
14   -0.601073 
15   0.198445 
16   0.190641 
17   0.168199 
18   0.148696 
19   0.128313 
20   0.171078 
21   0.410418 
22   0.426295 
23   0.441522 
 
>  <lowdin_charges> 
23 
1   -0.484478 
2   -0.140629 
3   -0.204279 
4   -0.151375 
5   0.15098 
6   0.036016 
7   -0.08627 
8   0.095448 
9   0.199038 
10   -0.177305 
11   -0.355189 
12   -0.392034 
13   -0.262758 
14   -0.362367 
15   0.185003 
16   0.178167 
17   0.167035 
18   0.170802 
19   0.159839 
20   0.183952 
21   0.358721 
22   0.370383 
23   0.361301 
 
$$$$ 
 
