PCCDB-ID:  13224 
public computational chemistry database (PCCDB) project, http://pccdb.org 
 
 21 22  0  0  0  0  0  0  0  0999 V2000 
    0.8637   -0.0426   -0.0584 C   0  0  0  0  0  0  0  0  0  0  0  0 
    7.2098   -1.1118    0.2993 C   0  0  0  0  0  0  0  0  0  0  0  0 
    6.5559    0.0989    0.2874 C   0  0  0  0  0  0  0  0  0  0  0  0 
    6.4872   -2.3241    0.2297 C   0  0  0  0  0  0  0  0  0  0  0  0 
    3.0232    1.2907    0.1060 C   0  0  0  0  0  0  0  0  0  0  0  0 
    4.3912    1.3378    0.1896 C   0  0  0  0  0  0  0  0  0  0  0  0 
    2.3683    0.0264    0.0357 C   0  0  0  0  0  0  0  0  0  0  0  0 
    5.1400    0.1315    0.2040 C   0  0  0  0  0  0  0  0  0  0  0  0 
    5.1064   -2.3237    0.1457 C   0  0  0  0  0  0  0  0  0  0  0  0 
    4.3902   -1.0831    0.1308 C   0  0  0  0  0  0  0  0  0  0  0  0 
    3.0316   -1.1152    0.0488 N   0  0  0  0  0  0  0  0  0  0  0  0 
    4.3682   -3.4639    0.0766 O   0  0  0  0  0  0  0  0  0  0  0  0 
    0.4986    0.4711   -0.9570 H   0  0  0  0  0  0  0  0  0  0  0  0 
    0.3891    0.4427    0.8040 H   0  0  0  0  0  0  0  0  0  0  0  0 
    0.5453   -1.0863   -0.0951 H   0  0  0  0  0  0  0  0  0  0  0  0 
    8.2938   -1.1490    0.3633 H   0  0  0  0  0  0  0  0  0  0  0  0 
    7.1079    1.0336    0.3413 H   0  0  0  0  0  0  0  0  0  0  0  0 
    7.0231   -3.2717    0.2427 H   0  0  0  0  0  0  0  0  0  0  0  0 
    2.4330    2.2032    0.0943 H   0  0  0  0  0  0  0  0  0  0  0  0 
    4.9163    2.2888    0.2436 H   0  0  0  0  0  0  0  0  0  0  0  0 
    4.9753   -4.2208    0.0869 H   0  0  0  0  0  0  0  0  0  0  0  0 
  1  7  1  0  0  0  0 
  1 14  1  0  0  0  0 
  2 16  1  0  0  0  0 
  3  2  1  0  0  0  0 
  3 17  1  0  0  0  0 
  4 18  1  0  0  0  0 
  4  2  2  0  0  0  0 
  5  6  2  0  0  0  0 
  6  8  1  0  0  0  0 
  6 20  1  0  0  0  0 
  7 11  2  0  0  0  0 
  7  5  1  0  0  0  0 
  8  3  2  0  0  0  0 
  9  4  1  0  0  0  0 
 10  9  2  0  0  0  0 
 10  8  1  0  0  0  0 
 11 10  1  0  0  0  0 
 12 21  1  0  0  0  0 
 12  9  1  0  0  0  0 
 13  1  1  0  0  0  0 
 15  1  1  0  0  0  0 
 19  5  1  0  0  0  0 
M  END 
>  <HBA> 
2 
 
>  <HBD> 
1 
 
>  <TPSA> 
33.12 
 
>  <cid> 
13224 
 
>  <dipole> 
1.69 
 
>  <excitation_energy_1> 
4.0 
 
>  <excitation_energy_2> 
4.341 
 
>  <excitation_energy_3> 
4.353 
 
>  <excitation_energy_4> 
4.976 
 
>  <homo_energy> 
-5.633 
 
>  <homo_lumo_gap> 
4.563 
 
>  <logP> 
2.249 
 
>  <lumo_energy> 
-1.069 
 
>  <melting_point> 
108.97 
 
>  <molecular_refractivity> 
48.73 
 
>  <oscillator_strength_1> 
0.0445 
 
>  <oscillator_strength_2> 
0.0017 
 
>  <oscillator_strength_3> 
0.0055 
 
>  <oscillator_strength_4> 
0.0 
 
>  <open_babel_can_smiles> 
Cc1ccc2c(n1)c(O)ccc2 
 
>  <mulliken_charges> 
21 
1   -0.52375 
2   -0.134879 
3   -0.202087 
4   -0.209437 
5   -0.174106 
6   -0.153872 
7   0.31701 
8   0.159207 
9   0.332775 
10   0.19811 
11   -0.538259 
12   -0.61713 
13   0.158731 
14   0.158379 
15   0.180636 
16   0.131472 
17   0.125677 
18   0.11732 
19   0.130513 
20   0.137718 
21   0.405974 
 
>  <lowdin_charges> 
21 
1   -0.449914 
2   -0.144771 
3   -0.183354 
4   -0.222255 
5   -0.183748 
6   -0.128924 
7   0.058573 
8   -0.011032 
9   0.102305 
10   0.017997 
11   -0.146606 
12   -0.352274 
13   0.16113 
14   0.161199 
15   0.171738 
16   0.157805 
17   0.157267 
18   0.153752 
19   0.16169 
20   0.161325 
21   0.358101 
 
$$$$ 
 
