PCCDB-ID:  36129 
public computational chemistry database (PCCDB) project, http://pccdb.org 
 
 31 32  0  0  1  0  0  0  0  0999 V2000 
    4.1903    2.2582    5.0063 C   0  0  0  0  0  0  0  0  0  0  0  0 
    4.5366    2.3070    3.5134 C   0  0  0  0  0  0  0  0  0  0  0  0 
    7.8967    0.5278    0.6096 C   0  0  0  0  0  0  0  0  0  0  0  0 
    7.0192   -0.6235    1.1259 C   0  0  0  0  0  0  0  0  0  0  0  0 
    7.4145    1.8763    1.1692 C   0  0  0  0  0  0  0  0  0  0  0  0 
    5.5278   -0.3223    0.8868 C   0  0  0  0  0  0  0  0  0  0  0  0 
    5.9055    2.0507    0.9183 C   0  0  0  0  0  0  0  0  0  0  0  0 
    1.8659   -0.9086    3.2752 C   0  0  0  0  0  0  0  0  0  0  0  0 
    4.8938    0.9254    2.9168 C   0  0  1  0  0  0  0  0  0  0  0  0 
    3.8088   -0.0629    3.2388 C   0  0  0  0  0  0  0  0  0  0  0  0 
    2.5983   -1.6932    3.9909 N   0  0  0  0  0  0  0  0  0  0  0  0 
    3.8856   -1.1327    3.9662 N   0  0  0  0  0  0  0  0  0  0  0  0 
    5.0735    0.9619    1.4523 N   0  0  0  0  0  0  0  0  0  0  0  0 
    2.5452    0.1480    2.7601 O   0  0  0  0  0  0  0  0  0  0  0  0 
    4.0453    3.2721    5.3941 H   0  0  0  0  0  0  0  0  0  0  0  0 
    4.9919    1.7882    5.5877 H   0  0  0  0  0  0  0  0  0  0  0  0 
    3.2707    1.6955    5.1976 H   0  0  0  0  0  0  0  0  0  0  0  0 
    5.3926    2.9758    3.3776 H   0  0  0  0  0  0  0  0  0  0  0  0 
    3.7021    2.7293    2.9406 H   0  0  0  0  0  0  0  0  0  0  0  0 
    7.8385    0.5590   -0.4889 H   0  0  0  0  0  0  0  0  0  0  0  0 
    8.9503    0.3562    0.8620 H   0  0  0  0  0  0  0  0  0  0  0  0 
    7.1987   -0.7764    2.1988 H   0  0  0  0  0  0  0  0  0  0  0  0 
    7.2857   -1.5664    0.6313 H   0  0  0  0  0  0  0  0  0  0  0  0 
    7.9639    2.7057    0.7045 H   0  0  0  0  0  0  0  0  0  0  0  0 
    7.6223    1.9285    2.2478 H   0  0  0  0  0  0  0  0  0  0  0  0 
    4.9063   -1.1304    1.2849 H   0  0  0  0  0  0  0  0  0  0  0  0 
    5.3374   -0.2784   -0.1949 H   0  0  0  0  0  0  0  0  0  0  0  0 
    5.7280    2.0691   -0.1667 H   0  0  0  0  0  0  0  0  0  0  0  0 
    5.5480    3.0097    1.2999 H   0  0  0  0  0  0  0  0  0  0  0  0 
    0.8148   -0.9941    3.0440 H   0  0  0  0  0  0  0  0  0  0  0  0 
    5.7793    0.5491    3.4580 H   0  0  0  0  0  0  0  0  0  0  0  0 
  1 17  1  0  0  0  0 
  1 15  1  0  0  0  0 
  1 16  1  0  0  0  0 
  2  1  1  0  0  0  0 
  3 21  1  0  0  0  0 
  3  4  1  0  0  0  0 
  3  5  1  0  0  0  0 
  4 22  1  0  0  0  0 
  5 25  1  0  0  0  0 
  6  4  1  0  0  0  0 
  6 26  1  0  0  0  0 
  6 13  1  0  0  0  0 
  7  5  1  0  0  0  0 
  7 29  1  0  0  0  0 
  7 13  1  0  0  0  0 
  8 11  2  0  0  0  0 
  9 10  1  0  0  0  0 
  9 31  1  1  0  0  0 
  9  2  1  0  0  0  0 
 10 12  2  0  0  0  0 
 12 11  1  0  0  0  0 
 13  9  1  0  0  0  0 
 14 10  1  0  0  0  0 
 14  8  1  0  0  0  0 
 18  2  1  0  0  0  0 
 19  2  1  0  0  0  0 
 20  3  1  0  0  0  0 
 23  4  1  0  0  0  0 
 24  5  1  0  0  0  0 
 27  6  1  0  0  0  0 
 28  7  1  0  0  0  0 
 30  8  1  0  0  0  0 
M  END 
>  <HBA> 
4 
 
>  <HBD> 
0 
 
>  <TPSA> 
42.16 
 
>  <cid> 
36129 
 
>  <dipole> 
3.27 
 
>  <excitation_energy_1> 
4.456 
 
>  <excitation_energy_2> 
5.1 
 
>  <excitation_energy_3> 
5.471 
 
>  <excitation_energy_4> 
5.573 
 
>  <homo_energy> 
-5.744 
 
>  <homo_lumo_gap> 
5.486 
 
>  <logP> 
1.944 
 
>  <lumo_energy> 
-0.259 
 
>  <melting_point> 
57.96 
 
>  <molecular_refractivity> 
57.61 
 
>  <oscillator_strength_1> 
0.0012 
 
>  <oscillator_strength_2> 
0.0115 
 
>  <oscillator_strength_3> 
0.0052 
 
>  <oscillator_strength_4> 
0.0053 
 
>  <open_babel_can_smiles> 
CC[C@@H](c1ocnn1)N1CCCCC1 
 
>  <mulliken_charges> 
31 
1   -0.456088 
2   -0.290922 
3   -0.259008 
4   -0.269101 
5   -0.26778 
6   -0.154781 
7   -0.148674 
8   0.250936 
9   0.000462 
10   0.51336 
11   -0.276075 
12   -0.334864 
13   -0.402096 
14   -0.40692 
15   0.150213 
16   0.156697 
17   0.158557 
18   0.15095 
19   0.159939 
20   0.129009 
21   0.13571 
22   0.144031 
23   0.135961 
24   0.133014 
25   0.133333 
26   0.157329 
27   0.138292 
28   0.139541 
29   0.146224 
30   0.186932 
31   0.145819 
 
>  <lowdin_charges> 
31 
1   -0.446577 
2   -0.280015 
3   -0.274556 
4   -0.292366 
5   -0.29498 
6   -0.208335 
7   -0.206445 
8   -0.035165 
9   -0.063354 
10   0.097805 
11   -0.121258 
12   -0.138279 
13   -0.190176 
14   -0.089908 
15   0.154742 
16   0.155776 
17   0.154404 
18   0.151923 
19   0.155357 
20   0.135647 
21   0.143799 
22   0.142646 
23   0.148779 
24   0.147589 
25   0.137022 
26   0.154783 
27   0.140346 
28   0.141613 
29   0.149439 
30   0.185287 
31   0.144457 
 
$$$$ 
 
