PCCDB-ID:  58308 
public computational chemistry database (PCCDB) project, http://pccdb.org 
 
 27 27  0  0  0  0  0  0  0  0999 V2000 
    3.4950   -2.0123    0.0503 C   0  0  0  0  0  0  0  0  0  0  0  0 
    2.3571    0.2265    0.4974 C   0  0  0  0  0  0  0  0  0  0  0  0 
   10.8882    0.5430   -0.8215 C   0  0  0  0  0  0  0  0  0  0  0  0 
    9.8977    1.3102   -1.4382 C   0  0  0  0  0  0  0  0  0  0  0  0 
   10.5735   -0.2423    0.2890 C   0  0  0  0  0  0  0  0  0  0  0  0 
    8.5940    1.2981   -0.9448 C   0  0  0  0  0  0  0  0  0  0  0  0 
    9.2696   -0.2670    0.7823 C   0  0  0  0  0  0  0  0  0  0  0  0 
    3.5465   -0.4982   -0.1148 C   0  0  0  0  0  0  0  0  0  0  0  0 
    8.2857    0.5027    0.1598 C   0  0  0  0  0  0  0  0  0  0  0  0 
    5.8816   -0.0363   -0.0773 C   0  0  0  0  0  0  0  0  0  0  0  0 
    6.6367    1.0577    1.9322 N   0  0  0  0  0  0  0  0  0  0  0  0 
    6.9475    0.4966    0.6877 N   0  0  0  0  0  0  0  0  0  0  0  0 
    6.0544   -0.4811   -1.1912 O   0  0  0  0  0  0  0  0  0  0  0  0 
    7.5907    1.5106    2.5176 O   0  0  0  0  0  0  0  0  0  0  0  0 
    4.7231    0.0275    0.5820 O   0  0  0  0  0  0  0  0  0  0  0  0 
    2.6080   -2.4118   -0.4538 H   0  0  0  0  0  0  0  0  0  0  0  0 
    3.4407   -2.2830    1.1106 H   0  0  0  0  0  0  0  0  0  0  0  0 
    4.3783   -2.4798   -0.3929 H   0  0  0  0  0  0  0  0  0  0  0  0 
    1.4324   -0.0980    0.0082 H   0  0  0  0  0  0  0  0  0  0  0  0 
    2.4538    1.3093    0.3729 H   0  0  0  0  0  0  0  0  0  0  0  0 
    2.2780    0.0074    1.5675 H   0  0  0  0  0  0  0  0  0  0  0  0 
   11.9041    0.5570   -1.2064 H   0  0  0  0  0  0  0  0  0  0  0  0 
   10.1386    1.9193   -2.3046 H   0  0  0  0  0  0  0  0  0  0  0  0 
   11.3415   -0.8403    0.7710 H   0  0  0  0  0  0  0  0  0  0  0  0 
    7.8160    1.8894   -1.4161 H   0  0  0  0  0  0  0  0  0  0  0  0 
    9.0135   -0.8761    1.6430 H   0  0  0  0  0  0  0  0  0  0  0  0 
    3.6561   -0.2427   -1.1724 H   0  0  0  0  0  0  0  0  0  0  0  0 
  1 17  1  0  0  0  0 
  2 21  1  0  0  0  0 
  3  5  2  0  0  0  0 
  4  6  2  0  0  0  0 
  4  3  1  0  0  0  0 
  5 24  1  0  0  0  0 
  5  7  1  0  0  0  0 
  6  9  1  0  0  0  0 
  7 26  1  0  0  0  0 
  8  1  1  0  0  0  0 
  8  2  1  0  0  0  0 
  8 15  1  0  0  0  0 
  9 12  1  0  0  0  0 
  9  7  2  0  0  0  0 
 10 15  1  0  0  0  0 
 10 12  1  0  0  0  0 
 11 14  1  0  0  0  0 
 12 11  1  0  0  0  0 
 13 10  2  0  0  0  0 
 16  1  1  0  0  0  0 
 18  1  1  0  0  0  0 
 19  2  1  0  0  0  0 
 20  2  1  0  0  0  0 
 22  3  1  0  0  0  0 
 23  4  1  0  0  0  0 
 25  6  1  0  0  0  0 
 27  8  1  0  0  0  0 
M  RAD  2  11   2  14   2 
M  END 
>  <HBA> 
5 
 
>  <HBD> 
0 
 
>  <TPSA> 
58.97 
 
>  <cid> 
58308 
 
>  <dipole> 
1.64 
 
>  <excitation_energy_1> 
2.94 
 
>  <excitation_energy_2> 
4.149 
 
>  <excitation_energy_3> 
4.26 
 
>  <excitation_energy_4> 
5.085 
 
>  <homo_energy> 
-6.651 
 
>  <homo_lumo_gap> 
4.757 
 
>  <logP> 
2.719 
 
>  <lumo_energy> 
-1.894 
 
>  <melting_point> 
53.16 
 
>  <molecular_refractivity> 
56.67 
 
>  <oscillator_strength_1> 
0.0013 
 
>  <oscillator_strength_2> 
0.0205 
 
>  <oscillator_strength_3> 
0.0022 
 
>  <oscillator_strength_4> 
0.0016 
 
>  <open_babel_can_smiles> 
[O][N]N(c1ccccc1)C(=O)OC(C)C 
 
>  <mulliken_charges> 
27 
1   -0.461422 
2   -0.45265 
3   -0.114103 
4   -0.14644 
5   -0.145694 
6   -0.108334 
7   -0.111973 
8   0.127131 
9   0.283128 
10   0.822927 
11   0.206374 
12   -0.483173 
13   -0.485185 
14   -0.304511 
15   -0.465229 
16   0.152122 
17   0.156989 
18   0.176381 
19   0.151832 
20   0.1628 
21   0.163356 
22   0.137384 
23   0.139893 
24   0.139859 
25   0.146597 
26   0.146343 
27   0.165598 
 
>  <lowdin_charges> 
27 
1   -0.454497 
2   -0.443754 
3   -0.144869 
4   -0.15037 
5   -0.152173 
6   -0.14123 
7   -0.143647 
8   0.020571 
9   0.037307 
10   0.213427 
11   0.096056 
12   -0.049477 
13   -0.271183 
14   -0.188543 
15   -0.173924 
16   0.160318 
17   0.155623 
18   0.168179 
19   0.159114 
20   0.15994 
21   0.159022 
22   0.161317 
23   0.163581 
24   0.164587 
25   0.170827 
26   0.169279 
27   0.154521 
 
$$$$ 
 
