PCCDB-ID:  47214 
public computational chemistry database (PCCDB) project, http://pccdb.org 
 
 36 36  0  0  0  0  0  0  0  0999 V2000 
    2.4361   -1.6670    0.3861 C   0  0  0  0  0  0  0  0  0  0  0  0 
    7.4742   -1.0910    6.8130 C   0  0  0  0  0  0  0  0  0  0  0  0 
    8.4277   -3.1717    5.8487 C   0  0  0  0  0  0  0  0  0  0  0  0 
    4.7429    1.8494    3.9812 C   0  0  0  0  0  0  0  0  0  0  0  0 
    5.9608    2.2146    1.9215 C   0  0  0  0  0  0  0  0  0  0  0  0 
    7.3745   -2.4439    3.3123 C   0  0  0  0  0  0  0  0  0  0  0  0 
    6.9273   -2.0366    2.0582 C   0  0  0  0  0  0  0  0  0  0  0  0 
    6.4701   -0.4054    4.2457 C   0  0  0  0  0  0  0  0  0  0  0  0 
    7.1260   -1.6408    4.4438 C   0  0  0  0  0  0  0  0  0  0  0  0 
    6.0187    0.0144    2.9865 C   0  0  0  0  0  0  0  0  0  0  0  0 
    6.2479   -0.8421    1.8928 C   0  0  0  0  0  0  0  0  0  0  0  0 
    4.5716   -0.7346    0.2380 C   0  0  0  0  0  0  0  0  0  0  0  0 
    3.7801   -1.4687    0.8982 N   0  0  0  0  0  0  0  0  0  0  0  0 
    7.5176   -2.0467    5.7208 N   0  0  0  0  0  0  0  0  0  0  0  0 
    5.3229    1.2328    2.8009 N   0  0  0  0  0  0  0  0  0  0  0  0 
    4.3647   -0.0917   -0.9419 O   0  0  0  0  0  0  0  0  0  0  0  0 
    5.8454   -0.4645    0.6053 O   0  0  0  0  0  0  0  0  0  0  0  0 
    2.4202   -2.2463   -0.5529 H   0  0  0  0  0  0  0  0  0  0  0  0 
    1.8937   -0.7216    0.2097 H   0  0  0  0  0  0  0  0  0  0  0  0 
    1.8545   -2.2346    1.1179 H   0  0  0  0  0  0  0  0  0  0  0  0 
    7.7946   -1.5859    7.7324 H   0  0  0  0  0  0  0  0  0  0  0  0 
    6.4520   -0.7292    6.9751 H   0  0  0  0  0  0  0  0  0  0  0  0 
    8.1231   -0.2141    6.6494 H   0  0  0  0  0  0  0  0  0  0  0  0 
    8.6139   -3.3613    6.9080 H   0  0  0  0  0  0  0  0  0  0  0  0 
    9.3975   -3.0026    5.3515 H   0  0  0  0  0  0  0  0  0  0  0  0 
    7.9857   -4.0813    5.4260 H   0  0  0  0  0  0  0  0  0  0  0  0 
    4.0438    2.6290    3.6589 H   0  0  0  0  0  0  0  0  0  0  0  0 
    5.4857    2.3258    4.6485 H   0  0  0  0  0  0  0  0  0  0  0  0 
    4.1853    1.1048    4.5559 H   0  0  0  0  0  0  0  0  0  0  0  0 
    5.2305    2.9904    1.6653 H   0  0  0  0  0  0  0  0  0  0  0  0 
    6.2912    1.7384    0.9989 H   0  0  0  0  0  0  0  0  0  0  0  0 
    6.8271    2.7038    2.4020 H   0  0  0  0  0  0  0  0  0  0  0  0 
    7.8953   -3.3887    3.3993 H   0  0  0  0  0  0  0  0  0  0  0  0 
    7.0936   -2.6631    1.1872 H   0  0  0  0  0  0  0  0  0  0  0  0 
    6.3172    0.2554    5.0867 H   0  0  0  0  0  0  0  0  0  0  0  0 
    3.4767   -0.3218   -1.2574 H   0  0  0  0  0  0  0  0  0  0  0  0 
  1 13  1  0  0  0  0 
  1 20  1  0  0  0  0 
  2 22  1  0  0  0  0 
  2 21  1  0  0  0  0 
  3 24  1  0  0  0  0 
  4 29  1  0  0  0  0 
  4 28  1  0  0  0  0 
  5 32  1  0  0  0  0 
  5 15  1  0  0  0  0 
  6 33  1  0  0  0  0 
  6  9  2  0  0  0  0 
  7  6  1  0  0  0  0 
  8  9  1  0  0  0  0 
  8 35  1  0  0  0  0 
  9 14  1  0  0  0  0 
 10  8  2  0  0  0  0 
 11  7  2  0  0  0  0 
 11 10  1  0  0  0  0 
 12 17  1  0  0  0  0 
 12 13  2  0  0  0  0 
 14  3  1  0  0  0  0 
 14  2  1  0  0  0  0 
 15 10  1  0  0  0  0 
 15  4  1  0  0  0  0 
 16 12  1  0  0  0  0 
 17 11  1  0  0  0  0 
 18  1  1  0  0  0  0 
 19  1  1  0  0  0  0 
 23  2  1  0  0  0  0 
 25  3  1  0  0  0  0 
 26  3  1  0  0  0  0 
 27  4  1  0  0  0  0 
 30  5  1  0  0  0  0 
 31  5  1  0  0  0  0 
 34  7  1  0  0  0  0 
 36 16  1  0  0  0  0 
M  END 
>  <HBA> 
5 
 
>  <HBD> 
1 
 
>  <TPSA> 
44.81 
 
>  <cid> 
47214 
 
>  <dipole> 
1.58 
 
>  <excitation_energy_1> 
4.312 
 
>  <excitation_energy_2> 
4.41 
 
>  <excitation_energy_3> 
4.447 
 
>  <excitation_energy_4> 
4.762 
 
>  <homo_energy> 
-4.773 
 
>  <homo_lumo_gap> 
5.271 
 
>  <logP> 
1.928 
 
>  <lumo_energy> 
0.498 
 
>  <melting_point> 
87.36 
 
>  <molecular_refractivity> 
69.55 
 
>  <oscillator_strength_1> 
0.0346 
 
>  <oscillator_strength_2> 
0.0161 
 
>  <oscillator_strength_3> 
0.0276 
 
>  <oscillator_strength_4> 
0.0394 
 
>  <open_babel_can_smiles> 
C/N=C(/Oc1ccc(cc1N(C)C)N(C)C)\O 
 
>  <mulliken_charges> 
36 
1   -0.357177 
2   -0.307222 
3   -0.308629 
4   -0.303214 
5   -0.319567 
6   -0.21462 
7   -0.162367 
8   -0.296119 
9   0.385478 
10   0.313352 
11   0.3221 
12   0.677418 
13   -0.420081 
14   -0.478956 
15   -0.461007 
16   -0.596612 
17   -0.543155 
18   0.139663 
19   0.135018 
20   0.171951 
21   0.151755 
22   0.161729 
23   0.146198 
24   0.150818 
25   0.147353 
26   0.163429 
27   0.150089 
28   0.125843 
29   0.164616 
30   0.14408 
31   0.192477 
32   0.127284 
33   0.119927 
34   0.132164 
35   0.123513 
36   0.422469 
 
>  <lowdin_charges> 
36 
1   -0.366466 
2   -0.350648 
3   -0.348106 
4   -0.357914 
5   -0.357492 
6   -0.219057 
7   -0.15045 
8   -0.243637 
9   0.062128 
10   0.04981 
11   0.061492 
12   0.195655 
13   -0.260839 
14   -0.122657 
15   -0.139827 
16   -0.364248 
17   -0.151663 
18   0.135887 
19   0.133073 
20   0.163867 
21   0.155826 
22   0.151735 
23   0.138342 
24   0.15362 
25   0.138434 
26   0.153636 
27   0.15267 
28   0.125656 
29   0.160492 
30   0.148169 
31   0.171632 
32   0.127914 
33   0.158594 
34   0.165769 
35   0.1636 
36   0.365001 
 
$$$$ 
 
