PCCDB-ID:  13406 
public computational chemistry database (PCCDB) project, http://pccdb.org 
 
 24 24  0  0  0  0  0  0  0  0999 V2000 
    0.6447   -0.0011    0.3191 C   0  0  0  0  0  0  0  0  0  0  0  0 
    1.6495   -4.4494   -2.9494 C   0  0  0  0  0  0  0  0  0  0  0  0 
    3.0327   -3.7909   -3.0389 C   0  0  0  0  0  0  0  0  0  0  0  0 
    0.6244   -3.4989   -2.3170 C   0  0  0  0  0  0  0  0  0  0  0  0 
    3.4927   -3.2684   -1.6608 C   0  0  0  0  0  0  0  0  0  0  0  0 
    1.0993   -2.9761   -0.9407 C   0  0  0  0  0  0  0  0  0  0  0  0 
    2.8353   -1.0861   -0.6965 C   0  0  0  0  0  0  0  0  0  0  0  0 
    2.1094    0.0599   -0.0894 C   0  0  0  0  0  0  0  0  0  0  0  0 
    2.4658   -2.3374   -1.0458 C   0  0  0  0  0  0  0  0  0  0  0  0 
    2.7360    1.0977    0.0924 O   0  0  0  0  0  0  0  0  0  0  0  0 
   -0.0051   -0.1780   -0.5459 H   0  0  0  0  0  0  0  0  0  0  0  0 
    0.3809    0.9575    0.7707 H   0  0  0  0  0  0  0  0  0  0  0  0 
    0.4615   -0.8033    1.0428 H   0  0  0  0  0  0  0  0  0  0  0  0 
    1.7202   -5.3633   -2.3411 H   0  0  0  0  0  0  0  0  0  0  0  0 
    1.3113   -4.7619   -3.9453 H   0  0  0  0  0  0  0  0  0  0  0  0 
    2.9939   -2.9497   -3.7445 H   0  0  0  0  0  0  0  0  0  0  0  0 
    3.7730   -4.4996   -3.4299 H   0  0  0  0  0  0  0  0  0  0  0  0 
   -0.3448   -3.9993   -2.2003 H   0  0  0  0  0  0  0  0  0  0  0  0 
    0.4603   -2.6417   -2.9846 H   0  0  0  0  0  0  0  0  0  0  0  0 
    4.4648   -2.7712   -1.7423 H   0  0  0  0  0  0  0  0  0  0  0  0 
    3.6279   -4.1330   -0.9915 H   0  0  0  0  0  0  0  0  0  0  0  0 
    1.1766   -3.8345   -0.2547 H   0  0  0  0  0  0  0  0  0  0  0  0 
    0.3510   -2.3060   -0.5209 H   0  0  0  0  0  0  0  0  0  0  0  0 
    3.8733   -0.8073   -0.8731 H   0  0  0  0  0  0  0  0  0  0  0  0 
  1 12  1  0  0  0  0 
  1 13  1  0  0  0  0 
  2 14  1  0  0  0  0 
  2  4  1  0  0  0  0 
  3  2  1  0  0  0  0 
  3  5  1  0  0  0  0 
  4 18  1  0  0  0  0 
  4  6  1  0  0  0  0 
  5  9  1  0  0  0  0 
  5 21  1  0  0  0  0 
  6 23  1  0  0  0  0 
  6 22  1  0  0  0  0 
  7  8  1  0  0  0  0 
  8 10  2  0  0  0  0 
  8  1  1  0  0  0  0 
  9  6  1  0  0  0  0 
  9  7  2  0  0  0  0 
 11  1  1  0  0  0  0 
 15  2  1  0  0  0  0 
 16  3  1  0  0  0  0 
 17  3  1  0  0  0  0 
 19  4  1  0  0  0  0 
 20  5  1  0  0  0  0 
 24  7  1  0  0  0  0 
M  END 
>  <HBA> 
1 
 
>  <HBD> 
0 
 
>  <TPSA> 
17.07 
 
>  <cid> 
13406 
 
>  <dipole> 
4.15 
 
>  <excitation_energy_1> 
3.739 
 
>  <excitation_energy_2> 
5.45 
 
>  <excitation_energy_3> 
6.024 
 
>  <excitation_energy_4> 
6.129 
 
>  <homo_energy> 
-6.441 
 
>  <homo_lumo_gap> 
5.252 
 
>  <logP> 
2.466 
 
>  <lumo_energy> 
-1.189 
 
>  <melting_point> 
28.62 
 
>  <molecular_refractivity> 
42.99 
 
>  <oscillator_strength_1> 
0.0003 
 
>  <oscillator_strength_2> 
0.5056 
 
>  <oscillator_strength_3> 
0.0205 
 
>  <oscillator_strength_4> 
0.0045 
 
>  <open_babel_can_smiles> 
CC(=O)C=C1CCCCC1 
 
>  <mulliken_charges> 
24 
1   -0.545381 
2   -0.259934 
3   -0.259585 
4   -0.261544 
5   -0.330865 
6   -0.343164 
7   -0.284536 
8   0.459533 
9   0.211566 
10   -0.463195 
11   0.167379 
12   0.177581 
13   0.167379 
14   0.131442 
15   0.139051 
16   0.1415 
17   0.139275 
18   0.139346 
19   0.140485 
20   0.151442 
21   0.145142 
22   0.148015 
23   0.151207 
24   0.13786 
 
>  <lowdin_charges> 
24 
1   -0.478692 
2   -0.278878 
3   -0.276978 
4   -0.27408 
5   -0.274241 
6   -0.287534 
7   -0.227613 
8   0.15942 
9   0.029945 
10   -0.251987 
11   0.166926 
12   0.17244 
13   0.166932 
14   0.139201 
15   0.147824 
16   0.144893 
17   0.149261 
18   0.147696 
19   0.144323 
20   0.153697 
21   0.150408 
22   0.153398 
23   0.15946 
24   0.164182 
 
$$$$ 
 
