PCCDB-ID:  47473 
public computational chemistry database (PCCDB) project, http://pccdb.org 
 
 25 26  0  0  1  0  0  0  0  0999 V2000 
    0.7335   -0.3634   -0.9788 C   0  0  0  0  0  0  0  0  0  0  0  0 
    2.7695   -5.6026   -0.0063 C   0  0  0  0  0  0  0  0  0  0  0  0 
    3.9528   -4.9118    0.2664 C   0  0  0  0  0  0  0  0  0  0  0  0 
    1.8159   -5.0313   -0.8492 C   0  0  0  0  0  0  0  0  0  0  0  0 
    4.1765   -3.6543   -0.2925 C   0  0  0  0  0  0  0  0  0  0  0  0 
    2.0440   -3.7736   -1.4111 C   0  0  0  0  0  0  0  0  0  0  0  0 
    2.9333    0.8165   -1.1001 C   0  0  0  0  0  0  0  0  0  0  0  0 
    3.2194   -3.0691   -1.1316 C   0  0  0  0  0  0  0  0  0  0  0  0 
    3.2485   -0.5833   -0.6650 C   0  0  2  0  0  0  0  0  0  0  0  0 
    3.4490   -1.6837   -1.7057 C   0  0  1  0  0  0  0  0  0  0  0  0 
    1.9726    0.0419   -0.3249 N   0  0  0  0  0  0  0  0  0  0  0  0 
    4.8005   -1.6255   -2.1738 O   0  0  0  0  0  0  0  0  0  0  0  0 
    0.3605   -1.2779   -0.5074 H   0  0  0  0  0  0  0  0  0  0  0  0 
    0.8163   -0.5383   -2.0644 H   0  0  0  0  0  0  0  0  0  0  0  0 
   -0.0070    0.4289   -0.8245 H   0  0  0  0  0  0  0  0  0  0  0  0 
    2.5962   -6.5829    0.4297 H   0  0  0  0  0  0  0  0  0  0  0  0 
    4.7050   -5.3556    0.9135 H   0  0  0  0  0  0  0  0  0  0  0  0 
    0.8977   -5.5662   -1.0772 H   0  0  0  0  0  0  0  0  0  0  0  0 
    5.1046   -3.1258   -0.0979 H   0  0  0  0  0  0  0  0  0  0  0  0 
    1.3032   -3.3393   -2.0785 H   0  0  0  0  0  0  0  0  0  0  0  0 
    2.7205    0.9695   -2.1620 H   0  0  0  0  0  0  0  0  0  0  0  0 
    3.3802    1.6758   -0.6025 H   0  0  0  0  0  0  0  0  0  0  0  0 
    3.9003   -0.7165    0.1997 H   0  0  0  0  0  0  0  0  0  0  0  0 
    2.7543   -1.5297   -2.5447 H   0  0  0  0  0  0  0  0  0  0  0  0 
    4.9878   -0.6947   -2.3767 H   0  0  0  0  0  0  0  0  0  0  0  0 
  1 15  1  0  0  0  0 
  1 13  1  0  0  0  0 
  1 11  1  0  0  0  0 
  2  3  1  0  0  0  0 
  2 16  1  0  0  0  0 
  3 17  1  0  0  0  0 
  4  2  2  0  0  0  0 
  5 19  1  0  0  0  0 
  5  3  2  0  0  0  0 
  6  8  2  0  0  0  0 
  6  4  1  0  0  0  0 
  7  9  1  0  0  0  0 
  7 22  1  0  0  0  0 
  7 11  1  0  0  0  0 
  8  5  1  0  0  0  0 
  9 11  1  0  0  0  0 
  9 23  1  1  0  0  0 
 10 24  1  6  0  0  0 
 10  8  1  0  0  0  0 
 10  9  1  0  0  0  0 
 12 10  1  0  0  0  0 
 14  1  1  0  0  0  0 
 18  4  1  0  0  0  0 
 20  6  1  0  0  0  0 
 21  7  1  0  0  0  0 
 25 12  1  0  0  0  0 
M  END 
>  <HBA> 
2 
 
>  <HBD> 
1 
 
>  <TPSA> 
23.24 
 
>  <cid> 
47473 
 
>  <dipole> 
1.4 
 
>  <excitation_energy_1> 
5.245 
 
>  <excitation_energy_2> 
5.311 
 
>  <excitation_energy_3> 
5.468 
 
>  <excitation_energy_4> 
5.616 
 
>  <homo_energy> 
-6.177 
 
>  <homo_lumo_gap> 
6.131 
 
>  <logP> 
0.972 
 
>  <lumo_energy> 
-0.046 
 
>  <melting_point> 
35.07 
 
>  <molecular_refractivity> 
51.69 
 
>  <oscillator_strength_1> 
0.0025 
 
>  <oscillator_strength_2> 
0.001 
 
>  <oscillator_strength_3> 
0.0027 
 
>  <oscillator_strength_4> 
0.0205 
 
>  <open_babel_can_smiles> 
O[C@H]([C@H]1CN1C)c1ccccc1 
 
>  <mulliken_charges> 
25 
1   -0.30665 
2   -0.126696 
3   -0.131048 
4   -0.131538 
5   -0.163949 
6   -0.186388 
7   -0.222947 
8   0.167085 
9   -0.021275 
10   0.046809 
11   -0.352795 
12   -0.629064 
13   0.166733 
14   0.122888 
15   0.159043 
16   0.12875 
17   0.130061 
18   0.128572 
19   0.142887 
20   0.123074 
21   0.138166 
22   0.158184 
23   0.152605 
24   0.116643 
25   0.39085 
 
>  <lowdin_charges> 
25 
1   -0.356876 
2   -0.15598 
3   -0.154719 
4   -0.156726 
5   -0.152742 
6   -0.167895 
7   -0.256175 
8   -0.007917 
9   -0.111608 
10   -0.003646 
11   -0.184708 
12   -0.45499 
13   0.158926 
14   0.122615 
15   0.156232 
16   0.156761 
17   0.158874 
18   0.157398 
19   0.164914 
20   0.15519 
21   0.140881 
22   0.159712 
23   0.157958 
24   0.133655 
25   0.340866 
 
$$$$ 
 
