PCCDB-ID:  15080 
public computational chemistry database (PCCDB) project, http://pccdb.org 
 
 27 29  0  0  0  0  0  0  0  0999 V2000 
   -1.4810    0.6684    0.3878 C   0  0  0  0  0  0  0  0  0  0  0  0 
    8.9815    3.1691   -1.1995 C   0  0  0  0  0  0  0  0  0  0  0  0 
   -0.6654   -0.4664    0.3596 C   0  0  0  0  0  0  0  0  0  0  0  0 
   -0.9143    1.9320    0.2130 C   0  0  0  0  0  0  0  0  0  0  0  0 
    7.8891    4.0354   -1.1312 C   0  0  0  0  0  0  0  0  0  0  0  0 
    8.7828    1.7921   -1.0642 C   0  0  0  0  0  0  0  0  0  0  0  0 
    0.7057   -0.3428    0.1592 C   0  0  0  0  0  0  0  0  0  0  0  0 
    0.4582    2.0623    0.0114 C   0  0  0  0  0  0  0  0  0  0  0  0 
    6.6064    3.5307   -0.9285 C   0  0  0  0  0  0  0  0  0  0  0  0 
    7.5045    1.2821   -0.8613 C   0  0  0  0  0  0  0  0  0  0  0  0 
    1.2844    0.9276   -0.0170 C   0  0  0  0  0  0  0  0  0  0  0  0 
    6.3986    2.1491   -0.7908 C   0  0  0  0  0  0  0  0  0  0  0  0 
    2.7336    1.0256   -0.2241 C   0  0  0  0  0  0  0  0  0  0  0  0 
    5.0627    1.5818   -0.5759 C   0  0  0  0  0  0  0  0  0  0  0  0 
    3.5274   -0.0153   -0.2775 N   0  0  0  0  0  0  0  0  0  0  0  0 
    4.8317    0.2962   -0.4755 N   0  0  0  0  0  0  0  0  0  0  0  0 
    3.5978    2.5476   -0.4227 S   0  0  0  0  0  0  0  0  0  0  0  0 
   -2.5512    0.5680    0.5461 H   0  0  0  0  0  0  0  0  0  0  0  0 
    9.9813    3.5638   -1.3576 H   0  0  0  0  0  0  0  0  0  0  0  0 
   -1.1001   -1.4527    0.4966 H   0  0  0  0  0  0  0  0  0  0  0  0 
   -1.5407    2.8194    0.2312 H   0  0  0  0  0  0  0  0  0  0  0  0 
    8.0341    5.1071   -1.2353 H   0  0  0  0  0  0  0  0  0  0  0  0 
    9.6288    1.1123   -1.1168 H   0  0  0  0  0  0  0  0  0  0  0  0 
    1.3481   -1.2160    0.1364 H   0  0  0  0  0  0  0  0  0  0  0  0 
    0.8855    3.0523   -0.1254 H   0  0  0  0  0  0  0  0  0  0  0  0 
    5.7647    4.2166   -0.8806 H   0  0  0  0  0  0  0  0  0  0  0  0 
    7.3386    0.2158   -0.7546 H   0  0  0  0  0  0  0  0  0  0  0  0 
  1 18  1  0  0  0  0 
  2  5  2  0  0  0  0 
  2  6  1  0  0  0  0 
  3  1  1  0  0  0  0 
  3 20  1  0  0  0  0 
  4 21  1  0  0  0  0 
  4  1  2  0  0  0  0 
  5  9  1  0  0  0  0 
  6 10  2  0  0  0  0 
  7  3  2  0  0  0  0 
  8  4  1  0  0  0  0 
  9 26  1  0  0  0  0 
  9 12  2  0  0  0  0 
 10 12  1  0  0  0  0 
 10 27  1  0  0  0  0 
 11  8  2  0  0  0  0 
 11  7  1  0  0  0  0 
 12 14  1  0  0  0  0 
 13 11  1  0  0  0  0 
 14 16  2  0  0  0  0 
 14 17  1  0  0  0  0 
 15 13  2  0  0  0  0 
 16 15  1  0  0  0  0 
 17 13  1  0  0  0  0 
 19  2  1  0  0  0  0 
 22  5  1  0  0  0  0 
 23  6  1  0  0  0  0 
 24  7  1  0  0  0  0 
 25  8  1  0  0  0  0 
M  END 
>  <HBA> 
3 
 
>  <HBD> 
0 
 
>  <TPSA> 
54.02 
 
>  <cid> 
15080 
 
>  <dipole> 
2.6 
 
>  <excitation_energy_1> 
3.764 
 
>  <excitation_energy_2> 
4.07 
 
>  <excitation_energy_3> 
4.447 
 
>  <excitation_energy_4> 
4.479 
 
>  <homo_energy> 
-6.12 
 
>  <homo_lumo_gap> 
4.212 
 
>  <logP> 
3.872 
 
>  <lumo_energy> 
-1.908 
 
>  <melting_point> 
109.1 
 
>  <molecular_refractivity> 
70.78 
 
>  <oscillator_strength_1> 
0.7976 
 
>  <oscillator_strength_2> 
0.0 
 
>  <oscillator_strength_3> 
0.0125 
 
>  <oscillator_strength_4> 
0.0005 
 
>  <open_babel_can_smiles> 
c1ccc(cc1)c1nnc(s1)c1ccccc1 
 
>  <mulliken_charges> 
27 
1   -0.119662 
2   -0.119766 
3   -0.134511 
4   -0.136721 
5   -0.136501 
6   -0.13456 
7   -0.150059 
8   -0.190033 
9   -0.190185 
10   -0.149996 
11   0.129178 
12   0.129348 
13   0.049236 
14   0.049346 
15   -0.294429 
16   -0.294555 
17   0.227109 
18   0.136924 
19   0.13694 
20   0.139511 
21   0.137586 
22   0.137553 
23   0.139516 
24   0.172262 
25   0.147144 
26   0.147158 
27   0.172167 
 
>  <lowdin_charges> 
27 
1   -0.144149 
2   -0.146068 
3   -0.150955 
4   -0.153796 
5   -0.150569 
6   -0.152266 
7   -0.136315 
8   -0.155585 
9   -0.156869 
10   -0.133294 
11   -0.011647 
12   -0.011989 
13   -0.08853 
14   -0.090285 
15   -0.116114 
16   -0.114482 
17   0.253704 
18   0.159795 
19   0.161075 
20   0.162469 
21   0.162472 
22   0.160044 
23   0.163605 
24   0.180679 
25   0.164817 
26   0.165962 
27   0.17829 
 
$$$$ 
 
