PCCDB-ID:  11298 
public computational chemistry database (PCCDB) project, http://pccdb.org 
 
 19 19  0  0  0  0  0  0  0  0999 V2000 
    0.8719   -0.0642   -0.0355 C   0  0  0  0  0  0  0  0  0  0  0  0 
    4.5293    1.0272    0.2390 C   0  0  0  0  0  0  0  0  0  0  0  0 
    3.1279    1.0448    0.1448 C   0  0  0  0  0  0  0  0  0  0  0  0 
    5.1845   -0.1865    0.2398 C   0  0  0  0  0  0  0  0  0  0  0  0 
    2.3773   -0.1164    0.0535 C   0  0  0  0  0  0  0  0  0  0  0  0 
    4.4566   -1.3845    0.1463 C   0  0  0  0  0  0  0  0  0  0  0  0 
    3.0355   -1.3851    0.0541 C   0  0  0  0  0  0  0  0  0  0  0  0 
    2.2903   -2.5222   -0.0015 N   0  0  0  0  0  0  0  0  0  0  0  0 
    5.2278   -2.6129    0.1350 N   0  0  0  0  0  0  0  0  0  0  0  0 
    6.4543   -2.5389    0.2248 O   0  0  0  0  0  0  0  0  0  0  0  0 
    4.6336   -3.7042    0.0315 O   0  0  0  0  0  0  0  0  0  0  0  0 
    0.5179    0.9697   -0.0051 H   0  0  0  0  0  0  0  0  0  0  0  0 
    0.3949   -0.6021    0.7954 H   0  0  0  0  0  0  0  0  0  0  0  0 
    0.4965   -0.5077   -0.9694 H   0  0  0  0  0  0  0  0  0  0  0  0 
    5.0882    1.9544    0.3094 H   0  0  0  0  0  0  0  0  0  0  0  0 
    2.6055    1.9987    0.1433 H   0  0  0  0  0  0  0  0  0  0  0  0 
    6.2625   -0.2538    0.3082 H   0  0  0  0  0  0  0  0  0  0  0  0 
    1.3142   -2.4640   -0.2416 H   0  0  0  0  0  0  0  0  0  0  0  0 
    2.7824   -3.3997   -0.1043 H   0  0  0  0  0  0  0  0  0  0  0  0 
  1 12  1  0  0  0  0 
  1  5  1  0  0  0  0 
  1 13  1  0  0  0  0 
  2  4  1  0  0  0  0 
  2 15  1  0  0  0  0 
  3  2  2  0  0  0  0 
  4 17  1  0  0  0  0 
  5  7  2  0  0  0  0 
  5  3  1  0  0  0  0 
  6  4  2  0  0  0  0 
  7  6  1  0  0  0  0 
  8  7  1  0  0  0  0 
  9  6  1  0  0  0  0 
  9 10  2  0  0  0  0 
 11  9  2  0  0  0  0 
 14  1  1  0  0  0  0 
 16  3  1  0  0  0  0 
 18  8  1  0  0  0  0 
 19  8  1  0  0  0  0 
M  END 
>  <HBA> 
1 
 
>  <HBD> 
1 
 
>  <TPSA> 
71.84 
 
>  <cid> 
11298 
 
>  <dipole> 
5.04 
 
>  <excitation_energy_1> 
3.246 
 
>  <excitation_energy_2> 
3.804 
 
>  <excitation_energy_3> 
4.404 
 
>  <excitation_energy_4> 
4.489 
 
>  <homo_energy> 
-5.97 
 
>  <homo_lumo_gap> 
3.848 
 
>  <logP> 
2.59 
 
>  <lumo_energy> 
-2.123 
 
>  <melting_point> 
97.11 
 
>  <molecular_refractivity> 
44.63 
 
>  <oscillator_strength_1> 
0.0904 
 
>  <oscillator_strength_2> 
0.0002 
 
>  <oscillator_strength_3> 
0.0014 
 
>  <oscillator_strength_4> 
0.1577 
 
>  <open_babel_can_smiles> 
O=N(=O)c1cccc(c1N)C 
 
>  <mulliken_charges> 
19 
1   -0.559527 
2   -0.144028 
3   -0.184406 
4   -0.165893 
5   0.151543 
6   0.260166 
7   0.282678 
8   -0.823068 
9   0.364254 
10   -0.403167 
11   -0.449453 
12   0.169335 
13   0.169192 
14   0.160381 
15   0.138105 
16   0.132998 
17   0.180367 
18   0.338736 
19   0.381788 
 
>  <lowdin_charges> 
19 
1   -0.446728 
2   -0.184691 
3   -0.135211 
4   -0.131849 
5   -0.03748 
6   -0.04579 
7   0.079912 
8   -0.451881 
9   0.309617 
10   -0.252972 
11   -0.290153 
12   0.165733 
13   0.161778 
14   0.156109 
15   0.164507 
16   0.16072 
17   0.185063 
18   0.286877 
19   0.306439 
 
$$$$ 
 
