PCCDB-ID:  9475 
public computational chemistry database (PCCDB) project, http://pccdb.org 
 
 22 21  0  0  1  0  0  0  0  0999 V2000 
    0.6929   -0.3137   -0.1204 C   0  0  0  0  0  0  0  0  0  0  0  0 
    2.2129   -0.2578    0.0642 C   0  0  0  0  0  0  0  0  0  0  0  0 
    2.7197   -1.2220    1.1444 C   0  0  0  0  0  0  0  0  0  0  0  0 
    4.2403   -1.1703    1.3290 C   0  0  0  0  0  0  0  0  0  0  0  0 
    4.7508   -2.0919    2.4624 C   0  0  1  0  0  0  0  0  0  0  0  0 
    6.2917   -2.1204    2.4552 C   0  0  0  0  0  0  0  0  0  0  0  0 
    4.2066   -1.6689    3.7467 N   0  0  0  0  0  0  0  0  0  0  0  0 
    6.9738   -1.5841    3.2931 O   0  0  0  0  0  0  0  0  0  0  0  0 
    6.8768   -2.7721    1.4129 O   0  0  0  0  0  0  0  0  0  0  0  0 
    0.3581    0.3882   -0.8924 H   0  0  0  0  0  0  0  0  0  0  0  0 
    0.1722   -0.0598    0.8108 H   0  0  0  0  0  0  0  0  0  0  0  0 
    0.3661   -1.3177   -0.4182 H   0  0  0  0  0  0  0  0  0  0  0  0 
    2.5121    0.7671    0.3255 H   0  0  0  0  0  0  0  0  0  0  0  0 
    2.7061   -0.4835   -0.8924 H   0  0  0  0  0  0  0  0  0  0  0  0 
    2.4209   -2.2492    0.8849 H   0  0  0  0  0  0  0  0  0  0  0  0 
    2.2428   -0.9967    2.1048 H   0  0  0  0  0  0  0  0  0  0  0  0 
    4.5545   -0.1424    1.5600 H   0  0  0  0  0  0  0  0  0  0  0  0 
    4.7393   -1.4327    0.3849 H   0  0  0  0  0  0  0  0  0  0  0  0 
    4.3913   -3.1133    2.2647 H   0  0  0  0  0  0  0  0  0  0  0  0 
    4.7163   -0.8339    4.0392 H   0  0  0  0  0  0  0  0  0  0  0  0 
    4.4330   -2.3683    4.4529 H   0  0  0  0  0  0  0  0  0  0  0  0 
    6.1936   -3.1566    0.8385 H   0  0  0  0  0  0  0  0  0  0  0  0 
  1  2  1  0  0  0  0 
  1 11  1  0  0  0  0 
  2 13  1  0  0  0  0 
  2  3  1  0  0  0  0 
  3  4  1  0  0  0  0 
  3 16  1  0  0  0  0 
  4 17  1  0  0  0  0 
  4  5  1  0  0  0  0 
  5 19  1  6  0  0  0 
  5  7  1  0  0  0  0 
  6  5  1  0  0  0  0 
  6  8  2  0  0  0  0 
  7 20  1  0  0  0  0 
  7 21  1  0  0  0  0 
  9  6  1  0  0  0  0 
 10  1  1  0  0  0  0 
 12  1  1  0  0  0  0 
 14  2  1  0  0  0  0 
 15  3  1  0  0  0  0 
 18  4  1  0  0  0  0 
 22  9  1  0  0  0  0 
M  END 
>  <HBA> 
3 
 
>  <HBD> 
2 
 
>  <TPSA> 
63.32 
 
>  <cid> 
9475 
 
>  <dipole> 
3.12 
 
>  <excitation_energy_1> 
5.542 
 
>  <excitation_energy_2> 
5.871 
 
>  <excitation_energy_3> 
6.018 
 
>  <excitation_energy_4> 
6.4 
 
>  <homo_energy> 
-6.784 
 
>  <homo_lumo_gap> 
6.961 
 
>  <logP> 
1.289 
 
>  <lumo_energy> 
0.177 
 
>  <melting_point> 
104.84 
 
>  <molecular_refractivity> 
35.44 
 
>  <oscillator_strength_1> 
0.0037 
 
>  <oscillator_strength_2> 
0.0014 
 
>  <oscillator_strength_3> 
0.0011 
 
>  <oscillator_strength_4> 
0.0187 
 
>  <open_babel_can_smiles> 
CCCC[C@@H](C(=O)O)N 
 
>  <mulliken_charges> 
22 
1   -0.441778 
2   -0.250366 
3   -0.244139 
4   -0.259363 
5   -0.110456 
6   0.581354 
7   -0.69006 
8   -0.444677 
9   -0.564696 
10   0.143843 
11   0.146133 
12   0.141113 
13   0.134558 
14   0.127413 
15   0.120437 
16   0.168175 
17   0.149384 
18   0.123011 
19   0.139816 
20   0.312249 
21   0.306754 
22   0.411295 
 
>  <lowdin_charges> 
22 
1   -0.444519 
2   -0.27102 
3   -0.274447 
4   -0.276912 
5   -0.110952 
6   0.176141 
7   -0.532167 
8   -0.244652 
9   -0.357095 
10   0.151456 
11   0.149075 
12   0.145724 
13   0.139987 
14   0.136649 
15   0.134259 
16   0.15839 
17   0.150059 
18   0.137081 
19   0.145663 
20   0.264574 
21   0.26337 
22   0.359335 
 
$$$$ 
 
