PCCDB-ID:  12809 
public computational chemistry database (PCCDB) project, http://pccdb.org 
 
 23 23  0  0  0  0  0  0  0  0999 V2000 
    3.6614    0.0064    1.2527 C   0  0  0  0  0  0  0  0  0  0  0  0 
    3.7244   -4.2793   -3.8400 C   0  0  0  0  0  0  0  0  0  0  0  0 
    4.2478    1.8324   -3.8340 C   0  0  0  0  0  0  0  0  0  0  0  0 
    2.4695   -0.1559    0.2908 C   0  0  0  0  0  0  0  0  0  0  0  0 
    2.9108   -0.7048   -1.0404 C   0  0  0  0  0  0  0  0  0  0  0  0 
    3.3127   -2.4393   -2.4094 C   0  0  0  0  0  0  0  0  0  0  0  0 
    3.7647   -0.3649   -3.0970 C   0  0  0  0  0  0  0  0  0  0  0  0 
    2.8680   -2.0255   -1.2105 N   0  0  0  0  0  0  0  0  0  0  0  0 
    3.3548    0.1828   -1.9529 N   0  0  0  0  0  0  0  0  0  0  0  0 
    3.7695   -1.6705   -3.3947 N   0  0  0  0  0  0  0  0  0  0  0  0 
    3.2698   -3.7613   -2.5819 O   0  0  0  0  0  0  0  0  0  0  0  0 
    4.2218    0.4190   -4.0763 O   0  0  0  0  0  0  0  0  0  0  0  0 
    3.3259    0.4181    2.2104 H   0  0  0  0  0  0  0  0  0  0  0  0 
    4.4112    0.6848    0.8320 H   0  0  0  0  0  0  0  0  0  0  0  0 
    4.1397   -0.9599    1.4443 H   0  0  0  0  0  0  0  0  0  0  0  0 
    3.5979   -5.3598   -3.7623 H   0  0  0  0  0  0  0  0  0  0  0  0 
    4.7744   -4.0263   -4.0092 H   0  0  0  0  0  0  0  0  0  0  0  0 
    3.1273   -3.8804   -4.6644 H   0  0  0  0  0  0  0  0  0  0  0  0 
    4.6542    2.2675   -4.7479 H   0  0  0  0  0  0  0  0  0  0  0  0 
    4.8860    2.0704   -2.9789 H   0  0  0  0  0  0  0  0  0  0  0  0 
    3.2414    2.2137   -3.6420 H   0  0  0  0  0  0  0  0  0  0  0  0 
    1.9935    0.8164    0.1269 H   0  0  0  0  0  0  0  0  0  0  0  0 
    1.7345   -0.8420    0.7216 H   0  0  0  0  0  0  0  0  0  0  0  0 
  1 15  1  0  0  0  0 
  1 13  1  0  0  0  0 
  2 16  1  0  0  0  0 
  2 11  1  0  0  0  0 
  3 21  1  0  0  0  0 
  3 20  1  0  0  0  0 
  4 23  1  0  0  0  0 
  4  1  1  0  0  0  0 
  5  4  1  0  0  0  0 
  6  8  2  0  0  0  0 
  7  9  2  0  0  0  0 
  8  5  2  0  0  0  0 
  9  5  1  0  0  0  0 
 10  7  2  0  0  0  0 
 10  6  2  0  0  0  0 
 11  6  1  0  0  0  0 
 12  3  1  0  0  0  0 
 12  7  1  0  0  0  0 
 14  1  1  0  0  0  0 
 17  2  1  0  0  0  0 
 18  2  1  0  0  0  0 
 19  3  1  0  0  0  0 
 22  4  1  0  0  0  0 
M  END 
>  <HBA> 
5 
 
>  <HBD> 
0 
 
>  <TPSA> 
57.13 
 
>  <cid> 
12809 
 
>  <dipole> 
1.55 
 
>  <excitation_energy_1> 
5.092 
 
>  <excitation_energy_2> 
5.241 
 
>  <excitation_energy_3> 
5.606 
 
>  <excitation_energy_4> 
5.616 
 
>  <homo_energy> 
-7.222 
 
>  <homo_lumo_gap> 
6.479 
 
>  <logP> 
0.451 
 
>  <lumo_energy> 
-0.743 
 
>  <melting_point> 
65.22 
 
>  <molecular_refractivity> 
42.58 
 
>  <oscillator_strength_1> 
0.0025 
 
>  <oscillator_strength_2> 
0.0036 
 
>  <oscillator_strength_3> 
0.034 
 
>  <oscillator_strength_4> 
0.0061 
 
>  <open_babel_can_smiles> 
CCC1=[N]=[C](=[N]=[C](=N1)OC)OC 
 
>  <mulliken_charges> 
23 
1   -0.451008 
2   -0.210908 
3   -0.208431 
4   -0.303465 
5   0.434697 
6   0.670872 
7   0.673497 
8   -0.47782 
9   -0.512055 
10   -0.512051 
11   -0.456801 
12   -0.459535 
13   0.152189 
14   0.157619 
15   0.162646 
16   0.167927 
17   0.171675 
18   0.172135 
19   0.167874 
20   0.169666 
21   0.170081 
22   0.156611 
23   0.164583 
 
>  <lowdin_charges> 
23 
1   -0.437488 
2   -0.27182 
3   -0.272612 
4   -0.277178 
5   0.125238 
6   0.174102 
7   0.173964 
8   -0.200838 
9   -0.232807 
10   -0.215461 
11   -0.157072 
12   -0.159797 
13   0.154678 
14   0.155494 
15   0.156889 
16   0.159652 
17   0.158599 
18   0.161264 
19   0.162149 
20   0.159549 
21   0.15868 
22   0.159804 
23   0.165012 
 
$$$$ 
 
