PCCDB-ID:  66729 
public computational chemistry database (PCCDB) project, http://pccdb.org 
 
 25 25  0  0  0  0  0  0  0  0999 V2000 
    1.4860   -0.6457   -0.8694 C   0  0  0  0  0  0  0  0  0  0  0  0 
    2.5416   -4.3241    0.6473 C   0  0  0  0  0  0  0  0  0  0  0  0 
   -0.0580   -4.5055   -3.5742 C   0  0  0  0  0  0  0  0  0  0  0  0 
    1.0277   -3.6509   -3.4376 C   0  0  0  0  0  0  0  0  0  0  0  0 
   -0.1455   -4.7579   -1.1532 C   0  0  0  0  0  0  0  0  0  0  0  0 
    2.6595   -1.3825   -1.4699 C   0  0  0  0  0  0  0  0  0  0  0  0 
   -0.6357   -5.0485   -2.4263 C   0  0  0  0  0  0  0  0  0  0  0  0 
    1.5345   -3.3101   -2.1700 C   0  0  0  0  0  0  0  0  0  0  0  0 
    0.9343   -3.8932   -1.0247 C   0  0  0  0  0  0  0  0  0  0  0  0 
    2.6623   -2.5035   -2.0711 N   0  0  0  0  0  0  0  0  0  0  0  0 
   -1.7813   -5.9495   -2.5565 N   0  0  0  0  0  0  0  0  0  0  0  0 
    3.8629   -0.7639   -1.3587 O   0  0  0  0  0  0  0  0  0  0  0  0 
   -2.1943   -6.1938   -3.6921 O   0  0  0  0  0  0  0  0  0  0  0  0 
   -2.2692   -6.4138   -1.5237 O   0  0  0  0  0  0  0  0  0  0  0  0 
    1.3942   -3.5691    0.2334 O   0  0  0  0  0  0  0  0  0  0  0  0 
    0.5408   -1.0772   -1.2013 H   0  0  0  0  0  0  0  0  0  0  0  0 
    1.5075    0.4130   -1.1553 H   0  0  0  0  0  0  0  0  0  0  0  0 
    1.5219   -0.7147    0.2235 H   0  0  0  0  0  0  0  0  0  0  0  0 
    2.7982   -3.9666    1.6468 H   0  0  0  0  0  0  0  0  0  0  0  0 
    3.3864   -4.1628   -0.0322 H   0  0  0  0  0  0  0  0  0  0  0  0 
    2.3057   -5.3947    0.6911 H   0  0  0  0  0  0  0  0  0  0  0  0 
   -0.4610   -4.7591   -4.5466 H   0  0  0  0  0  0  0  0  0  0  0  0 
    1.5063   -3.2230   -4.3125 H   0  0  0  0  0  0  0  0  0  0  0  0 
   -0.6087   -5.1894   -0.2747 H   0  0  0  0  0  0  0  0  0  0  0  0 
    3.7448    0.0952   -0.9249 H   0  0  0  0  0  0  0  0  0  0  0  0 
  1 18  1  0  0  0  0 
  2 21  1  0  0  0  0 
  2 19  1  0  0  0  0 
  3  4  2  0  0  0  0 
  3  7  1  0  0  0  0 
  4  8  1  0  0  0  0 
  5  9  1  0  0  0  0 
  5 24  1  0  0  0  0 
  6 12  1  0  0  0  0 
  6  1  1  0  0  0  0 
  7  5  2  0  0  0  0 
  8 10  1  0  0  0  0 
  8  9  2  0  0  0  0 
  9 15  1  0  0  0  0 
 10  6  2  0  0  0  0 
 11  7  1  0  0  0  0 
 11 14  2  0  0  0  0 
 12 25  1  0  0  0  0 
 13 11  2  0  0  0  0 
 15  2  1  0  0  0  0 
 16  1  1  0  0  0  0 
 17  1  1  0  0  0  0 
 20  2  1  0  0  0  0 
 22  3  1  0  0  0  0 
 23  4  1  0  0  0  0 
M  END 
>  <HBA> 
3 
 
>  <HBD> 
1 
 
>  <TPSA> 
84.15 
 
>  <cid> 
66729 
 
>  <dipole> 
6.94 
 
>  <excitation_energy_1> 
3.729 
 
>  <excitation_energy_2> 
3.771 
 
>  <excitation_energy_3> 
4.156 
 
>  <excitation_energy_4> 
4.27 
 
>  <homo_energy> 
-6.427 
 
>  <homo_lumo_gap> 
4.256 
 
>  <logP> 
2.158 
 
>  <lumo_energy> 
-2.171 
 
>  <melting_point> 
104.5 
 
>  <molecular_refractivity> 
56.07 
 
>  <oscillator_strength_1> 
0.0291 
 
>  <oscillator_strength_2> 
0.2862 
 
>  <oscillator_strength_3> 
0.0407 
 
>  <oscillator_strength_4> 
0.0006 
 
>  <open_babel_can_smiles> 
COc1cc(ccc1/N=C(/O)\C)N(=O)=O 
 
>  <mulliken_charges> 
25 
1   -0.540713 
2   -0.221119 
3   -0.155586 
4   -0.17991 
5   -0.20867 
6   0.500504 
7   0.275423 
8   0.232144 
9   0.327824 
10   -0.470943 
11   0.370227 
12   -0.563695 
13   -0.402777 
14   -0.402546 
15   -0.538598 
16   0.196151 
17   0.163323 
18   0.201302 
19   0.162736 
20   0.171383 
21   0.152413 
22   0.179821 
23   0.152451 
24   0.184128 
25   0.414724 
 
>  <lowdin_charges> 
25 
1   -0.473285 
2   -0.272645 
3   -0.140738 
4   -0.166463 
5   -0.156434 
6   0.162168 
7   -0.01121 
8   0.045867 
9   0.065963 
10   -0.172868 
11   0.309548 
12   -0.346055 
13   -0.254743 
14   -0.256818 
15   -0.235833 
16   0.1843 
17   0.163281 
18   0.183062 
19   0.157769 
20   0.154977 
21   0.144284 
22   0.187353 
23   0.173638 
24   0.193623 
25   0.361259 
 
$$$$ 
 
