PCCDB-ID:  15305 
public computational chemistry database (PCCDB) project, http://pccdb.org 
 
 30 32  0  0  0  0  0  0  0  0999 V2000 
    0.9519   -0.0547    0.0656 C   0  0  0  0  0  0  0  0  0  0  0  0 
   11.1436   -0.1788    0.0588 C   0  0  0  0  0  0  0  0  0  0  0  0 
    3.1759    1.1818    0.0667 C   0  0  0  0  0  0  0  0  0  0  0  0 
    8.9504    1.1119    0.0628 C   0  0  0  0  0  0  0  0  0  0  0  0 
    5.3397   -2.4538    0.0658 C   0  0  0  0  0  0  0  0  0  0  0  0 
    6.6990   -2.4702    0.0647 C   0  0  0  0  0  0  0  0  0  0  0  0 
    4.5592    1.2089    0.0665 C   0  0  0  0  0  0  0  0  0  0  0  0 
    7.5681    1.1725    0.0647 C   0  0  0  0  0  0  0  0  0  0  0  0 
    3.1976   -1.2127    0.0664 C   0  0  0  0  0  0  0  0  0  0  0  0 
    8.8706   -1.2813    0.0623 C   0  0  0  0  0  0  0  0  0  0  0  0 
    2.4635   -0.0360    0.0663 C   0  0  0  0  0  0  0  0  0  0  0  0 
    9.6329   -0.1228    0.0614 C   0  0  0  0  0  0  0  0  0  0  0  0 
    4.6092   -1.2167    0.0662 C   0  0  0  0  0  0  0  0  0  0  0  0 
    7.4593   -1.2513    0.0641 C   0  0  0  0  0  0  0  0  0  0  0  0 
    5.3209    0.0199    0.0660 C   0  0  0  0  0  0  0  0  0  0  0  0 
    6.7778    0.0023    0.0650 C   0  0  0  0  0  0  0  0  0  0  0  0 
    0.5408    0.9597    0.0681 H   0  0  0  0  0  0  0  0  0  0  0  0 
    0.5565   -0.5762    0.9461 H   0  0  0  0  0  0  0  0  0  0  0  0 
    0.5574   -0.5714   -0.8182 H   0  0  0  0  0  0  0  0  0  0  0  0 
   11.5800    0.8251    0.0562 H   0  0  0  0  0  0  0  0  0  0  0  0 
   11.5239   -0.7091   -0.8230 H   0  0  0  0  0  0  0  0  0  0  0  0 
   11.5272   -0.7059    0.9412 H   0  0  0  0  0  0  0  0  0  0  0  0 
    2.6241    2.1190    0.0672 H   0  0  0  0  0  0  0  0  0  0  0  0 
    9.5247    2.0355    0.0624 H   0  0  0  0  0  0  0  0  0  0  0  0 
    4.7768   -3.3842    0.0662 H   0  0  0  0  0  0  0  0  0  0  0  0 
    7.2392   -3.4140    0.0641 H   0  0  0  0  0  0  0  0  0  0  0  0 
    5.0576    2.1727    0.0667 H   0  0  0  0  0  0  0  0  0  0  0  0 
    7.0931    2.1481    0.0662 H   0  0  0  0  0  0  0  0  0  0  0  0 
    2.6801   -2.1708    0.0667 H   0  0  0  0  0  0  0  0  0  0  0  0 
    9.3647   -2.2517    0.0619 H   0  0  0  0  0  0  0  0  0  0  0  0 
  1 11  1  0  0  0  0 
  1 17  1  0  0  0  0 
  1 18  1  0  0  0  0 
  2 12  1  0  0  0  0 
  2 22  1  0  0  0  0 
  3 23  1  0  0  0  0 
  4  8  2  0  0  0  0 
  5 25  1  0  0  0  0 
  5 13  2  0  0  0  0 
  6  5  1  0  0  0  0 
  7  3  2  0  0  0  0 
  7 27  1  0  0  0  0 
  8 16  1  0  0  0  0 
  8 28  1  0  0  0  0 
  9 29  1  0  0  0  0 
 10 14  1  0  0  0  0 
 11  9  2  0  0  0  0 
 11  3  1  0  0  0  0 
 12 10  2  0  0  0  0 
 12  4  1  0  0  0  0 
 13  9  1  0  0  0  0 
 14  6  2  0  0  0  0 
 14 16  1  0  0  0  0 
 15 13  1  0  0  0  0 
 15  7  1  0  0  0  0 
 16 15  2  0  0  0  0 
 19  1  1  0  0  0  0 
 20  2  1  0  0  0  0 
 21  2  1  0  0  0  0 
 24  4  1  0  0  0  0 
 26  6  1  0  0  0  0 
 30 10  1  0  0  0  0 
M  END 
>  <HBA> 
0 
 
>  <HBD> 
0 
 
>  <TPSA> 
0.0 
 
>  <cid> 
15305 
 
>  <dipole> 
0.02 
 
>  <excitation_energy_1> 
3.88 
 
>  <excitation_energy_2> 
4.145 
 
>  <excitation_energy_3> 
4.566 
 
>  <excitation_energy_4> 
4.698 
 
>  <homo_energy> 
-5.63 
 
>  <homo_lumo_gap> 
4.718 
 
>  <logP> 
4.61 
 
>  <lumo_energy> 
-0.912 
 
>  <melting_point> 
102.67 
 
>  <molecular_refractivity> 
71.39 
 
>  <oscillator_strength_1> 
0.0001 
 
>  <oscillator_strength_2> 
0.0221 
 
>  <oscillator_strength_3> 
0.1051 
 
>  <oscillator_strength_4> 
0.7449 
 
>  <open_babel_can_smiles> 
Cc1ccc2c(c1)ccc1c2ccc(c1)C 
 
>  <mulliken_charges> 
30 
1   -0.532753 
2   -0.532657 
3   -0.193086 
4   -0.19311 
5   -0.194545 
6   -0.194605 
7   -0.18659 
8   -0.186648 
9   -0.273432 
10   -0.273444 
11   0.189179 
12   0.189165 
13   0.15299 
14   0.152925 
15   0.058055 
16   0.058124 
17   0.154678 
18   0.163499 
19   0.163572 
20   0.154644 
21   0.16352 
22   0.163537 
23   0.120548 
24   0.120568 
25   0.127274 
26   0.127278 
27   0.131192 
28   0.131239 
29   0.119442 
30   0.119441 
 
>  <lowdin_charges> 
30 
1   -0.443308 
2   -0.443383 
3   -0.167833 
4   -0.167995 
5   -0.159677 
6   -0.159537 
7   -0.157101 
8   -0.156927 
9   -0.168752 
10   -0.168576 
11   0.000288 
12   0.000279 
13   -0.000109 
14   -0.000153 
15   -0.005593 
16   -0.005623 
17   0.155758 
18   0.161973 
19   0.161982 
20   0.155866 
21   0.161967 
22   0.161969 
23   0.154683 
24   0.154823 
25   0.157553 
26   0.15743 
27   0.15709 
28   0.156954 
29   0.153051 
30   0.152905 
 
$$$$ 
 
