PCCDB-ID:  55896 
public computational chemistry database (PCCDB) project, http://pccdb.org 
 
 36 35  0  0  1  0  0  0  0  0999 V2000 
    0.5958   -0.2967   -3.4098 C   0  0  0  0  0  0  0  0  0  0  0  0 
    0.6751    3.2026   -3.8036 C   0  0  0  0  0  0  0  0  0  0  0  0 
    4.9085    4.9984   -0.5482 C   0  0  0  0  0  0  0  0  0  0  0  0 
    9.0245    7.2676   -1.5955 C   0  0  0  0  0  0  0  0  0  0  0  0 
    0.8657    0.8106   -4.4452 C   0  0  0  0  0  0  0  0  0  0  0  0 
    3.4430    3.3070   -2.7641 C   0  0  0  0  0  0  0  0  0  0  0  0 
    2.8442    2.0168   -3.3354 C   0  0  0  0  0  0  0  0  0  0  0  0 
    4.8937    3.1209   -2.2968 C   0  0  0  0  0  0  0  0  0  0  0  0 
    7.0609    4.1200   -1.5466 C   0  0  0  0  0  0  0  0  0  0  0  0 
    1.4193    2.0925   -3.8509 C   0  0  0  0  0  0  0  0  0  0  0  0 
    5.5771    4.4109   -1.7990 C   0  0  2  0  0  0  0  0  0  0  0  0 
    8.2963    6.0675   -2.1559 C   0  0  0  0  0  0  0  0  0  0  0  0 
    8.1693    5.8126   -3.3337 O   0  0  0  0  0  0  0  0  0  0  0  0 
    7.7947    5.3043   -1.1545 O   0  0  0  0  0  0  0  0  0  0  0  0 
    0.1706   -1.1829   -3.8945 H   0  0  0  0  0  0  0  0  0  0  0  0 
   -0.1137    0.0472   -2.6489 H   0  0  0  0  0  0  0  0  0  0  0  0 
    1.5119   -0.6104   -2.8973 H   0  0  0  0  0  0  0  0  0  0  0  0 
   -0.3388    3.2175   -4.1964 H   0  0  0  0  0  0  0  0  0  0  0  0 
    1.0366    4.1344   -3.3800 H   0  0  0  0  0  0  0  0  0  0  0  0 
    3.8829    5.3217   -0.7519 H   0  0  0  0  0  0  0  0  0  0  0  0 
    5.4657    5.8656   -0.1801 H   0  0  0  0  0  0  0  0  0  0  0  0 
    4.8717    4.2560    0.2605 H   0  0  0  0  0  0  0  0  0  0  0  0 
    8.3176    7.9207   -1.0722 H   0  0  0  0  0  0  0  0  0  0  0  0 
    9.4974    7.8181   -2.4094 H   0  0  0  0  0  0  0  0  0  0  0  0 
    9.7769    6.9510   -0.8666 H   0  0  0  0  0  0  0  0  0  0  0  0 
   -0.0672    1.0349   -4.9760 H   0  0  0  0  0  0  0  0  0  0  0  0 
    1.5685    0.4251   -5.1989 H   0  0  0  0  0  0  0  0  0  0  0  0 
    2.8214    3.6532   -1.9292 H   0  0  0  0  0  0  0  0  0  0  0  0 
    3.4081    4.0970   -3.5268 H   0  0  0  0  0  0  0  0  0  0  0  0 
    2.9037    1.2294   -2.5684 H   0  0  0  0  0  0  0  0  0  0  0  0 
    3.4840    1.6561   -4.1570 H   0  0  0  0  0  0  0  0  0  0  0  0 
    5.4806    2.7102   -3.1312 H   0  0  0  0  0  0  0  0  0  0  0  0 
    4.9254    2.3642   -1.4976 H   0  0  0  0  0  0  0  0  0  0  0  0 
    7.5303    3.6978   -2.4387 H   0  0  0  0  0  0  0  0  0  0  0  0 
    7.1875    3.4305   -0.7057 H   0  0  0  0  0  0  0  0  0  0  0  0 
    5.5316    5.1524   -2.6086 H   0  0  0  0  0  0  0  0  0  0  0  0 
  1 17  1  0  0  0  0 
  1 16  1  0  0  0  0 
  2 19  1  0  0  0  0 
  3 21  1  0  0  0  0 
  3 22  1  0  0  0  0 
  4 23  1  0  0  0  0 
  4 25  1  0  0  0  0 
  5 10  1  0  0  0  0 
  5  1  1  0  0  0  0 
  6  8  1  0  0  0  0 
  6 28  1  0  0  0  0 
  7  6  1  0  0  0  0 
  7 30  1  0  0  0  0 
  8 11  1  0  0  0  0 
  8 33  1  0  0  0  0 
  9 14  1  0  0  0  0 
  9 35  1  0  0  0  0 
 10  2  2  0  0  0  0 
 10  7  1  0  0  0  0 
 11 36  1  6  0  0  0 
 11  9  1  0  0  0  0 
 11  3  1  0  0  0  0 
 12  4  1  0  0  0  0 
 12 14  1  0  0  0  0 
 13 12  2  0  0  0  0 
 15  1  1  0  0  0  0 
 18  2  1  0  0  0  0 
 20  3  1  0  0  0  0 
 24  4  1  0  0  0  0 
 26  5  1  0  0  0  0 
 27  5  1  0  0  0  0 
 29  6  1  0  0  0  0 
 31  7  1  0  0  0  0 
 32  8  1  0  0  0  0 
 34  9  1  0  0  0  0 
M  END 
>  <HBA> 
2 
 
>  <HBD> 
0 
 
>  <TPSA> 
26.3 
 
>  <cid> 
55896 
 
>  <dipole> 
1.68 
 
>  <excitation_energy_1> 
5.804 
 
>  <excitation_energy_2> 
6.1 
 
>  <excitation_energy_3> 
6.346 
 
>  <excitation_energy_4> 
6.421 
 
>  <homo_energy> 
-6.542 
 
>  <homo_lumo_gap> 
6.944 
 
>  <logP> 
3.322 
 
>  <lumo_energy> 
0.403 
 
>  <melting_point> 
-35.28 
 
>  <molecular_refractivity> 
60.61 
 
>  <oscillator_strength_1> 
0.001 
 
>  <oscillator_strength_2> 
0.0305 
 
>  <oscillator_strength_3> 
0.0362 
 
>  <oscillator_strength_4> 
0.038 
 
>  <open_babel_can_smiles> 
CCC(=C)CCC[C@H](COC(=O)C)C 
 
>  <mulliken_charges> 
36 
1   -0.442517 
2   -0.409633 
3   -0.453163 
4   -0.523566 
5   -0.321468 
6   -0.269376 
7   -0.32687 
8   -0.264922 
9   -0.04404 
10   0.228922 
11   -0.099508 
12   0.600952 
13   -0.468714 
14   -0.458292 
15   0.144534 
16   0.150287 
17   0.145606 
18   0.128524 
19   0.135117 
20   0.149177 
21   0.15432 
22   0.136953 
23   0.181452 
24   0.182012 
25   0.180553 
26   0.139882 
27   0.136556 
28   0.143387 
29   0.14172 
30   0.144052 
31   0.140697 
32   0.134903 
33   0.125288 
34   0.165862 
35   0.14381 
36   0.147503 
 
>  <lowdin_charges> 
36 
1   -0.445777 
2   -0.369638 
3   -0.449779 
4   -0.467848 
5   -0.271798 
6   -0.276508 
7   -0.27636 
8   -0.27594 
9   -0.136775 
10   0.005147 
11   -0.135896 
12   0.19759 
13   -0.266018 
14   -0.197656 
15   0.151362 
16   0.151905 
17   0.147351 
18   0.152233 
19   0.155496 
20   0.150928 
21   0.155536 
22   0.145563 
23   0.178985 
24   0.176375 
25   0.177608 
26   0.148413 
27   0.145594 
28   0.145895 
29   0.145555 
30   0.149371 
31   0.148696 
32   0.14412 
33   0.137387 
34   0.158924 
35   0.149648 
36   0.15031 
 
$$$$ 
 
