PCCDB-ID:  10734 
public computational chemistry database (PCCDB) project, http://pccdb.org 
 
 33 33  0  0  1  0  0  0  0  0999 V2000 
    2.2919    0.9790    5.0721 C   0  0  0  0  0  0  0  0  0  0  0  0 
    4.2063    0.2187    0.6557 C   0  0  0  0  0  0  0  0  0  0  0  0 
    4.3349    2.0832    3.0883 C   0  0  0  0  0  0  0  0  0  0  0  0 
    3.4176    0.2246    4.3572 C   0  0  0  0  0  0  0  0  0  0  0  0 
    6.9563   -4.4103    0.7420 C   0  0  0  0  0  0  0  0  0  0  0  0 
    6.2154   -4.3662    1.9256 C   0  0  0  0  0  0  0  0  0  0  0  0 
    7.3358   -3.2185    0.1235 C   0  0  0  0  0  0  0  0  0  0  0  0 
    5.8612   -3.1382    2.4831 C   0  0  0  0  0  0  0  0  0  0  0  0 
    6.9752   -1.9899    0.6810 C   0  0  0  0  0  0  0  0  0  0  0  0 
    4.3452   -0.2106    2.1215 C   0  0  1  0  0  0  0  0  0  0  0  0 
    6.2318   -1.9348    1.8666 C   0  0  0  0  0  0  0  0  0  0  0  0 
    5.8149   -0.6050    2.4795 C   0  0  1  0  0  0  0  0  0  0  0  0 
    3.7188    0.7606    3.0311 N   0  0  0  0  0  0  0  0  0  0  0  0 
    6.6653    0.4673    2.0722 O   0  0  0  0  0  0  0  0  0  0  0  0 
    2.0328    0.4676    6.0064 H   0  0  0  0  0  0  0  0  0  0  0  0 
    1.4001    1.0206    4.4380 H   0  0  0  0  0  0  0  0  0  0  0  0 
    2.5763    2.0043    5.3295 H   0  0  0  0  0  0  0  0  0  0  0  0 
    4.4918   -0.6030   -0.0086 H   0  0  0  0  0  0  0  0  0  0  0  0 
    4.8431    1.0731    0.4146 H   0  0  0  0  0  0  0  0  0  0  0  0 
    3.1648    0.4863    0.4543 H   0  0  0  0  0  0  0  0  0  0  0  0 
    3.6344    2.7945    3.5382 H   0  0  0  0  0  0  0  0  0  0  0  0 
    4.5612    2.4376    2.0814 H   0  0  0  0  0  0  0  0  0  0  0  0 
    5.2731    2.1082    3.6696 H   0  0  0  0  0  0  0  0  0  0  0  0 
    3.1039   -0.8188    4.2286 H   0  0  0  0  0  0  0  0  0  0  0  0 
    4.3096    0.2055    5.0168 H   0  0  0  0  0  0  0  0  0  0  0  0 
    7.2393   -5.3664    0.3099 H   0  0  0  0  0  0  0  0  0  0  0  0 
    5.9220   -5.2890    2.4196 H   0  0  0  0  0  0  0  0  0  0  0  0 
    7.9163   -3.2424   -0.7953 H   0  0  0  0  0  0  0  0  0  0  0  0 
    5.2958   -3.1120    3.4130 H   0  0  0  0  0  0  0  0  0  0  0  0 
    7.2704   -1.0615    0.2017 H   0  0  0  0  0  0  0  0  0  0  0  0 
    3.7622   -1.1322    2.2446 H   0  0  0  0  0  0  0  0  0  0  0  0 
    5.8585   -0.7141    3.5751 H   0  0  0  0  0  0  0  0  0  0  0  0 
    7.5686    0.2429    2.3467 H   0  0  0  0  0  0  0  0  0  0  0  0 
  1 17  1  0  0  0  0 
  1 15  1  0  0  0  0 
  2 10  1  0  0  0  0 
  3 21  1  0  0  0  0 
  3 23  1  0  0  0  0 
  4 25  1  0  0  0  0 
  4  1  1  0  0  0  0 
  5  6  2  0  0  0  0 
  6 27  1  0  0  0  0 
  6  8  1  0  0  0  0 
  7  9  2  0  0  0  0 
  7  5  1  0  0  0  0 
  8 29  1  0  0  0  0 
  9 11  1  0  0  0  0 
 10 31  1  1  0  0  0 
 10 12  1  0  0  0  0 
 10 13  1  0  0  0  0 
 11 12  1  0  0  0  0 
 11  8  2  0  0  0  0 
 12 32  1  1  0  0  0 
 13  3  1  0  0  0  0 
 13  4  1  0  0  0  0 
 14 33  1  0  0  0  0 
 14 12  1  0  0  0  0 
 16  1  1  0  0  0  0 
 18  2  1  0  0  0  0 
 19  2  1  0  0  0  0 
 20  2  1  0  0  0  0 
 22  3  1  0  0  0  0 
 24  4  1  0  0  0  0 
 26  5  1  0  0  0  0 
 28  7  1  0  0  0  0 
 30  9  1  0  0  0  0 
M  END 
>  <HBA> 
2 
 
>  <HBD> 
1 
 
>  <TPSA> 
23.47 
 
>  <cid> 
10734 
 
>  <dipole> 
1.69 
 
>  <excitation_energy_1> 
4.466 
 
>  <excitation_energy_2> 
4.584 
 
>  <excitation_energy_3> 
4.796 
 
>  <excitation_energy_4> 
5.234 
 
>  <homo_energy> 
-5.312 
 
>  <homo_lumo_gap> 
5.233 
 
>  <logP> 
2.06 
 
>  <lumo_energy> 
-0.079 
 
>  <melting_point> 
25.08 
 
>  <molecular_refractivity> 
59.5 
 
>  <oscillator_strength_1> 
0.0614 
 
>  <oscillator_strength_2> 
0.0294 
 
>  <oscillator_strength_3> 
0.0267 
 
>  <oscillator_strength_4> 
0.0127 
 
>  <open_babel_can_smiles> 
CCN([C@H]([C@@H](c1ccccc1)O)C)C 
 
>  <mulliken_charges> 
33 
1   -0.447031 
2   -0.462665 
3   -0.297046 
4   -0.109956 
5   -0.128982 
6   -0.131072 
7   -0.130022 
8   -0.181564 
9   -0.185011 
10   0.035156 
11   0.112973 
12   0.064344 
13   -0.37693 
14   -0.629186 
15   0.138335 
16   0.154078 
17   0.148192 
18   0.149511 
19   0.165201 
20   0.150589 
21   0.140909 
22   0.156406 
23   0.125069 
24   0.130554 
25   0.107498 
26   0.128674 
27   0.129375 
28   0.129613 
29   0.123555 
30   0.139909 
31   0.133063 
32   0.12424 
33   0.392223 
 
>  <lowdin_charges> 
33 
1   -0.449251 
2   -0.453789 
3   -0.358196 
4   -0.197489 
5   -0.161065 
6   -0.155224 
7   -0.153482 
8   -0.168163 
9   -0.172585 
10   -0.064349 
11   -0.027566 
12   -0.016896 
13   -0.183991 
14   -0.452513 
15   0.150399 
16   0.154323 
17   0.1484 
18   0.157738 
19   0.158173 
20   0.154846 
21   0.145261 
22   0.15639 
23   0.125521 
24   0.138736 
25   0.11319 
26   0.15738 
27   0.157729 
28   0.157006 
29   0.153249 
30   0.163415 
31   0.145993 
32   0.132217 
33   0.344592 
 
$$$$ 
 
