PCCDB-ID:  7635 
public computational chemistry database (PCCDB) project, http://pccdb.org 
 
 32 31  0  0  1  0  0  0  0  0999 V2000 
    0.8277    0.5151    0.0235 C   0  0  0  0  0  0  0  0  0  0  0  0 
    4.6404   -4.8012   -2.0168 C   0  0  0  0  0  0  0  0  0  0  0  0 
    7.2468   -2.3741    3.1518 C   0  0  0  0  0  0  0  0  0  0  0  0 
    2.3370    0.4022   -0.2132 C   0  0  0  0  0  0  0  0  0  0  0  0 
    4.5092   -3.2729   -1.9975 C   0  0  0  0  0  0  0  0  0  0  0  0 
    2.8242   -1.0486   -0.3295 C   0  0  0  0  0  0  0  0  0  0  0  0 
    4.3387   -1.1611   -0.5504 C   0  0  0  0  0  0  0  0  0  0  0  0 
    6.3910   -2.6408   -0.4492 C   0  0  0  0  0  0  0  0  0  0  0  0 
    6.8129   -3.0395    1.8657 C   0  0  0  0  0  0  0  0  0  0  0  0 
    4.8708   -2.6064   -0.6510 C   0  0  2  0  0  0  0  0  0  0  0  0 
    6.5364   -4.2128    1.7428 O   0  0  0  0  0  0  0  0  0  0  0  0 
    6.7838   -2.1414    0.8516 O   0  0  0  0  0  0  0  0  0  0  0  0 
    0.5118    1.5615    0.1037 H   0  0  0  0  0  0  0  0  0  0  0  0 
    0.5327    0.0061    0.9495 H   0  0  0  0  0  0  0  0  0  0  0  0 
    0.2621    0.0587   -0.7983 H   0  0  0  0  0  0  0  0  0  0  0  0 
    4.3614   -5.2026   -2.9978 H   0  0  0  0  0  0  0  0  0  0  0  0 
    3.9839   -5.2606   -1.2686 H   0  0  0  0  0  0  0  0  0  0  0  0 
    5.6616   -5.1356   -1.8041 H   0  0  0  0  0  0  0  0  0  0  0  0 
    7.2276   -3.1033    3.9623 H   0  0  0  0  0  0  0  0  0  0  0  0 
    6.5840   -1.5352    3.3870 H   0  0  0  0  0  0  0  0  0  0  0  0 
    8.2584   -1.9692    3.0412 H   0  0  0  0  0  0  0  0  0  0  0  0 
    2.8754    0.8999    0.6059 H   0  0  0  0  0  0  0  0  0  0  0  0 
    2.6063    0.9489   -1.1283 H   0  0  0  0  0  0  0  0  0  0  0  0 
    3.4767   -3.0084   -2.2555 H   0  0  0  0  0  0  0  0  0  0  0  0 
    5.1342   -2.8351   -2.7909 H   0  0  0  0  0  0  0  0  0  0  0  0 
    2.2797   -1.5403   -1.1477 H   0  0  0  0  0  0  0  0  0  0  0  0 
    2.5524   -1.5954    0.5858 H   0  0  0  0  0  0  0  0  0  0  0  0 
    4.8504   -0.6554    0.2784 H   0  0  0  0  0  0  0  0  0  0  0  0 
    4.6192   -0.6127   -1.4633 H   0  0  0  0  0  0  0  0  0  0  0  0 
    6.8892   -1.9733   -1.1596 H   0  0  0  0  0  0  0  0  0  0  0  0 
    6.7854   -3.6520   -0.5642 H   0  0  0  0  0  0  0  0  0  0  0  0 
    4.4255   -3.2025    0.1584 H   0  0  0  0  0  0  0  0  0  0  0  0 
  1 13  1  0  0  0  0 
  1 14  1  0  0  0  0 
  2  5  1  0  0  0  0 
  2 18  1  0  0  0  0 
  2 17  1  0  0  0  0 
  3 20  1  0  0  0  0 
  3 19  1  0  0  0  0 
  4  1  1  0  0  0  0 
  4 22  1  0  0  0  0 
  5 10  1  0  0  0  0 
  6  4  1  0  0  0  0 
  6 27  1  0  0  0  0 
  7  6  1  0  0  0  0 
  7 28  1  0  0  0  0 
  8 12  1  0  0  0  0 
  9  3  1  0  0  0  0 
 10  7  1  0  0  0  0 
 10  8  1  0  0  0  0 
 10 32  1  1  0  0  0 
 11  9  2  0  0  0  0 
 12  9  1  0  0  0  0 
 15  1  1  0  0  0  0 
 16  2  1  0  0  0  0 
 21  3  1  0  0  0  0 
 23  4  1  0  0  0  0 
 24  5  1  0  0  0  0 
 25  5  1  0  0  0  0 
 26  6  1  0  0  0  0 
 29  7  1  0  0  0  0 
 30  8  1  0  0  0  0 
 31  8  1  0  0  0  0 
M  END 
>  <HBA> 
2 
 
>  <HBD> 
0 
 
>  <TPSA> 
26.3 
 
>  <cid> 
7635 
 
>  <dipole> 
1.69 
 
>  <excitation_energy_1> 
5.803 
 
>  <excitation_energy_2> 
6.988 
 
>  <excitation_energy_3> 
7.335 
 
>  <excitation_energy_4> 
7.379 
 
>  <homo_energy> 
-7.279 
 
>  <homo_lumo_gap> 
7.698 
 
>  <logP> 
2.766 
 
>  <lumo_energy> 
0.419 
 
>  <melting_point> 
-16.78 
 
>  <molecular_refractivity> 
51.47 
 
>  <oscillator_strength_1> 
0.0011 
 
>  <oscillator_strength_2> 
0.0291 
 
>  <oscillator_strength_3> 
0.0716 
 
>  <oscillator_strength_4> 
0.021 
 
>  <open_babel_can_smiles> 
CCCC[C@H](COC(=O)C)CC 
 
>  <mulliken_charges> 
32 
1   -0.441607 
2   -0.447804 
3   -0.523076 
4   -0.246858 
5   -0.270107 
6   -0.254417 
7   -0.266988 
8   -0.053976 
9   0.600855 
10   -0.093078 
11   -0.469102 
12   -0.457856 
13   0.141892 
14   0.141743 
15   0.141289 
16   0.1423 
17   0.151547 
18   0.151794 
19   0.181556 
20   0.179621 
21   0.181779 
22   0.130312 
23   0.130408 
24   0.141577 
25   0.12778 
26   0.13111 
27   0.129031 
28   0.142463 
29   0.122823 
30   0.143945 
31   0.168815 
32   0.142227 
 
>  <lowdin_charges> 
32 
1   -0.444662 
2   -0.44607 
3   -0.464667 
4   -0.272947 
5   -0.27518 
6   -0.277487 
7   -0.281589 
8   -0.136214 
9   0.196878 
10   -0.139198 
11   -0.266217 
12   -0.198288 
13   0.148231 
14   0.146678 
15   0.147129 
16   0.150028 
17   0.15286 
18   0.148877 
19   0.175581 
20   0.176914 
21   0.177195 
22   0.139753 
23   0.139155 
24   0.145416 
25   0.138914 
26   0.138546 
27   0.138587 
28   0.147557 
29   0.136954 
30   0.150545 
31   0.158219 
32   0.148504 
 
$$$$ 
 
