PCCDB-ID:  6378 
public computational chemistry database (PCCDB) project, http://pccdb.org 
 
 10 10  0  0  1  0  0  0  0  0999 V2000 
    1.0338    0.0569    0.1125 C   0  0  0  0  0  0  0  0  0  0  0  0 
    3.3421   -0.7665    1.0078 C   0  0  0  0  0  0  0  0  0  0  0  0 
    2.5404    0.0210    0.0599 C   0  0  2  0  0  0  0  0  0  0  0  0 
    3.2365    0.6569    1.1417 O   0  0  0  0  0  0  0  0  0  0  0  0 
    0.6037   -0.6705   -0.5865 H   0  0  0  0  0  0  0  0  0  0  0  0 
    0.6612    1.0505   -0.1622 H   0  0  0  0  0  0  0  0  0  0  0  0 
    0.6773   -0.1737    1.1215 H   0  0  0  0  0  0  0  0  0  0  0  0 
    4.3255   -1.1383    0.7175 H   0  0  0  0  0  0  0  0  0  0  0  0 
    2.8394   -1.3461    1.7834 H   0  0  0  0  0  0  0  0  0  0  0  0 
    2.9807    0.2233   -0.9197 H   0  0  0  0  0  0  0  0  0  0  0  0 
  1  7  1  0  0  0  0 
  2  4  1  0  0  0  0 
  2  9  1  0  0  0  0 
  3 10  1  6  0  0  0 
  3  1  1  0  0  0  0 
  3  2  1  0  0  0  0 
  3  4  1  0  0  0  0 
  5  1  1  0  0  0  0 
  6  1  1  0  0  0  0 
  8  2  1  0  0  0  0 
M  END 
>  <HBA> 
1 
 
>  <HBD> 
0 
 
>  <TPSA> 
12.53 
 
>  <cid> 
6378 
 
>  <dipole> 
1.97 
 
>  <excitation_energy_1> 
6.906 
 
>  <excitation_energy_2> 
7.242 
 
>  <excitation_energy_3> 
7.395 
 
>  <excitation_energy_4> 
7.418 
 
>  <homo_energy> 
-7.143 
 
>  <homo_lumo_gap> 
10.022 
 
>  <logP> 
0.405 
 
>  <lumo_energy> 
2.879 
 
>  <melting_point> 
-10.94 
 
>  <molecular_refractivity> 
15.51 
 
>  <oscillator_strength_1> 
0.0216 
 
>  <oscillator_strength_2> 
0.0073 
 
>  <oscillator_strength_3> 
0.0113 
 
>  <oscillator_strength_4> 
0.0316 
 
>  <open_babel_can_smiles> 
C[C@@H]1CO1 
 
>  <mulliken_charges> 
10 
1   -0.463699 
2   -0.109751 
3   0.111328 
4   -0.441762 
5   0.149818 
6   0.161519 
7   0.158125 
8   0.147803 
9   0.146393 
10   0.140227 
 
>  <lowdin_charges> 
10 
1   -0.447193 
2   -0.168909 
3   -0.019367 
4   -0.291542 
5   0.158502 
6   0.160226 
7   0.159755 
8   0.151645 
9   0.151473 
10   0.145412 
 
$$$$ 
 
