PCCDB-ID:  6551 
public computational chemistry database (PCCDB) project, http://pccdb.org 
 
 26 26  0  0  1  0  0  0  0  0999 V2000 
    2.7114    0.8857   -2.4068 C   0  0  0  0  0  0  0  0  0  0  0  0 
    4.9873   -0.9391    2.7965 C   0  0  0  0  0  0  0  0  0  0  0  0 
    2.4324   -0.4833   -1.7758 C   0  0  0  0  0  0  0  0  0  0  0  0 
    5.3420    0.1091    1.7323 C   0  0  0  0  0  0  0  0  0  0  0  0 
    3.1832   -0.7315   -0.4543 C   0  0  0  0  0  0  0  0  0  0  0  0 
    7.0697   -1.1360    0.2828 C   0  0  0  0  0  0  0  0  0  0  0  0 
    4.6813   -0.8486   -0.6314 C   0  0  2  0  0  0  0  0  0  0  0  0 
    5.6954   -0.4907    0.3813 C   0  0  1  0  0  0  0  0  0  0  0  0 
    8.0979   -0.1681    0.4427 O   0  0  0  0  0  0  0  0  0  0  0  0 
    5.4482    0.3669   -0.7665 O   0  0  0  0  0  0  0  0  0  0  0  0 
    2.1323    1.0160   -3.3283 H   0  0  0  0  0  0  0  0  0  0  0  0 
    3.7712    1.0091   -2.6493 H   0  0  0  0  0  0  0  0  0  0  0  0 
    2.4365    1.6971   -1.7220 H   0  0  0  0  0  0  0  0  0  0  0  0 
    4.7432   -0.4537    3.7476 H   0  0  0  0  0  0  0  0  0  0  0  0 
    5.8205   -1.6255    2.9846 H   0  0  0  0  0  0  0  0  0  0  0  0 
    4.1209   -1.5393    2.4952 H   0  0  0  0  0  0  0  0  0  0  0  0 
    2.6908   -1.2784   -2.4900 H   0  0  0  0  0  0  0  0  0  0  0  0 
    1.3556   -0.5862   -1.5869 H   0  0  0  0  0  0  0  0  0  0  0  0 
    6.2044    0.6999    2.0641 H   0  0  0  0  0  0  0  0  0  0  0  0 
    4.5127    0.8112    1.6028 H   0  0  0  0  0  0  0  0  0  0  0  0 
    2.8246   -1.6715   -0.0102 H   0  0  0  0  0  0  0  0  0  0  0  0 
    2.9507    0.0677    0.2581 H   0  0  0  0  0  0  0  0  0  0  0  0 
    7.1609   -1.6559   -0.6829 H   0  0  0  0  0  0  0  0  0  0  0  0 
    7.2186   -1.8742    1.0777 H   0  0  0  0  0  0  0  0  0  0  0  0 
    4.9727   -1.6147   -1.3574 H   0  0  0  0  0  0  0  0  0  0  0  0 
    7.9320    0.5091   -0.2348 H   0  0  0  0  0  0  0  0  0  0  0  0 
  1  3  1  0  0  0  0 
  1 13  1  0  0  0  0 
  2 15  1  0  0  0  0 
  2 14  1  0  0  0  0 
  3 18  1  0  0  0  0 
  3  5  1  0  0  0  0 
  4 19  1  0  0  0  0 
  4  2  1  0  0  0  0 
  5 21  1  0  0  0  0 
  5 22  1  0  0  0  0 
  6  9  1  0  0  0  0 
  6 24  1  0  0  0  0 
  7 25  1  6  0  0  0 
  7  5  1  0  0  0  0 
  7  8  1  0  0  0  0 
  8  6  1  6  0  0  0 
  8  4  1  0  0  0  0 
 10  7  1  0  0  0  0 
 10  8  1  0  0  0  0 
 11  1  1  0  0  0  0 
 12  1  1  0  0  0  0 
 16  2  1  0  0  0  0 
 17  3  1  0  0  0  0 
 20  4  1  0  0  0  0 
 23  6  1  0  0  0  0 
 26  9  1  0  0  0  0 
M  END 
>  <HBA> 
2 
 
>  <HBD> 
1 
 
>  <TPSA> 
32.76 
 
>  <cid> 
6551 
 
>  <dipole> 
2.16 
 
>  <excitation_energy_1> 
6.546 
 
>  <excitation_energy_2> 
6.659 
 
>  <excitation_energy_3> 
6.898 
 
>  <excitation_energy_4> 
7.037 
 
>  <homo_energy> 
-6.939 
 
>  <homo_lumo_gap> 
9.089 
 
>  <logP> 
1.326 
 
>  <lumo_energy> 
2.15 
 
>  <melting_point> 
15.38 
 
>  <molecular_refractivity> 
40.74 
 
>  <oscillator_strength_1> 
0.0045 
 
>  <oscillator_strength_2> 
0.002 
 
>  <oscillator_strength_3> 
0.0056 
 
>  <oscillator_strength_4> 
0.009 
 
>  <open_babel_can_smiles> 
CCC[C@H]1O[C@]1(CC)CO 
 
>  <mulliken_charges> 
26 
1   -0.440991 
2   -0.456456 
3   -0.257917 
4   -0.293452 
5   -0.278092 
6   -0.052658 
7   0.069658 
8   0.264808 
9   -0.616327 
10   -0.49879 
11   0.138674 
12   0.168426 
13   0.14222 
14   0.151646 
15   0.151438 
16   0.146962 
17   0.131828 
18   0.134583 
19   0.160347 
20   0.147709 
21   0.138721 
22   0.145534 
23   0.127062 
24   0.146746 
25   0.127462 
26   0.400858 
 
>  <lowdin_charges> 
26 
1   -0.446894 
2   -0.446497 
3   -0.269946 
4   -0.28195 
5   -0.283367 
6   -0.139178 
7   -0.023418 
8   0.079162 
9   -0.462935 
10   -0.309743 
11   0.147975 
12   0.157732 
13   0.148467 
14   0.155271 
15   0.150753 
16   0.148639 
17   0.139999 
18   0.141489 
19   0.159906 
20   0.153761 
21   0.150952 
22   0.152812 
23   0.134405 
24   0.15096 
25   0.143086 
26   0.348559 
 
$$$$ 
 
