PCCDB-ID:  70971 
public computational chemistry database (PCCDB) project, http://pccdb.org 
 
 20 20  0  0  0  0  0  0  0  0999 V2000 
    3.6156   -1.1325   -2.4538 C   0  0  0  0  0  0  0  0  0  0  0  0 
    1.4581    3.8161   -3.4245 C   0  0  0  0  0  0  0  0  0  0  0  0 
    2.2206    4.1715   -2.3093 C   0  0  0  0  0  0  0  0  0  0  0  0 
    1.2292    2.4672   -3.7021 C   0  0  0  0  0  0  0  0  0  0  0  0 
    2.7551    3.1839   -1.4872 C   0  0  0  0  0  0  0  0  0  0  0  0 
    1.7724    1.4769   -2.8856 C   0  0  0  0  0  0  0  0  0  0  0  0 
    3.1586    0.8348   -0.8587 C   0  0  0  0  0  0  0  0  0  0  0  0 
    4.1143   -1.1785   -0.0135 C   0  0  0  0  0  0  0  0  0  0  0  0 
    3.5881   -0.4250   -1.1167 C   0  0  0  0  0  0  0  0  0  0  0  0 
    2.5617    1.8172   -1.7701 C   0  0  0  0  0  0  0  0  0  0  0  0 
    4.5433   -1.8190    0.8596 N   0  0  0  0  0  0  0  0  0  0  0  0 
    3.6185   -0.4166   -3.2789 H   0  0  0  0  0  0  0  0  0  0  0  0 
    2.7496   -1.7959   -2.5761 H   0  0  0  0  0  0  0  0  0  0  0  0 
    4.5111   -1.7569   -2.5313 H   0  0  0  0  0  0  0  0  0  0  0  0 
    1.0332    4.5851   -4.0636 H   0  0  0  0  0  0  0  0  0  0  0  0 
    2.3945    5.2187   -2.0778 H   0  0  0  0  0  0  0  0  0  0  0  0 
    0.6153    2.1830   -4.5524 H   0  0  0  0  0  0  0  0  0  0  0  0 
    3.3433    3.4655   -0.6172 H   0  0  0  0  0  0  0  0  0  0  0  0 
    1.5487    0.4366   -3.0936 H   0  0  0  0  0  0  0  0  0  0  0  0 
    3.2985    1.1916    0.1603 H   0  0  0  0  0  0  0  0  0  0  0  0 
  1  9  1  0  0  0  0 
  2  3  1  0  0  0  0 
  3 16  1  0  0  0  0 
  3  5  2  0  0  0  0 
  4  2  2  0  0  0  0 
  4  6  1  0  0  0  0 
  5 18  1  0  0  0  0 
  6 10  2  0  0  0  0 
  7 20  1  0  0  0  0 
  8 11  3  0  0  0  0 
  9  7  2  0  0  0  0 
  9  8  1  0  0  0  0 
 10  5  1  0  0  0  0 
 10  7  1  0  0  0  0 
 12  1  1  0  0  0  0 
 13  1  1  0  0  0  0 
 14  1  1  0  0  0  0 
 15  2  1  0  0  0  0 
 17  4  1  0  0  0  0 
 19  6  1  0  0  0  0 
M  END 
>  <HBA> 
1 
 
>  <HBD> 
0 
 
>  <TPSA> 
23.79 
 
>  <cid> 
70971 
 
>  <dipole> 
4.96 
 
>  <excitation_energy_1> 
4.542 
 
>  <excitation_energy_2> 
4.653 
 
>  <excitation_energy_3> 
5.484 
 
>  <excitation_energy_4> 
5.641 
 
>  <homo_energy> 
-6.495 
 
>  <homo_lumo_gap> 
4.765 
 
>  <logP> 
2.613 
 
>  <lumo_energy> 
-1.731 
 
>  <melting_point> 
62.83 
 
>  <molecular_refractivity> 
45.9 
 
>  <oscillator_strength_1> 
0.6622 
 
>  <oscillator_strength_2> 
0.0125 
 
>  <oscillator_strength_3> 
0.0734 
 
>  <oscillator_strength_4> 
0.0106 
 
>  <open_babel_can_smiles> 
N#C/C(=C/c1ccccc1)/C 
 
>  <mulliken_charges> 
20 
1   -0.516573 
2   -0.124078 
3   -0.129862 
4   -0.132699 
5   -0.179572 
6   -0.181171 
7   -0.21397 
8   0.265399 
9   0.136455 
10   0.159859 
11   -0.481029 
12   0.175524 
13   0.177786 
14   0.180017 
15   0.138898 
16   0.139702 
17   0.138734 
18   0.139589 
19   0.144331 
20   0.162658 
 
>  <lowdin_charges> 
20 
1   -0.43881 
2   -0.148723 
3   -0.150533 
4   -0.152506 
5   -0.149796 
6   -0.154986 
7   -0.12695 
8   -0.016326 
9   -0.022586 
10   -0.009141 
11   -0.128873 
12   0.170376 
13   0.169032 
14   0.172693 
15   0.163714 
16   0.16145 
17   0.162494 
18   0.162286 
19   0.163697 
20   0.173488 
 
$$$$ 
 
