PCCDB-ID:  10841 
public computational chemistry database (PCCDB) project, http://pccdb.org 
 
 28 29  0  0  0  0  0  0  0  0999 V2000 
    1.3765   -0.0640   -1.4381 C   0  0  0  0  0  0  0  0  0  0  0  0 
    0.8376   -1.5095   -3.2791 C   0  0  0  0  0  0  0  0  0  0  0  0 
   -2.6121   -5.3771   -0.9987 C   0  0  0  0  0  0  0  0  0  0  0  0 
   -4.5660   -4.2102   -0.2316 C   0  0  0  0  0  0  0  0  0  0  0  0 
    0.2179   -0.4723   -0.7836 C   0  0  0  0  0  0  0  0  0  0  0  0 
   -0.3346   -1.8991   -2.6380 C   0  0  0  0  0  0  0  0  0  0  0  0 
   -1.9047   -4.1778   -1.0414 C   0  0  0  0  0  0  0  0  0  0  0  0 
   -3.8695   -3.0083   -0.2985 C   0  0  0  0  0  0  0  0  0  0  0  0 
    1.7157   -0.5832   -2.6960 C   0  0  0  0  0  0  0  0  0  0  0  0 
   -3.9533   -5.4203   -0.5919 C   0  0  0  0  0  0  0  0  0  0  0  0 
   -0.6638   -1.3956   -1.3680 C   0  0  0  0  0  0  0  0  0  0  0  0 
   -2.5241   -2.9654   -0.7003 C   0  0  0  0  0  0  0  0  0  0  0  0 
    2.9275   -0.2375   -3.3234 N   0  0  0  0  0  0  0  0  0  0  0  0 
   -4.6421   -6.6432   -0.4826 N   0  0  0  0  0  0  0  0  0  0  0  0 
   -1.8603   -1.7249   -0.7136 N   0  0  0  0  0  0  0  0  0  0  0  0 
    2.0372    0.6540   -0.9566 H   0  0  0  0  0  0  0  0  0  0  0  0 
    1.0695   -1.9232   -4.2586 H   0  0  0  0  0  0  0  0  0  0  0  0 
   -2.1041   -6.3014   -1.2670 H   0  0  0  0  0  0  0  0  0  0  0  0 
   -5.6040   -4.2095    0.0948 H   0  0  0  0  0  0  0  0  0  0  0  0 
   -0.0102   -0.0651    0.1995 H   0  0  0  0  0  0  0  0  0  0  0  0 
   -1.0107   -2.5873   -3.1344 H   0  0  0  0  0  0  0  0  0  0  0  0 
   -0.8597   -4.1874   -1.3318 H   0  0  0  0  0  0  0  0  0  0  0  0 
   -4.3762   -2.0812   -0.0390 H   0  0  0  0  0  0  0  0  0  0  0  0 
    3.2771    0.6762   -3.0577 H   0  0  0  0  0  0  0  0  0  0  0  0 
    2.8993   -0.3180   -4.3337 H   0  0  0  0  0  0  0  0  0  0  0  0 
   -4.2907   -7.3642   -1.1024 H   0  0  0  0  0  0  0  0  0  0  0  0 
   -5.6467   -6.5553   -0.5870 H   0  0  0  0  0  0  0  0  0  0  0  0 
   -2.1406   -1.0828    0.0141 H   0  0  0  0  0  0  0  0  0  0  0  0 
  1 16  1  0  0  0  0 
  1  5  2  0  0  0  0 
  2  9  2  0  0  0  0 
  2  6  1  0  0  0  0 
  3 10  1  0  0  0  0 
  4 19  1  0  0  0  0 
  5 20  1  0  0  0  0 
  6 11  2  0  0  0  0 
  7  3  2  0  0  0  0 
  7 12  1  0  0  0  0 
  8  4  1  0  0  0  0 
  8 23  1  0  0  0  0 
  9  1  1  0  0  0  0 
 10 14  1  0  0  0  0 
 10  4  2  0  0  0  0 
 11  5  1  0  0  0  0 
 11 15  1  0  0  0  0 
 12  8  2  0  0  0  0 
 13 24  1  0  0  0  0 
 13  9  1  0  0  0  0 
 15 12  1  0  0  0  0 
 15 28  1  0  0  0  0 
 17  2  1  0  0  0  0 
 18  3  1  0  0  0  0 
 21  6  1  0  0  0  0 
 22  7  1  0  0  0  0 
 25 13  1  0  0  0  0 
 26 14  1  0  0  0  0 
 27 14  1  0  0  0  0 
M  END 
>  <HBA> 
2 
 
>  <HBD> 
3 
 
>  <TPSA> 
64.07 
 
>  <cid> 
10841 
 
>  <dipole> 
1.91 
 
>  <excitation_energy_1> 
3.616 
 
>  <excitation_energy_2> 
3.792 
 
>  <excitation_energy_3> 
3.863 
 
>  <excitation_energy_4> 
3.955 
 
>  <homo_energy> 
-4.261 
 
>  <homo_lumo_gap> 
4.433 
 
>  <logP> 
3.83 
 
>  <lumo_energy> 
0.171 
 
>  <melting_point> 
177.76 
 
>  <molecular_refractivity> 
64.79 
 
>  <oscillator_strength_1> 
0.0112 
 
>  <oscillator_strength_2> 
0.0315 
 
>  <oscillator_strength_3> 
0.1586 
 
>  <oscillator_strength_4> 
0.0944 
 
>  <open_babel_can_smiles> 
Nc1ccc(cc1)Nc1ccc(cc1)N 
 
>  <mulliken_charges> 
28 
1   -0.17633 
2   -0.182425 
3   -0.18563 
4   -0.176192 
5   -0.200131 
6   -0.17908 
7   -0.180199 
8   -0.193095 
9   0.297134 
10   0.298097 
11   0.358531 
12   0.342455 
13   -0.786441 
14   -0.786946 
15   -0.79405 
16   0.114793 
17   0.115011 
18   0.115447 
19   0.114463 
20   0.115546 
21   0.139477 
22   0.142091 
23   0.116789 
24   0.313376 
25   0.313569 
26   0.313835 
27   0.313143 
28   0.316761 
 
>  <lowdin_charges> 
28 
1   -0.192039 
2   -0.190244 
3   -0.191526 
4   -0.188228 
5   -0.184626 
6   -0.181154 
7   -0.181305 
8   -0.182943 
9   0.040265 
10   0.039382 
11   0.036138 
12   0.034519 
13   -0.494304 
14   -0.496506 
15   -0.269121 
16   0.153186 
17   0.151368 
18   0.152278 
19   0.150484 
20   0.150966 
21   0.165528 
22   0.164388 
23   0.152844 
24   0.26994 
25   0.26872 
26   0.27206 
27   0.268823 
28   0.281107 
 
$$$$ 
 
