PCCDB-ID:  68377 
public computational chemistry database (PCCDB) project, http://pccdb.org 
 
 31 31  0  0  0  0  0  0  0  0999 V2000 
    5.3900    0.9286   -3.1341 C   0  0  0  0  0  0  0  0  0  0  0  0 
    1.5910    3.4005    2.2689 C   0  0  0  0  0  0  0  0  0  0  0  0 
    5.5418    0.9519   -1.6090 C   0  0  0  0  0  0  0  0  0  0  0  0 
    6.6703    3.0630    2.6389 C   0  0  0  0  0  0  0  0  0  0  0  0 
    6.0710    2.0410    1.9113 C   0  0  0  0  0  0  0  0  0  0  0  0 
    4.2174    1.2527   -0.9135 C   0  0  0  0  0  0  0  0  0  0  0  0 
    4.9318    4.5856    1.8619 C   0  0  0  0  0  0  0  0  0  0  0  0 
    2.0038    3.7456    0.8566 C   0  0  0  0  0  0  0  0  0  0  0  0 
    6.0892    4.3284    2.5956 C   0  0  0  0  0  0  0  0  0  0  0  0 
    4.3143    3.5553    1.1480 C   0  0  0  0  0  0  0  0  0  0  0  0 
    4.9134    2.2681    1.1577 C   0  0  0  0  0  0  0  0  0  0  0  0 
    3.1752    3.8104    0.3707 N   0  0  0  0  0  0  0  0  0  0  0  0 
    6.7050    5.4242    3.3497 N   0  0  0  0  0  0  0  0  0  0  0  0 
    0.9837    4.0147   -0.0006 O   0  0  0  0  0  0  0  0  0  0  0  0 
    7.7259    5.1755    3.9936 O   0  0  0  0  0  0  0  0  0  0  0  0 
    6.1665    6.5319    3.3010 O   0  0  0  0  0  0  0  0  0  0  0  0 
    4.3404    1.1997    0.5287 O   0  0  0  0  0  0  0  0  0  0  0  0 
    6.3487    0.7188   -3.6199 H   0  0  0  0  0  0  0  0  0  0  0  0 
    5.0277    1.8913   -3.5140 H   0  0  0  0  0  0  0  0  0  0  0  0 
    4.6798    0.1560   -3.4532 H   0  0  0  0  0  0  0  0  0  0  0  0 
    2.4585    3.1953    2.8966 H   0  0  0  0  0  0  0  0  0  0  0  0 
    0.9444    2.5144    2.2656 H   0  0  0  0  0  0  0  0  0  0  0  0 
    1.0264    4.2287    2.7147 H   0  0  0  0  0  0  0  0  0  0  0  0 
    6.2810    1.7101   -1.3202 H   0  0  0  0  0  0  0  0  0  0  0  0 
    5.9200   -0.0134   -1.2493 H   0  0  0  0  0  0  0  0  0  0  0  0 
    7.5674    2.8998    3.2223 H   0  0  0  0  0  0  0  0  0  0  0  0 
    6.4862    1.0385    1.9125 H   0  0  0  0  0  0  0  0  0  0  0  0 
    3.4734    0.4848   -1.1485 H   0  0  0  0  0  0  0  0  0  0  0  0 
    3.8157    2.2244   -1.2176 H   0  0  0  0  0  0  0  0  0  0  0  0 
    4.5106    5.5831    1.8524 H   0  0  0  0  0  0  0  0  0  0  0  0 
    0.1393    3.9477    0.4713 H   0  0  0  0  0  0  0  0  0  0  0  0 
  1  3  1  0  0  0  0 
  2 23  1  0  0  0  0 
  2 21  1  0  0  0  0 
  3 24  1  0  0  0  0 
  3 25  1  0  0  0  0 
  3  6  1  0  0  0  0 
  4 26  1  0  0  0  0 
  5 27  1  0  0  0  0 
  5  4  2  0  0  0  0 
  6 17  1  0  0  0  0 
  7  9  2  0  0  0  0 
  8  2  1  0  0  0  0 
  9  4  1  0  0  0  0 
  9 13  1  0  0  0  0 
 10 11  2  0  0  0  0 
 10  7  1  0  0  0  0 
 11  5  1  0  0  0  0 
 12  8  2  0  0  0  0 
 12 10  1  0  0  0  0 
 13 15  2  0  0  0  0 
 14 31  1  0  0  0  0 
 14  8  1  0  0  0  0 
 16 13  2  0  0  0  0 
 17 11  1  0  0  0  0 
 18  1  1  0  0  0  0 
 19  1  1  0  0  0  0 
 20  1  1  0  0  0  0 
 22  2  1  0  0  0  0 
 28  6  1  0  0  0  0 
 29  6  1  0  0  0  0 
 30  7  1  0  0  0  0 
M  END 
>  <HBA> 
3 
 
>  <HBD> 
1 
 
>  <TPSA> 
84.15 
 
>  <cid> 
68377 
 
>  <dipole> 
6.32 
 
>  <excitation_energy_1> 
3.489 
 
>  <excitation_energy_2> 
3.739 
 
>  <excitation_energy_3> 
4.14 
 
>  <excitation_energy_4> 
4.28 
 
>  <homo_energy> 
-6.286 
 
>  <homo_lumo_gap> 
4.158 
 
>  <logP> 
2.938 
 
>  <lumo_energy> 
-2.128 
 
>  <melting_point> 
103.17 
 
>  <molecular_refractivity> 
65.68 
 
>  <oscillator_strength_1> 
0.0751 
 
>  <oscillator_strength_2> 
0.0006 
 
>  <oscillator_strength_3> 
0.1675 
 
>  <oscillator_strength_4> 
0.001 
 
>  <open_babel_can_smiles> 
CCCOc1ccc(cc1/N=C(/O)\C)N(=O)=O 
 
>  <mulliken_charges> 
31 
1   -0.45312 
2   -0.551713 
3   -0.269016 
4   -0.161623 
5   -0.192744 
6   -0.053719 
7   -0.205888 
8   0.501255 
9   0.280066 
10   0.190541 
11   0.365957 
12   -0.469539 
13   0.371486 
14   -0.566242 
15   -0.401395 
16   -0.402245 
17   -0.540845 
18   0.153062 
19   0.153397 
20   0.145406 
21   0.200214 
22   0.183333 
23   0.181566 
24   0.148252 
25   0.143915 
26   0.178241 
27   0.151789 
28   0.144584 
29   0.180905 
30   0.179578 
31   0.414539 
 
>  <lowdin_charges> 
31 
1   -0.445104 
2   -0.481277 
3   -0.287867 
4   -0.14744 
5   -0.170798 
6   -0.130588 
7   -0.161857 
8   0.15725 
9   -0.008159 
10   0.024534 
11   0.092017 
12   -0.175345 
13   0.308224 
14   -0.350873 
15   -0.253942 
16   -0.255141 
17   -0.221801 
18   0.156274 
19   0.152224 
20   0.149364 
21   0.186073 
22   0.175471 
23   0.174981 
24   0.149982 
25   0.146449 
26   0.186758 
27   0.172777 
28   0.149445 
29   0.158733 
30   0.188187 
31   0.361445 
 
$$$$ 
 
