PCCDB-ID:  11208 
public computational chemistry database (PCCDB) project, http://pccdb.org 
 
 13 13  0  0  0  0  0  0  0  0999 V2000 
    0.9511   -0.0034    0.2808 C   0  0  0  0  0  0  0  0  0  0  0  0 
    2.8367    0.0322   -1.4662 C   0  0  0  0  0  0  0  0  0  0  0  0 
    3.3028   -0.8689    0.9101 C   0  0  0  0  0  0  0  0  0  0  0  0 
    2.4319   -0.1238   -0.0149 C   0  0  0  0  0  0  0  0  0  0  0  0 
    3.2864    0.5651    0.9219 O   0  0  0  0  0  0  0  0  0  0  0  0 
    0.3809   -0.7764   -0.2484 H   0  0  0  0  0  0  0  0  0  0  0  0 
    0.5742    0.9738   -0.0447 H   0  0  0  0  0  0  0  0  0  0  0  0 
    0.7602   -0.1008    1.3535 H   0  0  0  0  0  0  0  0  0  0  0  0 
    2.3718   -0.7420   -2.0885 H   0  0  0  0  0  0  0  0  0  0  0  0 
    3.9230   -0.0365   -1.5757 H   0  0  0  0  0  0  0  0  0  0  0  0 
    2.5166    1.0085   -1.8497 H   0  0  0  0  0  0  0  0  0  0  0  0 
    4.2242   -1.3233    0.5425 H   0  0  0  0  0  0  0  0  0  0  0  0 
    2.8754   -1.3490    1.7917 H   0  0  0  0  0  0  0  0  0  0  0  0 
  1  8  1  0  0  0  0 
  2  4  1  0  0  0  0 
  3  5  1  0  0  0  0 
  3 13  1  0  0  0  0 
  4  1  1  0  0  0  0 
  4  3  1  0  0  0  0 
  4  5  1  0  0  0  0 
  6  1  1  0  0  0  0 
  7  1  1  0  0  0  0 
  9  2  1  0  0  0  0 
 10  2  1  0  0  0  0 
 11  2  1  0  0  0  0 
 12  3  1  0  0  0  0 
M  END 
>  <HBA> 
1 
 
>  <HBD> 
0 
 
>  <TPSA> 
12.53 
 
>  <cid> 
11208 
 
>  <dipole> 
1.97 
 
>  <excitation_energy_1> 
6.771 
 
>  <excitation_energy_2> 
7.13 
 
>  <excitation_energy_3> 
7.387 
 
>  <excitation_energy_4> 
7.448 
 
>  <homo_energy> 
-7.042 
 
>  <homo_lumo_gap> 
9.549 
 
>  <logP> 
0.795 
 
>  <lumo_energy> 
2.506 
 
>  <melting_point> 
-0.58 
 
>  <molecular_refractivity> 
20.35 
 
>  <oscillator_strength_1> 
0.0005 
 
>  <oscillator_strength_2> 
0.0174 
 
>  <oscillator_strength_3> 
0.0097 
 
>  <oscillator_strength_4> 
0.0116 
 
>  <open_babel_can_smiles> 
CC1(C)OC1 
 
>  <mulliken_charges> 
13 
1   -0.470677 
2   -0.470545 
3   -0.127884 
4   0.326216 
5   -0.463209 
6   0.147434 
7   0.155414 
8   0.157663 
9   0.147436 
10   0.157676 
11   0.155297 
12   0.142578 
13   0.142602 
 
>  <lowdin_charges> 
13 
1   -0.444778 
2   -0.444365 
3   -0.171601 
4   0.109297 
5   -0.294944 
6   0.156406 
7   0.157325 
8   0.159567 
9   0.156365 
10   0.159316 
11   0.157282 
12   0.149888 
13   0.15024 
 
$$$$ 
 
