PCCDB-ID:  21756 
public computational chemistry database (PCCDB) project, http://pccdb.org 
 
 28 30  0  0  0  0  0  0  0  0999 V2000 
    2.4933    1.6696    0.4526 C   0  0  0  0  0  0  0  0  0  0  0  0 
    1.8781    2.9379    0.4075 C   0  0  0  0  0  0  0  0  0  0  0  0 
    0.5308   -2.7113   -3.5229 C   0  0  0  0  0  0  0  0  0  0  0  0 
    1.6829   -3.4458   -3.2357 C   0  0  0  0  0  0  0  0  0  0  0  0 
   -0.2069   -2.1830   -2.4688 C   0  0  0  0  0  0  0  0  0  0  0  0 
    1.7460    0.5042    0.3375 C   0  0  0  0  0  0  0  0  0  0  0  0 
    0.5033    3.0676    0.2466 C   0  0  0  0  0  0  0  0  0  0  0  0 
    2.0357   -3.6110   -1.8984 C   0  0  0  0  0  0  0  0  0  0  0  0 
   -0.5594   -1.8648    0.0348 C   0  0  0  0  0  0  0  0  0  0  0  0 
   -1.8725    0.3474   -0.0800 C   0  0  0  0  0  0  0  0  0  0  0  0 
   -0.7074   -0.3676    0.0394 C   0  0  0  0  0  0  0  0  0  0  0  0 
    0.2223   -2.4088   -1.1531 C   0  0  0  0  0  0  0  0  0  0  0  0 
    0.3529    0.6031    0.1756 C   0  0  0  0  0  0  0  0  0  0  0  0 
   -0.2461    1.8917    0.1331 C   0  0  0  0  0  0  0  0  0  0  0  0 
    1.3310   -3.1114   -0.8733 N   0  0  0  0  0  0  0  0  0  0  0  0 
   -1.6047    1.7042   -0.0265 N   0  0  0  0  0  0  0  0  0  0  0  0 
    3.5708    1.6066    0.5784 H   0  0  0  0  0  0  0  0  0  0  0  0 
    2.4895    3.8316    0.4994 H   0  0  0  0  0  0  0  0  0  0  0  0 
    0.2160   -2.5519   -4.5511 H   0  0  0  0  0  0  0  0  0  0  0  0 
    2.2931   -3.8752   -4.0247 H   0  0  0  0  0  0  0  0  0  0  0  0 
   -1.1008   -1.5934   -2.6507 H   0  0  0  0  0  0  0  0  0  0  0  0 
    2.2258   -0.4703    0.3671 H   0  0  0  0  0  0  0  0  0  0  0  0 
    0.0305    4.0460    0.2126 H   0  0  0  0  0  0  0  0  0  0  0  0 
    2.9293   -4.1726   -1.6293 H   0  0  0  0  0  0  0  0  0  0  0  0 
   -1.5581   -2.3225    0.0481 H   0  0  0  0  0  0  0  0  0  0  0  0 
   -0.0411   -2.2064    0.9378 H   0  0  0  0  0  0  0  0  0  0  0  0 
   -2.8889   -0.0068   -0.1903 H   0  0  0  0  0  0  0  0  0  0  0  0 
   -2.2952    2.4366   -0.0725 H   0  0  0  0  0  0  0  0  0  0  0  0 
  1 17  1  0  0  0  0 
  2  1  1  0  0  0  0 
  2 18  1  0  0  0  0 
  3  4  2  0  0  0  0 
  3  5  1  0  0  0  0 
  4  8  1  0  0  0  0 
  5 12  2  0  0  0  0 
  6 22  1  0  0  0  0 
  6  1  2  0  0  0  0 
  7  2  2  0  0  0  0 
  8 24  1  0  0  0  0 
  8 15  2  0  0  0  0 
  9 11  1  0  0  0  0 
  9 25  1  0  0  0  0 
  9 26  1  0  0  0  0 
 10 16  1  0  0  0  0 
 10 11  2  0  0  0  0 
 11 13  1  0  0  0  0 
 12 15  1  0  0  0  0 
 12  9  1  0  0  0  0 
 13  6  1  0  0  0  0 
 14 13  2  0  0  0  0 
 14  7  1  0  0  0  0 
 16 14  1  0  0  0  0 
 19  3  1  0  0  0  0 
 20  4  1  0  0  0  0 
 21  5  1  0  0  0  0 
 23  7  1  0  0  0  0 
 27 10  1  0  0  0  0 
 28 16  1  0  0  0  0 
M  END 
>  <HBA> 
1 
 
>  <HBD> 
1 
 
>  <TPSA> 
28.68 
 
>  <cid> 
21756 
 
>  <dipole> 
3.35 
 
>  <excitation_energy_1> 
4.158 
 
>  <excitation_energy_2> 
4.375 
 
>  <excitation_energy_3> 
4.618 
 
>  <excitation_energy_4> 
4.707 
 
>  <homo_energy> 
-5.314 
 
>  <homo_lumo_gap> 
4.868 
 
>  <logP> 
3.154 
 
>  <lumo_energy> 
-0.446 
 
>  <melting_point> 
145.66 
 
>  <molecular_refractivity> 
65.55 
 
>  <oscillator_strength_1> 
0.0234 
 
>  <oscillator_strength_2> 
0.0052 
 
>  <oscillator_strength_3> 
0.0515 
 
>  <oscillator_strength_4> 
0.0031 
 
>  <open_babel_can_smiles> 
c1ccc(nc1)Cc1c[nH]c2c1cccc2 
 
>  <mulliken_charges> 
28 
1   -0.143203 
2   -0.14944 
3   -0.103759 
4   -0.140829 
5   -0.152453 
6   -0.208954 
7   -0.165117 
8   0.035687 
9   -0.419935 
10   -0.01162 
11   0.078941 
12   0.316944 
13   0.074863 
14   0.316888 
15   -0.47533 
16   -0.693111 
17   0.119938 
18   0.120754 
19   0.139782 
20   0.134725 
21   0.133456 
22   0.14604 
23   0.118117 
24   0.138147 
25   0.148835 
26   0.171905 
27   0.143783 
28   0.324948 
 
>  <lowdin_charges> 
28 
1   -0.174076 
2   -0.164394 
3   -0.126496 
4   -0.183147 
5   -0.174821 
6   -0.159751 
7   -0.19047 
8   -0.088552 
9   -0.272386 
10   -0.140333 
11   -0.058719 
12   0.055302 
13   -0.034498 
14   0.034162 
15   -0.163313 
16   -0.207409 
17   0.152346 
18   0.155232 
19   0.160576 
20   0.164032 
21   0.162951 
22   0.165308 
23   0.153658 
24   0.155044 
25   0.158068 
26   0.169266 
27   0.161197 
28   0.291223 
 
$$$$ 
 
