PCCDB-ID:  19516 
public computational chemistry database (PCCDB) project, http://pccdb.org 
 
 28 28  0  0  1  0  0  0  0  0999 V2000 
    0.1705    0.0296   -2.8309 C   0  0  0  0  0  0  0  0  0  0  0  0 
    0.9651   -1.0724   -0.1531 C   0  0  0  0  0  0  0  0  0  0  0  0 
    2.6532    4.3152   -4.8268 C   0  0  0  0  0  0  0  0  0  0  0  0 
    1.5605    4.3825   -3.9621 C   0  0  0  0  0  0  0  0  0  0  0  0 
    3.5761    3.2759   -4.6883 C   0  0  0  0  0  0  0  0  0  0  0  0 
    1.3925    3.4161   -2.9682 C   0  0  0  0  0  0  0  0  0  0  0  0 
    3.4031    2.3140   -3.6935 C   0  0  0  0  0  0  0  0  0  0  0  0 
    2.1247    1.3056   -1.7523 C   0  0  0  0  0  0  0  0  0  0  0  0 
    1.6117   -0.0457   -2.3037 C   0  0  1  0  0  0  0  0  0  0  0  0 
    2.3071    2.3656   -2.8192 C   0  0  0  0  0  0  0  0  0  0  0  0 
    1.6506   -2.4049   -1.9702 N   0  0  0  0  0  0  0  0  0  0  0  0 
    1.8698   -1.1068   -1.2989 N   0  0  0  0  0  0  0  0  0  0  0  0 
    0.1142    0.7013   -3.6935 H   0  0  0  0  0  0  0  0  0  0  0  0 
   -0.5198    0.4113   -2.0689 H   0  0  0  0  0  0  0  0  0  0  0  0 
   -0.1683   -0.9638   -3.1377 H   0  0  0  0  0  0  0  0  0  0  0  0 
    1.0206   -0.0911    0.3249 H   0  0  0  0  0  0  0  0  0  0  0  0 
    1.2995   -1.8142    0.5834 H   0  0  0  0  0  0  0  0  0  0  0  0 
   -0.0839   -1.2936   -0.4086 H   0  0  0  0  0  0  0  0  0  0  0  0 
    2.7886    5.0681   -5.5987 H   0  0  0  0  0  0  0  0  0  0  0  0 
    0.8382    5.1893   -4.0575 H   0  0  0  0  0  0  0  0  0  0  0  0 
    4.4356    3.2187   -5.3514 H   0  0  0  0  0  0  0  0  0  0  0  0 
    0.5393    3.4786   -2.2963 H   0  0  0  0  0  0  0  0  0  0  0  0 
    4.1333    1.5142   -3.5864 H   0  0  0  0  0  0  0  0  0  0  0  0 
    3.0799    1.1110   -1.2496 H   0  0  0  0  0  0  0  0  0  0  0  0 
    1.4308    1.6802   -0.9895 H   0  0  0  0  0  0  0  0  0  0  0  0 
    2.2643   -0.3067   -3.1493 H   0  0  0  0  0  0  0  0  0  0  0  0 
    1.8422   -3.0953   -1.2388 H   0  0  0  0  0  0  0  0  0  0  0  0 
    2.4585   -2.4959   -2.5935 H   0  0  0  0  0  0  0  0  0  0  0  0 
  1  9  1  0  0  0  0 
  1 14  1  0  0  0  0 
  2 16  1  0  0  0  0 
  2 17  1  0  0  0  0 
  3  5  2  0  0  0  0 
  3  4  1  0  0  0  0 
  4  6  2  0  0  0  0 
  5  7  1  0  0  0  0 
  6 10  1  0  0  0  0 
  6 22  1  0  0  0  0 
  7 23  1  0  0  0  0 
  7 10  2  0  0  0  0 
  8 24  1  0  0  0  0 
  8 25  1  0  0  0  0 
  9 26  1  6  0  0  0 
  9  8  1  0  0  0  0 
  9 12  1  0  0  0  0 
 10  8  1  0  0  0  0 
 11 12  1  0  0  0  0 
 11 27  1  0  0  0  0 
 12  2  1  0  0  0  0 
 13  1  1  0  0  0  0 
 15  1  1  0  0  0  0 
 18  2  1  0  0  0  0 
 19  3  1  0  0  0  0 
 20  4  1  0  0  0  0 
 21  5  1  0  0  0  0 
 28 11  1  0  0  0  0 
M  END 
>  <HBA> 
2 
 
>  <HBD> 
1 
 
>  <TPSA> 
29.26 
 
>  <cid> 
19516 
 
>  <dipole> 
0.71 
 
>  <excitation_energy_1> 
4.414 
 
>  <excitation_energy_2> 
4.531 
 
>  <excitation_energy_3> 
4.596 
 
>  <excitation_energy_4> 
5.013 
 
>  <homo_energy> 
-5.053 
 
>  <homo_lumo_gap> 
5.116 
 
>  <logP> 
2.123 
 
>  <lumo_energy> 
0.063 
 
>  <melting_point> 
62.04 
 
>  <molecular_refractivity> 
51.43 
 
>  <oscillator_strength_1> 
0.0009 
 
>  <oscillator_strength_2> 
0.0011 
 
>  <oscillator_strength_3> 
0.0012 
 
>  <oscillator_strength_4> 
0.003 
 
>  <open_babel_can_smiles> 
C[C@H](N(N)C)Cc1ccccc1 
 
>  <mulliken_charges> 
28 
1   -0.462122 
2   -0.300633 
3   -0.131559 
4   -0.128122 
5   -0.128827 
6   -0.182975 
7   -0.179905 
8   -0.358096 
9   0.064735 
10   0.171265 
11   -0.579241 
12   -0.326501 
13   0.151481 
14   0.133259 
15   0.17334 
16   0.156099 
17   0.140969 
18   0.141042 
19   0.127081 
20   0.127635 
21   0.127399 
22   0.122648 
23   0.123468 
24   0.155192 
25   0.137307 
26   0.123264 
27   0.299874 
28   0.301921 
 
>  <lowdin_charges> 
28 
1   -0.46736 
2   -0.365473 
3   -0.162295 
4   -0.156597 
5   -0.155652 
6   -0.168907 
7   -0.168229 
8   -0.280279 
9   -0.062895 
10   0.000412 
11   -0.485948 
12   -0.155935 
13   0.158019 
14   0.144657 
15   0.164284 
16   0.154687 
17   0.145778 
18   0.132269 
19   0.157103 
20   0.157199 
21   0.15675 
22   0.154396 
23   0.154639 
24   0.158203 
25   0.146624 
26   0.138739 
27   0.254039 
28   0.251771 
 
$$$$ 
 
