PCCDB-ID:  69907 
public computational chemistry database (PCCDB) project, http://pccdb.org 
 
 30 31  0  0  0  0  0  0  0  0999 V2000 
    2.9352   -0.5267    0.7523 C   0  0  0  0  0  0  0  0  0  0  0  0 
    3.3825    3.7166   -4.0099 C   0  0  0  0  0  0  0  0  0  0  0  0 
   -1.6855    2.9519    1.1335 C   0  0  0  0  0  0  0  0  0  0  0  0 
    4.1259    3.8786   -2.8414 C   0  0  0  0  0  0  0  0  0  0  0  0 
    2.2501    2.8989   -3.9964 C   0  0  0  0  0  0  0  0  0  0  0  0 
   -1.5953    1.9053    0.2156 C   0  0  0  0  0  0  0  0  0  0  0  0 
   -0.5195    3.5790    1.5768 C   0  0  0  0  0  0  0  0  0  0  0  0 
    3.7360    3.2250   -1.6710 C   0  0  0  0  0  0  0  0  0  0  0  0 
    1.8602    2.2495   -2.8257 C   0  0  0  0  0  0  0  0  0  0  0  0 
   -0.3509    1.4867   -0.2597 C   0  0  0  0  0  0  0  0  0  0  0  0 
    0.7231    3.1598    1.1028 C   0  0  0  0  0  0  0  0  0  0  0  0 
    2.3073    0.1731   -0.4375 C   0  0  0  0  0  0  0  0  0  0  0  0 
    2.6010    2.4050   -1.6458 C   0  0  0  0  0  0  0  0  0  0  0  0 
    0.8249    2.1133    0.1754 C   0  0  0  0  0  0  0  0  0  0  0  0 
    2.2126    1.7115   -0.3432 C   0  0  0  0  0  0  0  0  0  0  0  0 
    1.8770   -0.4429   -1.3931 O   0  0  0  0  0  0  0  0  0  0  0  0 
    3.9907   -0.2389    0.8425 H   0  0  0  0  0  0  0  0  0  0  0  0 
    2.8613   -1.6092    0.6319 H   0  0  0  0  0  0  0  0  0  0  0  0 
    2.4379   -0.2178    1.6801 H   0  0  0  0  0  0  0  0  0  0  0  0 
    3.6801    4.2241   -4.9236 H   0  0  0  0  0  0  0  0  0  0  0  0 
   -2.6550    3.2757    1.5022 H   0  0  0  0  0  0  0  0  0  0  0  0 
    5.0086    4.5128   -2.8366 H   0  0  0  0  0  0  0  0  0  0  0  0 
    1.6650    2.7662   -4.9027 H   0  0  0  0  0  0  0  0  0  0  0  0 
   -2.4962    1.4069   -0.1326 H   0  0  0  0  0  0  0  0  0  0  0  0 
   -0.5758    4.3929    2.2949 H   0  0  0  0  0  0  0  0  0  0  0  0 
    4.3223    3.3567   -0.7637 H   0  0  0  0  0  0  0  0  0  0  0  0 
    0.9822    1.6146   -2.8305 H   0  0  0  0  0  0  0  0  0  0  0  0 
   -0.2930    0.6608   -0.9615 H   0  0  0  0  0  0  0  0  0  0  0  0 
    1.6264    3.6568    1.4494 H   0  0  0  0  0  0  0  0  0  0  0  0 
    2.9328    2.0308    0.4188 H   0  0  0  0  0  0  0  0  0  0  0  0 
  1 17  1  0  0  0  0 
  1 19  1  0  0  0  0 
  2  5  2  0  0  0  0 
  2  4  1  0  0  0  0 
  3 21  1  0  0  0  0 
  3  7  1  0  0  0  0 
  4 22  1  0  0  0  0 
  4  8  2  0  0  0  0 
  5  9  1  0  0  0  0 
  6  3  2  0  0  0  0 
  7 25  1  0  0  0  0 
  8 13  1  0  0  0  0 
  8 26  1  0  0  0  0 
  9 13  2  0  0  0  0 
 10 14  2  0  0  0  0 
 10  6  1  0  0  0  0 
 11 29  1  0  0  0  0 
 11  7  2  0  0  0  0 
 12 15  1  0  0  0  0 
 12  1  1  0  0  0  0 
 13 15  1  0  0  0  0 
 14 11  1  0  0  0  0 
 15 14  1  0  0  0  0 
 15 30  1  0  0  0  0 
 16 12  2  0  0  0  0 
 18  1  1  0  0  0  0 
 20  2  1  0  0  0  0 
 23  5  1  0  0  0  0 
 24  6  1  0  0  0  0 
 27  9  1  0  0  0  0 
 28 10  1  0  0  0  0 
M  END 
>  <HBA> 
1 
 
>  <HBD> 
0 
 
>  <TPSA> 
17.07 
 
>  <cid> 
69907 
 
>  <dipole> 
2.36 
 
>  <excitation_energy_1> 
4.221 
 
>  <excitation_energy_2> 
4.884 
 
>  <excitation_energy_3> 
5.136 
 
>  <excitation_energy_4> 
5.179 
 
>  <homo_energy> 
-6.378 
 
>  <homo_lumo_gap> 
5.709 
 
>  <logP> 
3.408 
 
>  <lumo_energy> 
-0.669 
 
>  <melting_point> 
57.61 
 
>  <molecular_refractivity> 
65.71 
 
>  <oscillator_strength_1> 
0.0087 
 
>  <oscillator_strength_2> 
0.0078 
 
>  <oscillator_strength_3> 
0.001 
 
>  <oscillator_strength_4> 
0.0008 
 
>  <open_babel_can_smiles> 
CC(=O)C(c1ccccc1)c1ccccc1 
 
>  <mulliken_charges> 
30 
1   -0.531485 
2   -0.127811 
3   -0.126923 
4   -0.128527 
5   -0.133276 
6   -0.132727 
7   -0.127767 
8   -0.188869 
9   -0.155204 
10   -0.184596 
11   -0.176708 
12   0.468139 
13   0.189724 
14   0.158495 
15   -0.361295 
16   -0.439059 
17   0.173318 
18   0.180893 
19   0.176803 
20   0.127846 
21   0.130887 
22   0.127108 
23   0.130081 
24   0.133346 
25   0.131107 
26   0.118389 
27   0.145301 
28   0.159993 
29   0.125638 
30   0.137181 
 
>  <lowdin_charges> 
30 
1   -0.469921 
2   -0.158572 
3   -0.157223 
4   -0.157191 
5   -0.154542 
6   -0.153137 
7   -0.152751 
8   -0.171447 
9   -0.150487 
10   -0.168006 
11   -0.165138 
12   0.176503 
13   0.002101 
14   -0.000422 
15   -0.153908 
16   -0.231873 
17   0.171176 
18   0.171298 
19   0.173958 
20   0.157322 
21   0.158363 
22   0.156665 
23   0.158243 
24   0.159868 
25   0.158724 
26   0.151125 
27   0.167226 
28   0.17049 
29   0.155707 
30   0.155846 
 
$$$$ 
 
