PCCDB-ID:  56075 
public computational chemistry database (PCCDB) project, http://pccdb.org 
 
 28 28  0  0  1  0  0  0  0  0999 V2000 
    2.4766    1.5233   -1.0205 C   0  0  0  0  0  0  0  0  0  0  0  0 
    5.6327   -7.1957   -2.9272 C   0  0  0  0  0  0  0  0  0  0  0  0 
    3.1470    0.7422   -0.1745 C   0  0  0  0  0  0  0  0  0  0  0  0 
    6.2304   -6.4108   -2.0324 C   0  0  0  0  0  0  0  0  0  0  0  0 
    4.4510    0.0729   -0.4883 C   0  0  0  0  0  0  0  0  0  0  0  0 
    5.5141   -5.6973   -0.9248 C   0  0  0  0  0  0  0  0  0  0  0  0 
    5.5455   -2.0273   -0.3171 C   0  0  2  0  0  0  0  0  0  0  0  0 
    5.2413   -3.5191    0.0103 C   0  0  2  0  0  0  0  0  0  0  0  0 
    6.6581   -2.5439    1.4867 C   0  0  0  0  0  0  0  0  0  0  0  0 
    6.5785   -1.5966    0.6251 N   0  0  0  0  0  0  0  0  0  0  0  0 
    5.8130   -3.6241    1.3481 N   0  0  0  0  0  0  0  0  0  0  0  0 
    7.4816   -2.5619    2.5464 O   0  0  0  0  0  0  0  0  0  0  0  0 
    4.3338   -1.3145   -0.1698 O   0  0  0  0  0  0  0  0  0  0  0  0 
    5.8884   -4.3216   -0.9540 O   0  0  0  0  0  0  0  0  0  0  0  0 
    1.5528    2.0182   -0.7335 H   0  0  0  0  0  0  0  0  0  0  0  0 
    2.8290    1.7035   -2.0342 H   0  0  0  0  0  0  0  0  0  0  0  0 
    6.1960   -7.7186   -3.6951 H   0  0  0  0  0  0  0  0  0  0  0  0 
    4.5555   -7.3494   -2.9260 H   0  0  0  0  0  0  0  0  0  0  0  0 
    2.7688    0.5688    0.8325 H   0  0  0  0  0  0  0  0  0  0  0  0 
    7.3091   -6.2625   -2.0586 H   0  0  0  0  0  0  0  0  0  0  0  0 
    5.2629    0.5129    0.1086 H   0  0  0  0  0  0  0  0  0  0  0  0 
    4.7108    0.2013   -1.5520 H   0  0  0  0  0  0  0  0  0  0  0  0 
    5.7946   -6.1458    0.0456 H   0  0  0  0  0  0  0  0  0  0  0  0 
    4.4230   -5.8025   -1.0310 H   0  0  0  0  0  0  0  0  0  0  0  0 
    5.9144   -1.9417   -1.3487 H   0  0  0  0  0  0  0  0  0  0  0  0 
    4.1647   -3.7250    0.0229 H   0  0  0  0  0  0  0  0  0  0  0  0 
    6.0676   -4.5182    1.7460 H   0  0  0  0  0  0  0  0  0  0  0  0 
    7.9734   -1.7224    2.5159 H   0  0  0  0  0  0  0  0  0  0  0  0 
  1 15  1  0  0  0  0 
  1  3  2  0  0  0  0 
  2 18  1  0  0  0  0 
  2  4  2  0  0  0  0 
  3 19  1  0  0  0  0 
  4  6  1  0  0  0  0 
  5  3  1  0  0  0  0 
  5 13  1  0  0  0  0 
  5 21  1  0  0  0  0 
  6 23  1  0  0  0  0 
  7 25  1  6  0  0  0 
  7 13  1  0  0  0  0 
  7  8  1  0  0  0  0 
  7 10  1  0  0  0  0 
  8 26  1  1  0  0  0 
  8 11  1  0  0  0  0 
  9 12  1  0  0  0  0 
 10  9  2  0  0  0  0 
 11  9  1  0  0  0  0 
 11 27  1  0  0  0  0 
 14  6  1  0  0  0  0 
 14  8  1  0  0  0  0 
 16  1  1  0  0  0  0 
 17  2  1  0  0  0  0 
 20  4  1  0  0  0  0 
 22  5  1  0  0  0  0 
 24  6  1  0  0  0  0 
 28 12  1  0  0  0  0 
M  END 
>  <HBA> 
5 
 
>  <HBD> 
2 
 
>  <TPSA> 
59.59 
 
>  <cid> 
56075 
 
>  <dipole> 
2.01 
 
>  <excitation_energy_1> 
5.655 
 
>  <excitation_energy_2> 
5.855 
 
>  <excitation_energy_3> 
6.082 
 
>  <excitation_energy_4> 
6.122 
 
>  <homo_energy> 
-6.338 
 
>  <homo_lumo_gap> 
6.482 
 
>  <logP> 
1.014 
 
>  <lumo_energy> 
0.144 
 
>  <melting_point> 
21.01 
 
>  <molecular_refractivity> 
58.51 
 
>  <oscillator_strength_1> 
0.0206 
 
>  <oscillator_strength_2> 
0.0154 
 
>  <oscillator_strength_3> 
0.0112 
 
>  <oscillator_strength_4> 
0.0454 
 
>  <open_babel_can_smiles> 
C=CCO[C@H]1N=C(N[C@@H]1OCC=C)O 
 
>  <mulliken_charges> 
28 
1   -0.338877 
2   -0.33398 
3   -0.052611 
4   -0.051384 
5   -0.059708 
6   -0.067832 
7   0.224044 
8   0.245038 
9   0.68965 
10   -0.504846 
11   -0.613181 
12   -0.609011 
13   -0.493339 
14   -0.482538 
15   0.141365 
16   0.137887 
17   0.148945 
18   0.142989 
19   0.138467 
20   0.145442 
21   0.159628 
22   0.122973 
23   0.121387 
24   0.137259 
25   0.141263 
26   0.15317 
27   0.331891 
28   0.425907 
 
>  <lowdin_charges> 
28 
1   -0.33266 
2   -0.323611 
3   -0.145534 
4   -0.147153 
5   -0.126414 
6   -0.123923 
7   0.047795 
8   0.042917 
9   0.163967 
10   -0.305686 
11   -0.305913 
12   -0.35151 
13   -0.269969 
14   -0.263013 
15   0.159438 
16   0.154194 
17   0.164695 
18   0.155854 
19   0.156969 
20   0.159289 
21   0.152183 
22   0.130356 
23   0.127364 
24   0.135732 
25   0.138617 
26   0.144781 
27   0.286685 
28   0.374552 
 
$$$$ 
 
