PCCDB-ID:  21403 
public computational chemistry database (PCCDB) project, http://pccdb.org 
 
 25 26  0  0  0  0  0  0  0  0999 V2000 
    1.1980    1.0407   -1.7045 C   0  0  0  0  0  0  0  0  0  0  0  0 
    2.4230    1.8021   -1.2286 C   0  0  0  0  0  0  0  0  0  0  0  0 
    7.7246   -1.6609   -0.2858 C   0  0  0  0  0  0  0  0  0  0  0  0 
    6.4269   -2.0281   -0.7127 C   0  0  0  0  0  0  0  0  0  0  0  0 
    6.3036    2.9723    0.0683 C   0  0  0  0  0  0  0  0  0  0  0  0 
    8.0105   -0.3463    0.0084 C   0  0  0  0  0  0  0  0  0  0  0  0 
    7.2925    2.0275    0.1918 C   0  0  0  0  0  0  0  0  0  0  0  0 
    5.4396   -1.0746   -0.8379 C   0  0  0  0  0  0  0  0  0  0  0  0 
    4.9994    2.6193   -0.3592 C   0  0  0  0  0  0  0  0  0  0  0  0 
    7.0190    0.6641   -0.1084 C   0  0  0  0  0  0  0  0  0  0  0  0 
    5.7083    0.2862   -0.5411 C   0  0  0  0  0  0  0  0  0  0  0  0 
    4.7045    1.3033   -0.6600 C   0  0  0  0  0  0  0  0  0  0  0  0 
    3.4843    0.8606   -1.0805 O   0  0  0  0  0  0  0  0  0  0  0  0 
    0.3544    1.7275   -1.8328 H   0  0  0  0  0  0  0  0  0  0  0  0 
    0.9138    0.2738   -0.9771 H   0  0  0  0  0  0  0  0  0  0  0  0 
    1.3963    0.5508   -2.6629 H   0  0  0  0  0  0  0  0  0  0  0  0 
    2.2299    2.2969   -0.2661 H   0  0  0  0  0  0  0  0  0  0  0  0 
    2.7127    2.5752   -1.9543 H   0  0  0  0  0  0  0  0  0  0  0  0 
    8.4960   -2.4206   -0.1905 H   0  0  0  0  0  0  0  0  0  0  0  0 
    6.2094   -3.0677   -0.9425 H   0  0  0  0  0  0  0  0  0  0  0  0 
    6.5121    4.0139    0.2983 H   0  0  0  0  0  0  0  0  0  0  0  0 
    9.0068   -0.0601    0.3376 H   0  0  0  0  0  0  0  0  0  0  0  0 
    8.2906    2.3059    0.5197 H   0  0  0  0  0  0  0  0  0  0  0  0 
    4.4429   -1.3499   -1.1637 H   0  0  0  0  0  0  0  0  0  0  0  0 
    4.2451    3.3926   -0.4427 H   0  0  0  0  0  0  0  0  0  0  0  0 
  1  2  1  0  0  0  0 
  1 15  1  0  0  0  0 
  2 13  1  0  0  0  0 
  2 17  1  0  0  0  0 
  3 19  1  0  0  0  0 
  3  6  2  0  0  0  0 
  4  3  1  0  0  0  0 
  5  7  1  0  0  0  0 
  5 21  1  0  0  0  0 
  6 22  1  0  0  0  0 
  7 23  1  0  0  0  0 
  8  4  2  0  0  0  0 
  8 11  1  0  0  0  0 
  9  5  2  0  0  0  0 
 10  6  1  0  0  0  0 
 10  7  2  0  0  0  0 
 11 10  1  0  0  0  0 
 12 11  2  0  0  0  0 
 12  9  1  0  0  0  0 
 13 12  1  0  0  0  0 
 14  1  1  0  0  0  0 
 16  1  1  0  0  0  0 
 18  2  1  0  0  0  0 
 20  4  1  0  0  0  0 
 24  8  1  0  0  0  0 
 25  9  1  0  0  0  0 
M  END 
>  <HBA> 
1 
 
>  <HBD> 
0 
 
>  <TPSA> 
9.23 
 
>  <cid> 
21403 
 
>  <dipole> 
1.53 
 
>  <excitation_energy_1> 
4.143 
 
>  <excitation_energy_2> 
4.361 
 
>  <excitation_energy_3> 
5.082 
 
>  <excitation_energy_4> 
5.367 
 
>  <homo_energy> 
-5.35 
 
>  <homo_lumo_gap> 
4.661 
 
>  <logP> 
3.239 
 
>  <lumo_energy> 
-0.688 
 
>  <melting_point> 
53.09 
 
>  <molecular_refractivity> 
55.25 
 
>  <oscillator_strength_1> 
0.0937 
 
>  <oscillator_strength_2> 
0.0239 
 
>  <oscillator_strength_3> 
0.0006 
 
>  <oscillator_strength_4> 
0.0008 
 
>  <open_babel_can_smiles> 
CCOc1cccc2c1cccc2 
 
>  <mulliken_charges> 
25 
1   -0.459024 
2   -0.027039 
3   -0.128907 
4   -0.139441 
5   -0.14198 
6   -0.201965 
7   -0.19213 
8   -0.170254 
9   -0.211146 
10   0.137893 
11   0.053474 
12   0.330657 
13   -0.519664 
14   0.149456 
15   0.164011 
16   0.164052 
17   0.142552 
18   0.142583 
19   0.126951 
20   0.126566 
21   0.127269 
22   0.127049 
23   0.123202 
24   0.145319 
25   0.130517 
 
>  <lowdin_charges> 
25 
1   -0.449257 
2   -0.123355 
3   -0.158763 
4   -0.160536 
5   -0.148238 
6   -0.158412 
7   -0.179152 
8   -0.150014 
9   -0.227592 
10   0.005836 
11   -0.024141 
12   0.103955 
13   -0.199489 
14   0.158291 
15   0.160952 
16   0.159965 
17   0.139396 
18   0.14029 
19   0.158036 
20   0.155565 
21   0.156105 
22   0.155804 
23   0.155253 
24   0.166868 
25   0.162633 
 
$$$$ 
 
