PCCDB-ID:  20971 
public computational chemistry database (PCCDB) project, http://pccdb.org 
 
 25 26  0  0  1  0  0  0  0  0999 V2000 
    2.1444   -1.6981   -0.3321 C   0  0  0  0  0  0  0  0  0  0  0  0 
    2.3639   -0.2330    0.0654 C   0  0  0  0  0  0  0  0  0  0  0  0 
    7.3553    0.9822   -1.2418 C   0  0  0  0  0  0  0  0  0  0  0  0 
    6.8427   -0.2883   -0.9692 C   0  0  0  0  0  0  0  0  0  0  0  0 
    6.4897    2.0659   -1.4182 C   0  0  0  0  0  0  0  0  0  0  0  0 
    5.4618   -0.4919   -0.8737 C   0  0  0  0  0  0  0  0  0  0  0  0 
    2.8043    2.1540   -0.8007 C   0  0  0  0  0  0  0  0  0  0  0  0 
    3.9971    2.8724   -1.4683 C   0  0  0  0  0  0  0  0  0  0  0  0 
    3.0694    0.6364   -0.9937 C   0  0  1  0  0  0  0  0  0  0  0  0 
    5.1154    1.8633   -1.3160 C   0  0  0  0  0  0  0  0  0  0  0  0 
    4.5941    0.5875   -1.0437 C   0  0  0  0  0  0  0  0  0  0  0  0 
    1.5867   -2.2339    0.4447 H   0  0  0  0  0  0  0  0  0  0  0  0 
    3.0855   -2.2352   -0.4885 H   0  0  0  0  0  0  0  0  0  0  0  0 
    1.5684   -1.7684   -1.2631 H   0  0  0  0  0  0  0  0  0  0  0  0 
    2.9262   -0.1770    1.0075 H   0  0  0  0  0  0  0  0  0  0  0  0 
    1.3818    0.2158    0.2701 H   0  0  0  0  0  0  0  0  0  0  0  0 
    8.4300    1.1296   -1.3118 H   0  0  0  0  0  0  0  0  0  0  0  0 
    7.5207   -1.1262   -0.8284 H   0  0  0  0  0  0  0  0  0  0  0  0 
    6.8879    3.0568   -1.6257 H   0  0  0  0  0  0  0  0  0  0  0  0 
    5.0823   -1.4869   -0.6620 H   0  0  0  0  0  0  0  0  0  0  0  0 
    1.8318    2.4621   -1.1994 H   0  0  0  0  0  0  0  0  0  0  0  0 
    2.8032    2.3759    0.2751 H   0  0  0  0  0  0  0  0  0  0  0  0 
    4.2235    3.8436   -1.0134 H   0  0  0  0  0  0  0  0  0  0  0  0 
    3.7917    3.0604   -2.5329 H   0  0  0  0  0  0  0  0  0  0  0  0 
    2.6816    0.3416   -1.9839 H   0  0  0  0  0  0  0  0  0  0  0  0 
  1  2  1  0  0  0  0 
  1 12  1  0  0  0  0 
  2 16  1  0  0  0  0 
  2 15  1  0  0  0  0 
  3  4  2  0  0  0  0 
  4  6  1  0  0  0  0 
  4 18  1  0  0  0  0 
  5 10  2  0  0  0  0 
  5  3  1  0  0  0  0 
  6 20  1  0  0  0  0 
  7 22  1  0  0  0  0 
  8 10  1  0  0  0  0 
  8 23  1  0  0  0  0 
  8  7  1  0  0  0  0 
  9 25  1  6  0  0  0 
  9  7  1  0  0  0  0 
  9  2  1  0  0  0  0 
 10 11  1  0  0  0  0 
 11  9  1  0  0  0  0 
 11  6  2  0  0  0  0 
 13  1  1  0  0  0  0 
 14  1  1  0  0  0  0 
 17  3  1  0  0  0  0 
 19  5  1  0  0  0  0 
 21  7  1  0  0  0  0 
 24  8  1  0  0  0  0 
M  END 
>  <HBA> 
0 
 
>  <HBD> 
0 
 
>  <TPSA> 
0.0 
 
>  <cid> 
20971 
 
>  <dipole> 
0.54 
 
>  <excitation_energy_1> 
5.154 
 
>  <excitation_energy_2> 
5.759 
 
>  <excitation_energy_3> 
5.903 
 
>  <excitation_energy_4> 
6.136 
 
>  <homo_energy> 
-6.177 
 
>  <homo_lumo_gap> 
6.297 
 
>  <logP> 
3.126 
 
>  <lumo_energy> 
0.12 
 
>  <melting_point> 
32.58 
 
>  <molecular_refractivity> 
48.68 
 
>  <oscillator_strength_1> 
0.0239 
 
>  <oscillator_strength_2> 
0.0091 
 
>  <oscillator_strength_3> 
0.0152 
 
>  <oscillator_strength_4> 
0.0515 
 
>  <open_babel_can_smiles> 
CC[C@H]1CCc2c1cccc2 
 
>  <mulliken_charges> 
25 
1   -0.45538 
2   -0.255756 
3   -0.131981 
4   -0.13277 
5   -0.196878 
6   -0.202581 
7   -0.290324 
8   -0.347302 
9   -0.150755 
10   0.12285 
11   0.129448 
12   0.143723 
13   0.15252 
14   0.143544 
15   0.137698 
16   0.134269 
17   0.12398 
18   0.123712 
19   0.12131 
20   0.125892 
21   0.132798 
22   0.142578 
23   0.145257 
24   0.149128 
25   0.135019 
 
>  <lowdin_charges> 
25 
1   -0.448568 
2   -0.27187 
3   -0.157496 
4   -0.162496 
5   -0.166433 
6   -0.168545 
7   -0.273528 
8   -0.277281 
9   -0.127125 
10   -0.01324 
11   -0.015011 
12   0.151742 
13   0.147275 
14   0.147038 
15   0.144197 
16   0.143348 
17   0.153324 
18   0.155858 
19   0.153829 
20   0.154584 
21   0.143803 
22   0.143334 
23   0.150665 
24   0.149273 
25   0.143322 
 
$$$$ 
 
