PCCDB-ID:  68111 
public computational chemistry database (PCCDB) project, http://pccdb.org 
 
 30 32  0  0  0  0  0  0  0  0999 V2000 
    1.0260   -0.0021   -0.3551 C   0  0  0  0  0  0  0  0  0  0  0  0 
    8.7211    3.8589   -0.3065 C   0  0  0  0  0  0  0  0  0  0  0  0 
    7.3625    3.8006   -0.0075 C   0  0  0  0  0  0  0  0  0  0  0  0 
    9.4727    2.6899   -0.3775 C   0  0  0  0  0  0  0  0  0  0  0  0 
    3.2066    1.2064    0.0945 C   0  0  0  0  0  0  0  0  0  0  0  0 
    3.2583   -1.1720   -0.2187 C   0  0  0  0  0  0  0  0  0  0  0  0 
    5.2882    2.5181    0.5929 C   0  0  0  0  0  0  0  0  0  0  0  0 
    2.5227    0.0150   -0.1544 C   0  0  0  0  0  0  0  0  0  0  0  0 
    6.7513    2.5654    0.2220 C   0  0  0  0  0  0  0  0  0  0  0  0 
    4.5917    1.2168    0.2749 C   0  0  0  0  0  0  0  0  0  0  0  0 
    8.8744    1.4461   -0.1429 C   0  0  0  0  0  0  0  0  0  0  0  0 
    4.6431   -1.1830   -0.0340 C   0  0  0  0  0  0  0  0  0  0  0  0 
    7.4931    1.3705    0.1647 C   0  0  0  0  0  0  0  0  0  0  0  0 
    5.3376    0.0268    0.2194 C   0  0  0  0  0  0  0  0  0  0  0  0 
    6.8196    0.0562    0.4245 C   0  0  0  0  0  0  0  0  0  0  0  0 
    9.6004    0.3021   -0.2328 O   0  0  0  0  0  0  0  0  0  0  0  0 
    5.3426   -2.3437   -0.1214 O   0  0  0  0  0  0  0  0  0  0  0  0 
    7.4471   -0.9348    0.7675 O   0  0  0  0  0  0  0  0  0  0  0  0 
    0.6064    1.0073   -0.3096 H   0  0  0  0  0  0  0  0  0  0  0  0 
    0.5285   -0.6068    0.4135 H   0  0  0  0  0  0  0  0  0  0  0  0 
    0.7583   -0.4338   -1.3274 H   0  0  0  0  0  0  0  0  0  0  0  0 
    9.1998    4.8166   -0.4925 H   0  0  0  0  0  0  0  0  0  0  0  0 
    6.7727    4.7119    0.0450 H   0  0  0  0  0  0  0  0  0  0  0  0 
   10.5335    2.7326   -0.6191 H   0  0  0  0  0  0  0  0  0  0  0  0 
    2.6541    2.1419    0.1459 H   0  0  0  0  0  0  0  0  0  0  0  0 
    2.7469   -2.1132   -0.4204 H   0  0  0  0  0  0  0  0  0  0  0  0 
    4.7578    3.3492    0.1138 H   0  0  0  0  0  0  0  0  0  0  0  0 
    5.1998    2.7013    1.6765 H   0  0  0  0  0  0  0  0  0  0  0  0 
   10.5039    0.5369   -0.4990 H   0  0  0  0  0  0  0  0  0  0  0  0 
    4.7218   -3.0550   -0.3476 H   0  0  0  0  0  0  0  0  0  0  0  0 
  1 19  1  0  0  0  0 
  1  8  1  0  0  0  0 
  1 20  1  0  0  0  0 
  2  3  1  0  0  0  0 
  3 23  1  0  0  0  0 
  3  9  2  0  0  0  0 
  4  2  2  0  0  0  0 
  4 11  1  0  0  0  0 
  5 25  1  0  0  0  0 
  5 10  2  0  0  0  0 
  6  8  2  0  0  0  0 
  6 12  1  0  0  0  0 
  7 28  1  0  0  0  0 
  8  5  1  0  0  0  0 
  9  7  1  0  0  0  0 
 10  7  1  0  0  0  0 
 11 13  2  0  0  0  0 
 12 14  2  0  0  0  0 
 13  9  1  0  0  0  0 
 13 15  1  0  0  0  0 
 14 10  1  0  0  0  0 
 14 15  1  0  0  0  0 
 15 18  2  0  0  0  0 
 16 11  1  0  0  0  0 
 17 12  1  0  0  0  0 
 21  1  1  0  0  0  0 
 22  2  1  0  0  0  0 
 24  4  1  0  0  0  0 
 26  6  1  0  0  0  0 
 27  7  1  0  0  0  0 
 29 16  1  0  0  0  0 
 30 17  1  0  0  0  0 
M  END 
>  <HBA> 
3 
 
>  <HBD> 
2 
 
>  <TPSA> 
57.53 
 
>  <cid> 
68111 
 
>  <dipole> 
3.33 
 
>  <excitation_energy_1> 
3.312 
 
>  <excitation_energy_2> 
3.991 
 
>  <excitation_energy_3> 
4.027 
 
>  <excitation_energy_4> 
4.628 
 
>  <homo_energy> 
-5.951 
 
>  <homo_lumo_gap> 
4.67 
 
>  <logP> 
2.541 
 
>  <lumo_energy> 
-1.282 
 
>  <melting_point> 
183.46 
 
>  <molecular_refractivity> 
68.34 
 
>  <oscillator_strength_1> 
0.0013 
 
>  <oscillator_strength_2> 
0.1236 
 
>  <oscillator_strength_3> 
0.0766 
 
>  <oscillator_strength_4> 
0.082 
 
>  <open_babel_can_smiles> 
Cc1cc2Cc3cccc(c3C(=O)c2c(c1)O)O 
 
>  <mulliken_charges> 
30 
1   -0.535407 
2   -0.124638 
3   -0.198677 
4   -0.198641 
5   -0.263056 
6   -0.256621 
7   -0.451769 
8   0.195309 
9   0.120279 
10   0.127924 
11   0.311525 
12   0.318853 
13   0.017748 
14   0.015738 
15   0.33628 
16   -0.603667 
17   -0.606463 
18   -0.451679 
19   0.159248 
20   0.166589 
21   0.164877 
22   0.134239 
23   0.121009 
24   0.118282 
25   0.113634 
26   0.109495 
27   0.16193 
28   0.186784 
29   0.405489 
30   0.405388 
 
>  <lowdin_charges> 
30 
1   -0.442195 
2   -0.132714 
3   -0.194409 
4   -0.217817 
5   -0.205586 
6   -0.23097 
7   -0.27024 
8   0.025546 
9   0.016412 
10   0.017051 
11   0.123085 
12   0.12592 
13   -0.07737 
14   -0.081762 
15   0.148721 
16   -0.34104 
17   -0.344152 
18   -0.225421 
19   0.158311 
20   0.16465 
21   0.162386 
22   0.160872 
23   0.156192 
24   0.15203 
25   0.152858 
26   0.150405 
27   0.163482 
28   0.173709 
29   0.355295 
30   0.356748 
 
$$$$ 
 
