PCCDB-ID:  49664 
public computational chemistry database (PCCDB) project, http://pccdb.org 
 
 30 30  0  0  1  0  0  0  0  0999 V2000 
    2.2373    1.3414   -0.2033 C   0  0  0  0  0  0  0  0  0  0  0  0 
    4.9272    0.4182    0.8322 C   0  0  0  0  0  0  0  0  0  0  0  0 
    3.7850    1.6417    2.5548 C   0  0  0  0  0  0  0  0  0  0  0  0 
    0.6398   -3.3804    2.8082 C   0  0  0  0  0  0  0  0  0  0  0  0 
    1.4139   -4.4472    2.0666 C   0  0  0  0  0  0  0  0  0  0  0  0 
    1.1083   -2.1560    2.5536 C   0  0  0  0  0  0  0  0  0  0  0  0 
    2.2246   -3.6236    1.0333 C   0  0  0  0  0  0  0  0  0  0  0  0 
    2.2267   -1.1029    0.4798 C   0  0  0  0  0  0  0  0  0  0  0  0 
    2.4505    0.3464    0.9562 C   0  0  1  0  0  0  0  0  0  0  0  0 
    2.2774   -2.1708    1.5863 C   0  0  1  0  0  0  0  0  0  0  0  0 
    3.7364    0.4900    1.6677 N   0  0  0  0  0  0  0  0  0  0  0  0 
    1.2129    1.2689   -0.5861 H   0  0  0  0  0  0  0  0  0  0  0  0 
    2.9166    1.1376   -1.0393 H   0  0  0  0  0  0  0  0  0  0  0  0 
    2.3992    2.3765    0.1180 H   0  0  0  0  0  0  0  0  0  0  0  0 
    5.8108    0.3354    1.4761 H   0  0  0  0  0  0  0  0  0  0  0  0 
    5.0740    1.2993    0.1793 H   0  0  0  0  0  0  0  0  0  0  0  0 
    4.8977   -0.4719    0.1972 H   0  0  0  0  0  0  0  0  0  0  0  0 
    4.6888    1.5858    3.1733 H   0  0  0  0  0  0  0  0  0  0  0  0 
    2.9183    1.6319    3.2249 H   0  0  0  0  0  0  0  0  0  0  0  0 
    3.8025    2.6185    2.0327 H   0  0  0  0  0  0  0  0  0  0  0  0 
   -0.1661   -3.6113    3.5004 H   0  0  0  0  0  0  0  0  0  0  0  0 
    0.7691   -5.1997    1.5944 H   0  0  0  0  0  0  0  0  0  0  0  0 
    2.0722   -4.9959    2.7578 H   0  0  0  0  0  0  0  0  0  0  0  0 
    0.7350   -1.2438    3.0122 H   0  0  0  0  0  0  0  0  0  0  0  0 
    1.6878   -3.6206    0.0757 H   0  0  0  0  0  0  0  0  0  0  0  0 
    3.2207   -4.0377    0.8444 H   0  0  0  0  0  0  0  0  0  0  0  0 
    2.9680   -1.3533   -0.2927 H   0  0  0  0  0  0  0  0  0  0  0  0 
    1.2493   -1.1495   -0.0207 H   0  0  0  0  0  0  0  0  0  0  0  0 
    1.6847    0.5613    1.7137 H   0  0  0  0  0  0  0  0  0  0  0  0 
    3.2068   -2.0056    2.1508 H   0  0  0  0  0  0  0  0  0  0  0  0 
  1 14  1  0  0  0  0 
  1  9  1  0  0  0  0 
  2 15  1  0  0  0  0 
  2 11  1  0  0  0  0 
  3 18  1  0  0  0  0 
  3 19  1  0  0  0  0 
  4 21  1  0  0  0  0 
  5 23  1  0  0  0  0 
  5  4  1  0  0  0  0 
  6  4  2  0  0  0  0 
  6 24  1  0  0  0  0 
  7 10  1  0  0  0  0 
  7  5  1  0  0  0  0 
  8  9  1  0  0  0  0 
  8 10  1  0  0  0  0 
  9 11  1  0  0  0  0 
  9 29  1  1  0  0  0 
 10 30  1  1  0  0  0 
 10  6  1  0  0  0  0 
 11  3  1  0  0  0  0 
 12  1  1  0  0  0  0 
 13  1  1  0  0  0  0 
 16  2  1  0  0  0  0 
 17  2  1  0  0  0  0 
 20  3  1  0  0  0  0 
 22  5  1  0  0  0  0 
 25  7  1  0  0  0  0 
 26  7  1  0  0  0  0 
 27  8  1  0  0  0  0 
 28  8  1  0  0  0  0 
M  END 
>  <HBA> 
1 
 
>  <HBD> 
0 
 
>  <TPSA> 
3.24 
 
>  <cid> 
49664 
 
>  <dipole> 
0.68 
 
>  <excitation_energy_1> 
4.945 
 
>  <excitation_energy_2> 
5.327 
 
>  <excitation_energy_3> 
5.438 
 
>  <excitation_energy_4> 
5.503 
 
>  <homo_energy> 
-5.453 
 
>  <homo_lumo_gap> 
6.376 
 
>  <logP> 
2.293 
 
>  <lumo_energy> 
0.922 
 
>  <melting_point> 
5.79 
 
>  <molecular_refractivity> 
50.49 
 
>  <oscillator_strength_1> 
0.0039 
 
>  <oscillator_strength_2> 
0.0035 
 
>  <oscillator_strength_3> 
0.0162 
 
>  <oscillator_strength_4> 
0.0139 
 
>  <open_babel_can_smiles> 
C[C@H](N(C)C)C[C@@H]1CCC=C1 
 
>  <mulliken_charges> 
30 
1   -0.459185 
2   -0.304214 
3   -0.294407 
4   -0.119245 
5   -0.301373 
6   -0.101898 
7   -0.28996 
8   -0.276749 
9   0.042328 
10   -0.104807 
11   -0.366247 
12   0.143011 
13   0.144004 
14   0.14513 
15   0.146984 
16   0.121359 
17   0.150249 
18   0.14606 
19   0.145654 
20   0.117723 
21   0.119369 
22   0.136461 
23   0.141523 
24   0.118707 
25   0.136028 
26   0.130578 
27   0.127293 
28   0.129208 
29   0.124616 
30   0.151799 
 
>  <lowdin_charges> 
30 
1   -0.460151 
2   -0.360945 
3   -0.355197 
4   -0.173892 
5   -0.279882 
6   -0.175097 
7   -0.275719 
8   -0.28262 
9   -0.062719 
10   -0.129124 
11   -0.184921 
12   0.151512 
13   0.149003 
14   0.148734 
15   0.149618 
16   0.12235 
17   0.150369 
18   0.148407 
19   0.148368 
20   0.118236 
21   0.151085 
22   0.145837 
23   0.146902 
24   0.15018 
25   0.142644 
26   0.142621 
27   0.140299 
28   0.142963 
29   0.139248 
30   0.151892 
 
$$$$ 
 
