PCCDB-ID:  28143 
public computational chemistry database (PCCDB) project, http://pccdb.org 
 
 25 26  0  0  0  0  0  0  0  0999 V2000 
    0.8304    0.3274    0.1706 C   0  0  0  0  0  0  0  0  0  0  0  0 
    6.6070    2.1658   -0.1556 C   0  0  0  0  0  0  0  0  0  0  0  0 
    7.2142    0.8973   -0.2952 C   0  0  0  0  0  0  0  0  0  0  0  0 
    5.2368    2.2804   -0.0346 C   0  0  0  0  0  0  0  0  0  0  0  0 
    6.4502   -0.2519   -0.3133 C   0  0  0  0  0  0  0  0  0  0  0  0 
    2.1856   -2.5127   -0.1139 C   0  0  0  0  0  0  0  0  0  0  0  0 
    2.3009    0.0799    0.0436 C   0  0  0  0  0  0  0  0  0  0  0  0 
    4.4467    1.1166   -0.0523 C   0  0  0  0  0  0  0  0  0  0  0  0 
    5.0517   -0.1477   -0.1915 C   0  0  0  0  0  0  0  0  0  0  0  0 
    2.9108   -1.1804   -0.0879 C   0  0  0  0  0  0  0  0  0  0  0  0 
    3.0557    1.2167    0.0674 N   0  3  0  0  0  0  0  0  0  0  0  0 
    4.2592   -1.2941   -0.2029 N   0  3  0  0  0  0  0  0  0  0  0  0 
    2.4437   -3.2354   -1.2977 O   0  0  0  0  0  0  0  0  0  0  0  0 
    2.5097    2.3651    0.1973 O   0  5  0  0  0  0  0  0  0  0  0  0 
    4.8233   -2.4542   -0.3243 O   0  5  0  0  0  0  0  0  0  0  0  0 
    0.2476   -0.5898    0.1081 H   0  0  0  0  0  0  0  0  0  0  0  0 
    0.5066    1.0194   -0.6144 H   0  0  0  0  0  0  0  0  0  0  0  0 
    0.6173    0.8294    1.1213 H   0  0  0  0  0  0  0  0  0  0  0  0 
    7.2234    3.0596   -0.1438 H   0  0  0  0  0  0  0  0  0  0  0  0 
    8.2937    0.8249   -0.3879 H   0  0  0  0  0  0  0  0  0  0  0  0 
    4.7325    3.2321    0.0749 H   0  0  0  0  0  0  0  0  0  0  0  0 
    6.8770   -1.2411   -0.4181 H   0  0  0  0  0  0  0  0  0  0  0  0 
    1.1077   -2.3666   -0.0571 H   0  0  0  0  0  0  0  0  0  0  0  0 
    2.4976   -3.0744    0.7815 H   0  0  0  0  0  0  0  0  0  0  0  0 
    3.4127   -3.3756   -1.2761 H   0  0  0  0  0  0  0  0  0  0  0  0 
  1 18  1  0  0  0  0 
  2 19  1  0  0  0  0 
  2  4  2  0  0  0  0 
  3  2  1  0  0  0  0 
  4 21  1  0  0  0  0 
  5  3  2  0  0  0  0 
  5  9  1  0  0  0  0 
  6 10  1  0  0  0  0 
  6 23  1  0  0  0  0 
  6 24  1  0  0  0  0 
  7 11  1  0  0  0  0 
  7  1  1  0  0  0  0 
  8  4  1  0  0  0  0 
  8 11  2  0  0  0  0 
  9  8  1  0  0  0  0 
 10  7  2  0  0  0  0 
 11 14  1  0  0  0  0 
 12  9  2  0  0  0  0 
 12 10  1  0  0  0  0 
 13 25  1  0  0  0  0 
 13  6  1  0  0  0  0 
 15 12  1  0  0  0  0 
 16  1  1  0  0  0  0 
 17  1  1  0  0  0  0 
 20  3  1  0  0  0  0 
 22  5  1  0  0  0  0 
M  CHG  4  11   1  12   1  14  -1  15  -1 
M  END 
>  <HBA> 
4 
 
>  <HBD> 
1 
 
>  <TPSA> 
73.68 
 
>  <cid> 
28143 
 
>  <dipole> 
2.55 
 
>  <excitation_energy_1> 
3.247 
 
>  <excitation_energy_2> 
3.546 
 
>  <excitation_energy_3> 
3.714 
 
>  <excitation_energy_4> 
3.737 
 
>  <homo_energy> 
-5.709 
 
>  <homo_lumo_gap> 
3.246 
 
>  <logP> 
0.702 
 
>  <lumo_energy> 
-2.463 
 
>  <melting_point> 
91.07 
 
>  <molecular_refractivity> 
57.3 
 
>  <oscillator_strength_1> 
0.1325 
 
>  <oscillator_strength_2> 
0.0002 
 
>  <oscillator_strength_3> 
0.0087 
 
>  <oscillator_strength_4> 
0.0106 
 
>  <open_babel_can_smiles> 
OCc1[n+]([O-])c2ccccc2[n+](c1C)[O-] 
 
>  <mulliken_charges> 
25 
1   -0.505208 
2   -0.128476 
3   -0.128574 
4   -0.150593 
5   -0.149287 
6   -0.084328 
7   0.271165 
8   0.300024 
9   0.305046 
10   0.254468 
11   -0.138445 
12   -0.155268 
13   -0.621468 
14   -0.504901 
15   -0.54181 
16   0.16759 
17   0.197386 
18   0.192447 
19   0.152423 
20   0.152569 
21   0.188662 
22   0.18897 
23   0.157589 
24   0.15766 
25   0.42236 
 
>  <lowdin_charges> 
25 
1   -0.437864 
2   -0.139662 
3   -0.135354 
4   -0.144213 
5   -0.143727 
6   -0.129351 
7   0.014524 
8   0.021946 
9   0.022979 
10   -4.2e-05 
11   0.199236 
12   0.19459 
13   -0.463562 
14   -0.368724 
15   -0.403367 
16   0.165824 
17   0.185142 
18   0.181212 
19   0.170496 
20   0.167977 
21   0.192622 
22   0.192295 
23   0.156858 
24   0.152402 
25   0.347763 
 
$$$$ 
 
