PCCDB-ID:  10492 
public computational chemistry database (PCCDB) project, http://pccdb.org 
 
 29 30  0  0  1  0  0  0  0  0999 V2000 
    2.9564   -2.1522   -9.4823 C   0  0  0  0  0  0  0  0  0  0  0  0 
    2.9213   -4.3466   -8.3513 C   0  0  0  0  0  0  0  0  0  0  0  0 
    1.0158   -2.1948   -6.8515 C   0  0  0  0  0  0  0  0  0  0  0  0 
    4.6427   -3.2866   -6.2021 C   0  0  0  0  0  0  0  0  0  0  0  0 
    3.1876   -3.0107   -5.7132 C   0  0  0  0  0  0  0  0  0  0  0  0 
    4.6526   -1.0627   -7.3143 C   0  0  0  0  0  0  0  0  0  0  0  0 
    4.6780   -2.5865   -7.5807 C   0  0  2  0  0  0  0  0  0  0  0  0 
    3.1793   -0.8043   -6.8635 C   0  0  1  0  0  0  0  0  0  0  0  0 
    3.2448   -2.8560   -8.1415 C   0  0  0  0  0  0  0  0  0  0  0  0 
    2.5387   -2.2187   -6.8850 C   0  0  2  0  0  0  0  0  0  0  0  0 
    3.0476   -0.2300   -5.5632 O   0  0  0  0  0  0  0  0  0  0  0  0 
    3.5613   -2.6018  -10.2796 H   0  0  0  0  0  0  0  0  0  0  0  0 
    3.1704   -1.0809   -9.4794 H   0  0  0  0  0  0  0  0  0  0  0  0 
    1.9045   -2.2760   -9.7668 H   0  0  0  0  0  0  0  0  0  0  0  0 
    3.0574   -4.9574   -7.4562 H   0  0  0  0  0  0  0  0  0  0  0  0 
    3.5618   -4.7656   -9.1375 H   0  0  0  0  0  0  0  0  0  0  0  0 
    1.8822   -4.4724   -8.6792 H   0  0  0  0  0  0  0  0  0  0  0  0 
    0.6637   -1.6927   -5.9434 H   0  0  0  0  0  0  0  0  0  0  0  0 
    0.5974   -3.2083   -6.8581 H   0  0  0  0  0  0  0  0  0  0  0  0 
    0.6001   -1.6528   -7.7104 H   0  0  0  0  0  0  0  0  0  0  0  0 
    4.8454   -4.3589   -6.2914 H   0  0  0  0  0  0  0  0  0  0  0  0 
    5.3974   -2.8746   -5.5236 H   0  0  0  0  0  0  0  0  0  0  0  0 
    3.1572   -2.4261   -4.7918 H   0  0  0  0  0  0  0  0  0  0  0  0 
    2.6383   -3.9400   -5.5273 H   0  0  0  0  0  0  0  0  0  0  0  0 
    4.9126   -0.4837   -8.2073 H   0  0  0  0  0  0  0  0  0  0  0  0 
    5.3509   -0.7749   -6.5204 H   0  0  0  0  0  0  0  0  0  0  0  0 
    5.5024   -2.9108   -8.2257 H   0  0  0  0  0  0  0  0  0  0  0  0 
    2.6597   -0.1575   -7.5851 H   0  0  0  0  0  0  0  0  0  0  0  0 
    3.3792    0.6793   -5.6118 H   0  0  0  0  0  0  0  0  0  0  0  0 
  1 13  1  0  0  0  0 
  1  9  1  0  0  0  0 
  2  9  1  0  0  0  0 
  2 15  1  0  0  0  0 
  3 18  1  0  0  0  0 
  4  5  1  0  0  0  0 
  4 22  1  0  0  0  0 
  5 24  1  0  0  0  0 
  5 23  1  0  0  0  0 
  6  8  1  0  0  0  0 
  6 26  1  0  0  0  0 
  7 27  1  6  0  0  0 
  7  6  1  0  0  0  0 
  7  4  1  0  0  0  0 
  8 28  1  6  0  0  0 
  8 11  1  0  0  0  0 
  9  7  1  0  0  0  0 
  9 10  1  0  0  0  0 
 10  8  1  0  0  0  0 
 10  3  1  6  0  0  0 
 10  5  1  0  0  0  0 
 12  1  1  0  0  0  0 
 14  1  1  0  0  0  0 
 16  2  1  0  0  0  0 
 17  2  1  0  0  0  0 
 19  3  1  0  0  0  0 
 20  3  1  0  0  0  0 
 21  4  1  0  0  0  0 
 25  6  1  0  0  0  0 
 29 11  1  0  0  0  0 
M  END 
>  <HBA> 
1 
 
>  <HBD> 
1 
 
>  <TPSA> 
20.23 
 
>  <cid> 
10492 
 
>  <dipole> 
1.4 
 
>  <excitation_energy_1> 
6.14 
 
>  <excitation_energy_2> 
6.843 
 
>  <excitation_energy_3> 
6.858 
 
>  <excitation_energy_4> 
6.962 
 
>  <homo_energy> 
-6.939 
 
>  <homo_lumo_gap> 
8.792 
 
>  <logP> 
2.193 
 
>  <lumo_energy> 
1.853 
 
>  <melting_point> 
71.93 
 
>  <molecular_refractivity> 
46.6 
 
>  <oscillator_strength_1> 
0.0029 
 
>  <oscillator_strength_2> 
0.0092 
 
>  <oscillator_strength_3> 
0.0106 
 
>  <oscillator_strength_4> 
0.007 
 
>  <open_babel_can_smiles> 
O[C@H]1C[C@@H]2C([C@@]1(C)CC2)(C)C 
 
>  <mulliken_charges> 
29 
1   -0.469476 
2   -0.466769 
3   -0.481137 
4   -0.280925 
5   -0.292727 
6   -0.306184 
7   -0.093902 
8   0.134027 
9   0.097053 
10   0.080991 
11   -0.639406 
12   0.140245 
13   0.14236 
14   0.143273 
15   0.147909 
16   0.138643 
17   0.141617 
18   0.160044 
19   0.138814 
20   0.134376 
21   0.132913 
22   0.13191 
23   0.166221 
24   0.12894 
25   0.131918 
26   0.133893 
27   0.105699 
28   0.110464 
29   0.389218 
 
>  <lowdin_charges> 
29 
1   -0.44606 
2   -0.446469 
3   -0.445924 
4   -0.2848 
5   -0.289619 
6   -0.308656 
7   -0.133606 
8   -0.013358 
9   0.003042 
10   -0.003244 
11   -0.462448 
12   0.15052 
13   0.146522 
14   0.148078 
15   0.153054 
16   0.149608 
17   0.147889 
18   0.159938 
19   0.147119 
20   0.145828 
21   0.1401 
22   0.144366 
23   0.160264 
24   0.14103 
25   0.143069 
26   0.147456 
27   0.136647 
28   0.12707 
29   0.342584 
 
$$$$ 
 
