PCCDB-ID:  27520 
public computational chemistry database (PCCDB) project, http://pccdb.org 
 
 20 20  0  0  0  0  0  0  0  0999 V2000 
    0.9251    0.0540    0.0127 C   0  0  0  0  0  0  0  0  0  0  0  0 
    3.1449    1.2721   -0.0939 C   0  0  0  0  0  0  0  0  0  0  0  0 
    5.2344    0.0648   -0.1606 C   0  0  0  0  0  0  0  0  0  0  0  0 
    2.4355    0.0644   -0.0541 C   0  0  0  0  0  0  0  0  0  0  0  0 
    4.5437    1.2842   -0.1487 C   0  0  0  0  0  0  0  0  0  0  0  0 
    4.5480   -1.1528   -0.1233 C   0  0  0  0  0  0  0  0  0  0  0  0 
    3.1418   -1.1394   -0.0667 C   0  0  0  0  0  0  0  0  0  0  0  0 
    5.2468    2.5004   -0.2553 N   0  0  0  0  0  0  0  0  0  0  0  0 
    5.2133   -2.3800   -0.1896 N   0  0  0  0  0  0  0  0  0  0  0  0 
    2.5324   -2.3839   -0.0156 O   0  0  0  0  0  0  0  0  0  0  0  0 
    0.5275    1.0726    0.0140 H   0  0  0  0  0  0  0  0  0  0  0  0 
    0.5517   -0.4365    0.9242 H   0  0  0  0  0  0  0  0  0  0  0  0 
    0.4778   -0.4668   -0.8461 H   0  0  0  0  0  0  0  0  0  0  0  0 
    2.5961    2.2113   -0.0920 H   0  0  0  0  0  0  0  0  0  0  0  0 
    6.3214    0.0579   -0.2166 H   0  0  0  0  0  0  0  0  0  0  0  0 
    4.7549    3.2871    0.1532 H   0  0  0  0  0  0  0  0  0  0  0  0 
    6.1916    2.4558    0.1096 H   0  0  0  0  0  0  0  0  0  0  0  0 
    6.1467   -2.3746    0.2022 H   0  0  0  0  0  0  0  0  0  0  0  0 
    4.6597   -3.1561    0.1522 H   0  0  0  0  0  0  0  0  0  0  0  0 
    1.5786   -2.2621    0.0942 H   0  0  0  0  0  0  0  0  0  0  0  0 
  1 11  1  0  0  0  0 
  1 12  1  0  0  0  0 
  2 14  1  0  0  0  0 
  2  4  2  0  0  0  0 
  3  5  2  0  0  0  0 
  3  6  1  0  0  0  0 
  4  1  1  0  0  0  0 
  5  2  1  0  0  0  0 
  6  7  2  0  0  0  0 
  7  4  1  0  0  0  0 
  7 10  1  0  0  0  0 
  8  5  1  0  0  0  0 
  8 17  1  0  0  0  0 
  8 16  1  0  0  0  0 
  9  6  1  0  0  0  0 
  9 19  1  0  0  0  0 
  9 18  1  0  0  0  0 
 10 20  1  0  0  0  0 
 13  1  1  0  0  0  0 
 15  3  1  0  0  0  0 
M  END 
>  <HBA> 
3 
 
>  <HBD> 
3 
 
>  <TPSA> 
72.27 
 
>  <cid> 
27520 
 
>  <dipole> 
2.57 
 
>  <excitation_energy_1> 
4.023 
 
>  <excitation_energy_2> 
4.266 
 
>  <excitation_energy_3> 
4.353 
 
>  <excitation_energy_4> 
4.658 
 
>  <homo_energy> 
-4.574 
 
>  <homo_lumo_gap> 
5.181 
 
>  <logP> 
2.027 
 
>  <lumo_energy> 
0.607 
 
>  <melting_point> 
148.44 
 
>  <molecular_refractivity> 
42.24 
 
>  <oscillator_strength_1> 
0.0032 
 
>  <oscillator_strength_2> 
0.0106 
 
>  <oscillator_strength_3> 
0.0587 
 
>  <oscillator_strength_4> 
0.0056 
 
>  <open_babel_can_smiles> 
Nc1cc(C)c(c(c1)N)O 
 
>  <mulliken_charges> 
20 
1   -0.576731 
2   -0.260568 
3   -0.244184 
4   0.166184 
5   0.311918 
6   0.290858 
7   0.210872 
8   -0.790286 
9   -0.794821 
10   -0.681815 
11   0.167452 
12   0.153363 
13   0.161741 
14   0.10022 
15   0.10219 
16   0.311668 
17   0.3107 
18   0.312682 
19   0.336052 
20   0.412507 
 
>  <lowdin_charges> 
20 
1   -0.451518 
2   -0.233149 
3   -0.237634 
4   -0.032804 
5   0.052884 
6   0.045122 
7   0.036948 
8   -0.498139 
9   -0.489451 
10   -0.408977 
11   0.164788 
12   0.151885 
13   0.156658 
14   0.147319 
15   0.146153 
16   0.270751 
17   0.268345 
18   0.27137 
19   0.283457 
20   0.355992 
 
$$$$ 
 
