PCCDB-ID:  61005 
public computational chemistry database (PCCDB) project, http://pccdb.org 
 
 31 31  0  0  0  0  0  0  0  0999 V2000 
    5.5154    2.8007   -0.1440 C   0  0  0  0  0  0  0  0  0  0  0  0 
    3.0239    2.6057   -0.6142 C   0  0  0  0  0  0  0  0  0  0  0  0 
   10.2456   -3.3981   -5.3880 C   0  0  0  0  0  0  0  0  0  0  0  0 
   10.1884   -2.4319   -4.3865 C   0  0  0  0  0  0  0  0  0  0  0  0 
    9.0550   -3.9514   -5.8720 C   0  0  0  0  0  0  0  0  0  0  0  0 
    8.9618   -2.0112   -3.8621 C   0  0  0  0  0  0  0  0  0  0  0  0 
    7.8276   -3.5443   -5.3612 C   0  0  0  0  0  0  0  0  0  0  0  0 
    6.3977   -1.2718   -2.8810 C   0  0  0  0  0  0  0  0  0  0  0  0 
    4.9020   -1.1238   -2.6262 C   0  0  0  0  0  0  0  0  0  0  0  0 
    4.3490    1.8421   -0.4399 C   0  0  0  0  0  0  0  0  0  0  0  0 
    7.7774   -2.5712   -4.3530 C   0  0  0  0  0  0  0  0  0  0  0  0 
    4.6463    1.0600   -1.7102 C   0  0  0  0  0  0  0  0  0  0  0  0 
    4.8360    1.5583   -2.7993 O   0  0  0  0  0  0  0  0  0  0  0  0 
    6.5237   -2.2374   -3.9154 O   0  0  0  0  0  0  0  0  0  0  0  0 
    4.6694   -0.2788   -1.4823 O   0  0  0  0  0  0  0  0  0  0  0  0 
    5.3006    3.3912    0.7532 H   0  0  0  0  0  0  0  0  0  0  0  0 
    5.6677    3.4862   -0.9837 H   0  0  0  0  0  0  0  0  0  0  0  0 
    6.4507    2.2553    0.0257 H   0  0  0  0  0  0  0  0  0  0  0  0 
    2.8062    3.1929    0.2845 H   0  0  0  0  0  0  0  0  0  0  0  0 
    2.1854    1.9209   -0.7832 H   0  0  0  0  0  0  0  0  0  0  0  0 
    3.0861    3.2873   -1.4685 H   0  0  0  0  0  0  0  0  0  0  0  0 
   11.2029   -3.7188   -5.7882 H   0  0  0  0  0  0  0  0  0  0  0  0 
   11.1046   -1.9920   -4.0011 H   0  0  0  0  0  0  0  0  0  0  0  0 
    9.0828   -4.7060   -6.6538 H   0  0  0  0  0  0  0  0  0  0  0  0 
    8.9415   -1.2566   -3.0838 H   0  0  0  0  0  0  0  0  0  0  0  0 
    6.8943   -3.9624   -5.7255 H   0  0  0  0  0  0  0  0  0  0  0  0 
    6.9040   -1.6094   -1.9658 H   0  0  0  0  0  0  0  0  0  0  0  0 
    6.8242   -0.3090   -3.1880 H   0  0  0  0  0  0  0  0  0  0  0  0 
    4.4637   -2.0903   -2.3699 H   0  0  0  0  0  0  0  0  0  0  0  0 
    4.4041   -0.7090   -3.5050 H   0  0  0  0  0  0  0  0  0  0  0  0 
    4.2488    1.1249    0.3813 H   0  0  0  0  0  0  0  0  0  0  0  0 
  1 18  1  0  0  0  0 
  1 16  1  0  0  0  0 
  2 10  1  0  0  0  0 
  2 19  1  0  0  0  0 
  3  4  1  0  0  0  0 
  4 23  1  0  0  0  0 
  4  6  2  0  0  0  0 
  5  3  2  0  0  0  0 
  5  7  1  0  0  0  0 
  6 25  1  0  0  0  0 
  7 11  2  0  0  0  0 
  8  9  1  0  0  0  0 
  8 27  1  0  0  0  0 
  9 29  1  0  0  0  0 
  9 15  1  0  0  0  0 
 10  1  1  0  0  0  0 
 10 31  1  0  0  0  0 
 11 14  1  0  0  0  0 
 11  6  1  0  0  0  0 
 12 15  1  0  0  0  0 
 12 10  1  0  0  0  0 
 13 12  2  0  0  0  0 
 14  8  1  0  0  0  0 
 17  1  1  0  0  0  0 
 20  2  1  0  0  0  0 
 21  2  1  0  0  0  0 
 22  3  1  0  0  0  0 
 24  5  1  0  0  0  0 
 26  7  1  0  0  0  0 
 28  8  1  0  0  0  0 
 30  9  1  0  0  0  0 
M  END 
>  <HBA> 
3 
 
>  <HBD> 
0 
 
>  <TPSA> 
35.53 
 
>  <cid> 
61005 
 
>  <dipole> 
2.01 
 
>  <excitation_energy_1> 
5.075 
 
>  <excitation_energy_2> 
5.505 
 
>  <excitation_energy_3> 
5.594 
 
>  <excitation_energy_4> 
5.772 
 
>  <homo_energy> 
-5.948 
 
>  <homo_lumo_gap> 
5.995 
 
>  <logP> 
2.265 
 
>  <lumo_energy> 
0.046 
 
>  <melting_point> 
17.54 
 
>  <molecular_refractivity> 
58.25 
 
>  <oscillator_strength_1> 
0.0301 
 
>  <oscillator_strength_2> 
0.0002 
 
>  <oscillator_strength_3> 
0.0003 
 
>  <oscillator_strength_4> 
0.0039 
 
>  <open_babel_can_smiles> 
CC(C(=O)OCCOc1ccccc1)C 
 
>  <mulliken_charges> 
31 
1   -0.45028 
2   -0.450816 
3   -0.132585 
4   -0.137914 
5   -0.132772 
6   -0.192749 
7   -0.174319 
8   -0.049625 
9   -0.067205 
10   -0.156207 
11   0.379438 
12   0.621237 
13   -0.482111 
14   -0.529012 
15   -0.465386 
16   0.149799 
17   0.170526 
18   0.149508 
19   0.15001 
20   0.153096 
21   0.170221 
22   0.125953 
23   0.130084 
24   0.130546 
25   0.134285 
26   0.136096 
27   0.147737 
28   0.167754 
29   0.168428 
30   0.18342 
31   0.152842 
 
>  <lowdin_charges> 
31 
1   -0.439488 
2   -0.439248 
3   -0.178704 
4   -0.146474 
5   -0.145588 
6   -0.212079 
7   -0.184003 
8   -0.139253 
9   -0.138057 
10   -0.143129 
11   0.103477 
12   0.202059 
13   -0.269363 
14   -0.201965 
15   -0.19296 
16   0.154244 
17   0.162737 
18   0.152591 
19   0.154388 
20   0.15495 
21   0.1624 
22   0.157059 
23   0.158329 
24   0.15878 
25   0.162854 
26   0.16585 
27   0.142762 
28   0.152936 
29   0.161572 
30   0.167064 
31   0.15626 
 
$$$$ 
 
