PCCDB-ID:  43669 
public computational chemistry database (PCCDB) project, http://pccdb.org 
 
 36 37  0  0  0  0  0  0  0  0999 V2000 
    0.3410   -0.4327   -0.3210 C   0  0  0  0  0  0  0  0  0  0  0  0 
    4.2742    3.7252   -0.2246 C   0  0  0  0  0  0  0  0  0  0  0  0 
    9.6021   -0.2770   -0.6853 C   0  0  0  0  0  0  0  0  0  0  0  0 
    9.4454    0.6081    1.5423 C   0  0  0  0  0  0  0  0  0  0  0  0 
    2.6474   -1.3776    0.1336 C   0  0  0  0  0  0  0  0  0  0  0  0 
    4.0174   -1.2659    0.3359 C   0  0  0  0  0  0  0  0  0  0  0  0 
    7.2672    2.5134    0.3915 C   0  0  0  0  0  0  0  0  0  0  0  0 
    8.4355    1.8087   -0.3240 C   0  0  0  0  0  0  0  0  0  0  0  0 
    2.4107    1.0142   -0.1787 C   0  0  0  0  0  0  0  0  0  0  0  0 
    1.8296   -0.2503   -0.1220 C   0  0  0  0  0  0  0  0  0  0  0  0 
    4.6827    2.3009    0.0071 C   0  0  0  0  0  0  0  0  0  0  0  0 
    3.7947    1.1652    0.0166 C   0  0  0  0  0  0  0  0  0  0  0  0 
    5.9472    1.8101    0.2619 C   0  0  0  0  0  0  0  0  0  0  0  0 
    4.5827    0.0125    0.2787 C   0  0  0  0  0  0  0  0  0  0  0  0 
    5.8823    0.4362    0.4444 N   0  0  0  0  0  0  0  0  0  0  0  0 
    8.7796    0.4944    0.2453 N   0  0  0  0  0  0  0  0  0  0  0  0 
    0.1242   -1.1732   -1.1016 H   0  0  0  0  0  0  0  0  0  0  0  0 
   -0.1386    0.5074   -0.6133 H   0  0  0  0  0  0  0  0  0  0  0  0 
   -0.1516   -0.7828    0.5960 H   0  0  0  0  0  0  0  0  0  0  0  0 
    3.7174    3.8355   -1.1649 H   0  0  0  0  0  0  0  0  0  0  0  0 
    5.1384    4.3960   -0.2769 H   0  0  0  0  0  0  0  0  0  0  0  0 
    3.6216    4.1003    0.5759 H   0  0  0  0  0  0  0  0  0  0  0  0 
    9.8120   -1.2637   -0.2593 H   0  0  0  0  0  0  0  0  0  0  0  0 
   10.5692    0.2119   -0.9083 H   0  0  0  0  0  0  0  0  0  0  0  0 
    9.0635   -0.4181   -1.6278 H   0  0  0  0  0  0  0  0  0  0  0  0 
    9.6490   -0.3930    1.9361 H   0  0  0  0  0  0  0  0  0  0  0  0 
    8.8018    1.1245    2.2596 H   0  0  0  0  0  0  0  0  0  0  0  0 
   10.4047    1.1566    1.4811 H   0  0  0  0  0  0  0  0  0  0  0  0 
    2.1861   -2.3622    0.1734 H   0  0  0  0  0  0  0  0  0  0  0  0 
    4.6267   -2.1448    0.5321 H   0  0  0  0  0  0  0  0  0  0  0  0 
    7.1775    3.5199   -0.0312 H   0  0  0  0  0  0  0  0  0  0  0  0 
    7.5212    2.6616    1.4514 H   0  0  0  0  0  0  0  0  0  0  0  0 
    9.3184    2.4767   -0.3257 H   0  0  0  0  0  0  0  0  0  0  0  0 
    8.1546    1.6493   -1.3711 H   0  0  0  0  0  0  0  0  0  0  0  0 
    1.7890    1.8851   -0.3771 H   0  0  0  0  0  0  0  0  0  0  0  0 
    6.7292   -0.1215    0.4990 H   0  0  0  0  0  0  0  0  0  0  0  0 
  1 10  1  0  0  0  0 
  1 19  1  0  0  0  0 
  2 11  1  0  0  0  0 
  2 22  1  0  0  0  0 
  3 23  1  0  0  0  0 
  3 16  1  0  0  0  0 
  4 26  1  0  0  0  0 
  4 27  1  0  0  0  0 
  5 29  1  0  0  0  0 
  5  6  2  0  0  0  0 
  6 30  1  0  0  0  0 
  7 32  1  0  0  0  0 
  8 16  1  0  0  0  0 
  8  7  1  0  0  0  0 
  9 10  2  0  0  0  0 
  9 12  1  0  0  0  0 
 10  5  1  0  0  0  0 
 11 12  1  0  0  0  0 
 11 13  2  0  0  0  0 
 12 14  2  0  0  0  0 
 13  7  1  0  0  0  0 
 13 15  1  0  0  0  0 
 14  6  1  0  0  0  0 
 14 15  1  0  0  0  0 
 15 36  1  0  0  0  0 
 16  4  1  0  0  0  0 
 17  1  1  0  0  0  0 
 18  1  1  0  0  0  0 
 20  2  1  0  0  0  0 
 21  2  1  0  0  0  0 
 24  3  1  0  0  0  0 
 25  3  1  0  0  0  0 
 28  4  1  0  0  0  0 
 31  7  1  0  0  0  0 
 33  8  1  0  0  0  0 
 34  8  1  0  0  0  0 
 35  9  1  0  0  0  0 
M  END 
>  <HBA> 
1 
 
>  <HBD> 
1 
 
>  <TPSA> 
19.03 
 
>  <cid> 
43669 
 
>  <dipole> 
3.74 
 
>  <excitation_energy_1> 
4.356 
 
>  <excitation_energy_2> 
4.571 
 
>  <excitation_energy_3> 
4.615 
 
>  <excitation_energy_4> 
4.768 
 
>  <homo_energy> 
-4.874 
 
>  <homo_lumo_gap> 
5.132 
 
>  <logP> 
2.889 
 
>  <lumo_energy> 
0.259 
 
>  <melting_point> 
110.09 
 
>  <molecular_refractivity> 
70.51 
 
>  <oscillator_strength_1> 
0.0908 
 
>  <oscillator_strength_2> 
0.0196 
 
>  <oscillator_strength_3> 
0.045 
 
>  <oscillator_strength_4> 
0.0009 
 
>  <open_babel_can_smiles> 
CN(CCc1[nH]c2c(c1C)cc(cc2)C)C 
 
>  <mulliken_charges> 
36 
1   -0.530276 
2   -0.534736 
3   -0.298173 
4   -0.305999 
5   -0.203969 
6   -0.168244 
7   -0.367815 
8   -0.121954 
9   -0.279014 
10   0.17918 
11   0.040088 
12   0.086049 
13   0.282754 
14   0.322631 
15   -0.750739 
16   -0.391676 
17   0.150949 
18   0.148039 
19   0.153463 
20   0.153433 
21   0.143043 
22   0.15464 
23   0.152547 
24   0.127306 
25   0.158951 
26   0.154741 
27   0.162303 
28   0.127491 
29   0.108509 
30   0.114548 
31   0.155235 
32   0.157143 
33   0.12021 
34   0.151216 
35   0.108255 
36   0.339871 
 
>  <lowdin_charges> 
36 
1   -0.442574 
2   -0.439736 
3   -0.357318 
4   -0.361948 
5   -0.177964 
6   -0.18785 
7   -0.280448 
8   -0.199674 
9   -0.182048 
10   -0.018174 
11   -0.078374 
12   -0.034696 
13   0.012888 
14   0.028448 
15   -0.218582 
16   -0.185071 
17   0.154153 
18   0.152712 
19   0.154622 
20   0.154304 
21   0.151189 
22   0.155215 
23   0.151538 
24   0.12684 
25   0.154452 
26   0.153207 
27   0.156358 
28   0.126827 
29   0.14895 
30   0.152965 
31   0.16143 
32   0.151932 
33   0.126183 
34   0.150479 
35   0.14995 
36   0.289818 
 
$$$$ 
 
