PCCDB-ID:  25935 
public computational chemistry database (PCCDB) project, http://pccdb.org 
 
 16 15  0  0  0  0  0  0  0  0999 V2000 
    1.9526    0.3755    0.9863 C   0  0  0  0  0  0  0  0  0  0  0  0 
    1.1886    1.4380    0.2109 C   0  0  0  0  0  0  0  0  0  0  0  0 
   -0.5762    1.6492   -1.3796 C   0  0  0  0  0  0  0  0  0  0  0  0 
   -1.5447    0.8202   -2.2261 C   0  0  0  0  0  0  0  0  0  0  0  0 
    2.9007    1.0672    1.7844 O   0  0  0  0  0  0  0  0  0  0  0  0 
   -2.3473    1.3323   -2.9652 O   0  0  0  0  0  0  0  0  0  0  0  0 
   -1.4243   -0.5114   -2.0804 O   0  0  0  0  0  0  0  0  0  0  0  0 
    0.2250    0.7788   -0.6014 O   0  0  0  0  0  0  0  0  0  0  0  0 
    2.4337   -0.3146    0.2761 H   0  0  0  0  0  0  0  0  0  0  0  0 
    1.2437   -0.2065    1.5952 H   0  0  0  0  0  0  0  0  0  0  0  0 
    1.8840    2.0202   -0.4111 H   0  0  0  0  0  0  0  0  0  0  0  0 
    0.6954    2.1285    0.9104 H   0  0  0  0  0  0  0  0  0  0  0  0 
   -1.1641    2.3307   -0.7477 H   0  0  0  0  0  0  0  0  0  0  0  0 
    0.0354    2.2633   -2.0569 H   0  0  0  0  0  0  0  0  0  0  0  0 
    3.3973    0.4130    2.2974 H   0  0  0  0  0  0  0  0  0  0  0  0 
   -0.7106   -0.6686   -1.4294 H   0  0  0  0  0  0  0  0  0  0  0  0 
  1 10  1  0  0  0  0 
  1  5  1  0  0  0  0 
  2 12  1  0  0  0  0 
  2  1  1  0  0  0  0 
  3 13  1  0  0  0  0 
  3  8  1  0  0  0  0 
  4  7  1  0  0  0  0 
  4  3  1  0  0  0  0 
  5 15  1  0  0  0  0 
  6  4  2  0  0  0  0 
  7 16  1  0  0  0  0 
  8  2  1  0  0  0  0 
  9  1  1  0  0  0  0 
 11  2  1  0  0  0  0 
 14  3  1  0  0  0  0 
M  END 
>  <HBA> 
4 
 
>  <HBD> 
2 
 
>  <TPSA> 
66.76 
 
>  <cid> 
25935 
 
>  <dipole> 
5.1 
 
>  <excitation_energy_1> 
5.803 
 
>  <excitation_energy_2> 
6.564 
 
>  <excitation_energy_3> 
6.865 
 
>  <excitation_energy_4> 
6.986 
 
>  <homo_energy> 
-7.366 
 
>  <homo_lumo_gap> 
7.701 
 
>  <logP> 
-0.92 
 
>  <lumo_energy> 
0.335 
 
>  <melting_point> 
61.59 
 
>  <molecular_refractivity> 
25.36 
 
>  <oscillator_strength_1> 
0.0004 
 
>  <oscillator_strength_2> 
0.0012 
 
>  <oscillator_strength_3> 
0.0166 
 
>  <oscillator_strength_4> 
0.0049 
 
>  <open_babel_can_smiles> 
OCCOCC(=O)O 
 
>  <mulliken_charges> 
16 
1   -0.051699 
2   -0.015756 
3   -0.109169 
4   0.574484 
5   -0.617797 
6   -0.446927 
7   -0.568464 
8   -0.520314 
9   0.135993 
10   0.136593 
11   0.149976 
12   0.149991 
13   0.174649 
14   0.173996 
15   0.402558 
16   0.431885 
 
>  <lowdin_charges> 
16 
1   -0.142299 
2   -0.133024 
3   -0.172366 
4   0.183296 
5   -0.467388 
6   -0.244353 
7   -0.347105 
8   -0.284154 
9   0.135445 
10   0.136054 
11   0.145047 
12   0.145032 
13   0.164253 
14   0.16393 
15   0.353358 
16   0.364274 
 
$$$$ 
 
