PCCDB-ID:  8247 
public computational chemistry database (PCCDB) project, http://pccdb.org 
 
 21 21  0  0  0  0  0  0  0  0999 V2000 
    0.9939    0.9668    0.4312 C   0  0  0  0  0  0  0  0  0  0  0  0 
    4.8814    5.9417   -2.6659 C   0  0  0  0  0  0  0  0  0  0  0  0 
    5.2568    4.5969   -2.7024 C   0  0  0  0  0  0  0  0  0  0  0  0 
    3.7169    6.3009   -1.9837 C   0  0  0  0  0  0  0  0  0  0  0  0 
    4.4829    3.6285   -2.0681 C   0  0  0  0  0  0  0  0  0  0  0  0 
    2.9297    5.3430   -1.3469 C   0  0  0  0  0  0  0  0  0  0  0  0 
    0.9104    2.4481    0.7022 C   0  0  0  0  0  0  0  0  0  0  0  0 
    3.3117    3.9941   -1.3851 C   0  0  0  0  0  0  0  0  0  0  0  0 
    1.5942    3.3684    0.1427 N   0  0  0  0  0  0  0  0  0  0  0  0 
    2.5248    2.9850   -0.8060 N   0  0  0  0  0  0  0  0  0  0  0  0 
    0.0433    2.8679    1.6743 O   0  0  0  0  0  0  0  0  0  0  0  0 
    1.7599    0.4806    1.0504 H   0  0  0  0  0  0  0  0  0  0  0  0 
    1.2395    0.7895   -0.6209 H   0  0  0  0  0  0  0  0  0  0  0  0 
    0.0395    0.4702    0.6405 H   0  0  0  0  0  0  0  0  0  0  0  0 
    5.4869    6.6961   -3.1598 H   0  0  0  0  0  0  0  0  0  0  0  0 
    6.1616    4.2959   -3.2246 H   0  0  0  0  0  0  0  0  0  0  0  0 
    3.4125    7.3439   -1.9432 H   0  0  0  0  0  0  0  0  0  0  0  0 
    4.7830    2.5825   -2.1024 H   0  0  0  0  0  0  0  0  0  0  0  0 
    2.0299    5.6195   -0.8109 H   0  0  0  0  0  0  0  0  0  0  0  0 
    3.0374    2.1298   -0.6112 H   0  0  0  0  0  0  0  0  0  0  0  0 
   -0.5274    2.1274    1.9258 H   0  0  0  0  0  0  0  0  0  0  0  0 
  1 14  1  0  0  0  0 
  1  7  1  0  0  0  0 
  1 12  1  0  0  0  0 
  2  4  1  0  0  0  0 
  3  2  2  0  0  0  0 
  3  5  1  0  0  0  0 
  4 17  1  0  0  0  0 
  4  6  2  0  0  0  0 
  5  8  2  0  0  0  0 
  6 19  1  0  0  0  0 
  7 11  1  0  0  0  0 
  8  6  1  0  0  0  0 
  8 10  1  0  0  0  0 
  9  7  2  0  0  0  0 
 10 20  1  0  0  0  0 
 10  9  1  0  0  0  0 
 11 21  1  0  0  0  0 
 13  1  1  0  0  0  0 
 15  2  1  0  0  0  0 
 16  3  1  0  0  0  0 
 18  5  1  0  0  0  0 
M  END 
>  <HBA> 
3 
 
>  <HBD> 
2 
 
>  <TPSA> 
41.13 
 
>  <cid> 
8247 
 
>  <dipole> 
4.47 
 
>  <excitation_energy_1> 
4.127 
 
>  <excitation_energy_2> 
4.405 
 
>  <excitation_energy_3> 
4.586 
 
>  <excitation_energy_4> 
4.73 
 
>  <homo_energy> 
-4.977 
 
>  <homo_lumo_gap> 
5.195 
 
>  <logP> 
1.613 
 
>  <lumo_energy> 
0.218 
 
>  <melting_point> 
85.77 
 
>  <molecular_refractivity> 
43.56 
 
>  <oscillator_strength_1> 
0.0086 
 
>  <oscillator_strength_2> 
0.0289 
 
>  <oscillator_strength_3> 
0.083 
 
>  <oscillator_strength_4> 
0.3538 
 
>  <open_babel_can_smiles> 
C/C(=N\Nc1ccccc1)/O 
 
>  <mulliken_charges> 
21 
1   -0.562769 
2   -0.134562 
3   -0.136171 
4   -0.141414 
5   -0.190554 
6   -0.155881 
7   0.493306 
8   0.351425 
9   -0.276214 
10   -0.548284 
11   -0.582089 
12   0.184871 
13   0.192058 
14   0.158189 
15   0.118852 
16   0.122293 
17   0.12501 
18   0.108899 
19   0.155107 
20   0.312499 
21   0.40543 
 
>  <lowdin_charges> 
21 
1   -0.481243 
2   -0.187599 
3   -0.149713 
4   -0.144864 
5   -0.200695 
6   -0.187785 
7   0.098488 
8   0.053233 
9   -0.129417 
10   -0.217717 
11   -0.369947 
12   0.173796 
13   0.175378 
14   0.163461 
15   0.155175 
16   0.15471 
17   0.154299 
18   0.146712 
19   0.173627 
20   0.263649 
21   0.356452 
 
$$$$ 
 
