PCCDB-ID:  10703 
public computational chemistry database (PCCDB) project, http://pccdb.org 
 
 24 24  0  0  0  0  0  0  0  0999 V2000 
    2.8548    0.0034   -1.6547 C   0  0  0  0  0  0  0  0  0  0  0  0 
    0.8979    0.1754   -0.0314 C   0  0  0  0  0  0  0  0  0  0  0  0 
    1.4431   -3.0238   -0.9793 C   0  0  0  0  0  0  0  0  0  0  0  0 
    3.8464   -3.6717    1.8966 C   0  0  0  0  0  0  0  0  0  0  0  0 
    4.2644   -2.3927    2.2514 C   0  0  0  0  0  0  0  0  0  0  0  0 
    2.9398   -3.8221    0.8488 C   0  0  0  0  0  0  0  0  0  0  0  0 
    3.7670   -1.2957    1.5496 C   0  0  0  0  0  0  0  0  0  0  0  0 
    2.4017   -0.1265   -0.1866 C   0  0  0  0  0  0  0  0  0  0  0  0 
    2.4292   -2.7288    0.1339 C   0  0  0  0  0  0  0  0  0  0  0  0 
    2.8538   -1.4246    0.4912 C   0  0  0  0  0  0  0  0  0  0  0  0 
    2.6654    1.0217   -2.0157 H   0  0  0  0  0  0  0  0  0  0  0  0 
    2.3186   -0.6800   -2.3201 H   0  0  0  0  0  0  0  0  0  0  0  0 
    3.9268   -0.1973   -1.7561 H   0  0  0  0  0  0  0  0  0  0  0  0 
    0.6858    1.1977   -0.3674 H   0  0  0  0  0  0  0  0  0  0  0  0 
    0.5848    0.0917    1.0150 H   0  0  0  0  0  0  0  0  0  0  0  0 
    0.2720   -0.4964   -0.6264 H   0  0  0  0  0  0  0  0  0  0  0  0 
    1.2951   -4.1039   -1.0764 H   0  0  0  0  0  0  0  0  0  0  0  0 
    1.7853   -2.6548   -1.9517 H   0  0  0  0  0  0  0  0  0  0  0  0 
    0.4602   -2.5782   -0.7930 H   0  0  0  0  0  0  0  0  0  0  0  0 
    4.2185   -4.5450    2.4259 H   0  0  0  0  0  0  0  0  0  0  0  0 
    4.9703   -2.2446    3.0645 H   0  0  0  0  0  0  0  0  0  0  0  0 
    2.6115   -4.8212    0.5705 H   0  0  0  0  0  0  0  0  0  0  0  0 
    4.0982   -0.2981    1.8305 H   0  0  0  0  0  0  0  0  0  0  0  0 
    2.9224    0.6734    0.3563 H   0  0  0  0  0  0  0  0  0  0  0  0 
  1  8  1  0  0  0  0 
  2 15  1  0  0  0  0 
  3 19  1  0  0  0  0 
  3  9  1  0  0  0  0 
  4  5  1  0  0  0  0 
  4 20  1  0  0  0  0 
  5 21  1  0  0  0  0 
  6  4  2  0  0  0  0 
  7 23  1  0  0  0  0 
  7  5  2  0  0  0  0 
  8  2  1  0  0  0  0 
  8 24  1  0  0  0  0 
  8 10  1  0  0  0  0 
  9 10  2  0  0  0  0 
  9  6  1  0  0  0  0 
 10  7  1  0  0  0  0 
 11  1  1  0  0  0  0 
 12  1  1  0  0  0  0 
 13  1  1  0  0  0  0 
 14  2  1  0  0  0  0 
 16  2  1  0  0  0  0 
 17  3  1  0  0  0  0 
 18  3  1  0  0  0  0 
 22  6  1  0  0  0  0 
M  END 
>  <HBA> 
0 
 
>  <HBD> 
0 
 
>  <TPSA> 
0.0 
 
>  <cid> 
10703 
 
>  <dipole> 
0.43 
 
>  <excitation_energy_1> 
5.222 
 
>  <excitation_energy_2> 
5.783 
 
>  <excitation_energy_3> 
5.886 
 
>  <excitation_energy_4> 
6.081 
 
>  <homo_energy> 
-6.267 
 
>  <homo_lumo_gap> 
6.387 
 
>  <logP> 
3.118 
 
>  <lumo_energy> 
0.12 
 
>  <melting_point> 
10.66 
 
>  <molecular_refractivity> 
45.99 
 
>  <oscillator_strength_1> 
0.0 
 
>  <oscillator_strength_2> 
0.0262 
 
>  <oscillator_strength_3> 
0.0003 
 
>  <oscillator_strength_4> 
0.0027 
 
>  <open_babel_can_smiles> 
CC(c1ccccc1C)C 
 
>  <mulliken_charges> 
24 
1   -0.446284 
2   -0.446775 
3   -0.541134 
4   -0.126423 
5   -0.124972 
6   -0.184082 
7   -0.200767 
8   -0.154043 
9   0.122658 
10   0.130449 
11   0.140645 
12   0.146041 
13   0.149779 
14   0.140608 
15   0.149481 
16   0.145998 
17   0.151987 
18   0.163289 
19   0.16418 
20   0.12482 
21   0.124483 
22   0.118521 
23   0.12083 
24   0.130711 
 
>  <lowdin_charges> 
24 
1   -0.444354 
2   -0.445214 
3   -0.444459 
4   -0.162231 
5   -0.161456 
6   -0.16695 
7   -0.168951 
8   -0.118349 
9   -0.004746 
10   -0.011917 
11   0.147794 
12   0.148907 
13   0.151378 
14   0.147774 
15   0.151734 
16   0.149326 
17   0.153699 
18   0.158581 
19   0.158957 
20   0.156541 
21   0.155835 
22   0.15144 
23   0.151277 
24   0.145383 
 
$$$$ 
 
