PCCDB-ID:  12265 
public computational chemistry database (PCCDB) project, http://pccdb.org 
 
 16 16  0  0  0  0  0  0  0  0999 V2000 
    0.8851    0.0035   -0.0717 C   0  0  0  0  0  0  0  0  0  0  0  0 
    5.6266    1.6505   -0.0718 C   0  0  0  0  0  0  0  0  0  0  0  0 
    3.2078   -1.2077   -0.0743 C   0  0  0  0  0  0  0  0  0  0  0  0 
    4.5551   -0.7396   -0.0748 C   0  0  0  0  0  0  0  0  0  0  0  0 
    2.3763   -0.1076   -0.0731 C   0  0  0  0  0  0  0  0  0  0  0  0 
    4.5252    0.6391   -0.0739 C   0  0  0  0  0  0  0  0  0  0  0  0 
    3.1932    1.0071   -0.0717 N   0  0  0  0  0  0  0  0  0  0  0  0 
    0.4386   -0.9948   -0.0484 H   0  0  0  0  0  0  0  0  0  0  0  0 
    0.5017    0.5139   -0.9665 H   0  0  0  0  0  0  0  0  0  0  0  0 
    0.5076    0.5527    0.8023 H   0  0  0  0  0  0  0  0  0  0  0  0 
    6.5957    1.1434   -0.0744 H   0  0  0  0  0  0  0  0  0  0  0  0 
    5.5979    2.2994    0.8149 H   0  0  0  0  0  0  0  0  0  0  0  0 
    5.5962    2.3052   -0.9543 H   0  0  0  0  0  0  0  0  0  0  0  0 
    2.8788   -2.2389   -0.0740 H   0  0  0  0  0  0  0  0  0  0  0  0 
    5.4525   -1.3446   -0.0758 H   0  0  0  0  0  0  0  0  0  0  0  0 
    2.8619    1.9605   -0.0762 H   0  0  0  0  0  0  0  0  0  0  0  0 
  1  8  1  0  0  0  0 
  1 10  1  0  0  0  0 
  2 12  1  0  0  0  0 
  3 14  1  0  0  0  0 
  3  5  2  0  0  0  0 
  4  3  1  0  0  0  0 
  4  6  2  0  0  0  0 
  5  7  1  0  0  0  0 
  5  1  1  0  0  0  0 
  6  2  1  0  0  0  0 
  6  7  1  0  0  0  0 
  9  1  1  0  0  0  0 
 11  2  1  0  0  0  0 
 13  2  1  0  0  0  0 
 15  4  1  0  0  0  0 
 16  7  1  0  0  0  0 
M  END 
>  <HBA> 
0 
 
>  <HBD> 
1 
 
>  <TPSA> 
15.79 
 
>  <cid> 
12265 
 
>  <dipole> 
1.94 
 
>  <excitation_energy_1> 
4.46 
 
>  <excitation_energy_2> 
5.028 
 
>  <excitation_energy_3> 
5.378 
 
>  <excitation_energy_4> 
5.625 
 
>  <homo_energy> 
-5.015 
 
>  <homo_lumo_gap> 
6.357 
 
>  <logP> 
1.631 
 
>  <lumo_energy> 
1.342 
 
>  <melting_point> 
59.26 
 
>  <molecular_refractivity> 
30.72 
 
>  <oscillator_strength_1> 
0.0 
 
>  <oscillator_strength_2> 
0.0001 
 
>  <oscillator_strength_3> 
0.0 
 
>  <oscillator_strength_4> 
0.0006 
 
>  <open_babel_can_smiles> 
Cc1ccc([nH]1)C 
 
>  <mulliken_charges> 
16 
1   -0.531624 
2   -0.531487 
3   -0.218326 
4   -0.218491 
5   0.333034 
6   0.333053 
7   -0.650924 
8   0.167327 
9   0.153416 
10   0.152812 
11   0.167306 
12   0.153231 
13   0.152935 
14   0.111303 
15   0.11128 
16   0.315155 
 
>  <lowdin_charges> 
16 
1   -0.444709 
2   -0.444001 
3   -0.229073 
4   -0.230912 
5   0.001404 
6   0.000942 
7   -0.193472 
8   0.167154 
9   0.15426 
10   0.154298 
11   0.167324 
12   0.154054 
13   0.153939 
14   0.153085 
15   0.154555 
16   0.281153 
 
$$$$ 
 
