PCCDB-ID:  9097 
public computational chemistry database (PCCDB) project, http://pccdb.org 
 
 34 35  0  0  0  0  0  0  0  0999 V2000 
   -1.1623    1.3231    1.2147 C   0  0  0  0  0  0  0  0  0  0  0  0 
   -0.0006    1.8586    0.3668 C   0  0  0  0  0  0  0  0  0  0  0  0 
    0.9855   -3.7851   -2.1877 C   0  0  0  0  0  0  0  0  0  0  0  0 
   -1.8413    0.0484    0.6867 C   0  0  0  0  0  0  0  0  0  0  0  0 
    1.1050    0.8448    0.0227 C   0  0  0  0  0  0  0  0  0  0  0  0 
    1.8708   -3.1838   -1.0857 C   0  0  0  0  0  0  0  0  0  0  0  0 
   -0.0172   -2.7525   -2.7190 C   0  0  0  0  0  0  0  0  0  0  0  0 
   -0.9502   -1.2080    0.7648 C   0  0  0  0  0  0  0  0  0  0  0  0 
    0.6694   -0.2304   -0.9949 C   0  0  0  0  0  0  0  0  0  0  0  0 
    1.0375   -2.5426    0.0378 C   0  0  0  0  0  0  0  0  0  0  0  0 
   -0.8601   -2.1683   -1.5746 C   0  0  0  0  0  0  0  0  0  0  0  0 
   -0.0220   -1.5113   -0.4432 C   0  0  0  0  0  0  0  0  0  0  0  0 
   -1.9134    2.1185    1.3148 H   0  0  0  0  0  0  0  0  0  0  0  0 
   -0.7998    1.1192    2.2336 H   0  0  0  0  0  0  0  0  0  0  0  0 
    0.4459    2.7130    0.8935 H   0  0  0  0  0  0  0  0  0  0  0  0 
   -0.3984    2.2602   -0.5774 H   0  0  0  0  0  0  0  0  0  0  0  0 
    0.4308   -4.6430   -1.7784 H   0  0  0  0  0  0  0  0  0  0  0  0 
    1.6074   -4.1755   -3.0035 H   0  0  0  0  0  0  0  0  0  0  0  0 
   -2.1996    0.2070   -0.3402 H   0  0  0  0  0  0  0  0  0  0  0  0 
   -2.7410   -0.1266    1.2914 H   0  0  0  0  0  0  0  0  0  0  0  0 
    1.4953    0.3808    0.9398 H   0  0  0  0  0  0  0  0  0  0  0  0 
    1.9470    1.4039   -0.4067 H   0  0  0  0  0  0  0  0  0  0  0  0 
    2.5435   -2.4365   -1.5286 H   0  0  0  0  0  0  0  0  0  0  0  0 
    2.5212   -3.9585   -0.6589 H   0  0  0  0  0  0  0  0  0  0  0  0 
   -0.6799   -3.2137   -3.4630 H   0  0  0  0  0  0  0  0  0  0  0  0 
    0.5207   -1.9500   -3.2424 H   0  0  0  0  0  0  0  0  0  0  0  0 
   -1.5853   -2.0913    0.9158 H   0  0  0  0  0  0  0  0  0  0  0  0 
   -0.3384   -1.1340    1.6755 H   0  0  0  0  0  0  0  0  0  0  0  0 
    1.5471   -0.5336   -1.5762 H   0  0  0  0  0  0  0  0  0  0  0  0 
   -0.0002    0.2524   -1.7214 H   0  0  0  0  0  0  0  0  0  0  0  0 
    1.7061   -2.0682    0.7702 H   0  0  0  0  0  0  0  0  0  0  0  0 
    0.5123   -3.3422    0.5816 H   0  0  0  0  0  0  0  0  0  0  0  0 
   -1.4549   -2.9848   -1.1376 H   0  0  0  0  0  0  0  0  0  0  0  0 
   -1.5815   -1.4409   -1.9702 H   0  0  0  0  0  0  0  0  0  0  0  0 
  1 13  1  0  0  0  0 
  1 14  1  0  0  0  0 
  2 15  1  0  0  0  0 
  2  1  1  0  0  0  0 
  3 17  1  0  0  0  0 
  3  6  1  0  0  0  0 
  4  8  1  0  0  0  0 
  4  1  1  0  0  0  0 
  4 20  1  0  0  0  0 
  5  2  1  0  0  0  0 
  5 21  1  0  0  0  0 
  6 24  1  0  0  0  0 
  6 10  1  0  0  0  0 
  7  3  1  0  0  0  0 
  7 11  1  0  0  0  0 
  8 27  1  0  0  0  0 
  8 28  1  0  0  0  0 
  9 12  1  0  0  0  0 
  9  5  1  0  0  0  0 
 10 32  1  0  0  0  0 
 10 31  1  0  0  0  0 
 11 33  1  0  0  0  0 
 11 12  1  0  0  0  0 
 12 10  1  0  0  0  0 
 12  8  1  0  0  0  0 
 16  2  1  0  0  0  0 
 18  3  1  0  0  0  0 
 19  4  1  0  0  0  0 
 22  5  1  0  0  0  0 
 23  6  1  0  0  0  0 
 25  7  1  0  0  0  0 
 26  7  1  0  0  0  0 
 29  9  1  0  0  0  0 
 30  9  1  0  0  0  0 
 34 11  1  0  0  0  0 
M  END 
>  <HBA> 
0 
 
>  <HBD> 
0 
 
>  <TPSA> 
0.0 
 
>  <cid> 
9097 
 
>  <dipole> 
0.05 
 
>  <excitation_energy_1> 
7.041 
 
>  <excitation_energy_2> 
7.075 
 
>  <excitation_energy_3> 
7.296 
 
>  <excitation_energy_4> 
7.389 
 
>  <homo_energy> 
-7.587 
 
>  <homo_lumo_gap> 
9.66 
 
>  <logP> 
4.291 
 
>  <lumo_energy> 
2.074 
 
>  <melting_point> 
33.3 
 
>  <molecular_refractivity> 
55.31 
 
>  <oscillator_strength_1> 
0.0009 
 
>  <oscillator_strength_2> 
0.0019 
 
>  <oscillator_strength_3> 
0.0039 
 
>  <oscillator_strength_4> 
0.0017 
 
>  <open_babel_can_smiles> 
C1CCC2(CC1)CCCCCC2 
 
>  <mulliken_charges> 
34 
1   -0.254602 
2   -0.253825 
3   -0.252277 
4   -0.262375 
5   -0.262549 
6   -0.266403 
7   -0.263859 
8   -0.276153 
9   -0.284178 
10   -0.275708 
11   -0.272984 
12   0.121049 
13   0.126123 
14   0.126187 
15   0.126021 
16   0.125963 
17   0.125321 
18   0.127398 
19   0.130948 
20   0.128716 
21   0.130843 
22   0.128183 
23   0.131619 
24   0.128714 
25   0.128117 
26   0.131899 
27   0.124827 
28   0.125156 
29   0.133641 
30   0.125474 
31   0.127225 
32   0.124054 
33   0.120537 
34   0.126897 
 
>  <lowdin_charges> 
34 
1   -0.276823 
2   -0.27807 
3   -0.279207 
4   -0.280931 
5   -0.282049 
6   -0.283806 
7   -0.282848 
8   -0.280302 
9   -0.286285 
10   -0.282125 
11   -0.280902 
12   0.001786 
13   0.141778 
14   0.134884 
15   0.141867 
16   0.135927 
17   0.136902 
18   0.142953 
19   0.138165 
20   0.14445 
21   0.139284 
22   0.144599 
23   0.138767 
24   0.144608 
25   0.143984 
26   0.14013 
27   0.141741 
28   0.138464 
29   0.144677 
30   0.139925 
31   0.141593 
32   0.1395 
33   0.136623 
34   0.140741 
 
$$$$ 
 
