PCCDB-ID:  70246 
public computational chemistry database (PCCDB) project, http://pccdb.org 
 
 25 24  0  0  0  0  0  0  0  0999 V2000 
    1.2085   -0.4513   -0.2864 C   0  0  0  0  0  0  0  0  0  0  0  0 
    0.4206   -1.7423   -0.0168 C   0  0  0  0  0  0  0  0  0  0  0  0 
    2.5790   -0.6384   -0.9628 C   0  0  0  0  0  0  0  0  0  0  0  0 
   -1.0152   -1.4848    0.4751 C   0  0  0  0  0  0  0  0  0  0  0  0 
    2.6047   -1.4254   -2.2847 C   0  0  0  0  0  0  0  0  0  0  0  0 
   -1.9678   -0.9305   -0.6089 C   0  0  0  0  0  0  0  0  0  0  0  0 
    1.7034   -0.9647   -3.4028 C   0  0  0  0  0  0  0  0  0  0  0  0 
   -2.2562   -1.9868   -1.6727 C   0  0  0  0  0  0  0  0  0  0  0  0 
    0.7239   -0.2512   -3.2855 O   0  0  0  0  0  0  0  0  0  0  0  0 
   -2.9719   -2.9385   -1.4677 O   0  0  0  0  0  0  0  0  0  0  0  0 
   -1.6370   -1.8484   -2.8711 O   0  0  0  0  0  0  0  0  0  0  0  0 
    1.3737    0.0642    0.6700 H   0  0  0  0  0  0  0  0  0  0  0  0 
    0.6123    0.2265   -0.9020 H   0  0  0  0  0  0  0  0  0  0  0  0 
    0.9533   -2.3454    0.7311 H   0  0  0  0  0  0  0  0  0  0  0  0 
    0.3725   -2.3606   -0.9235 H   0  0  0  0  0  0  0  0  0  0  0  0 
    3.2634   -1.1494   -0.2723 H   0  0  0  0  0  0  0  0  0  0  0  0 
    3.0137    0.3534   -1.1420 H   0  0  0  0  0  0  0  0  0  0  0  0 
   -0.9941   -0.7800    1.3167 H   0  0  0  0  0  0  0  0  0  0  0  0 
   -1.4499   -2.4173    0.8528 H   0  0  0  0  0  0  0  0  0  0  0  0 
    2.3379   -2.4835   -2.1235 H   0  0  0  0  0  0  0  0  0  0  0  0 
    3.6280   -1.4630   -2.6847 H   0  0  0  0  0  0  0  0  0  0  0  0 
   -1.5695   -0.0100   -1.0504 H   0  0  0  0  0  0  0  0  0  0  0  0 
   -2.9283   -0.6836   -0.1457 H   0  0  0  0  0  0  0  0  0  0  0  0 
    1.9742   -1.3602   -4.4064 H   0  0  0  0  0  0  0  0  0  0  0  0 
   -1.0671   -1.0574   -2.8979 H   0  0  0  0  0  0  0  0  0  0  0  0 
  1  2  1  0  0  0  0 
  1 12  1  0  0  0  0 
  2  4  1  0  0  0  0 
  2 14  1  0  0  0  0 
  3  1  1  0  0  0  0 
  3 16  1  0  0  0  0 
  4 19  1  0  0  0  0 
  4 18  1  0  0  0  0 
  5 20  1  0  0  0  0 
  5  3  1  0  0  0  0 
  6 23  1  0  0  0  0 
  6  4  1  0  0  0  0 
  7  9  2  0  0  0  0 
  7  5  1  0  0  0  0 
  8 10  2  0  0  0  0 
  8  6  1  0  0  0  0 
 11  8  1  0  0  0  0 
 13  1  1  0  0  0  0 
 15  2  1  0  0  0  0 
 17  3  1  0  0  0  0 
 21  5  1  0  0  0  0 
 22  6  1  0  0  0  0 
 24  7  1  0  0  0  0 
 25 11  1  0  0  0  0 
M  END 
>  <HBA> 
3 
 
>  <HBD> 
1 
 
>  <TPSA> 
54.37 
 
>  <cid> 
70246 
 
>  <dipole> 
5.67 
 
>  <excitation_energy_1> 
4.174 
 
>  <excitation_energy_2> 
5.027 
 
>  <excitation_energy_3> 
5.591 
 
>  <excitation_energy_4> 
6.046 
 
>  <homo_energy> 
-6.909 
 
>  <homo_lumo_gap> 
5.524 
 
>  <logP> 
1.611 
 
>  <lumo_energy> 
-1.385 
 
>  <melting_point> 
80.99 
 
>  <molecular_refractivity> 
42.54 
 
>  <oscillator_strength_1> 
0.0002 
 
>  <oscillator_strength_2> 
0.0024 
 
>  <oscillator_strength_3> 
0.0008 
 
>  <oscillator_strength_4> 
0.001 
 
>  <open_babel_can_smiles> 
O=CCCCCCCC(=O)O 
 
>  <mulliken_charges> 
25 
1   -0.262967 
2   -0.273953 
3   -0.259685 
4   -0.265793 
5   -0.35808 
6   -0.36268 
7   0.266899 
8   0.575474 
9   -0.41035 
10   -0.451649 
11   -0.592878 
12   0.132577 
13   0.159353 
14   0.136242 
15   0.137527 
16   0.141951 
17   0.146539 
18   0.138474 
19   0.16443 
20   0.187348 
21   0.164476 
22   0.145228 
23   0.17495 
24   0.126878 
25   0.439687 
 
>  <lowdin_charges> 
25 
1   -0.287054 
2   -0.286288 
3   -0.272569 
4   -0.268394 
5   -0.313774 
6   -0.316786 
7   0.079173 
8   0.189946 
9   -0.241998 
10   -0.257072 
11   -0.367492 
12   0.143596 
13   0.151852 
14   0.146169 
15   0.140839 
16   0.150175 
17   0.150853 
18   0.14602 
19   0.159505 
20   0.177245 
21   0.166634 
22   0.149738 
23   0.173354 
24   0.128812 
25   0.357515 
 
$$$$ 
 
