PCCDB-ID:  68490 
public computational chemistry database (PCCDB) project, http://pccdb.org 
 
 18 18  0  0  0  0  0  0  0  0999 V2000 
   -1.8779   -0.1835    0.0391 C   0  0  0  0  0  0  0  0  0  0  0  0 
   -1.2600    1.0624    0.1838 C   0  0  0  0  0  0  0  0  0  0  0  0 
   -1.1039   -1.3358   -0.1147 C   0  0  0  0  0  0  0  0  0  0  0  0 
    0.1280    1.1551    0.1739 C   0  0  0  0  0  0  0  0  0  0  0  0 
    0.2868   -1.2452   -0.1238 C   0  0  0  0  0  0  0  0  0  0  0  0 
    3.2945   -1.0756   -0.1635 C   0  0  0  0  0  0  0  0  0  0  0  0 
    0.9149    0.0023    0.0196 C   0  0  0  0  0  0  0  0  0  0  0  0 
    2.3947    0.1496    0.0136 C   0  0  0  0  0  0  0  0  0  0  0  0 
    4.6444   -0.7089   -0.1409 O   0  0  0  0  0  0  0  0  0  0  0  0 
    2.9382    1.2407    0.1467 O   0  0  0  0  0  0  0  0  0  0  0  0 
   -2.9622   -0.2562    0.0465 H   0  0  0  0  0  0  0  0  0  0  0  0 
   -1.8627    1.9584    0.3027 H   0  0  0  0  0  0  0  0  0  0  0  0 
   -1.5834   -2.3041   -0.2264 H   0  0  0  0  0  0  0  0  0  0  0  0 
    0.6292    2.1111    0.2843 H   0  0  0  0  0  0  0  0  0  0  0  0 
    0.8767   -2.1490   -0.2434 H   0  0  0  0  0  0  0  0  0  0  0  0 
    3.0370   -1.5689   -1.1155 H   0  0  0  0  0  0  0  0  0  0  0  0 
    3.0701   -1.7990    0.6379 H   0  0  0  0  0  0  0  0  0  0  0  0 
    4.6374    0.2615   -0.0144 H   0  0  0  0  0  0  0  0  0  0  0  0 
  1 11  1  0  0  0  0 
  1  2  2  0  0  0  0 
  2 12  1  0  0  0  0 
  3  1  1  0  0  0  0 
  4  2  1  0  0  0  0 
  4 14  1  0  0  0  0 
  5  3  2  0  0  0  0 
  5  7  1  0  0  0  0 
  6  9  1  0  0  0  0 
  6  8  1  0  0  0  0 
  6 17  1  0  0  0  0 
  7  4  2  0  0  0  0 
  8  7  1  0  0  0  0 
  8 10  2  0  0  0  0 
  9 18  1  0  0  0  0 
 13  3  1  0  0  0  0 
 15  5  1  0  0  0  0 
 16  6  1  0  0  0  0 
M  END 
>  <HBA> 
2 
 
>  <HBD> 
1 
 
>  <TPSA> 
37.3 
 
>  <cid> 
68490 
 
>  <dipole> 
4.09 
 
>  <excitation_energy_1> 
4.062 
 
>  <excitation_energy_2> 
4.546 
 
>  <excitation_energy_3> 
4.666 
 
>  <excitation_energy_4> 
5.196 
 
>  <homo_energy> 
-7.1 
 
>  <homo_lumo_gap> 
5.227 
 
>  <logP> 
0.862 
 
>  <lumo_energy> 
-1.872 
 
>  <melting_point> 
56.83 
 
>  <molecular_refractivity> 
37.8 
 
>  <oscillator_strength_1> 
0.0 
 
>  <oscillator_strength_2> 
0.0478 
 
>  <oscillator_strength_3> 
0.0599 
 
>  <oscillator_strength_4> 
0.1922 
 
>  <open_babel_can_smiles> 
OCC(=O)c1ccccc1 
 
>  <mulliken_charges> 
18 
1   -0.116651 
2   -0.132552 
3   -0.133541 
4   -0.153285 
5   -0.182367 
6   -0.07195 
7   0.090429 
8   0.349145 
9   -0.62995 
10   -0.478853 
11   0.143258 
12   0.143802 
13   0.142302 
14   0.168184 
15   0.146244 
16   0.152788 
17   0.152696 
18   0.410302 
 
>  <lowdin_charges> 
18 
1   -0.131359 
2   -0.153079 
3   -0.15426 
4   -0.123879 
5   -0.146117 
6   -0.166113 
7   -0.049117 
8   0.148448 
9   -0.460471 
10   -0.249933 
11   0.162175 
12   0.165039 
13   0.163732 
14   0.178504 
15   0.166189 
16   0.151619 
17   0.152237 
18   0.346384 
 
$$$$ 
 
