PCCDB-ID:  70642 
public computational chemistry database (PCCDB) project, http://pccdb.org 
 
 23 24  0  0  0  0  0  0  0  0999 V2000 
    1.1249   -0.1497    0.3679 C   0  0  0  0  0  0  0  0  0  0  0  0 
    8.3755    2.6287   -1.2020 C   0  0  0  0  0  0  0  0  0  0  0  0 
    6.9596   -0.7327   -1.1456 C   0  0  0  0  0  0  0  0  0  0  0  0 
    5.7835   -1.4287   -0.9132 C   0  0  0  0  0  0  0  0  0  0  0  0 
    3.3500    1.1292   -0.0765 C   0  0  0  0  0  0  0  0  0  0  0  0 
    5.8802    1.4105   -0.6838 C   0  0  0  0  0  0  0  0  0  0  0  0 
    2.5702    0.0004    0.0172 C   0  0  0  0  0  0  0  0  0  0  0  0 
    4.6758    0.7192   -0.4425 C   0  0  0  0  0  0  0  0  0  0  0  0 
    7.0101    0.6769   -1.0322 C   0  0  0  0  0  0  0  0  0  0  0  0 
    4.6465   -0.6944   -0.5612 C   0  0  0  0  0  0  0  0  0  0  0  0 
    3.3548   -1.1028   -0.2766 N   0  0  0  0  0  0  0  0  0  0  0  0 
    8.2435    1.2235   -1.2919 O   0  0  0  0  0  0  0  0  0  0  0  0 
    0.6752    0.8327    0.5345 H   0  0  0  0  0  0  0  0  0  0  0  0 
    0.9843   -0.7401    1.2836 H   0  0  0  0  0  0  0  0  0  0  0  0 
    0.5583   -0.6461   -0.4314 H   0  0  0  0  0  0  0  0  0  0  0  0 
    9.4170    2.8512   -1.4439 H   0  0  0  0  0  0  0  0  0  0  0  0 
    8.1536    2.9940   -0.1893 H   0  0  0  0  0  0  0  0  0  0  0  0 
    7.7200    3.1455   -1.9170 H   0  0  0  0  0  0  0  0  0  0  0  0 
    7.8711   -1.2528   -1.4216 H   0  0  0  0  0  0  0  0  0  0  0  0 
    5.7556   -2.5116   -1.0048 H   0  0  0  0  0  0  0  0  0  0  0  0 
    3.0084    2.1406    0.1001 H   0  0  0  0  0  0  0  0  0  0  0  0 
    5.9107    2.4906   -0.5953 H   0  0  0  0  0  0  0  0  0  0  0  0 
    3.0299   -2.0571   -0.2827 H   0  0  0  0  0  0  0  0  0  0  0  0 
  1 13  1  0  0  0  0 
  1 14  1  0  0  0  0 
  2 17  1  0  0  0  0 
  3  9  2  0  0  0  0 
  3  4  1  0  0  0  0 
  4 10  2  0  0  0  0 
  5  7  2  0  0  0  0 
  5 21  1  0  0  0  0 
  6 22  1  0  0  0  0 
  6  8  2  0  0  0  0 
  7  1  1  0  0  0  0 
  8  5  1  0  0  0  0 
  9  6  1  0  0  0  0 
 10  8  1  0  0  0  0 
 10 11  1  0  0  0  0 
 11  7  1  0  0  0  0 
 12  2  1  0  0  0  0 
 12  9  1  0  0  0  0 
 15  1  1  0  0  0  0 
 16  2  1  0  0  0  0 
 18  2  1  0  0  0  0 
 19  3  1  0  0  0  0 
 20  4  1  0  0  0  0 
 23 11  1  0  0  0  0 
M  END 
>  <HBA> 
1 
 
>  <HBD> 
1 
 
>  <TPSA> 
25.02 
 
>  <cid> 
70642 
 
>  <dipole> 
2.21 
 
>  <excitation_energy_1> 
4.499 
 
>  <excitation_energy_2> 
4.661 
 
>  <excitation_energy_3> 
4.699 
 
>  <excitation_energy_4> 
4.77 
 
>  <homo_energy> 
-5.129 
 
>  <homo_lumo_gap> 
5.165 
 
>  <logP> 
2.485 
 
>  <lumo_energy> 
0.035 
 
>  <melting_point> 
105.87 
 
>  <molecular_refractivity> 
49.76 
 
>  <oscillator_strength_1> 
0.0568 
 
>  <oscillator_strength_2> 
0.0 
 
>  <oscillator_strength_3> 
0.0 
 
>  <oscillator_strength_4> 
0.1684 
 
>  <open_babel_can_smiles> 
COc1ccc2c(c1)cc([nH]2)C 
 
>  <mulliken_charges> 
23 
1   -0.535181 
2   -0.206355 
3   -0.19404 
4   -0.169774 
5   -0.276188 
6   -0.28755 
7   0.357499 
8   0.115963 
9   0.37082 
10   0.319016 
11   -0.737162 
12   -0.516366 
13   0.172343 
14   0.162221 
15   0.160731 
16   0.162499 
17   0.14589 
18   0.145918 
19   0.130139 
20   0.119976 
21   0.117687 
22   0.123325 
23   0.318588 
 
>  <lowdin_charges> 
23 
1   -0.445418 
2   -0.276496 
3   -0.189434 
4   -0.175743 
5   -0.244338 
6   -0.222631 
7   0.034182 
8   -0.017297 
9   0.088657 
10   0.015644 
11   -0.20845 
12   -0.209413 
13   0.169974 
14   0.159969 
15   0.160404 
16   0.157506 
17   0.14073 
18   0.14283 
19   0.164421 
20   0.153271 
21   0.157588 
22   0.15794 
23   0.286105 
 
$$$$ 
 
