PCCDB-ID:  6913 
public computational chemistry database (PCCDB) project, http://pccdb.org 
 
 23 23  0  0  0  0  0  0  0  0999 V2000 
    0.9217   -0.0607   -0.0965 C   0  0  0  0  0  0  0  0  0  0  0  0 
    5.3063    2.4716   -0.0089 C   0  0  0  0  0  0  0  0  0  0  0  0 
    5.3010   -2.5935   -0.0126 C   0  0  0  0  0  0  0  0  0  0  0  0 
    3.1602    1.1350   -0.0598 C   0  0  0  0  0  0  0  0  0  0  0  0 
    3.1586   -1.2541   -0.0614 C   0  0  0  0  0  0  0  0  0  0  0  0 
    2.4333   -0.0572   -0.0740 C   0  0  0  0  0  0  0  0  0  0  0  0 
    4.5576    1.1607   -0.0374 C   0  0  0  0  0  0  0  0  0  0  0  0 
    4.5532   -1.2820   -0.0391 C   0  0  0  0  0  0  0  0  0  0  0  0 
    5.2619   -0.0602   -0.0322 C   0  0  0  0  0  0  0  0  0  0  0  0 
    6.6646   -0.0635    0.0491 N   0  0  0  0  0  0  0  0  0  0  0  0 
    0.5233    0.9589   -0.1240 H   0  0  0  0  0  0  0  0  0  0  0  0 
    0.5028   -0.5547    0.7900 H   0  0  0  0  0  0  0  0  0  0  0  0 
    0.5291   -0.5924   -0.9730 H   0  0  0  0  0  0  0  0  0  0  0  0 
    4.6136    3.3181    0.0070 H   0  0  0  0  0  0  0  0  0  0  0  0 
    5.9531    2.6017   -0.8903 H   0  0  0  0  0  0  0  0  0  0  0  0 
    5.9521    2.5519    0.8762 H   0  0  0  0  0  0  0  0  0  0  0  0 
    4.6076   -3.4395    0.0036 H   0  0  0  0  0  0  0  0  0  0  0  0 
    5.9480   -2.6744    0.8714 H   0  0  0  0  0  0  0  0  0  0  0  0 
    5.9463   -2.7232   -0.8951 H   0  0  0  0  0  0  0  0  0  0  0  0 
    2.6252    2.0833   -0.0654 H   0  0  0  0  0  0  0  0  0  0  0  0 
    2.6219   -2.2018   -0.0681 H   0  0  0  0  0  0  0  0  0  0  0  0 
    7.1085    0.7694   -0.3170 H   0  0  0  0  0  0  0  0  0  0  0  0 
    7.1054   -0.8956   -0.3226 H   0  0  0  0  0  0  0  0  0  0  0  0 
  1  6  1  0  0  0  0 
  1 12  1  0  0  0  0 
  2 14  1  0  0  0  0 
  2 16  1  0  0  0  0 
  3 17  1  0  0  0  0 
  3 18  1  0  0  0  0 
  4  7  2  0  0  0  0 
  5  8  1  0  0  0  0 
  6  5  2  0  0  0  0 
  6  4  1  0  0  0  0 
  7  9  1  0  0  0  0 
  7  2  1  0  0  0  0 
  8  9  2  0  0  0  0 
  8  3  1  0  0  0  0 
  9 10  1  0  0  0  0 
 11  1  1  0  0  0  0 
 13  1  1  0  0  0  0 
 15  2  1  0  0  0  0 
 19  3  1  0  0  0  0 
 20  4  1  0  0  0  0 
 21  5  1  0  0  0  0 
 22 10  1  0  0  0  0 
 23 10  1  0  0  0  0 
M  END 
>  <HBA> 
1 
 
>  <HBD> 
1 
 
>  <TPSA> 
26.02 
 
>  <cid> 
6913 
 
>  <dipole> 
1.58 
 
>  <excitation_energy_1> 
4.469 
 
>  <excitation_energy_2> 
4.69 
 
>  <excitation_energy_3> 
5.122 
 
>  <excitation_energy_4> 
5.161 
 
>  <homo_energy> 
-5.089 
 
>  <homo_lumo_gap> 
5.562 
 
>  <logP> 
2.775 
 
>  <lumo_energy> 
0.473 
 
>  <melting_point> 
66.99 
 
>  <molecular_refractivity> 
45.74 
 
>  <oscillator_strength_1> 
0.0102 
 
>  <oscillator_strength_2> 
0.0523 
 
>  <oscillator_strength_3> 
0.0003 
 
>  <oscillator_strength_4> 
0.0007 
 
>  <open_babel_can_smiles> 
Cc1cc(C)c(c(c1)C)N 
 
>  <mulliken_charges> 
23 
1   -0.532181 
2   -0.555693 
3   -0.555155 
4   -0.273286 
5   -0.266476 
6   0.202571 
7   0.185976 
8   0.184459 
9   0.158318 
10   -0.797421 
11   0.14932 
12   0.155291 
13   0.153815 
14   0.158952 
15   0.145035 
16   0.165305 
17   0.158921 
18   0.165734 
19   0.145308 
20   0.106298 
21   0.106266 
22   0.319412 
23   0.319232 
 
>  <lowdin_charges> 
23 
1   -0.441718 
2   -0.446091 
3   -0.446197 
4   -0.176532 
5   -0.17423 
6   -0.023713 
7   -0.039074 
8   -0.036288 
9   0.037727 
10   -0.498484 
11   0.152698 
12   0.156197 
13   0.155591 
14   0.16052 
15   0.147945 
16   0.158768 
17   0.160553 
18   0.159086 
19   0.148153 
20   0.147923 
21   0.148109 
22   0.274568 
23   0.274488 
 
$$$$ 
 
