PCCDB-ID:  70634 
public computational chemistry database (PCCDB) project, http://pccdb.org 
 
 21 22  0  0  1  0  0  0  0  0999 V2000 
   -1.5000   -0.1013    0.0827 C   0  0  0  0  0  0  0  0  0  0  0  0 
   -0.8877    1.1524    0.0204 C   0  0  0  0  0  0  0  0  0  0  0  0 
   -0.7181   -1.2558    0.0196 C   0  0  0  0  0  0  0  0  0  0  0  0 
    0.4986    1.2532   -0.0952 C   0  0  0  0  0  0  0  0  0  0  0  0 
    0.6682   -1.1540   -0.1040 C   0  0  0  0  0  0  0  0  0  0  0  0 
    3.4867    0.3252    1.1556 C   0  0  0  0  0  0  0  0  0  0  0  0 
    4.3993    1.8527   -0.2233 C   0  0  0  0  0  0  0  0  0  0  0  0 
    1.2892    0.0993   -0.1542 C   0  0  0  0  0  0  0  0  0  0  0  0 
    2.7957    0.1843   -0.2121 C   0  0  1  0  0  0  0  0  0  0  0  0 
    4.7167    0.9512    0.8138 O   0  0  0  0  0  0  0  0  0  0  0  0 
    3.2328    1.3726   -0.8830 O   0  0  0  0  0  0  0  0  0  0  0  0 
   -2.5805   -0.1779    0.1704 H   0  0  0  0  0  0  0  0  0  0  0  0 
   -1.4920    2.0552    0.0577 H   0  0  0  0  0  0  0  0  0  0  0  0 
   -1.1864   -2.2357    0.0587 H   0  0  0  0  0  0  0  0  0  0  0  0 
    0.9778    2.2246   -0.1609 H   0  0  0  0  0  0  0  0  0  0  0  0 
    1.2726   -2.0568   -0.1662 H   0  0  0  0  0  0  0  0  0  0  0  0 
    3.7056   -0.6266    1.6446 H   0  0  0  0  0  0  0  0  0  0  0  0 
    2.8852    0.9560    1.8284 H   0  0  0  0  0  0  0  0  0  0  0  0 
    5.2503    1.8911   -0.9137 H   0  0  0  0  0  0  0  0  0  0  0  0 
    4.1860    2.8604    0.1689 H   0  0  0  0  0  0  0  0  0  0  0  0 
    3.1993   -0.6982   -0.7310 H   0  0  0  0  0  0  0  0  0  0  0  0 
  1 12  1  0  0  0  0 
  2 13  1  0  0  0  0 
  2  1  1  0  0  0  0 
  3 14  1  0  0  0  0 
  3  1  2  0  0  0  0 
  4  2  2  0  0  0  0 
  5  3  1  0  0  0  0 
  6 17  1  0  0  0  0 
  6 18  1  0  0  0  0 
  7 20  1  0  0  0  0 
  7 10  1  0  0  0  0 
  8  5  2  0  0  0  0 
  8  4  1  0  0  0  0 
  9 21  1  6  0  0  0 
  9  8  1  0  0  0  0 
  9  6  1  0  0  0  0 
 10  6  1  0  0  0  0 
 11  7  1  0  0  0  0 
 11  9  1  0  0  0  0 
 15  4  1  0  0  0  0 
 16  5  1  0  0  0  0 
 19  7  1  0  0  0  0 
M  END 
>  <HBA> 
2 
 
>  <HBD> 
0 
 
>  <TPSA> 
18.46 
 
>  <cid> 
70634 
 
>  <dipole> 
1.15 
 
>  <excitation_energy_1> 
5.278 
 
>  <excitation_energy_2> 
5.758 
 
>  <excitation_energy_3> 
6.052 
 
>  <excitation_energy_4> 
6.075 
 
>  <homo_energy> 
-6.563 
 
>  <homo_lumo_gap> 
6.427 
 
>  <logP> 
1.732 
 
>  <lumo_energy> 
-0.136 
 
>  <melting_point> 
10.5 
 
>  <molecular_refractivity> 
41.08 
 
>  <oscillator_strength_1> 
0.0002 
 
>  <oscillator_strength_2> 
0.0563 
 
>  <oscillator_strength_3> 
0.0106 
 
>  <oscillator_strength_4> 
0.0031 
 
>  <open_babel_can_smiles> 
O1CO[C@@H](C1)c1ccccc1 
 
>  <mulliken_charges> 
21 
1   -0.126615 
2   -0.131424 
3   -0.131221 
4   -0.171639 
5   -0.181544 
6   -0.05283 
7   0.208863 
8   0.138163 
9   0.066478 
10   -0.475468 
11   -0.513953 
12   0.130441 
13   0.131638 
14   0.131122 
15   0.142272 
16   0.125101 
17   0.157969 
18   0.139942 
19   0.146161 
20   0.128938 
21   0.137604 
 
>  <lowdin_charges> 
21 
1   -0.154324 
2   -0.153887 
3   -0.154295 
4   -0.157635 
5   -0.167172 
6   -0.1474 
7   -0.006045 
8   -0.015198 
9   -0.005875 
10   -0.264337 
11   -0.277599 
12   0.156207 
13   0.158945 
14   0.158121 
15   0.164899 
16   0.155652 
17   0.15899 
18   0.140606 
19   0.143471 
20   0.125159 
21   0.141718 
 
$$$$ 
 
