PCCDB-ID:  30314 
public computational chemistry database (PCCDB) project, http://pccdb.org 
 
 34 35  0  0  0  0  0  0  0  0999 V2000 
    1.0419   -1.0845    1.1642 C   0  0  0  0  0  0  0  0  0  0  0  0 
    9.8806    1.8437    4.1420 C   0  0  0  0  0  0  0  0  0  0  0  0 
    2.9334    0.4127    0.3749 C   0  0  0  0  0  0  0  0  0  0  0  0 
    3.4107   -1.9002    0.7827 C   0  0  0  0  0  0  0  0  0  0  0  0 
    9.0596    1.9753    1.7461 C   0  0  0  0  0  0  0  0  0  0  0  0 
    8.1877    0.2371    3.1498 C   0  0  0  0  0  0  0  0  0  0  0  0 
    4.2604    0.6164   -0.0029 C   0  0  0  0  0  0  0  0  0  0  0  0 
    4.7367   -1.7010    0.4041 C   0  0  0  0  0  0  0  0  0  0  0  0 
    8.2845    1.5017    0.6845 C   0  0  0  0  0  0  0  0  0  0  0  0 
    7.4135   -0.2384    2.0954 C   0  0  0  0  0  0  0  0  0  0  0  0 
    2.4828   -0.8500    0.7744 C   0  0  0  0  0  0  0  0  0  0  0  0 
    9.0281    1.3505    2.9967 C   0  0  0  0  0  0  0  0  0  0  0  0 
    5.1840   -0.4341    0.0053 C   0  0  0  0  0  0  0  0  0  0  0  0 
    7.4491    0.3862    0.8389 C   0  0  0  0  0  0  0  0  0  0  0  0 
    6.6364   -0.1401   -0.3464 C   0  0  0  0  0  0  0  0  0  0  0  0 
    7.3403   -1.3114   -1.0807 C   0  0  0  0  0  0  0  0  0  0  0  0 
    6.7627   -2.1258   -1.7559 O   0  0  0  0  0  0  0  0  0  0  0  0 
    8.6909   -1.3307   -0.9899 O   0  0  0  0  0  0  0  0  0  0  0  0 
    0.4949   -0.1411    1.2599 H   0  0  0  0  0  0  0  0  0  0  0  0 
    0.9659   -1.6161    2.1202 H   0  0  0  0  0  0  0  0  0  0  0  0 
    0.5202   -1.6947    0.4155 H   0  0  0  0  0  0  0  0  0  0  0  0 
   10.1760    2.8883    4.0009 H   0  0  0  0  0  0  0  0  0  0  0  0 
   10.8015    1.2526    4.2345 H   0  0  0  0  0  0  0  0  0  0  0  0 
    9.3510    1.7669    5.0978 H   0  0  0  0  0  0  0  0  0  0  0  0 
    2.2374    1.2483    0.3531 H   0  0  0  0  0  0  0  0  0  0  0  0 
    3.0887   -2.8958    1.0808 H   0  0  0  0  0  0  0  0  0  0  0  0 
    9.6891    2.8498    1.5983 H   0  0  0  0  0  0  0  0  0  0  0  0 
    8.1365   -0.2634    4.1142 H   0  0  0  0  0  0  0  0  0  0  0  0 
    4.5819    1.6112   -0.3042 H   0  0  0  0  0  0  0  0  0  0  0  0 
    5.4170   -2.5459    0.3897 H   0  0  0  0  0  0  0  0  0  0  0  0 
    8.3196    2.0180   -0.2731 H   0  0  0  0  0  0  0  0  0  0  0  0 
    6.7592   -1.0911    2.2519 H   0  0  0  0  0  0  0  0  0  0  0  0 
    6.6317    0.6593   -1.1022 H   0  0  0  0  0  0  0  0  0  0  0  0 
    8.9823   -0.6443   -0.3614 H   0  0  0  0  0  0  0  0  0  0  0  0 
  1 19  1  0  0  0  0 
  1 20  1  0  0  0  0 
  2 23  1  0  0  0  0 
  2 24  1  0  0  0  0 
  3 11  2  0  0  0  0 
  4 26  1  0  0  0  0 
  5 12  2  0  0  0  0 
  6 28  1  0  0  0  0 
  7 13  2  0  0  0  0 
  7  3  1  0  0  0  0 
  8  4  2  0  0  0  0 
  9 14  2  0  0  0  0 
  9  5  1  0  0  0  0 
 10 32  1  0  0  0  0 
 10  6  2  0  0  0  0 
 11  4  1  0  0  0  0 
 11  1  1  0  0  0  0 
 12  6  1  0  0  0  0 
 12  2  1  0  0  0  0 
 13  8  1  0  0  0  0 
 14 10  1  0  0  0  0 
 15 13  1  0  0  0  0 
 15 14  1  0  0  0  0 
 16 18  1  0  0  0  0 
 16 15  1  0  0  0  0 
 17 16  2  0  0  0  0 
 18 34  1  0  0  0  0 
 21  1  1  0  0  0  0 
 22  2  1  0  0  0  0 
 25  3  1  0  0  0  0 
 27  5  1  0  0  0  0 
 29  7  1  0  0  0  0 
 30  8  1  0  0  0  0 
 31  9  1  0  0  0  0 
 33 15  1  0  0  0  0 
M  END 
>  <HBA> 
2 
 
>  <HBD> 
1 
 
>  <TPSA> 
37.3 
 
>  <cid> 
30314 
 
>  <dipole> 
4.95 
 
>  <excitation_energy_1> 
4.858 
 
>  <excitation_energy_2> 
5.006 
 
>  <excitation_energy_3> 
5.125 
 
>  <excitation_energy_4> 
5.237 
 
>  <homo_energy> 
-6.275 
 
>  <homo_lumo_gap> 
5.693 
 
>  <logP> 
3.52 
 
>  <lumo_energy> 
-0.582 
 
>  <melting_point> 
123.72 
 
>  <molecular_refractivity> 
72.41 
 
>  <oscillator_strength_1> 
0.0274 
 
>  <oscillator_strength_2> 
0.0493 
 
>  <oscillator_strength_3> 
0.0376 
 
>  <oscillator_strength_4> 
0.0135 
 
>  <open_babel_can_smiles> 
OC(=O)C(c1ccc(cc1)C)c1ccc(cc1)C 
 
>  <mulliken_charges> 
34 
1   -0.530821 
2   -0.530846 
3   -0.181711 
4   -0.18851 
5   -0.173976 
6   -0.178654 
7   -0.176929 
8   -0.167306 
9   -0.201002 
10   -0.154054 
11   0.180969 
12   0.178442 
13   0.192661 
14   0.0972 
15   -0.388941 
16   0.609788 
17   -0.442055 
18   -0.575908 
19   0.154415 
20   0.159882 
21   0.166979 
22   0.159956 
23   0.170356 
24   0.163613 
25   0.122038 
26   0.12454 
27   0.130994 
28   0.132135 
29   0.121702 
30   0.1427 
31   0.136347 
32   0.147304 
33   0.181829 
34   0.416863 
 
>  <lowdin_charges> 
34 
1   -0.44356 
2   -0.441077 
3   -0.168393 
4   -0.163438 
5   -0.164181 
6   -0.157864 
7   -0.159443 
8   -0.157662 
9   -0.181006 
10   -0.153739 
11   0.002929 
12   0.005447 
13   -0.001141 
14   -0.031126 
15   -0.162787 
16   0.192291 
17   -0.237061 
18   -0.35635 
19   0.156549 
20   0.159507 
21   0.16406 
22   0.158609 
23   0.164985 
24   0.161752 
25   0.155403 
26   0.155283 
27   0.158982 
28   0.159099 
29   0.153368 
30   0.165624 
31   0.158184 
32   0.168152 
33   0.177662 
34   0.360944 
 
$$$$ 
 
