PCCDB-ID:  61235 
public computational chemistry database (PCCDB) project, http://pccdb.org 
 
 28 27  0  0  0  0  0  0  0  0999 V2000 
    3.7403   -1.7683    1.9233 C   0  0  0  0  0  0  0  0  0  0  0  0 
   10.7892    2.7345    0.9986 C   0  0  0  0  0  0  0  0  0  0  0  0 
    4.6563   -1.3408    0.7707 C   0  0  0  0  0  0  0  0  0  0  0  0 
    9.4237    2.5345    0.3438 C   0  0  0  0  0  0  0  0  0  0  0  0 
    4.3408    0.0501    0.1921 C   0  0  0  0  0  0  0  0  0  0  0  0 
    4.4916    1.2322    1.1684 C   0  0  0  0  0  0  0  0  0  0  0  0 
    5.8961    1.4457    1.7576 C   0  0  0  0  0  0  0  0  0  0  0  0 
    6.9646    1.7930    0.7176 C   0  0  0  0  0  0  0  0  0  0  0  0 
    8.3374    2.0842    1.3177 C   0  0  0  0  0  0  0  0  0  0  0  0 
    8.5578    1.9636    2.5087 O   0  0  0  0  0  0  0  0  0  0  0  0 
    3.9679   -2.7901    2.2478 H   0  0  0  0  0  0  0  0  0  0  0  0 
    2.6859   -1.7428    1.6201 H   0  0  0  0  0  0  0  0  0  0  0  0 
    3.8496   -1.1157    2.7968 H   0  0  0  0  0  0  0  0  0  0  0  0 
   11.5273    3.0649    0.2603 H   0  0  0  0  0  0  0  0  0  0  0  0 
   11.1457    1.8046    1.4521 H   0  0  0  0  0  0  0  0  0  0  0  0 
   10.7350    3.4830    1.7943 H   0  0  0  0  0  0  0  0  0  0  0  0 
    4.5752   -2.0763   -0.0411 H   0  0  0  0  0  0  0  0  0  0  0  0 
    5.7024   -1.3795    1.1042 H   0  0  0  0  0  0  0  0  0  0  0  0 
    9.4785    1.7978   -0.4711 H   0  0  0  0  0  0  0  0  0  0  0  0 
    9.0788    3.4631   -0.1356 H   0  0  0  0  0  0  0  0  0  0  0  0 
    3.3079    0.0469   -0.1846 H   0  0  0  0  0  0  0  0  0  0  0  0 
    4.9766    0.2182   -0.6884 H   0  0  0  0  0  0  0  0  0  0  0  0 
    3.7845    1.1075    1.9993 H   0  0  0  0  0  0  0  0  0  0  0  0 
    4.1792    2.1498    0.6492 H   0  0  0  0  0  0  0  0  0  0  0  0 
    6.2190    0.5606    2.3177 H   0  0  0  0  0  0  0  0  0  0  0  0 
    5.8535    2.2552    2.4961 H   0  0  0  0  0  0  0  0  0  0  0  0 
    6.6585    2.6647    0.1185 H   0  0  0  0  0  0  0  0  0  0  0  0 
    7.0914    0.9802   -0.0127 H   0  0  0  0  0  0  0  0  0  0  0  0 
  1 11  1  0  0  0  0 
  1 13  1  0  0  0  0 
  2 15  1  0  0  0  0 
  2 16  1  0  0  0  0 
  3 18  1  0  0  0  0 
  3  1  1  0  0  0  0 
  4  2  1  0  0  0  0 
  4  9  1  0  0  0  0 
  5  3  1  0  0  0  0 
  5  6  1  0  0  0  0 
  6  7  1  0  0  0  0 
  6 23  1  0  0  0  0 
  7 25  1  0  0  0  0 
  7 26  1  0  0  0  0 
  8  9  1  0  0  0  0 
  8  7  1  0  0  0  0 
  9 10  2  0  0  0  0 
 12  1  1  0  0  0  0 
 14  2  1  0  0  0  0 
 17  3  1  0  0  0  0 
 19  4  1  0  0  0  0 
 20  4  1  0  0  0  0 
 21  5  1  0  0  0  0 
 22  5  1  0  0  0  0 
 24  6  1  0  0  0  0 
 27  8  1  0  0  0  0 
 28  8  1  0  0  0  0 
M  END 
>  <HBA> 
1 
 
>  <HBD> 
0 
 
>  <TPSA> 
17.07 
 
>  <cid> 
61235 
 
>  <dipole> 
2.5 
 
>  <excitation_energy_1> 
4.447 
 
>  <excitation_energy_2> 
6.019 
 
>  <excitation_energy_3> 
6.588 
 
>  <excitation_energy_4> 
6.635 
 
>  <homo_energy> 
-6.569 
 
>  <homo_lumo_gap> 
6.359 
 
>  <logP> 
2.936 
 
>  <lumo_energy> 
-0.21 
 
>  <melting_point> 
-7.16 
 
>  <molecular_refractivity> 
45.58 
 
>  <oscillator_strength_1> 
0.0 
 
>  <oscillator_strength_2> 
0.0143 
 
>  <oscillator_strength_3> 
0.0038 
 
>  <oscillator_strength_4> 
0.0033 
 
>  <open_babel_can_smiles> 
CCCCCCC(=O)CC 
 
>  <mulliken_charges> 
28 
1   -0.443862 
2   -0.432377 
3   -0.251195 
4   -0.348409 
5   -0.255354 
6   -0.263898 
7   -0.250764 
8   -0.35793 
9   0.454047 
10   -0.445449 
11   0.142991 
12   0.140407 
13   0.148841 
14   0.138935 
15   0.159017 
16   0.161984 
17   0.130609 
18   0.134313 
19   0.155176 
20   0.158086 
21   0.1284 
22   0.12582 
23   0.136148 
24   0.124796 
25   0.152005 
26   0.146242 
27   0.151391 
28   0.160026 
 
>  <lowdin_charges> 
28 
1   -0.445405 
2   -0.441696 
3   -0.275668 
4   -0.309127 
5   -0.279406 
6   -0.280582 
7   -0.275789 
8   -0.312939 
9   0.160624 
10   -0.236508 
11   0.149613 
12   0.144436 
13   0.148767 
14   0.150711 
15   0.158125 
16   0.159939 
17   0.142627 
18   0.13809 
19   0.158971 
20   0.1608 
21   0.140057 
22   0.137477 
23   0.144657 
24   0.139548 
25   0.151469 
26   0.15292 
27   0.157282 
28   0.161006 
 
$$$$ 
 
