PCCDB-ID:  9934 
public computational chemistry database (PCCDB) project, http://pccdb.org 
 
 15 15  0  0  1  0  0  0  0  0999 V2000 
   -1.1529   -0.9231   -0.1130 C   0  0  0  0  0  0  0  0  0  0  0  0 
    0.6941    0.9654   -0.3348 C   0  0  0  0  0  0  0  0  0  0  0  0 
    0.3265   -1.3318    0.1134 C   0  0  1  0  0  0  0  0  0  0  0  0 
    0.9286   -2.0362   -1.1264 C   0  0  0  0  0  0  0  0  0  0  0  0 
    1.1551   -0.1654    0.4604 N   0  0  0  0  0  0  0  0  0  0  0  0 
    0.2977   -2.7769   -1.8394 O   0  0  0  0  0  0  0  0  0  0  0  0 
    2.2368   -1.7841   -1.3018 O   0  0  0  0  0  0  0  0  0  0  0  0 
   -1.1664    0.9033   -0.3880 S   0  0  0  0  0  0  0  0  0  0  0  0 
   -1.7648   -1.1438    0.7643 H   0  0  0  0  0  0  0  0  0  0  0  0 
   -1.5587   -1.4574   -0.9737 H   0  0  0  0  0  0  0  0  0  0  0  0 
    1.0905    0.8820   -1.3505 H   0  0  0  0  0  0  0  0  0  0  0  0 
    1.0229    1.9100    0.1016 H   0  0  0  0  0  0  0  0  0  0  0  0 
    0.3979   -2.0603    0.9297 H   0  0  0  0  0  0  0  0  0  0  0  0 
    1.0459    0.0473    1.4501 H   0  0  0  0  0  0  0  0  0  0  0  0 
    2.4774   -1.1281   -0.6057 H   0  0  0  0  0  0  0  0  0  0  0  0 
  1  3  1  0  0  0  0 
  1  9  1  0  0  0  0 
  2 12  1  0  0  0  0 
  2  5  1  0  0  0  0 
  3  5  1  0  0  0  0 
  3 13  1  1  0  0  0 
  4  3  1  0  0  0  0 
  5 14  1  0  0  0  0 
  6  4  2  0  0  0  0 
  7  4  1  0  0  0  0 
  7 15  1  0  0  0  0 
  8  2  1  0  0  0  0 
  8  1  1  0  0  0  0 
 10  1  1  0  0  0  0 
 11  2  1  0  0  0  0 
M  END 
>  <HBA> 
4 
 
>  <HBD> 
2 
 
>  <TPSA> 
74.63 
 
>  <cid> 
9934 
 
>  <dipole> 
4.55 
 
>  <excitation_energy_1> 
4.884 
 
>  <excitation_energy_2> 
4.924 
 
>  <excitation_energy_3> 
5.474 
 
>  <excitation_energy_4> 
5.776 
 
>  <homo_energy> 
-6.359 
 
>  <homo_lumo_gap> 
6.34 
 
>  <logP> 
0.062 
 
>  <lumo_energy> 
-0.019 
 
>  <melting_point> 
110.65 
 
>  <molecular_refractivity> 
35.31 
 
>  <oscillator_strength_1> 
0.0078 
 
>  <oscillator_strength_2> 
0.0005 
 
>  <oscillator_strength_3> 
0.0019 
 
>  <oscillator_strength_4> 
0.0051 
 
>  <open_babel_can_smiles> 
OC(=O)[C@@H]1CSCN1 
 
>  <mulliken_charges> 
15 
1   -0.433773 
2   -0.293939 
3   -0.103451 
4   0.6112 
5   -0.574024 
6   -0.448923 
7   -0.573502 
8   0.075528 
9   0.179655 
10   0.222505 
11   0.197516 
12   0.189429 
13   0.190212 
14   0.330211 
15   0.431356 
 
>  <lowdin_charges> 
15 
1   -0.386922 
2   -0.306302 
3   -0.115986 
4   0.178476 
5   -0.345601 
6   -0.242855 
7   -0.351055 
8   0.066247 
9   0.166927 
10   0.187909 
11   0.163038 
12   0.173806 
13   0.178051 
14   0.273042 
15   0.361227 
 
$$$$ 
 
