PCCDB-ID:  13877 
public computational chemistry database (PCCDB) project, http://pccdb.org 
 
 27 27  0  0  0  0  0  0  0  0999 V2000 
    1.2967   -0.5312   -0.0231 C   0  0  0  0  0  0  0  0  0  0  0  0 
    3.1429   -1.5239    1.3558 C   0  0  0  0  0  0  0  0  0  0  0  0 
    3.1623   -1.7793   -1.1450 C   0  0  0  0  0  0  0  0  0  0  0  0 
    7.9015    0.3793   -0.0614 C   0  0  0  0  0  0  0  0  0  0  0  0 
    7.2085    0.2866   -1.2695 C   0  0  0  0  0  0  0  0  0  0  0  0 
    7.1874    0.5256    1.1289 C   0  0  0  0  0  0  0  0  0  0  0  0 
    5.8138    0.3349   -1.2830 C   0  0  0  0  0  0  0  0  0  0  0  0 
    5.7928    0.5740    1.1085 C   0  0  0  0  0  0  0  0  0  0  0  0 
    3.5651    0.5222   -0.1137 C   0  0  0  0  0  0  0  0  0  0  0  0 
    5.0797    0.4705   -0.0952 C   0  0  0  0  0  0  0  0  0  0  0  0 
    2.8066   -0.8371    0.0195 C   0  0  0  0  0  0  0  0  0  0  0  0 
    0.7085   -1.4528    0.0650 H   0  0  0  0  0  0  0  0  0  0  0  0 
    1.0152   -0.0445   -0.9653 H   0  0  0  0  0  0  0  0  0  0  0  0 
    1.0016    0.1333    0.7986 H   0  0  0  0  0  0  0  0  0  0  0  0 
    2.5692   -2.4524    1.4653 H   0  0  0  0  0  0  0  0  0  0  0  0 
    2.8950   -0.8785    2.2081 H   0  0  0  0  0  0  0  0  0  0  0  0 
    4.2061   -1.7772    1.4233 H   0  0  0  0  0  0  0  0  0  0  0  0 
    2.5944   -2.7148   -1.0702 H   0  0  0  0  0  0  0  0  0  0  0  0 
    4.2274   -2.0334   -1.1473 H   0  0  0  0  0  0  0  0  0  0  0  0 
    2.9223   -1.3225   -2.1137 H   0  0  0  0  0  0  0  0  0  0  0  0 
    8.9877    0.3473   -0.0486 H   0  0  0  0  0  0  0  0  0  0  0  0 
    7.7537    0.1841   -2.2044 H   0  0  0  0  0  0  0  0  0  0  0  0 
    7.7161    0.6107    2.0750 H   0  0  0  0  0  0  0  0  0  0  0  0 
    5.2846    0.2745   -2.2313 H   0  0  0  0  0  0  0  0  0  0  0  0 
    5.2473    0.7014    2.0407 H   0  0  0  0  0  0  0  0  0  0  0  0 
    3.2369    0.9969   -1.0482 H   0  0  0  0  0  0  0  0  0  0  0  0 
    3.2225    1.1759    0.6999 H   0  0  0  0  0  0  0  0  0  0  0  0 
  1 11  1  0  0  0  0 
  1 12  1  0  0  0  0 
  1 14  1  0  0  0  0 
  2 17  1  0  0  0  0 
  2 15  1  0  0  0  0 
  2 16  1  0  0  0  0 
  3 18  1  0  0  0  0 
  3 11  1  0  0  0  0 
  4 21  1  0  0  0  0 
  4  6  2  0  0  0  0 
  5  4  1  0  0  0  0 
  6 23  1  0  0  0  0 
  7  5  2  0  0  0  0 
  7 10  1  0  0  0  0 
  8  6  1  0  0  0  0 
  8 25  1  0  0  0  0 
  9 10  1  0  0  0  0 
  9 11  1  0  0  0  0 
  9 27  1  0  0  0  0 
 10  8  2  0  0  0  0 
 11  2  1  0  0  0  0 
 13  1  1  0  0  0  0 
 19  3  1  0  0  0  0 
 20  3  1  0  0  0  0 
 22  5  1  0  0  0  0 
 24  7  1  0  0  0  0 
 26  9  1  0  0  0  0 
M  END 
>  <HBA> 
0 
 
>  <HBD> 
0 
 
>  <TPSA> 
0.0 
 
>  <cid> 
13877 
 
>  <dipole> 
0.18 
 
>  <excitation_energy_1> 
5.277 
 
>  <excitation_energy_2> 
5.806 
 
>  <excitation_energy_3> 
5.982 
 
>  <excitation_energy_4> 
6.163 
 
>  <homo_energy> 
-6.403 
 
>  <homo_lumo_gap> 
6.501 
 
>  <logP> 
3.275 
 
>  <lumo_energy> 
0.098 
 
>  <melting_point> 
23.18 
 
>  <molecular_refractivity> 
50.38 
 
>  <oscillator_strength_1> 
0.0002 
 
>  <oscillator_strength_2> 
0.0574 
 
>  <oscillator_strength_3> 
0.0078 
 
>  <oscillator_strength_4> 
0.0043 
 
>  <open_babel_can_smiles> 
CC(Cc1ccccc1)(C)C 
 
>  <mulliken_charges> 
27 
1   -0.438109 
2   -0.447978 
3   -0.44812 
4   -0.131793 
5   -0.129568 
6   -0.129386 
7   -0.182715 
8   -0.182532 
9   -0.349083 
10   0.175166 
11   0.105612 
12   0.139146 
13   0.137001 
14   0.137 
15   0.137222 
16   0.132437 
17   0.153632 
18   0.137286 
19   0.153656 
20   0.132448 
21   0.126677 
22   0.127096 
23   0.12705 
24   0.123721 
25   0.123729 
26   0.135217 
27   0.135186 
 
>  <lowdin_charges> 
27 
1   -0.443292 
2   -0.44556 
3   -0.444524 
4   -0.159135 
5   -0.157779 
6   -0.157609 
7   -0.167808 
8   -0.167941 
9   -0.276215 
10   -0.000891 
11   0.019034 
12   0.147834 
13   0.145972 
14   0.146655 
15   0.147337 
16   0.144193 
17   0.153102 
18   0.147274 
19   0.153075 
20   0.143355 
21   0.154256 
22   0.156578 
23   0.156441 
24   0.154469 
25   0.154661 
26   0.147927 
27   0.148588 
 
$$$$ 
 
