PCCDB-ID:  73172 
public computational chemistry database (PCCDB) project, http://pccdb.org 
 
 11 11  0  0  0  0  0  0  0  0999 V2000 
   -1.3170   -0.1164    0.0730 C   0  0  0  0  0  0  0  0  0  0  0  0 
   -0.6979    1.1382    0.0276 C   0  0  0  0  0  0  0  0  0  0  0  0 
    2.7665    0.2221   -0.1131 C   0  0  0  0  0  0  0  0  0  0  0  0 
    0.7109   -1.1308   -0.0006 C   0  0  0  0  0  0  0  0  0  0  0  0 
    1.3301    0.1285   -0.0476 C   0  0  0  0  0  0  0  0  0  0  0  0 
    3.9269    0.2553   -0.1646 N   0  0  0  0  0  0  0  0  0  0  0  0 
   -0.6165   -1.2548    0.0595 N   0  0  0  0  0  0  0  0  0  0  0  0 
    0.6269    1.2733   -0.0333 N   0  0  0  0  0  0  0  0  0  0  0  0 
   -2.4001   -0.2035    0.1213 H   0  0  0  0  0  0  0  0  0  0  0  0 
   -1.2846    2.0538    0.0411 H   0  0  0  0  0  0  0  0  0  0  0  0 
    1.3022   -2.0431   -0.0118 H   0  0  0  0  0  0  0  0  0  0  0  0 
  1  9  1  0  0  0  0 
  2 10  1  0  0  0  0 
  2  1  2  0  0  0  0 
  3  5  1  0  0  0  0 
  4  7  2  0  0  0  0 
  5  8  2  0  0  0  0 
  5  4  1  0  0  0  0 
  6  3  3  0  0  0  0 
  7  1  1  0  0  0  0 
  8  2  1  0  0  0  0 
 11  4  1  0  0  0  0 
M  END 
>  <HBA> 
3 
 
>  <HBD> 
0 
 
>  <TPSA> 
49.57 
 
>  <cid> 
73172 
 
>  <dipole> 
4.01 
 
>  <excitation_energy_1> 
3.861 
 
>  <excitation_energy_2> 
4.441 
 
>  <excitation_energy_3> 
5.057 
 
>  <excitation_energy_4> 
5.401 
 
>  <homo_energy> 
-7.633 
 
>  <homo_lumo_gap> 
5.192 
 
>  <logP> 
0.348 
 
>  <lumo_energy> 
-2.441 
 
>  <melting_point> 
72.06 
 
>  <molecular_refractivity> 
26.75 
 
>  <oscillator_strength_1> 
0.0033 
 
>  <oscillator_strength_2> 
0.0017 
 
>  <oscillator_strength_3> 
0.1715 
 
>  <oscillator_strength_4> 
0.0 
 
>  <open_babel_can_smiles> 
c1nccnc1C#N 
 
>  <mulliken_charges> 
11 
1   0.042241 
2   0.046782 
3   0.30449 
4   0.049287 
5   0.270517 
6   -0.460933 
7   -0.366925 
8   -0.408614 
9   0.170081 
10   0.169978 
11   0.183097 
 
>  <lowdin_charges> 
11 
1   -0.084023 
2   -0.095138 
3   -0.009154 
4   -0.07993 
5   0.02484 
6   -0.084808 
7   -0.105937 
8   -0.093397 
9   0.171082 
10   0.174851 
11   0.181614 
 
$$$$ 
 
