PCCDB-ID:  11501 
public computational chemistry database (PCCDB) project, http://pccdb.org 
 
 26 27  0  0  0  0  0  0  0  0999 V2000 
   -0.3734   -3.1192    0.6519 C   0  0  0  0  0  0  0  0  0  0  0  0 
   -0.5748   -1.8627    1.2250 C   0  0  0  0  0  0  0  0  0  0  0  0 
    0.7380   -3.3414   -0.1701 C   0  0  0  0  0  0  0  0  0  0  0  0 
    0.3320   -0.8327    0.9776 C   0  0  0  0  0  0  0  0  0  0  0  0 
    1.6423   -2.3152   -0.4189 C   0  0  0  0  0  0  0  0  0  0  0  0 
    5.6526    0.7509   -1.2347 C   0  0  0  0  0  0  0  0  0  0  0  0 
    3.8476    2.3507   -1.1632 C   0  0  0  0  0  0  0  0  0  0  0  0 
    6.5588    1.7785   -1.4764 C   0  0  0  0  0  0  0  0  0  0  0  0 
    4.7441    3.3800   -1.4249 C   0  0  0  0  0  0  0  0  0  0  0  0 
    2.3879    0.0563   -0.0851 C   0  0  0  0  0  0  0  0  0  0  0  0 
    1.4492   -1.0459    0.1553 C   0  0  0  0  0  0  0  0  0  0  0  0 
    4.2873    1.0177   -1.0464 C   0  0  0  0  0  0  0  0  0  0  0  0 
    6.1076    3.0999   -1.5719 C   0  0  0  0  0  0  0  0  0  0  0  0 
    3.4429   -0.0780   -0.8004 N   0  0  0  0  0  0  0  0  0  0  0  0 
    6.9439    4.1526   -1.8246 O   0  0  0  0  0  0  0  0  0  0  0  0 
   -1.0791   -3.9236    0.8416 H   0  0  0  0  0  0  0  0  0  0  0  0 
   -1.4358   -1.6853    1.8638 H   0  0  0  0  0  0  0  0  0  0  0  0 
    0.8942   -4.3198   -0.6167 H   0  0  0  0  0  0  0  0  0  0  0  0 
    0.1776    0.1470    1.4248 H   0  0  0  0  0  0  0  0  0  0  0  0 
    2.5091   -2.4689   -1.0535 H   0  0  0  0  0  0  0  0  0  0  0  0 
    5.9899   -0.2789   -1.1701 H   0  0  0  0  0  0  0  0  0  0  0  0 
    2.7884    2.5778   -1.0838 H   0  0  0  0  0  0  0  0  0  0  0  0 
    7.6163    1.5537   -1.6044 H   0  0  0  0  0  0  0  0  0  0  0  0 
    4.4054    4.4059   -1.5317 H   0  0  0  0  0  0  0  0  0  0  0  0 
    2.1325    1.0083    0.4052 H   0  0  0  0  0  0  0  0  0  0  0  0 
    7.8493    3.8187   -1.9210 H   0  0  0  0  0  0  0  0  0  0  0  0 
  1 16  1  0  0  0  0 
  1  2  2  0  0  0  0 
  2 17  1  0  0  0  0 
  3  1  1  0  0  0  0 
  4  2  1  0  0  0  0 
  4 19  1  0  0  0  0 
  5  3  2  0  0  0  0 
  5 11  1  0  0  0  0 
  6 21  1  0  0  0  0 
  6 12  2  0  0  0  0 
  7 22  1  0  0  0  0 
  7 12  1  0  0  0  0 
  8  6  1  0  0  0  0 
  9  7  2  0  0  0  0 
 10 11  1  0  0  0  0 
 10 25  1  0  0  0  0 
 11  4  2  0  0  0  0 
 12 14  1  0  0  0  0 
 13  8  2  0  0  0  0 
 13  9  1  0  0  0  0 
 14 10  2  0  0  0  0 
 15 13  1  0  0  0  0 
 18  3  1  0  0  0  0 
 20  5  1  0  0  0  0 
 23  8  1  0  0  0  0 
 24  9  1  0  0  0  0 
 26 15  1  0  0  0  0 
M  END 
>  <HBA> 
2 
 
>  <HBD> 
1 
 
>  <TPSA> 
32.59 
 
>  <cid> 
11501 
 
>  <dipole> 
0.7 
 
>  <excitation_energy_1> 
3.511 
 
>  <excitation_energy_2> 
4.41 
 
>  <excitation_energy_3> 
4.477 
 
>  <excitation_energy_4> 
4.524 
 
>  <homo_energy> 
-5.483 
 
>  <homo_lumo_gap> 
4.025 
 
>  <logP> 
3.143 
 
>  <lumo_energy> 
-1.459 
 
>  <melting_point> 
99.92 
 
>  <molecular_refractivity> 
62.16 
 
>  <oscillator_strength_1> 
0.4486 
 
>  <oscillator_strength_2> 
0.2669 
 
>  <oscillator_strength_3> 
0.0118 
 
>  <oscillator_strength_4> 
0.0032 
 
>  <open_babel_can_smiles> 
Oc1ccc(cc1)/N=C/c1ccccc1 
 
>  <mulliken_charges> 
26 
1   -0.123061 
2   -0.134472 
3   -0.131926 
4   -0.185293 
5   -0.161269 
6   -0.1568 
7   -0.160771 
8   -0.201169 
9   -0.172308 
10   0.03379 
11   0.135876 
12   0.274596 
13   0.354077 
14   -0.480275 
15   -0.642077 
16   0.133125 
17   0.132981 
18   0.134144 
19   0.130262 
20   0.157176 
21   0.140061 
22   0.134073 
23   0.120962 
24   0.141698 
25   0.118631 
26   0.407968 
 
>  <lowdin_charges> 
26 
1   -0.149524 
2   -0.156673 
3   -0.153882 
4   -0.153615 
5   -0.136132 
6   -0.14612 
7   -0.163253 
8   -0.209088 
9   -0.180805 
10   -0.068561 
11   -0.020737 
12   0.01839 
13   0.098923 
14   -0.145807 
15   -0.375609 
16   0.160239 
17   0.159563 
18   0.159159 
19   0.156851 
20   0.173507 
21   0.166072 
22   0.159369 
23   0.15285 
24   0.167125 
25   0.130342 
26   0.357418 
 
$$$$ 
 
