PCCDB-ID:  27457 
public computational chemistry database (PCCDB) project, http://pccdb.org 
 
 19 19  0  0  0  0  0  0  0  0999 V2000 
    1.0084    0.0936    0.3030 C   0  0  0  0  0  0  0  0  0  0  0  0 
    3.1781    3.1673    0.2508 C   0  0  0  0  0  0  0  0  0  0  0  0 
    2.5371    0.1877    0.1416 C   0  0  0  0  0  0  0  0  0  0  0  0 
    3.5834    2.3615   -3.2911 C   0  0  0  0  0  0  0  0  0  0  0  0 
    3.3047    0.9990   -3.3371 C   0  0  0  0  0  0  0  0  0  0  0  0 
    3.2167    2.3734   -1.0322 C   0  0  0  0  0  0  0  0  0  0  0  0 
    2.9363    0.9868   -1.0785 C   0  0  0  0  0  0  0  0  0  0  0  0 
    3.5407    3.0483   -2.1443 N   0  0  0  0  0  0  0  0  0  0  0  0 
    2.9829    0.3124   -2.2360 N   0  0  0  0  0  0  0  0  0  0  0  0 
    0.7479   -0.5138    1.1767 H   0  0  0  0  0  0  0  0  0  0  0  0 
    0.5605   -0.3691   -0.5825 H   0  0  0  0  0  0  0  0  0  0  0  0 
    0.5545    1.0830    0.4326 H   0  0  0  0  0  0  0  0  0  0  0  0 
    3.9402    2.8233    0.9616 H   0  0  0  0  0  0  0  0  0  0  0  0 
    2.2074    3.0844    0.7534 H   0  0  0  0  0  0  0  0  0  0  0  0 
    3.3667    4.2187    0.0238 H   0  0  0  0  0  0  0  0  0  0  0  0 
    2.9471   -0.8211    0.0256 H   0  0  0  0  0  0  0  0  0  0  0  0 
    2.9792    0.6202    1.0457 H   0  0  0  0  0  0  0  0  0  0  0  0 
    3.8473    2.9159   -4.1897 H   0  0  0  0  0  0  0  0  0  0  0  0 
    3.3432    0.4447   -4.2730 H   0  0  0  0  0  0  0  0  0  0  0  0 
  1 12  1  0  0  0  0 
  1 10  1  0  0  0  0 
  2 14  1  0  0  0  0 
  2 13  1  0  0  0  0 
  3  1  1  0  0  0  0 
  3 17  1  0  0  0  0 
  4  8  1  0  0  0  0 
  5  4  2  0  0  0  0 
  5  9  1  0  0  0  0 
  6  2  1  0  0  0  0 
  7  6  1  0  0  0  0 
  7  3  1  0  0  0  0 
  8  6  2  0  0  0  0 
  9  7  2  0  0  0  0 
 11  1  1  0  0  0  0 
 15  2  1  0  0  0  0 
 16  3  1  0  0  0  0 
 18  4  1  0  0  0  0 
 19  5  1  0  0  0  0 
M  END 
>  <HBA> 
2 
 
>  <HBD> 
0 
 
>  <TPSA> 
25.78 
 
>  <cid> 
27457 
 
>  <dipole> 
0.79 
 
>  <excitation_energy_1> 
4.072 
 
>  <excitation_energy_2> 
4.718 
 
>  <excitation_energy_3> 
5.132 
 
>  <excitation_energy_4> 
5.572 
 
>  <homo_energy> 
-6.539 
 
>  <homo_lumo_gap> 
5.45 
 
>  <logP> 
1.347 
 
>  <lumo_energy> 
-1.088 
 
>  <melting_point> 
42.34 
 
>  <molecular_refractivity> 
36.77 
 
>  <oscillator_strength_1> 
0.0053 
 
>  <oscillator_strength_2> 
0.0 
 
>  <oscillator_strength_3> 
0.1369 
 
>  <oscillator_strength_4> 
0.0002 
 
>  <open_babel_can_smiles> 
CCc1nccnc1C 
 
>  <mulliken_charges> 
19 
1   -0.446484 
2   -0.527817 
3   -0.314277 
4   0.02707 
5   0.027351 
6   0.27324 
7   0.263966 
8   -0.433657 
9   -0.437085 
10   0.149542 
11   0.165531 
12   0.146634 
13   0.166535 
14   0.16447 
15   0.180133 
16   0.163444 
17   0.141599 
18   0.144986 
19   0.144817 
 
>  <lowdin_charges> 
19 
1   -0.440049 
2   -0.449663 
3   -0.278431 
4   -0.112915 
5   -0.112306 
6   0.032155 
7   0.03234 
8   -0.133279 
9   -0.132695 
10   0.153554 
11   0.15919 
12   0.147328 
13   0.164695 
14   0.162138 
15   0.171947 
16   0.162811 
17   0.150699 
18   0.161572 
19   0.160909 
 
$$$$ 
 
