PCCDB-ID:  6893 
public computational chemistry database (PCCDB) project, http://pccdb.org 
 
 20 20  0  0  0  0  0  0  0  0999 V2000 
    0.9923    0.1341   -0.2655 C   0  0  0  0  0  0  0  0  0  0  0  0 
    2.4386   -2.5005   -0.2230 C   0  0  0  0  0  0  0  0  0  0  0  0 
    4.5947    1.2054    0.3157 C   0  0  0  0  0  0  0  0  0  0  0  0 
    3.2150    1.2384    0.1235 C   0  0  0  0  0  0  0  0  0  0  0  0 
    5.2700   -0.0097    0.3144 C   0  0  0  0  0  0  0  0  0  0  0  0 
    2.4909    0.0533   -0.0619 C   0  0  0  0  0  0  0  0  0  0  0  0 
    3.1620   -1.1842   -0.0528 C   0  0  0  0  0  0  0  0  0  0  0  0 
    4.5633   -1.2071    0.1297 C   0  0  0  0  0  0  0  0  0  0  0  0 
    5.2407   -2.4361    0.1894 N   0  0  0  0  0  0  0  0  0  0  0  0 
    0.6593    1.1763   -0.2611 H   0  0  0  0  0  0  0  0  0  0  0  0 
    0.4397   -0.3895    0.5251 H   0  0  0  0  0  0  0  0  0  0  0  0 
    0.6809   -0.3076   -1.2204 H   0  0  0  0  0  0  0  0  0  0  0  0 
    1.3537   -2.3834   -0.2059 H   0  0  0  0  0  0  0  0  0  0  0  0 
    2.7112   -3.2032    0.5751 H   0  0  0  0  0  0  0  0  0  0  0  0 
    2.6902   -2.9893   -1.1776 H   0  0  0  0  0  0  0  0  0  0  0  0 
    5.1485    2.1299    0.4581 H   0  0  0  0  0  0  0  0  0  0  0  0 
    2.6892    2.1896    0.1182 H   0  0  0  0  0  0  0  0  0  0  0  0 
    6.3484   -0.0413    0.4566 H   0  0  0  0  0  0  0  0  0  0  0  0 
    6.2434   -2.3542    0.0684 H   0  0  0  0  0  0  0  0  0  0  0  0 
    4.8673   -3.1588   -0.4139 H   0  0  0  0  0  0  0  0  0  0  0  0 
  1 10  1  0  0  0  0 
  1  6  1  0  0  0  0 
  1 11  1  0  0  0  0 
  2 13  1  0  0  0  0 
  2  7  1  0  0  0  0 
  2 14  1  0  0  0  0 
  3 16  1  0  0  0  0 
  4  3  2  0  0  0  0 
  5  3  1  0  0  0  0 
  5 18  1  0  0  0  0 
  6  7  2  0  0  0  0 
  6  4  1  0  0  0  0 
  7  8  1  0  0  0  0 
  8  9  1  0  0  0  0 
  8  5  2  0  0  0  0 
 12  1  1  0  0  0  0 
 15  2  1  0  0  0  0 
 17  4  1  0  0  0  0 
 19  9  1  0  0  0  0 
 20  9  1  0  0  0  0 
M  END 
>  <HBA> 
1 
 
>  <HBD> 
1 
 
>  <TPSA> 
26.02 
 
>  <cid> 
6893 
 
>  <dipole> 
1.62 
 
>  <excitation_energy_1> 
4.662 
 
>  <excitation_energy_2> 
4.785 
 
>  <excitation_energy_3> 
5.252 
 
>  <excitation_energy_4> 
5.399 
 
>  <homo_energy> 
-5.279 
 
>  <homo_lumo_gap> 
5.63 
 
>  <logP> 
2.467 
 
>  <lumo_energy> 
0.351 
 
>  <melting_point> 
62.15 
 
>  <molecular_refractivity> 
40.78 
 
>  <oscillator_strength_1> 
0.0116 
 
>  <oscillator_strength_2> 
0.0367 
 
>  <oscillator_strength_3> 
0.0014 
 
>  <oscillator_strength_4> 
0.0143 
 
>  <open_babel_can_smiles> 
Cc1c(C)cccc1N 
 
>  <mulliken_charges> 
20 
1   -0.538454 
2   -0.55877 
3   -0.135033 
4   -0.191304 
5   -0.173064 
6   0.119004 
7   0.104978 
8   0.242946 
9   -0.790687 
10   0.153367 
11   0.159122 
12   0.156441 
13   0.159594 
14   0.169045 
15   0.146331 
16   0.120438 
17   0.110684 
18   0.109839 
19   0.316033 
20   0.319491 
 
>  <lowdin_charges> 
20 
1   -0.443895 
2   -0.449042 
3   -0.152912 
4   -0.197335 
5   -0.202685 
6   -0.000624 
7   -0.048645 
8   0.049776 
9   -0.49247 
10   0.155137 
11   0.15825 
12   0.156198 
13   0.160588 
14   0.162006 
15   0.148761 
16   0.154634 
17   0.150328 
18   0.147031 
19   0.270045 
20   0.274855 
 
$$$$ 
 
