PCCDB-ID:  23356 
public computational chemistry database (PCCDB) project, http://pccdb.org 
 
 22 21  0  0  0  0  0  0  0  0999 V2000 
    1.8669    1.3900    2.2819 C   0  0  0  0  0  0  0  0  0  0  0  0 
    1.9703    0.4597    1.0667 C   0  0  0  0  0  0  0  0  0  0  0  0 
    2.9837   -0.6868    1.2238 C   0  0  0  0  0  0  0  0  0  0  0  0 
    4.4460   -0.2200    1.2973 C   0  0  0  0  0  0  0  0  0  0  0  0 
    5.4998   -1.3404    1.3057 C   0  0  0  0  0  0  0  0  0  0  0  0 
    5.5819   -2.1805    2.5890 C   0  0  0  0  0  0  0  0  0  0  0  0 
    4.1592   -4.9856    1.4204 N   0  0  0  0  0  0  0  0  0  0  0  0 
    4.4284   -3.0871    2.8199 N   0  0  0  0  0  0  0  0  0  0  0  0 
    4.3450   -4.0530    2.0561 N   0  0  0  0  0  0  0  0  0  0  0  0 
    1.0945    2.1520    2.1278 H   0  0  0  0  0  0  0  0  0  0  0  0 
    2.8090    1.9143    2.4794 H   0  0  0  0  0  0  0  0  0  0  0  0 
    1.6042    0.8280    3.1870 H   0  0  0  0  0  0  0  0  0  0  0  0 
    2.2262    1.0502    0.1748 H   0  0  0  0  0  0  0  0  0  0  0  0 
    0.9815    0.0249    0.8691 H   0  0  0  0  0  0  0  0  0  0  0  0 
    2.8772   -1.3703    0.3691 H   0  0  0  0  0  0  0  0  0  0  0  0 
    2.7346   -1.2748    2.1158 H   0  0  0  0  0  0  0  0  0  0  0  0 
    4.5967    0.4096    2.1855 H   0  0  0  0  0  0  0  0  0  0  0  0 
    4.6495    0.4268    0.4313 H   0  0  0  0  0  0  0  0  0  0  0  0 
    6.4922   -0.8887    1.1682 H   0  0  0  0  0  0  0  0  0  0  0  0 
    5.3500   -2.0084    0.4453 H   0  0  0  0  0  0  0  0  0  0  0  0 
    5.6024   -1.5309    3.4683 H   0  0  0  0  0  0  0  0  0  0  0  0 
    6.5106   -2.7676    2.5915 H   0  0  0  0  0  0  0  0  0  0  0  0 
  1 11  1  0  0  0  0 
  1 12  1  0  0  0  0 
  2  3  1  0  0  0  0 
  2  1  1  0  0  0  0 
  3  4  1  0  0  0  0 
  3 16  1  0  0  0  0 
  4  5  1  0  0  0  0 
  4 17  1  0  0  0  0 
  5  6  1  0  0  0  0 
  6 22  1  0  0  0  0 
  6  8  1  0  0  0  0 
  6 21  1  0  0  0  0 
  7  9  2  0  0  0  0 
  9  8  2  0  0  0  0 
 10  1  1  0  0  0  0 
 13  2  1  0  0  0  0 
 14  2  1  0  0  0  0 
 15  3  1  0  0  0  0 
 18  4  1  0  0  0  0 
 19  5  1  0  0  0  0 
 20  5  1  0  0  0  0 
M  RAD  1   7   2 
M  END 
>  <HBA> 
1 
 
>  <HBD> 
0 
 
>  <TPSA> 
49.75 
 
>  <cid> 
23356 
 
>  <dipole> 
2.39 
 
>  <excitation_energy_1> 
4.265 
 
>  <excitation_energy_2> 
5.619 
 
>  <excitation_energy_3> 
6.302 
 
>  <excitation_energy_4> 
6.669 
 
>  <homo_energy> 
-6.789 
 
>  <homo_lumo_gap> 
6.104 
 
>  <logP> 
2.33 
 
>  <lumo_energy> 
-0.686 
 
>  <melting_point> 
20.36 
 
>  <molecular_refractivity> 
35.78 
 
>  <oscillator_strength_1> 
0.0004 
 
>  <oscillator_strength_2> 
0.0046 
 
>  <oscillator_strength_3> 
0.0202 
 
>  <oscillator_strength_4> 
0.0018 
 
>  <open_babel_can_smiles> 
CCCCCCN=[N]=[N] 
 
>  <mulliken_charges> 
22 
1   -0.443807 
2   -0.249959 
3   -0.256326 
4   -0.253705 
5   -0.271131 
6   -0.145281 
7   -0.271772 
8   -0.363801 
9   0.408167 
10   0.142677 
11   0.142965 
12   0.143702 
13   0.127353 
14   0.133391 
15   0.126114 
16   0.15419 
17   0.133978 
18   0.132493 
19   0.14173 
20   0.144446 
21   0.168183 
22   0.156393 
 
>  <lowdin_charges> 
22 
1   -0.448475 
2   -0.273091 
3   -0.284474 
4   -0.277008 
5   -0.284368 
6   -0.191756 
7   -0.123201 
8   -0.212927 
9   0.188195 
10   0.150697 
11   0.145525 
12   0.147607 
13   0.137368 
14   0.142847 
15   0.140251 
16   0.149904 
17   0.140866 
18   0.14331 
19   0.151675 
20   0.146317 
21   0.161439 
22   0.149298 
 
$$$$ 
 
