PCCDB-ID:  46255 
public computational chemistry database (PCCDB) project, http://pccdb.org 
 
 33 33  0  0  1  0  0  0  0  0999 V2000 
    0.2945   -0.1884    2.2769 C   0  0  0  0  0  0  0  0  0  0  0  0 
    3.6249   -3.4466   -1.8995 C   0  0  0  0  0  0  0  0  0  0  0  0 
    1.6540   -0.4209    1.6075 C   0  0  0  0  0  0  0  0  0  0  0  0 
    4.3991   -5.6126    3.5920 C   0  0  0  0  0  0  0  0  0  0  0  0 
    3.8648   -4.4083    4.0524 C   0  0  0  0  0  0  0  0  0  0  0  0 
    4.9317   -5.6786    2.3038 C   0  0  0  0  0  0  0  0  0  0  0  0 
    1.7437   -1.7946    0.9273 C   0  0  0  0  0  0  0  0  0  0  0  0 
    3.8579   -3.2839    3.2257 C   0  0  0  0  0  0  0  0  0  0  0  0 
    4.9206   -4.5514    1.4804 C   0  0  0  0  0  0  0  0  0  0  0  0 
    4.3777   -3.3374    1.9251 C   0  0  0  0  0  0  0  0  0  0  0  0 
    3.0343   -2.0662    0.1264 C   0  0  1  0  0  0  0  0  0  0  0  0 
    4.3178   -2.1108    1.0235 C   0  0  2  0  0  0  0  0  0  0  0  0 
    2.8049   -3.2412   -0.7178 N   0  0  0  0  0  0  0  0  0  0  0  0 
    5.4982   -1.9419    0.2370 O   0  0  0  0  0  0  0  0  0  0  0  0 
    0.2454    0.7994    2.7491 H   0  0  0  0  0  0  0  0  0  0  0  0 
    0.1005   -0.9392    3.0528 H   0  0  0  0  0  0  0  0  0  0  0  0 
   -0.5212   -0.2514    1.5465 H   0  0  0  0  0  0  0  0  0  0  0  0 
    3.1473   -4.1918   -2.5469 H   0  0  0  0  0  0  0  0  0  0  0  0 
    4.6626   -3.8029   -1.7331 H   0  0  0  0  0  0  0  0  0  0  0  0 
    3.6873   -2.5099   -2.4638 H   0  0  0  0  0  0  0  0  0  0  0  0 
    2.4453   -0.3071    2.3604 H   0  0  0  0  0  0  0  0  0  0  0  0 
    1.8318    0.3660    0.8608 H   0  0  0  0  0  0  0  0  0  0  0  0 
    4.4084   -6.4892    4.2340 H   0  0  0  0  0  0  0  0  0  0  0  0 
    3.4598   -4.3399    5.0587 H   0  0  0  0  0  0  0  0  0  0  0  0 
    5.3637   -6.6073    1.9397 H   0  0  0  0  0  0  0  0  0  0  0  0 
    0.9148   -1.8974    0.2169 H   0  0  0  0  0  0  0  0  0  0  0  0 
    1.6025   -2.5865    1.6769 H   0  0  0  0  0  0  0  0  0  0  0  0 
    3.4543   -2.3462    3.6010 H   0  0  0  0  0  0  0  0  0  0  0  0 
    5.3684   -4.6175    0.4923 H   0  0  0  0  0  0  0  0  0  0  0  0 
    3.1981   -1.2206   -0.5560 H   0  0  0  0  0  0  0  0  0  0  0  0 
    4.3042   -1.2228    1.6638 H   0  0  0  0  0  0  0  0  0  0  0  0 
    2.7493   -4.0860   -0.1544 H   0  0  0  0  0  0  0  0  0  0  0  0 
    5.5012   -2.6190   -0.4539 H   0  0  0  0  0  0  0  0  0  0  0  0 
  1 15  1  0  0  0  0 
  1 16  1  0  0  0  0 
  2 19  1  0  0  0  0 
  2 13  1  0  0  0  0 
  3  1  1  0  0  0  0 
  3 21  1  0  0  0  0 
  4  5  1  0  0  0  0 
  4 23  1  0  0  0  0 
  5 24  1  0  0  0  0 
  6  4  2  0  0  0  0 
  7  3  1  0  0  0  0 
  7 27  1  0  0  0  0 
  8 28  1  0  0  0  0 
  8  5  2  0  0  0  0 
  9 10  2  0  0  0  0 
  9  6  1  0  0  0  0 
 10  8  1  0  0  0  0 
 11 30  1  6  0  0  0 
 11  7  1  0  0  0  0 
 11 12  1  0  0  0  0 
 12 31  1  1  0  0  0 
 12 10  1  0  0  0  0 
 13 32  1  0  0  0  0 
 13 11  1  0  0  0  0 
 14 12  1  0  0  0  0 
 17  1  1  0  0  0  0 
 18  2  1  0  0  0  0 
 20  2  1  0  0  0  0 
 22  3  1  0  0  0  0 
 25  6  1  0  0  0  0 
 26  7  1  0  0  0  0 
 29  9  1  0  0  0  0 
 33 14  1  0  0  0  0 
M  END 
>  <HBA> 
2 
 
>  <HBD> 
2 
 
>  <TPSA> 
32.26 
 
>  <cid> 
46255 
 
>  <dipole> 
1.49 
 
>  <excitation_energy_1> 
4.796 
 
>  <excitation_energy_2> 
4.863 
 
>  <excitation_energy_3> 
5.194 
 
>  <excitation_energy_4> 
5.346 
 
>  <homo_energy> 
-5.75 
 
>  <homo_lumo_gap> 
5.638 
 
>  <logP> 
2.499 
 
>  <lumo_energy> 
-0.112 
 
>  <melting_point> 
49.63 
 
>  <molecular_refractivity> 
59.41 
 
>  <oscillator_strength_1> 
0.026 
 
>  <oscillator_strength_2> 
0.0041 
 
>  <oscillator_strength_3> 
0.013 
 
>  <oscillator_strength_4> 
0.0044 
 
>  <open_babel_can_smiles> 
CCC[C@@H]([C@@H](c1ccccc1)O)NC 
 
>  <mulliken_charges> 
33 
1   -0.442135 
2   -0.309413 
3   -0.262001 
4   -0.130057 
5   -0.129647 
6   -0.130226 
7   -0.259444 
8   -0.185124 
9   -0.19966 
10   0.174057 
11   0.009379 
12   0.03468 
13   -0.555325 
14   -0.636861 
15   0.142591 
16   0.142066 
17   0.14471 
18   0.156556 
19   0.102819 
20   0.161707 
21   0.133849 
22   0.135308 
23   0.130489 
24   0.131248 
25   0.130558 
26   0.147816 
27   0.133487 
28   0.131387 
29   0.114352 
30   0.136496 
31   0.141117 
32   0.303172 
33   0.40205 
 
>  <lowdin_charges> 
33 
1   -0.443931 
2   -0.359163 
3   -0.27759 
4   -0.160215 
5   -0.152839 
6   -0.155431 
7   -0.287692 
8   -0.166965 
9   -0.171515 
10   -0.015632 
11   -0.079794 
12   -0.019561 
13   -0.362019 
14   -0.459374 
15   0.149238 
16   0.147285 
17   0.148513 
18   0.153904 
19   0.105578 
20   0.155012 
21   0.136865 
22   0.141949 
23   0.158871 
24   0.157472 
25   0.158104 
26   0.153804 
27   0.143457 
28   0.157061 
29   0.148917 
30   0.146068 
31   0.151665 
32   0.259078 
33   0.338881 
 
$$$$ 
 
