PCCDB-ID:  28450 
public computational chemistry database (PCCDB) project, http://pccdb.org 
 
 24 24  0  0  0  0  0  0  0  0999 V2000 
    0.9933    0.0300   -0.2049 C   0  0  0  0  0  0  0  0  0  0  0  0 
    2.5299   -2.3787   -0.9986 C   0  0  0  0  0  0  0  0  0  0  0  0 
    3.0774   -1.9188    1.4090 C   0  0  0  0  0  0  0  0  0  0  0  0 
    5.4031   -0.0732    0.2625 C   0  0  0  0  0  0  0  0  0  0  0  0 
    4.6781   -1.2230   -0.4431 C   0  0  0  0  0  0  0  0  0  0  0  0 
    3.1922    1.1530   -0.0396 C   0  0  0  0  0  0  0  0  0  0  0  0 
    2.4975   -0.0033   -0.1004 C   0  0  0  0  0  0  0  0  0  0  0  0 
    4.6558    1.2441    0.1121 C   0  0  0  0  0  0  0  0  0  0  0  0 
    3.1915   -1.3687   -0.0358 C   0  0  0  0  0  0  0  0  0  0  0  0 
    5.2296    2.3244    0.1505 O   0  0  0  0  0  0  0  0  0  0  0  0 
    0.6151    1.0518   -0.1132 H   0  0  0  0  0  0  0  0  0  0  0  0 
    0.5214   -0.5797    0.5764 H   0  0  0  0  0  0  0  0  0  0  0  0 
    0.6504   -0.3738   -1.1658 H   0  0  0  0  0  0  0  0  0  0  0  0 
    3.0934   -3.3190   -0.9912 H   0  0  0  0  0  0  0  0  0  0  0  0 
    2.5211   -2.0038   -2.0287 H   0  0  0  0  0  0  0  0  0  0  0  0 
    1.4994   -2.6109   -0.7107 H   0  0  0  0  0  0  0  0  0  0  0  0 
    3.5480   -2.9072    1.4739 H   0  0  0  0  0  0  0  0  0  0  0  0 
    2.0302   -2.0302    1.7113 H   0  0  0  0  0  0  0  0  0  0  0  0 
    3.5633   -1.2602    2.1359 H   0  0  0  0  0  0  0  0  0  0  0  0 
    6.4213    0.0615   -0.1160 H   0  0  0  0  0  0  0  0  0  0  0  0 
    5.4967   -0.2749    1.3396 H   0  0  0  0  0  0  0  0  0  0  0  0 
    5.1973   -2.1716   -0.2553 H   0  0  0  0  0  0  0  0  0  0  0  0 
    4.7225   -1.0525   -1.5274 H   0  0  0  0  0  0  0  0  0  0  0  0 
    2.6773    2.1108   -0.0784 H   0  0  0  0  0  0  0  0  0  0  0  0 
  1 11  1  0  0  0  0 
  1  7  1  0  0  0  0 
  1 12  1  0  0  0  0 
  2 14  1  0  0  0  0 
  2 16  1  0  0  0  0 
  2  9  1  0  0  0  0 
  3 17  1  0  0  0  0 
  3 18  1  0  0  0  0 
  3 19  1  0  0  0  0 
  4 21  1  0  0  0  0 
  5 22  1  0  0  0  0 
  5  9  1  0  0  0  0 
  5  4  1  0  0  0  0 
  6  8  1  0  0  0  0 
  7  6  2  0  0  0  0 
  7  9  1  0  0  0  0 
  8 10  2  0  0  0  0 
  8  4  1  0  0  0  0 
  9  3  1  0  0  0  0 
 13  1  1  0  0  0  0 
 15  2  1  0  0  0  0 
 20  4  1  0  0  0  0 
 23  5  1  0  0  0  0 
 24  6  1  0  0  0  0 
M  END 
>  <HBA> 
1 
 
>  <HBD> 
0 
 
>  <TPSA> 
17.07 
 
>  <cid> 
28450 
 
>  <dipole> 
4.21 
 
>  <excitation_energy_1> 
3.628 
 
>  <excitation_energy_2> 
5.548 
 
>  <excitation_energy_3> 
5.846 
 
>  <excitation_energy_4> 
6.228 
 
>  <homo_energy> 
-6.275 
 
>  <homo_lumo_gap> 
5.097 
 
>  <logP> 
2.322 
 
>  <lumo_energy> 
-1.178 
 
>  <melting_point> 
47.31 
 
>  <molecular_refractivity> 
42.73 
 
>  <oscillator_strength_1> 
0.0001 
 
>  <oscillator_strength_2> 
0.3623 
 
>  <oscillator_strength_3> 
0.0071 
 
>  <oscillator_strength_4> 
0.0063 
 
>  <open_babel_can_smiles> 
CC1=CC(=O)CCC1(C)C 
 
>  <mulliken_charges> 
24 
1   -0.52975 
2   -0.459369 
3   -0.450124 
4   -0.365416 
5   -0.28022 
6   -0.240601 
7   0.194541 
8   0.450296 
9   0.028135 
10   -0.482471 
11   0.166352 
12   0.163535 
13   0.170003 
14   0.147929 
15   0.149597 
16   0.147156 
17   0.147681 
18   0.146338 
19   0.154339 
20   0.165351 
21   0.164446 
22   0.13412 
23   0.143416 
24   0.134715 
 
>  <lowdin_charges> 
24 
1   -0.442981 
2   -0.439945 
3   -0.440329 
4   -0.305203 
5   -0.271712 
6   -0.222866 
7   0.037067 
8   0.148426 
9   0.007861 
10   -0.254043 
11   0.162403 
12   0.161911 
13   0.165674 
14   0.153334 
15   0.150752 
16   0.149979 
17   0.151603 
18   0.149681 
19   0.155028 
20   0.165928 
21   0.161832 
22   0.146258 
23   0.145207 
24   0.164135 
 
$$$$ 
 
