PCCDB-ID:  33812 
public computational chemistry database (PCCDB) project, http://pccdb.org 
 
 31 31  0  0  1  0  0  0  0  0999 V2000 
    2.7953   -0.0420    1.4348 C   0  0  0  0  0  0  0  0  0  0  0  0 
   10.4501    4.6000   -0.9708 C   0  0  0  0  0  0  0  0  0  0  0  0 
    4.6138    6.1765   -1.9736 C   0  0  0  0  0  0  0  0  0  0  0  0 
    2.3129    0.3344    0.0320 C   0  0  0  0  0  0  0  0  0  0  0  0 
    9.3904    4.3708   -2.0539 C   0  0  0  0  0  0  0  0  0  0  0  0 
    2.9071    1.6542   -0.4730 C   0  0  0  0  0  0  0  0  0  0  0  0 
    5.3219    4.8799   -1.6922 C   0  0  2  0  0  0  0  0  0  0  0  0 
    7.2236    3.5607   -1.5558 C   0  0  0  0  0  0  0  0  0  0  0  0 
    5.0231    2.5597   -0.9902 C   0  0  0  0  0  0  0  0  0  0  0  0 
    8.4725    3.3183   -1.6474 N   0  0  0  0  0  0  0  0  0  0  0  0 
    4.3507    1.5419   -0.6156 N   0  0  0  0  0  0  0  0  0  0  0  0 
    6.5995    4.7889   -1.8282 N   0  0  0  0  0  0  0  0  0  0  0  0 
    4.5143    3.8332   -1.2914 N   0  0  0  0  0  0  0  0  0  0  0  0 
    6.3898    2.5049   -1.1474 N   0  0  0  0  0  0  0  0  0  0  0  0 
    2.3854   -1.0082    1.7495 H   0  0  0  0  0  0  0  0  0  0  0  0 
    2.4869    0.7087    2.1741 H   0  0  0  0  0  0  0  0  0  0  0  0 
    3.8874   -0.1075    1.4577 H   0  0  0  0  0  0  0  0  0  0  0  0 
   11.1913    5.3360   -1.3047 H   0  0  0  0  0  0  0  0  0  0  0  0 
   10.9690    3.6651   -0.7338 H   0  0  0  0  0  0  0  0  0  0  0  0 
    9.9886    4.9725   -0.0493 H   0  0  0  0  0  0  0  0  0  0  0  0 
    5.3458    6.9217   -2.2849 H   0  0  0  0  0  0  0  0  0  0  0  0 
    4.0904    6.5381   -1.0799 H   0  0  0  0  0  0  0  0  0  0  0  0 
    3.8690    6.0501   -2.7691 H   0  0  0  0  0  0  0  0  0  0  0  0 
    1.2174    0.4152    0.0174 H   0  0  0  0  0  0  0  0  0  0  0  0 
    2.5844   -0.4558   -0.6792 H   0  0  0  0  0  0  0  0  0  0  0  0 
    9.8923    4.0335   -2.9722 H   0  0  0  0  0  0  0  0  0  0  0  0 
    8.8777    5.3127   -2.2868 H   0  0  0  0  0  0  0  0  0  0  0  0 
    2.6315    2.4557    0.2392 H   0  0  0  0  0  0  0  0  0  0  0  0 
    2.4297    1.9093   -1.4365 H   0  0  0  0  0  0  0  0  0  0  0  0 
    3.5189    3.9733   -1.2010 H   0  0  0  0  0  0  0  0  0  0  0  0 
    6.8349    1.6182   -0.9500 H   0  0  0  0  0  0  0  0  0  0  0  0 
  1 17  1  0  0  0  0 
  1 15  1  0  0  0  0 
  1 16  1  0  0  0  0 
  2 19  1  0  0  0  0 
  2 20  1  0  0  0  0 
  3 22  1  0  0  0  0 
  4  1  1  0  0  0  0 
  5 10  1  0  0  0  0 
  5  2  1  0  0  0  0 
  6  4  1  0  0  0  0 
  6 28  1  0  0  0  0 
  7  3  1  6  0  0  0 
  7 13  1  0  0  0  0 
  8 14  1  0  0  0  0 
  9 11  2  0  0  0  0 
 10  8  1  0  0  0  0 
 11  6  1  0  0  0  0 
 12  7  1  0  0  0  0 
 12  8  2  0  0  0  0 
 13 30  1  0  0  0  0 
 13  9  1  0  0  0  0 
 14  9  1  0  0  0  0 
 14 31  1  0  0  0  0 
 18  2  1  0  0  0  0 
 21  3  1  0  0  0  0 
 23  3  1  0  0  0  0 
 24  4  1  0  0  0  0 
 25  4  1  0  0  0  0 
 26  5  1  0  0  0  0 
 27  5  1  0  0  0  0 
 29  6  1  0  0  0  0 
M  RAD  2   7   2  10   2 
M  END 
>  <HBA> 
5 
 
>  <HBD> 
2 
 
>  <TPSA> 
62.73 
 
>  <cid> 
33812 
 
>  <dipole> 
4.67 
 
>  <excitation_energy_1> 
4.379 
 
>  <excitation_energy_2> 
4.634 
 
>  <excitation_energy_3> 
4.903 
 
>  <excitation_energy_4> 
4.961 
 
>  <homo_energy> 
-5.848 
 
>  <homo_lumo_gap> 
5.083 
 
>  <logP> 
1.58 
 
>  <lumo_energy> 
-0.765 
 
>  <melting_point> 
122.79 
 
>  <molecular_refractivity> 
57.83 
 
>  <oscillator_strength_1> 
0.0288 
 
>  <oscillator_strength_2> 
0.0028 
 
>  <oscillator_strength_3> 
0.113 
 
>  <oscillator_strength_4> 
0.0008 
 
>  <open_babel_can_smiles> 
CCC/N=C/1\N[C](C)N=C(N1)[N]CC 
 
>  <mulliken_charges> 
31 
1   -0.441924 
2   -0.432633 
3   -0.537976 
4   -0.244604 
5   -0.138412 
6   -0.153852 
7   0.522895 
8   0.656759 
9   0.761423 
10   -0.495767 
11   -0.500104 
12   -0.505121 
13   -0.700425 
14   -0.694363 
15   0.139568 
16   0.131818 
17   0.168005 
18   0.132063 
19   0.150553 
20   0.141743 
21   0.203536 
22   0.175522 
23   0.175357 
24   0.122778 
25   0.144776 
26   0.134286 
27   0.147519 
28   0.116073 
29   0.122228 
30   0.348857 
31   0.349422 
 
>  <lowdin_charges> 
31 
1   -0.445682 
2   -0.447274 
3   -0.452867 
4   -0.2708 
5   -0.198042 
6   -0.205766 
7   0.122557 
8   0.11263 
9   0.137663 
10   -0.23332 
11   -0.269055 
12   -0.213023 
13   -0.249217 
14   -0.234764 
15   0.148411 
16   0.142686 
17   0.15747 
18   0.146461 
19   0.151932 
20   0.147317 
21   0.188447 
22   0.170945 
23   0.170875 
24   0.13615 
25   0.149094 
26   0.141063 
27   0.13994 
28   0.122772 
29   0.127967 
30   0.297874 
31   0.307557 
 
$$$$ 
 
