PCCDB-ID:  22698 
public computational chemistry database (PCCDB) project, http://pccdb.org 
 
 20 19  0  0  0  0  0  0  0  0999 V2000 
    0.9593   -0.0154    0.0956 C   0  0  0  0  0  0  0  0  0  0  0  0 
    3.7769   -2.3262    1.2523 C   0  0  0  0  0  0  0  0  0  0  0  0 
    3.7522    2.2734   -1.1133 C   0  0  0  0  0  0  0  0  0  0  0  0 
    2.1678   -0.0000    0.0866 C   0  0  0  0  0  0  0  0  0  0  0  0 
    4.1733   -1.4601    0.0538 C   0  0  0  0  0  0  0  0  0  0  0  0 
    4.2213    0.8179   -1.0649 C   0  0  0  0  0  0  0  0  0  0  0  0 
    3.6460   -0.0028    0.1109 C   0  0  0  0  0  0  0  0  0  0  0  0 
    4.1172    0.6497    1.3030 O   0  0  0  0  0  0  0  0  0  0  0  0 
   -0.1072   -0.0293    0.0960 H   0  0  0  0  0  0  0  0  0  0  0  0 
    4.1716   -3.3416    1.1420 H   0  0  0  0  0  0  0  0  0  0  0  0 
    2.6880   -2.3980    1.3508 H   0  0  0  0  0  0  0  0  0  0  0  0 
    4.1833   -1.9184    2.1852 H   0  0  0  0  0  0  0  0  0  0  0  0 
    4.2316    2.8011   -1.9453 H   0  0  0  0  0  0  0  0  0  0  0  0 
    4.0077    2.7908   -0.1843 H   0  0  0  0  0  0  0  0  0  0  0  0 
    2.6678    2.3355   -1.2521 H   0  0  0  0  0  0  0  0  0  0  0  0 
    3.8140   -1.9228   -0.8741 H   0  0  0  0  0  0  0  0  0  0  0  0 
    5.2667   -1.4022   -0.0143 H   0  0  0  0  0  0  0  0  0  0  0  0 
    5.3131    0.7819   -0.9627 H   0  0  0  0  0  0  0  0  0  0  0  0 
    3.9668    0.3020   -1.9988 H   0  0  0  0  0  0  0  0  0  0  0  0 
    3.5985    0.3096    2.0486 H   0  0  0  0  0  0  0  0  0  0  0  0 
  1  9  1  0  0  0  0 
  2 11  1  0  0  0  0 
  2 12  1  0  0  0  0 
  3  6  1  0  0  0  0 
  3 14  1  0  0  0  0 
  4  1  3  0  0  0  0 
  4  7  1  0  0  0  0 
  5  7  1  0  0  0  0 
  5  2  1  0  0  0  0 
  6 18  1  0  0  0  0 
  6  7  1  0  0  0  0 
  7  8  1  0  0  0  0 
  8 20  1  0  0  0  0 
 10  2  1  0  0  0  0 
 13  3  1  0  0  0  0 
 15  3  1  0  0  0  0 
 16  5  1  0  0  0  0 
 17  5  1  0  0  0  0 
 19  6  1  0  0  0  0 
M  END 
>  <HBA> 
1 
 
>  <HBD> 
1 
 
>  <TPSA> 
20.23 
 
>  <cid> 
22698 
 
>  <dipole> 
1.33 
 
>  <excitation_energy_1> 
6.299 
 
>  <excitation_energy_2> 
6.558 
 
>  <excitation_energy_3> 
6.698 
 
>  <excitation_energy_4> 
6.754 
 
>  <homo_energy> 
-7.138 
 
>  <homo_lumo_gap> 
8.131 
 
>  <logP> 
1.171 
 
>  <lumo_energy> 
0.993 
 
>  <melting_point> 
19.76 
 
>  <molecular_refractivity> 
35.12 
 
>  <oscillator_strength_1> 
0.0012 
 
>  <oscillator_strength_2> 
0.0153 
 
>  <oscillator_strength_3> 
0.0137 
 
>  <oscillator_strength_4> 
0.0101 
 
>  <open_babel_can_smiles> 
CCC(C#C)(CC)O 
 
>  <mulliken_charges> 
20 
1   -0.516515 
2   -0.469794 
3   -0.453176 
4   0.326559 
5   -0.247004 
6   -0.253381 
7   0.182842 
8   -0.633846 
9   0.1925 
10   0.150845 
11   0.157002 
12   0.140717 
13   0.138503 
14   0.167152 
15   0.152421 
16   0.139132 
17   0.14404 
18   0.146335 
19   0.138384 
20   0.397284 
 
>  <lowdin_charges> 
20 
1   -0.255193 
2   -0.451407 
3   -0.447211 
4   -0.051209 
5   -0.275481 
6   -0.266577 
7   0.130567 
8   -0.450294 
9   0.204522 
10   0.155315 
11   0.153024 
12   0.145981 
13   0.150303 
14   0.160319 
15   0.152136 
16   0.149991 
17   0.148515 
18   0.149658 
19   0.148975 
20   0.348068 
 
$$$$ 
 
