PCCDB-ID:  36761 
public computational chemistry database (PCCDB) project, http://pccdb.org 
 
 34 35  0  0  1  0  0  0  0  0999 V2000 
    2.6881   -1.2643   -0.2404 C   0  0  0  0  0  0  0  0  0  0  0  0 
    4.9641   -2.3457   -0.3682 C   0  0  0  0  0  0  0  0  0  0  0  0 
    9.1403    2.1586   -2.3979 C   0  0  0  0  0  0  0  0  0  0  0  0 
    7.6788    5.7112   -2.1761 C   0  0  0  0  0  0  0  0  0  0  0  0 
    8.5909    4.6525   -2.2324 C   0  0  0  0  0  0  0  0  0  0  0  0 
    6.3024    5.4629   -2.2211 C   0  0  0  0  0  0  0  0  0  0  0  0 
    4.4811    3.5456   -2.3908 C   0  0  0  0  0  0  0  0  0  0  0  0 
    4.2176    1.2252   -1.2972 C   0  0  0  0  0  0  0  0  0  0  0  0 
    4.2018   -1.0212   -0.2714 C   0  0  0  0  0  0  0  0  0  0  0  0 
    8.1783    3.3165   -2.3347 C   0  0  0  0  0  0  0  0  0  0  0  0 
    5.8661    4.1464   -2.3233 C   0  0  0  0  0  0  0  0  0  0  0  0 
    4.7733    2.0213   -2.4709 C   0  0  2  0  0  0  0  0  0  0  0  0 
    6.7970    3.1112   -2.3768 C   0  0  0  0  0  0  0  0  0  0  0  0 
    4.5692   -0.1829   -1.4215 N   0  0  0  0  0  0  0  0  0  0  0  0 
    6.2289    1.8700   -2.4808 O   0  0  0  0  0  0  0  0  0  0  0  0 
    2.4191   -1.9006    0.6105 H   0  0  0  0  0  0  0  0  0  0  0  0 
    2.3666   -1.7593   -1.1638 H   0  0  0  0  0  0  0  0  0  0  0  0 
    2.1242   -0.3303   -0.1422 H   0  0  0  0  0  0  0  0  0  0  0  0 
    4.7116   -3.0038    0.4701 H   0  0  0  0  0  0  0  0  0  0  0  0 
    6.0491   -2.1819   -0.3491 H   0  0  0  0  0  0  0  0  0  0  0  0 
    4.7151   -2.8619   -1.3025 H   0  0  0  0  0  0  0  0  0  0  0  0 
   10.1772    2.5062   -2.3585 H   0  0  0  0  0  0  0  0  0  0  0  0 
    9.0081    1.5794   -3.3200 H   0  0  0  0  0  0  0  0  0  0  0  0 
    8.9826    1.4615   -1.5653 H   0  0  0  0  0  0  0  0  0  0  0  0 
    8.0434    6.7314   -2.0971 H   0  0  0  0  0  0  0  0  0  0  0  0 
    9.6573    4.8645   -2.1968 H   0  0  0  0  0  0  0  0  0  0  0  0 
    5.5909    6.2838   -2.1777 H   0  0  0  0  0  0  0  0  0  0  0  0 
    3.9169    3.8927   -3.2645 H   0  0  0  0  0  0  0  0  0  0  0  0 
    3.8809    3.7885   -1.5039 H   0  0  0  0  0  0  0  0  0  0  0  0 
    3.1255    1.3345   -1.3047 H   0  0  0  0  0  0  0  0  0  0  0  0 
    4.5805    1.6862   -0.3562 H   0  0  0  0  0  0  0  0  0  0  0  0 
    4.4865   -0.5303    0.6814 H   0  0  0  0  0  0  0  0  0  0  0  0 
    4.4182    1.5786   -3.4065 H   0  0  0  0  0  0  0  0  0  0  0  0 
    5.5794   -0.2288   -1.5486 H   0  0  0  0  0  0  0  0  0  0  0  0 
  1 18  1  0  0  0  0 
  1 16  1  0  0  0  0 
  2 20  1  0  0  0  0 
  2  9  1  0  0  0  0 
  2 19  1  0  0  0  0 
  3 22  1  0  0  0  0 
  3 10  1  0  0  0  0 
  3 24  1  0  0  0  0 
  4 25  1  0  0  0  0 
  5 26  1  0  0  0  0 
  5  4  2  0  0  0  0 
  6 27  1  0  0  0  0 
  6  4  1  0  0  0  0 
  7 11  1  0  0  0  0 
  7 29  1  0  0  0  0 
  8 31  1  0  0  0  0 
  9  1  1  0  0  0  0 
  9 32  1  0  0  0  0 
 10  5  1  0  0  0  0 
 11  6  2  0  0  0  0 
 12 33  1  6  0  0  0 
 12  7  1  0  0  0  0 
 12  8  1  0  0  0  0 
 13 10  2  0  0  0  0 
 13 11  1  0  0  0  0 
 14  8  1  0  0  0  0 
 14  9  1  0  0  0  0 
 15 12  1  0  0  0  0 
 15 13  1  0  0  0  0 
 17  1  1  0  0  0  0 
 21  2  1  0  0  0  0 
 23  3  1  0  0  0  0 
 28  7  1  0  0  0  0 
 30  8  1  0  0  0  0 
 34 14  1  0  0  0  0 
M  END 
>  <HBA> 
2 
 
>  <HBD> 
1 
 
>  <TPSA> 
21.26 
 
>  <cid> 
36761 
 
>  <dipole> 
1.02 
 
>  <excitation_energy_1> 
4.799 
 
>  <excitation_energy_2> 
5.172 
 
>  <excitation_energy_3> 
5.443 
 
>  <excitation_energy_4> 
5.483 
 
>  <homo_energy> 
-5.565 
 
>  <homo_lumo_gap> 
5.685 
 
>  <logP> 
2.687 
 
>  <lumo_energy> 
0.12 
 
>  <melting_point> 
65.2 
 
>  <molecular_refractivity> 
62.78 
 
>  <oscillator_strength_1> 
0.0579 
 
>  <oscillator_strength_2> 
0.0114 
 
>  <oscillator_strength_3> 
0.0008 
 
>  <oscillator_strength_4> 
0.0163 
 
>  <open_babel_can_smiles> 
CC(NC[C@H]1Cc2c(O1)c(C)ccc2)C 
 
>  <mulliken_charges> 
34 
1   -0.437483 
2   -0.457703 
3   -0.518615 
4   -0.133514 
5   -0.195763 
6   -0.209927 
7   -0.381147 
8   -0.122292 
9   0.070166 
10   0.126764 
11   0.118021 
12   0.123368 
13   0.288093 
14   -0.572163 
15   -0.555323 
16   0.13817 
17   0.151164 
18   0.140347 
19   0.143957 
20   0.138433 
21   0.15541 
22   0.149736 
23   0.166775 
24   0.161168 
25   0.121998 
26   0.119013 
27   0.123226 
28   0.163399 
29   0.159909 
30   0.142313 
31   0.117141 
32   0.102379 
33   0.153389 
34   0.30959 
 
>  <lowdin_charges> 
34 
1   -0.451039 
2   -0.446949 
3   -0.43595 
4   -0.176824 
5   -0.159979 
6   -0.164469 
7   -0.285996 
8   -0.209819 
9   -0.053654 
10   -0.031511 
11   -0.045274 
12   0.013432 
13   0.084446 
14   -0.364219 
15   -0.224864 
16   0.149914 
17   0.153467 
18   0.147115 
19   0.152995 
20   0.144676 
21   0.15463 
22   0.154436 
23   0.163269 
24   0.160774 
25   0.154704 
26   0.15265 
27   0.156622 
28   0.161161 
29   0.158498 
30   0.144326 
31   0.122007 
32   0.113351 
33   0.152144 
34   0.25593 
 
$$$$ 
 
