PCCDB-ID:  31420 
public computational chemistry database (PCCDB) project, http://pccdb.org 
 
 28 30  0  0  0  0  0  0  0  0999 V2000 
    3.7107    0.6839    0.0572 C   0  0  0  0  0  0  0  0  0  0  0  0 
    3.7009   -0.7175    0.0572 C   0  0  0  0  0  0  0  0  0  0  0  0 
    2.5126    1.3892    0.0345 C   0  0  0  0  0  0  0  0  0  0  0  0 
    2.4932   -1.4061    0.0347 C   0  0  0  0  0  0  0  0  0  0  0  0 
   -3.6815    0.7181   -0.0226 C   0  0  0  0  0  0  0  0  0  0  0  0 
   -3.6910   -0.6488   -0.0226 C   0  0  0  0  0  0  0  0  0  0  0  0 
    1.2908    0.7023    0.0102 C   0  0  0  0  0  0  0  0  0  0  0  0 
    1.2811   -0.7023    0.0103 C   0  0  0  0  0  0  0  0  0  0  0  0 
   -2.4648    1.4574   -0.0474 C   0  0  0  0  0  0  0  0  0  0  0  0 
   -2.4846   -1.4050   -0.0474 C   0  0  0  0  0  0  0  0  0  0  0  0 
   -1.2435    0.7387   -0.0452 C   0  0  0  0  0  0  0  0  0  0  0  0 
   -1.2535   -0.7034   -0.0451 C   0  0  0  0  0  0  0  0  0  0  0  0 
    0.0234    1.4774   -0.0158 C   0  0  0  0  0  0  0  0  0  0  0  0 
    0.0030   -1.4596   -0.0156 C   0  0  0  0  0  0  0  0  0  0  0  0 
   -2.5282    2.8188   -0.0982 N   0  0  0  0  0  0  0  0  0  0  0  0 
   -2.5670   -2.7653   -0.0981 N   0  0  0  0  0  0  0  0  0  0  0  0 
    0.0802    2.7219   -0.0056 O   0  0  0  0  0  0  0  0  0  0  0  0 
    0.0424   -2.7049   -0.0051 O   0  0  0  0  0  0  0  0  0  0  0  0 
    4.6555    1.2206    0.0747 H   0  0  0  0  0  0  0  0  0  0  0  0 
    4.6382   -1.2672    0.0748 H   0  0  0  0  0  0  0  0  0  0  0  0 
    2.4920    2.4736    0.0334 H   0  0  0  0  0  0  0  0  0  0  0  0 
    2.4575   -2.4901    0.0338 H   0  0  0  0  0  0  0  0  0  0  0  0 
   -4.6218    1.2650   -0.0127 H   0  0  0  0  0  0  0  0  0  0  0  0 
   -4.6387   -1.1827   -0.0126 H   0  0  0  0  0  0  0  0  0  0  0  0 
   -3.4039    3.2759    0.1051 H   0  0  0  0  0  0  0  0  0  0  0  0 
   -1.6504    3.3201    0.0019 H   0  0  0  0  0  0  0  0  0  0  0  0 
   -3.4489   -3.2103    0.1055 H   0  0  0  0  0  0  0  0  0  0  0  0 
   -1.6962   -3.2787    0.0019 H   0  0  0  0  0  0  0  0  0  0  0  0 
  1  2  1  0  0  0  0 
  1 19  1  0  0  0  0 
  2 20  1  0  0  0  0 
  3  1  2  0  0  0  0 
  4  2  2  0  0  0  0 
  5  6  2  0  0  0  0 
  5 23  1  0  0  0  0 
  6 24  1  0  0  0  0 
  7  8  2  0  0  0  0 
  7  3  1  0  0  0  0 
  8  4  1  0  0  0  0 
  9 11  2  0  0  0  0 
  9  5  1  0  0  0  0 
 10 12  2  0  0  0  0 
 10  6  1  0  0  0  0 
 11 12  1  0  0  0  0 
 11 13  1  0  0  0  0 
 12 14  1  0  0  0  0 
 13 17  2  0  0  0  0 
 13  7  1  0  0  0  0 
 14 18  2  0  0  0  0 
 14  8  1  0  0  0  0 
 15  9  1  0  0  0  0 
 15 26  1  0  0  0  0 
 15 25  1  0  0  0  0 
 16 10  1  0  0  0  0 
 16 28  1  0  0  0  0 
 16 27  1  0  0  0  0 
 21  3  1  0  0  0  0 
 22  4  1  0  0  0  0 
M  END 
>  <HBA> 
4 
 
>  <HBD> 
2 
 
>  <TPSA> 
86.18 
 
>  <cid> 
31420 
 
>  <dipole> 
3.04 
 
>  <excitation_energy_1> 
2.404 
 
>  <excitation_energy_2> 
3.115 
 
>  <excitation_energy_3> 
3.342 
 
>  <excitation_energy_4> 
3.442 
 
>  <homo_energy> 
-5.001 
 
>  <homo_lumo_gap> 
2.615 
 
>  <logP> 
2.789 
 
>  <lumo_energy> 
-2.386 
 
>  <melting_point> 
223.2 
 
>  <molecular_refractivity> 
68.56 
 
>  <oscillator_strength_1> 
0.1828 
 
>  <oscillator_strength_2> 
0.0029 
 
>  <oscillator_strength_3> 
0.0002 
 
>  <oscillator_strength_4> 
0.0051 
 
>  <open_babel_can_smiles> 
Nc1ccc(c2c1C(=O)c1ccccc1C2=O)N 
 
>  <mulliken_charges> 
28 
1   -0.127205 
2   -0.12738 
3   -0.175023 
4   -0.175058 
5   -0.167217 
6   -0.16732 
7   0.056736 
8   0.057025 
9   0.306266 
10   0.306322 
11   0.003474 
12   0.003535 
13   0.345169 
14   0.345204 
15   -0.824777 
16   -0.824777 
17   -0.557582 
18   -0.557602 
19   0.137701 
20   0.137719 
21   0.162168 
22   0.162165 
23   0.13281 
24   0.132815 
25   0.32388 
26   0.383531 
27   0.323874 
28   0.383547 
 
>  <lowdin_charges> 
28 
1   -0.145045 
2   -0.145159 
3   -0.130487 
4   -0.130487 
5   -0.162695 
6   -0.162608 
7   -0.030634 
8   -0.030602 
9   0.08055 
10   0.080522 
11   -0.083376 
12   -0.083365 
13   0.146753 
14   0.146751 
15   -0.460429 
16   -0.460408 
17   -0.30291 
18   -0.302933 
19   0.16182 
20   0.161901 
21   0.174936 
22   0.174938 
23   0.160733 
24   0.160661 
25   0.280713 
26   0.310082 
27   0.280639 
28   0.31014 
 
$$$$ 
 
