PCCDB-ID:  29030 
public computational chemistry database (PCCDB) project, http://pccdb.org 
 
 23 23  0  0  0  0  0  0  0  0999 V2000 
   -1.5700   -0.3411    0.0792 C   0  0  0  0  0  0  0  0  0  0  0  0 
   -0.9408    0.2041   -1.0400 C   0  0  0  0  0  0  0  0  0  0  0  0 
   -0.7982   -0.7639    1.1642 C   0  0  0  0  0  0  0  0  0  0  0  0 
    3.4769   -1.3412   -0.1848 C   0  0  0  0  0  0  0  0  0  0  0  0 
    3.1828   -2.0470   -1.5084 C   0  0  0  0  0  0  0  0  0  0  0  0 
    0.4506    0.3224   -1.0732 C   0  0  0  0  0  0  0  0  0  0  0  0 
    0.5904   -0.6428    1.1256 C   0  0  0  0  0  0  0  0  0  0  0  0 
    2.7499    0.0111   -0.0307 C   0  0  0  0  0  0  0  0  0  0  0  0 
    3.8673   -3.3854   -1.6580 C   0  0  0  0  0  0  0  0  0  0  0  0 
    1.2381   -0.0987    0.0061 C   0  0  0  0  0  0  0  0  0  0  0  0 
    4.5785   -3.8979   -0.8212 O   0  0  0  0  0  0  0  0  0  0  0  0 
   -2.6524   -0.4331    0.1088 H   0  0  0  0  0  0  0  0  0  0  0  0 
   -1.5313    0.5406   -1.8884 H   0  0  0  0  0  0  0  0  0  0  0  0 
   -1.2790   -1.1850    2.0434 H   0  0  0  0  0  0  0  0  0  0  0  0 
    4.5579   -1.1804   -0.0967 H   0  0  0  0  0  0  0  0  0  0  0  0 
    3.2034   -2.0066    0.6425 H   0  0  0  0  0  0  0  0  0  0  0  0 
    3.4812   -1.4281   -2.3705 H   0  0  0  0  0  0  0  0  0  0  0  0 
    2.1029   -2.2130   -1.6442 H   0  0  0  0  0  0  0  0  0  0  0  0 
    0.9328    0.7553   -1.9473 H   0  0  0  0  0  0  0  0  0  0  0  0 
    1.1819   -0.9687    1.9788 H   0  0  0  0  0  0  0  0  0  0  0  0 
    3.0475    0.6787   -0.8501 H   0  0  0  0  0  0  0  0  0  0  0  0 
    3.1031    0.4842    0.8950 H   0  0  0  0  0  0  0  0  0  0  0  0 
    3.6722   -3.9031   -2.6256 H   0  0  0  0  0  0  0  0  0  0  0  0 
  1 12  1  0  0  0  0 
  1  3  2  0  0  0  0 
  2  1  1  0  0  0  0 
  3 14  1  0  0  0  0 
  4 15  1  0  0  0  0 
  4  8  1  0  0  0  0 
  4 16  1  0  0  0  0 
  5  4  1  0  0  0  0 
  6  2  2  0  0  0  0 
  6 10  1  0  0  0  0 
  7  3  1  0  0  0  0 
  7 20  1  0  0  0  0 
  8 10  1  0  0  0  0 
  8 22  1  0  0  0  0 
  9  5  1  0  0  0  0 
  9 11  2  0  0  0  0 
 10  7  2  0  0  0  0 
 13  2  1  0  0  0  0 
 17  5  1  0  0  0  0 
 18  5  1  0  0  0  0 
 19  6  1  0  0  0  0 
 21  8  1  0  0  0  0 
 23  9  1  0  0  0  0 
M  END 
>  <HBA> 
1 
 
>  <HBD> 
0 
 
>  <TPSA> 
17.07 
 
>  <cid> 
29030 
 
>  <dipole> 
2.42 
 
>  <excitation_energy_1> 
4.336 
 
>  <excitation_energy_2> 
5.283 
 
>  <excitation_energy_3> 
5.349 
 
>  <excitation_energy_4> 
5.621 
 
>  <homo_energy> 
-6.585 
 
>  <homo_lumo_gap> 
6.093 
 
>  <logP> 
2.208 
 
>  <lumo_energy> 
-0.493 
 
>  <melting_point> 
36.88 
 
>  <molecular_refractivity> 
46.03 
 
>  <oscillator_strength_1> 
0.0002 
 
>  <oscillator_strength_2> 
0.002 
 
>  <oscillator_strength_3> 
0.0081 
 
>  <oscillator_strength_4> 
0.0015 
 
>  <open_babel_can_smiles> 
O=CCCCc1ccccc1 
 
>  <mulliken_charges> 
23 
1   -0.132093 
2   -0.126424 
3   -0.127668 
4   -0.246891 
5   -0.350141 
6   -0.190039 
7   -0.181 
8   -0.355872 
9   0.252505 
10   0.173564 
11   -0.383871 
12   0.129194 
13   0.128856 
14   0.130432 
15   0.150498 
16   0.156294 
17   0.156422 
18   0.176273 
19   0.121116 
20   0.127 
21   0.137926 
22   0.150369 
23   0.10355 
 
>  <lowdin_charges> 
23 
1   -0.158733 
2   -0.156895 
3   -0.154347 
4   -0.267685 
5   -0.316472 
6   -0.173105 
7   -0.16754 
8   -0.275605 
9   0.05796 
10   -0.003583 
11   -0.221426 
12   0.155547 
13   0.158092 
14   0.158538 
15   0.151368 
16   0.154581 
17   0.161946 
18   0.170136 
19   0.153674 
20   0.156478 
21   0.146822 
22   0.155531 
23   0.114719 
 
$$$$ 
 
