PCCDB-ID:  13362 
public computational chemistry database (PCCDB) project, http://pccdb.org 
 
 21 20  0  0  0  0  0  0  0  0999 V2000 
    0.7250    0.1211   -2.2933 C   0  0  0  0  0  0  0  0  0  0  0  0 
    2.2411   -0.0212   -2.4610 C   0  0  0  0  0  0  0  0  0  0  0  0 
    2.8956   -0.7389   -1.2736 C   0  0  0  0  0  0  0  0  0  0  0  0 
    4.4195   -0.8960   -1.3756 C   0  0  0  0  0  0  0  0  0  0  0  0 
    4.8646   -3.1409   -2.5025 C   0  0  0  0  0  0  0  0  0  0  0  0 
    5.2233   -3.9409   -3.4161 N   0  0  0  0  0  0  0  0  0  0  0  0 
    5.3236   -1.1808   -3.6743 N   0  0  0  0  0  0  0  0  0  0  0  0 
    4.8569   -1.7229   -2.5151 N   0  0  0  0  0  0  0  0  0  0  0  0 
    4.4092   -3.5907   -1.3103 O   0  0  0  0  0  0  0  0  0  0  0  0 
    5.3255    0.0357   -3.7179 O   0  0  0  0  0  0  0  0  0  0  0  0 
    0.2774    0.6307   -3.1536 H   0  0  0  0  0  0  0  0  0  0  0  0 
    0.4760    0.7010   -1.3960 H   0  0  0  0  0  0  0  0  0  0  0  0 
    0.2417   -0.8591   -2.1982 H   0  0  0  0  0  0  0  0  0  0  0  0 
    2.6970    0.9694   -2.5855 H   0  0  0  0  0  0  0  0  0  0  0  0 
    2.4548   -0.5714   -3.3866 H   0  0  0  0  0  0  0  0  0  0  0  0 
    2.4434   -1.7291   -1.1363 H   0  0  0  0  0  0  0  0  0  0  0  0 
    2.6953   -0.1774   -0.3501 H   0  0  0  0  0  0  0  0  0  0  0  0 
    4.8196   -1.3573   -0.4712 H   0  0  0  0  0  0  0  0  0  0  0  0 
    4.9011    0.0730   -1.5246 H   0  0  0  0  0  0  0  0  0  0  0  0 
    5.5420   -3.4417   -4.2454 H   0  0  0  0  0  0  0  0  0  0  0  0 
    4.4455   -4.5621   -1.3814 H   0  0  0  0  0  0  0  0  0  0  0  0 
  1 13  1  0  0  0  0 
  1 12  1  0  0  0  0 
  2  1  1  0  0  0  0 
  2  3  1  0  0  0  0 
  3 16  1  0  0  0  0 
  3 17  1  0  0  0  0 
  4  3  1  0  0  0  0 
  4 18  1  0  0  0  0 
  5  9  1  0  0  0  0 
  6  5  2  0  0  0  0 
  7  8  1  0  0  0  0 
  8  5  1  0  0  0  0 
  8  4  1  0  0  0  0 
 10  7  2  0  0  0  0 
 11  1  1  0  0  0  0 
 14  2  1  0  0  0  0 
 15  2  1  0  0  0  0 
 19  4  1  0  0  0  0 
 20  6  1  0  0  0  0 
 21  9  1  0  0  0  0 
M  END 
>  <HBA> 
5 
 
>  <HBD> 
1 
 
>  <TPSA> 
75.76 
 
>  <cid> 
13362 
 
>  <dipole> 
2.68 
 
>  <excitation_energy_1> 
3.05 
 
>  <excitation_energy_2> 
4.663 
 
>  <excitation_energy_3> 
5.084 
 
>  <excitation_energy_4> 
5.896 
 
>  <homo_energy> 
-6.778 
 
>  <homo_lumo_gap> 
4.893 
 
>  <logP> 
1.549 
 
>  <lumo_energy> 
-1.886 
 
>  <melting_point> 
81.76 
 
>  <molecular_refractivity> 
37.08 
 
>  <oscillator_strength_1> 
0.001 
 
>  <oscillator_strength_2> 
0.0641 
 
>  <oscillator_strength_3> 
0.001 
 
>  <oscillator_strength_4> 
0.0707 
 
>  <open_babel_can_smiles> 
CCCCN(C(=N)O)N=O 
 
>  <mulliken_charges> 
21 
1   -0.444206 
2   -0.250772 
3   -0.260813 
4   -0.158265 
5   0.691448 
6   -0.636104 
7   0.177013 
8   -0.315977 
9   -0.602046 
10   -0.340475 
11   0.148866 
12   0.142601 
13   0.143344 
14   0.147032 
15   0.141386 
16   0.15458 
17   0.141833 
18   0.180542 
19   0.187808 
20   0.322165 
21   0.43004 
 
>  <lowdin_charges> 
21 
1   -0.44499 
2   -0.275757 
3   -0.27825 
4   -0.21657 
5   0.163346 
6   -0.435388 
7   0.070951 
8   -0.041762 
9   -0.359133 
10   -0.216414 
11   0.154106 
12   0.147078 
13   0.147084 
14   0.147 
15   0.144183 
16   0.150271 
17   0.150273 
18   0.171876 
19   0.17255 
20   0.276742 
21   0.372804 
 
$$$$ 
 
