PCCDB-ID:  23876 
public computational chemistry database (PCCDB) project, http://pccdb.org 
 
 35 36  0  0  0  0  0  0  0  0999 V2000 
    1.7689   -0.2051    1.7392 C   0  0  0  0  0  0  0  0  0  0  0  0 
    4.8018    2.8817   -0.5420 C   0  0  0  0  0  0  0  0  0  0  0  0 
    3.3754    0.5507   -4.9776 C   0  0  0  0  0  0  0  0  0  0  0  0 
    4.6216   -0.2664   -4.6079 C   0  0  0  0  0  0  0  0  0  0  0  0 
    2.5875    0.9547   -3.7229 C   0  0  0  0  0  0  0  0  0  0  0  0 
    4.2611   -1.4942   -3.7549 C   0  0  0  0  0  0  0  0  0  0  0  0 
    2.1879   -0.2779   -2.8934 C   0  0  0  0  0  0  0  0  0  0  0  0 
    3.3601   -1.2178   -2.5264 C   0  0  0  0  0  0  0  0  0  0  0  0 
    4.1440   -0.8283   -1.2098 C   0  0  0  0  0  0  0  0  0  0  0  0 
    3.2234   -1.0832   -0.0280 C   0  0  0  0  0  0  0  0  0  0  0  0 
    4.8220    0.5248   -1.2037 C   0  0  0  0  0  0  0  0  0  0  0  0 
    3.2035    1.3380    0.4890 C   0  0  0  0  0  0  0  0  0  0  0  0 
    2.7449    0.0257    0.6646 N   0  0  0  0  0  0  0  0  0  0  0  0 
    4.2123    1.5376   -0.4633 N   0  0  0  0  0  0  0  0  0  0  0  0 
    2.8702   -2.2105    0.2710 O   0  0  0  0  0  0  0  0  0  0  0  0 
    5.8498    0.7453   -1.8216 O   0  0  0  0  0  0  0  0  0  0  0  0 
    2.7615    2.2584    1.1523 O   0  0  0  0  0  0  0  0  0  0  0  0 
    1.1404   -1.0468    1.4525 H   0  0  0  0  0  0  0  0  0  0  0  0 
    1.1822    0.7012    1.8720 H   0  0  0  0  0  0  0  0  0  0  0  0 
    2.2799   -0.4469    2.6765 H   0  0  0  0  0  0  0  0  0  0  0  0 
    5.0973    3.0692   -1.5737 H   0  0  0  0  0  0  0  0  0  0  0  0 
    5.6891    2.9505    0.0949 H   0  0  0  0  0  0  0  0  0  0  0  0 
    4.0571    3.6006   -0.2087 H   0  0  0  0  0  0  0  0  0  0  0  0 
    2.7232   -0.0453   -5.6340 H   0  0  0  0  0  0  0  0  0  0  0  0 
    3.6620    1.4425   -5.5490 H   0  0  0  0  0  0  0  0  0  0  0  0 
    5.3294    0.3670   -4.0653 H   0  0  0  0  0  0  0  0  0  0  0  0 
    5.1334   -0.6054   -5.5177 H   0  0  0  0  0  0  0  0  0  0  0  0 
    1.6812    1.5072   -4.0015 H   0  0  0  0  0  0  0  0  0  0  0  0 
    3.1919    1.6452   -3.1199 H   0  0  0  0  0  0  0  0  0  0  0  0 
    5.1723   -2.0165   -3.4382 H   0  0  0  0  0  0  0  0  0  0  0  0 
    3.7069   -2.2010   -4.3897 H   0  0  0  0  0  0  0  0  0  0  0  0 
    1.4770   -0.8689   -3.4878 H   0  0  0  0  0  0  0  0  0  0  0  0 
    1.6394    0.0267   -1.9927 H   0  0  0  0  0  0  0  0  0  0  0  0 
    2.9260   -2.1813   -2.2362 H   0  0  0  0  0  0  0  0  0  0  0  0 
    4.9512   -1.5633   -1.1240 H   0  0  0  0  0  0  0  0  0  0  0  0 
  1 19  1  0  0  0  0 
  1 20  1  0  0  0  0 
  2 14  1  0  0  0  0 
  2 23  1  0  0  0  0 
  2 22  1  0  0  0  0 
  3  4  1  0  0  0  0 
  3  5  1  0  0  0  0 
  4 26  1  0  0  0  0 
  4  6  1  0  0  0  0 
  5 29  1  0  0  0  0 
  5  7  1  0  0  0  0 
  6 30  1  0  0  0  0 
  6  8  1  0  0  0  0 
  7  8  1  0  0  0  0 
  7 33  1  0  0  0  0 
  8 34  1  0  0  0  0 
  8  9  1  0  0  0  0 
  9 11  1  0  0  0  0 
  9 35  1  0  0  0  0 
  9 10  1  0  0  0  0 
 10 15  2  0  0  0  0 
 10 13  1  0  0  0  0 
 11 14  1  0  0  0  0 
 12 13  1  0  0  0  0 
 12 17  2  0  0  0  0 
 13  1  1  0  0  0  0 
 14 12  1  0  0  0  0 
 16 11  2  0  0  0  0 
 18  1  1  0  0  0  0 
 21  2  1  0  0  0  0 
 24  3  1  0  0  0  0 
 25  3  1  0  0  0  0 
 27  4  1  0  0  0  0 
 28  5  1  0  0  0  0 
 31  6  1  0  0  0  0 
 32  7  1  0  0  0  0 
M  END 
>  <HBA> 
5 
 
>  <HBD> 
0 
 
>  <TPSA> 
57.69 
 
>  <cid> 
23876 
 
>  <dipole> 
1.16 
 
>  <excitation_energy_1> 
4.531 
 
>  <excitation_energy_2> 
5.169 
 
>  <excitation_energy_3> 
5.41 
 
>  <excitation_energy_4> 
5.722 
 
>  <homo_energy> 
-7.102 
 
>  <homo_lumo_gap> 
5.848 
 
>  <logP> 
1.109 
 
>  <lumo_energy> 
-1.254 
 
>  <melting_point> 
94.39 
 
>  <molecular_refractivity> 
70.18 
 
>  <oscillator_strength_1> 
0.0004 
 
>  <oscillator_strength_2> 
0.011 
 
>  <oscillator_strength_3> 
0.0615 
 
>  <oscillator_strength_4> 
0.0038 
 
>  <open_babel_can_smiles> 
CN1C(=O)C(C2CCCCC2)C(=O)N(C1=O)C 
 
>  <mulliken_charges> 
35 
1   -0.320278 
2   -0.31897 
3   -0.256882 
4   -0.275005 
5   -0.264917 
6   -0.272312 
7   -0.287575 
8   -0.088409 
9   -0.305114 
10   0.611851 
11   0.623272 
12   0.789226 
13   -0.522412 
14   -0.522013 
15   -0.489704 
16   -0.48853 
17   -0.495003 
18   0.191863 
19   0.197708 
20   0.179019 
21   0.186615 
22   0.179748 
23   0.19952 
24   0.125094 
25   0.132997 
26   0.172509 
27   0.129321 
28   0.135766 
29   0.134787 
30   0.140363 
31   0.134338 
32   0.143083 
33   0.133545 
34   0.166201 
35   0.200296 
 
>  <lowdin_charges> 
35 
1   -0.349442 
2   -0.348272 
3   -0.280039 
4   -0.291702 
5   -0.284411 
6   -0.279824 
7   -0.287632 
8   -0.114888 
9   -0.180206 
10   0.166161 
11   0.165104 
12   0.199727 
13   -0.08644 
14   -0.088823 
15   -0.265413 
16   -0.263773 
17   -0.279234 
18   0.178222 
19   0.181434 
20   0.165325 
21   0.172787 
22   0.165829 
23   0.183428 
24   0.13683 
25   0.145724 
26   0.159436 
27   0.144759 
28   0.147158 
29   0.141268 
30   0.14962 
31   0.14576 
32   0.150536 
33   0.143849 
34   0.16357 
35   0.193569 
 
$$$$ 
 
