PCCDB-ID:  13174 
public computational chemistry database (PCCDB) project, http://pccdb.org 
 
 26 25  0  0  1  0  0  0  0  0999 V2000 
    3.9238    3.5716    2.1167 C   0  0  0  0  0  0  0  0  0  0  0  0 
    8.3392    1.6975    1.2614 C   0  0  0  0  0  0  0  0  0  0  0  0 
    6.5797   -1.8105    1.4144 C   0  0  0  0  0  0  0  0  0  0  0  0 
    3.8803    2.8496    0.7662 C   0  0  0  0  0  0  0  0  0  0  0  0 
    8.0775    0.2129    0.9925 C   0  0  0  0  0  0  0  0  0  0  0  0 
    3.5228    1.3521    0.8785 C   0  0  0  0  0  0  0  0  0  0  0  0 
    6.7838   -0.3118    1.6132 C   0  0  1  0  0  0  0  0  0  0  0  0 
    4.5451    0.5637    1.6742 C   0  0  0  0  0  0  0  0  0  0  0  0 
    4.3787    0.1420    2.7998 O   0  0  0  0  0  0  0  0  0  0  0  0 
    5.6914    0.4093    0.9693 O   0  0  0  0  0  0  0  0  0  0  0  0 
    4.1720    4.6308    1.9856 H   0  0  0  0  0  0  0  0  0  0  0  0 
    4.6724    3.1325    2.7856 H   0  0  0  0  0  0  0  0  0  0  0  0 
    2.9551    3.5139    2.6270 H   0  0  0  0  0  0  0  0  0  0  0  0 
    9.2796    2.0193    0.8009 H   0  0  0  0  0  0  0  0  0  0  0  0 
    8.4082    1.8992    2.3374 H   0  0  0  0  0  0  0  0  0  0  0  0 
    7.5346    2.3180    0.8545 H   0  0  0  0  0  0  0  0  0  0  0  0 
    7.3934   -2.3697    1.8898 H   0  0  0  0  0  0  0  0  0  0  0  0 
    6.5663   -2.0612    0.3476 H   0  0  0  0  0  0  0  0  0  0  0  0 
    5.6363   -2.1310    1.8647 H   0  0  0  0  0  0  0  0  0  0  0  0 
    4.8455    2.9474    0.2549 H   0  0  0  0  0  0  0  0  0  0  0  0 
    3.1343    3.3266    0.1180 H   0  0  0  0  0  0  0  0  0  0  0  0 
    8.9042   -0.3890    1.3926 H   0  0  0  0  0  0  0  0  0  0  0  0 
    8.0488    0.0248   -0.0891 H   0  0  0  0  0  0  0  0  0  0  0  0 
    3.4513    0.9187   -0.1257 H   0  0  0  0  0  0  0  0  0  0  0  0 
    2.5581    1.2285    1.3797 H   0  0  0  0  0  0  0  0  0  0  0  0 
    6.7461   -0.0735    2.6811 H   0  0  0  0  0  0  0  0  0  0  0  0 
  1 13  1  0  0  0  0 
  1 12  1  0  0  0  0 
  2 15  1  0  0  0  0 
  3  7  1  0  0  0  0 
  3 19  1  0  0  0  0 
  3 17  1  0  0  0  0 
  4  6  1  0  0  0  0 
  4  1  1  0  0  0  0 
  5  2  1  0  0  0  0 
  5 22  1  0  0  0  0 
  5  7  1  0  0  0  0 
  6 25  1  0  0  0  0 
  6  8  1  0  0  0  0 
  7 26  1  1  0  0  0 
  8  9  2  0  0  0  0 
 10  7  1  0  0  0  0 
 10  8  1  0  0  0  0 
 11  1  1  0  0  0  0 
 14  2  1  0  0  0  0 
 16  2  1  0  0  0  0 
 18  3  1  0  0  0  0 
 20  4  1  0  0  0  0 
 21  4  1  0  0  0  0 
 23  5  1  0  0  0  0 
 24  6  1  0  0  0  0 
M  END 
>  <HBA> 
2 
 
>  <HBD> 
0 
 
>  <TPSA> 
26.3 
 
>  <cid> 
13174 
 
>  <dipole> 
1.93 
 
>  <excitation_energy_1> 
5.651 
 
>  <excitation_energy_2> 
6.909 
 
>  <excitation_energy_3> 
7.224 
 
>  <excitation_energy_4> 
7.279 
 
>  <homo_energy> 
-7.1 
 
>  <homo_lumo_gap> 
7.519 
 
>  <logP> 
2.128 
 
>  <lumo_energy> 
0.419 
 
>  <melting_point> 
-15.45 
 
>  <molecular_refractivity> 
41.85 
 
>  <oscillator_strength_1> 
0.0022 
 
>  <oscillator_strength_2> 
0.0081 
 
>  <oscillator_strength_3> 
0.0057 
 
>  <oscillator_strength_4> 
0.0054 
 
>  <open_babel_can_smiles> 
CCCC(=O)O[C@H](CC)C 
 
>  <mulliken_charges> 
26 
1   -0.445928 
2   -0.453525 
3   -0.463289 
4   -0.266364 
5   -0.261489 
6   -0.330489 
7   0.133352 
8   0.613438 
9   -0.481937 
10   -0.472595 
11   0.144884 
12   0.158469 
13   0.149355 
14   0.145594 
15   0.14454 
16   0.160572 
17   0.147068 
18   0.149577 
19   0.172652 
20   0.154376 
21   0.142119 
22   0.138241 
23   0.142517 
24   0.159057 
25   0.163259 
26   0.156546 
 
>  <lowdin_charges> 
26 
1   -0.447043 
2   -0.446634 
3   -0.453422 
4   -0.268003 
5   -0.277947 
6   -0.296832 
7   0.010209 
8   0.195738 
9   -0.270787 
10   -0.199962 
11   0.150083 
12   0.155226 
13   0.150916 
14   0.15236 
15   0.146733 
16   0.154797 
17   0.157378 
18   0.15159 
19   0.166131 
20   0.148354 
21   0.148262 
22   0.149704 
23   0.145925 
24   0.163971 
25   0.162991 
26   0.150262 
 
$$$$ 
 
