PCCDB-ID:  29493 
public computational chemistry database (PCCDB) project, http://pccdb.org 
 
 24 24  0  0  0  0  0  0  0  0999 V2000 
    0.3752    2.2701    1.2664 C   0  0  0  0  0  0  0  0  0  0  0  0 
    1.5575    1.9129   -0.7900 C   0  0  0  0  0  0  0  0  0  0  0  0 
   -0.2571    1.0340    1.1221 C   0  0  0  0  0  0  0  0  0  0  0  0 
    0.9249    0.6849   -0.9400 C   0  0  0  0  0  0  0  0  0  0  0  0 
   -1.7597   -3.0803    0.4258 C   0  0  0  0  0  0  0  0  0  0  0  0 
   -1.2941   -1.7019    0.8976 C   0  0  0  0  0  0  0  0  0  0  0  0 
    1.2924    2.7347    0.3173 C   0  0  0  0  0  0  0  0  0  0  0  0 
    0.0005    0.2145    0.0114 C   0  0  0  0  0  0  0  0  0  0  0  0 
   -0.6212   -3.8397   -0.1093 N   0  0  0  0  0  0  0  0  0  0  0  0 
    1.9823    3.9539    0.4983 N   0  0  0  0  0  0  0  0  0  0  0  0 
   -0.6507   -1.0077   -0.2000 N   0  0  0  0  0  0  0  0  0  0  0  0 
    0.1552    2.8789    2.1415 H   0  0  0  0  0  0  0  0  0  0  0  0 
    2.2744    2.2397   -1.5409 H   0  0  0  0  0  0  0  0  0  0  0  0 
   -0.9610    0.7157    1.8844 H   0  0  0  0  0  0  0  0  0  0  0  0 
    1.1424    0.0748   -1.8145 H   0  0  0  0  0  0  0  0  0  0  0  0 
   -2.4799   -2.9471   -0.3894 H   0  0  0  0  0  0  0  0  0  0  0  0 
   -2.2881   -3.5799    1.2554 H   0  0  0  0  0  0  0  0  0  0  0  0 
   -0.6270   -1.8153    1.7753 H   0  0  0  0  0  0  0  0  0  0  0  0 
   -2.1690   -1.1352    1.2423 H   0  0  0  0  0  0  0  0  0  0  0  0 
   -0.9461   -4.6858   -0.5722 H   0  0  0  0  0  0  0  0  0  0  0  0 
   -0.0149   -4.1409    0.6529 H   0  0  0  0  0  0  0  0  0  0  0  0 
    1.4648    4.6235    1.0576 H   0  0  0  0  0  0  0  0  0  0  0  0 
    2.2593    4.3873   -0.3760 H   0  0  0  0  0  0  0  0  0  0  0  0 
   -0.1168   -1.6650   -0.7618 H   0  0  0  0  0  0  0  0  0  0  0  0 
  1 12  1  0  0  0  0 
  2  7  1  0  0  0  0 
  3  1  1  0  0  0  0 
  3 14  1  0  0  0  0 
  4  2  2  0  0  0  0 
  4  8  1  0  0  0  0 
  5  6  1  0  0  0  0 
  5 17  1  0  0  0  0 
  6 19  1  0  0  0  0 
  6 18  1  0  0  0  0 
  7 10  1  0  0  0  0 
  7  1  2  0  0  0  0 
  8  3  2  0  0  0  0 
  9  5  1  0  0  0  0 
  9 21  1  0  0  0  0 
 10 22  1  0  0  0  0 
 11  8  1  0  0  0  0 
 11  6  1  0  0  0  0 
 13  2  1  0  0  0  0 
 15  4  1  0  0  0  0 
 16  5  1  0  0  0  0 
 20  9  1  0  0  0  0 
 23 10  1  0  0  0  0 
 24 11  1  0  0  0  0 
M  END 
>  <HBA> 
3 
 
>  <HBD> 
3 
 
>  <TPSA> 
64.07 
 
>  <cid> 
29493 
 
>  <dipole> 
1.97 
 
>  <excitation_energy_1> 
3.993 
 
>  <excitation_energy_2> 
4.073 
 
>  <excitation_energy_3> 
4.139 
 
>  <excitation_energy_4> 
4.49 
 
>  <homo_energy> 
-4.354 
 
>  <homo_lumo_gap> 
4.836 
 
>  <logP> 
1.994 
 
>  <lumo_energy> 
0.482 
 
>  <melting_point> 
141.61 
 
>  <molecular_refractivity> 
47.67 
 
>  <oscillator_strength_1> 
0.0242 
 
>  <oscillator_strength_2> 
0.0234 
 
>  <oscillator_strength_3> 
0.0103 
 
>  <oscillator_strength_4> 
0.0022 
 
>  <open_babel_can_smiles> 
NCCNc1ccc(cc1)N 
 
>  <mulliken_charges> 
24 
1   -0.183712 
2   -0.176058 
3   -0.18897 
4   -0.194717 
5   -0.161686 
6   -0.102734 
7   0.289536 
8   0.343726 
9   -0.726053 
10   -0.786379 
11   -0.663938 
12   0.108708 
13   0.110835 
14   0.116578 
15   0.114843 
16   0.155631 
17   0.123568 
18   0.119349 
19   0.144168 
20   0.305989 
21   0.301014 
22   0.309629 
23   0.309705 
24   0.330969 
 
>  <lowdin_charges> 
24 
1   -0.192555 
2   -0.18965 
3   -0.200346 
4   -0.186917 
5   -0.212552 
6   -0.201798 
7   0.033916 
8   0.039324 
9   -0.559793 
10   -0.505325 
11   -0.313718 
12   0.149297 
13   0.150861 
14   0.155078 
15   0.152309 
16   0.151399 
17   0.128123 
18   0.121948 
19   0.146225 
20   0.260904 
21   0.257352 
22   0.269675 
23   0.268426 
24   0.277817 
 
$$$$ 
 
