PCCDB-ID:  34487 
public computational chemistry database (PCCDB) project, http://pccdb.org 
 
 28 28  0  0  0  0  0  0  0  0999 V2000 
    2.6025   -1.1129    2.1587 C   0  0  0  0  0  0  0  0  0  0  0  0 
    4.0891    0.6785    1.1822 C   0  0  0  0  0  0  0  0  0  0  0  0 
    7.8761   -5.1714   -6.4531 C   0  0  0  0  0  0  0  0  0  0  0  0 
    6.6100   -2.5687   -3.4107 C   0  0  0  0  0  0  0  0  0  0  0  0 
    4.8093   -4.0976   -2.8794 C   0  0  0  0  0  0  0  0  0  0  0  0 
    6.1779   -1.7213   -2.3975 C   0  0  0  0  0  0  0  0  0  0  0  0 
    4.3768   -3.2545   -1.8669 C   0  0  0  0  0  0  0  0  0  0  0  0 
    5.9287   -3.7685   -3.6617 C   0  0  0  0  0  0  0  0  0  0  0  0 
    5.0644   -2.0528   -1.6092 C   0  0  0  0  0  0  0  0  0  0  0  0 
    6.3357   -4.7157   -4.7303 C   0  0  0  0  0  0  0  0  0  0  0  0 
    4.7203   -1.1111   -0.6135 N   0  0  0  0  0  0  0  0  0  0  0  0 
    3.8126   -1.5178    0.1793 N   0  0  0  0  0  0  0  0  0  0  0  0 
    3.4294   -0.6146    1.0757 N   0  0  0  0  0  0  0  0  0  0  0  0 
    5.7639   -5.7586   -4.9880 O   0  0  0  0  0  0  0  0  0  0  0  0 
    7.4342   -4.2961   -5.4071 O   0  0  0  0  0  0  0  0  0  0  0  0 
    1.7938   -0.4057    2.3721 H   0  0  0  0  0  0  0  0  0  0  0  0 
    3.1846   -1.2688    3.0786 H   0  0  0  0  0  0  0  0  0  0  0  0 
    2.1766   -2.0663    1.8431 H   0  0  0  0  0  0  0  0  0  0  0  0 
    3.5378    1.2857    1.9031 H   0  0  0  0  0  0  0  0  0  0  0  0 
    4.0967    1.1686    0.2057 H   0  0  0  0  0  0  0  0  0  0  0  0 
    5.1320    0.5676    1.5082 H   0  0  0  0  0  0  0  0  0  0  0  0 
    8.7547   -4.6910   -6.8853 H   0  0  0  0  0  0  0  0  0  0  0  0 
    7.0954   -5.2953   -7.2088 H   0  0  0  0  0  0  0  0  0  0  0  0 
    8.1349   -6.1545   -6.0502 H   0  0  0  0  0  0  0  0  0  0  0  0 
    7.4725   -2.3051   -4.0124 H   0  0  0  0  0  0  0  0  0  0  0  0 
    4.2873   -5.0257   -3.0890 H   0  0  0  0  0  0  0  0  0  0  0  0 
    6.6923   -0.7876   -2.1920 H   0  0  0  0  0  0  0  0  0  0  0  0 
    3.5090   -3.5083   -1.2690 H   0  0  0  0  0  0  0  0  0  0  0  0 
  1 16  1  0  0  0  0 
  1 17  1  0  0  0  0 
  2 21  1  0  0  0  0 
  2 19  1  0  0  0  0 
  3 24  1  0  0  0  0 
  3 15  1  0  0  0  0 
  4  6  1  0  0  0  0 
  5  7  2  0  0  0  0 
  6 27  1  0  0  0  0 
  6  9  2  0  0  0  0 
  7  9  1  0  0  0  0 
  7 28  1  0  0  0  0 
  8  4  2  0  0  0  0 
  8  5  1  0  0  0  0 
  9 11  1  0  0  0  0 
 10  8  1  0  0  0  0 
 11 12  1  0  0  0  0 
 12 13  1  0  0  0  0 
 13  2  1  0  0  0  0 
 13  1  1  0  0  0  0 
 14 10  2  0  0  0  0 
 15 10  1  0  0  0  0 
 18  1  1  0  0  0  0 
 20  2  1  0  0  0  0 
 22  3  1  0  0  0  0 
 23  3  1  0  0  0  0 
 25  4  1  0  0  0  0 
 26  5  1  0  0  0  0 
M  RAD  2  11   2  12   2 
M  END 
>  <HBA> 
5 
 
>  <HBD> 
0 
 
>  <TPSA> 
54.26 
 
>  <cid> 
34487 
 
>  <dipole> 
4.29 
 
>  <excitation_energy_1> 
3.79 
 
>  <excitation_energy_2> 
3.994 
 
>  <excitation_energy_3> 
4.417 
 
>  <excitation_energy_4> 
4.7 
 
>  <homo_energy> 
-5.733 
 
>  <homo_lumo_gap> 
4.248 
 
>  <logP> 
2.034 
 
>  <lumo_energy> 
-1.486 
 
>  <melting_point> 
55.14 
 
>  <molecular_refractivity> 
55.8 
 
>  <oscillator_strength_1> 
0.0932 
 
>  <oscillator_strength_2> 
0.7249 
 
>  <oscillator_strength_3> 
0.0097 
 
>  <oscillator_strength_4> 
0.0001 
 
>  <open_babel_can_smiles> 
COC(=O)c1ccc(cc1)[N][N]N(C)C 
 
>  <mulliken_charges> 
28 
1   -0.302222 
2   -0.304155 
3   -0.213701 
4   -0.16883 
5   -0.173243 
6   -0.161696 
7   -0.148013 
8   0.055971 
9   0.30186 
10   0.587512 
11   -0.397457 
12   -0.044099 
13   -0.190632 
14   -0.49756 
15   -0.46982 
16   0.163625 
17   0.162395 
18   0.188753 
19   0.157113 
20   0.191998 
21   0.172779 
22   0.160302 
23   0.168884 
24   0.168924 
25   0.152541 
26   0.159638 
27   0.134437 
28   0.144695 
 
>  <lowdin_charges> 
28 
1   -0.35264 
2   -0.365418 
3   -0.27866 
4   -0.138867 
5   -0.128319 
6   -0.166452 
7   -0.17374 
8   -0.055675 
9   0.038416 
10   0.194374 
11   -0.175914 
12   -0.029851 
13   -0.031785 
14   -0.275637 
15   -0.195223 
16   0.157236 
17   0.151228 
18   0.175446 
19   0.161634 
20   0.175034 
21   0.160072 
22   0.158701 
23   0.159225 
24   0.158099 
25   0.171246 
26   0.175019 
27   0.164374 
28   0.168077 
 
$$$$ 
 
