PCCDB-ID:  68260 
public computational chemistry database (PCCDB) project, http://pccdb.org 
 
 34 35  0  0  0  0  0  0  0  0999 V2000 
    0.8579   -0.2576    1.5003 C   0  0  0  0  0  0  0  0  0  0  0  0 
    8.7447   -5.7871   -0.3530 C   0  0  0  0  0  0  0  0  0  0  0  0 
    7.2582    0.6839    0.5516 C   0  0  0  0  0  0  0  0  0  0  0  0 
    2.7102    0.3852   -0.1114 C   0  0  0  0  0  0  0  0  0  0  0  0 
    3.2589   -1.0369    1.7387 C   0  0  0  0  0  0  0  0  0  0  0  0 
    7.2205   -3.9718   -1.2624 C   0  0  0  0  0  0  0  0  0  0  0  0 
    8.5927   -3.4557    0.6316 C   0  0  0  0  0  0  0  0  0  0  0  0 
    4.0420    0.3500   -0.5294 C   0  0  0  0  0  0  0  0  0  0  0  0 
    4.5873   -1.0737    1.3221 C   0  0  0  0  0  0  0  0  0  0  0  0 
    6.6861   -2.6873   -1.2238 C   0  0  0  0  0  0  0  0  0  0  0  0 
    8.0578   -2.1655    0.6699 C   0  0  0  0  0  0  0  0  0  0  0  0 
    2.2939   -0.3048    1.0316 C   0  0  0  0  0  0  0  0  0  0  0  0 
    8.1837   -4.3840   -0.3307 C   0  0  0  0  0  0  0  0  0  0  0  0 
    6.4688   -0.3604   -0.2616 C   0  0  0  0  0  0  0  0  0  0  0  0 
    5.0044   -0.3764    0.1795 C   0  0  0  0  0  0  0  0  0  0  0  0 
    7.0925   -1.7557   -0.2565 C   0  0  0  0  0  0  0  0  0  0  0  0 
    0.1945    0.1283    0.7196 H   0  0  0  0  0  0  0  0  0  0  0  0 
    0.7442    0.3922    2.3784 H   0  0  0  0  0  0  0  0  0  0  0  0 
    0.4961   -1.2516    1.7883 H   0  0  0  0  0  0  0  0  0  0  0  0 
    8.6740   -6.2311   -1.3517 H   0  0  0  0  0  0  0  0  0  0  0  0 
    8.1993   -6.4469    0.3353 H   0  0  0  0  0  0  0  0  0  0  0  0 
    9.7974   -5.8040   -0.0497 H   0  0  0  0  0  0  0  0  0  0  0  0 
    6.8113    1.6745    0.4193 H   0  0  0  0  0  0  0  0  0  0  0  0 
    8.3043    0.7316    0.2281 H   0  0  0  0  0  0  0  0  0  0  0  0 
    7.2388    0.4589    1.6237 H   0  0  0  0  0  0  0  0  0  0  0  0 
    1.9834    0.9534   -0.6882 H   0  0  0  0  0  0  0  0  0  0  0  0 
    2.9629   -1.5927    2.6264 H   0  0  0  0  0  0  0  0  0  0  0  0 
    6.8880   -4.6672   -2.0305 H   0  0  0  0  0  0  0  0  0  0  0  0 
    9.3460   -3.7404    1.3636 H   0  0  0  0  0  0  0  0  0  0  0  0 
    4.3358    0.8953   -1.4245 H   0  0  0  0  0  0  0  0  0  0  0  0 
    5.3079   -1.6649    1.8814 H   0  0  0  0  0  0  0  0  0  0  0  0 
    5.9370   -2.3974   -1.9578 H   0  0  0  0  0  0  0  0  0  0  0  0 
    8.4127   -1.4749    1.4288 H   0  0  0  0  0  0  0  0  0  0  0  0 
    6.4760   -0.0199   -1.3064 H   0  0  0  0  0  0  0  0  0  0  0  0 
  1 19  1  0  0  0  0 
  1 18  1  0  0  0  0 
  2 13  1  0  0  0  0 
  2 22  1  0  0  0  0 
  2 21  1  0  0  0  0 
  3 25  1  0  0  0  0 
  4 12  1  0  0  0  0 
  5 27  1  0  0  0  0 
  6 10  2  0  0  0  0 
  6 13  1  0  0  0  0 
  7 11  1  0  0  0  0 
  7 29  1  0  0  0  0 
  8  4  2  0  0  0  0 
  8 15  1  0  0  0  0 
  9  5  1  0  0  0  0 
  9 31  1  0  0  0  0 
 10 16  1  0  0  0  0 
 11 33  1  0  0  0  0 
 12  1  1  0  0  0  0 
 12  5  2  0  0  0  0 
 13  7  2  0  0  0  0 
 14 16  1  0  0  0  0 
 14 15  1  0  0  0  0 
 14  3  1  0  0  0  0 
 15  9  2  0  0  0  0 
 16 11  2  0  0  0  0 
 17  1  1  0  0  0  0 
 20  2  1  0  0  0  0 
 23  3  1  0  0  0  0 
 24  3  1  0  0  0  0 
 26  4  1  0  0  0  0 
 28  6  1  0  0  0  0 
 30  8  1  0  0  0  0 
 32 10  1  0  0  0  0 
 34 14  1  0  0  0  0 
M  END 
>  <HBA> 
0 
 
>  <HBD> 
0 
 
>  <TPSA> 
0.0 
 
>  <cid> 
68260 
 
>  <dipole> 
0.21 
 
>  <excitation_energy_1> 
5.043 
 
>  <excitation_energy_2> 
5.161 
 
>  <excitation_energy_3> 
5.344 
 
>  <excitation_energy_4> 
5.474 
 
>  <homo_energy> 
-5.981 
 
>  <homo_lumo_gap> 
5.989 
 
>  <logP> 
4.455 
 
>  <lumo_energy> 
0.008 
 
>  <melting_point> 
46.56 
 
>  <molecular_refractivity> 
70.63 
 
>  <oscillator_strength_1> 
0.0313 
 
>  <oscillator_strength_2> 
0.0046 
 
>  <oscillator_strength_3> 
0.0826 
 
>  <oscillator_strength_4> 
0.0561 
 
>  <open_babel_can_smiles> 
CC(c1ccc(cc1)C)c1ccc(cc1)C 
 
>  <mulliken_charges> 
34 
1   -0.529879 
2   -0.529659 
3   -0.448314 
4   -0.180904 
5   -0.179894 
6   -0.180526 
7   -0.183291 
8   -0.193025 
9   -0.178809 
10   -0.172581 
11   -0.192245 
12   0.17803 
13   0.178896 
14   -0.247793 
15   0.181086 
16   0.167353 
17   0.153539 
18   0.162707 
19   0.158138 
20   0.154827 
21   0.163987 
22   0.156128 
23   0.150133 
24   0.148705 
25   0.150231 
26   0.118391 
27   0.11932 
28   0.119588 
29   0.118231 
30   0.118849 
31   0.131711 
32   0.125546 
33   0.123767 
34   0.137755 
 
>  <lowdin_charges> 
34 
1   -0.443331 
2   -0.441917 
3   -0.438317 
4   -0.170394 
5   -0.16446 
6   -0.167382 
7   -0.167828 
8   -0.170297 
9   -0.162746 
10   -0.15861 
11   -0.174872 
12   -0.002938 
13   -0.002468 
14   -0.118273 
15   -0.005192 
16   -0.007335 
17   0.157 
18   0.16051 
19   0.158146 
20   0.156283 
21   0.162031 
22   0.156248 
23   0.154805 
24   0.150105 
25   0.148828 
26   0.154086 
27   0.153219 
28   0.154251 
29   0.153134 
30   0.152174 
31   0.161164 
32   0.156781 
33   0.158025 
34   0.149573 
 
$$$$ 
 
