PCCDB-ID:  60500 
public computational chemistry database (PCCDB) project, http://pccdb.org 
 
 31 31  0  0  0  0  0  0  0  0999 V2000 
   -0.0544   -2.4172   -0.2671 C   0  0  0  0  0  0  0  0  0  0  0  0 
    5.1576   -3.2046    5.8118 C   0  0  0  0  0  0  0  0  0  0  0  0 
    4.7476   -4.4683    5.0375 C   0  0  0  0  0  0  0  0  0  0  0  0 
    4.4557   -1.9084    5.3826 C   0  0  0  0  0  0  0  0  0  0  0  0 
    3.2832   -4.8707    5.2899 C   0  0  0  0  0  0  0  0  0  0  0  0 
    1.2274   -2.6976    1.9629 C   0  0  0  0  0  0  0  0  0  0  0  0 
    2.9230   -1.9743    5.2786 C   0  0  0  0  0  0  0  0  0  0  0  0 
    2.2409   -4.1842    4.3927 C   0  0  0  0  0  0  0  0  0  0  0  0 
    1.3730   -2.1571    3.3884 C   0  0  0  0  0  0  0  0  0  0  0  0 
    0.3160   -1.8411    1.0900 C   0  0  0  0  0  0  0  0  0  0  0  0 
    2.4836   -2.7658    4.1199 N   0  0  0  0  0  0  0  0  0  0  0  0 
   -0.0938   -0.7539    1.4527 O   0  0  0  0  0  0  0  0  0  0  0  0 
   -0.6935   -3.3000   -0.1359 H   0  0  0  0  0  0  0  0  0  0  0  0 
    0.8383   -2.7478   -0.8118 H   0  0  0  0  0  0  0  0  0  0  0  0 
   -0.5921   -1.6691   -0.8532 H   0  0  0  0  0  0  0  0  0  0  0  0 
    6.2427   -3.0592    5.7237 H   0  0  0  0  0  0  0  0  0  0  0  0 
    4.9620   -3.3830    6.8801 H   0  0  0  0  0  0  0  0  0  0  0  0 
    5.4005   -5.2918    5.3554 H   0  0  0  0  0  0  0  0  0  0  0  0 
    4.9207   -4.3290    3.9621 H   0  0  0  0  0  0  0  0  0  0  0  0 
    4.8296   -1.5954    4.3991 H   0  0  0  0  0  0  0  0  0  0  0  0 
    4.7255   -1.1137    6.0928 H   0  0  0  0  0  0  0  0  0  0  0  0 
    3.0477   -4.6862    6.3464 H   0  0  0  0  0  0  0  0  0  0  0  0 
    3.1602   -5.9519    5.1461 H   0  0  0  0  0  0  0  0  0  0  0  0 
    0.8551   -3.7302    1.9412 H   0  0  0  0  0  0  0  0  0  0  0  0 
    2.2195   -2.7311    1.4873 H   0  0  0  0  0  0  0  0  0  0  0  0 
    2.5523   -0.9526    5.1447 H   0  0  0  0  0  0  0  0  0  0  0  0 
    2.4798   -2.3335    6.2247 H   0  0  0  0  0  0  0  0  0  0  0  0 
    1.2381   -4.3401    4.8436 H   0  0  0  0  0  0  0  0  0  0  0  0 
    2.2253   -4.7046    3.4267 H   0  0  0  0  0  0  0  0  0  0  0  0 
    0.4069   -2.2741    3.9189 H   0  0  0  0  0  0  0  0  0  0  0  0 
    1.5539   -1.0819    3.3132 H   0  0  0  0  0  0  0  0  0  0  0  0 
  1 13  1  0  0  0  0 
  1 10  1  0  0  0  0 
  2 17  1  0  0  0  0 
  3  5  1  0  0  0  0 
  3 18  1  0  0  0  0 
  3  2  1  0  0  0  0 
  4  2  1  0  0  0  0 
  4 21  1  0  0  0  0 
  5 22  1  0  0  0  0 
  6  9  1  0  0  0  0 
  7  4  1  0  0  0  0 
  7 27  1  0  0  0  0 
  8 28  1  0  0  0  0 
  8  5  1  0  0  0  0 
  9 30  1  0  0  0  0 
  9 11  1  0  0  0  0 
 10 12  2  0  0  0  0 
 10  6  1  0  0  0  0 
 11  8  1  0  0  0  0 
 11  7  1  0  0  0  0 
 14  1  1  0  0  0  0 
 15  1  1  0  0  0  0 
 16  2  1  0  0  0  0 
 19  3  1  0  0  0  0 
 20  4  1  0  0  0  0 
 23  5  1  0  0  0  0 
 24  6  1  0  0  0  0 
 25  6  1  0  0  0  0 
 26  7  1  0  0  0  0 
 29  8  1  0  0  0  0 
 31  9  1  0  0  0  0 
M  END 
>  <HBA> 
2 
 
>  <HBD> 
0 
 
>  <TPSA> 
20.31 
 
>  <cid> 
60500 
 
>  <dipole> 
2.46 
 
>  <excitation_energy_1> 
4.302 
 
>  <excitation_energy_2> 
4.509 
 
>  <excitation_energy_3> 
5.048 
 
>  <excitation_energy_4> 
5.319 
 
>  <homo_energy> 
-5.499 
 
>  <homo_lumo_gap> 
5.206 
 
>  <logP> 
1.779 
 
>  <lumo_energy> 
-0.294 
 
>  <melting_point> 
17.39 
 
>  <molecular_refractivity> 
55.08 
 
>  <oscillator_strength_1> 
0.0026 
 
>  <oscillator_strength_2> 
0.0012 
 
>  <oscillator_strength_3> 
0.0068 
 
>  <oscillator_strength_4> 
0.0341 
 
>  <open_babel_can_smiles> 
CC(=O)CCN1CCCCCC1 
 
>  <mulliken_charges> 
31 
1   -0.528011 
2   -0.260974 
3   -0.245876 
4   -0.237752 
5   -0.287617 
6   -0.369194 
7   -0.134333 
8   -0.110957 
9   -0.110498 
10   0.454888 
11   -0.397137 
12   -0.438999 
13   0.170502 
14   0.165258 
15   0.179484 
16   0.128737 
17   0.125109 
18   0.127139 
19   0.138611 
20   0.135797 
21   0.122206 
22   0.136141 
23   0.134473 
24   0.155372 
25   0.171883 
26   0.137373 
27   0.119411 
28   0.105085 
29   0.134286 
30   0.117467 
31   0.162126 
 
>  <lowdin_charges> 
31 
1   -0.477216 
2   -0.273107 
3   -0.276894 
4   -0.282117 
5   -0.283365 
6   -0.317618 
7   -0.20145 
8   -0.199422 
9   -0.194278 
10   0.167438 
11   -0.196354 
12   -0.236715 
13   0.171462 
14   0.167783 
15   0.173911 
16   0.140627 
17   0.133359 
18   0.143335 
19   0.143048 
20   0.143612 
21   0.141461 
22   0.138604 
23   0.146604 
24   0.156455 
25   0.168851 
26   0.14785 
27   0.125458 
28   0.114892 
29   0.137243 
30   0.121128 
31   0.155413 
 
$$$$ 
 
