PCCDB-ID:  46655 
public computational chemistry database (PCCDB) project, http://pccdb.org 
 
 20 19  0  0  0  0  0  0  0  0999 V2000 
    6.4267   -1.6751   -4.7120 C   0  0  0  0  0  0  0  0  0  0  0  0 
    5.9976   -0.3818   -4.0101 C   0  0  0  0  0  0  0  0  0  0  0  0 
    5.3825   -0.6593   -2.6425 C   0  0  0  0  0  0  0  0  0  0  0  0 
    5.0935    2.4914   -0.7264 C   0  0  0  0  0  0  0  0  0  0  0  0 
    5.7917    1.2695   -1.3031 C   0  0  0  0  0  0  0  0  0  0  0  0 
    5.3675    4.4041    0.5326 N   0  0  0  0  0  0  0  0  0  0  0  0 
    6.9513    0.9706   -1.1464 O   0  0  0  0  0  0  0  0  0  0  0  0 
    4.8950    0.5539   -2.0212 O   0  0  0  0  0  0  0  0  0  0  0  0 
    6.0457    3.2514   -0.0143 O   0  0  0  0  0  0  0  0  0  0  0  0 
    6.8629   -1.4600   -5.6930 H   0  0  0  0  0  0  0  0  0  0  0  0 
    5.5752   -2.3489   -4.8674 H   0  0  0  0  0  0  0  0  0  0  0  0 
    7.1789   -2.2164   -4.1257 H   0  0  0  0  0  0  0  0  0  0  0  0 
    5.2661    0.1581   -4.6244 H   0  0  0  0  0  0  0  0  0  0  0  0 
    6.8622    0.2783   -3.8778 H   0  0  0  0  0  0  0  0  0  0  0  0 
    6.1071   -1.1325   -1.9739 H   0  0  0  0  0  0  0  0  0  0  0  0 
    4.4980   -1.2971   -2.7274 H   0  0  0  0  0  0  0  0  0  0  0  0 
    4.2704    2.1583   -0.0775 H   0  0  0  0  0  0  0  0  0  0  0  0 
    4.6422    3.0671   -1.5470 H   0  0  0  0  0  0  0  0  0  0  0  0 
    5.9286    5.1843    0.1827 H   0  0  0  0  0  0  0  0  0  0  0  0 
    5.5878    4.3447    1.5296 H   0  0  0  0  0  0  0  0  0  0  0  0 
  1 12  1  0  0  0  0 
  1  2  1  0  0  0  0 
  2 14  1  0  0  0  0 
  2  3  1  0  0  0  0 
  3  8  1  0  0  0  0 
  3 15  1  0  0  0  0 
  4 17  1  0  0  0  0 
  4  9  1  0  0  0  0 
  5  7  2  0  0  0  0 
  5  4  1  0  0  0  0 
  6 20  1  0  0  0  0 
  8  5  1  0  0  0  0 
  9  6  1  0  0  0  0 
 10  1  1  0  0  0  0 
 11  1  1  0  0  0  0 
 13  2  1  0  0  0  0 
 16  3  1  0  0  0  0 
 18  4  1  0  0  0  0 
 19  6  1  0  0  0  0 
M  END 
>  <HBA> 
4 
 
>  <HBD> 
1 
 
>  <TPSA> 
61.55 
 
>  <cid> 
46655 
 
>  <dipole> 
1.31 
 
>  <excitation_energy_1> 
5.813 
 
>  <excitation_energy_2> 
6.493 
 
>  <excitation_energy_3> 
6.634 
 
>  <excitation_energy_4> 
6.691 
 
>  <homo_energy> 
-7.053 
 
>  <homo_lumo_gap> 
7.475 
 
>  <logP> 
0.53 
 
>  <lumo_energy> 
0.422 
 
>  <melting_point> 
34.19 
 
>  <molecular_refractivity> 
31.23 
 
>  <oscillator_strength_1> 
0.0004 
 
>  <oscillator_strength_2> 
0.0337 
 
>  <oscillator_strength_3> 
0.0268 
 
>  <oscillator_strength_4> 
0.0018 
 
>  <open_babel_can_smiles> 
CCCOC(=O)CON 
 
>  <mulliken_charges> 
20 
1   -0.453821 
2   -0.272836 
3   -0.039751 
4   -0.045801 
5   0.593017 
6   -0.476488 
7   -0.461582 
8   -0.47001 
9   -0.413851 
10   0.15356 
11   0.144427 
12   0.152923 
13   0.144942 
14   0.164578 
15   0.167645 
16   0.149044 
17   0.162017 
18   0.16113 
19   0.320323 
20   0.320535 
 
>  <lowdin_charges> 
20 
1   -0.445667 
2   -0.286606 
3   -0.133591 
4   -0.158952 
5   0.186114 
6   -0.398075 
7   -0.246132 
8   -0.19724 
9   -0.232243 
10   0.156302 
11   0.148385 
12   0.1533 
13   0.148808 
14   0.157917 
15   0.158953 
16   0.151421 
17   0.15811 
18   0.157478 
19   0.262183 
20   0.259534 
 
$$$$ 
 
