PCCDB-ID:  49662 
public computational chemistry database (PCCDB) project, http://pccdb.org 
 
 27 27  0  0  1  0  0  0  0  0999 V2000 
    2.7131   -1.2736   -0.4039 C   0  0  0  0  0  0  0  0  0  0  0  0 
    5.0787   -0.7790   -2.3499 C   0  0  0  0  0  0  0  0  0  0  0  0 
    0.8840    3.7473   -2.5610 C   0  0  0  0  0  0  0  0  0  0  0  0 
    1.2412    4.6918   -1.4357 C   0  0  0  0  0  0  0  0  0  0  0  0 
    1.5576    2.5969   -2.4820 C   0  0  0  0  0  0  0  0  0  0  0  0 
    1.9997    3.7718   -0.4461 C   0  0  0  0  0  0  0  0  0  0  0  0 
    2.4769    1.2350   -0.4839 C   0  0  0  0  0  0  0  0  0  0  0  0 
    3.0381   -0.0050   -1.2040 C   0  0  1  0  0  0  0  0  0  0  0  0 
    2.4869    2.5531   -1.2823 C   0  0  1  0  0  0  0  0  0  0  0  0 
    4.4925    0.1270   -1.3673 N   0  0  0  0  0  0  0  0  0  0  0  0 
    1.6291   -1.3912   -0.2917 H   0  0  0  0  0  0  0  0  0  0  0  0 
    3.1659   -1.2176    0.5924 H   0  0  0  0  0  0  0  0  0  0  0  0 
    3.0931   -2.1744   -0.8973 H   0  0  0  0  0  0  0  0  0  0  0  0 
    6.1302   -0.5137   -2.5018 H   0  0  0  0  0  0  0  0  0  0  0  0 
    4.5735   -0.7665   -3.3350 H   0  0  0  0  0  0  0  0  0  0  0  0 
    5.0537   -1.8098   -1.9811 H   0  0  0  0  0  0  0  0  0  0  0  0 
    0.1901    4.0123   -3.3547 H   0  0  0  0  0  0  0  0  0  0  0  0 
    0.3653    5.1702   -0.9793 H   0  0  0  0  0  0  0  0  0  0  0  0 
    1.8796    5.5091   -1.8056 H   0  0  0  0  0  0  0  0  0  0  0  0 
    1.4910    1.7879   -3.2046 H   0  0  0  0  0  0  0  0  0  0  0  0 
    1.3025    3.4141    0.3221 H   0  0  0  0  0  0  0  0  0  0  0  0 
    2.8197    4.2801    0.0713 H   0  0  0  0  0  0  0  0  0  0  0  0 
    3.0504    1.3717    0.4439 H   0  0  0  0  0  0  0  0  0  0  0  0 
    1.4403    1.0260   -0.1877 H   0  0  0  0  0  0  0  0  0  0  0  0 
    2.5374   -0.0939   -2.1899 H   0  0  0  0  0  0  0  0  0  0  0  0 
    3.5162    2.7508   -1.6294 H   0  0  0  0  0  0  0  0  0  0  0  0 
    4.7055    1.0810   -1.6488 H   0  0  0  0  0  0  0  0  0  0  0  0 
  1 11  1  0  0  0  0 
  1 12  1  0  0  0  0 
  2 16  1  0  0  0  0 
  2 10  1  0  0  0  0 
  3  5  2  0  0  0  0 
  3  4  1  0  0  0  0 
  4 18  1  0  0  0  0 
  4  6  1  0  0  0  0 
  5  9  1  0  0  0  0 
  6 22  1  0  0  0  0 
  6 21  1  0  0  0  0 
  7 24  1  0  0  0  0 
  7 23  1  0  0  0  0 
  8 25  1  6  0  0  0 
  8  7  1  0  0  0  0 
  8  1  1  0  0  0  0 
  9 26  1  6  0  0  0 
  9  7  1  0  0  0  0 
  9  6  1  0  0  0  0 
 10  8  1  0  0  0  0 
 13  1  1  0  0  0  0 
 14  2  1  0  0  0  0 
 15  2  1  0  0  0  0 
 17  3  1  0  0  0  0 
 19  4  1  0  0  0  0 
 20  5  1  0  0  0  0 
 27 10  1  0  0  0  0 
M  END 
>  <HBA> 
1 
 
>  <HBD> 
1 
 
>  <TPSA> 
12.03 
 
>  <cid> 
49662 
 
>  <dipole> 
0.96 
 
>  <excitation_energy_1> 
5.408 
 
>  <excitation_energy_2> 
5.671 
 
>  <excitation_energy_3> 
5.856 
 
>  <excitation_energy_4> 
5.973 
 
>  <homo_energy> 
-5.84 
 
>  <homo_lumo_gap> 
6.553 
 
>  <logP> 
2.341 
 
>  <lumo_energy> 
0.713 
 
>  <melting_point> 
30.99 
 
>  <molecular_refractivity> 
45.59 
 
>  <oscillator_strength_1> 
0.0015 
 
>  <oscillator_strength_2> 
0.0145 
 
>  <oscillator_strength_3> 
0.0279 
 
>  <oscillator_strength_4> 
0.0063 
 
>  <open_babel_can_smiles> 
C[C@H](NC)C[C@@H]1CCC=C1 
 
>  <mulliken_charges> 
27 
1   -0.439088 
2   -0.304106 
3   -0.115656 
4   -0.303242 
5   -0.100869 
6   -0.287258 
7   -0.27772 
8   0.057154 
9   -0.127364 
10   -0.552555 
11   0.136083 
12   0.15096 
13   0.141378 
14   0.145487 
15   0.117489 
16   0.153717 
17   0.123652 
18   0.140686 
19   0.143225 
20   0.125741 
21   0.14223 
22   0.135036 
23   0.141041 
24   0.132277 
25   0.10024 
26   0.123453 
27   0.29801 
 
>  <lowdin_charges> 
27 
1   -0.445778 
2   -0.358076 
3   -0.169724 
4   -0.279278 
5   -0.179663 
6   -0.276875 
7   -0.281366 
8   -0.059281 
9   -0.127334 
10   -0.366066 
11   0.145838 
12   0.15253 
13   0.149173 
14   0.148725 
15   0.118791 
16   0.146248 
17   0.153417 
18   0.147715 
19   0.147436 
20   0.153358 
21   0.147416 
22   0.146576 
23   0.148305 
24   0.144676 
25   0.11142 
26   0.133306 
27   0.248511 
 
$$$$ 
 
