PCCDB-ID:  13028 
public computational chemistry database (PCCDB) project, http://pccdb.org 
 
 18 18  0  0  0  0  0  0  0  0999 V2000 
    2.7873   -1.1151   -0.4292 C   0  0  0  0  0  0  0  0  0  0  0  0 
    2.1280    0.0294   -0.6351 C   0  0  0  0  0  0  0  0  0  0  0  0 
    0.8024    5.0673   -1.2482 C   0  0  0  0  0  0  0  0  0  0  0  0 
    2.0145    5.0375   -0.5514 C   0  0  0  0  0  0  0  0  0  0  0  0 
    0.2216    3.8757   -1.6841 C   0  0  0  0  0  0  0  0  0  0  0  0 
    2.6385    3.8219   -0.2934 C   0  0  0  0  0  0  0  0  0  0  0  0 
    0.8435    2.6555   -1.4185 C   0  0  0  0  0  0  0  0  0  0  0  0 
    2.0594    2.6140   -0.7181 C   0  0  0  0  0  0  0  0  0  0  0  0 
    2.7978    1.3458   -0.4053 C   0  0  0  0  0  0  0  0  0  0  0  0 
    3.9373    1.3925    0.0471 O   0  0  0  0  0  0  0  0  0  0  0  0 
    2.3177   -2.0828   -0.5796 H   0  0  0  0  0  0  0  0  0  0  0  0 
    3.8225   -1.0962   -0.1003 H   0  0  0  0  0  0  0  0  0  0  0  0 
    1.0913    0.0110   -0.9558 H   0  0  0  0  0  0  0  0  0  0  0  0 
    0.3140    6.0165   -1.4522 H   0  0  0  0  0  0  0  0  0  0  0  0 
    2.4707    5.9637   -0.2126 H   0  0  0  0  0  0  0  0  0  0  0  0 
   -0.7163    3.8947   -2.2322 H   0  0  0  0  0  0  0  0  0  0  0  0 
    3.5823    3.7752    0.2394 H   0  0  0  0  0  0  0  0  0  0  0  0 
    0.3789    1.7435   -1.7781 H   0  0  0  0  0  0  0  0  0  0  0  0 
  1 12  1  0  0  0  0 
  2  1  2  0  0  0  0 
  2  9  1  0  0  0  0 
  3  4  2  0  0  0  0 
  4  6  1  0  0  0  0 
  4 15  1  0  0  0  0 
  5  7  2  0  0  0  0 
  5  3  1  0  0  0  0 
  6 17  1  0  0  0  0 
  7  8  1  0  0  0  0 
  8  9  1  0  0  0  0 
  8  6  2  0  0  0  0 
  9 10  2  0  0  0  0 
 11  1  1  0  0  0  0 
 13  2  1  0  0  0  0 
 14  3  1  0  0  0  0 
 16  5  1  0  0  0  0 
 18  7  1  0  0  0  0 
M  END 
>  <HBA> 
1 
 
>  <HBD> 
0 
 
>  <TPSA> 
17.07 
 
>  <cid> 
13028 
 
>  <dipole> 
2.73 
 
>  <excitation_energy_1> 
3.357 
 
>  <excitation_energy_2> 
4.324 
 
>  <excitation_energy_3> 
4.586 
 
>  <excitation_energy_4> 
5.154 
 
>  <homo_energy> 
-6.781 
 
>  <homo_lumo_gap> 
4.846 
 
>  <logP> 
2.055 
 
>  <lumo_energy> 
-1.935 
 
>  <melting_point> 
16.95 
 
>  <molecular_refractivity> 
40.97 
 
>  <oscillator_strength_1> 
0.0002 
 
>  <oscillator_strength_2> 
0.0111 
 
>  <oscillator_strength_3> 
0.2771 
 
>  <oscillator_strength_4> 
0.137 
 
>  <open_babel_can_smiles> 
C=CC(=O)c1ccccc1 
 
>  <mulliken_charges> 
18 
1   -0.302705 
2   -0.13122 
3   -0.117842 
4   -0.133213 
5   -0.135808 
6   -0.153128 
7   -0.175279 
8   0.067057 
9   0.37335 
10   -0.479879 
11   0.153239 
12   0.181669 
13   0.138324 
14   0.137721 
15   0.138661 
16   0.136065 
17   0.165096 
18   0.137893 
 
>  <lowdin_charges> 
18 
1   -0.258508 
2   -0.194621 
3   -0.139589 
4   -0.15486 
5   -0.156175 
6   -0.125954 
7   -0.150346 
8   -0.045141 
9   0.153131 
10   -0.252128 
11   0.166098 
12   0.178209 
13   0.157665 
14   0.161604 
15   0.162185 
16   0.160281 
17   0.177186 
18   0.160965 
 
$$$$ 
 
