PCCDB-ID:  71893 
public computational chemistry database (PCCDB) project, http://pccdb.org 
 
 19 20  0  0  0  0  0  0  0  0999 V2000 
   -1.4849   -1.0518    0.1949 C   0  0  0  0  0  0  0  0  0  0  0  0 
    1.1724   -1.3788    0.2270 C   0  0  0  0  0  0  0  0  0  0  0  0 
   -2.2259    0.2967    0.0926 C   0  0  0  0  0  0  0  0  0  0  0  0 
    2.2205   -0.2505    0.1467 C   0  0  0  0  0  0  0  0  0  0  0  0 
   -0.0884   -0.7188   -0.3596 C   0  0  0  0  0  0  0  0  0  0  0  0 
   -1.1284    1.3585    0.2636 C   0  0  0  0  0  0  0  0  0  0  0  0 
    1.4095    1.0464    0.2936 C   0  0  0  0  0  0  0  0  0  0  0  0 
    0.0821    0.6992   -0.0082 N   0  0  0  0  0  0  0  0  0  0  0  0 
   -1.2638    2.5169    0.5772 O   0  0  0  0  0  0  0  0  0  0  0  0 
    1.8141    2.1386    0.6126 O   0  0  0  0  0  0  0  0  0  0  0  0 
   -1.9739   -1.8612   -0.3540 H   0  0  0  0  0  0  0  0  0  0  0  0 
   -1.4014   -1.3561    1.2453 H   0  0  0  0  0  0  0  0  0  0  0  0 
    0.9923   -1.6509    1.2741 H   0  0  0  0  0  0  0  0  0  0  0  0 
    1.4634   -2.2842   -0.3126 H   0  0  0  0  0  0  0  0  0  0  0  0 
   -3.0106    0.4459    0.8380 H   0  0  0  0  0  0  0  0  0  0  0  0 
   -2.6830    0.4320   -0.8969 H   0  0  0  0  0  0  0  0  0  0  0  0 
    2.7212   -0.2331   -0.8307 H   0  0  0  0  0  0  0  0  0  0  0  0 
    2.9990   -0.2937    0.9120 H   0  0  0  0  0  0  0  0  0  0  0  0 
   -0.0880   -0.8202   -1.4558 H   0  0  0  0  0  0  0  0  0  0  0  0 
  1 12  1  0  0  0  0 
  2 13  1  0  0  0  0 
  3  1  1  0  0  0  0 
  3  6  1  0  0  0  0 
  3 15  1  0  0  0  0 
  4  2  1  0  0  0  0 
  4  7  1  0  0  0  0 
  4 18  1  0  0  0  0 
  5  8  1  0  0  0  0 
  5  1  1  0  0  0  0 
  5  2  1  0  0  0  0 
  6  9  2  0  0  0  0 
  7 10  2  0  0  0  0 
  8  6  1  0  0  0  0 
  8  7  1  0  0  0  0 
 11  1  1  0  0  0  0 
 14  2  1  0  0  0  0 
 16  3  1  0  0  0  0 
 17  4  1  0  0  0  0 
 19  5  1  0  0  0  0 
M  END 
>  <HBA> 
3 
 
>  <HBD> 
0 
 
>  <TPSA> 
37.38 
 
>  <cid> 
71893 
 
>  <dipole> 
6.4 
 
>  <excitation_energy_1> 
4.431 
 
>  <excitation_energy_2> 
5.082 
 
>  <excitation_energy_3> 
5.979 
 
>  <excitation_energy_4> 
6.057 
 
>  <homo_energy> 
-6.691 
 
>  <homo_lumo_gap> 
5.976 
 
>  <logP> 
0.236 
 
>  <lumo_energy> 
-0.716 
 
>  <melting_point> 
63.35 
 
>  <molecular_refractivity> 
38.75 
 
>  <oscillator_strength_1> 
0.0009 
 
>  <oscillator_strength_2> 
0.0002 
 
>  <oscillator_strength_3> 
0.1518 
 
>  <oscillator_strength_4> 
0.0485 
 
>  <open_babel_can_smiles> 
O=C1CCC2N1C(=O)CC2 
 
>  <mulliken_charges> 
19 
1   -0.296709 
2   -0.296349 
3   -0.379708 
4   -0.379895 
5   0.053771 
6   0.589923 
7   0.590003 
8   -0.490029 
9   -0.444616 
10   -0.444583 
11   0.154713 
12   0.156448 
13   0.156411 
14   0.154638 
15   0.183318 
16   0.17909 
17   0.179135 
18   0.183349 
19   0.151091 
 
>  <lowdin_charges> 
19 
1   -0.282497 
2   -0.281748 
3   -0.305622 
4   -0.306203 
5   -0.052663 
6   0.168744 
7   0.17212 
8   -0.107892 
9   -0.227568 
10   -0.228812 
11   0.158352 
12   0.152104 
13   0.152172 
14   0.157638 
15   0.175058 
16   0.170931 
17   0.171061 
18   0.175001 
19   0.139824 
 
$$$$ 
 
