PCCDB-ID:  65427 
public computational chemistry database (PCCDB) project, http://pccdb.org 
 
 22 22  0  0  1  0  0  0  0  0999 V2000 
    2.0402   -1.2969   -1.1760 C   0  0  0  0  0  0  0  0  0  0  0  0 
    3.0589    4.7562    0.4401 C   0  0  0  0  0  0  0  0  0  0  0  0 
    2.4169   -0.1627   -0.2175 C   0  0  0  0  0  0  0  0  0  0  0  0 
    3.4657    2.1943    0.0445 C   0  0  0  0  0  0  0  0  0  0  0  0 
    2.7287    3.4778   -0.2643 C   0  0  0  0  0  0  0  0  0  0  0  0 
    2.8830    1.1299   -0.9179 C   0  0  2  0  0  0  0  0  0  0  0  0 
    1.7814    3.2787   -1.2065 C   0  0  0  0  0  0  0  0  0  0  0  0 
    1.7588    1.8676   -1.6611 C   0  0  0  0  0  0  0  0  0  0  0  0 
    0.8893    4.1398   -1.7559 O   0  0  0  0  0  0  0  0  0  0  0  0 
    0.9875    1.3961   -2.4765 O   0  0  0  0  0  0  0  0  0  0  0  0 
    1.7069   -2.1797   -0.6183 H   0  0  0  0  0  0  0  0  0  0  0  0 
    2.9022   -1.5940   -1.7867 H   0  0  0  0  0  0  0  0  0  0  0  0 
    1.2412   -0.9886   -1.8542 H   0  0  0  0  0  0  0  0  0  0  0  0 
    4.1079    5.0371    0.2745 H   0  0  0  0  0  0  0  0  0  0  0  0 
    2.9273    4.6546    1.5260 H   0  0  0  0  0  0  0  0  0  0  0  0 
    2.4396    5.6005    0.1129 H   0  0  0  0  0  0  0  0  0  0  0  0 
    3.2259   -0.4974    0.4465 H   0  0  0  0  0  0  0  0  0  0  0  0 
    1.5651    0.0758    0.4350 H   0  0  0  0  0  0  0  0  0  0  0  0 
    3.3146    1.9075    1.0961 H   0  0  0  0  0  0  0  0  0  0  0  0 
    4.5509    2.3168   -0.0817 H   0  0  0  0  0  0  0  0  0  0  0  0 
    3.6362    0.8591   -1.6714 H   0  0  0  0  0  0  0  0  0  0  0  0 
    0.9994    5.0150   -1.3510 H   0  0  0  0  0  0  0  0  0  0  0  0 
  1 11  1  0  0  0  0 
  1  3  1  0  0  0  0 
  2 15  1  0  0  0  0 
  3 18  1  0  0  0  0 
  3 17  1  0  0  0  0 
  4 19  1  0  0  0  0 
  5  4  1  0  0  0  0 
  5  2  1  0  0  0  0 
  6 21  1  6  0  0  0 
  6  3  1  0  0  0  0 
  6  4  1  0  0  0  0 
  7  5  2  0  0  0  0 
  8  7  1  0  0  0  0 
  8  6  1  0  0  0  0 
  9 22  1  0  0  0  0 
  9  7  1  0  0  0  0 
 10  8  2  0  0  0  0 
 12  1  1  0  0  0  0 
 13  1  1  0  0  0  0 
 14  2  1  0  0  0  0 
 16  2  1  0  0  0  0 
 20  4  1  0  0  0  0 
M  END 
>  <HBA> 
2 
 
>  <HBD> 
1 
 
>  <TPSA> 
37.3 
 
>  <cid> 
65427 
 
>  <dipole> 
4.81 
 
>  <excitation_energy_1> 
3.805 
 
>  <excitation_energy_2> 
5.006 
 
>  <excitation_energy_3> 
5.163 
 
>  <excitation_energy_4> 
5.534 
 
>  <homo_energy> 
-6.256 
 
>  <homo_lumo_gap> 
5.287 
 
>  <logP> 
1.817 
 
>  <lumo_energy> 
-0.969 
 
>  <melting_point> 
44.0 
 
>  <molecular_refractivity> 
39.75 
 
>  <oscillator_strength_1> 
0.0004 
 
>  <oscillator_strength_2> 
0.2237 
 
>  <oscillator_strength_3> 
0.0045 
 
>  <oscillator_strength_4> 
0.0034 
 
>  <open_babel_can_smiles> 
CC[C@@H]1CC(=C(C1=O)O)C 
 
>  <mulliken_charges> 
22 
1   -0.453264 
2   -0.525872 
3   -0.255106 
4   -0.346864 
5   0.111544 
6   -0.174248 
7   0.232086 
8   0.416634 
9   -0.620878 
10   -0.467777 
11   0.136896 
12   0.136049 
13   0.187638 
14   0.173175 
15   0.17314 
16   0.137913 
17   0.133997 
18   0.137037 
19   0.152742 
20   0.14821 
21   0.159217 
22   0.407732 
 
>  <lowdin_charges> 
22 
1   -0.453451 
2   -0.439058 
3   -0.265691 
4   -0.267129 
5   -0.044208 
6   -0.154467 
7   0.028426 
8   0.138341 
9   -0.355871 
10   -0.234821 
11   0.14823 
12   0.145232 
13   0.16975 
14   0.166178 
15   0.165291 
16   0.148156 
17   0.142437 
18   0.143657 
19   0.15021 
20   0.14853 
21   0.162926 
22   0.357331 
 
$$$$ 
 
