PCCDB-ID:  36299 
public computational chemistry database (PCCDB) project, http://pccdb.org 
 
 19 19  0  0  0  0  0  0  0  0999 V2000 
    1.5381    1.5072    0.1372 C   0  0  0  0  0  0  0  0  0  0  0  0 
    4.3624   -0.2069   -3.6582 C   0  0  0  0  0  0  0  0  0  0  0  0 
    3.7320   -1.2360   -2.9620 C   0  0  0  0  0  0  0  0  0  0  0  0 
    4.4103    1.0694   -3.0876 C   0  0  0  0  0  0  0  0  0  0  0  0 
    3.1435   -1.0036   -1.7160 C   0  0  0  0  0  0  0  0  0  0  0  0 
    3.8426    1.3082   -1.8408 C   0  0  0  0  0  0  0  0  0  0  0  0 
    3.1918    0.2752   -1.1416 C   0  0  0  0  0  0  0  0  0  0  0  0 
    2.2085   -0.6499    0.8307 N   0  0  0  0  0  0  0  0  0  0  0  0 
    2.6599    0.5653    0.1476 N   0  0  0  0  0  0  0  0  0  0  0  0 
    1.8123    2.3913   -0.4399 H   0  0  0  0  0  0  0  0  0  0  0  0 
    1.3237    1.8255    1.1648 H   0  0  0  0  0  0  0  0  0  0  0  0 
    0.6285    1.0595   -0.2937 H   0  0  0  0  0  0  0  0  0  0  0  0 
    4.8180   -0.3937   -4.6265 H   0  0  0  0  0  0  0  0  0  0  0  0 
    3.6824   -2.2333   -3.3925 H   0  0  0  0  0  0  0  0  0  0  0  0 
    4.9090    1.8817   -3.6104 H   0  0  0  0  0  0  0  0  0  0  0  0 
    2.6235   -1.8019   -1.1998 H   0  0  0  0  0  0  0  0  0  0  0  0 
    3.9187    2.2923   -1.3866 H   0  0  0  0  0  0  0  0  0  0  0  0 
    1.9532   -0.3174    1.7640 H   0  0  0  0  0  0  0  0  0  0  0  0 
    3.0690   -1.1807    0.9930 H   0  0  0  0  0  0  0  0  0  0  0  0 
  1  9  1  0  0  0  0 
  1 11  1  0  0  0  0 
  2  4  2  0  0  0  0 
  2  3  1  0  0  0  0 
  3  5  2  0  0  0  0 
  4  6  1  0  0  0  0 
  5 16  1  0  0  0  0 
  5  7  1  0  0  0  0 
  6 17  1  0  0  0  0 
  6  7  2  0  0  0  0 
  7  9  1  0  0  0  0 
  8 19  1  0  0  0  0 
  8 18  1  0  0  0  0 
  9  8  1  0  0  0  0 
 10  1  1  0  0  0  0 
 12  1  1  0  0  0  0 
 13  2  1  0  0  0  0 
 14  3  1  0  0  0  0 
 15  4  1  0  0  0  0 
M  END 
>  <HBA> 
2 
 
>  <HBD> 
1 
 
>  <TPSA> 
29.26 
 
>  <cid> 
36299 
 
>  <dipole> 
1.32 
 
>  <excitation_energy_1> 
4.3 
 
>  <excitation_energy_2> 
4.481 
 
>  <excitation_energy_3> 
4.771 
 
>  <excitation_energy_4> 
5.124 
 
>  <homo_energy> 
-5.042 
 
>  <homo_lumo_gap> 
5.233 
 
>  <logP> 
1.697 
 
>  <lumo_energy> 
0.19 
 
>  <melting_point> 
67.57 
 
>  <molecular_refractivity> 
38.55 
 
>  <oscillator_strength_1> 
0.0141 
 
>  <oscillator_strength_2> 
0.0403 
 
>  <oscillator_strength_3> 
0.1219 
 
>  <oscillator_strength_4> 
0.0008 
 
>  <open_babel_can_smiles> 
CN(c1ccccc1)N 
 
>  <mulliken_charges> 
19 
1   -0.299657 
2   -0.130259 
3   -0.139395 
4   -0.138067 
5   -0.188513 
6   -0.161078 
7   0.295772 
8   -0.572861 
9   -0.398548 
10   0.165003 
11   0.144081 
12   0.152505 
13   0.122192 
14   0.125674 
15   0.125371 
16   0.150339 
17   0.125365 
18   0.308384 
19   0.313692 
 
>  <lowdin_charges> 
19 
1   -0.354321 
2   -0.175619 
3   -0.149672 
4   -0.154074 
5   -0.20058 
6   -0.180967 
7   0.041456 
8   -0.472262 
9   -0.113002 
10   0.162423 
11   0.144163 
12   0.141966 
13   0.1545 
14   0.154886 
15   0.156999 
16   0.170124 
17   0.156616 
18   0.257383 
19   0.259983 
 
$$$$ 
 
