PCCDB-ID:  40435 
public computational chemistry database (PCCDB) project, http://pccdb.org 
 
 46 48  0  0  1  0  0  0  0  0999 V2000 
   -0.8696   -2.4128    2.1224 C   0  0  0  0  0  0  0  0  0  0  0  0 
   -0.9969   -1.7521   -0.8196 C   0  0  0  0  0  0  0  0  0  0  0  0 
   -0.0679    0.1161    0.3716 C   0  0  0  0  0  0  0  0  0  0  0  0 
    1.0400   -3.4665    0.8194 C   0  0  0  0  0  0  0  0  0  0  0  0 
    2.3752   -3.2636    0.0890 C   0  0  0  0  0  0  0  0  0  0  0  0 
    5.5418   -6.2663   -0.4240 C   0  0  0  0  0  0  0  0  0  0  0  0 
    4.3654   -6.0694   -2.6425 C   0  0  0  0  0  0  0  0  0  0  0  0 
    3.3668   -7.4742   -0.8077 C   0  0  0  0  0  0  0  0  0  0  0  0 
    4.4387   -4.1012   -1.0776 C   0  0  0  0  0  0  0  0  0  0  0  0 
    3.4485   -5.4999    0.7527 C   0  0  0  0  0  0  0  0  0  0  0  0 
    2.2737   -5.3031   -1.4621 C   0  0  0  0  0  0  0  0  0  0  0  0 
    0.3541   -2.1445    1.2217 C   0  0  1  0  0  0  0  0  0  0  0  0 
    5.2224   -5.3218   -1.6006 C   0  0  1  0  0  0  0  0  0  0  0  0 
    4.2264   -6.7286    0.2343 C   0  0  2  0  0  0  0  0  0  0  0  0 
    3.0487   -6.5310   -1.9863 C   0  0  1  0  0  0  0  0  0  0  0  0 
    3.1073   -4.5315   -0.4075 C   0  0  1  0  0  0  0  0  0  0  0  0 
    0.0805   -1.2936    0.0461 N   0  0  0  0  0  0  0  0  0  0  0  0 
   -0.5593   -2.9023    3.0528 H   0  0  0  0  0  0  0  0  0  0  0  0 
   -1.5965   -3.0703    1.6311 H   0  0  0  0  0  0  0  0  0  0  0  0 
   -1.3845   -1.4840    2.3929 H   0  0  0  0  0  0  0  0  0  0  0  0 
   -0.9849   -1.1661   -1.7461 H   0  0  0  0  0  0  0  0  0  0  0  0 
   -2.0060   -1.6522   -0.3765 H   0  0  0  0  0  0  0  0  0  0  0  0 
   -0.8499   -2.8015   -1.0916 H   0  0  0  0  0  0  0  0  0  0  0  0 
   -0.1107    0.6998   -0.5557 H   0  0  0  0  0  0  0  0  0  0  0  0 
    0.8005    0.4587    0.9450 H   0  0  0  0  0  0  0  0  0  0  0  0 
   -0.9788    0.3561    0.9545 H   0  0  0  0  0  0  0  0  0  0  0  0 
    1.1947   -4.0463    1.7384 H   0  0  0  0  0  0  0  0  0  0  0  0 
    0.3505   -4.0605    0.2058 H   0  0  0  0  0  0  0  0  0  0  0  0 
    3.0559   -2.7174    0.7608 H   0  0  0  0  0  0  0  0  0  0  0  0 
    2.2005   -2.5978   -0.7655 H   0  0  0  0  0  0  0  0  0  0  0  0 
    6.1725   -5.7505    0.3136 H   0  0  0  0  0  0  0  0  0  0  0  0 
    6.1123   -7.1355   -0.7804 H   0  0  0  0  0  0  0  0  0  0  0  0 
    4.9164   -6.9352   -3.0359 H   0  0  0  0  0  0  0  0  0  0  0  0 
    4.1520   -5.4117   -3.4968 H   0  0  0  0  0  0  0  0  0  0  0  0 
    2.4344   -7.8269   -0.3448 H   0  0  0  0  0  0  0  0  0  0  0  0 
    3.9000   -8.3646   -1.1693 H   0  0  0  0  0  0  0  0  0  0  0  0 
    4.2242   -3.4096   -1.9052 H   0  0  0  0  0  0  0  0  0  0  0  0 
    5.0508   -3.5447   -0.3529 H   0  0  0  0  0  0  0  0  0  0  0  0 
    4.0440   -4.9702    1.5110 H   0  0  0  0  0  0  0  0  0  0  0  0 
    2.5293   -5.8359    1.2507 H   0  0  0  0  0  0  0  0  0  0  0  0 
    1.3211   -5.6340   -1.0272 H   0  0  0  0  0  0  0  0  0  0  0  0 
    2.0248   -4.6308   -2.2963 H   0  0  0  0  0  0  0  0  0  0  0  0 
    1.0834   -1.5767    1.8167 H   0  0  0  0  0  0  0  0  0  0  0  0 
    6.1577   -4.9826   -2.0662 H   0  0  0  0  0  0  0  0  0  0  0  0 
    4.4491   -7.3995    1.0750 H   0  0  0  0  0  0  0  0  0  0  0  0 
    2.4331   -7.0612   -2.7256 H   0  0  0  0  0  0  0  0  0  0  0  0 
  1 20  1  0  0  0  0 
  1 18  1  0  0  0  0 
  2 22  1  0  0  0  0 
  2 17  1  0  0  0  0 
  3 25  1  0  0  0  0 
  3 26  1  0  0  0  0 
  4 12  1  0  0  0  0 
  4 27  1  0  0  0  0 
  5 29  1  0  0  0  0 
  5  4  1  0  0  0  0 
  6 14  1  0  0  0  0 
  6 31  1  0  0  0  0 
  7 15  1  0  0  0  0 
  7 13  1  0  0  0  0 
  8 35  1  0  0  0  0 
  8 14  1  0  0  0  0 
  9 16  1  0  0  0  0 
  9 38  1  0  0  0  0 
 10 40  1  0  0  0  0 
 10 39  1  0  0  0  0 
 11 41  1  0  0  0  0 
 11 16  1  0  0  0  0 
 12 43  1  1  0  0  0 
 12  1  1  0  0  0  0 
 13 44  1  6  0  0  0 
 13  9  1  0  0  0  0 
 13  6  1  0  0  0  0 
 14 10  1  0  0  0  0 
 14 45  1  1  0  0  0 
 15 46  1  6  0  0  0 
 15 11  1  0  0  0  0 
 15  8  1  0  0  0  0 
 16  5  1  1  0  0  0 
 16 10  1  0  0  0  0 
 17  3  1  0  0  0  0 
 17 12  1  0  0  0  0 
 19  1  1  0  0  0  0 
 21  2  1  0  0  0  0 
 23  2  1  0  0  0  0 
 24  3  1  0  0  0  0 
 28  4  1  0  0  0  0 
 30  5  1  0  0  0  0 
 32  6  1  0  0  0  0 
 33  7  1  0  0  0  0 
 34  7  1  0  0  0  0 
 36  8  1  0  0  0  0 
 37  9  1  0  0  0  0 
 42 11  1  0  0  0  0 
M  END 
>  <HBA> 
1 
 
>  <HBD> 
0 
 
>  <TPSA> 
3.24 
 
>  <cid> 
40435 
 
>  <dipole> 
0.61 
 
>  <excitation_energy_1> 
4.879 
 
>  <excitation_energy_2> 
5.216 
 
>  <excitation_energy_3> 
5.329 
 
>  <excitation_energy_4> 
5.404 
 
>  <homo_energy> 
-5.429 
 
>  <homo_lumo_gap> 
7.369 
 
>  <logP> 
3.933 
 
>  <lumo_energy> 
1.94 
 
>  <melting_point> 
55.85 
 
>  <molecular_refractivity> 
75.32 
 
>  <oscillator_strength_1> 
0.0044 
 
>  <oscillator_strength_2> 
0.006 
 
>  <oscillator_strength_3> 
0.0065 
 
>  <oscillator_strength_4> 
0.0071 
 
>  <open_babel_can_smiles> 
C[C@H](N(C)C)CC[C@]12C[C@H]3C[C@@H](C2)C[C@@H](C1)C3 
 
>  <mulliken_charges> 
46 
1   -0.460113 
2   -0.304456 
3   -0.294146 
4   -0.27694 
5   -0.260877 
6   -0.263022 
7   -0.263112 
8   -0.263875 
9   -0.272849 
10   -0.275355 
11   -0.276575 
12   0.048514 
13   -0.089156 
14   -0.090444 
15   -0.090494 
16   0.092339 
17   -0.364867 
18   0.141618 
19   0.143392 
20   0.145062 
21   0.146065 
22   0.120473 
23   0.150656 
24   0.144963 
25   0.146287 
26   0.116828 
27   0.130935 
28   0.130947 
29   0.113821 
30   0.145797 
31   0.123089 
32   0.122532 
33   0.122476 
34   0.123528 
35   0.122561 
36   0.123077 
37   0.122699 
38   0.120623 
39   0.119414 
40   0.125799 
41   0.123993 
42   0.122197 
43   0.120497 
44   0.112126 
45   0.111984 
46   0.111989 
 
>  <lowdin_charges> 
46 
1   -0.463883 
2   -0.357172 
3   -0.356552 
4   -0.286544 
5   -0.277677 
6   -0.28304 
7   -0.282194 
8   -0.281618 
9   -0.280631 
10   -0.282881 
11   -0.281628 
12   -0.06072 
13   -0.131904 
14   -0.131972 
15   -0.132727 
16   0.000272 
17   -0.184425 
18   0.151653 
19   0.149352 
20   0.149917 
21   0.1487 
22   0.120521 
23   0.148658 
24   0.148114 
25   0.149014 
26   0.118417 
27   0.143169 
28   0.140269 
29   0.136781 
30   0.150159 
31   0.139778 
32   0.138951 
33   0.139009 
34   0.139214 
35   0.138276 
36   0.139153 
37   0.13933 
38   0.138924 
39   0.13843 
40   0.139199 
41   0.137903 
42   0.139113 
43   0.139129 
44   0.137649 
45   0.137882 
46   0.138632 
 
$$$$ 
 
