PCCDB-ID:  69277 
public computational chemistry database (PCCDB) project, http://pccdb.org 
 
 25 25  0  0  0  0  0  0  0  0999 V2000 
    1.2059   -0.2820    0.5935 C   0  0  0  0  0  0  0  0  0  0  0  0 
    3.6888   -0.3146    1.1290 C   0  0  0  0  0  0  0  0  0  0  0  0 
    2.9090   -2.0132   -1.4031 C   0  0  0  0  0  0  0  0  0  0  0  0 
    3.1707    0.1577   -2.3985 C   0  0  0  0  0  0  0  0  0  0  0  0 
    3.1717   -2.6110   -2.6305 C   0  0  0  0  0  0  0  0  0  0  0  0 
    3.4258   -0.4349   -3.6348 C   0  0  0  0  0  0  0  0  0  0  0  0 
    2.6204    0.0465    0.0793 C   0  0  0  0  0  0  0  0  0  0  0  0 
    2.9013   -0.6157   -1.2624 C   0  0  0  0  0  0  0  0  0  0  0  0 
    3.4210   -1.8291   -3.7666 C   0  0  0  0  0  0  0  0  0  0  0  0 
    3.6898   -2.5440   -5.0581 C   0  0  0  0  0  0  0  0  0  0  0  0 
    3.5833   -1.7898   -6.2070 N   0  0  0  0  0  0  0  0  0  0  0  0 
    4.0096   -3.7259   -5.0950 O   0  0  0  0  0  0  0  0  0  0  0  0 
    1.0032    0.2514    1.5297 H   0  0  0  0  0  0  0  0  0  0  0  0 
    1.0928   -1.3545    0.7910 H   0  0  0  0  0  0  0  0  0  0  0  0 
    0.4409    0.0055   -0.1360 H   0  0  0  0  0  0  0  0  0  0  0  0 
    3.5008    0.2188    2.0683 H   0  0  0  0  0  0  0  0  0  0  0  0 
    4.6930   -0.0506    0.7805 H   0  0  0  0  0  0  0  0  0  0  0  0 
    3.6836   -1.3885    1.3495 H   0  0  0  0  0  0  0  0  0  0  0  0 
    2.7105   -2.6440   -0.5402 H   0  0  0  0  0  0  0  0  0  0  0  0 
    3.1886    1.2420   -2.3130 H   0  0  0  0  0  0  0  0  0  0  0  0 
    3.1904   -3.6908   -2.7357 H   0  0  0  0  0  0  0  0  0  0  0  0 
    3.6659    0.1980   -4.4851 H   0  0  0  0  0  0  0  0  0  0  0  0 
    2.6693    1.1323   -0.0801 H   0  0  0  0  0  0  0  0  0  0  0  0 
    2.9942   -0.9696   -6.2188 H   0  0  0  0  0  0  0  0  0  0  0  0 
    3.6293   -2.3181   -7.0686 H   0  0  0  0  0  0  0  0  0  0  0  0 
  1 14  1  0  0  0  0 
  1 13  1  0  0  0  0 
  2 18  1  0  0  0  0 
  2 16  1  0  0  0  0 
  3  8  1  0  0  0  0 
  3 19  1  0  0  0  0 
  4 20  1  0  0  0  0 
  4  8  2  0  0  0  0 
  5  3  2  0  0  0  0 
  6  4  1  0  0  0  0 
  7  1  1  0  0  0  0 
  7  2  1  0  0  0  0 
  8  7  1  0  0  0  0 
  9  6  2  0  0  0  0 
  9  5  1  0  0  0  0 
 10  9  1  0  0  0  0 
 11 10  1  0  0  0  0 
 12 10  2  0  0  0  0 
 15  1  1  0  0  0  0 
 17  2  1  0  0  0  0 
 21  5  1  0  0  0  0 
 22  6  1  0  0  0  0 
 23  7  1  0  0  0  0 
 24 11  1  0  0  0  0 
 25 11  1  0  0  0  0 
M  END 
>  <HBA> 
2 
 
>  <HBD> 
1 
 
>  <TPSA> 
43.09 
 
>  <cid> 
69277 
 
>  <dipole> 
3.7 
 
>  <excitation_energy_1> 
4.56 
 
>  <excitation_energy_2> 
4.987 
 
>  <excitation_energy_3> 
5.273 
 
>  <excitation_energy_4> 
5.724 
 
>  <homo_energy> 
-6.593 
 
>  <homo_lumo_gap> 
5.695 
 
>  <logP> 
2.609 
 
>  <lumo_energy> 
-0.898 
 
>  <melting_point> 
96.63 
 
>  <molecular_refractivity> 
49.12 
 
>  <oscillator_strength_1> 
0.0054 
 
>  <oscillator_strength_2> 
0.011 
 
>  <oscillator_strength_3> 
0.2901 
 
>  <oscillator_strength_4> 
0.0133 
 
>  <open_babel_can_smiles> 
CC(c1ccc(cc1)C(=O)N)C 
 
>  <mulliken_charges> 
25 
1   -0.439861 
2   -0.439529 
3   -0.190316 
4   -0.20154 
5   -0.161668 
6   -0.182132 
7   -0.162564 
8   0.194813 
9   0.078333 
10   0.526304 
11   -0.752678 
12   -0.502972 
13   0.144246 
14   0.14634 
15   0.150027 
16   0.143796 
17   0.152234 
18   0.146592 
19   0.131466 
20   0.126894 
21   0.163059 
22   0.129989 
23   0.130098 
24   0.330305 
25   0.338765 
 
>  <lowdin_charges> 
25 
1   -0.44076 
2   -0.438879 
3   -0.164539 
4   -0.167703 
5   -0.127856 
6   -0.159521 
7   -0.116716 
8   0.012295 
9   -0.047466 
10   0.162314 
11   -0.471933 
12   -0.300741 
13   0.150236 
14   0.147407 
15   0.153882 
16   0.149939 
17   0.153502 
18   0.147594 
19   0.158393 
20   0.153896 
21   0.174812 
22   0.158089 
23   0.140344 
24   0.283735 
25   0.289678 
 
$$$$ 
 
