PCCDB-ID:  41490 
public computational chemistry database (PCCDB) project, http://pccdb.org 
 
 30 29  0  0  1  0  0  0  0  0999 V2000 
    6.2676   -1.7012    2.1745 C   0  0  0  0  0  0  0  0  0  0  0  0 
    3.6200   -5.2731   -2.7167 C   0  0  0  0  0  0  0  0  0  0  0  0 
    5.3465   -2.4976    1.2427 C   0  0  0  0  0  0  0  0  0  0  0  0 
    4.8518   -6.1575   -2.5024 C   0  0  0  0  0  0  0  0  0  0  0  0 
    5.3452   -2.0141   -0.2165 C   0  0  0  0  0  0  0  0  0  0  0  0 
    6.6992   -2.1093   -0.9359 C   0  0  0  0  0  0  0  0  0  0  0  0 
    6.6524   -4.4190   -2.0425 C   0  0  0  0  0  0  0  0  0  0  0  0 
    5.8623   -5.6245   -1.4773 C   0  0  2  0  0  0  0  0  0  0  0  0 
    8.2987   -3.7412   -0.3427 N   0  0  0  0  0  0  0  0  0  0  0  0 
    7.2133   -3.4770   -1.0572 N   0  0  0  0  0  0  0  0  0  0  0  0 
    6.7176   -6.7034   -1.1554 O   0  0  0  0  0  0  0  0  0  0  0  0 
    8.7446   -4.8915   -0.4429 O   0  0  0  0  0  0  0  0  0  0  0  0 
    6.1551   -2.0393    3.2104 H   0  0  0  0  0  0  0  0  0  0  0  0 
    6.0322   -0.6297    2.1474 H   0  0  0  0  0  0  0  0  0  0  0  0 
    7.3225   -1.8238    1.9061 H   0  0  0  0  0  0  0  0  0  0  0  0 
    2.9244   -5.7426   -3.4207 H   0  0  0  0  0  0  0  0  0  0  0  0 
    3.8755   -4.2880   -3.1273 H   0  0  0  0  0  0  0  0  0  0  0  0 
    3.0788   -5.1107   -1.7763 H   0  0  0  0  0  0  0  0  0  0  0  0 
    4.3161   -2.4425    1.6170 H   0  0  0  0  0  0  0  0  0  0  0  0 
    5.6244   -3.5591    1.2766 H   0  0  0  0  0  0  0  0  0  0  0  0 
    5.3727   -6.3329   -3.4536 H   0  0  0  0  0  0  0  0  0  0  0  0 
    4.5397   -7.1434   -2.1398 H   0  0  0  0  0  0  0  0  0  0  0  0 
    5.0359   -0.9601   -0.2550 H   0  0  0  0  0  0  0  0  0  0  0  0 
    4.5918   -2.5735   -0.7871 H   0  0  0  0  0  0  0  0  0  0  0  0 
    7.4684   -1.5485   -0.4003 H   0  0  0  0  0  0  0  0  0  0  0  0 
    6.6189   -1.6850   -1.9445 H   0  0  0  0  0  0  0  0  0  0  0  0 
    6.0108   -3.8134   -2.6870 H   0  0  0  0  0  0  0  0  0  0  0  0 
    7.4833   -4.8095   -2.6427 H   0  0  0  0  0  0  0  0  0  0  0  0 
    5.3088   -5.2819   -0.5836 H   0  0  0  0  0  0  0  0  0  0  0  0 
    7.5367   -6.3155   -0.7912 H   0  0  0  0  0  0  0  0  0  0  0  0 
  1 13  1  0  0  0  0 
  2  4  1  0  0  0  0 
  2 18  1  0  0  0  0 
  3 20  1  0  0  0  0 
  3 19  1  0  0  0  0 
  3  1  1  0  0  0  0 
  4 22  1  0  0  0  0 
  4  8  1  0  0  0  0 
  5  3  1  0  0  0  0 
  6 25  1  0  0  0  0 
  6  5  1  0  0  0  0 
  7  8  1  0  0  0  0 
  7 10  1  0  0  0  0 
  8 11  1  0  0  0  0 
  8 29  1  1  0  0  0 
 10  6  1  0  0  0  0 
 10  9  1  0  0  0  0 
 11 30  1  0  0  0  0 
 12  9  2  0  0  0  0 
 14  1  1  0  0  0  0 
 15  1  1  0  0  0  0 
 16  2  1  0  0  0  0 
 17  2  1  0  0  0  0 
 21  4  1  0  0  0  0 
 23  5  1  0  0  0  0 
 24  5  1  0  0  0  0 
 26  6  1  0  0  0  0 
 27  7  1  0  0  0  0 
 28  7  1  0  0  0  0 
M  END 
>  <HBA> 
4 
 
>  <HBD> 
1 
 
>  <TPSA> 
52.9 
 
>  <cid> 
41490 
 
>  <dipole> 
4.81 
 
>  <excitation_energy_1> 
3.45 
 
>  <excitation_energy_2> 
4.913 
 
>  <excitation_energy_3> 
5.568 
 
>  <excitation_energy_4> 
5.957 
 
>  <homo_energy> 
-6.463 
 
>  <homo_lumo_gap> 
5.241 
 
>  <logP> 
1.541 
 
>  <lumo_energy> 
-1.222 
 
>  <melting_point> 
12.41 
 
>  <molecular_refractivity> 
49.37 
 
>  <oscillator_strength_1> 
0.0012 
 
>  <oscillator_strength_2> 
0.0054 
 
>  <oscillator_strength_3> 
0.12 
 
>  <oscillator_strength_4> 
0.003 
 
>  <open_babel_can_smiles> 
CCCCN(C[C@@H](CC)O)N=O 
 
>  <mulliken_charges> 
30 
1   -0.453627 
2   -0.460967 
3   -0.257747 
4   -0.266876 
5   -0.26836 
6   -0.151706 
7   -0.199369 
8   0.170243 
9   0.156786 
10   -0.202684 
11   -0.658232 
12   -0.406317 
13   0.151491 
14   0.139681 
15   0.162174 
16   0.154769 
17   0.13717 
18   0.148629 
19   0.140329 
20   0.152282 
21   0.139195 
22   0.162098 
23   0.143899 
24   0.143565 
25   0.184833 
26   0.156242 
27   0.157011 
28   0.186843 
29   0.116623 
30   0.422022 
 
>  <lowdin_charges> 
30 
1   -0.446422 
2   -0.450615 
3   -0.274872 
4   -0.281085 
5   -0.287049 
6   -0.203604 
7   -0.23819 
8   -0.004526 
9   0.058289 
10   -0.026875 
11   -0.476747 
12   -0.288037 
13   0.154613 
14   0.143819 
15   0.15299 
16   0.158547 
17   0.140274 
18   0.149099 
19   0.14654 
20   0.145178 
21   0.146128 
22   0.160616 
23   0.149521 
24   0.148087 
25   0.171052 
26   0.151733 
27   0.163544 
28   0.172252 
29   0.123874 
30   0.341869 
 
$$$$ 
 
