PCCDB-ID:  11516 
public computational chemistry database (PCCDB) project, http://pccdb.org 
 
 25 24  0  0  0  0  0  0  0  0999 V2000 
    0.1780    1.1444    1.5330 C   0  0  0  0  0  0  0  0  0  0  0  0 
    8.0160    2.9171    2.1504 C   0  0  0  0  0  0  0  0  0  0  0  0 
    1.5458    0.9487    0.8709 C   0  0  0  0  0  0  0  0  0  0  0  0 
    7.4305    3.6292    0.9264 C   0  0  0  0  0  0  0  0  0  0  0  0 
    2.5723    2.0050    1.2974 C   0  0  0  0  0  0  0  0  0  0  0  0 
    6.2853    2.8569    0.2623 C   0  0  0  0  0  0  0  0  0  0  0  0 
    3.9369    1.8190    0.6316 C   0  0  0  0  0  0  0  0  0  0  0  0 
    4.9885    2.8332    1.0698 C   0  0  0  0  0  0  0  0  0  0  0  0 
    4.7983    3.5924    2.0027 O   0  0  0  0  0  0  0  0  0  0  0  0 
   -0.5350    0.3762    1.2127 H   0  0  0  0  0  0  0  0  0  0  0  0 
   -0.2483    2.1224    1.2786 H   0  0  0  0  0  0  0  0  0  0  0  0 
    0.2563    1.0925    2.6257 H   0  0  0  0  0  0  0  0  0  0  0  0 
    8.8448    3.4914    2.5792 H   0  0  0  0  0  0  0  0  0  0  0  0 
    8.4018    1.9240    1.8863 H   0  0  0  0  0  0  0  0  0  0  0  0 
    7.2585    2.7921    2.9306 H   0  0  0  0  0  0  0  0  0  0  0  0 
    1.4290    0.9712   -0.2223 H   0  0  0  0  0  0  0  0  0  0  0  0 
    1.9297   -0.0527    1.1135 H   0  0  0  0  0  0  0  0  0  0  0  0 
    8.2206    3.7915    0.1823 H   0  0  0  0  0  0  0  0  0  0  0  0 
    7.0598    4.6172    1.2208 H   0  0  0  0  0  0  0  0  0  0  0  0 
    2.7011    1.9863    2.3864 H   0  0  0  0  0  0  0  0  0  0  0  0 
    2.1918    3.0079    1.0625 H   0  0  0  0  0  0  0  0  0  0  0  0 
    6.5829    1.8238    0.0308 H   0  0  0  0  0  0  0  0  0  0  0  0 
    6.0338    3.3086   -0.7105 H   0  0  0  0  0  0  0  0  0  0  0  0 
    3.8520    1.8540   -0.4650 H   0  0  0  0  0  0  0  0  0  0  0  0 
    4.3413    0.8180    0.8522 H   0  0  0  0  0  0  0  0  0  0  0  0 
  1 12  1  0  0  0  0 
  2 13  1  0  0  0  0 
  2 15  1  0  0  0  0 
  3 17  1  0  0  0  0 
  3  5  1  0  0  0  0 
  3  1  1  0  0  0  0 
  4 19  1  0  0  0  0 
  4  2  1  0  0  0  0 
  5 20  1  0  0  0  0 
  6  4  1  0  0  0  0 
  6  8  1  0  0  0  0 
  7 25  1  0  0  0  0 
  7  8  1  0  0  0  0 
  7  5  1  0  0  0  0 
  8  9  2  0  0  0  0 
 10  1  1  0  0  0  0 
 11  1  1  0  0  0  0 
 14  2  1  0  0  0  0 
 16  3  1  0  0  0  0 
 18  4  1  0  0  0  0 
 21  5  1  0  0  0  0 
 22  6  1  0  0  0  0 
 23  6  1  0  0  0  0 
 24  7  1  0  0  0  0 
M  END 
>  <HBA> 
1 
 
>  <HBD> 
0 
 
>  <TPSA> 
17.07 
 
>  <cid> 
11516 
 
>  <dipole> 
2.44 
 
>  <excitation_energy_1> 
4.421 
 
>  <excitation_energy_2> 
6.052 
 
>  <excitation_energy_3> 
6.706 
 
>  <excitation_energy_4> 
6.753 
 
>  <homo_energy> 
-6.563 
 
>  <homo_lumo_gap> 
6.327 
 
>  <logP> 
2.546 
 
>  <lumo_energy> 
-0.237 
 
>  <melting_point> 
-6.5 
 
>  <molecular_refractivity> 
40.77 
 
>  <oscillator_strength_1> 
0.0 
 
>  <oscillator_strength_2> 
0.0095 
 
>  <oscillator_strength_3> 
0.0011 
 
>  <oscillator_strength_4> 
0.0003 
 
>  <open_babel_can_smiles> 
CCCCC(=O)CCC 
 
>  <mulliken_charges> 
25 
1   -0.441531 
2   -0.449419 
3   -0.250658 
4   -0.241594 
5   -0.239091 
6   -0.353192 
7   -0.360421 
8   0.46045 
9   -0.451616 
10   0.141658 
11   0.143782 
12   0.144744 
13   0.14446 
14   0.133558 
15   0.164236 
16   0.128059 
17   0.128763 
18   0.129165 
19   0.157674 
20   0.151341 
21   0.141639 
22   0.147623 
23   0.160661 
24   0.150687 
25   0.159022 
 
>  <lowdin_charges> 
25 
1   -0.44265 
2   -0.448499 
3   -0.269935 
4   -0.271013 
5   -0.268499 
6   -0.310651 
7   -0.307614 
8   0.163721 
9   -0.239184 
10   0.150255 
11   0.147435 
12   0.146189 
13   0.152192 
14   0.141219 
15   0.157563 
16   0.135167 
17   0.137149 
18   0.143331 
19   0.154993 
20   0.149926 
21   0.146405 
22   0.152953 
23   0.164811 
24   0.153688 
25   0.161048 
 
$$$$ 
 
