PCCDB-ID:  7734 
public computational chemistry database (PCCDB) project, http://pccdb.org 
 
 24 24  0  0  0  0  0  0  0  0999 V2000 
    1.0585    0.7997    0.3132 C   0  0  0  0  0  0  0  0  0  0  0  0 
    5.6294   -4.2371    3.6757 C   0  0  0  0  0  0  0  0  0  0  0  0 
    2.3893    0.1307   -0.0757 C   0  0  0  0  0  0  0  0  0  0  0  0 
    4.2912   -3.5791    4.0580 C   0  0  0  0  0  0  0  0  0  0  0  0 
    2.5383   -2.1846    0.9571 C   0  0  0  0  0  0  0  0  0  0  0  0 
    3.7092   -0.3878    2.0305 C   0  0  0  0  0  0  0  0  0  0  0  0 
    2.9714   -3.0609    1.9517 C   0  0  0  0  0  0  0  0  0  0  0  0 
    4.1423   -1.2640    3.0250 C   0  0  0  0  0  0  0  0  0  0  0  0 
    2.8973   -0.8308    0.9784 C   0  0  0  0  0  0  0  0  0  0  0  0 
    3.7832   -2.6179    3.0038 C   0  0  0  0  0  0  0  0  0  0  0  0 
    0.7229    1.4904   -0.4692 H   0  0  0  0  0  0  0  0  0  0  0  0 
    1.1621    1.3661    1.2456 H   0  0  0  0  0  0  0  0  0  0  0  0 
    0.2732    0.0508    0.4661 H   0  0  0  0  0  0  0  0  0  0  0  0 
    5.9667   -4.9253    4.4596 H   0  0  0  0  0  0  0  0  0  0  0  0 
    6.4094   -3.4820    3.5268 H   0  0  0  0  0  0  0  0  0  0  0  0 
    5.5350   -4.8041    2.7426 H   0  0  0  0  0  0  0  0  0  0  0  0 
    3.1426    0.9082   -0.2569 H   0  0  0  0  0  0  0  0  0  0  0  0 
    2.2588   -0.4027   -1.0259 H   0  0  0  0  0  0  0  0  0  0  0  0 
    4.4116   -3.0481    5.0110 H   0  0  0  0  0  0  0  0  0  0  0  0 
    3.5424   -4.3626    4.2315 H   0  0  0  0  0  0  0  0  0  0  0  0 
    1.9088   -2.5577    0.1513 H   0  0  0  0  0  0  0  0  0  0  0  0 
    4.0051    0.6588    2.0727 H   0  0  0  0  0  0  0  0  0  0  0  0 
    2.6754   -4.1074    1.9097 H   0  0  0  0  0  0  0  0  0  0  0  0 
    4.7716   -0.8909    3.8309 H   0  0  0  0  0  0  0  0  0  0  0  0 
  1 13  1  0  0  0  0 
  1 12  1  0  0  0  0 
  2  4  1  0  0  0  0 
  2 14  1  0  0  0  0 
  3  1  1  0  0  0  0 
  3  9  1  0  0  0  0 
  4 20  1  0  0  0  0 
  4 19  1  0  0  0  0 
  5  9  2  0  0  0  0 
  5  7  1  0  0  0  0 
  6 22  1  0  0  0  0 
  6  8  2  0  0  0  0 
  7 10  2  0  0  0  0 
  8 24  1  0  0  0  0 
  9  6  1  0  0  0  0 
 10  8  1  0  0  0  0 
 10  4  1  0  0  0  0 
 11  1  1  0  0  0  0 
 15  2  1  0  0  0  0 
 16  2  1  0  0  0  0 
 17  3  1  0  0  0  0 
 18  3  1  0  0  0  0 
 21  5  1  0  0  0  0 
 23  7  1  0  0  0  0 
M  END 
>  <HBA> 
0 
 
>  <HBD> 
0 
 
>  <TPSA> 
0.0 
 
>  <cid> 
7734 
 
>  <dipole> 
0.0 
 
>  <excitation_energy_1> 
5.187 
 
>  <excitation_energy_2> 
5.65 
 
>  <excitation_energy_3> 
5.744 
 
>  <excitation_energy_4> 
6.138 
 
>  <homo_energy> 
-6.166 
 
>  <homo_lumo_gap> 
6.34 
 
>  <logP> 
2.811 
 
>  <lumo_energy> 
0.174 
 
>  <melting_point> 
10.66 
 
>  <molecular_refractivity> 
45.99 
 
>  <oscillator_strength_1> 
0.0023 
 
>  <oscillator_strength_2> 
0.1645 
 
>  <oscillator_strength_3> 
0.0 
 
>  <oscillator_strength_4> 
0.0001 
 
>  <open_babel_can_smiles> 
CCc1ccc(cc1)CC 
 
>  <mulliken_charges> 
24 
1   -0.432299 
2   -0.432284 
3   -0.339764 
4   -0.339747 
5   -0.181537 
6   -0.181079 
7   -0.181412 
8   -0.181551 
9   0.175472 
10   0.175593 
11   0.141726 
12   0.14852 
13   0.148565 
14   0.141723 
15   0.148553 
16   0.148531 
17   0.141463 
18   0.141144 
19   0.141214 
20   0.14138 
21   0.118943 
22   0.118945 
23   0.118952 
24   0.118951 
 
>  <lowdin_charges> 
24 
1   -0.442191 
2   -0.442181 
3   -0.271462 
4   -0.271421 
5   -0.167421 
6   -0.165355 
7   -0.165439 
8   -0.16735 
9   -0.004873 
10   -0.004865 
11   0.149282 
12   0.150191 
13   0.150905 
14   0.14928 
15   0.150888 
16   0.150204 
17   0.148719 
18   0.147685 
19   0.147689 
20   0.148668 
21   0.153375 
22   0.151148 
23   0.15115 
24   0.153374 
 
$$$$ 
 
