PCCDB-ID:  21149 
public computational chemistry database (PCCDB) project, http://pccdb.org 
 
 28 28  0  0  1  0  0  0  0  0999 V2000 
    2.9541    0.8960   -1.3308 C   0  0  0  0  0  0  0  0  0  0  0  0 
    2.3993    0.1252   -0.1284 C   0  0  0  0  0  0  0  0  0  0  0  0 
    1.6405   -3.9486   -3.2471 C   0  0  0  0  0  0  0  0  0  0  0  0 
    2.9198   -4.0625   -2.7032 C   0  0  0  0  0  0  0  0  0  0  0  0 
    0.7703   -2.9817   -2.7424 C   0  0  0  0  0  0  0  0  0  0  0  0 
    3.3258   -3.2168   -1.6693 C   0  0  0  0  0  0  0  0  0  0  0  0 
    1.1801   -2.1348   -1.7118 C   0  0  0  0  0  0  0  0  0  0  0  0 
    2.3146   -1.9565    1.3159 C   0  0  0  0  0  0  0  0  0  0  0  0 
    2.4677   -2.2301   -1.1599 C   0  0  0  0  0  0  0  0  0  0  0  0 
    2.9017   -1.3396    0.0123 C   0  0  1  0  0  0  0  0  0  0  0  0 
    2.8936   -1.3276    2.5135 N   0  0  0  0  0  0  0  0  0  0  0  0 
    4.3704   -1.4045    0.1622 N   0  0  0  0  0  0  0  0  0  0  0  0 
    2.5666    1.9209   -1.3436 H   0  0  0  0  0  0  0  0  0  0  0  0 
    2.6771    0.4209   -2.2785 H   0  0  0  0  0  0  0  0  0  0  0  0 
    4.0481    0.9658   -1.2984 H   0  0  0  0  0  0  0  0  0  0  0  0 
    1.3025    0.1413   -0.1687 H   0  0  0  0  0  0  0  0  0  0  0  0 
    2.6691    0.6369    0.8034 H   0  0  0  0  0  0  0  0  0  0  0  0 
    1.3233   -4.6070   -4.0516 H   0  0  0  0  0  0  0  0  0  0  0  0 
    3.6080   -4.8143   -3.0817 H   0  0  0  0  0  0  0  0  0  0  0  0 
   -0.2316   -2.8812   -3.1525 H   0  0  0  0  0  0  0  0  0  0  0  0 
    4.3150   -3.3233   -1.2377 H   0  0  0  0  0  0  0  0  0  0  0  0 
    0.4814   -1.3915   -1.3396 H   0  0  0  0  0  0  0  0  0  0  0  0 
    2.4783   -3.0434    1.2826 H   0  0  0  0  0  0  0  0  0  0  0  0 
    1.2318   -1.7890    1.3229 H   0  0  0  0  0  0  0  0  0  0  0  0 
    3.7430   -1.8247    2.7733 H   0  0  0  0  0  0  0  0  0  0  0  0 
    2.2571   -1.4216    3.3012 H   0  0  0  0  0  0  0  0  0  0  0  0 
    4.6264   -0.7581    0.9087 H   0  0  0  0  0  0  0  0  0  0  0  0 
    4.8180   -1.0540   -0.6837 H   0  0  0  0  0  0  0  0  0  0  0  0 
  1 15  1  0  0  0  0 
  1  2  1  0  0  0  0 
  2 17  1  0  0  0  0 
  3  5  2  0  0  0  0 
  3  4  1  0  0  0  0 
  4  6  2  0  0  0  0 
  5  7  1  0  0  0  0 
  6 21  1  0  0  0  0 
  6  9  1  0  0  0  0 
  7 22  1  0  0  0  0 
  7  9  2  0  0  0  0 
  8 24  1  0  0  0  0 
  8 11  1  0  0  0  0 
  9 10  1  0  0  0  0 
 10  2  1  6  0  0  0 
 10 12  1  0  0  0  0 
 10  8  1  0  0  0  0 
 11 25  1  0  0  0  0 
 11 26  1  0  0  0  0 
 12 27  1  0  0  0  0 
 13  1  1  0  0  0  0 
 14  1  1  0  0  0  0 
 16  2  1  0  0  0  0 
 18  3  1  0  0  0  0 
 19  4  1  0  0  0  0 
 20  5  1  0  0  0  0 
 23  8  1  0  0  0  0 
 28 12  1  0  0  0  0 
M  END 
>  <HBA> 
2 
 
>  <HBD> 
2 
 
>  <TPSA> 
52.04 
 
>  <cid> 
21149 
 
>  <dipole> 
0.9 
 
>  <excitation_energy_1> 
5.256 
 
>  <excitation_energy_2> 
5.28 
 
>  <excitation_energy_3> 
5.533 
 
>  <excitation_energy_4> 
5.572 
 
>  <homo_energy> 
-6.046 
 
>  <homo_lumo_gap> 
6.207 
 
>  <logP> 
2.61 
 
>  <lumo_energy> 
0.161 
 
>  <melting_point> 
120.6 
 
>  <molecular_refractivity> 
51.13 
 
>  <oscillator_strength_1> 
0.0014 
 
>  <oscillator_strength_2> 
0.0201 
 
>  <oscillator_strength_3> 
0.0017 
 
>  <oscillator_strength_4> 
0.0087 
 
>  <open_babel_can_smiles> 
CC[C@](c1ccccc1)(CN)N 
 
>  <mulliken_charges> 
28 
1   -0.451808 
2   -0.268872 
3   -0.128122 
4   -0.130235 
5   -0.135351 
6   -0.184673 
7   -0.18606 
8   -0.135749 
9   0.12994 
10   0.138303 
11   -0.734508 
12   -0.753281 
13   0.142945 
14   0.153853 
15   0.127709 
16   0.123004 
17   0.153529 
18   0.124781 
19   0.125292 
20   0.125049 
21   0.150597 
22   0.12334 
23   0.137133 
24   0.133579 
25   0.306741 
26   0.302906 
27   0.309202 
28   0.300758 
 
>  <lowdin_charges> 
28 
1   -0.448792 
2   -0.289446 
3   -0.162274 
4   -0.158496 
5   -0.157573 
6   -0.169001 
7   -0.172108 
8   -0.202778 
9   -0.00633 
10   0.053189 
11   -0.564468 
12   -0.552362 
13   0.150432 
14   0.151942 
15   0.137331 
16   0.135666 
17   0.153574 
18   0.156048 
19   0.156322 
20   0.154409 
21   0.16823 
22   0.155804 
23   0.133965 
24   0.140592 
25   0.259426 
26   0.260653 
27   0.26057 
28   0.255476 
 
$$$$ 
 
