PCCDB-ID:  20339 
public computational chemistry database (PCCDB) project, http://pccdb.org 
 
 24 24  0  0  0  0  0  0  0  0999 V2000 
    1.1540    0.2854    0.0162 C   0  0  0  0  0  0  0  0  0  0  0  0 
    5.1503   -1.8453   -1.5558 C   0  0  0  0  0  0  0  0  0  0  0  0 
    5.4006   -2.0103    0.9601 C   0  0  0  0  0  0  0  0  0  0  0  0 
    5.9743    2.1866    1.6740 C   0  0  0  0  0  0  0  0  0  0  0  0 
    3.1911   -1.2676   -0.0537 C   0  0  0  0  0  0  0  0  0  0  0  0 
    2.5985   -0.0679   -0.0784 C   0  0  0  0  0  0  0  0  0  0  0  0 
    4.7000   -1.2667   -0.1944 C   0  0  0  0  0  0  0  0  0  0  0  0 
    5.8607    1.1922   -1.2353 O   0  0  0  0  0  0  0  0  0  0  0  0 
    5.4921    0.8713    1.3367 O   0  0  0  0  0  0  0  0  0  0  0  0 
    3.4332    1.0431   -0.2190 O   0  0  0  0  0  0  0  0  0  0  0  0 
    5.0284    0.5620   -0.1824 P   0  0  2  0  0  0  0  0  0  0  0  0 
    0.5436   -0.6163    0.1131 H   0  0  0  0  0  0  0  0  0  0  0  0 
    0.8332    0.8366   -0.8757 H   0  0  0  0  0  0  0  0  0  0  0  0 
    0.9712    0.9330    0.8822 H   0  0  0  0  0  0  0  0  0  0  0  0 
    4.8704   -2.9040   -1.6105 H   0  0  0  0  0  0  0  0  0  0  0  0 
    6.2358   -1.7676   -1.6764 H   0  0  0  0  0  0  0  0  0  0  0  0 
    4.6790   -1.3236   -2.3933 H   0  0  0  0  0  0  0  0  0  0  0  0 
    5.1282   -3.0721    0.9227 H   0  0  0  0  0  0  0  0  0  0  0  0 
    5.1075   -1.6124    1.9342 H   0  0  0  0  0  0  0  0  0  0  0  0 
    6.4904   -1.9411    0.8731 H   0  0  0  0  0  0  0  0  0  0  0  0 
    6.7064    2.5270    0.9374 H   0  0  0  0  0  0  0  0  0  0  0  0 
    6.4401    2.0999    2.6570 H   0  0  0  0  0  0  0  0  0  0  0  0 
    5.1390    2.8927    1.7221 H   0  0  0  0  0  0  0  0  0  0  0  0 
    2.6339   -2.1935    0.0466 H   0  0  0  0  0  0  0  0  0  0  0  0 
  1 12  1  0  0  0  0 
  1 14  1  0  0  0  0 
  2  7  1  0  0  0  0 
  3 19  1  0  0  0  0 
  4 23  1  0  0  0  0 
  4 22  1  0  0  0  0 
  5 24  1  0  0  0  0 
  6  5  2  0  0  0  0 
  6  1  1  0  0  0  0 
  7 11  1  0  0  0  0 
  7  5  1  0  0  0  0 
  7  3  1  0  0  0  0 
  9  4  1  0  0  0  0 
 10 11  1  0  0  0  0 
 10  6  1  0  0  0  0 
 11  8  2  6  0  0  0 
 11  9  1  0  0  0  0 
 13  1  1  0  0  0  0 
 15  2  1  0  0  0  0 
 16  2  1  0  0  0  0 
 17  2  1  0  0  0  0 
 18  3  1  0  0  0  0 
 20  3  1  0  0  0  0 
 21  4  1  0  0  0  0 
M  END 
>  <HBA> 
3 
 
>  <HBD> 
0 
 
>  <TPSA> 
45.34 
 
>  <cid> 
20339 
 
>  <dipole> 
3.3 
 
>  <excitation_energy_1> 
5.687 
 
>  <excitation_energy_2> 
6.088 
 
>  <excitation_energy_3> 
6.149 
 
>  <excitation_energy_4> 
6.215 
 
>  <homo_energy> 
-6.297 
 
>  <homo_lumo_gap> 
6.844 
 
>  <logP> 
2.538 
 
>  <lumo_energy> 
0.547 
 
>  <melting_point> 
17.12 
 
>  <molecular_refractivity> 
44.05 
 
>  <oscillator_strength_1> 
0.009 
 
>  <oscillator_strength_2> 
0.1355 
 
>  <oscillator_strength_3> 
0.0091 
 
>  <oscillator_strength_4> 
0.0059 
 
>  <open_babel_can_smiles> 
CO[P@]1(=O)OC(=CC1(C)C)C 
 
>  <mulliken_charges> 
24 
1   -0.516398 
2   -0.438769 
3   -0.442568 
4   -0.220248 
5   -0.182526 
6   0.358099 
7   -0.203994 
8   -0.536347 
9   -0.527889 
10   -0.557939 
11   1.136344 
12   0.163935 
13   0.178755 
14   0.174578 
15   0.144265 
16   0.166102 
17   0.171919 
18   0.144327 
19   0.172035 
20   0.157013 
21   0.188626 
22   0.168108 
23   0.167376 
24   0.135194 
 
>  <lowdin_charges> 
24 
1   -0.439917 
2   -0.43028 
3   -0.430326 
4   -0.270871 
5   -0.242332 
6   0.104437 
7   -0.135905 
8   -0.577545 
9   -0.40025 
10   -0.363967 
11   1.074856 
12   0.166867 
13   0.17254 
14   0.17038 
15   0.149754 
16   0.16072 
17   0.166995 
18   0.149398 
19   0.164739 
20   0.155866 
21   0.170518 
22   0.161063 
23   0.157429 
24   0.165832 
 
$$$$ 
 
