PCCDB-ID:  18622 
public computational chemistry database (PCCDB) project, http://pccdb.org 
 
 32 34  0  0  0  0  0  0  0  0999 V2000 
   -1.6618   -1.3401    0.1106 C   0  0  0  0  0  0  0  0  0  0  0  0 
    4.4102   -1.1392    4.2471 C   0  0  0  0  0  0  0  0  0  0  0  0 
   -0.7625   -1.7940   -0.8531 C   0  0  0  0  0  0  0  0  0  0  0  0 
   -1.1928   -0.5781    1.1836 C   0  0  0  0  0  0  0  0  0  0  0  0 
    4.7063    0.0475    3.5721 C   0  0  0  0  0  0  0  0  0  0  0  0 
    3.4822   -2.0261    3.7019 C   0  0  0  0  0  0  0  0  0  0  0  0 
    0.5971   -1.4865   -0.7524 C   0  0  0  0  0  0  0  0  0  0  0  0 
    0.1640   -0.2775    1.2880 C   0  0  0  0  0  0  0  0  0  0  0  0 
    4.0882    0.3432    2.3573 C   0  0  0  0  0  0  0  0  0  0  0  0 
    2.8529   -1.7256    2.4908 C   0  0  0  0  0  0  0  0  0  0  0  0 
    3.1246    1.1039   -1.4376 C   0  0  0  0  0  0  0  0  0  0  0  0 
    1.0788   -0.7234    0.3191 C   0  0  0  0  0  0  0  0  0  0  0  0 
    3.1511   -0.5372    1.8033 C   0  0  0  0  0  0  0  0  0  0  0  0 
    3.4222   -0.9245   -0.6695 C   0  0  0  0  0  0  0  0  0  0  0  0 
    2.5482   -0.2650    0.4166 C   0  0  0  0  0  0  0  0  0  0  0  0 
    3.7170   -0.2001   -1.6696 N   0  0  0  0  0  0  0  0  0  0  0  0 
    2.7085    1.1375   -0.0130 N   0  0  0  0  0  0  0  0  0  0  0  0 
    3.7954   -2.2138   -0.5731 O   0  0  0  0  0  0  0  0  0  0  0  0 
   -2.7187   -1.5791    0.0297 H   0  0  0  0  0  0  0  0  0  0  0  0 
    4.8957   -1.3681    5.1919 H   0  0  0  0  0  0  0  0  0  0  0  0 
   -1.1148   -2.3905   -1.6904 H   0  0  0  0  0  0  0  0  0  0  0  0 
   -1.8831   -0.2213    1.9435 H   0  0  0  0  0  0  0  0  0  0  0  0 
    5.4256    0.7460    3.9917 H   0  0  0  0  0  0  0  0  0  0  0  0 
    3.2350   -2.9480    4.2218 H   0  0  0  0  0  0  0  0  0  0  0  0 
    1.2797   -1.8478   -1.5154 H   0  0  0  0  0  0  0  0  0  0  0  0 
    0.5219    0.3023    2.1351 H   0  0  0  0  0  0  0  0  0  0  0  0 
    4.3153    1.2578    1.8205 H   0  0  0  0  0  0  0  0  0  0  0  0 
    2.0964   -2.4028    2.1004 H   0  0  0  0  0  0  0  0  0  0  0  0 
    2.2837    1.2558   -2.1348 H   0  0  0  0  0  0  0  0  0  0  0  0 
    3.8645    1.8896   -1.6340 H   0  0  0  0  0  0  0  0  0  0  0  0 
    1.8470    1.6600    0.1206 H   0  0  0  0  0  0  0  0  0  0  0  0 
    3.6659   -2.5034    0.3478 H   0  0  0  0  0  0  0  0  0  0  0  0 
  1  4  2  0  0  0  0 
  2 20  1  0  0  0  0 
  3  7  2  0  0  0  0 
  3  1  1  0  0  0  0 
  4  8  1  0  0  0  0 
  4 22  1  0  0  0  0 
  5 23  1  0  0  0  0 
  5  2  2  0  0  0  0 
  6 24  1  0  0  0  0 
  6  2  1  0  0  0  0 
  7 12  1  0  0  0  0 
  8 26  1  0  0  0  0 
  9  5  1  0  0  0  0 
 10  6  2  0  0  0  0 
 11 17  1  0  0  0  0 
 12 15  1  0  0  0  0 
 12  8  2  0  0  0  0 
 13  9  2  0  0  0  0 
 13 10  1  0  0  0  0 
 14 18  1  0  0  0  0 
 14 15  1  0  0  0  0 
 15 13  1  0  0  0  0 
 16 11  1  0  0  0  0 
 16 14  2  0  0  0  0 
 17 31  1  0  0  0  0 
 17 15  1  0  0  0  0 
 18 32  1  0  0  0  0 
 19  1  1  0  0  0  0 
 21  3  1  0  0  0  0 
 25  7  1  0  0  0  0 
 27  9  1  0  0  0  0 
 28 10  1  0  0  0  0 
 29 11  1  0  0  0  0 
 30 11  1  0  0  0  0 
M  END 
>  <HBA> 
3 
 
>  <HBD> 
2 
 
>  <TPSA> 
41.13 
 
>  <cid> 
18622 
 
>  <dipole> 
3.77 
 
>  <excitation_energy_1> 
4.729 
 
>  <excitation_energy_2> 
4.883 
 
>  <excitation_energy_3> 
5.013 
 
>  <excitation_energy_4> 
5.124 
 
>  <homo_energy> 
-6.144 
 
>  <homo_lumo_gap> 
5.619 
 
>  <logP> 
2.265 
 
>  <lumo_energy> 
-0.525 
 
>  <melting_point> 
141.49 
 
>  <molecular_refractivity> 
76.91 
 
>  <oscillator_strength_1> 
0.0013 
 
>  <oscillator_strength_2> 
0.0062 
 
>  <oscillator_strength_3> 
0.0431 
 
>  <oscillator_strength_4> 
0.0059 
 
>  <open_babel_can_smiles> 
OC1=NCNC1(c1ccccc1)c1ccccc1 
 
>  <mulliken_charges> 
32 
1   -0.124867 
2   -0.12448 
3   -0.135753 
4   -0.134534 
5   -0.12898 
6   -0.1315 
7   -0.195304 
8   -0.17601 
9   -0.166919 
10   -0.229702 
11   -0.000375 
12   0.128152 
13   0.120821 
14   0.514833 
15   -0.02226 
16   -0.431669 
17   -0.599127 
18   -0.603796 
19   0.13309 
20   0.133724 
21   0.136503 
22   0.134117 
23   0.13553 
24   0.135418 
25   0.163669 
26   0.140822 
27   0.161551 
28   0.146858 
29   0.138817 
30   0.156927 
31   0.305151 
32   0.419295 
 
>  <lowdin_charges> 
32 
1   -0.154172 
2   -0.15511 
3   -0.152828 
4   -0.155566 
5   -0.14989 
6   -0.15394 
7   -0.172007 
8   -0.166853 
9   -0.155676 
10   -0.194941 
11   -0.131476 
12   -0.02511 
13   -0.022502 
14   0.116492 
15   0.033122 
16   -0.197656 
17   -0.359932 
18   -0.345767 
19   0.158133 
20   0.159693 
21   0.161573 
22   0.160864 
23   0.161416 
24   0.160331 
25   0.173476 
26   0.163374 
27   0.17526 
28   0.164365 
29   0.133768 
30   0.1492 
31   0.261156 
32   0.361202 
 
$$$$ 
 
