PCCDB-ID:  69451 
public computational chemistry database (PCCDB) project, http://pccdb.org 
 
 16 16  0  0  0  0  0  0  0  0999 V2000 
   -1.2099   -0.6924    0.0367 C   0  0  0  0  0  0  0  0  0  0  0  0 
   -0.0037   -1.3921    0.0825 C   0  0  0  0  0  0  0  0  0  0  0  0 
   -1.2041    0.7007   -0.0396 C   0  0  0  0  0  0  0  0  0  0  0  0 
    1.2039   -0.6934    0.0591 C   0  0  0  0  0  0  0  0  0  0  0  0 
    0.0098    1.3883   -0.0623 C   0  0  0  0  0  0  0  0  0  0  0  0 
    1.2373    0.7087   -0.0092 C   0  0  0  0  0  0  0  0  0  0  0  0 
    2.4471    1.4047    0.0299 N   0  0  0  0  0  0  0  0  0  0  0  0 
    2.4352   -1.3104    0.0865 O   0  0  0  0  0  0  0  0  0  0  0  0 
    0.1006    2.7600   -0.1519 O   0  0  0  0  0  0  0  0  0  0  0  0 
   -2.1519   -1.2316    0.0567 H   0  0  0  0  0  0  0  0  0  0  0  0 
    0.0051   -2.4790    0.1364 H   0  0  0  0  0  0  0  0  0  0  0  0 
   -2.1382    1.2574   -0.0819 H   0  0  0  0  0  0  0  0  0  0  0  0 
    3.2335    0.8630   -0.3067 H   0  0  0  0  0  0  0  0  0  0  0  0 
    2.3955    2.3244   -0.3906 H   0  0  0  0  0  0  0  0  0  0  0  0 
    2.3015   -2.2696    0.1152 H   0  0  0  0  0  0  0  0  0  0  0  0 
   -0.7945    3.1284   -0.1956 H   0  0  0  0  0  0  0  0  0  0  0  0 
  1 10  1  0  0  0  0 
  1  2  2  0  0  0  0 
  2 11  1  0  0  0  0 
  3  1  1  0  0  0  0 
  4  2  1  0  0  0  0 
  4  8  1  0  0  0  0 
  5  3  2  0  0  0  0 
  5  6  1  0  0  0  0 
  6  7  1  0  0  0  0 
  6  4  2  0  0  0  0 
  8 15  1  0  0  0  0 
  9  5  1  0  0  0  0 
 12  3  1  0  0  0  0 
 13  7  1  0  0  0  0 
 14  7  1  0  0  0  0 
 16  9  1  0  0  0  0 
M  END 
>  <HBA> 
3 
 
>  <HBD> 
3 
 
>  <TPSA> 
66.48 
 
>  <cid> 
69451 
 
>  <dipole> 
1.63 
 
>  <excitation_energy_1> 
4.317 
 
>  <excitation_energy_2> 
4.673 
 
>  <excitation_energy_3> 
4.805 
 
>  <excitation_energy_4> 
4.945 
 
>  <homo_energy> 
-4.939 
 
>  <homo_lumo_gap> 
5.665 
 
>  <logP> 
1.261 
 
>  <lumo_energy> 
0.727 
 
>  <melting_point> 
134.42 
 
>  <molecular_refractivity> 
34.89 
 
>  <oscillator_strength_1> 
0.0047 
 
>  <oscillator_strength_2> 
0.0001 
 
>  <oscillator_strength_3> 
0.0226 
 
>  <oscillator_strength_4> 
0.0002 
 
>  <open_babel_can_smiles> 
Oc1cccc(c1N)O 
 
>  <mulliken_charges> 
16 
1   -0.150983 
2   -0.198248 
3   -0.198203 
4   0.302816 
5   0.302833 
6   0.240719 
7   -0.79105 
8   -0.665978 
9   -0.665981 
10   0.122797 
11   0.109664 
12   0.109585 
13   0.331618 
14   0.331653 
15   0.409371 
16   0.409388 
 
>  <lowdin_charges> 
16 
1   -0.167472 
2   -0.222929 
3   -0.226431 
4   0.07346 
5   0.076234 
6   0.006584 
7   -0.487115 
8   -0.393004 
9   -0.39602 
10   0.15696 
11   0.148908 
12   0.151284 
13   0.282529 
14   0.281158 
15   0.35747 
16   0.358384 
 
$$$$ 
 
