PCCDB-ID:  35233 
public computational chemistry database (PCCDB) project, http://pccdb.org 
 
 34 34  0  0  0  0  0  0  0  0999 V2000 
    3.1757    3.6079    0.7489 C   0  0  0  0  0  0  0  0  0  0  0  0 
    2.8324   -0.2583   -1.6185 C   0  0  0  0  0  0  0  0  0  0  0  0 
    8.0700   -0.7635   -1.0438 C   0  0  0  0  0  0  0  0  0  0  0  0 
    9.4170    3.9991   -1.6583 C   0  0  0  0  0  0  0  0  0  0  0  0 
    7.3160    5.2579   -1.4121 C   0  0  0  0  0  0  0  0  0  0  0  0 
    3.2672    2.9258   -0.6199 C   0  0  0  0  0  0  0  0  0  0  0  0 
    3.3160    0.4303   -0.3389 C   0  0  0  0  0  0  0  0  0  0  0  0 
    7.3244    0.5451   -1.0184 C   0  0  0  0  0  0  0  0  0  0  0  0 
    7.3108    2.8014   -1.2041 C   0  0  0  0  0  0  0  0  0  0  0  0 
    5.3809    1.6803   -0.8048 C   0  0  0  0  0  0  0  0  0  0  0  0 
    8.0354    1.6551   -1.2232 N   0  0  0  0  0  0  0  0  0  0  0  0 
    6.0062    0.4793   -0.8103 N   0  0  0  0  0  0  0  0  0  0  0  0 
    5.9864    2.8677   -0.9906 N   0  0  0  0  0  0  0  0  0  0  0  0 
    7.9858    3.9704   -1.4106 N   0  0  0  0  0  0  0  0  0  0  0  0 
    4.0350    1.6810   -0.5936 N   0  0  0  0  0  0  0  0  0  0  0  0 
    2.5635    4.5154    0.6840 H   0  0  0  0  0  0  0  0  0  0  0  0 
    4.1737    3.8884    1.0987 H   0  0  0  0  0  0  0  0  0  0  0  0 
    2.7210    2.9464    1.4954 H   0  0  0  0  0  0  0  0  0  0  0  0 
    2.2653   -1.1643   -1.3733 H   0  0  0  0  0  0  0  0  0  0  0  0 
    3.6884   -0.5440   -2.2366 H   0  0  0  0  0  0  0  0  0  0  0  0 
    2.1817    0.3992   -2.2070 H   0  0  0  0  0  0  0  0  0  0  0  0 
    9.1477   -0.5910   -1.0200 H   0  0  0  0  0  0  0  0  0  0  0  0 
    7.8200   -1.3168   -1.9573 H   0  0  0  0  0  0  0  0  0  0  0  0 
    7.7691   -1.3881   -0.1971 H   0  0  0  0  0  0  0  0  0  0  0  0 
    9.9244    4.5991   -0.8901 H   0  0  0  0  0  0  0  0  0  0  0  0 
    9.6253    4.4541   -2.6368 H   0  0  0  0  0  0  0  0  0  0  0  0 
    9.8047    2.9830   -1.6403 H   0  0  0  0  0  0  0  0  0  0  0  0 
    7.7633    5.9191   -0.6570 H   0  0  0  0  0  0  0  0  0  0  0  0 
    6.2607    5.1173   -1.1894 H   0  0  0  0  0  0  0  0  0  0  0  0 
    7.4201    5.7441   -2.3924 H   0  0  0  0  0  0  0  0  0  0  0  0 
    3.7319    3.6000   -1.3418 H   0  0  0  0  0  0  0  0  0  0  0  0 
    2.2645    2.6832   -0.9909 H   0  0  0  0  0  0  0  0  0  0  0  0 
    3.9771   -0.2388    0.2141 H   0  0  0  0  0  0  0  0  0  0  0  0 
    2.4650    0.6714    0.3089 H   0  0  0  0  0  0  0  0  0  0  0  0 
  1 17  1  0  0  0  0 
  1 18  1  0  0  0  0 
  2 19  1  0  0  0  0 
  2  7  1  0  0  0  0 
  3 22  1  0  0  0  0 
  3  8  1  0  0  0  0 
  3 24  1  0  0  0  0 
  4 27  1  0  0  0  0 
  4 14  1  0  0  0  0 
  4 25  1  0  0  0  0 
  5 14  1  0  0  0  0 
  5 29  1  0  0  0  0 
  5 28  1  0  0  0  0 
  6 15  1  0  0  0  0 
  6  1  1  0  0  0  0 
  7 33  1  0  0  0  0 
  7 34  1  0  0  0  0 
  8 12  1  0  0  0  0 
  9 13  1  0  0  0  0 
 10 15  1  0  0  0  0 
 11  9  2  0  0  0  0 
 11  8  2  0  0  0  0 
 12 10  2  0  0  0  0 
 13 10  1  0  0  0  0 
 14  9  1  0  0  0  0 
 15  7  1  0  0  0  0 
 16  1  1  0  0  0  0 
 20  2  1  0  0  0  0 
 21  2  1  0  0  0  0 
 23  3  1  0  0  0  0 
 26  4  1  0  0  0  0 
 30  5  1  0  0  0  0 
 31  6  1  0  0  0  0 
 32  6  1  0  0  0  0 
M  RAD  1  13   2 
M  END 
>  <HBA> 
5 
 
>  <HBD> 
0 
 
>  <TPSA> 
45.15 
 
>  <cid> 
35233 
 
>  <dipole> 
1.71 
 
>  <excitation_energy_1> 
4.845 
 
>  <excitation_energy_2> 
5.117 
 
>  <excitation_energy_3> 
5.155 
 
>  <excitation_energy_4> 
5.226 
 
>  <homo_energy> 
-5.753 
 
>  <homo_lumo_gap> 
5.736 
 
>  <logP> 
1.092 
 
>  <lumo_energy> 
-0.016 
 
>  <melting_point> 
73.04 
 
>  <molecular_refractivity> 
62.82 
 
>  <oscillator_strength_1> 
0.0628 
 
>  <oscillator_strength_2> 
0.0026 
 
>  <oscillator_strength_3> 
0.0019 
 
>  <oscillator_strength_4> 
0.002 
 
>  <open_babel_can_smiles> 
CCN(C1=NC(=[N]=C([N]1)N(C)C)C)CC 
 
>  <mulliken_charges> 
34 
1   -0.44412 
2   -0.443555 
3   -0.503097 
4   -0.316174 
5   -0.317161 
6   -0.136868 
7   -0.134557 
8   0.450179 
9   0.702561 
10   0.695118 
11   -0.543582 
12   -0.542659 
13   -0.587418 
14   -0.458163 
15   -0.46085 
16   0.140435 
17   0.167668 
18   0.145353 
19   0.140898 
20   0.170612 
21   0.141768 
22   0.164458 
23   0.168343 
24   0.166182 
25   0.146703 
26   0.146518 
27   0.208932 
28   0.148245 
29   0.202017 
30   0.148253 
31   0.174463 
32   0.140814 
33   0.180474 
34   0.138207 
 
>  <lowdin_charges> 
34 
1   -0.45361 
2   -0.4546 
3   -0.445922 
4   -0.355115 
5   -0.354663 
6   -0.195038 
7   -0.19634 
8   0.118291 
9   0.144659 
10   0.142947 
11   -0.253473 
12   -0.256655 
13   -0.26482 
14   -0.085984 
15   -0.086091 
16   0.150825 
17   0.159879 
18   0.149499 
19   0.151384 
20   0.162737 
21   0.147794 
22   0.162501 
23   0.169788 
24   0.168114 
25   0.14684 
26   0.145019 
27   0.185266 
28   0.147845 
29   0.179758 
30   0.145811 
31   0.165474 
32   0.143982 
33   0.169887 
34   0.144012 
 
$$$$ 
 
