PCCDB-ID:  6763 
public computational chemistry database (PCCDB) project, http://pccdb.org 
 
 24 26  0  0  0  0  0  0  0  0999 V2000 
    2.9033   -1.5032    0.0830 C   0  0  0  0  0  0  0  0  0  0  0  0 
   -2.8528   -1.6100   -0.0830 C   0  0  0  0  0  0  0  0  0  0  0  0 
    3.5808   -0.2813    0.1066 C   0  0  0  0  0  0  0  0  0  0  0  0 
   -3.5753   -0.4141   -0.1069 C   0  0  0  0  0  0  0  0  0  0  0  0 
    1.5115   -1.5421    0.0415 C   0  0  0  0  0  0  0  0  0  0  0  0 
   -1.4605   -1.5972   -0.0415 C   0  0  0  0  0  0  0  0  0  0  0  0 
    2.8458    0.8969    0.0876 C   0  0  0  0  0  0  0  0  0  0  0  0 
   -2.8844    0.7906   -0.0882 C   0  0  0  0  0  0  0  0  0  0  0  0 
    0.7457   -0.3643    0.0218 C   0  0  0  0  0  0  0  0  0  0  0  0 
   -0.7389   -0.3918   -0.0221 C   0  0  0  0  0  0  0  0  0  0  0  0 
    1.4450    0.8670    0.0451 C   0  0  0  0  0  0  0  0  0  0  0  0 
   -1.4835    0.8126   -0.0457 C   0  0  0  0  0  0  0  0  0  0  0  0 
    0.7283    2.1656    0.0253 C   0  0  0  0  0  0  0  0  0  0  0  0 
   -0.8156    2.1370   -0.0261 C   0  0  0  0  0  0  0  0  0  0  0  0 
    1.3009    3.2409    0.0470 O   0  0  0  0  0  0  0  0  0  0  0  0 
   -1.4278    3.1901   -0.0478 O   0  0  0  0  0  0  0  0  0  0  0  0 
    3.4609   -2.4357    0.0970 H   0  0  0  0  0  0  0  0  0  0  0  0 
   -3.3754   -2.5626   -0.0969 H   0  0  0  0  0  0  0  0  0  0  0  0 
    4.6660   -0.2534    0.1393 H   0  0  0  0  0  0  0  0  0  0  0  0 
   -4.6607   -0.4266   -0.1396 H   0  0  0  0  0  0  0  0  0  0  0  0 
    1.0270   -2.5115    0.0248 H   0  0  0  0  0  0  0  0  0  0  0  0 
   -0.9405   -2.5479   -0.0247 H   0  0  0  0  0  0  0  0  0  0  0  0 
    3.3299    1.8680    0.1053 H   0  0  0  0  0  0  0  0  0  0  0  0 
   -3.4041    1.7431   -0.1061 H   0  0  0  0  0  0  0  0  0  0  0  0 
  1 17  1  0  0  0  0 
  1  3  2  0  0  0  0 
  2  6  2  0  0  0  0 
  3 19  1  0  0  0  0 
  4  8  2  0  0  0  0 
  4  2  1  0  0  0  0 
  5  1  1  0  0  0  0 
  6 22  1  0  0  0  0 
  6 10  1  0  0  0  0 
  7 23  1  0  0  0  0 
  7  3  1  0  0  0  0 
  8 12  1  0  0  0  0 
  9  5  2  0  0  0  0 
  9 11  1  0  0  0  0 
 10  9  1  0  0  0  0 
 11  7  2  0  0  0  0 
 12 14  1  0  0  0  0 
 12 10  2  0  0  0  0 
 13 11  1  0  0  0  0 
 13 15  2  0  0  0  0 
 14 13  1  0  0  0  0 
 16 14  2  0  0  0  0 
 18  2  1  0  0  0  0 
 20  4  1  0  0  0  0 
 21  5  1  0  0  0  0 
 24  8  1  0  0  0  0 
M  END 
>  <HBA> 
2 
 
>  <HBD> 
0 
 
>  <TPSA> 
34.14 
 
>  <cid> 
6763 
 
>  <dipole> 
6.01 
 
>  <excitation_energy_1> 
2.259 
 
>  <excitation_energy_2> 
2.866 
 
>  <excitation_energy_3> 
3.408 
 
>  <excitation_energy_4> 
3.637 
 
>  <homo_energy> 
-6.607 
 
>  <homo_lumo_gap> 
3.627 
 
>  <logP> 
2.733 
 
>  <lumo_energy> 
-2.98 
 
>  <melting_point> 
136.29 
 
>  <molecular_refractivity> 
60.54 
 
>  <oscillator_strength_1> 
0.0 
 
>  <oscillator_strength_2> 
0.0398 
 
>  <oscillator_strength_3> 
0.0 
 
>  <oscillator_strength_4> 
0.0263 
 
>  <open_babel_can_smiles> 
O=C1C(=O)c2ccccc2c2c1cccc2 
 
>  <mulliken_charges> 
24 
1   -0.1208 
2   -0.120699 
3   -0.127739 
4   -0.12778 
5   -0.201671 
6   -0.201667 
7   -0.169551 
8   -0.169638 
9   0.084564 
10   0.084595 
11   0.030567 
12   0.03055 
13   0.338422 
14   0.338421 
15   -0.437035 
16   -0.436997 
17   0.14355 
18   0.143518 
19   0.144962 
20   0.144968 
21   0.142911 
22   0.142854 
23   0.171833 
24   0.171862 
 
>  <lowdin_charges> 
24 
1   -0.132878 
2   -0.132615 
3   -0.148786 
4   -0.148796 
5   -0.157524 
6   -0.1578 
7   -0.117916 
8   -0.118161 
9   0.007559 
10   0.007555 
11   -0.055756 
12   -0.05585 
13   0.126133 
14   0.126594 
15   -0.192588 
16   -0.192721 
17   0.165044 
18   0.16483 
19   0.163688 
20   0.163687 
21   0.162225 
22   0.162439 
23   0.180708 
24   0.180929 
 
$$$$ 
 
