PCCDB-ID:  70648 
public computational chemistry database (PCCDB) project, http://pccdb.org 
 
 24 25  0  0  0  0  0  0  0  0999 V2000 
    0.7858   -0.0346   -0.0101 C   0  0  0  0  0  0  0  0  0  0  0  0 
    9.3070   -0.0479    0.3200 C   0  0  0  0  0  0  0  0  0  0  0  0 
    2.9336    1.3015    0.2536 C   0  0  0  0  0  0  0  0  0  0  0  0 
    4.3038    1.3630    0.3164 C   0  0  0  0  0  0  0  0  0  0  0  0 
    6.4292   -2.2611   -0.0984 C   0  0  0  0  0  0  0  0  0  0  0  0 
    5.0589   -2.2521   -0.1521 C   0  0  0  0  0  0  0  0  0  0  0  0 
    6.4839    0.1473    0.2341 C   0  0  0  0  0  0  0  0  0  0  0  0 
    2.2916    0.0450    0.0556 C   0  0  0  0  0  0  0  0  0  0  0  0 
    5.0646    0.1730    0.1821 C   0  0  0  0  0  0  0  0  0  0  0  0 
    7.1549   -1.0523    0.0955 C   0  0  0  0  0  0  0  0  0  0  0  0 
    4.3322   -1.0371   -0.0140 C   0  0  0  0  0  0  0  0  0  0  0  0 
    2.9703   -1.0819   -0.0736 N   0  0  0  0  0  0  0  0  0  0  0  0 
    8.5099   -1.2051    0.1265 O   0  0  0  0  0  0  0  0  0  0  0  0 
    0.3874    0.6018   -0.8105 H   0  0  0  0  0  0  0  0  0  0  0  0 
    0.3289    0.3052    0.9283 H   0  0  0  0  0  0  0  0  0  0  0  0 
    0.4794   -1.0664   -0.1949 H   0  0  0  0  0  0  0  0  0  0  0  0 
   10.3429   -0.3917    0.3134 H   0  0  0  0  0  0  0  0  0  0  0  0 
    9.0892    0.4338    1.2826 H   0  0  0  0  0  0  0  0  0  0  0  0 
    9.1603    0.6811   -0.4880 H   0  0  0  0  0  0  0  0  0  0  0  0 
    2.3320    2.2012    0.3530 H   0  0  0  0  0  0  0  0  0  0  0  0 
    4.8140    2.3119    0.4681 H   0  0  0  0  0  0  0  0  0  0  0  0 
    6.9961   -3.1813   -0.2007 H   0  0  0  0  0  0  0  0  0  0  0  0 
    4.4927   -3.1662   -0.3005 H   0  0  0  0  0  0  0  0  0  0  0  0 
    7.0157    1.0809    0.3832 H   0  0  0  0  0  0  0  0  0  0  0  0 
  1  8  1  0  0  0  0 
  1 15  1  0  0  0  0 
  2 18  1  0  0  0  0 
  3  4  1  0  0  0  0 
  3 20  1  0  0  0  0 
  4 21  1  0  0  0  0 
  5 10  1  0  0  0  0 
  6  5  2  0  0  0  0 
  6 11  1  0  0  0  0 
  7 24  1  0  0  0  0 
  8  3  2  0  0  0  0 
  9  7  1  0  0  0  0 
  9  4  2  0  0  0  0 
 10 13  1  0  0  0  0 
 10  7  2  0  0  0  0 
 11  9  1  0  0  0  0 
 12 11  2  0  0  0  0 
 12  8  1  0  0  0  0 
 13  2  1  0  0  0  0 
 14  1  1  0  0  0  0 
 16  1  1  0  0  0  0 
 17  2  1  0  0  0  0 
 19  2  1  0  0  0  0 
 22  5  1  0  0  0  0 
 23  6  1  0  0  0  0 
M  END 
>  <HBA> 
2 
 
>  <HBD> 
0 
 
>  <TPSA> 
22.12 
 
>  <cid> 
70648 
 
>  <dipole> 
2.92 
 
>  <excitation_energy_1> 
4.072 
 
>  <excitation_energy_2> 
4.411 
 
>  <excitation_energy_3> 
4.572 
 
>  <excitation_energy_4> 
5.284 
 
>  <homo_energy> 
-5.772 
 
>  <homo_lumo_gap> 
4.661 
 
>  <logP> 
2.552 
 
>  <lumo_energy> 
-1.11 
 
>  <melting_point> 
74.1 
 
>  <molecular_refractivity> 
53.2 
 
>  <oscillator_strength_1> 
0.0612 
 
>  <oscillator_strength_2> 
0.0014 
 
>  <oscillator_strength_3> 
0.0042 
 
>  <oscillator_strength_4> 
0.0003 
 
>  <open_babel_can_smiles> 
COc1ccc2c(c1)ccc(n2)C 
 
>  <mulliken_charges> 
24 
1   -0.522386 
2   -0.213947 
3   -0.177289 
4   -0.152125 
5   -0.171709 
6   -0.148722 
7   -0.283676 
8   0.313082 
9   0.158738 
10   0.377551 
11   0.236595 
12   -0.557012 
13   -0.507194 
14   0.157678 
15   0.158975 
16   0.176078 
17   0.17122 
18   0.152997 
19   0.153002 
20   0.128685 
21   0.133053 
22   0.14329 
23   0.143999 
24   0.129117 
 
>  <lowdin_charges> 
24 
1   -0.449778 
2   -0.277332 
3   -0.184748 
4   -0.135061 
5   -0.170226 
6   -0.144265 
7   -0.226821 
8   0.052626 
9   -0.0084 
10   0.102483 
11   0.03066 
12   -0.161207 
13   -0.196004 
14   0.160745 
15   0.160719 
16   0.169525 
17   0.16235 
18   0.145816 
19   0.14663 
20   0.161076 
21   0.158967 
22   0.170092 
23   0.170752 
24   0.161401 
 
$$$$ 
 
