PCCDB-ID:  31249 
public computational chemistry database (PCCDB) project, http://pccdb.org 
 
 26 25  0  0  0  0  0  0  0  0999 V2000 
    2.2517   -1.8301   -2.1369 C   0  0  0  0  0  0  0  0  0  0  0  0 
    0.9985   -0.4041    2.4806 C   0  0  0  0  0  0  0  0  0  0  0  0 
    2.9808   -0.6236   -2.7083 C   0  0  0  0  0  0  0  0  0  0  0  0 
    2.3130   -0.0870    3.1772 C   0  0  0  0  0  0  0  0  0  0  0  0 
    5.7010    0.3557   -0.3511 C   0  0  0  0  0  0  0  0  0  0  0  0 
    4.7952    1.0577    0.6600 C   0  0  0  0  0  0  0  0  0  0  0  0 
    4.9917   -0.4253   -1.4458 C   0  0  0  0  0  0  0  0  0  0  0  0 
    3.9549    0.0782    1.4575 C   0  0  0  0  0  0  0  0  0  0  0  0 
    5.5004   -1.3322   -2.0660 O   0  0  0  0  0  0  0  0  0  0  0  0 
    3.9859   -1.1281    1.3312 O   0  0  0  0  0  0  0  0  0  0  0  0 
    3.7491    0.0554   -1.6858 O   0  0  0  0  0  0  0  0  0  0  0  0 
    3.1690    0.7301    2.3410 O   0  0  0  0  0  0  0  0  0  0  0  0 
    1.6320   -2.2924   -2.9142 H   0  0  0  0  0  0  0  0  0  0  0  0 
    1.6022   -1.5357   -1.3061 H   0  0  0  0  0  0  0  0  0  0  0  0 
    2.9660   -2.5742   -1.7749 H   0  0  0  0  0  0  0  0  0  0  0  0 
    0.3392   -0.9542    3.1619 H   0  0  0  0  0  0  0  0  0  0  0  0 
    1.1722   -1.0243    1.5966 H   0  0  0  0  0  0  0  0  0  0  0  0 
    0.4882    0.5149    2.1744 H   0  0  0  0  0  0  0  0  0  0  0  0 
    2.2820    0.1349   -3.0706 H   0  0  0  0  0  0  0  0  0  0  0  0 
    3.6547   -0.9140   -3.5178 H   0  0  0  0  0  0  0  0  0  0  0  0 
    2.8503   -1.0001    3.4444 H   0  0  0  0  0  0  0  0  0  0  0  0 
    2.1558    0.5179    4.0737 H   0  0  0  0  0  0  0  0  0  0  0  0 
    6.3716   -0.3504    0.1448 H   0  0  0  0  0  0  0  0  0  0  0  0 
    6.3355    1.1005   -0.8493 H   0  0  0  0  0  0  0  0  0  0  0  0 
    4.1202    1.7641    0.1668 H   0  0  0  0  0  0  0  0  0  0  0  0 
    5.3952    1.6455    1.3656 H   0  0  0  0  0  0  0  0  0  0  0  0 
  1 15  1  0  0  0  0 
  1 14  1  0  0  0  0 
  2 16  1  0  0  0  0 
  2  4  1  0  0  0  0 
  3  1  1  0  0  0  0 
  3 11  1  0  0  0  0 
  4 21  1  0  0  0  0 
  4 22  1  0  0  0  0 
  5 23  1  0  0  0  0 
  5  6  1  0  0  0  0 
  6 26  1  0  0  0  0 
  6  8  1  0  0  0  0 
  7  5  1  0  0  0  0 
  8 12  1  0  0  0  0 
  9  7  2  0  0  0  0 
 10  8  2  0  0  0  0 
 11  7  1  0  0  0  0 
 12  4  1  0  0  0  0 
 13  1  1  0  0  0  0 
 17  2  1  0  0  0  0 
 18  2  1  0  0  0  0 
 19  3  1  0  0  0  0 
 20  3  1  0  0  0  0 
 24  5  1  0  0  0  0 
 25  6  1  0  0  0  0 
M  END 
>  <HBA> 
4 
 
>  <HBD> 
0 
 
>  <TPSA> 
52.6 
 
>  <cid> 
31249 
 
>  <dipole> 
3.35 
 
>  <excitation_energy_1> 
5.821 
 
>  <excitation_energy_2> 
5.869 
 
>  <excitation_energy_3> 
6.635 
 
>  <excitation_energy_4> 
6.838 
 
>  <homo_energy> 
-7.157 
 
>  <homo_lumo_gap> 
7.47 
 
>  <logP> 
0.893 
 
>  <lumo_energy> 
0.313 
 
>  <melting_point> 
-3.01 
 
>  <molecular_refractivity> 
43.14 
 
>  <oscillator_strength_1> 
0.0013 
 
>  <oscillator_strength_2> 
0.0007 
 
>  <oscillator_strength_3> 
0.002 
 
>  <oscillator_strength_4> 
0.0042 
 
>  <open_babel_can_smiles> 
CCOC(=O)CCC(=O)OCC 
 
>  <mulliken_charges> 
26 
1   -0.460043 
2   -0.464625 
3   -0.047572 
4   -0.045076 
5   -0.360261 
6   -0.362552 
7   0.64869 
8   0.637824 
9   -0.482731 
10   -0.481312 
11   -0.466622 
12   -0.464813 
13   0.146178 
14   0.156366 
15   0.186013 
16   0.151496 
17   0.177899 
18   0.157768 
19   0.147963 
20   0.171087 
21   0.171618 
22   0.153421 
23   0.189949 
24   0.173064 
25   0.191433 
26   0.174839 
 
>  <lowdin_charges> 
26 
1   -0.456191 
2   -0.457036 
3   -0.131005 
4   -0.128835 
5   -0.297077 
6   -0.305091 
7   0.204323 
8   0.197358 
9   -0.266953 
10   -0.267518 
11   -0.200561 
12   -0.193101 
13   0.157872 
14   0.155325 
15   0.171759 
16   0.160776 
17   0.164863 
18   0.1568 
19   0.151256 
20   0.159958 
21   0.159682 
22   0.15299 
23   0.180733 
24   0.175045 
25   0.180387 
26   0.174244 
 
$$$$ 
 
