PCCDB-ID:  26036 
public computational chemistry database (PCCDB) project, http://pccdb.org 
 
 18 18  0  0  0  0  0  0  0  0999 V2000 
    1.2050    0.0735   -0.5244 C   0  0  0  0  0  0  0  0  0  0  0  0 
    5.5255    1.6382    1.2585 C   0  0  0  0  0  0  0  0  0  0  0  0 
    3.2074   -1.1399    0.4057 C   0  0  0  0  0  0  0  0  0  0  0  0 
    4.4415   -0.6337    1.1619 C   0  0  0  0  0  0  0  0  0  0  0  0 
    3.2779    1.1906    0.2852 C   0  0  0  0  0  0  0  0  0  0  0  0 
    2.4551    0.0942    0.2044 N   0  0  0  0  0  0  0  0  0  0  0  0 
    4.5029    0.7595    0.7321 N   0  0  0  0  0  0  0  0  0  0  0  0 
    2.8624    2.7700   -0.0931 S   0  0  0  0  0  0  0  0  0  0  0  0 
    1.3485   -0.2541   -1.5654 H   0  0  0  0  0  0  0  0  0  0  0  0 
    0.7885    1.0815   -0.5281 H   0  0  0  0  0  0  0  0  0  0  0  0 
    0.5072   -0.6129   -0.0325 H   0  0  0  0  0  0  0  0  0  0  0  0 
    6.5140    1.2230    1.0337 H   0  0  0  0  0  0  0  0  0  0  0  0 
    5.4322    1.7596    2.3485 H   0  0  0  0  0  0  0  0  0  0  0  0 
    5.4204    2.6153    0.7856 H   0  0  0  0  0  0  0  0  0  0  0  0 
    2.6255   -1.8723    0.9744 H   0  0  0  0  0  0  0  0  0  0  0  0 
    3.4809   -1.5915   -0.5616 H   0  0  0  0  0  0  0  0  0  0  0  0 
    5.3575   -1.1718    0.8980 H   0  0  0  0  0  0  0  0  0  0  0  0 
    4.3038   -0.6988    2.2533 H   0  0  0  0  0  0  0  0  0  0  0  0 
  1 11  1  0  0  0  0 
  1  6  1  0  0  0  0 
  2 13  1  0  0  0  0 
  3 15  1  0  0  0  0 
  3  4  1  0  0  0  0 
  4 18  1  0  0  0  0 
  5  7  1  0  0  0  0 
  6  5  1  0  0  0  0 
  6  3  1  0  0  0  0 
  7  4  1  0  0  0  0 
  7  2  1  0  0  0  0 
  8  5  2  0  0  0  0 
  9  1  1  0  0  0  0 
 10  1  1  0  0  0  0 
 12  2  1  0  0  0  0 
 14  2  1  0  0  0  0 
 16  3  1  0  0  0  0 
 17  4  1  0  0  0  0 
M  END 
>  <HBA> 
3 
 
>  <HBD> 
0 
 
>  <TPSA> 
38.57 
 
>  <cid> 
26036 
 
>  <dipole> 
5.4 
 
>  <excitation_energy_1> 
4.158 
 
>  <excitation_energy_2> 
4.829 
 
>  <excitation_energy_3> 
5.025 
 
>  <excitation_energy_4> 
5.177 
 
>  <homo_energy> 
-5.407 
 
>  <homo_lumo_gap> 
5.548 
 
>  <logP> 
0.024 
 
>  <lumo_energy> 
0.142 
 
>  <melting_point> 
32.31 
 
>  <molecular_refractivity> 
45.45 
 
>  <oscillator_strength_1> 
0.0006 
 
>  <oscillator_strength_2> 
0.0107 
 
>  <oscillator_strength_3> 
0.0269 
 
>  <oscillator_strength_4> 
0.1877 
 
>  <open_babel_can_smiles> 
CN1CCN(C1=S)C 
 
>  <mulliken_charges> 
18 
1   -0.30775 
2   -0.307885 
3   -0.134475 
4   -0.134773 
5   0.365594 
6   -0.415227 
7   -0.41494 
8   -0.315823 
9   0.152299 
10   0.210359 
11   0.153154 
12   0.1532 
13   0.152289 
14   0.210414 
15   0.162098 
16   0.15468 
17   0.16215 
18   0.154634 
 
>  <lowdin_charges> 
18 
1   -0.350309 
2   -0.349062 
3   -0.194666 
4   -0.191197 
5   -0.000613 
6   -0.100735 
7   -0.101517 
8   -0.285289 
9   0.145575 
10   0.18881 
11   0.153806 
12   0.152011 
13   0.144762 
14   0.189053 
15   0.157705 
16   0.143694 
17   0.156542 
18   0.141428 
 
$$$$ 
 
