PCCDB-ID:  13887 
public computational chemistry database (PCCDB) project, http://pccdb.org 
 
 21 22  0  0  0  0  0  0  0  0999 V2000 
   -1.4324   -0.0049    0.0986 C   0  0  0  0  0  0  0  0  0  0  0  0 
   -0.7290    1.2013    0.1411 C   0  0  0  0  0  0  0  0  0  0  0  0 
   -0.7314   -1.2046   -0.0333 C   0  0  0  0  0  0  0  0  0  0  0  0 
    4.9848   -0.9260   -0.8200 C   0  0  0  0  0  0  0  0  0  0  0  0 
    5.6091    0.2305   -0.3552 C   0  0  0  0  0  0  0  0  0  0  0  0 
    0.6603    1.2087    0.0469 C   0  0  0  0  0  0  0  0  0  0  0  0 
    0.6593   -1.1978   -0.1303 C   0  0  0  0  0  0  0  0  0  0  0  0 
    3.5980   -1.0194   -0.7523 C   0  0  0  0  0  0  0  0  0  0  0  0 
    4.7976    1.2476    0.1489 C   0  0  0  0  0  0  0  0  0  0  0  0 
    1.3770    0.0091   -0.0983 C   0  0  0  0  0  0  0  0  0  0  0  0 
    2.8605    0.0469   -0.2084 C   0  0  0  0  0  0  0  0  0  0  0  0 
    3.4678    1.1689    0.2262 N   0  0  0  0  0  0  0  0  0  0  0  0 
   -2.5166   -0.0102    0.1729 H   0  0  0  0  0  0  0  0  0  0  0  0 
   -1.2656    2.1405    0.2479 H   0  0  0  0  0  0  0  0  0  0  0  0 
   -1.2668   -2.1502   -0.0538 H   0  0  0  0  0  0  0  0  0  0  0  0 
    5.5678   -1.7422   -1.2384 H   0  0  0  0  0  0  0  0  0  0  0  0 
    6.6880    0.3475   -0.3872 H   0  0  0  0  0  0  0  0  0  0  0  0 
    1.2148    2.1396    0.0857 H   0  0  0  0  0  0  0  0  0  0  0  0 
    1.1860   -2.1445   -0.2055 H   0  0  0  0  0  0  0  0  0  0  0  0 
    3.0940   -1.8992   -1.1374 H   0  0  0  0  0  0  0  0  0  0  0  0 
    5.2396    2.1743    0.5128 H   0  0  0  0  0  0  0  0  0  0  0  0 
  1  2  1  0  0  0  0 
  1 13  1  0  0  0  0 
  2 14  1  0  0  0  0 
  3  1  2  0  0  0  0 
  4  8  2  0  0  0  0 
  4  5  1  0  0  0  0 
  5  9  2  0  0  0  0 
  6 18  1  0  0  0  0 
  6  2  2  0  0  0  0 
  7 10  2  0  0  0  0 
  7  3  1  0  0  0  0 
  8 11  1  0  0  0  0 
  9 12  1  0  0  0  0 
  9 21  1  0  0  0  0 
 10  6  1  0  0  0  0 
 11 10  1  0  0  0  0 
 11 12  2  0  0  0  0 
 15  3  1  0  0  0  0 
 16  4  1  0  0  0  0 
 17  5  1  0  0  0  0 
 19  7  1  0  0  0  0 
 20  8  1  0  0  0  0 
M  END 
>  <HBA> 
1 
 
>  <HBD> 
0 
 
>  <TPSA> 
12.89 
 
>  <cid> 
13887 
 
>  <dipole> 
1.72 
 
>  <excitation_energy_1> 
4.532 
 
>  <excitation_energy_2> 
4.584 
 
>  <excitation_energy_3> 
4.716 
 
>  <excitation_energy_4> 
4.926 
 
>  <homo_energy> 
-6.153 
 
>  <homo_lumo_gap> 
5.075 
 
>  <logP> 
2.749 
 
>  <lumo_energy> 
-1.078 
 
>  <melting_point> 
56.09 
 
>  <molecular_refractivity> 
49.67 
 
>  <oscillator_strength_1> 
0.0977 
 
>  <oscillator_strength_2> 
0.2517 
 
>  <oscillator_strength_3> 
0.0894 
 
>  <oscillator_strength_4> 
0.0643 
 
>  <open_babel_can_smiles> 
c1ccc(cc1)c1ccccn1 
 
>  <mulliken_charges> 
21 
1   -0.123435 
2   -0.133851 
3   -0.136533 
4   -0.10419 
5   -0.144823 
6   -0.160212 
7   -0.181543 
8   -0.163897 
9   0.044635 
10   0.105419 
11   0.243902 
12   -0.479494 
13   0.129509 
14   0.130858 
15   0.129039 
16   0.142385 
17   0.137831 
18   0.156565 
19   0.127578 
20   0.140291 
21   0.139967 
 
>  <lowdin_charges> 
21 
1   -0.150428 
2   -0.156135 
3   -0.157798 
4   -0.12803 
5   -0.177841 
6   -0.143755 
7   -0.160876 
8   -0.178355 
9   -0.085355 
10   -0.012277 
11   0.055588 
12   -0.154235 
13   0.155732 
14   0.158392 
15   0.157529 
16   0.164236 
17   0.162451 
18   0.173689 
19   0.156237 
20   0.164806 
21   0.156426 
 
$$$$ 
 
