PCCDB-ID:  41201 
public computational chemistry database (PCCDB) project, http://pccdb.org 
 
 40 41  0  0  1  0  0  0  0  0999 V2000 
    0.6593    0.3165   -0.3611 C   0  0  0  0  0  0  0  0  0  0  0  0 
   10.7765   -1.3419   -0.3569 C   0  0  0  0  0  0  0  0  0  0  0  0 
    2.9296    1.3434   -0.8721 C   0  0  0  0  0  0  0  0  0  0  0  0 
    2.7311   -1.1483   -0.5460 C   0  0  0  0  0  0  0  0  0  0  0  0 
    8.6590   -1.4309   -1.7633 C   0  0  0  0  0  0  0  0  0  0  0  0 
    8.6602   -0.1607    0.4145 C   0  0  0  0  0  0  0  0  0  0  0  0 
    4.4496    1.2452   -0.6718 C   0  0  0  0  0  0  0  0  0  0  0  0 
    4.2520   -1.2456   -0.3452 C   0  0  0  0  0  0  0  0  0  0  0  0 
    7.1226   -1.4280   -1.7592 C   0  0  0  0  0  0  0  0  0  0  0  0 
    7.1228   -0.1594    0.4181 C   0  0  0  0  0  0  0  0  0  0  0  0 
    2.1722    0.2252   -0.1343 C   0  0  2  0  0  0  0  0  0  0  0  0 
    9.2442   -1.3673   -0.3413 C   0  0  2  0  0  0  0  0  0  0  0  0 
    5.0014   -0.1294   -1.1008 C   0  0  2  0  0  0  0  0  0  0  0  0 
    6.5489   -0.2065   -1.0129 C   0  0  2  0  0  0  0  0  0  0  0  0 
    0.2650    1.2874   -0.0372 H   0  0  0  0  0  0  0  0  0  0  0  0 
    0.1243   -0.4646    0.1926 H   0  0  0  0  0  0  0  0  0  0  0  0 
    0.4134    0.1969   -1.4245 H   0  0  0  0  0  0  0  0  0  0  0  0 
   11.1852   -2.2197   -0.8722 H   0  0  0  0  0  0  0  0  0  0  0  0 
   11.1865   -1.3286    0.6603 H   0  0  0  0  0  0  0  0  0  0  0  0 
   11.1486   -0.4492   -0.8765 H   0  0  0  0  0  0  0  0  0  0  0  0 
    2.6993    1.2795   -1.9471 H   0  0  0  0  0  0  0  0  0  0  0  0 
    2.5673    2.3248   -0.5367 H   0  0  0  0  0  0  0  0  0  0  0  0 
    2.2265   -1.9422    0.0215 H   0  0  0  0  0  0  0  0  0  0  0  0 
    2.4917   -1.3262   -1.6060 H   0  0  0  0  0  0  0  0  0  0  0  0 
    9.0231   -0.5644   -2.3371 H   0  0  0  0  0  0  0  0  0  0  0  0 
    9.0330   -2.3241   -2.2820 H   0  0  0  0  0  0  0  0  0  0  0  0 
    9.0379   -0.1475    1.4459 H   0  0  0  0  0  0  0  0  0  0  0  0 
    9.0223    0.7648   -0.0598 H   0  0  0  0  0  0  0  0  0  0  0  0 
    4.6796    1.4223    0.3886 H   0  0  0  0  0  0  0  0  0  0  0  0 
    4.9546    2.0416   -1.2355 H   0  0  0  0  0  0  0  0  0  0  0  0 
    4.6018   -2.2332   -0.6704 H   0  0  0  0  0  0  0  0  0  0  0  0 
    4.4735   -1.1754    0.7294 H   0  0  0  0  0  0  0  0  0  0  0  0 
    6.7683   -2.3531   -1.2820 H   0  0  0  0  0  0  0  0  0  0  0  0 
    6.7442   -1.4465   -2.7904 H   0  0  0  0  0  0  0  0  0  0  0  0 
    6.7583    0.7279    0.9505 H   0  0  0  0  0  0  0  0  0  0  0  0 
    6.7681   -1.0312    0.9860 H   0  0  0  0  0  0  0  0  0  0  0  0 
    2.3636    0.3507    0.9441 H   0  0  0  0  0  0  0  0  0  0  0  0 
    8.9232   -2.2782    0.1902 H   0  0  0  0  0  0  0  0  0  0  0  0 
    4.7536   -0.2460   -2.1696 H   0  0  0  0  0  0  0  0  0  0  0  0 
    6.9265    0.6877   -1.5374 H   0  0  0  0  0  0  0  0  0  0  0  0 
  1 11  1  0  0  0  0 
  1 15  1  0  0  0  0 
  1 16  1  0  0  0  0 
  2 12  1  0  0  0  0 
  2 19  1  0  0  0  0 
  3  7  1  0  0  0  0 
  3 22  1  0  0  0  0 
  3 11  1  0  0  0  0 
  4  8  1  0  0  0  0 
  4 11  1  0  0  0  0 
  4 23  1  0  0  0  0 
  5  9  1  0  0  0  0 
  5 12  1  0  0  0  0 
  6 10  1  0  0  0  0 
  6 27  1  0  0  0  0 
  7 29  1  0  0  0  0 
  8 32  1  0  0  0  0 
  9 33  1  0  0  0  0 
  9 14  1  0  0  0  0 
 10 35  1  0  0  0  0 
 10 36  1  0  0  0  0 
 11 37  1  1  0  0  0 
 12 38  1  1  0  0  0 
 12  6  1  0  0  0  0 
 13 39  1  6  0  0  0 
 13 14  1  0  0  0  0 
 13  7  1  0  0  0  0 
 13  8  1  0  0  0  0 
 14 40  1  6  0  0  0 
 14 10  1  0  0  0  0 
 17  1  1  0  0  0  0 
 18  2  1  0  0  0  0 
 20  2  1  0  0  0  0 
 21  3  1  0  0  0  0 
 24  4  1  0  0  0  0 
 25  5  1  0  0  0  0 
 26  5  1  0  0  0  0 
 28  6  1  0  0  0  0 
 30  7  1  0  0  0  0 
 31  8  1  0  0  0  0 
 34  9  1  0  0  0  0 
M  END 
>  <HBA> 
0 
 
>  <HBD> 
0 
 
>  <TPSA> 
0.0 
 
>  <cid> 
41201 
 
>  <dipole> 
0.07 
 
>  <excitation_energy_1> 
7.034 
 
>  <excitation_energy_2> 
7.189 
 
>  <excitation_energy_3> 
7.233 
 
>  <excitation_energy_4> 
7.257 
 
>  <homo_energy> 
-7.489 
 
>  <homo_lumo_gap> 
9.935 
 
>  <logP> 
4.639 
 
>  <lumo_energy> 
2.446 
 
>  <melting_point> 
13.28 
 
>  <molecular_refractivity> 
65.18 
 
>  <oscillator_strength_1> 
0.0 
 
>  <oscillator_strength_2> 
0.0004 
 
>  <oscillator_strength_3> 
0.014 
 
>  <oscillator_strength_4> 
0.0011 
 
>  <open_babel_can_smiles> 
C[C@@H]1CC[C@H](CC1)[C@@H]1CC[C@H](CC1)C 
 
>  <mulliken_charges> 
40 
1   -0.444623 
2   -0.444668 
3   -0.256676 
4   -0.258125 
5   -0.256619 
6   -0.258111 
7   -0.272262 
8   -0.274322 
9   -0.272384 
10   -0.274402 
11   -0.06748 
12   -0.067416 
13   -0.073513 
14   -0.073287 
15   0.138239 
16   0.138234 
17   0.137692 
18   0.138217 
19   0.138264 
20   0.137668 
21   0.122513 
22   0.125073 
23   0.125062 
24   0.122832 
25   0.122509 
26   0.125059 
27   0.125114 
28   0.12281 
29   0.12852 
30   0.124931 
31   0.130929 
32   0.12914 
33   0.128582 
34   0.124973 
35   0.130887 
36   0.129177 
37   0.11515 
38   0.115148 
39   0.108561 
40   0.108604 
 
>  <lowdin_charges> 
40 
1   -0.443434 
2   -0.444345 
3   -0.275482 
4   -0.277094 
5   -0.279072 
6   -0.276488 
7   -0.279677 
8   -0.279708 
9   -0.279088 
10   -0.283491 
11   -0.123321 
12   -0.125611 
13   -0.126888 
14   -0.12908 
15   0.147004 
16   0.148307 
17   0.143571 
18   0.147816 
19   0.146427 
20   0.145528 
21   0.133661 
22   0.140435 
23   0.141885 
24   0.134087 
25   0.136157 
26   0.141396 
27   0.139751 
28   0.135805 
29   0.135728 
30   0.141682 
31   0.142253 
32   0.136362 
33   0.13748 
34   0.139538 
35   0.143312 
36   0.138849 
37   0.130154 
38   0.132481 
39   0.130379 
40   0.132729 
 
$$$$ 
 
