PCCDB-ID:  10957 
public computational chemistry database (PCCDB) project, http://pccdb.org 
 
 17 16  0  0  0  0  0  0  0  0999 V2000 
    0.3944    0.8713   -0.7582 C   0  0  0  0  0  0  0  0  0  0  0  0 
    1.7814    2.3769    0.7454 C   0  0  0  0  0  0  0  0  0  0  0  0 
    2.2677   -0.1074    0.5772 C   0  0  0  0  0  0  0  0  0  0  0  0 
    4.6258   -0.2542    0.3010 C   0  0  0  0  0  0  0  0  0  0  0  0 
    1.7850    1.1418   -0.1647 C   0  0  0  0  0  0  0  0  0  0  0  0 
    4.5438   -0.6558   -0.8345 O   0  0  0  0  0  0  0  0  0  0  0  0 
    3.6056    0.0592    1.1159 O   0  0  0  0  0  0  0  0  0  0  0  0 
    0.0344    1.7451   -1.3122 H   0  0  0  0  0  0  0  0  0  0  0  0 
   -0.3383    0.6550    0.0302 H   0  0  0  0  0  0  0  0  0  0  0  0 
    0.4089    0.0199   -1.4487 H   0  0  0  0  0  0  0  0  0  0  0  0 
    1.4858    3.2717    0.1860 H   0  0  0  0  0  0  0  0  0  0  0  0 
    2.7706    2.5574    1.1775 H   0  0  0  0  0  0  0  0  0  0  0  0 
    1.0706    2.2507    1.5728 H   0  0  0  0  0  0  0  0  0  0  0  0 
    2.2626   -0.9804   -0.0804 H   0  0  0  0  0  0  0  0  0  0  0  0 
    1.6455   -0.3076    1.4549 H   0  0  0  0  0  0  0  0  0  0  0  0 
    5.5718   -0.0908    0.8403 H   0  0  0  0  0  0  0  0  0  0  0  0 
    2.4844    1.3127   -0.9938 H   0  0  0  0  0  0  0  0  0  0  0  0 
  1  5  1  0  0  0  0 
  1  9  1  0  0  0  0 
  2 12  1  0  0  0  0 
  2 13  1  0  0  0  0 
  3  7  1  0  0  0  0 
  3 15  1  0  0  0  0 
  4 16  1  0  0  0  0 
  4  7  1  0  0  0  0 
  5  3  1  0  0  0  0 
  5  2  1  0  0  0  0 
  6  4  2  0  0  0  0 
  8  1  1  0  0  0  0 
 10  1  1  0  0  0  0 
 11  2  1  0  0  0  0 
 14  3  1  0  0  0  0 
 17  5  1  0  0  0  0 
M  END 
>  <HBA> 
2 
 
>  <HBD> 
0 
 
>  <TPSA> 
26.3 
 
>  <cid> 
10957 
 
>  <dipole> 
1.84 
 
>  <excitation_energy_1> 
5.799 
 
>  <excitation_energy_2> 
7.376 
 
>  <excitation_energy_3> 
7.551 
 
>  <excitation_energy_4> 
7.783 
 
>  <homo_energy> 
-7.646 
 
>  <homo_lumo_gap> 
7.851 
 
>  <logP> 
1.451 
 
>  <lumo_energy> 
0.204 
 
>  <melting_point> 
-41.13 
 
>  <molecular_refractivity> 
27.82 
 
>  <oscillator_strength_1> 
0.0014 
 
>  <oscillator_strength_2> 
0.0412 
 
>  <oscillator_strength_3> 
0.0637 
 
>  <oscillator_strength_4> 
0.0331 
 
>  <open_babel_can_smiles> 
O=COCC(C)C 
 
>  <mulliken_charges> 
17 
1   -0.452418 
2   -0.44369 
3   -0.04874 
4   0.388696 
5   -0.096895 
6   -0.421162 
7   -0.418801 
8   0.151808 
9   0.141697 
10   0.151454 
11   0.145626 
12   0.156298 
13   0.138621 
14   0.168976 
15   0.149473 
16   0.136335 
17   0.152724 
 
>  <lowdin_charges> 
17 
1   -0.445786 
2   -0.447546 
3   -0.13582 
4   0.084973 
5   -0.132921 
6   -0.25368 
7   -0.185144 
8   0.156244 
9   0.147719 
10   0.153609 
11   0.151988 
12   0.155042 
13   0.146388 
14   0.159895 
15   0.152758 
16   0.140095 
17   0.152188 
 
$$$$ 
 
