PCCDB-ID:  26860 
public computational chemistry database (PCCDB) project, http://pccdb.org 
 
 23 24  0  0  0  0  0  0  0  0999 V2000 
    3.5158   -0.0680   -1.2191 C   0  0  0  0  0  0  0  0  0  0  0  0 
    2.5427    0.2144   -0.0610 C   0  0  0  0  0  0  0  0  0  0  0  0 
    3.5318   -4.3732    4.1316 C   0  0  0  0  0  0  0  0  0  0  0  0 
    4.0433   -3.5116    5.1177 C   0  0  0  0  0  0  0  0  0  0  0  0 
    3.1219   -3.8608    2.9106 C   0  0  0  0  0  0  0  0  0  0  0  0 
    4.1431   -2.1470    4.8835 C   0  0  0  0  0  0  0  0  0  0  0  0 
    3.4435    0.2329    2.2698 C   0  0  0  0  0  0  0  0  0  0  0  0 
    2.9412   -0.4628    1.2264 C   0  0  0  0  0  0  0  0  0  0  0  0 
    3.2124   -2.4830    2.6469 C   0  0  0  0  0  0  0  0  0  0  0  0 
    3.7251   -1.6447    3.6466 C   0  0  0  0  0  0  0  0  0  0  0  0 
    2.7817   -1.9207    1.3476 C   0  0  0  0  0  0  0  0  0  0  0  0 
    2.3215   -2.6199    0.4435 O   0  0  0  0  0  0  0  0  0  0  0  0 
    3.8369   -0.2921    3.4573 O   0  0  0  0  0  0  0  0  0  0  0  0 
    3.1741    0.4259   -2.1357 H   0  0  0  0  0  0  0  0  0  0  0  0 
    3.5761   -1.1425   -1.4115 H   0  0  0  0  0  0  0  0  0  0  0  0 
    4.5220    0.3011   -0.9891 H   0  0  0  0  0  0  0  0  0  0  0  0 
    1.5464   -0.1463   -0.3430 H   0  0  0  0  0  0  0  0  0  0  0  0 
    2.4613    1.2965    0.1021 H   0  0  0  0  0  0  0  0  0  0  0  0 
    3.4591   -5.4386    4.3291 H   0  0  0  0  0  0  0  0  0  0  0  0 
    4.3650   -3.9134    6.0744 H   0  0  0  0  0  0  0  0  0  0  0  0 
    2.7231   -4.4960    2.1262 H   0  0  0  0  0  0  0  0  0  0  0  0 
    4.5336   -1.4622    5.6293 H   0  0  0  0  0  0  0  0  0  0  0  0 
    3.5861    1.3086    2.2671 H   0  0  0  0  0  0  0  0  0  0  0  0 
  1 16  1  0  0  0  0 
  1  2  1  0  0  0  0 
  2 18  1  0  0  0  0 
  2  8  1  0  0  0  0 
  3 19  1  0  0  0  0 
  3  4  2  0  0  0  0 
  4 20  1  0  0  0  0 
  5  3  1  0  0  0  0 
  6  4  1  0  0  0  0 
  6 22  1  0  0  0  0 
  7 13  1  0  0  0  0 
  8 11  1  0  0  0  0 
  8  7  2  0  0  0  0 
  9  5  2  0  0  0  0 
  9 10  1  0  0  0  0 
 10  6  2  0  0  0  0 
 11  9  1  0  0  0  0 
 12 11  2  0  0  0  0 
 13 10  1  0  0  0  0 
 14  1  1  0  0  0  0 
 15  1  1  0  0  0  0 
 17  2  1  0  0  0  0 
 21  5  1  0  0  0  0 
 23  7  1  0  0  0  0 
M  END 
>  <HBA> 
2 
 
>  <HBD> 
0 
 
>  <TPSA> 
30.21 
 
>  <cid> 
26860 
 
>  <dipole> 
2.98 
 
>  <excitation_energy_1> 
3.734 
 
>  <excitation_energy_2> 
4.39 
 
>  <excitation_energy_3> 
4.931 
 
>  <excitation_energy_4> 
5.14 
 
>  <homo_energy> 
-6.392 
 
>  <homo_lumo_gap> 
4.931 
 
>  <logP> 
2.355 
 
>  <lumo_energy> 
-1.461 
 
>  <melting_point> 
86.5 
 
>  <molecular_refractivity> 
52.26 
 
>  <oscillator_strength_1> 
0.0001 
 
>  <oscillator_strength_2> 
0.0812 
 
>  <oscillator_strength_3> 
0.0109 
 
>  <oscillator_strength_4> 
0.0022 
 
>  <open_babel_can_smiles> 
CCc1coc2c(c1=O)cccc2 
 
>  <mulliken_charges> 
23 
1   -0.445482 
2   -0.324604 
3   -0.131603 
4   -0.130323 
5   -0.175514 
6   -0.172319 
7   0.040644 
8   0.071816 
9   0.06463 
10   0.294488 
11   0.383706 
12   -0.518259 
13   -0.486536 
14   0.144219 
15   0.17955 
16   0.138642 
17   0.16732 
18   0.133669 
19   0.140368 
20   0.142676 
21   0.168088 
22   0.150591 
23   0.164232 
 
>  <lowdin_charges> 
23 
1   -0.441684 
2   -0.258445 
3   -0.15972 
4   -0.13432 
5   -0.124346 
6   -0.176211 
7   -0.032031 
8   -0.07383 
9   -0.066368 
10   0.105887 
11   0.138273 
12   -0.286255 
13   -0.108043 
14   0.151154 
15   0.163793 
16   0.144459 
17   0.163416 
18   0.143353 
19   0.162044 
20   0.164781 
21   0.181224 
22   0.173904 
23   0.168965 
 
$$$$ 
 
