PCCDB-ID:  7018 
public computational chemistry database (PCCDB) project, http://pccdb.org 
 
 25 27  0  0  0  0  0  0  0  0999 V2000 
    3.7106    0.6632   -0.0028 C   0  0  0  0  0  0  0  0  0  0  0  0 
   -3.7099    0.6657   -0.0022 C   0  0  0  0  0  0  0  0  0  0  0  0 
    3.6985   -0.7378   -0.0092 C   0  0  0  0  0  0  0  0  0  0  0  0 
   -3.6987   -0.7353   -0.0096 C   0  0  0  0  0  0  0  0  0  0  0  0 
    2.5141    1.3733    0.0074 C   0  0  0  0  0  0  0  0  0  0  0  0 
   -2.5129    1.3750    0.0094 C   0  0  0  0  0  0  0  0  0  0  0  0 
    2.4853   -1.4107   -0.0052 C   0  0  0  0  0  0  0  0  0  0  0  0 
   -2.4860   -1.4090   -0.0056 C   0  0  0  0  0  0  0  0  0  0  0  0 
    0.0007    1.5060    0.0284 C   0  0  0  0  0  0  0  0  0  0  0  0 
    1.2814    0.7059    0.0126 C   0  0  0  0  0  0  0  0  0  0  0  0 
   -1.2806    0.7068    0.0136 C   0  0  0  0  0  0  0  0  0  0  0  0 
    1.2738   -0.6987    0.0058 C   0  0  0  0  0  0  0  0  0  0  0  0 
   -1.2740   -0.6978    0.0060 C   0  0  0  0  0  0  0  0  0  0  0  0 
   -0.0003   -1.4694    0.0090 C   0  0  0  0  0  0  0  0  0  0  0  0 
   -0.0008   -2.6979    0.0116 O   0  0  0  0  0  0  0  0  0  0  0  0 
    4.6559    1.1996   -0.0053 H   0  0  0  0  0  0  0  0  0  0  0  0 
   -4.6548    1.2028   -0.0063 H   0  0  0  0  0  0  0  0  0  0  0  0 
    4.6327   -1.2922   -0.0177 H   0  0  0  0  0  0  0  0  0  0  0  0 
   -4.6333   -1.2891   -0.0182 H   0  0  0  0  0  0  0  0  0  0  0  0 
    2.5307    2.4612    0.0107 H   0  0  0  0  0  0  0  0  0  0  0  0 
   -2.5288    2.4629    0.0155 H   0  0  0  0  0  0  0  0  0  0  0  0 
    2.4348   -2.4946   -0.0106 H   0  0  0  0  0  0  0  0  0  0  0  0 
   -2.4362   -2.4929   -0.0113 H   0  0  0  0  0  0  0  0  0  0  0  0 
    0.0005    2.1960   -0.8285 H   0  0  0  0  0  0  0  0  0  0  0  0 
    0.0013    2.1597    0.9136 H   0  0  0  0  0  0  0  0  0  0  0  0 
  1  5  2  0  0  0  0 
  2  6  2  0  0  0  0 
  3  7  2  0  0  0  0 
  3  1  1  0  0  0  0 
  4  8  2  0  0  0  0 
  4  2  1  0  0  0  0 
  5 20  1  0  0  0  0 
  5 10  1  0  0  0  0 
  6 11  1  0  0  0  0 
  6 21  1  0  0  0  0 
  7 12  1  0  0  0  0 
  8 13  1  0  0  0  0 
  9 25  1  0  0  0  0 
 10  9  1  0  0  0  0 
 11  9  1  0  0  0  0 
 12 14  1  0  0  0  0 
 12 10  2  0  0  0  0 
 13 14  1  0  0  0  0 
 13 11  2  0  0  0  0 
 14 15  2  0  0  0  0 
 16  1  1  0  0  0  0 
 17  2  1  0  0  0  0 
 18  3  1  0  0  0  0 
 19  4  1  0  0  0  0 
 22  7  1  0  0  0  0 
 23  8  1  0  0  0  0 
 24  9  1  0  0  0  0 
M  END 
>  <HBA> 
1 
 
>  <HBD> 
0 
 
>  <TPSA> 
17.07 
 
>  <cid> 
7018 
 
>  <dipole> 
3.6 
 
>  <excitation_energy_1> 
3.506 
 
>  <excitation_energy_2> 
4.209 
 
>  <excitation_energy_3> 
4.52 
 
>  <excitation_energy_4> 
4.562 
 
>  <homo_energy> 
-6.642 
 
>  <homo_lumo_gap> 
4.925 
 
>  <logP> 
2.822 
 
>  <lumo_energy> 
-1.717 
 
>  <melting_point> 
96.67 
 
>  <molecular_refractivity> 
59.33 
 
>  <oscillator_strength_1> 
0.0 
 
>  <oscillator_strength_2> 
0.0303 
 
>  <oscillator_strength_3> 
0.084 
 
>  <oscillator_strength_4> 
0.2233 
 
>  <open_babel_can_smiles> 
O=C1c2ccccc2Cc2c1cccc2 
 
>  <mulliken_charges> 
25 
1   -0.118423 
2   -0.118406 
3   -0.137916 
4   -0.137906 
5   -0.195867 
6   -0.195912 
7   -0.161836 
8   -0.161853 
9   -0.449702 
10   0.138491 
11   0.138553 
12   0.039065 
13   0.039047 
14   0.333188 
15   -0.49573 
16   0.13591 
17   0.135909 
18   0.136525 
19   0.136523 
20   0.126649 
21   0.126647 
22   0.163634 
23   0.163633 
24   0.17932 
25   0.180457 
 
>  <lowdin_charges> 
25 
1   -0.138924 
2   -0.138929 
3   -0.158785 
4   -0.158779 
5   -0.164769 
6   -0.16477 
7   -0.124073 
8   -0.124074 
9   -0.274387 
10   0.00716 
11   0.007162 
12   -0.052125 
13   -0.052126 
14   0.147135 
15   -0.261132 
16   0.161101 
17   0.161105 
18   0.161527 
19   0.161523 
20   0.154585 
21   0.154585 
22   0.175527 
23   0.175526 
24   0.172723 
25   0.173214 
 
$$$$ 
 
