PCCDB-ID:  30479 
public computational chemistry database (PCCDB) project, http://pccdb.org 
 
 28 28  0  0  0  0  0  0  0  0999 V2000 
    2.0872    0.4503    0.7132 C   0  0  0  0  0  0  0  0  0  0  0  0 
    3.0479   -1.6867    1.6224 C   0  0  0  0  0  0  0  0  0  0  0  0 
    0.6200   -1.5813    0.9127 C   0  0  0  0  0  0  0  0  0  0  0  0 
    3.8993   -0.9641   -5.6820 C   0  0  0  0  0  0  0  0  0  0  0  0 
    2.4466   -1.5244   -0.8110 C   0  0  0  0  0  0  0  0  0  0  0  0 
    2.4850   -2.9609   -1.1440 C   0  0  0  0  0  0  0  0  0  0  0  0 
    3.1627   -2.1666   -3.3380 C   0  0  0  0  0  0  0  0  0  0  0  0 
    2.0528   -1.0838    0.6005 C   0  0  0  0  0  0  0  0  0  0  0  0 
    2.9610   -4.5193   -2.9478 N   0  0  0  0  0  0  0  0  0  0  0  0 
    2.7435   -0.6075   -1.6917 N   0  0  0  0  0  0  0  0  0  0  0  0 
    3.1069   -0.9130   -2.9781 N   0  0  0  0  0  0  0  0  0  0  0  0 
    2.8737   -3.1931   -2.4749 N   0  0  0  0  0  0  0  0  0  0  0  0 
    2.2263   -3.9164   -0.4201 O   0  0  0  0  0  0  0  0  0  0  0  0 
    3.6228   -2.6309   -4.9809 S   0  0  0  0  0  0  0  0  0  0  0  0 
    1.7993    0.7411    1.7301 H   0  0  0  0  0  0  0  0  0  0  0  0 
    1.3968    0.9221    0.0080 H   0  0  0  0  0  0  0  0  0  0  0  0 
    3.0856    0.8474    0.5082 H   0  0  0  0  0  0  0  0  0  0  0  0 
    2.7741   -1.3638    2.6337 H   0  0  0  0  0  0  0  0  0  0  0  0 
    4.0687   -1.3380    1.4257 H   0  0  0  0  0  0  0  0  0  0  0  0 
    3.0388   -2.7787    1.5964 H   0  0  0  0  0  0  0  0  0  0  0  0 
    0.3348   -1.2653    1.9231 H   0  0  0  0  0  0  0  0  0  0  0  0 
    0.5529   -2.6704    0.8617 H   0  0  0  0  0  0  0  0  0  0  0  0 
   -0.1045   -1.1507    0.2112 H   0  0  0  0  0  0  0  0  0  0  0  0 
    4.1949   -1.1368   -6.7201 H   0  0  0  0  0  0  0  0  0  0  0  0 
    4.6930   -0.4442   -5.1445 H   0  0  0  0  0  0  0  0  0  0  0  0 
    2.9852   -0.3707   -5.6430 H   0  0  0  0  0  0  0  0  0  0  0  0 
    2.0682   -4.9637   -2.7263 H   0  0  0  0  0  0  0  0  0  0  0  0 
    3.6509   -4.9952   -2.3633 H   0  0  0  0  0  0  0  0  0  0  0  0 
  1 15  1  0  0  0  0 
  2 18  1  0  0  0  0 
  3 21  1  0  0  0  0 
  4 26  1  0  0  0  0 
  4 25  1  0  0  0  0 
  4 14  1  0  0  0  0 
  5  8  1  0  0  0  0 
  6  5  1  0  0  0  0 
  6 13  2  0  0  0  0 
  7 11  2  0  0  0  0 
  7 12  1  0  0  0  0 
  8  1  1  0  0  0  0 
  8  3  1  0  0  0  0 
  8  2  1  0  0  0  0 
  9 27  1  0  0  0  0 
  9 12  1  0  0  0  0 
  9 28  1  0  0  0  0 
 10  5  2  0  0  0  0 
 11 10  1  0  0  0  0 
 12  6  1  0  0  0  0 
 14  7  1  0  0  0  0 
 16  1  1  0  0  0  0 
 17  1  1  0  0  0  0 
 19  2  1  0  0  0  0 
 20  2  1  0  0  0  0 
 22  3  1  0  0  0  0 
 23  3  1  0  0  0  0 
 24  4  1  0  0  0  0 
M  END 
>  <HBA> 
6 
 
>  <HBD> 
1 
 
>  <TPSA> 
99.1 
 
>  <cid> 
30479 
 
>  <dipole> 
1.7 
 
>  <excitation_energy_1> 
3.645 
 
>  <excitation_energy_2> 
4.181 
 
>  <excitation_energy_3> 
4.642 
 
>  <excitation_energy_4> 
4.946 
 
>  <homo_energy> 
-6.485 
 
>  <homo_lumo_gap> 
4.83 
 
>  <logP> 
0.953 
 
>  <lumo_energy> 
-1.654 
 
>  <melting_point> 
137.33 
 
>  <molecular_refractivity> 
57.43 
 
>  <oscillator_strength_1> 
0.0007 
 
>  <oscillator_strength_2> 
0.1875 
 
>  <oscillator_strength_3> 
0.0001 
 
>  <oscillator_strength_4> 
0.0004 
 
>  <open_babel_can_smiles> 
CSc1nnc(c(=O)n1N)C(C)(C)C 
 
>  <mulliken_charges> 
28 
1   -0.428511 
2   -0.462791 
3   -0.462854 
4   -0.585706 
5   0.246907 
6   0.590415 
7   0.34317 
8   0.037212 
9   -0.540628 
10   -0.324935 
11   -0.334838 
12   -0.409873 
13   -0.519733 
14   0.203976 
15   0.131681 
16   0.153125 
17   0.152645 
18   0.143574 
19   0.142471 
20   0.175254 
21   0.143434 
22   0.175561 
23   0.142731 
24   0.180317 
25   0.206831 
26   0.207328 
27   0.347123 
28   0.346115 
 
>  <lowdin_charges> 
28 
1   -0.436726 
2   -0.442999 
3   -0.445395 
4   -0.540198 
5   -0.002571 
6   0.138723 
7   -0.030113 
8   0.017802 
9   -0.413388 
10   -0.073471 
11   -0.167009 
12   -0.006034 
13   -0.298631 
14   0.214715 
15   0.144692 
16   0.157613 
17   0.155594 
18   0.150491 
19   0.147674 
20   0.162021 
21   0.150502 
22   0.162256 
23   0.149852 
24   0.174781 
25   0.182576 
26   0.18193 
27   0.282507 
28   0.282803 
 
$$$$ 
 
