PCCDB-ID:  7981 
public computational chemistry database (PCCDB) project, http://pccdb.org 
 
 29 28  0  0  0  0  0  0  0  0999 V2000 
    4.8546    3.3705   -2.3366 C   0  0  0  0  0  0  0  0  0  0  0  0 
    8.2776   -2.4671    2.1584 C   0  0  0  0  0  0  0  0  0  0  0  0 
    9.5522   -0.5291    3.1730 C   0  0  0  0  0  0  0  0  0  0  0  0 
    4.9469    2.4382   -1.1246 C   0  0  0  0  0  0  0  0  0  0  0  0 
    4.9204    0.9546   -1.5132 C   0  0  0  0  0  0  0  0  0  0  0  0 
    5.0156   -0.0021   -0.3288 C   0  0  0  0  0  0  0  0  0  0  0  0 
    8.5204   -0.2725    0.8811 C   0  0  0  0  0  0  0  0  0  0  0  0 
    8.3794   -0.9394    2.2720 C   0  0  0  0  0  0  0  0  0  0  0  0 
    7.3262   -0.5237   -0.0163 C   0  0  0  0  0  0  0  0  0  0  0  0 
    7.3100   -1.2688   -0.9733 O   0  0  0  0  0  0  0  0  0  0  0  0 
    6.2465    0.1763    0.4138 O   0  0  0  0  0  0  0  0  0  0  0  0 
    4.8742    4.4231   -2.0325 H   0  0  0  0  0  0  0  0  0  0  0  0 
    3.9269    3.2028   -2.8977 H   0  0  0  0  0  0  0  0  0  0  0  0 
    5.6914    3.2069   -3.0265 H   0  0  0  0  0  0  0  0  0  0  0  0 
    8.1362   -2.9215    3.1459 H   0  0  0  0  0  0  0  0  0  0  0  0 
    9.1937   -2.8877    1.7246 H   0  0  0  0  0  0  0  0  0  0  0  0 
    7.4411   -2.7759    1.5223 H   0  0  0  0  0  0  0  0  0  0  0  0 
    9.4533   -0.9733    4.1702 H   0  0  0  0  0  0  0  0  0  0  0  0 
    9.6049    0.5595    3.2933 H   0  0  0  0  0  0  0  0  0  0  0  0 
   10.5080   -0.8671    2.7522 H   0  0  0  0  0  0  0  0  0  0  0  0 
    4.1155    2.6468   -0.4357 H   0  0  0  0  0  0  0  0  0  0  0  0 
    5.8668    2.6484   -0.5649 H   0  0  0  0  0  0  0  0  0  0  0  0 
    5.7345    0.7285   -2.2130 H   0  0  0  0  0  0  0  0  0  0  0  0 
    3.9841    0.7278   -2.0440 H   0  0  0  0  0  0  0  0  0  0  0  0 
    4.9543   -1.0413   -0.6609 H   0  0  0  0  0  0  0  0  0  0  0  0 
    4.2273    0.1948    0.4039 H   0  0  0  0  0  0  0  0  0  0  0  0 
    9.4053   -0.6590    0.3653 H   0  0  0  0  0  0  0  0  0  0  0  0 
    8.6388    0.8099    1.0106 H   0  0  0  0  0  0  0  0  0  0  0  0 
    7.4515   -0.5607    2.7210 H   0  0  0  0  0  0  0  0  0  0  0  0 
  1 12  1  0  0  0  0 
  1  4  1  0  0  0  0 
  2  8  1  0  0  0  0 
  2 15  1  0  0  0  0 
  3 19  1  0  0  0  0 
  3 18  1  0  0  0  0 
  4 22  1  0  0  0  0 
  4 21  1  0  0  0  0 
  5  4  1  0  0  0  0 
  5  6  1  0  0  0  0 
  6 26  1  0  0  0  0 
  6 11  1  0  0  0  0 
  7 28  1  0  0  0  0 
  7  8  1  0  0  0  0 
  8 29  1  0  0  0  0 
  8  3  1  0  0  0  0 
  9 11  1  0  0  0  0 
  9  7  1  0  0  0  0 
 10  9  2  0  0  0  0 
 13  1  1  0  0  0  0 
 14  1  1  0  0  0  0 
 16  2  1  0  0  0  0 
 17  2  1  0  0  0  0 
 20  3  1  0  0  0  0 
 23  5  1  0  0  0  0 
 24  5  1  0  0  0  0 
 25  6  1  0  0  0  0 
 27  7  1  0  0  0  0 
M  END 
>  <HBA> 
2 
 
>  <HBD> 
0 
 
>  <TPSA> 
26.3 
 
>  <cid> 
7981 
 
>  <dipole> 
1.83 
 
>  <excitation_energy_1> 
5.675 
 
>  <excitation_energy_2> 
6.873 
 
>  <excitation_energy_3> 
7.234 
 
>  <excitation_energy_4> 
7.317 
 
>  <homo_energy> 
-7.148 
 
>  <homo_lumo_gap> 
7.532 
 
>  <logP> 
2.376 
 
>  <lumo_energy> 
0.384 
 
>  <melting_point> 
-16.11 
 
>  <molecular_refractivity> 
46.66 
 
>  <oscillator_strength_1> 
0.0023 
 
>  <oscillator_strength_2> 
0.0161 
 
>  <oscillator_strength_3> 
0.0169 
 
>  <oscillator_strength_4> 
0.0031 
 
>  <open_babel_can_smiles> 
CCCCOC(=O)CC(C)C 
 
>  <mulliken_charges> 
29 
1   -0.442565 
2   -0.447568 
3   -0.442434 
4   -0.247138 
5   -0.274547 
6   -0.052046 
7   -0.324751 
8   -0.082767 
9   0.604901 
10   -0.481405 
11   -0.459383 
12   0.143843 
13   0.14164 
14   0.145101 
15   0.142489 
16   0.145214 
17   0.157136 
18   0.145465 
19   0.142442 
20   0.142904 
21   0.12885 
22   0.144847 
23   0.160358 
24   0.135402 
25   0.167422 
26   0.146101 
27   0.160106 
28   0.156525 
29   0.143858 
 
>  <lowdin_charges> 
29 
1   -0.443273 
2   -0.448257 
3   -0.440957 
4   -0.275421 
5   -0.288004 
6   -0.131719 
7   -0.295788 
8   -0.115453 
9   0.195515 
10   -0.269103 
11   -0.200723 
12   0.149096 
13   0.146375 
14   0.14881 
15   0.149603 
16   0.149858 
17   0.156219 
18   0.150713 
19   0.146858 
20   0.147519 
21   0.139071 
22   0.145745 
23   0.156134 
24   0.148492 
25   0.158088 
26   0.150434 
27   0.16314 
28   0.161399 
29   0.145629 
 
$$$$ 
 
