PCCDB-ID:  69908 
public computational chemistry database (PCCDB) project, http://pccdb.org 
 
 28 30  0  0  0  0  0  0  0  0999 V2000 
    1.3117   -0.2161   -0.8637 C   0  0  0  0  0  0  0  0  0  0  0  0 
    5.3367   -6.1708    4.6959 C   0  0  0  0  0  0  0  0  0  0  0  0 
    6.0128   -5.0205    5.1192 C   0  0  0  0  0  0  0  0  0  0  0  0 
    4.3711   -6.0996    3.6856 C   0  0  0  0  0  0  0  0  0  0  0  0 
    5.7365   -3.7805    4.5417 C   0  0  0  0  0  0  0  0  0  0  0  0 
    3.9929   -0.3268    1.9287 C   0  0  0  0  0  0  0  0  0  0  0  0 
    4.6290   -1.2095    2.7939 C   0  0  0  0  0  0  0  0  0  0  0  0 
    2.6674   -2.1363    0.9904 C   0  0  0  0  0  0  0  0  0  0  0  0 
    3.1063   -4.5174    2.0087 C   0  0  0  0  0  0  0  0  0  0  0  0 
    2.3741    0.2412    0.1250 C   0  0  0  0  0  0  0  0  0  0  0  0 
    3.0119   -0.7722    1.0228 C   0  0  0  0  0  0  0  0  0  0  0  0 
    4.0915   -4.8671    3.1062 C   0  0  0  0  0  0  0  0  0  0  0  0 
    3.2989   -3.0217    1.8519 C   0  0  0  0  0  0  0  0  0  0  0  0 
    4.7723   -3.7072    3.5330 C   0  0  0  0  0  0  0  0  0  0  0  0 
    4.2811   -2.5642    2.7557 C   0  0  0  0  0  0  0  0  0  0  0  0 
    2.6974    1.4193    0.1797 O   0  0  0  0  0  0  0  0  0  0  0  0 
    0.4608   -0.6759   -0.3469 H   0  0  0  0  0  0  0  0  0  0  0  0 
    1.7132   -0.9624   -1.5598 H   0  0  0  0  0  0  0  0  0  0  0  0 
    0.9649    0.6519   -1.4269 H   0  0  0  0  0  0  0  0  0  0  0  0 
    5.5637   -7.1286    5.1563 H   0  0  0  0  0  0  0  0  0  0  0  0 
    6.7599   -5.0941    5.9048 H   0  0  0  0  0  0  0  0  0  0  0  0 
    3.8506   -6.9980    3.3622 H   0  0  0  0  0  0  0  0  0  0  0  0 
    6.2642   -2.8903    4.8741 H   0  0  0  0  0  0  0  0  0  0  0  0 
    4.2366    0.7305    1.9298 H   0  0  0  0  0  0  0  0  0  0  0  0 
    5.3839   -0.8473    3.4868 H   0  0  0  0  0  0  0  0  0  0  0  0 
    1.9126   -2.4970    0.2974 H   0  0  0  0  0  0  0  0  0  0  0  0 
    2.0739   -4.7721    2.2864 H   0  0  0  0  0  0  0  0  0  0  0  0 
    3.3189   -5.0599    1.0770 H   0  0  0  0  0  0  0  0  0  0  0  0 
  1 17  1  0  0  0  0 
  1 10  1  0  0  0  0 
  2  3  1  0  0  0  0 
  2 20  1  0  0  0  0 
  3 21  1  0  0  0  0 
  4  2  2  0  0  0  0 
  5 23  1  0  0  0  0 
  5  3  2  0  0  0  0 
  6 24  1  0  0  0  0 
  6  7  2  0  0  0  0 
  7 25  1  0  0  0  0 
  8 11  2  0  0  0  0 
  8 13  1  0  0  0  0 
  9 27  1  0  0  0  0 
  9 12  1  0  0  0  0 
 10 16  2  0  0  0  0 
 10 11  1  0  0  0  0 
 11  6  1  0  0  0  0 
 12 14  2  0  0  0  0 
 12  4  1  0  0  0  0 
 13  9  1  0  0  0  0 
 13 15  2  0  0  0  0 
 14  5  1  0  0  0  0 
 15  7  1  0  0  0  0 
 15 14  1  0  0  0  0 
 18  1  1  0  0  0  0 
 19  1  1  0  0  0  0 
 22  4  1  0  0  0  0 
 26  8  1  0  0  0  0 
 28  9  1  0  0  0  0 
M  END 
>  <HBA> 
1 
 
>  <HBD> 
0 
 
>  <TPSA> 
17.07 
 
>  <cid> 
69908 
 
>  <dipole> 
3.79 
 
>  <excitation_energy_1> 
3.669 
 
>  <excitation_energy_2> 
4.05 
 
>  <excitation_energy_3> 
4.398 
 
>  <excitation_energy_4> 
4.476 
 
>  <homo_energy> 
-6.046 
 
>  <homo_lumo_gap> 
4.411 
 
>  <logP> 
3.46 
 
>  <lumo_energy> 
-1.635 
 
>  <melting_point> 
109.41 
 
>  <molecular_refractivity> 
65.08 
 
>  <oscillator_strength_1> 
0.0001 
 
>  <oscillator_strength_2> 
0.617 
 
>  <oscillator_strength_3> 
0.0224 
 
>  <oscillator_strength_4> 
0.0077 
 
>  <open_babel_can_smiles> 
CC(=O)c1ccc2c(c1)Cc1c2cccc1 
 
>  <mulliken_charges> 
28 
1   -0.540973 
2   -0.127244 
3   -0.137786 
4   -0.202754 
5   -0.187342 
6   -0.176792 
7   -0.189322 
8   -0.263877 
9   -0.419719 
10   0.404942 
11   0.082686 
12   0.109064 
13   0.107077 
14   0.083685 
15   0.093019 
16   -0.457906 
17   0.168577 
18   0.16862 
19   0.180555 
20   0.131307 
21   0.132156 
22   0.128265 
23   0.134009 
24   0.163291 
25   0.136117 
26   0.129569 
27   0.175415 
28   0.175359 
 
>  <lowdin_charges> 
28 
1   -0.478769 
2   -0.15353 
3   -0.154312 
4   -0.164131 
5   -0.158516 
6   -0.125756 
7   -0.161636 
8   -0.158019 
9   -0.275182 
10   0.158872 
11   -0.054311 
12   0.000287 
13   -0.007579 
14   -0.013991 
15   0.003169 
16   -0.246701 
17   0.169229 
18   0.169465 
19   0.175257 
20   0.159246 
21   0.159626 
22   0.158555 
23   0.160298 
24   0.175478 
25   0.161586 
26   0.161139 
27   0.169596 
28   0.17063 
 
$$$$ 
 
