PCCDB-ID:  19422 
public computational chemistry database (PCCDB) project, http://pccdb.org 
 
 26 25  0  0  0  0  0  0  0  0999 V2000 
    0.2286    0.1393   -1.2420 C   0  0  0  0  0  0  0  0  0  0  0  0 
    4.1837    3.8667    0.8856 C   0  0  0  0  0  0  0  0  0  0  0  0 
    2.2271    1.2232   -0.0552 C   0  0  0  0  0  0  0  0  0  0  0  0 
    2.1585    2.7699   -0.2455 C   0  0  0  0  0  0  0  0  0  0  0  0 
   -1.1247    0.0082    1.3640 C   0  0  0  0  0  0  0  0  0  0  0  0 
    0.8160    1.0295    2.4370 C   0  0  0  0  0  0  0  0  0  0  0  0 
    3.5137    2.9296   -2.7666 C   0  0  0  0  0  0  0  0  0  0  0  0 
    5.4791    3.9645   -1.7525 C   0  0  0  0  0  0  0  0  0  0  0  0 
    0.8453    0.6223    0.0353 C   0  0  0  0  0  0  0  0  0  0  0  0 
    3.5382    3.3699   -0.3717 C   0  0  0  0  0  0  0  0  0  0  0  0 
    0.1980    0.5487    1.2332 C   0  0  0  0  0  0  0  0  0  0  0  0 
    4.1594    3.4271   -1.5844 C   0  0  0  0  0  0  0  0  0  0  0  0 
   -2.1967   -0.4303    1.4688 N   0  0  0  0  0  0  0  0  0  0  0  0 
    1.3451    1.4431    3.3871 N   0  0  0  0  0  0  0  0  0  0  0  0 
    2.9603    2.5022   -3.6966 N   0  0  0  0  0  0  0  0  0  0  0  0 
    6.5489    4.4001   -1.8878 N   0  0  0  0  0  0  0  0  0  0  0  0 
    0.3373    0.8954   -2.0295 H   0  0  0  0  0  0  0  0  0  0  0  0 
   -0.8267   -0.1186   -1.1343 H   0  0  0  0  0  0  0  0  0  0  0  0 
    0.7694   -0.7497   -1.5948 H   0  0  0  0  0  0  0  0  0  0  0  0 
    4.1355    3.0983    1.6676 H   0  0  0  0  0  0  0  0  0  0  0  0 
    3.6226    4.7295    1.2695 H   0  0  0  0  0  0  0  0  0  0  0  0 
    5.2239    4.1648    0.7409 H   0  0  0  0  0  0  0  0  0  0  0  0 
    2.8035    0.9981    0.8477 H   0  0  0  0  0  0  0  0  0  0  0  0 
    2.7530    0.7841   -0.9089 H   0  0  0  0  0  0  0  0  0  0  0  0 
    1.6526    3.2097    0.6198 H   0  0  0  0  0  0  0  0  0  0  0  0 
    1.5613    2.9955   -1.1347 H   0  0  0  0  0  0  0  0  0  0  0  0 
  1 18  1  0  0  0  0 
  1  9  1  0  0  0  0 
  2 21  1  0  0  0  0 
  2 20  1  0  0  0  0 
  3  9  1  0  0  0  0 
  3 23  1  0  0  0  0 
  4  3  1  0  0  0  0 
  4 25  1  0  0  0  0 
  5 13  3  0  0  0  0 
  6 14  3  0  0  0  0 
  7 12  1  0  0  0  0 
  8 12  1  0  0  0  0 
  9 11  2  0  0  0  0 
 10  4  1  0  0  0  0 
 10  2  1  0  0  0  0 
 11  5  1  0  0  0  0 
 11  6  1  0  0  0  0 
 12 10  2  0  0  0  0 
 15  7  3  0  0  0  0 
 16  8  3  0  0  0  0 
 17  1  1  0  0  0  0 
 19  1  1  0  0  0  0 
 22  2  1  0  0  0  0 
 24  3  1  0  0  0  0 
 26  4  1  0  0  0  0 
M  END 
>  <HBA> 
4 
 
>  <HBD> 
0 
 
>  <TPSA> 
95.16 
 
>  <cid> 
19422 
 
>  <dipole> 
0.15 
 
>  <excitation_energy_1> 
4.605 
 
>  <excitation_energy_2> 
4.786 
 
>  <excitation_energy_3> 
5.356 
 
>  <excitation_energy_4> 
5.428 
 
>  <homo_energy> 
-7.897 
 
>  <homo_lumo_gap> 
5.012 
 
>  <logP> 
2.494 
 
>  <lumo_energy> 
-2.884 
 
>  <melting_point> 
138.32 
 
>  <molecular_refractivity> 
57.85 
 
>  <oscillator_strength_1> 
0.3038 
 
>  <oscillator_strength_2> 
0.0013 
 
>  <oscillator_strength_3> 
0.0001 
 
>  <oscillator_strength_4> 
0.4984 
 
>  <open_babel_can_smiles> 
N#CC(=C(CCC(=C(C#N)C#N)C)C)C#N 
 
>  <mulliken_charges> 
26 
1   -0.539722 
2   -0.538829 
3   -0.365087 
4   -0.365891 
5   0.298282 
6   0.297289 
7   0.298178 
8   0.29828 
9   0.200301 
10   0.201127 
11   0.07711 
12   0.077009 
13   -0.466743 
14   -0.475564 
15   -0.476251 
16   -0.466869 
17   0.198082 
18   0.200843 
19   0.196902 
20   0.19715 
21   0.196199 
22   0.201118 
23   0.190986 
24   0.187289 
25   0.187372 
26   0.191438 
 
>  <lowdin_charges> 
26 
1   -0.442903 
2   -0.442708 
3   -0.275098 
4   -0.275289 
5   -0.00716 
6   -0.005394 
7   -0.004812 
8   -0.007251 
9   0.086652 
10   0.086836 
11   -0.062636 
12   -0.062838 
13   -0.090353 
14   -0.101847 
15   -0.102289 
16   -0.090223 
17   0.183363 
18   0.181924 
19   0.185575 
20   0.183212 
21   0.185158 
22   0.182194 
23   0.174439 
24   0.173344 
25   0.173411 
26   0.174692 
 
$$$$ 
 
