PCCDB-ID:  16021 
public computational chemistry database (PCCDB) project, http://pccdb.org 
 
 25 25  0  0  0  0  0  0  0  0999 V2000 
    0.7183   -0.0882   -0.0706 C   0  0  0  0  0  0  0  0  0  0  0  0 
    2.2453   -0.1655    0.0313 C   0  0  0  0  0  0  0  0  0  0  0  0 
    4.6776    2.4173    1.4231 C   0  0  0  0  0  0  0  0  0  0  0  0 
    5.0889    1.0374    0.8882 C   0  0  0  0  0  0  0  0  0  0  0  0 
    3.1569    2.6198    1.3409 C   0  0  0  0  0  0  0  0  0  0  0  0 
    4.5357    0.8037   -0.5282 C   0  0  0  0  0  0  0  0  0  0  0  0 
    2.6333    2.3847   -0.0846 C   0  0  0  0  0  0  0  0  0  0  0  0 
    3.0071    1.0002   -0.6437 C   0  0  0  0  0  0  0  0  0  0  0  0 
    2.6432    1.0548   -2.0355 O   0  0  0  0  0  0  0  0  0  0  0  0 
    0.2597   -1.0177    0.2850 H   0  0  0  0  0  0  0  0  0  0  0  0 
    0.4090    0.0743   -1.1077 H   0  0  0  0  0  0  0  0  0  0  0  0 
    0.3098    0.7297    0.5330 H   0  0  0  0  0  0  0  0  0  0  0  0 
    2.5909   -1.0968   -0.4444 H   0  0  0  0  0  0  0  0  0  0  0  0 
    2.5419   -0.2471    1.0841 H   0  0  0  0  0  0  0  0  0  0  0  0 
    5.1745    3.1970    0.8271 H   0  0  0  0  0  0  0  0  0  0  0  0 
    5.0247    2.5444    2.4564 H   0  0  0  0  0  0  0  0  0  0  0  0 
    4.7238    0.2566    1.5697 H   0  0  0  0  0  0  0  0  0  0  0  0 
    6.1823    0.9442    0.8758 H   0  0  0  0  0  0  0  0  0  0  0  0 
    2.8937    3.6350    1.6637 H   0  0  0  0  0  0  0  0  0  0  0  0 
    2.6577    1.9372    2.0433 H   0  0  0  0  0  0  0  0  0  0  0  0 
    4.8040   -0.2038   -0.8803 H   0  0  0  0  0  0  0  0  0  0  0  0 
    5.0032    1.5153   -1.2220 H   0  0  0  0  0  0  0  0  0  0  0  0 
    3.0701    3.1305   -0.7618 H   0  0  0  0  0  0  0  0  0  0  0  0 
    1.5479    2.5251   -0.1324 H   0  0  0  0  0  0  0  0  0  0  0  0 
    2.9075    0.2089   -2.4334 H   0  0  0  0  0  0  0  0  0  0  0  0 
  1  2  1  0  0  0  0 
  1 10  1  0  0  0  0 
  1 12  1  0  0  0  0 
  2 14  1  0  0  0  0 
  3 16  1  0  0  0  0 
  4  3  1  0  0  0  0 
  4 17  1  0  0  0  0 
  5  3  1  0  0  0  0 
  5 19  1  0  0  0  0 
  5 20  1  0  0  0  0 
  6  4  1  0  0  0  0 
  7  5  1  0  0  0  0 
  8  6  1  0  0  0  0 
  8  7  1  0  0  0  0 
  8  2  1  0  0  0  0 
  9  8  1  0  0  0  0 
 11  1  1  0  0  0  0 
 13  2  1  0  0  0  0 
 15  3  1  0  0  0  0 
 18  4  1  0  0  0  0 
 21  6  1  0  0  0  0 
 22  6  1  0  0  0  0 
 23  7  1  0  0  0  0 
 24  7  1  0  0  0  0 
 25  9  1  0  0  0  0 
M  END 
>  <HBA> 
1 
 
>  <HBD> 
1 
 
>  <TPSA> 
20.23 
 
>  <cid> 
16021 
 
>  <dipole> 
1.47 
 
>  <excitation_energy_1> 
6.366 
 
>  <excitation_energy_2> 
6.837 
 
>  <excitation_energy_3> 
7.039 
 
>  <excitation_energy_4> 
7.17 
 
>  <homo_energy> 
-6.95 
 
>  <homo_lumo_gap> 
8.893 
 
>  <logP> 
2.092 
 
>  <lumo_energy> 
1.943 
 
>  <melting_point> 
24.33 
 
>  <molecular_refractivity> 
39.66 
 
>  <oscillator_strength_1> 
0.0083 
 
>  <oscillator_strength_2> 
0.0048 
 
>  <oscillator_strength_3> 
0.0012 
 
>  <oscillator_strength_4> 
0.0108 
 
>  <open_babel_can_smiles> 
CCC1(O)CCCCC1 
 
>  <mulliken_charges> 
25 
1   -0.448677 
2   -0.272899 
3   -0.255331 
4   -0.266042 
5   -0.268872 
6   -0.28581 
7   -0.275749 
8   0.322095 
9   -0.650044 
10   0.137813 
11   0.159219 
12   0.145284 
13   0.114736 
14   0.135635 
15   0.130462 
16   0.129783 
17   0.132711 
18   0.132923 
19   0.133737 
20   0.131289 
21   0.113598 
22   0.140289 
23   0.141266 
24   0.142297 
25   0.380288 
 
>  <lowdin_charges> 
25 
1   -0.449426 
2   -0.289152 
3   -0.277734 
4   -0.278941 
5   -0.280133 
6   -0.294752 
7   -0.281818 
8   0.115034 
9   -0.462455 
10   0.148964 
11   0.154886 
12   0.148599 
13   0.134863 
14   0.142821 
15   0.139991 
16   0.14255 
17   0.139633 
18   0.143426 
19   0.145395 
20   0.139389 
21   0.134869 
22   0.148483 
23   0.150594 
24   0.148545 
25   0.33637 
 
$$$$ 
 
