PCCDB-ID:  73134 
public computational chemistry database (PCCDB) project, http://pccdb.org 
 
 20 20  0  0  0  0  0  0  0  0999 V2000 
    1.5659   -0.1670   -0.6528 C   0  0  0  0  0  0  0  0  0  0  0  0 
    3.2432    4.8983    1.4403 C   0  0  0  0  0  0  0  0  0  0  0  0 
    2.9142    0.1465    0.0014 C   0  0  0  0  0  0  0  0  0  0  0  0 
    2.4181    1.3417    2.2072 C   0  0  0  0  0  0  0  0  0  0  0  0 
    2.5270    2.8084    2.6092 C   0  0  0  0  0  0  0  0  0  0  0  0 
    3.2023    2.5958    0.4058 C   0  0  0  0  0  0  0  0  0  0  0  0 
    2.9968    3.4659    1.4818 N   0  0  0  0  0  0  0  0  0  0  0  0 
    2.8846    1.3445    0.8325 N   0  0  0  0  0  0  0  0  0  0  0  0 
    2.2610    3.3063    3.6830 O   0  0  0  0  0  0  0  0  0  0  0  0 
    3.7426    3.0570   -1.0997 S   0  0  0  0  0  0  0  0  0  0  0  0 
    1.6446   -1.0823   -1.2496 H   0  0  0  0  0  0  0  0  0  0  0  0 
    1.2647    0.6502   -1.3148 H   0  0  0  0  0  0  0  0  0  0  0  0 
    0.7786   -0.3200    0.0943 H   0  0  0  0  0  0  0  0  0  0  0  0 
    3.0030    5.2900    2.4297 H   0  0  0  0  0  0  0  0  0  0  0  0 
    2.6129    5.3684    0.6812 H   0  0  0  0  0  0  0  0  0  0  0  0 
    4.2900    5.0937    1.1956 H   0  0  0  0  0  0  0  0  0  0  0  0 
    3.6793    0.3070   -0.7619 H   0  0  0  0  0  0  0  0  0  0  0  0 
    3.2400   -0.6842    0.6390 H   0  0  0  0  0  0  0  0  0  0  0  0 
    1.3796    0.9985    2.3015 H   0  0  0  0  0  0  0  0  0  0  0  0 
    3.0448    0.7167    2.8566 H   0  0  0  0  0  0  0  0  0  0  0  0 
  1  3  1  0  0  0  0 
  1 13  1  0  0  0  0 
  2  7  1  0  0  0  0 
  2 14  1  0  0  0  0 
  3 18  1  0  0  0  0 
  3  8  1  0  0  0  0 
  4 19  1  0  0  0  0 
  4  5  1  0  0  0  0 
  4 20  1  0  0  0  0 
  5  9  2  0  0  0  0 
  6  8  1  0  0  0  0 
  6  7  1  0  0  0  0 
  7  5  1  0  0  0  0 
  8  4  1  0  0  0  0 
 10  6  2  0  0  0  0 
 11  1  1  0  0  0  0 
 12  1  1  0  0  0  0 
 15  2  1  0  0  0  0 
 16  2  1  0  0  0  0 
 17  3  1  0  0  0  0 
M  END 
>  <HBA> 
4 
 
>  <HBD> 
0 
 
>  <TPSA> 
55.64 
 
>  <cid> 
73134 
 
>  <dipole> 
2.96 
 
>  <excitation_energy_1> 
3.713 
 
>  <excitation_energy_2> 
4.767 
 
>  <excitation_energy_3> 
5.193 
 
>  <excitation_energy_4> 
5.244 
 
>  <homo_energy> 
-5.973 
 
>  <homo_lumo_gap> 
4.925 
 
>  <logP> 
-0.059 
 
>  <lumo_energy> 
-1.048 
 
>  <melting_point> 
53.04 
 
>  <molecular_refractivity> 
50.45 
 
>  <oscillator_strength_1> 
0.0002 
 
>  <oscillator_strength_2> 
0.1864 
 
>  <oscillator_strength_3> 
0.001 
 
>  <oscillator_strength_4> 
0.0062 
 
>  <open_babel_can_smiles> 
CCN1CC(=O)N(C1=S)C 
 
>  <mulliken_charges> 
20 
1   -0.448516 
2   -0.320165 
3   -0.141119 
4   -0.213898 
5   0.582778 
6   0.362788 
7   -0.459372 
8   -0.423988 
9   -0.479425 
10   -0.26339 
11   0.157267 
12   0.181868 
13   0.145544 
14   0.194453 
15   0.190421 
16   0.191359 
17   0.19895 
18   0.149818 
19   0.197712 
20   0.196914 
 
>  <lowdin_charges> 
20 
1   -0.452864 
2   -0.345537 
3   -0.193581 
4   -0.216522 
5   0.159116 
6   -0.003348 
7   -0.065325 
8   -0.081714 
9   -0.260258 
10   -0.233742 
11   0.160684 
12   0.168997 
13   0.149479 
14   0.179721 
15   0.17503 
16   0.173157 
17   0.180952 
18   0.151167 
19   0.175742 
20   0.178848 
 
$$$$ 
 
