PCCDB-ID:  29530 
public computational chemistry database (PCCDB) project, http://pccdb.org 
 
 30 30  0  0  0  0  0  0  0  0999 V2000 
    4.3801   -1.0985    5.0922 C   0  0  0  0  0  0  0  0  0  0  0  0 
    4.6155   -3.1541    3.6659 C   0  0  0  0  0  0  0  0  0  0  0  0 
   11.2688    3.0996    2.8275 C   0  0  0  0  0  0  0  0  0  0  0  0 
   10.5090    2.9919    3.9965 C   0  0  0  0  0  0  0  0  0  0  0  0 
   10.6469    2.8771    1.6000 C   0  0  0  0  0  0  0  0  0  0  0  0 
    9.1575    2.6724    3.9375 C   0  0  0  0  0  0  0  0  0  0  0  0 
    9.2914    2.5512    1.5271 C   0  0  0  0  0  0  0  0  0  0  0  0 
    6.5173    1.5892    1.5106 C   0  0  0  0  0  0  0  0  0  0  0  0 
    5.0360    1.3622    1.7778 C   0  0  0  0  0  0  0  0  0  0  0  0 
    4.5897   -1.6661    3.8975 C   0  0  0  0  0  0  0  0  0  0  0  0 
    8.5221    2.4489    2.6997 C   0  0  0  0  0  0  0  0  0  0  0  0 
    4.8073   -0.8398    2.6718 C   0  0  0  0  0  0  0  0  0  0  0  0 
    7.1522    2.1763    2.6783 N   0  0  0  0  0  0  0  0  0  0  0  0 
    4.9395   -1.3148    1.5610 O   0  0  0  0  0  0  0  0  0  0  0  0 
    4.8381    0.4971    2.9198 O   0  0  0  0  0  0  0  0  0  0  0  0 
    4.2182   -1.7056    5.9789 H   0  0  0  0  0  0  0  0  0  0  0  0 
    4.3599   -0.0220    5.2180 H   0  0  0  0  0  0  0  0  0  0  0  0 
    4.4652   -3.6969    4.6031 H   0  0  0  0  0  0  0  0  0  0  0  0 
    5.5694   -3.4655    3.2259 H   0  0  0  0  0  0  0  0  0  0  0  0 
    3.8360   -3.4520    2.9558 H   0  0  0  0  0  0  0  0  0  0  0  0 
   12.3247    3.3490    2.8757 H   0  0  0  0  0  0  0  0  0  0  0  0 
   10.9732    3.1576    4.9657 H   0  0  0  0  0  0  0  0  0  0  0  0 
   11.2204    2.9496    0.6791 H   0  0  0  0  0  0  0  0  0  0  0  0 
    8.5743    2.5985    4.8535 H   0  0  0  0  0  0  0  0  0  0  0  0 
    8.8382    2.3757    0.5570 H   0  0  0  0  0  0  0  0  0  0  0  0 
    6.5941    2.2829    0.6635 H   0  0  0  0  0  0  0  0  0  0  0  0 
    6.9851    0.6414    1.1986 H   0  0  0  0  0  0  0  0  0  0  0  0 
    4.5532    0.9230    0.9029 H   0  0  0  0  0  0  0  0  0  0  0  0 
    4.5462    2.2987    2.0541 H   0  0  0  0  0  0  0  0  0  0  0  0 
    6.8125    1.7702    3.5426 H   0  0  0  0  0  0  0  0  0  0  0  0 
  1 17  1  0  0  0  0 
  1 16  1  0  0  0  0 
  2 10  1  0  0  0  0 
  2 18  1  0  0  0  0 
  3 21  1  0  0  0  0 
  3  4  2  0  0  0  0 
  4 22  1  0  0  0  0 
  5  3  1  0  0  0  0 
  6  4  1  0  0  0  0 
  6 24  1  0  0  0  0 
  7  5  2  0  0  0  0 
  7 11  1  0  0  0  0 
  8  9  1  0  0  0  0 
  8 13  1  0  0  0  0 
  9 29  1  0  0  0  0 
  9 15  1  0  0  0  0 
 10  1  2  0  0  0  0 
 11  6  2  0  0  0  0 
 12 15  1  0  0  0  0 
 12 10  1  0  0  0  0 
 13 11  1  0  0  0  0 
 13 30  1  0  0  0  0 
 14 12  2  0  0  0  0 
 19  2  1  0  0  0  0 
 20  2  1  0  0  0  0 
 23  5  1  0  0  0  0 
 25  7  1  0  0  0  0 
 26  8  1  0  0  0  0 
 27  8  1  0  0  0  0 
 28  9  1  0  0  0  0 
M  END 
>  <HBA> 
3 
 
>  <HBD> 
1 
 
>  <TPSA> 
38.33 
 
>  <cid> 
29530 
 
>  <dipole> 
1.97 
 
>  <excitation_energy_1> 
3.344 
 
>  <excitation_energy_2> 
4.603 
 
>  <excitation_energy_3> 
4.705 
 
>  <excitation_energy_4> 
4.818 
 
>  <homo_energy> 
-5.268 
 
>  <homo_lumo_gap> 
3.978 
 
>  <logP> 
2.291 
 
>  <lumo_energy> 
-1.29 
 
>  <melting_point> 
29.81 
 
>  <molecular_refractivity> 
60.59 
 
>  <oscillator_strength_1> 
0.0003 
 
>  <oscillator_strength_2> 
0.0329 
 
>  <oscillator_strength_3> 
0.0001 
 
>  <oscillator_strength_4> 
0.0 
 
>  <open_babel_can_smiles> 
O=C(C(=C)C)OCCNc1ccccc1 
 
>  <mulliken_charges> 
30 
1   -0.369153 
2   -0.500689 
3   -0.137746 
4   -0.133813 
5   -0.138151 
6   -0.188068 
7   -0.182533 
8   -0.132315 
9   -0.071369 
10   0.127484 
11   0.353395 
12   0.596642 
13   -0.666854 
14   -0.479464 
15   -0.489106 
16   0.152422 
17   0.170163 
18   0.149542 
19   0.174225 
20   0.175695 
21   0.119663 
22   0.123633 
23   0.123927 
24   0.113871 
25   0.122345 
26   0.156679 
27   0.162911 
28   0.179186 
29   0.166214 
30   0.321263 
 
>  <lowdin_charges> 
30 
1   -0.298747 
2   -0.435339 
3   -0.186105 
4   -0.147427 
5   -0.146333 
6   -0.20011 
7   -0.21026 
8   -0.206839 
9   -0.136807 
10   -0.02736 
11   0.061022 
12   0.19769 
13   -0.305994 
14   -0.263313 
15   -0.203934 
16   0.165774 
17   0.17206 
18   0.156938 
19   0.169398 
20   0.171091 
21   0.152677 
22   0.15507 
23   0.155416 
24   0.15114 
25   0.156029 
26   0.156283 
27   0.145972 
28   0.168214 
29   0.160434 
30   0.273357 
 
$$$$ 
 
