PCCDB-ID:  15817 
public computational chemistry database (PCCDB) project, http://pccdb.org 
 
 26 25  0  0  0  0  0  0  0  0999 V2000 
   -0.1032    0.2707   -3.7107 C   0  0  0  0  0  0  0  0  0  0  0  0 
    4.5850   -2.2147    2.5022 C   0  0  0  0  0  0  0  0  0  0  0  0 
    1.1489   -0.6122   -3.6965 C   0  0  0  0  0  0  0  0  0  0  0  0 
    4.1997   -2.4133    1.2363 C   0  0  0  0  0  0  0  0  0  0  0  0 
    1.2611   -1.4684   -2.4286 C   0  0  0  0  0  0  0  0  0  0  0  0 
    2.5055   -2.3463   -2.4148 C   0  0  0  0  0  0  0  0  0  0  0  0 
    3.5998   -4.0025   -1.0921 C   0  0  0  0  0  0  0  0  0  0  0  0 
    5.1390   -2.6950    0.1175 C   0  0  0  0  0  0  0  0  0  0  0  0 
    4.9023   -3.3699   -0.9366 N   0  0  0  0  0  0  0  0  0  0  0  0 
    6.4034   -2.1985    0.2524 O   0  0  0  0  0  0  0  0  0  0  0  0 
    2.5089   -3.1008   -1.2039 O   0  0  0  0  0  0  0  0  0  0  0  0 
   -0.1571    0.8716   -4.6255 H   0  0  0  0  0  0  0  0  0  0  0  0 
   -0.1110    0.9599   -2.8575 H   0  0  0  0  0  0  0  0  0  0  0  0 
   -1.0157   -0.3353   -3.6547 H   0  0  0  0  0  0  0  0  0  0  0  0 
    3.8601   -2.0333    3.2903 H   0  0  0  0  0  0  0  0  0  0  0  0 
    5.6274   -2.2569    2.8123 H   0  0  0  0  0  0  0  0  0  0  0  0 
    2.0429    0.0202   -3.7910 H   0  0  0  0  0  0  0  0  0  0  0  0 
    1.1448   -1.2661   -4.5800 H   0  0  0  0  0  0  0  0  0  0  0  0 
    3.1485   -2.4107    0.9673 H   0  0  0  0  0  0  0  0  0  0  0  0 
    0.3759   -2.1105   -2.3286 H   0  0  0  0  0  0  0  0  0  0  0  0 
    1.2778   -0.8207   -1.5415 H   0  0  0  0  0  0  0  0  0  0  0  0 
    3.4156   -1.7339   -2.4865 H   0  0  0  0  0  0  0  0  0  0  0  0 
    2.5044   -3.0340   -3.2772 H   0  0  0  0  0  0  0  0  0  0  0  0 
    3.3552   -4.6462   -0.2373 H   0  0  0  0  0  0  0  0  0  0  0  0 
    3.6500   -4.6295   -1.9928 H   0  0  0  0  0  0  0  0  0  0  0  0 
    6.3959   -1.5227    0.9483 H   0  0  0  0  0  0  0  0  0  0  0  0 
  1  3  1  0  0  0  0 
  1 14  1  0  0  0  0 
  1 13  1  0  0  0  0 
  2 16  1  0  0  0  0 
  2 15  1  0  0  0  0 
  3  5  1  0  0  0  0 
  4  2  2  0  0  0  0 
  5  6  1  0  0  0  0 
  5 20  1  0  0  0  0 
  5 21  1  0  0  0  0 
  6 11  1  0  0  0  0 
  7  9  1  0  0  0  0 
  7 24  1  0  0  0  0 
  8 10  1  0  0  0  0 
  8  4  1  0  0  0  0 
  9  8  2  0  0  0  0 
 10 26  1  0  0  0  0 
 11  7  1  0  0  0  0 
 12  1  1  0  0  0  0 
 17  3  1  0  0  0  0 
 18  3  1  0  0  0  0 
 19  4  1  0  0  0  0 
 22  6  1  0  0  0  0 
 23  6  1  0  0  0  0 
 25  7  1  0  0  0  0 
M  END 
>  <HBA> 
3 
 
>  <HBD> 
1 
 
>  <TPSA> 
38.33 
 
>  <cid> 
15817 
 
>  <dipole> 
2.84 
 
>  <excitation_energy_1> 
4.018 
 
>  <excitation_energy_2> 
4.923 
 
>  <excitation_energy_3> 
5.192 
 
>  <excitation_energy_4> 
6.033 
 
>  <homo_energy> 
-6.498 
 
>  <homo_lumo_gap> 
5.225 
 
>  <logP> 
1.454 
 
>  <lumo_energy> 
-1.274 
 
>  <melting_point> 
-8.87 
 
>  <molecular_refractivity> 
44.18 
 
>  <oscillator_strength_1> 
0.0012 
 
>  <oscillator_strength_2> 
0.0308 
 
>  <oscillator_strength_3> 
0.1557 
 
>  <oscillator_strength_4> 
0.0079 
 
>  <open_babel_can_smiles> 
CCCCOC/N=C(\C=C)/O 
 
>  <mulliken_charges> 
26 
1   -0.439806 
2   -0.353842 
3   -0.25629 
4   -0.129644 
5   -0.265672 
6   -0.015299 
7   0.059994 
8   0.462331 
9   -0.431148 
10   -0.58065 
11   -0.483047 
12   0.143448 
13   0.142319 
14   0.143615 
15   0.165272 
16   0.155084 
17   0.134489 
18   0.134254 
19   0.189785 
20   0.141362 
21   0.136853 
22   0.139736 
23   0.119594 
24   0.143583 
25   0.1408 
26   0.402878 
 
>  <lowdin_charges> 
26 
1   -0.443497 
2   -0.309908 
3   -0.272902 
4   -0.185731 
5   -0.281235 
6   -0.132087 
7   -0.080988 
8   0.136016 
9   -0.220594 
10   -0.360972 
11   -0.281654 
12   0.150318 
13   0.147292 
14   0.147643 
15   0.172987 
16   0.15987 
17   0.140956 
18   0.140884 
19   0.184485 
20   0.146458 
21   0.144145 
22   0.136504 
23   0.128339 
24   0.140824 
25   0.137643 
26   0.355205 
 
$$$$ 
 
