PCCDB-ID:  11187 
public computational chemistry database (PCCDB) project, http://pccdb.org 
 
 13 12  0  0  0  0  0  0  0  0999 V2000 
    1.3460    0.4114   -0.0359 C   0  0  0  0  0  0  0  0  0  0  0  0 
    0.1296    0.7997   -0.4383 C   0  0  0  0  0  0  0  0  0  0  0  0 
    2.6154    0.8483   -0.6736 C   0  0  0  0  0  0  0  0  0  0  0  0 
   -1.0871    0.3079    0.2751 C   0  0  0  0  0  0  0  0  0  0  0  0 
    2.8950    2.0020   -1.1308 N   0  0  0  0  0  0  0  0  0  0  0  0 
    3.5834   -0.1069   -0.7374 O   0  0  0  0  0  0  0  0  0  0  0  0 
   -1.0560   -0.4598    1.2073 O   0  0  0  0  0  0  0  0  0  0  0  0 
   -2.2752    0.7754   -0.1884 O   0  0  0  0  0  0  0  0  0  0  0  0 
    1.4029   -0.2795    0.8059 H   0  0  0  0  0  0  0  0  0  0  0  0 
    0.0178    1.4672   -1.2919 H   0  0  0  0  0  0  0  0  0  0  0  0 
    2.1127    2.6395   -0.9785 H   0  0  0  0  0  0  0  0  0  0  0  0 
    3.2214   -0.9637   -0.4632 H   0  0  0  0  0  0  0  0  0  0  0  0 
   -2.1410    1.3802   -0.9364 H   0  0  0  0  0  0  0  0  0  0  0  0 
  1  9  1  0  0  0  0 
  2  1  2  0  0  0  0 
  2  4  1  0  0  0  0 
  3  1  1  0  0  0  0 
  4  7  2  0  0  0  0 
  5 11  1  0  0  0  0 
  5  3  2  0  0  0  0 
  6  3  1  0  0  0  0 
  6 12  1  0  0  0  0 
  8  4  1  0  0  0  0 
 10  2  1  0  0  0  0 
 13  8  1  0  0  0  0 
M  END 
>  <HBA> 
4 
 
>  <HBD> 
2 
 
>  <TPSA> 
80.39 
 
>  <cid> 
11187 
 
>  <dipole> 
2.06 
 
>  <excitation_energy_1> 
4.145 
 
>  <excitation_energy_2> 
4.273 
 
>  <excitation_energy_3> 
4.607 
 
>  <excitation_energy_4> 
5.736 
 
>  <homo_energy> 
-7.562 
 
>  <homo_lumo_gap> 
5.105 
 
>  <logP> 
-0.187 
 
>  <lumo_energy> 
-2.457 
 
>  <melting_point> 
137.35 
 
>  <molecular_refractivity> 
25.55 
 
>  <oscillator_strength_1> 
0.0005 
 
>  <oscillator_strength_2> 
0.0073 
 
>  <oscillator_strength_3> 
0.1104 
 
>  <oscillator_strength_4> 
0.111 
 
>  <open_babel_can_smiles> 
OC(=N)/C=C/C(=O)O 
 
>  <mulliken_charges> 
13 
1   -0.169879 
2   -0.215467 
3   0.467772 
4   0.607462 
5   -0.563601 
6   -0.570627 
7   -0.443555 
8   -0.571085 
9   0.192648 
10   0.147892 
11   0.290334 
12   0.41495 
13   0.413157 
 
>  <lowdin_charges> 
13 
1   -0.144131 
2   -0.199673 
3   0.122624 
4   0.190992 
5   -0.37169 
6   -0.351559 
7   -0.236239 
8   -0.345151 
9   0.1873 
10   0.163051 
11   0.261881 
12   0.361498 
13   0.3611 
 
$$$$ 
 
