PCCDB-ID:  21893 
public computational chemistry database (PCCDB) project, http://pccdb.org 
 
 21 21  0  0  1  0  0  0  0  0999 V2000 
    0.5983   -0.0872    0.1542 C   0  0  0  0  0  0  0  0  0  0  0  0 
    2.6965    0.5067    1.4313 C   0  0  0  0  0  0  0  0  0  0  0  0 
    2.6220    0.4457   -3.9242 C   0  0  0  0  0  0  0  0  0  0  0  0 
    2.6935   -1.3711   -2.1470 C   0  0  0  0  0  0  0  0  0  0  0  0 
    3.1681    0.0284   -2.5522 C   0  0  2  0  0  0  0  0  0  0  0  0 
    2.1268    0.0310    0.0890 C   0  0  0  0  0  0  0  0  0  0  0  0 
    3.0244    1.7478   -4.3126 O   0  0  0  0  0  0  0  0  0  0  0  0 
    2.9154   -1.5882   -0.3477 S   0  0  0  0  0  0  0  0  0  0  0  0 
    2.6294    1.2407   -1.2515 S   0  0  0  0  0  0  0  0  0  0  0  0 
    0.3069   -0.7654    0.9647 H   0  0  0  0  0  0  0  0  0  0  0  0 
    0.1806   -0.4683   -0.7815 H   0  0  0  0  0  0  0  0  0  0  0  0 
    0.1511    0.8958    0.3445 H   0  0  0  0  0  0  0  0  0  0  0  0 
    2.4423   -0.2078    2.2236 H   0  0  0  0  0  0  0  0  0  0  0  0 
    2.2624    1.4747    1.7066 H   0  0  0  0  0  0  0  0  0  0  0  0 
    3.7827    0.6126    1.3855 H   0  0  0  0  0  0  0  0  0  0  0  0 
    1.5257    0.3432   -3.9279 H   0  0  0  0  0  0  0  0  0  0  0  0 
    3.0263   -0.2313   -4.6863 H   0  0  0  0  0  0  0  0  0  0  0  0 
    3.2832   -2.1451   -2.6491 H   0  0  0  0  0  0  0  0  0  0  0  0 
    1.6412   -1.5168   -2.4162 H   0  0  0  0  0  0  0  0  0  0  0  0 
    4.2610    0.0623   -2.5788 H   0  0  0  0  0  0  0  0  0  0  0  0 
    2.5333    2.3780   -3.7604 H   0  0  0  0  0  0  0  0  0  0  0  0 
  1 12  1  0  0  0  0 
  1 10  1  0  0  0  0 
  2 14  1  0  0  0  0 
  2 13  1  0  0  0  0 
  3  5  1  0  0  0  0 
  4  8  1  0  0  0  0 
  5 20  1  6  0  0  0 
  5  4  1  0  0  0  0 
  5  9  1  0  0  0  0 
  6  1  1  0  0  0  0 
  6  2  1  0  0  0  0 
  7  3  1  0  0  0  0 
  7 21  1  0  0  0  0 
  8  6  1  0  0  0  0 
  9  6  1  0  0  0  0 
 11  1  1  0  0  0  0 
 15  2  1  0  0  0  0 
 16  3  1  0  0  0  0 
 17  3  1  0  0  0  0 
 18  4  1  0  0  0  0 
 19  4  1  0  0  0  0 
M  END 
>  <HBA> 
3 
 
>  <HBD> 
1 
 
>  <TPSA> 
70.83 
 
>  <cid> 
21893 
 
>  <dipole> 
1.84 
 
>  <excitation_energy_1> 
4.694 
 
>  <excitation_energy_2> 
4.829 
 
>  <excitation_energy_3> 
5.536 
 
>  <excitation_energy_4> 
5.585 
 
>  <homo_energy> 
-6.193 
 
>  <homo_lumo_gap> 
6.033 
 
>  <logP> 
1.563 
 
>  <lumo_energy> 
-0.161 
 
>  <melting_point> 
43.6 
 
>  <molecular_refractivity> 
45.22 
 
>  <oscillator_strength_1> 
0.0045 
 
>  <oscillator_strength_2> 
0.0002 
 
>  <oscillator_strength_3> 
0.0052 
 
>  <oscillator_strength_4> 
0.0212 
 
>  <open_babel_can_smiles> 
OC[C@@H]1CSC(S1)(C)C 
 
>  <mulliken_charges> 
21 
1   -0.413379 
2   -0.444801 
3   -0.02795 
4   -0.432777 
5   -0.251428 
6   -0.233275 
7   -0.61226 
8   0.123884 
9   0.067514 
10   0.158108 
11   0.156242 
12   0.158323 
13   0.16052 
14   0.161889 
15   0.18166 
16   0.131819 
17   0.151781 
18   0.187837 
19   0.17903 
20   0.191079 
21   0.406182 
 
>  <lowdin_charges> 
21 
1   -0.445293 
2   -0.442124 
3   -0.137699 
4   -0.379249 
5   -0.234461 
6   -0.163973 
7   -0.460336 
8   0.112868 
9   0.056788 
10   0.157638 
11   0.156706 
12   0.157195 
13   0.159548 
14   0.159874 
15   0.168824 
16   0.130487 
17   0.151993 
18   0.177653 
19   0.156886 
20   0.166317 
21   0.350358 
 
$$$$ 
 
