PCCDB-ID:  70824 
public computational chemistry database (PCCDB) project, http://pccdb.org 
 
 29 31  0  0  1  0  0  0  0  0999 V2000 
   -1.0624    0.4969    1.9949 C   0  0  0  0  0  0  0  0  0  0  0  0 
    6.9896    2.1676   -2.0306 C   0  0  0  0  0  0  0  0  0  0  0  0 
   -0.2447    1.5798    1.6677 C   0  0  0  0  0  0  0  0  0  0  0  0 
   -0.6235   -0.8023    1.7307 C   0  0  0  0  0  0  0  0  0  0  0  0 
    5.6399    2.4888   -2.1836 C   0  0  0  0  0  0  0  0  0  0  0  0 
    7.3781    1.2885   -1.0175 C   0  0  0  0  0  0  0  0  0  0  0  0 
    1.0026    1.3632    1.0797 C   0  0  0  0  0  0  0  0  0  0  0  0 
    0.6246   -1.0139    1.1442 C   0  0  0  0  0  0  0  0  0  0  0  0 
    4.6867    1.9345   -1.3278 C   0  0  0  0  0  0  0  0  0  0  0  0 
    6.4216    0.7355   -0.1655 C   0  0  0  0  0  0  0  0  0  0  0  0 
    3.8555   -1.0086    0.7946 C   0  0  0  0  0  0  0  0  0  0  0  0 
    1.4554    0.0648    0.8096 C   0  0  0  0  0  0  0  0  0  0  0  0 
    5.0627    1.0506   -0.3073 C   0  0  0  0  0  0  0  0  0  0  0  0 
    2.7780   -0.1708    0.1405 C   0  0  1  0  0  0  0  0  0  0  0  0 
    4.0456    0.4847    0.6404 C   0  0  1  0  0  0  0  0  0  0  0  0 
   -2.0326    0.6634    2.4553 H   0  0  0  0  0  0  0  0  0  0  0  0 
    7.7329    2.5958   -2.6980 H   0  0  0  0  0  0  0  0  0  0  0  0 
   -0.5765    2.5946    1.8723 H   0  0  0  0  0  0  0  0  0  0  0  0 
   -1.2519   -1.6520    1.9854 H   0  0  0  0  0  0  0  0  0  0  0  0 
    5.3276    3.1697   -2.9714 H   0  0  0  0  0  0  0  0  0  0  0  0 
    8.4266    1.0299   -0.8932 H   0  0  0  0  0  0  0  0  0  0  0  0 
    1.6374    2.2098    0.8292 H   0  0  0  0  0  0  0  0  0  0  0  0 
    0.9657   -2.0268    0.9443 H   0  0  0  0  0  0  0  0  0  0  0  0 
    3.6360    2.1854   -1.4526 H   0  0  0  0  0  0  0  0  0  0  0  0 
    6.7268    0.0475    0.6192 H   0  0  0  0  0  0  0  0  0  0  0  0 
    4.4439   -1.6643    0.1584 H   0  0  0  0  0  0  0  0  0  0  0  0 
    3.6638   -1.3955    1.7919 H   0  0  0  0  0  0  0  0  0  0  0  0 
    2.7199   -0.2790   -0.9433 H   0  0  0  0  0  0  0  0  0  0  0  0 
    3.9297    1.0512    1.5652 H   0  0  0  0  0  0  0  0  0  0  0  0 
  1 16  1  0  0  0  0 
  2  6  1  0  0  0  0 
  3 18  1  0  0  0  0 
  3  1  2  0  0  0  0 
  4 19  1  0  0  0  0 
  4  1  1  0  0  0  0 
  5  2  2  0  0  0  0 
  5  9  1  0  0  0  0 
  6 21  1  0  0  0  0 
  6 10  2  0  0  0  0 
  7  3  1  0  0  0  0 
  8  4  2  0  0  0  0 
  9 13  2  0  0  0  0 
 10 25  1  0  0  0  0 
 11 27  1  0  0  0  0 
 12  7  2  0  0  0  0 
 12  8  1  0  0  0  0 
 13 10  1  0  0  0  0 
 13 15  1  0  0  0  0 
 14 28  1  6  0  0  0 
 14 15  1  0  0  0  0 
 14 11  1  0  0  0  0 
 14 12  1  0  0  0  0 
 15 11  1  0  0  0  0 
 15 29  1  1  0  0  0 
 17  2  1  0  0  0  0 
 20  5  1  0  0  0  0 
 22  7  1  0  0  0  0 
 23  8  1  0  0  0  0 
 24  9  1  0  0  0  0 
 26 11  1  0  0  0  0 
M  END 
>  <HBA> 
0 
 
>  <HBD> 
0 
 
>  <TPSA> 
0.0 
 
>  <cid> 
70824 
 
>  <dipole> 
0.14 
 
>  <excitation_energy_1> 
5.242 
 
>  <excitation_energy_2> 
5.247 
 
>  <excitation_energy_3> 
5.599 
 
>  <excitation_energy_4> 
5.655 
 
>  <homo_energy> 
-6.302 
 
>  <homo_lumo_gap> 
6.267 
 
>  <logP> 
3.958 
 
>  <lumo_energy> 
-0.035 
 
>  <melting_point> 
58.79 
 
>  <molecular_refractivity> 
63.4 
 
>  <oscillator_strength_1> 
0.0006 
 
>  <oscillator_strength_2> 
0.0045 
 
>  <oscillator_strength_3> 
0.1693 
 
>  <oscillator_strength_4> 
0.0076 
 
>  <open_babel_can_smiles> 
C1[C@H]([C@@H]1c1ccccc1)c1ccccc1 
 
>  <mulliken_charges> 
29 
1   -0.129201 
2   -0.129168 
3   -0.130007 
4   -0.13065 
5   -0.13011 
6   -0.130603 
7   -0.17873 
8   -0.173733 
9   -0.178498 
10   -0.173814 
11   -0.31122 
12   0.148182 
13   0.147926 
14   -0.203062 
15   -0.203223 
16   0.127506 
17   0.127526 
18   0.128146 
19   0.128046 
20   0.128173 
21   0.128032 
22   0.128137 
23   0.126914 
24   0.12817 
25   0.12693 
26   0.152731 
27   0.152754 
28   0.161407 
29   0.161439 
 
>  <lowdin_charges> 
29 
1   -0.158571 
2   -0.161591 
3   -0.155863 
4   -0.157646 
5   -0.15651 
6   -0.155015 
7   -0.165865 
8   -0.161094 
9   -0.163233 
10   -0.161936 
11   -0.311947 
12   -0.002127 
13   -0.003267 
14   -0.150785 
15   -0.151355 
16   0.15619 
17   0.158042 
18   0.156022 
19   0.157594 
20   0.157452 
21   0.155325 
22   0.157465 
23   0.156636 
24   0.155191 
25   0.158023 
26   0.162398 
27   0.160446 
28   0.161976 
29   0.164047 
 
$$$$ 
 
