PCCDB-ID:  16951 
public computational chemistry database (PCCDB) project, http://pccdb.org 
 
 39 38  0  0  0  0  0  0  0  0999 V2000 
    4.4005    2.3565    1.2870 C   0  0  0  0  0  0  0  0  0  0  0  0 
    4.3689    0.9130    1.7999 C   0  0  0  0  0  0  0  0  0  0  0  0 
    4.8854   -0.1055    0.7752 C   0  0  0  0  0  0  0  0  0  0  0  0 
    4.8463   -1.5531    1.2859 C   0  0  0  0  0  0  0  0  0  0  0  0 
    5.2860   -2.6110    0.2595 C   0  0  0  0  0  0  0  0  0  0  0  0 
    6.7721   -2.5591   -0.1229 C   0  0  0  0  0  0  0  0  0  0  0  0 
    7.1813   -3.6658   -1.1038 C   0  0  0  0  0  0  0  0  0  0  0  0 
    8.6652   -3.6242   -1.4905 C   0  0  0  0  0  0  0  0  0  0  0  0 
    9.0679   -4.7271   -2.4783 C   0  0  0  0  0  0  0  0  0  0  0  0 
   10.5533   -4.6778   -2.8624 C   0  0  0  0  0  0  0  0  0  0  0  0 
   10.9254   -5.7800   -3.8464 C   0  0  0  0  0  0  0  0  0  0  0  0 
   13.2210   -6.2503   -3.4441 C   0  0  0  0  0  0  0  0  0  0  0  0 
   12.9919   -6.8516   -2.4269 O   0  0  0  0  0  0  0  0  0  0  0  0 
   14.4615   -6.0584   -3.9314 O   0  0  0  0  0  0  0  0  0  0  0  0 
   12.3097   -5.6778   -4.2660 O   0  0  0  0  0  0  0  0  0  0  0  0 
    4.0258    3.0582    2.0410 H   0  0  0  0  0  0  0  0  0  0  0  0 
    3.7815    2.4711    0.3885 H   0  0  0  0  0  0  0  0  0  0  0  0 
    5.4211    2.6623    1.0255 H   0  0  0  0  0  0  0  0  0  0  0  0 
    3.3407    0.6487    2.0856 H   0  0  0  0  0  0  0  0  0  0  0  0 
    4.9677    0.8377    2.7187 H   0  0  0  0  0  0  0  0  0  0  0  0 
    5.9113    0.1651    0.4889 H   0  0  0  0  0  0  0  0  0  0  0  0 
    4.2836   -0.0312   -0.1435 H   0  0  0  0  0  0  0  0  0  0  0  0 
    3.8213   -1.7832    1.6099 H   0  0  0  0  0  0  0  0  0  0  0  0 
    5.4743   -1.6380    2.1855 H   0  0  0  0  0  0  0  0  0  0  0  0 
    4.6739   -2.5084   -0.6492 H   0  0  0  0  0  0  0  0  0  0  0  0 
    5.0626   -3.6086    0.6639 H   0  0  0  0  0  0  0  0  0  0  0  0 
    7.3816   -2.6393    0.7899 H   0  0  0  0  0  0  0  0  0  0  0  0 
    7.0126   -1.5822   -0.5645 H   0  0  0  0  0  0  0  0  0  0  0  0 
    6.5666   -3.5900   -2.0132 H   0  0  0  0  0  0  0  0  0  0  0  0 
    6.9492   -4.6462   -0.6621 H   0  0  0  0  0  0  0  0  0  0  0  0 
    9.2809   -3.7091   -0.5833 H   0  0  0  0  0  0  0  0  0  0  0  0 
    8.9006   -2.6425   -1.9274 H   0  0  0  0  0  0  0  0  0  0  0  0 
    8.4503   -4.6445   -3.3851 H   0  0  0  0  0  0  0  0  0  0  0  0 
    8.8376   -5.7085   -2.0390 H   0  0  0  0  0  0  0  0  0  0  0  0 
   11.1741   -4.7853   -1.9649 H   0  0  0  0  0  0  0  0  0  0  0  0 
   10.7934   -3.7041   -3.3100 H   0  0  0  0  0  0  0  0  0  0  0  0 
   10.3559   -5.6979   -4.7761 H   0  0  0  0  0  0  0  0  0  0  0  0 
   10.7684   -6.7705   -3.4113 H   0  0  0  0  0  0  0  0  0  0  0  0 
   14.3883   -5.5532   -4.7595 H   0  0  0  0  0  0  0  0  0  0  0  0 
  1  2  1  0  0  0  0 
  1 16  1  0  0  0  0 
  2 19  1  0  0  0  0 
  2 20  1  0  0  0  0 
  3  4  1  0  0  0  0 
  3  2  1  0  0  0  0 
  4 23  1  0  0  0  0 
  4 24  1  0  0  0  0 
  5 26  1  0  0  0  0 
  5  4  1  0  0  0  0 
  6  5  1  0  0  0  0 
  6 27  1  0  0  0  0 
  7 30  1  0  0  0  0 
  7  6  1  0  0  0  0 
  8  7  1  0  0  0  0 
  8 31  1  0  0  0  0 
  9 34  1  0  0  0  0 
  9  8  1  0  0  0  0 
 10  9  1  0  0  0  0 
 10 35  1  0  0  0  0 
 11 38  1  0  0  0  0 
 11 10  1  0  0  0  0 
 12 13  2  0  0  0  0 
 14 12  1  0  0  0  0 
 15 11  1  0  0  0  0 
 15 12  1  0  0  0  0 
 17  1  1  0  0  0  0 
 18  1  1  0  0  0  0 
 21  3  1  0  0  0  0 
 22  3  1  0  0  0  0 
 25  5  1  0  0  0  0 
 28  6  1  0  0  0  0 
 29  7  1  0  0  0  0 
 32  8  1  0  0  0  0 
 33  9  1  0  0  0  0 
 36 10  1  0  0  0  0 
 37 11  1  0  0  0  0 
 39 14  1  0  0  0  0 
M  END 
>  <HBA> 
3 
 
>  <HBD> 
1 
 
>  <TPSA> 
46.53 
 
>  <cid> 
16951 
 
>  <dipole> 
3.49 
 
>  <excitation_energy_1> 
6.973 
 
>  <excitation_energy_2> 
7.282 
 
>  <excitation_energy_3> 
7.491 
 
>  <excitation_energy_4> 
7.786 
 
>  <homo_energy> 
-7.842 
 
>  <homo_lumo_gap> 
9.012 
 
>  <logP> 
4.212 
 
>  <lumo_energy> 
1.17 
 
>  <melting_point> 
48.0 
 
>  <molecular_refractivity> 
63.04 
 
>  <oscillator_strength_1> 
0.0001 
 
>  <oscillator_strength_2> 
0.0179 
 
>  <oscillator_strength_3> 
0.0132 
 
>  <oscillator_strength_4> 
0.0076 
 
>  <open_babel_can_smiles> 
CCCCCCCCCCCOC(=O)O 
 
>  <mulliken_charges> 
39 
1   -0.441611 
2   -0.24649 
3   -0.247319 
4   -0.254462 
5   -0.254929 
6   -0.254795 
7   -0.254088 
8   -0.253354 
9   -0.265895 
10   -0.280285 
11   -0.042464 
12   0.773249 
13   -0.465679 
14   -0.571734 
15   -0.488206 
16   0.1416 
17   0.140677 
18   0.140645 
19   0.129806 
20   0.130413 
21   0.131161 
22   0.124723 
23   0.127003 
24   0.126516 
25   0.125633 
26   0.127303 
27   0.127932 
28   0.132462 
29   0.127041 
30   0.129411 
31   0.134721 
32   0.128973 
33   0.129424 
34   0.139246 
35   0.164906 
36   0.141256 
37   0.152406 
38   0.173747 
39   0.421057 
 
>  <lowdin_charges> 
39 
1   -0.445167 
2   -0.270861 
3   -0.276161 
4   -0.274551 
5   -0.274668 
6   -0.276437 
7   -0.273728 
8   -0.27262 
9   -0.273373 
10   -0.288214 
11   -0.12474 
12   0.229208 
13   -0.265016 
14   -0.340912 
15   -0.218375 
16   0.150199 
17   0.146087 
18   0.145062 
19   0.137482 
20   0.138945 
21   0.137334 
22   0.136304 
23   0.1394 
24   0.137698 
25   0.137208 
26   0.139681 
27   0.138187 
28   0.138697 
29   0.137685 
30   0.138158 
31   0.141748 
32   0.138131 
33   0.138559 
34   0.142865 
35   0.158265 
36   0.145652 
37   0.15288 
38   0.160049 
39   0.369338 
 
$$$$ 
 
