PCCDB-ID:  12377 
public computational chemistry database (PCCDB) project, http://pccdb.org 
 
 22 21  0  0  0  0  0  0  0  0999 V2000 
    1.0311   -2.0078   -1.9095 C   0  0  0  0  0  0  0  0  0  0  0  0 
    6.6385    3.5640   -3.6606 C   0  0  0  0  0  0  0  0  0  0  0  0 
    2.4990   -1.5638   -1.9304 C   0  0  0  0  0  0  0  0  0  0  0  0 
    5.1825    3.4886   -3.1942 C   0  0  0  0  0  0  0  0  0  0  0  0 
    2.6748   -0.1350   -1.4178 C   0  0  0  0  0  0  0  0  0  0  0  0 
    4.3722    2.3625   -3.8406 C   0  0  0  0  0  0  0  0  0  0  0  0 
    4.4216    0.4684   -1.3932 S   0  0  0  0  0  0  0  0  0  0  0  0 
    4.9146    0.6442   -3.4115 S   0  0  0  0  0  0  0  0  0  0  0  0 
    0.9275   -3.0316   -2.2860 H   0  0  0  0  0  0  0  0  0  0  0  0 
    0.4084   -1.3585   -2.5371 H   0  0  0  0  0  0  0  0  0  0  0  0 
    0.6186   -1.9835   -0.8934 H   0  0  0  0  0  0  0  0  0  0  0  0 
    7.1610    4.3945   -3.1732 H   0  0  0  0  0  0  0  0  0  0  0  0 
    6.6997    3.7213   -4.7448 H   0  0  0  0  0  0  0  0  0  0  0  0 
    7.1783    2.6411   -3.4251 H   0  0  0  0  0  0  0  0  0  0  0  0 
    2.8909   -1.6251   -2.9528 H   0  0  0  0  0  0  0  0  0  0  0  0 
    3.1066   -2.2416   -1.3184 H   0  0  0  0  0  0  0  0  0  0  0  0 
    4.6720    4.4347   -3.4252 H   0  0  0  0  0  0  0  0  0  0  0  0 
    5.1390    3.3753   -2.1037 H   0  0  0  0  0  0  0  0  0  0  0  0 
    2.3633   -0.0524   -0.3680 H   0  0  0  0  0  0  0  0  0  0  0  0 
    2.0662    0.5721   -1.9922 H   0  0  0  0  0  0  0  0  0  0  0  0 
    4.4639    2.3904   -4.9346 H   0  0  0  0  0  0  0  0  0  0  0  0 
    3.3083    2.4531   -3.5997 H   0  0  0  0  0  0  0  0  0  0  0  0 
  1 11  1  0  0  0  0 
  2 14  1  0  0  0  0 
  2  4  1  0  0  0  0 
  2 12  1  0  0  0  0 
  3  1  1  0  0  0  0 
  3  5  1  0  0  0  0 
  3 16  1  0  0  0  0 
  4 18  1  0  0  0  0 
  5  7  1  0  0  0  0 
  5 19  1  0  0  0  0 
  6 22  1  0  0  0  0 
  6  8  1  0  0  0  0 
  6  4  1  0  0  0  0 
  8  7  1  0  0  0  0 
  9  1  1  0  0  0  0 
 10  1  1  0  0  0  0 
 13  2  1  0  0  0  0 
 15  3  1  0  0  0  0 
 17  4  1  0  0  0  0 
 20  5  1  0  0  0  0 
 21  6  1  0  0  0  0 
M  END 
>  <HBA> 
2 
 
>  <HBD> 
0 
 
>  <TPSA> 
50.6 
 
>  <cid> 
12377 
 
>  <dipole> 
2.17 
 
>  <excitation_energy_1> 
4.552 
 
>  <excitation_energy_2> 
4.657 
 
>  <excitation_energy_3> 
5.694 
 
>  <excitation_energy_4> 
5.801 
 
>  <homo_energy> 
-6.327 
 
>  <homo_lumo_gap> 
5.831 
 
>  <logP> 
3.188 
 
>  <lumo_energy> 
-0.495 
 
>  <melting_point> 
-8.62 
 
>  <molecular_refractivity> 
46.14 
 
>  <oscillator_strength_1> 
0.01 
 
>  <oscillator_strength_2> 
0.0021 
 
>  <oscillator_strength_3> 
0.0019 
 
>  <oscillator_strength_4> 
0.0226 
 
>  <open_babel_can_smiles> 
CCCSSCCC 
 
>  <mulliken_charges> 
22 
1   -0.446335 
2   -0.445277 
3   -0.245936 
4   -0.249055 
5   -0.416449 
6   -0.415982 
7   0.007298 
8   0.003581 
9   0.151878 
10   0.14452 
11   0.144123 
12   0.145723 
13   0.138509 
14   0.17042 
15   0.164159 
16   0.15059 
17   0.139407 
18   0.164937 
19   0.174533 
20   0.171748 
21   0.173913 
22   0.173694 
 
>  <lowdin_charges> 
22 
1   -0.445054 
2   -0.447207 
3   -0.279101 
4   -0.276291 
5   -0.380841 
6   -0.376765 
7   0.024267 
8   0.020381 
9   0.154046 
10   0.149309 
11   0.146651 
12   0.153063 
13   0.1434 
14   0.160681 
15   0.154963 
16   0.152111 
17   0.146543 
18   0.153809 
19   0.165356 
20   0.158338 
21   0.164364 
22   0.157978 
 
$$$$ 
 
