PCCDB-ID:  25305 
public computational chemistry database (PCCDB) project, http://pccdb.org 
 
 24 23  0  0  0  0  0  0  0  0999 V2000 
    0.6623   -0.2459   -1.5251 C   0  0  0  0  0  0  0  0  0  0  0  0 
    2.5877   -1.8250   -1.1960 C   0  0  0  0  0  0  0  0  0  0  0  0 
    1.6786   -0.5290    3.6319 C   0  0  0  0  0  0  0  0  0  0  0  0 
    5.7366    1.8872   -0.0266 C   0  0  0  0  0  0  0  0  0  0  0  0 
    1.8139   -0.5611   -0.9273 C   0  0  0  0  0  0  0  0  0  0  0  0 
    1.4181    0.0921    2.2817 C   0  0  0  0  0  0  0  0  0  0  0  0 
    4.3001    1.7298    0.4061 C   0  0  0  0  0  0  0  0  0  0  0  0 
    2.3722    0.3768    0.1115 C   0  0  0  0  0  0  0  0  0  0  0  0 
    0.4812    0.7999    1.9975 O   0  0  0  0  0  0  0  0  0  0  0  0 
    3.7116    2.4367    1.1884 O   0  0  0  0  0  0  0  0  0  0  0  0 
    2.4036   -0.2572    1.4036 O   0  0  0  0  0  0  0  0  0  0  0  0 
    3.7315    0.6536   -0.2178 O   0  0  0  0  0  0  0  0  0  0  0  0 
    0.2087   -0.9017   -2.2638 H   0  0  0  0  0  0  0  0  0  0  0  0 
    0.1266    0.6690   -1.2881 H   0  0  0  0  0  0  0  0  0  0  0  0 
    2.0678   -2.4576   -1.9211 H   0  0  0  0  0  0  0  0  0  0  0  0 
    2.7281   -2.3986   -0.2718 H   0  0  0  0  0  0  0  0  0  0  0  0 
    3.5871   -1.5977   -1.5845 H   0  0  0  0  0  0  0  0  0  0  0  0 
    0.8193   -0.3583    4.2812 H   0  0  0  0  0  0  0  0  0  0  0  0 
    2.5705   -0.0737    4.0762 H   0  0  0  0  0  0  0  0  0  0  0  0 
    1.8710   -1.6014    3.5310 H   0  0  0  0  0  0  0  0  0  0  0  0 
    6.1602    2.7773    0.4393 H   0  0  0  0  0  0  0  0  0  0  0  0 
    5.7973    1.9676   -1.1167 H   0  0  0  0  0  0  0  0  0  0  0  0 
    6.3127    1.0037    0.2684 H   0  0  0  0  0  0  0  0  0  0  0  0 
    1.8039    1.3018    0.1932 H   0  0  0  0  0  0  0  0  0  0  0  0 
  1 14  1  0  0  0  0 
  1  5  2  0  0  0  0 
  2  5  1  0  0  0  0 
  2 16  1  0  0  0  0 
  3 19  1  0  0  0  0 
  3 18  1  0  0  0  0 
  4 23  1  0  0  0  0 
  4  7  1  0  0  0  0 
  4 21  1  0  0  0  0 
  5  8  1  0  0  0  0 
  6  3  1  0  0  0  0 
  7 10  2  0  0  0  0 
  8 24  1  0  0  0  0 
  8 11  1  0  0  0  0 
  9  6  2  0  0  0  0 
 11  6  1  0  0  0  0 
 12  8  1  0  0  0  0 
 12  7  1  0  0  0  0 
 13  1  1  0  0  0  0 
 15  2  1  0  0  0  0 
 17  2  1  0  0  0  0 
 20  3  1  0  0  0  0 
 22  4  1  0  0  0  0 
M  END 
>  <HBA> 
4 
 
>  <HBD> 
0 
 
>  <TPSA> 
52.6 
 
>  <cid> 
25305 
 
>  <dipole> 
3.21 
 
>  <excitation_energy_1> 
5.712 
 
>  <excitation_energy_2> 
5.778 
 
>  <excitation_energy_3> 
6.316 
 
>  <excitation_energy_4> 
6.474 
 
>  <homo_energy> 
-7.135 
 
>  <homo_lumo_gap> 
7.015 
 
>  <logP> 
1.015 
 
>  <lumo_energy> 
-0.12 
 
>  <melting_point> 
-20.19 
 
>  <molecular_refractivity> 
42.67 
 
>  <oscillator_strength_1> 
0.0008 
 
>  <oscillator_strength_2> 
0.0007 
 
>  <oscillator_strength_3> 
0.0448 
 
>  <oscillator_strength_4> 
0.0122 
 
>  <open_babel_can_smiles> 
CC(=C)C(OC(=O)C)OC(=O)C 
 
>  <mulliken_charges> 
24 
1   -0.387422 
2   -0.512868 
3   -0.527343 
4   -0.527706 
5   0.197025 
6   0.619414 
7   0.612726 
8   0.282502 
9   -0.455232 
10   -0.45183 
11   -0.475358 
12   -0.476315 
13   0.14348 
14   0.161312 
15   0.154401 
16   0.167465 
17   0.17106 
18   0.184434 
19   0.190815 
20   0.179355 
21   0.186347 
22   0.185484 
23   0.186865 
24   0.191386 
 
>  <lowdin_charges> 
24 
1   -0.329462 
2   -0.442945 
3   -0.462946 
4   -0.463508 
5   -0.010787 
6   0.211442 
7   0.21056 
8   0.111808 
9   -0.250446 
10   -0.24704 
11   -0.200589 
12   -0.191415 
13   0.161902 
14   0.16854 
15   0.160049 
16   0.16417 
17   0.164781 
18   0.177505 
19   0.183415 
20   0.174771 
21   0.178526 
22   0.178072 
23   0.181426 
24   0.172171 
 
$$$$ 
 
