PCCDB-ID:  28622 
public computational chemistry database (PCCDB) project, http://pccdb.org 
 
 28 28  0  0  1  0  0  0  0  0999 V2000 
    0.9592    0.0377   -0.4916 C   0  0  0  0  0  0  0  0  0  0  0  0 
    3.4350    2.6720    5.8185 C   0  0  0  0  0  0  0  0  0  0  0  0 
    2.2257    2.0308    5.5449 C   0  0  0  0  0  0  0  0  0  0  0  0 
    4.2638    3.0561    4.7627 C   0  0  0  0  0  0  0  0  0  0  0  0 
    1.8512    1.7764    4.2250 C   0  0  0  0  0  0  0  0  0  0  0  0 
    3.8843    2.7981    3.4447 C   0  0  0  0  0  0  0  0  0  0  0  0 
    2.7910    0.4633    1.2617 C   0  0  0  0  0  0  0  0  0  0  0  0 
    2.2775    1.8411    1.7270 C   0  0  0  0  0  0  0  0  0  0  0  0 
    2.4655    0.1213   -0.2015 C   0  0  1  0  0  0  0  0  0  0  0  0 
    2.6737    2.1542    3.1551 C   0  0  0  0  0  0  0  0  0  0  0  0 
    3.0100   -1.4353   -1.9627 N   0  0  0  0  0  0  0  0  0  0  0  0 
    3.2091   -1.1142   -0.5290 N   0  0  0  0  0  0  0  0  0  0  0  0 
    0.4715    1.0146   -0.4031 H   0  0  0  0  0  0  0  0  0  0  0  0 
    0.4694   -0.6472    0.2146 H   0  0  0  0  0  0  0  0  0  0  0  0 
    0.7958   -0.3417   -1.5037 H   0  0  0  0  0  0  0  0  0  0  0  0 
    3.7268    2.8751    6.8455 H   0  0  0  0  0  0  0  0  0  0  0  0 
    1.5705    1.7322    6.3594 H   0  0  0  0  0  0  0  0  0  0  0  0 
    5.2052    3.5607    4.9649 H   0  0  0  0  0  0  0  0  0  0  0  0 
    0.9036    1.2821    4.0195 H   0  0  0  0  0  0  0  0  0  0  0  0 
    4.5335    3.1041    2.6268 H   0  0  0  0  0  0  0  0  0  0  0  0 
    2.3697   -0.3141    1.9168 H   0  0  0  0  0  0  0  0  0  0  0  0 
    3.8788    0.4186    1.3889 H   0  0  0  0  0  0  0  0  0  0  0  0 
    1.1855    1.8805    1.6368 H   0  0  0  0  0  0  0  0  0  0  0  0 
    2.6754    2.6145    1.0559 H   0  0  0  0  0  0  0  0  0  0  0  0 
    2.9024    0.9083   -0.8366 H   0  0  0  0  0  0  0  0  0  0  0  0 
    3.5739   -2.2790   -2.0946 H   0  0  0  0  0  0  0  0  0  0  0  0 
    3.5638   -0.7188   -2.4413 H   0  0  0  0  0  0  0  0  0  0  0  0 
    2.7157   -1.8736   -0.0514 H   0  0  0  0  0  0  0  0  0  0  0  0 
  1 13  1  0  0  0  0 
  1  9  1  0  0  0  0 
  1 14  1  0  0  0  0 
  2 16  1  0  0  0  0 
  3  2  1  0  0  0  0 
  3 17  1  0  0  0  0 
  4 18  1  0  0  0  0 
  4  2  2  0  0  0  0 
  5  3  2  0  0  0  0 
  6  4  1  0  0  0  0 
  7 22  1  0  0  0  0 
  7  8  1  0  0  0  0 
  7 21  1  0  0  0  0 
  8 10  1  0  0  0  0 
  9 25  1  6  0  0  0 
  9  7  1  0  0  0  0 
 10  6  2  0  0  0  0 
 10  5  1  0  0  0  0 
 11 12  1  0  0  0  0 
 12  9  1  0  0  0  0 
 12 28  1  0  0  0  0 
 15  1  1  0  0  0  0 
 19  5  1  0  0  0  0 
 20  6  1  0  0  0  0 
 23  8  1  0  0  0  0 
 24  8  1  0  0  0  0 
 26 11  1  0  0  0  0 
 27 11  1  0  0  0  0 
M  END 
>  <HBA> 
2 
 
>  <HBD> 
2 
 
>  <TPSA> 
38.05 
 
>  <cid> 
28622 
 
>  <dipole> 
0.49 
 
>  <excitation_energy_1> 
4.684 
 
>  <excitation_energy_2> 
4.849 
 
>  <excitation_energy_3> 
4.886 
 
>  <excitation_energy_4> 
5.237 
 
>  <homo_energy> 
-5.257 
 
>  <homo_lumo_gap> 
5.396 
 
>  <logP> 
2.562 
 
>  <lumo_energy> 
0.139 
 
>  <melting_point> 
86.59 
 
>  <molecular_refractivity> 
51.34 
 
>  <oscillator_strength_1> 
0.0006 
 
>  <oscillator_strength_2> 
0.0036 
 
>  <oscillator_strength_3> 
0.0002 
 
>  <oscillator_strength_4> 
0.0095 
 
>  <open_babel_can_smiles> 
NN[C@H](CCc1ccccc1)C 
 
>  <mulliken_charges> 
28 
1   -0.4579 
2   -0.131713 
3   -0.128107 
4   -0.1282 
5   -0.179804 
6   -0.179038 
7   -0.250167 
8   -0.356515 
9   0.04196 
10   0.172425 
11   -0.59348 
12   -0.469569 
13   0.140775 
14   0.12829 
15   0.178403 
16   0.126353 
17   0.126715 
18   0.12696 
19   0.120473 
20   0.121375 
21   0.127309 
22   0.152029 
23   0.145959 
24   0.138757 
25   0.11973 
26   0.304691 
27   0.303896 
28   0.29839 
 
>  <lowdin_charges> 
28 
1   -0.467577 
2   -0.161679 
3   -0.157212 
4   -0.154467 
5   -0.167364 
6   -0.169273 
7   -0.275272 
8   -0.27275 
9   -0.070583 
10   0.001372 
11   -0.497679 
12   -0.321015 
13   0.148658 
14   0.142941 
15   0.166255 
16   0.155274 
17   0.157191 
18   0.156045 
19   0.152751 
20   0.154642 
21   0.140407 
22   0.151424 
23   0.147735 
24   0.147994 
25   0.133303 
26   0.25544 
27   0.253458 
28   0.249982 
 
$$$$ 
 
