PCCDB-ID:  70125 
public computational chemistry database (PCCDB) project, http://pccdb.org 
 
 23 23  0  0  0  0  0  0  0  0999 V2000 
   -1.6246    0.7002    0.3300 C   0  0  0  0  0  0  0  0  0  0  0  0 
   -0.5231    1.5480   -0.3269 C   0  0  0  0  0  0  0  0  0  0  0  0 
   -1.5034   -0.8163    0.1219 C   0  0  0  0  0  0  0  0  0  0  0  0 
    0.8832    1.2981    0.2516 C   0  0  0  0  0  0  0  0  0  0  0  0 
   -0.1280   -1.3993    0.4918 C   0  0  0  0  0  0  0  0  0  0  0  0 
    1.6673    0.1453   -0.3869 C   0  0  0  0  0  0  0  0  0  0  0  0 
    1.3291   -2.0231   -1.4335 C   0  0  0  0  0  0  0  0  0  0  0  0 
    0.9160   -1.1239   -0.5073 N   0  0  0  0  0  0  0  0  0  0  0  0 
    2.7281   -1.9024   -2.3399 S   0  0  0  0  0  0  0  0  0  0  0  0 
    0.3738   -3.5087   -1.7577 S   0  0  0  0  0  0  0  0  0  0  0  0 
   -2.6039    1.0264   -0.0427 H   0  0  0  0  0  0  0  0  0  0  0  0 
   -1.6243    0.9102    1.4098 H   0  0  0  0  0  0  0  0  0  0  0  0 
   -0.7791    2.6047   -0.1812 H   0  0  0  0  0  0  0  0  0  0  0  0 
   -0.5122    1.3826   -1.4134 H   0  0  0  0  0  0  0  0  0  0  0  0 
   -1.7205   -1.0671   -0.9248 H   0  0  0  0  0  0  0  0  0  0  0  0 
   -2.2659   -1.3210    0.7303 H   0  0  0  0  0  0  0  0  0  0  0  0 
    0.8141    1.1762    1.3407 H   0  0  0  0  0  0  0  0  0  0  0  0 
    1.5065    2.1878    0.0972 H   0  0  0  0  0  0  0  0  0  0  0  0 
   -0.1864   -2.4796    0.6335 H   0  0  0  0  0  0  0  0  0  0  0  0 
    0.2125   -0.9891    1.4487 H   0  0  0  0  0  0  0  0  0  0  0  0 
    2.5970   -0.0386    0.1680 H   0  0  0  0  0  0  0  0  0  0  0  0 
    1.9668    0.4246   -1.3994 H   0  0  0  0  0  0  0  0  0  0  0  0 
   -0.8330   -3.1839   -1.2347 H   0  0  0  0  0  0  0  0  0  0  0  0 
  1 12  1  0  0  0  0 
  2 13  1  0  0  0  0 
  2  4  1  0  0  0  0 
  2  1  1  0  0  0  0 
  3  1  1  0  0  0  0 
  3  5  1  0  0  0  0 
  3 16  1  0  0  0  0 
  4 17  1  0  0  0  0 
  5 19  1  0  0  0  0 
  5 20  1  0  0  0  0 
  6 21  1  0  0  0  0 
  6  4  1  0  0  0  0 
  7  8  1  0  0  0  0 
  8  6  1  0  0  0  0 
  8  5  1  0  0  0  0 
  9  7  2  0  0  0  0 
 10  7  1  0  0  0  0 
 10 23  1  0  0  0  0 
 11  1  1  0  0  0  0 
 14  2  1  0  0  0  0 
 15  3  1  0  0  0  0 
 18  4  1  0  0  0  0 
 22  6  1  0  0  0  0 
M  END 
>  <HBA> 
3 
 
>  <HBD> 
1 
 
>  <TPSA> 
74.13 
 
>  <cid> 
70125 
 
>  <dipole> 
6.18 
 
>  <excitation_energy_1> 
3.424 
 
>  <excitation_energy_2> 
4.614 
 
>  <excitation_energy_3> 
4.968 
 
>  <excitation_energy_4> 
5.013 
 
>  <homo_energy> 
-5.587 
 
>  <homo_lumo_gap> 
4.77 
 
>  <logP> 
2.015 
 
>  <lumo_energy> 
-0.816 
 
>  <melting_point> 
48.61 
 
>  <molecular_refractivity> 
56.18 
 
>  <oscillator_strength_1> 
0.0007 
 
>  <oscillator_strength_2> 
0.0598 
 
>  <oscillator_strength_3> 
0.0923 
 
>  <oscillator_strength_4> 
0.0223 
 
>  <open_babel_can_smiles> 
SC(=S)N1CCCCCC1 
 
>  <mulliken_charges> 
23 
1   -0.265893 
2   -0.2588 
3   -0.25438 
4   -0.298691 
5   -0.192734 
6   -0.133762 
7   -0.040992 
8   -0.318653 
9   -0.217859 
10   0.050342 
11   0.143338 
12   0.135144 
13   0.143047 
14   0.146847 
15   0.148774 
16   0.14424 
17   0.140452 
18   0.156352 
19   0.171538 
20   0.165886 
21   0.171187 
22   0.193963 
23   0.070654 
 
>  <lowdin_charges> 
23 
1   -0.274423 
2   -0.276654 
3   -0.288903 
4   -0.288044 
5   -0.205604 
6   -0.196506 
7   -0.159984 
8   -0.072297 
9   -0.203021 
10   0.024229 
11   0.149983 
12   0.138422 
13   0.149721 
14   0.146165 
15   0.146999 
16   0.153363 
17   0.139601 
18   0.161274 
19   0.162516 
20   0.158208 
21   0.159697 
22   0.174717 
23   0.100541 
 
$$$$ 
 
