PCCDB-ID:  15348 
public computational chemistry database (PCCDB) project, http://pccdb.org 
 
 16 16  0  0  0  0  0  0  0  0999 V2000 
    0.8818    0.0660    0.0500 C   0  0  0  0  0  0  0  0  0  0  0  0 
    3.1085   -1.1922   -0.2031 C   0  0  0  0  0  0  0  0  0  0  0  0 
    4.4638   -1.2301   -0.3203 C   0  0  0  0  0  0  0  0  0  0  0  0 
    3.1320    1.1832   -0.0988 C   0  0  0  0  0  0  0  0  0  0  0  0 
    2.3820    0.0442   -0.0844 C   0  0  0  0  0  0  0  0  0  0  0  0 
    5.2682   -0.0158   -0.3355 C   0  0  0  0  0  0  0  0  0  0  0  0 
    6.5463    0.1366   -0.4363 N   0  0  0  0  0  0  0  0  0  0  0  0 
    4.4919    1.1475   -0.2196 N   0  0  0  0  0  0  0  0  0  0  0  0 
    0.5462   -0.4768    0.9436 H   0  0  0  0  0  0  0  0  0  0  0  0 
    0.3897   -0.4029   -0.8123 H   0  0  0  0  0  0  0  0  0  0  0  0 
    0.5042    1.0910    0.1267 H   0  0  0  0  0  0  0  0  0  0  0  0 
    2.5479   -2.1253   -0.1971 H   0  0  0  0  0  0  0  0  0  0  0  0 
    4.9907   -2.1756   -0.4086 H   0  0  0  0  0  0  0  0  0  0  0  0 
    2.6968    2.1743   -0.0169 H   0  0  0  0  0  0  0  0  0  0  0  0 
    6.9980   -0.7757   -0.5134 H   0  0  0  0  0  0  0  0  0  0  0  0 
    5.0274    2.0068   -0.2291 H   0  0  0  0  0  0  0  0  0  0  0  0 
  1 11  1  0  0  0  0 
  1  9  1  0  0  0  0 
  2 12  1  0  0  0  0 
  2  5  1  0  0  0  0 
  3  2  2  0  0  0  0 
  4  5  2  0  0  0  0 
  4 14  1  0  0  0  0 
  5  1  1  0  0  0  0 
  6  3  1  0  0  0  0 
  6  8  1  0  0  0  0 
  7  6  2  0  0  0  0 
  8  4  1  0  0  0  0 
 10  1  1  0  0  0  0 
 13  3  1  0  0  0  0 
 15  7  1  0  0  0  0 
 16  8  1  0  0  0  0 
M  END 
>  <HBA> 
2 
 
>  <HBD> 
1 
 
>  <TPSA> 
38.91 
 
>  <cid> 
15348 
 
>  <dipole> 
2.97 
 
>  <excitation_energy_1> 
3.627 
 
>  <excitation_energy_2> 
4.448 
 
>  <excitation_energy_3> 
4.933 
 
>  <excitation_energy_4> 
4.957 
 
>  <homo_energy> 
-5.015 
 
>  <homo_lumo_gap> 
4.25 
 
>  <logP> 
1.553 
 
>  <lumo_energy> 
-0.765 
 
>  <melting_point> 
72.81 
 
>  <molecular_refractivity> 
33.61 
 
>  <oscillator_strength_1> 
0.0612 
 
>  <oscillator_strength_2> 
0.0004 
 
>  <oscillator_strength_3> 
0.0011 
 
>  <oscillator_strength_4> 
0.0022 
 
>  <open_babel_can_smiles> 
Cc1ccc(=N)[nH]c1 
 
>  <mulliken_charges> 
16 
1   -0.529893 
2   -0.131387 
3   -0.197147 
4   0.050182 
5   0.116245 
6   0.490941 
7   -0.682626 
8   -0.623426 
9   0.159967 
10   0.159845 
11   0.152773 
12   0.134629 
13   0.133841 
14   0.154806 
15   0.273394 
16   0.337857 
 
>  <lowdin_charges> 
16 
1   -0.436064 
2   -0.130842 
3   -0.202276 
4   -0.086695 
5   -0.065366 
6   0.082281 
7   -0.479793 
8   -0.18814 
9   0.157564 
10   0.157834 
11   0.155698 
12   0.160804 
13   0.163614 
14   0.165142 
15   0.248909 
16   0.29733 
 
$$$$ 
 
