PCCDB-ID:  50165 
public computational chemistry database (PCCDB) project, http://pccdb.org 
 
 21 21  0  0  0  0  0  0  0  0999 V2000 
    0.9521    0.1351   -0.1499 C   0  0  0  0  0  0  0  0  0  0  0  0 
    5.3551    2.6225    0.0391 C   0  0  0  0  0  0  0  0  0  0  0  0 
    3.1870    1.3215   -0.0472 C   0  0  0  0  0  0  0  0  0  0  0  0 
    3.1597   -1.0862   -0.0698 C   0  0  0  0  0  0  0  0  0  0  0  0 
    5.2667    0.1018    0.0686 C   0  0  0  0  0  0  0  0  0  0  0  0 
    2.4628    0.1229   -0.0953 C   0  0  0  0  0  0  0  0  0  0  0  0 
    4.5833    1.3225    0.0296 C   0  0  0  0  0  0  0  0  0  0  0  0 
    4.5588   -1.1012    0.0192 C   0  0  0  0  0  0  0  0  0  0  0  0 
    5.2081   -2.3563    0.1458 N   0  0  0  0  0  0  0  0  0  0  0  0 
    6.5582   -2.3301   -0.3285 O   0  0  0  0  0  0  0  0  0  0  0  0 
    0.5758    1.0589   -0.6019 H   0  0  0  0  0  0  0  0  0  0  0  0 
    0.5168    0.0638    0.8559 H   0  0  0  0  0  0  0  0  0  0  0  0 
    0.5630   -0.7084   -0.7309 H   0  0  0  0  0  0  0  0  0  0  0  0 
    4.7181    3.4645    0.3291 H   0  0  0  0  0  0  0  0  0  0  0  0 
    5.7659    2.8484   -0.9540 H   0  0  0  0  0  0  0  0  0  0  0  0 
    6.2009    2.5823    0.7349 H   0  0  0  0  0  0  0  0  0  0  0  0 
    2.6522    2.2686   -0.0747 H   0  0  0  0  0  0  0  0  0  0  0  0 
    2.6126   -2.0271   -0.1077 H   0  0  0  0  0  0  0  0  0  0  0  0 
    6.3497    0.0771    0.1142 H   0  0  0  0  0  0  0  0  0  0  0  0 
    4.7406   -3.0627   -0.4195 H   0  0  0  0  0  0  0  0  0  0  0  0 
    7.0639   -2.5705    0.4647 H   0  0  0  0  0  0  0  0  0  0  0  0 
  1  6  1  0  0  0  0 
  1 12  1  0  0  0  0 
  2 14  1  0  0  0  0 
  2 16  1  0  0  0  0 
  3  7  2  0  0  0  0 
  4  8  1  0  0  0  0 
  5 19  1  0  0  0  0 
  6  4  2  0  0  0  0 
  6  3  1  0  0  0  0 
  7  2  1  0  0  0  0 
  7  5  1  0  0  0  0 
  8  5  2  0  0  0  0 
  8  9  1  0  0  0  0 
 10  9  1  0  0  0  0 
 10 21  1  0  0  0  0 
 11  1  1  0  0  0  0 
 13  1  1  0  0  0  0 
 15  2  1  0  0  0  0 
 17  3  1  0  0  0  0 
 18  4  1  0  0  0  0 
 20  9  1  0  0  0  0 
M  END 
>  <HBA> 
2 
 
>  <HBD> 
2 
 
>  <TPSA> 
32.26 
 
>  <cid> 
50165 
 
>  <dipole> 
0.74 
 
>  <excitation_energy_1> 
4.714 
 
>  <excitation_energy_2> 
5.021 
 
>  <excitation_energy_3> 
5.263 
 
>  <excitation_energy_4> 
5.536 
 
>  <homo_energy> 
-5.513 
 
>  <homo_lumo_gap> 
5.725 
 
>  <logP> 
2.178 
 
>  <lumo_energy> 
0.212 
 
>  <melting_point> 
102.12 
 
>  <molecular_refractivity> 
41.6 
 
>  <oscillator_strength_1> 
0.0227 
 
>  <oscillator_strength_2> 
0.0387 
 
>  <oscillator_strength_3> 
0.0376 
 
>  <oscillator_strength_4> 
0.0085 
 
>  <open_babel_can_smiles> 
ONc1cc(C)cc(c1)C 
 
>  <mulliken_charges> 
21 
1   -0.53032 
2   -0.528805 
3   -0.240691 
4   -0.242002 
5   -0.213903 
6   0.181113 
7   0.176844 
8   0.317597 
9   -0.435628 
10   -0.514644 
11   0.155433 
12   0.164313 
13   0.153655 
14   0.152824 
15   0.164302 
16   0.155566 
17   0.107252 
18   0.109094 
19   0.12372 
20   0.327967 
21   0.416311 
 
>  <lowdin_charges> 
21 
1   -0.442133 
2   -0.441709 
3   -0.201822 
4   -0.209891 
5   -0.201166 
6   0.012083 
7   0.012392 
8   0.044055 
9   -0.198677 
10   -0.406697 
11   0.157443 
12   0.160535 
13   0.157017 
14   0.156307 
15   0.160895 
16   0.157753 
17   0.149303 
18   0.149786 
19   0.158314 
20   0.271715 
21   0.354497 
 
$$$$ 
 
