PCCDB-ID:  10268 
public computational chemistry database (PCCDB) project, http://pccdb.org 
 
 12 12  0  0  0  0  0  0  0  0999 V2000 
   -1.1940   -0.0733    0.1628 C   0  0  0  0  0  0  0  0  0  0  0  0 
   -0.3513   -1.1285    0.0223 C   0  0  0  0  0  0  0  0  0  0  0  0 
    0.9030    0.6577   -0.1276 C   0  0  0  0  0  0  0  0  0  0  0  0 
   -0.3736    1.1100    0.0660 C   0  0  0  0  0  0  0  0  0  0  0  0 
   -0.7099    2.5497    0.1403 C   0  0  0  0  0  0  0  0  0  0  0  0 
    0.1159    3.4294    0.0649 O   0  0  0  0  0  0  0  0  0  0  0  0 
   -2.0252    2.8621    0.3016 O   0  0  0  0  0  0  0  0  0  0  0  0 
    0.9329   -0.6927   -0.1565 O   0  0  0  0  0  0  0  0  0  0  0  0 
   -2.2626   -0.1424    0.3207 H   0  0  0  0  0  0  0  0  0  0  0  0 
   -0.4870   -2.1988    0.0238 H   0  0  0  0  0  0  0  0  0  0  0  0 
    1.8416    1.1733   -0.2565 H   0  0  0  0  0  0  0  0  0  0  0  0 
   -2.5659    2.0568    0.3328 H   0  0  0  0  0  0  0  0  0  0  0  0 
  1  9  1  0  0  0  0 
  2 10  1  0  0  0  0 
  2  1  2  0  0  0  0 
  3  4  2  0  0  0  0 
  4  5  1  0  0  0  0 
  4  1  1  0  0  0  0 
  5  7  1  0  0  0  0 
  6  5  2  0  0  0  0 
  7 12  1  0  0  0  0 
  8  3  1  0  0  0  0 
  8  2  1  0  0  0  0 
 11  3  1  0  0  0  0 
M  END 
>  <HBA> 
3 
 
>  <HBD> 
1 
 
>  <TPSA> 
50.44 
 
>  <cid> 
10268 
 
>  <dipole> 
4.61 
 
>  <excitation_energy_1> 
5.013 
 
>  <excitation_energy_2> 
5.334 
 
>  <excitation_energy_3> 
5.924 
 
>  <excitation_energy_4> 
6.177 
 
>  <homo_energy> 
-6.895 
 
>  <homo_lumo_gap> 
5.927 
 
>  <logP> 
0.978 
 
>  <lumo_energy> 
-0.969 
 
>  <melting_point> 
93.87 
 
>  <molecular_refractivity> 
25.67 
 
>  <oscillator_strength_1> 
0.0001 
 
>  <oscillator_strength_2> 
0.056 
 
>  <oscillator_strength_3> 
0.0026 
 
>  <oscillator_strength_4> 
0.0146 
 
>  <open_babel_can_smiles> 
OC(=O)c1cocc1 
 
>  <mulliken_charges> 
12 
1   -0.228432 
2   0.082995 
3   0.092512 
4   -0.018953 
5   0.565536 
6   -0.456863 
7   -0.578364 
8   -0.387568 
9   0.147248 
10   0.173572 
11   0.195339 
12   0.412979 
 
>  <lowdin_charges> 
12 
1   -0.213274 
2   -0.067232 
3   -0.034211 
4   -0.104841 
5   0.203445 
6   -0.24766 
7   -0.356825 
8   -0.074548 
9   0.167553 
10   0.177401 
11   0.192593 
12   0.357599 
 
$$$$ 
 
