PCCDB-ID:  21120 
public computational chemistry database (PCCDB) project, http://pccdb.org 
 
 22 23  0  0  0  0  0  0  0  0999 V2000 
    3.4902    0.2658   -1.0372 C   0  0  0  0  0  0  0  0  0  0  0  0 
    2.5714   -0.2420    0.0761 C   0  0  0  0  0  0  0  0  0  0  0  0 
    4.2180   -5.7470    2.0752 C   0  0  0  0  0  0  0  0  0  0  0  0 
    3.2959   -6.1917    1.1192 C   0  0  0  0  0  0  0  0  0  0  0  0 
    4.4590   -4.3797    2.2664 C   0  0  0  0  0  0  0  0  0  0  0  0 
    2.5848   -5.2836    0.3232 C   0  0  0  0  0  0  0  0  0  0  0  0 
    3.7493   -3.4896    1.4743 C   0  0  0  0  0  0  0  0  0  0  0  0 
    2.8301   -3.9330    0.5211 C   0  0  0  0  0  0  0  0  0  0  0  0 
    3.7769   -1.9961    1.4377 C   0  0  0  0  0  0  0  0  0  0  0  0 
    2.2417   -2.7364   -0.1530 C   0  0  0  0  0  0  0  0  0  0  0  0 
    2.8500   -1.6245    0.4509 N   0  0  0  0  0  0  0  0  0  0  0  0 
    4.4408   -1.2263    2.1037 O   0  0  0  0  0  0  0  0  0  0  0  0 
    1.4090   -2.6880   -1.0369 O   0  0  0  0  0  0  0  0  0  0  0  0 
    3.2424    1.3046   -1.2822 H   0  0  0  0  0  0  0  0  0  0  0  0 
    3.3718   -0.3373   -1.9429 H   0  0  0  0  0  0  0  0  0  0  0  0 
    4.5379    0.2288   -0.7224 H   0  0  0  0  0  0  0  0  0  0  0  0 
    1.5249   -0.2044   -0.2384 H   0  0  0  0  0  0  0  0  0  0  0  0 
    2.6886    0.3614    0.9803 H   0  0  0  0  0  0  0  0  0  0  0  0 
    4.7542   -6.4751    2.6773 H   0  0  0  0  0  0  0  0  0  0  0  0 
    3.1308   -7.2581    0.9940 H   0  0  0  0  0  0  0  0  0  0  0  0 
    5.1707   -4.0240    3.0049 H   0  0  0  0  0  0  0  0  0  0  0  0 
    1.8671   -5.6172   -0.4199 H   0  0  0  0  0  0  0  0  0  0  0  0 
  1 16  1  0  0  0  0 
  1  2  1  0  0  0  0 
  2 11  1  0  0  0  0 
  2 18  1  0  0  0  0 
  3  5  1  0  0  0  0 
  3 19  1  0  0  0  0 
  4  3  2  0  0  0  0 
  5 21  1  0  0  0  0 
  6  8  2  0  0  0  0 
  6  4  1  0  0  0  0 
  7  5  2  0  0  0  0 
  8  7  1  0  0  0  0 
  9  7  1  0  0  0  0 
  9 12  2  0  0  0  0 
 10 11  1  0  0  0  0 
 10  8  1  0  0  0  0 
 11  9  1  0  0  0  0 
 13 10  2  0  0  0  0 
 14  1  1  0  0  0  0 
 15  1  1  0  0  0  0 
 17  2  1  0  0  0  0 
 20  4  1  0  0  0  0 
 22  6  1  0  0  0  0 
M  END 
>  <HBA> 
3 
 
>  <HBD> 
0 
 
>  <TPSA> 
37.38 
 
>  <cid> 
21120 
 
>  <dipole> 
2.22 
 
>  <excitation_energy_1> 
3.809 
 
>  <excitation_energy_2> 
4.102 
 
>  <excitation_energy_3> 
4.378 
 
>  <excitation_energy_4> 
4.545 
 
>  <homo_energy> 
-7.195 
 
>  <homo_lumo_gap> 
5.026 
 
>  <logP> 
1.24 
 
>  <lumo_energy> 
-2.169 
 
>  <melting_point> 
99.32 
 
>  <molecular_refractivity> 
51.53 
 
>  <oscillator_strength_1> 
0.0001 
 
>  <oscillator_strength_2> 
0.0002 
 
>  <oscillator_strength_3> 
0.0001 
 
>  <oscillator_strength_4> 
0.0424 
 
>  <open_babel_can_smiles> 
CCN1C(=O)c2c(C1=O)cccc2 
 
>  <mulliken_charges> 
22 
1   -0.449674 
2   -0.144267 
3   -0.128665 
4   -0.128984 
5   -0.181165 
6   -0.181187 
7   0.045949 
8   0.04591 
9   0.574326 
10   0.574481 
11   -0.522517 
12   -0.483674 
13   -0.48372 
14   0.153212 
15   0.165839 
16   0.166163 
17   0.176166 
18   0.175937 
19   0.147514 
20   0.147565 
21   0.165386 
22   0.165407 
 
>  <lowdin_charges> 
22 
1   -0.447039 
2   -0.189555 
3   -0.141087 
4   -0.138101 
5   -0.13021 
6   -0.129614 
7   -0.03694 
8   -0.036595 
9   0.172213 
10   0.167762 
11   -0.090033 
12   -0.250195 
13   -0.248259 
14   0.157022 
15   0.159787 
16   0.1585 
17   0.165642 
18   0.167262 
19   0.168092 
20   0.164992 
21   0.178198 
22   0.178157 
 
$$$$ 
 
