PCCDB-ID:  41989 
public computational chemistry database (PCCDB) project, http://pccdb.org 
 
 21 21  0  0  1  0  0  0  0  0999 V2000 
    3.3366    1.1478   -0.2236 C   0  0  0  0  0  0  0  0  0  0  0  0 
    1.0266    0.1487   -0.4933 C   0  0  0  0  0  0  0  0  0  0  0  0 
    2.4218   -0.0356    0.1213 C   0  0  0  0  0  0  0  0  0  0  0  0 
    3.0726   -1.3679   -0.3340 C   0  0  2  0  0  0  0  0  0  0  0  0 
    2.2922   -2.6199    0.1138 C   0  0  0  0  0  0  0  0  0  0  0  0 
    4.4354   -2.6186    0.8703 C   0  0  0  0  0  0  0  0  0  0  0  0 
    4.4415   -1.5341    0.1979 N   0  0  0  0  0  0  0  0  0  0  0  0 
    3.2061   -3.2738    0.9501 N   0  0  0  0  0  0  0  0  0  0  0  0 
    1.1690   -2.9976   -0.1323 O   0  0  0  0  0  0  0  0  0  0  0  0 
    5.4569   -3.1681    1.5313 O   0  0  0  0  0  0  0  0  0  0  0  0 
    3.0810   -4.6017    1.3173 O   0  0  0  0  0  0  0  0  0  0  0  0 
    2.8938    2.0852    0.1324 H   0  0  0  0  0  0  0  0  0  0  0  0 
    3.4673    1.2332   -1.3103 H   0  0  0  0  0  0  0  0  0  0  0  0 
    4.3254    1.0321    0.2268 H   0  0  0  0  0  0  0  0  0  0  0  0 
    0.5733    1.0747   -0.1218 H   0  0  0  0  0  0  0  0  0  0  0  0 
    0.3598   -0.6846   -0.2593 H   0  0  0  0  0  0  0  0  0  0  0  0 
    1.0929    0.2272   -1.5863 H   0  0  0  0  0  0  0  0  0  0  0  0 
    2.3216   -0.0852    1.2158 H   0  0  0  0  0  0  0  0  0  0  0  0 
    3.1154   -1.3713   -1.4327 H   0  0  0  0  0  0  0  0  0  0  0  0 
    6.2227   -2.5870    1.3718 H   0  0  0  0  0  0  0  0  0  0  0  0 
    2.6253   -4.5814    2.1782 H   0  0  0  0  0  0  0  0  0  0  0  0 
  1  3  1  0  0  0  0 
  1 12  1  0  0  0  0 
  1 14  1  0  0  0  0 
  2 16  1  0  0  0  0 
  2 15  1  0  0  0  0 
  2  3  1  0  0  0  0 
  3 18  1  0  0  0  0 
  4 19  1  6  0  0  0 
  4  5  1  0  0  0  0 
  4  3  1  0  0  0  0 
  4  7  1  0  0  0  0 
  5  8  1  0  0  0  0 
  6  8  1  0  0  0  0 
  6 10  1  0  0  0  0 
  7  6  2  0  0  0  0 
  8 11  1  0  0  0  0 
  9  5  2  0  0  0  0 
 11 21  1  0  0  0  0 
 13  1  1  0  0  0  0 
 17  2  1  0  0  0  0 
 20 10  1  0  0  0  0 
M  END 
>  <HBA> 
5 
 
>  <HBD> 
2 
 
>  <TPSA> 
69.64 
 
>  <cid> 
41989 
 
>  <dipole> 
2.77 
 
>  <excitation_energy_1> 
5.012 
 
>  <excitation_energy_2> 
5.591 
 
>  <excitation_energy_3> 
5.723 
 
>  <excitation_energy_4> 
5.899 
 
>  <homo_energy> 
-6.724 
 
>  <homo_lumo_gap> 
6.438 
 
>  <logP> 
0.219 
 
>  <lumo_energy> 
-0.286 
 
>  <melting_point> 
132.85 
 
>  <molecular_refractivity> 
43.89 
 
>  <oscillator_strength_1> 
0.0026 
 
>  <oscillator_strength_2> 
0.0187 
 
>  <oscillator_strength_3> 
0.0346 
 
>  <oscillator_strength_4> 
0.0022 
 
>  <open_babel_can_smiles> 
CC([C@H]1N=C(N(C1=O)O)O)C 
 
>  <mulliken_charges> 
21 
1   -0.44085 
2   -0.457418 
3   -0.067773 
4   -0.097722 
5   0.595136 
6   0.713642 
7   -0.491822 
8   -0.289993 
9   -0.474153 
10   -0.58891 
11   -0.472771 
12   0.140587 
13   0.138574 
14   0.1677 
15   0.141389 
16   0.180273 
17   0.140078 
18   0.126238 
19   0.174966 
20   0.429923 
21   0.432905 
 
>  <lowdin_charges> 
21 
1   -0.442607 
2   -0.450453 
3   -0.111416 
4   -0.083451 
5   0.151588 
6   0.147395 
7   -0.267624 
8   -0.001523 
9   -0.247136 
10   -0.331348 
11   -0.334774 
12   0.149577 
13   0.14492 
14   0.160938 
15   0.150718 
16   0.167757 
17   0.145326 
18   0.137305 
19   0.166767 
20   0.379619 
21   0.36842 
 
$$$$ 
 
