PCCDB-ID:  55836 
public computational chemistry database (PCCDB) project, http://pccdb.org 
 
 33 34  0  0  1  0  0  0  0  0999 V2000 
    0.3712   -0.0077   -0.7059 C   0  0  0  0  0  0  0  0  0  0  0  0 
    1.5090    0.0585    1.4840 C   0  0  0  0  0  0  0  0  0  0  0  0 
    5.5012    0.2516   -2.9426 C   0  0  0  0  0  0  0  0  0  0  0  0 
    4.0420    0.2307   -0.2422 C   0  0  0  0  0  0  0  0  0  0  0  0 
    2.7835   -0.9691   -2.1363 C   0  0  0  0  0  0  0  0  0  0  0  0 
    4.0964    2.1815   -3.6752 C   0  0  0  0  0  0  0  0  0  0  0  0 
    1.5035   -0.1750   -0.0124 C   0  0  0  0  0  0  0  0  0  0  0  0 
    2.8234   -0.6760   -0.6090 C   0  0  2  0  0  0  0  0  0  0  0  0 
    4.2145    1.4871   -1.1145 C   0  0  2  0  0  0  0  0  0  0  0  0 
    2.9196    0.3522   -2.8675 C   0  0  1  0  0  0  0  0  0  0  0  0 
    3.4139    1.4146   -4.8201 C   0  0  0  0  0  0  0  0  0  0  0  0 
    4.2489    1.0852   -2.6029 C   0  0  2  0  0  0  0  0  0  0  0  0 
    5.4051    2.1296   -0.6647 O   0  0  0  0  0  0  0  0  0  0  0  0 
    3.3799    1.6929   -5.9889 O   0  0  0  0  0  0  0  0  0  0  0  0 
    2.8145    0.2921   -4.3095 O   0  0  0  0  0  0  0  0  0  0  0  0 
   -0.5462    0.2978   -0.2093 H   0  0  0  0  0  0  0  0  0  0  0  0 
    0.2937   -0.1688   -1.7760 H   0  0  0  0  0  0  0  0  0  0  0  0 
    0.4918    0.1881    1.8645 H   0  0  0  0  0  0  0  0  0  0  0  0 
    2.0806    0.9529    1.7620 H   0  0  0  0  0  0  0  0  0  0  0  0 
    1.9670   -0.7852    2.0178 H   0  0  0  0  0  0  0  0  0  0  0  0 
    6.3953    0.8520   -2.7508 H   0  0  0  0  0  0  0  0  0  0  0  0 
    5.5058   -0.0453   -3.9963 H   0  0  0  0  0  0  0  0  0  0  0  0 
    5.5867   -0.6583   -2.3449 H   0  0  0  0  0  0  0  0  0  0  0  0 
    4.9604   -0.3599   -0.3243 H   0  0  0  0  0  0  0  0  0  0  0  0 
    3.9867    0.5449    0.8033 H   0  0  0  0  0  0  0  0  0  0  0  0 
    1.8531   -1.4764   -2.4077 H   0  0  0  0  0  0  0  0  0  0  0  0 
    3.6018   -1.6442   -2.4071 H   0  0  0  0  0  0  0  0  0  0  0  0 
    3.4207    2.9859   -3.3495 H   0  0  0  0  0  0  0  0  0  0  0  0 
    5.0239    2.6368   -4.0315 H   0  0  0  0  0  0  0  0  0  0  0  0 
    3.0135   -1.6352   -0.1042 H   0  0  0  0  0  0  0  0  0  0  0  0 
    3.3499    2.1549   -0.9577 H   0  0  0  0  0  0  0  0  0  0  0  0 
    2.1054    1.0071   -2.5286 H   0  0  0  0  0  0  0  0  0  0  0  0 
    5.4816    2.9751   -1.1342 H   0  0  0  0  0  0  0  0  0  0  0  0 
  1 16  1  0  0  0  0 
  1  7  2  0  0  0  0 
  2 19  1  0  0  0  0 
  2 18  1  0  0  0  0 
  2 20  1  0  0  0  0 
  3 21  1  0  0  0  0 
  3 23  1  0  0  0  0 
  4 25  1  0  0  0  0 
  5  8  1  0  0  0  0 
  6 28  1  0  0  0  0 
  6 12  1  0  0  0  0 
  7  2  1  0  0  0  0 
  8  4  1  0  0  0  0 
  8 30  1  1  0  0  0 
  8  7  1  0  0  0  0 
  9 31  1  1  0  0  0 
  9 13  1  0  0  0  0 
  9  4  1  0  0  0  0 
 10 12  1  0  0  0  0 
 10 32  1  1  0  0  0 
 10  5  1  0  0  0  0 
 11 15  1  0  0  0  0 
 11  6  1  0  0  0  0 
 12  3  1  6  0  0  0 
 12  9  1  0  0  0  0 
 14 11  2  0  0  0  0 
 15 10  1  0  0  0  0 
 17  1  1  0  0  0  0 
 22  3  1  0  0  0  0 
 24  4  1  0  0  0  0 
 26  5  1  0  0  0  0 
 27  5  1  0  0  0  0 
 29  6  1  0  0  0  0 
 33 13  1  0  0  0  0 
M  END 
>  <HBA> 
3 
 
>  <HBD> 
1 
 
>  <TPSA> 
46.53 
 
>  <cid> 
55836 
 
>  <dipole> 
4.08 
 
>  <excitation_energy_1> 
5.57 
 
>  <excitation_energy_2> 
6.062 
 
>  <excitation_energy_3> 
6.121 
 
>  <excitation_energy_4> 
6.285 
 
>  <homo_energy> 
-6.879 
 
>  <homo_lumo_gap> 
7.157 
 
>  <logP> 
1.655 
 
>  <lumo_energy> 
0.278 
 
>  <melting_point> 
47.18 
 
>  <molecular_refractivity> 
57.28 
 
>  <oscillator_strength_1> 
0.0005 
 
>  <oscillator_strength_2> 
0.0117 
 
>  <oscillator_strength_3> 
0.0633 
 
>  <oscillator_strength_4> 
0.0053 
 
>  <open_babel_can_smiles> 
O=C1O[C@@H]2[C@](C1)(C)[C@H](O)C[C@H](C2)C(=C)C 
 
>  <mulliken_charges> 
33 
1   -0.413775 
2   -0.519284 
3   -0.472229 
4   -0.29937 
5   -0.309111 
6   -0.415063 
7   0.226836 
8   -0.170326 
9   0.124976 
10   0.141029 
11   0.620184 
12   0.040955 
13   -0.629723 
14   -0.457619 
15   -0.476916 
16   0.13714 
17   0.145144 
18   0.157569 
19   0.16315 
20   0.153677 
21   0.161631 
22   0.162331 
23   0.153765 
24   0.155005 
25   0.157585 
26   0.162413 
27   0.15233 
28   0.170039 
29   0.176394 
30   0.14686 
31   0.116182 
32   0.144315 
33   0.393907 
 
>  <lowdin_charges> 
33 
1   -0.366666 
2   -0.444223 
3   -0.449611 
4   -0.28578 
5   -0.28646 
6   -0.321483 
7   0.001456 
8   -0.125415 
9   -0.009008 
10   -0.005911 
11   0.193192 
12   -0.027593 
13   -0.457359 
14   -0.229221 
15   -0.19635 
16   0.158047 
17   0.156828 
18   0.159174 
19   0.159275 
20   0.156079 
21   0.162019 
22   0.158601 
23   0.153896 
24   0.155253 
25   0.15824 
26   0.161984 
27   0.156793 
28   0.168466 
29   0.17144 
30   0.157296 
31   0.127834 
32   0.144026 
33   0.34518 
 
$$$$ 
 
