PCCDB-ID:  56137 
public computational chemistry database (PCCDB) project, http://pccdb.org 
 
 34 33  0  0  1  0  0  0  0  0999 V2000 
    1.7820    1.5414   -0.5079 C   0  0  0  0  0  0  0  0  0  0  0  0 
    1.2125   -1.5541    0.0248 C   0  0  0  0  0  0  0  0  0  0  0  0 
    2.0851   -0.6008    0.8544 C   0  0  0  0  0  0  0  0  0  0  0  0 
    3.7440    0.0392   -1.0288 C   0  0  0  0  0  0  0  0  0  0  0  0 
    0.5462   -2.6338    0.8814 C   0  0  0  0  0  0  0  0  0  0  0  0 
    4.8713   -0.8759   -0.5445 C   0  0  0  0  0  0  0  0  0  0  0  0 
    6.8781   -2.1174   -1.2921 C   0  0  0  0  0  0  0  0  0  0  0  0 
    6.4131   -3.5767   -1.3686 C   0  0  0  0  0  0  0  0  0  0  0  0 
    2.7884    0.5363    0.0751 C   0  0  1  0  0  0  0  0  0  0  0  0 
   -0.3126   -3.4917    0.0561 N   0  0  0  0  0  0  0  0  0  0  0  0 
    5.7613   -1.2330   -1.6529 N   0  0  0  0  0  0  0  0  0  0  0  0 
    5.8181   -3.8342   -2.6245 O   0  0  0  0  0  0  0  0  0  0  0  0 
    1.1042    1.9189    0.2669 H   0  0  0  0  0  0  0  0  0  0  0  0 
    1.1676    1.0902   -1.2961 H   0  0  0  0  0  0  0  0  0  0  0  0 
    2.2991    2.4024   -0.9482 H   0  0  0  0  0  0  0  0  0  0  0  0 
    1.8212   -2.0462   -0.7480 H   0  0  0  0  0  0  0  0  0  0  0  0 
    0.4248   -1.0052   -0.5043 H   0  0  0  0  0  0  0  0  0  0  0  0 
    2.8413   -1.1881    1.3940 H   0  0  0  0  0  0  0  0  0  0  0  0 
    1.4609   -0.1387    1.6331 H   0  0  0  0  0  0  0  0  0  0  0  0 
    3.1820   -0.4798   -1.8158 H   0  0  0  0  0  0  0  0  0  0  0  0 
    4.1944    0.9201   -1.5117 H   0  0  0  0  0  0  0  0  0  0  0  0 
   -0.0921   -2.1539    1.6352 H   0  0  0  0  0  0  0  0  0  0  0  0 
    1.3278   -3.1836    1.4399 H   0  0  0  0  0  0  0  0  0  0  0  0 
    4.4535   -1.8032   -0.1364 H   0  0  0  0  0  0  0  0  0  0  0  0 
    5.4195   -0.3900    0.2861 H   0  0  0  0  0  0  0  0  0  0  0  0 
    7.6716   -1.9689   -2.0329 H   0  0  0  0  0  0  0  0  0  0  0  0 
    7.3003   -1.8964   -0.2954 H   0  0  0  0  0  0  0  0  0  0  0  0 
    5.7135   -3.7932   -0.5416 H   0  0  0  0  0  0  0  0  0  0  0  0 
    7.2688   -4.2520   -1.2536 H   0  0  0  0  0  0  0  0  0  0  0  0 
    3.3995    1.0807    0.8121 H   0  0  0  0  0  0  0  0  0  0  0  0 
    0.2640   -4.0234   -0.5960 H   0  0  0  0  0  0  0  0  0  0  0  0 
   -0.7757   -4.1830    0.6443 H   0  0  0  0  0  0  0  0  0  0  0  0 
    6.1203   -0.3802   -2.0756 H   0  0  0  0  0  0  0  0  0  0  0  0 
    5.3235   -3.0127   -2.8153 H   0  0  0  0  0  0  0  0  0  0  0  0 
  1  9  1  0  0  0  0 
  1 13  1  0  0  0  0 
  2  3  1  0  0  0  0 
  2  5  1  0  0  0  0 
  3 18  1  0  0  0  0 
  3 19  1  0  0  0  0 
  4  6  1  0  0  0  0 
  4  9  1  0  0  0  0 
  5 23  1  0  0  0  0 
  5 22  1  0  0  0  0 
  6 24  1  0  0  0  0 
  6 25  1  0  0  0  0 
  7 27  1  0  0  0  0 
  8  7  1  0  0  0  0 
  8 29  1  0  0  0  0 
  8 28  1  0  0  0  0 
  9 30  1  1  0  0  0 
  9  3  1  0  0  0  0 
 10 32  1  0  0  0  0 
 10  5  1  0  0  0  0 
 11  7  1  0  0  0  0 
 11  6  1  0  0  0  0 
 12  8  1  0  0  0  0 
 14  1  1  0  0  0  0 
 15  1  1  0  0  0  0 
 16  2  1  0  0  0  0 
 17  2  1  0  0  0  0 
 20  4  1  0  0  0  0 
 21  4  1  0  0  0  0 
 26  7  1  0  0  0  0 
 31 10  1  0  0  0  0 
 33 11  1  0  0  0  0 
 34 12  1  0  0  0  0 
M  END 
>  <HBA> 
3 
 
>  <HBD> 
3 
 
>  <TPSA> 
58.28 
 
>  <cid> 
56137 
 
>  <dipole> 
2.91 
 
>  <excitation_energy_1> 
5.556 
 
>  <excitation_energy_2> 
5.656 
 
>  <excitation_energy_3> 
6.021 
 
>  <excitation_energy_4> 
6.093 
 
>  <homo_energy> 
-6.248 
 
>  <homo_lumo_gap> 
8.109 
 
>  <logP> 
1.425 
 
>  <lumo_energy> 
1.861 
 
>  <melting_point> 
71.49 
 
>  <molecular_refractivity> 
52.05 
 
>  <oscillator_strength_1> 
0.011 
 
>  <oscillator_strength_2> 
0.0005 
 
>  <oscillator_strength_3> 
0.0177 
 
>  <oscillator_strength_4> 
0.0047 
 
>  <open_babel_can_smiles> 
NCCC[C@@H](CCNCCO)C 
 
>  <mulliken_charges> 
34 
1   -0.450214 
2   -0.257606 
3   -0.268373 
4   -0.266505 
5   -0.132807 
6   -0.125204 
7   -0.157317 
8   -0.006033 
9   -0.07311 
10   -0.716899 
11   -0.583149 
12   -0.63191 
13   0.141437 
14   0.148836 
15   0.139153 
16   0.129226 
17   0.152629 
18   0.128953 
19   0.128504 
20   0.146327 
21   0.121793 
22   0.136822 
23   0.108834 
24   0.150844 
25   0.115687 
26   0.145616 
27   0.118964 
28   0.111937 
29   0.136817 
30   0.117869 
31   0.292906 
32   0.29467 
33   0.303276 
34   0.39803 
 
>  <lowdin_charges> 
34 
1   -0.448636 
2   -0.286439 
3   -0.28248 
4   -0.28417 
5   -0.206135 
6   -0.20668 
7   -0.22573 
8   -0.141321 
9   -0.124584 
10   -0.561603 
11   -0.365338 
12   -0.479522 
13   0.149852 
14   0.15042 
15   0.148442 
16   0.138898 
17   0.152095 
18   0.139761 
19   0.14243 
20   0.148387 
21   0.138709 
22   0.141183 
23   0.115482 
24   0.145046 
25   0.120579 
26   0.149907 
27   0.127049 
28   0.119629 
29   0.144302 
30   0.137411 
31   0.253233 
32   0.255325 
33   0.258084 
34   0.336415 
 
$$$$ 
 
