PCCDB-ID:  47955 
public computational chemistry database (PCCDB) project, http://pccdb.org 
 
 22 21  0  0  1  0  0  0  0  0999 V2000 
    2.3535    1.9945   -0.4099 C   0  0  0  0  0  0  0  0  0  0  0  0 
    5.7629    0.5983   -0.2494 C   0  0  0  0  0  0  0  0  0  0  0  0 
    2.6840    0.4999   -0.2788 C   0  0  0  0  0  0  0  0  0  0  0  0 
    2.8036   -0.1259   -2.7515 C   0  0  0  0  0  0  0  0  0  0  0  0 
    4.9415    0.5677   -1.5385 C   0  0  2  0  0  0  0  0  0  0  0  0 
    3.5574   -0.1057   -1.4035 C   0  0  1  0  0  0  0  0  0  0  0  0 
    3.3937   -0.9739   -3.7216 O   0  0  0  0  0  0  0  0  0  0  0  0 
    5.7198   -0.0583   -2.5862 O   0  0  0  0  0  0  0  0  0  0  0  0 
    1.7035    2.3142    0.4123 H   0  0  0  0  0  0  0  0  0  0  0  0 
    1.8311    2.2182   -1.3463 H   0  0  0  0  0  0  0  0  0  0  0  0 
    3.2527    2.6206   -0.3757 H   0  0  0  0  0  0  0  0  0  0  0  0 
    5.2990    1.2252    0.5185 H   0  0  0  0  0  0  0  0  0  0  0  0 
    6.7605    0.9962   -0.4598 H   0  0  0  0  0  0  0  0  0  0  0  0 
    5.8761   -0.4118    0.1675 H   0  0  0  0  0  0  0  0  0  0  0  0 
    1.7445   -0.0678   -0.2468 H   0  0  0  0  0  0  0  0  0  0  0  0 
    3.1686    0.3241    0.6893 H   0  0  0  0  0  0  0  0  0  0  0  0 
    2.7042    0.9039   -3.1368 H   0  0  0  0  0  0  0  0  0  0  0  0 
    1.7882   -0.5063   -2.5892 H   0  0  0  0  0  0  0  0  0  0  0  0 
    4.8089    1.5923   -1.9047 H   0  0  0  0  0  0  0  0  0  0  0  0 
    3.7375   -1.1607   -1.1384 H   0  0  0  0  0  0  0  0  0  0  0  0 
    4.3143   -0.6634   -3.7997 H   0  0  0  0  0  0  0  0  0  0  0  0 
    5.9184   -0.9624   -2.2885 H   0  0  0  0  0  0  0  0  0  0  0  0 
  1 11  1  0  0  0  0 
  1  3  1  0  0  0  0 
  1  9  1  0  0  0  0 
  2 14  1  0  0  0  0 
  2 12  1  0  0  0  0 
  3 15  1  0  0  0  0 
  3 16  1  0  0  0  0 
  4 18  1  0  0  0  0 
  4  6  1  0  0  0  0 
  5 19  1  6  0  0  0 
  5  6  1  0  0  0  0 
  5  2  1  0  0  0  0 
  6 20  1  1  0  0  0 
  6  3  1  0  0  0  0 
  7  4  1  0  0  0  0 
  8 22  1  0  0  0  0 
  8  5  1  0  0  0  0 
 10  1  1  0  0  0  0 
 13  2  1  0  0  0  0 
 17  4  1  0  0  0  0 
 21  7  1  0  0  0  0 
M  END 
>  <HBA> 
2 
 
>  <HBD> 
2 
 
>  <TPSA> 
40.46 
 
>  <cid> 
47955 
 
>  <dipole> 
2.85 
 
>  <excitation_energy_1> 
6.256 
 
>  <excitation_energy_2> 
6.563 
 
>  <excitation_energy_3> 
6.684 
 
>  <excitation_energy_4> 
6.746 
 
>  <homo_energy> 
-6.653 
 
>  <homo_lumo_gap> 
8.387 
 
>  <logP> 
0.386 
 
>  <lumo_energy> 
1.733 
 
>  <melting_point> 
10.67 
 
>  <molecular_refractivity> 
33.28 
 
>  <oscillator_strength_1> 
0.0103 
 
>  <oscillator_strength_2> 
0.0116 
 
>  <oscillator_strength_3> 
0.0053 
 
>  <oscillator_strength_4> 
0.0133 
 
>  <open_babel_can_smiles> 
CC[C@H]([C@H](O)C)CO 
 
>  <mulliken_charges> 
22 
1   -0.456481 
2   -0.470818 
3   -0.272544 
4   -0.02095 
5   0.131716 
6   -0.117853 
7   -0.646654 
8   -0.634282 
9   0.148195 
10   0.154584 
11   0.146381 
12   0.155848 
13   0.163083 
14   0.137859 
15   0.139492 
16   0.137916 
17   0.113506 
18   0.134956 
19   0.143489 
20   0.116672 
21   0.403615 
22   0.392271 
 
>  <lowdin_charges> 
22 
1   -0.452774 
2   -0.461554 
3   -0.275918 
4   -0.133907 
5   -0.001494 
6   -0.163309 
7   -0.485238 
8   -0.458185 
9   0.154518 
10   0.15147 
11   0.146926 
12   0.159723 
13   0.160903 
14   0.145866 
15   0.14681 
16   0.143817 
17   0.121179 
18   0.14154 
19   0.144296 
20   0.136572 
21   0.336824 
22   0.341937 
 
$$$$ 
 
