PCCDB-ID:  10447 
public computational chemistry database (PCCDB) project, http://pccdb.org 
 
 29 28  0  0  1  0  0  0  0  0999 V2000 
    0.4420   -0.2680   -2.3879 C   0  0  0  0  0  0  0  0  0  0  0  0 
    2.7679    0.6271   -4.2814 C   0  0  0  0  0  0  0  0  0  0  0  0 
    1.6593    0.5726   -1.9845 C   0  0  0  0  0  0  0  0  0  0  0  0 
    5.5169    0.6782   -2.7229 C   0  0  0  0  0  0  0  0  0  0  0  0 
    6.6600    1.3871   -1.9857 C   0  0  0  0  0  0  0  0  0  0  0  0 
    4.1350    1.0502   -2.1670 C   0  0  0  0  0  0  0  0  0  0  0  0 
    8.0399    1.0199   -2.5357 C   0  0  0  0  0  0  0  0  0  0  0  0 
    2.9447    0.2926   -2.7916 C   0  0  2  0  0  0  0  0  0  0  0  0 
    9.1813    1.7233   -1.8102 C   0  0  0  0  0  0  0  0  0  0  0  0 
    9.0471    2.4874   -0.8889 O   0  0  0  0  0  0  0  0  0  0  0  0 
   10.4310    1.4326   -2.2748 O   0  0  0  0  0  0  0  0  0  0  0  0 
   -0.4005   -0.0820   -1.7121 H   0  0  0  0  0  0  0  0  0  0  0  0 
    0.6701   -1.3406   -2.3450 H   0  0  0  0  0  0  0  0  0  0  0  0 
    0.1007   -0.0416   -3.4039 H   0  0  0  0  0  0  0  0  0  0  0  0 
    1.9481    0.0562   -4.7295 H   0  0  0  0  0  0  0  0  0  0  0  0 
    3.6707    0.4017   -4.8591 H   0  0  0  0  0  0  0  0  0  0  0  0 
    2.5439    1.6940   -4.4157 H   0  0  0  0  0  0  0  0  0  0  0  0 
    1.8722    0.3949   -0.9213 H   0  0  0  0  0  0  0  0  0  0  0  0 
    1.4108    1.6411   -2.0689 H   0  0  0  0  0  0  0  0  0  0  0  0 
    5.6548   -0.4116   -2.6506 H   0  0  0  0  0  0  0  0  0  0  0  0 
    5.5731    0.9223   -3.7926 H   0  0  0  0  0  0  0  0  0  0  0  0 
    6.6286    1.1438   -0.9168 H   0  0  0  0  0  0  0  0  0  0  0  0 
    6.5326    2.4747   -2.0482 H   0  0  0  0  0  0  0  0  0  0  0  0 
    3.9757    2.1326   -2.2875 H   0  0  0  0  0  0  0  0  0  0  0  0 
    4.1367    0.8647   -1.0832 H   0  0  0  0  0  0  0  0  0  0  0  0 
    8.1067    1.2670   -3.6063 H   0  0  0  0  0  0  0  0  0  0  0  0 
    8.2060   -0.0660   -2.4670 H   0  0  0  0  0  0  0  0  0  0  0  0 
    3.1568   -0.7861   -2.7090 H   0  0  0  0  0  0  0  0  0  0  0  0 
   10.3714    0.8067   -3.0155 H   0  0  0  0  0  0  0  0  0  0  0  0 
  1 13  1  0  0  0  0 
  1  3  1  0  0  0  0 
  1 12  1  0  0  0  0 
  2  8  1  0  0  0  0 
  3 18  1  0  0  0  0 
  4 20  1  0  0  0  0 
  4  6  1  0  0  0  0 
  4  5  1  0  0  0  0 
  5 22  1  0  0  0  0 
  6 25  1  0  0  0  0 
  7 27  1  0  0  0  0 
  7  5  1  0  0  0  0 
  7  9  1  0  0  0  0 
  8 28  1  1  0  0  0 
  8  6  1  0  0  0  0 
  8  3  1  0  0  0  0 
  9 10  2  0  0  0  0 
 11  9  1  0  0  0  0 
 14  1  1  0  0  0  0 
 15  2  1  0  0  0  0 
 16  2  1  0  0  0  0 
 17  2  1  0  0  0  0 
 19  3  1  0  0  0  0 
 21  4  1  0  0  0  0 
 23  5  1  0  0  0  0 
 24  6  1  0  0  0  0 
 26  7  1  0  0  0  0 
 29 11  1  0  0  0  0 
M  END 
>  <HBA> 
2 
 
>  <HBD> 
1 
 
>  <TPSA> 
37.3 
 
>  <cid> 
10447 
 
>  <dipole> 
4.16 
 
>  <excitation_energy_1> 
5.743 
 
>  <excitation_energy_2> 
6.406 
 
>  <excitation_energy_3> 
7.361 
 
>  <excitation_energy_4> 
7.429 
 
>  <homo_energy> 
-7.344 
 
>  <homo_lumo_gap> 
7.685 
 
>  <logP> 
2.678 
 
>  <lumo_energy> 
0.34 
 
>  <melting_point> 
48.6 
 
>  <molecular_refractivity> 
47.15 
 
>  <oscillator_strength_1> 
0.0003 
 
>  <oscillator_strength_2> 
0.0168 
 
>  <oscillator_strength_3> 
0.0043 
 
>  <oscillator_strength_4> 
0.0021 
 
>  <open_babel_can_smiles> 
CC[C@H](CCCCC(=O)O)C 
 
>  <mulliken_charges> 
29 
1   -0.448876 
2   -0.454044 
3   -0.247103 
4   -0.265349 
5   -0.24696 
6   -0.254791 
7   -0.407904 
8   -0.063577 
9   0.609274 
10   -0.436835 
11   -0.569959 
12   0.143371 
13   0.140393 
14   0.146023 
15   0.146194 
16   0.141999 
17   0.138465 
18   0.129419 
19   0.128178 
20   0.125825 
21   0.131176 
22   0.15515 
23   0.155365 
24   0.128432 
25   0.129436 
26   0.162043 
27   0.163132 
28   0.114069 
29   0.40745 
 
>  <lowdin_charges> 
29 
1   -0.445036 
2   -0.449112 
3   -0.27028 
4   -0.273432 
5   -0.264394 
6   -0.270938 
7   -0.319157 
8   -0.121227 
9   0.193244 
10   -0.234686 
11   -0.362082 
12   0.151445 
13   0.144133 
14   0.146744 
15   0.151553 
16   0.148024 
17   0.143946 
18   0.138868 
19   0.13691 
20   0.13454 
21   0.13678 
22   0.152076 
23   0.152106 
24   0.137371 
25   0.139118 
26   0.157914 
27   0.158385 
28   0.129878 
29   0.357309 
 
$$$$ 
 
