PCCDB-ID:  20347 
public computational chemistry database (PCCDB) project, http://pccdb.org 
 
 20 19  0  0  1  0  0  0  0  0999 V2000 
    1.0225    0.1463    0.0236 C   0  0  0  0  0  0  0  0  0  0  0  0 
    5.6507   -1.8758   -1.2683 C   0  0  0  0  0  0  0  0  0  0  0  0 
    5.3737   -1.3417    2.1812 C   0  0  0  0  0  0  0  0  0  0  0  0 
    2.5464    0.1194   -0.1314 C   0  0  0  0  0  0  0  0  0  0  0  0 
    5.2298   -1.3228   -0.2798 C   0  0  0  0  0  0  0  0  0  0  0  0 
    3.2389   -0.5887    1.0379 C   0  0  0  0  0  0  0  0  0  0  0  0 
    4.7783   -0.6350    0.9487 C   0  0  1  0  0  0  0  0  0  0  0  0 
    5.2098    0.7376    0.9264 O   0  0  0  0  0  0  0  0  0  0  0  0 
    0.5488    0.6734   -0.8125 H   0  0  0  0  0  0  0  0  0  0  0  0 
    0.7229    0.6554    0.9483 H   0  0  0  0  0  0  0  0  0  0  0  0 
    0.6052   -0.8682    0.0548 H   0  0  0  0  0  0  0  0  0  0  0  0 
    6.0223   -2.3635   -2.1410 H   0  0  0  0  0  0  0  0  0  0  0  0 
    5.0259   -2.3776    2.2527 H   0  0  0  0  0  0  0  0  0  0  0  0 
    5.0762   -0.8000    3.0847 H   0  0  0  0  0  0  0  0  0  0  0  0 
    6.4679   -1.3549    2.1257 H   0  0  0  0  0  0  0  0  0  0  0  0 
    2.9355    1.1407   -0.2061 H   0  0  0  0  0  0  0  0  0  0  0  0 
    2.8123   -0.3856   -1.0686 H   0  0  0  0  0  0  0  0  0  0  0  0 
    2.8691   -1.6187    1.1255 H   0  0  0  0  0  0  0  0  0  0  0  0 
    2.9927   -0.0765    1.9775 H   0  0  0  0  0  0  0  0  0  0  0  0 
    6.1586    0.7404    0.7218 H   0  0  0  0  0  0  0  0  0  0  0  0 
  1 11  1  0  0  0  0 
  1 10  1  0  0  0  0 
  2  5  3  0  0  0  0 
  3 13  1  0  0  0  0 
  3 14  1  0  0  0  0 
  4  1  1  0  0  0  0 
  4  6  1  0  0  0  0 
  6 18  1  0  0  0  0 
  6 19  1  0  0  0  0 
  7  5  1  6  0  0  0 
  7  6  1  0  0  0  0 
  7  3  1  0  0  0  0 
  8  7  1  0  0  0  0 
  9  1  1  0  0  0  0 
 12  2  1  0  0  0  0 
 15  3  1  0  0  0  0 
 16  4  1  0  0  0  0 
 17  4  1  0  0  0  0 
 20  8  1  0  0  0  0 
M  END 
>  <HBA> 
1 
 
>  <HBD> 
1 
 
>  <TPSA> 
20.23 
 
>  <cid> 
20347 
 
>  <dipole> 
1.31 
 
>  <excitation_energy_1> 
6.305 
 
>  <excitation_energy_2> 
6.548 
 
>  <excitation_energy_3> 
6.688 
 
>  <excitation_energy_4> 
6.787 
 
>  <homo_energy> 
-7.154 
 
>  <homo_lumo_gap> 
8.183 
 
>  <logP> 
1.171 
 
>  <lumo_energy> 
1.029 
 
>  <melting_point> 
19.76 
 
>  <molecular_refractivity> 
35.12 
 
>  <oscillator_strength_1> 
0.0017 
 
>  <oscillator_strength_2> 
0.0261 
 
>  <oscillator_strength_3> 
0.0356 
 
>  <oscillator_strength_4> 
0.011 
 
>  <open_babel_can_smiles> 
C[C@@](C#C)(CCC)O 
 
>  <mulliken_charges> 
20 
1   -0.445254 
2   -0.510808 
3   -0.445511 
4   -0.25774 
5   0.327546 
6   -0.249463 
7   0.171104 
8   -0.6256 
9   0.142998 
10   0.140944 
11   0.138548 
12   0.191738 
13   0.152298 
14   0.157677 
15   0.142519 
16   0.157452 
17   0.142337 
18   0.135112 
19   0.142042 
20   0.392061 
 
>  <lowdin_charges> 
20 
1   -0.444472 
2   -0.255832 
3   -0.442497 
4   -0.275498 
5   -0.051406 
6   -0.268925 
7   0.132886 
8   -0.447753 
9   0.151028 
10   0.145797 
11   0.143658 
12   0.206323 
13   0.157132 
14   0.15899 
15   0.150161 
16   0.152619 
17   0.147521 
18   0.146529 
19   0.150002 
20   0.343739 
 
$$$$ 
 
