PCCDB-ID:  32149 
public computational chemistry database (PCCDB) project, http://pccdb.org 
 
 28 29  0  0  0  0  0  0  0  0999 V2000 
    1.3566    1.1918   -0.8223 C   0  0  0  0  0  0  0  0  0  0  0  0 
    3.5547   -2.2198    0.7226 C   0  0  0  0  0  0  0  0  0  0  0  0 
    5.0775   -0.5019    5.1740 C   0  0  0  0  0  0  0  0  0  0  0  0 
    4.3637   -0.8922    4.0658 C   0  0  0  0  0  0  0  0  0  0  0  0 
    5.2976    0.8638    5.4609 C   0  0  0  0  0  0  0  0  0  0  0  0 
    3.6410    2.4355    2.4921 C   0  0  0  0  0  0  0  0  0  0  0  0 
    2.9300    2.0563    1.3716 C   0  0  0  0  0  0  0  0  0  0  0  0 
    4.1045    1.4825    3.4287 C   0  0  0  0  0  0  0  0  0  0  0  0 
    3.8644    0.0919    3.1687 C   0  0  0  0  0  0  0  0  0  0  0  0 
    4.8167    1.8526    4.6208 C   0  0  0  0  0  0  0  0  0  0  0  0 
    2.6473    0.6922    1.1303 C   0  0  0  0  0  0  0  0  0  0  0  0 
    3.1264   -0.2749    2.0106 C   0  0  0  0  0  0  0  0  0  0  0  0 
    5.0562    3.2107    4.8856 N   0  0  0  0  0  0  0  0  0  0  0  0 
    1.9297    0.2377    0.0569 O   0  0  0  0  0  0  0  0  0  0  0  0 
    2.8534   -1.6085    1.8076 O   0  0  0  0  0  0  0  0  0  0  0  0 
    2.1249    1.7732   -1.3500 H   0  0  0  0  0  0  0  0  0  0  0  0 
    0.6899    1.8820   -0.2891 H   0  0  0  0  0  0  0  0  0  0  0  0 
    0.7770    0.6182   -1.5478 H   0  0  0  0  0  0  0  0  0  0  0  0 
    3.2922   -3.2802    0.7510 H   0  0  0  0  0  0  0  0  0  0  0  0 
    4.6404   -2.1123    0.8470 H   0  0  0  0  0  0  0  0  0  0  0  0 
    3.2514   -1.7929   -0.2387 H   0  0  0  0  0  0  0  0  0  0  0  0 
    5.4627   -1.2507    5.8616 H   0  0  0  0  0  0  0  0  0  0  0  0 
    4.1630   -1.9370    3.8619 H   0  0  0  0  0  0  0  0  0  0  0  0 
    5.8395    1.1440    6.3618 H   0  0  0  0  0  0  0  0  0  0  0  0 
    3.8781    3.4860    2.6271 H   0  0  0  0  0  0  0  0  0  0  0  0 
    2.5983    2.8141    0.6710 H   0  0  0  0  0  0  0  0  0  0  0  0 
    5.3959    3.3761    5.8263 H   0  0  0  0  0  0  0  0  0  0  0  0 
    4.2662    3.8160    4.6925 H   0  0  0  0  0  0  0  0  0  0  0  0 
  1 17  1  0  0  0  0 
  1 14  1  0  0  0  0 
  2 19  1  0  0  0  0 
  2 20  1  0  0  0  0 
  2 15  1  0  0  0  0 
  3  5  1  0  0  0  0 
  3 22  1  0  0  0  0 
  4  3  2  0  0  0  0 
  5 24  1  0  0  0  0 
  6 25  1  0  0  0  0 
  6  8  2  0  0  0  0 
  7  6  1  0  0  0  0 
  8 10  1  0  0  0  0 
  9  8  1  0  0  0  0 
  9  4  1  0  0  0  0 
 10 13  1  0  0  0  0 
 10  5  2  0  0  0  0 
 11  7  2  0  0  0  0 
 11 12  1  0  0  0  0 
 12  9  2  0  0  0  0 
 13 27  1  0  0  0  0 
 14 11  1  0  0  0  0 
 15 12  1  0  0  0  0 
 16  1  1  0  0  0  0 
 18  1  1  0  0  0  0 
 21  2  1  0  0  0  0 
 23  4  1  0  0  0  0 
 26  7  1  0  0  0  0 
 28 13  1  0  0  0  0 
M  END 
>  <HBA> 
3 
 
>  <HBD> 
1 
 
>  <TPSA> 
44.48 
 
>  <cid> 
32149 
 
>  <dipole> 
2.38 
 
>  <excitation_energy_1> 
3.717 
 
>  <excitation_energy_2> 
4.156 
 
>  <excitation_energy_3> 
4.402 
 
>  <excitation_energy_4> 
4.748 
 
>  <homo_energy> 
-4.871 
 
>  <homo_lumo_gap> 
4.234 
 
>  <logP> 
3.02 
 
>  <lumo_energy> 
-0.637 
 
>  <melting_point> 
110.03 
 
>  <molecular_refractivity> 
61.34 
 
>  <oscillator_strength_1> 
0.1124 
 
>  <oscillator_strength_2> 
0.0165 
 
>  <oscillator_strength_3> 
0.0037 
 
>  <oscillator_strength_4> 
0.1236 
 
>  <open_babel_can_smiles> 
COc1c(OC)ccc2c1cccc2N 
 
>  <mulliken_charges> 
28 
1   -0.213554 
2   -0.20963 
3   -0.142322 
4   -0.18886 
5   -0.186457 
6   -0.210307 
7   -0.204339 
8   0.108253 
9   0.082656 
10   0.22656 
11   0.354187 
12   0.210893 
13   -0.785906 
14   -0.512128 
15   -0.521243 
16   0.150308 
17   0.153135 
18   0.170151 
19   0.155453 
20   0.141993 
21   0.160021 
22   0.12285 
23   0.135507 
24   0.109086 
25   0.126674 
26   0.131038 
27   0.317927 
28   0.318052 
 
>  <lowdin_charges> 
28 
1   -0.281651 
2   -0.270964 
3   -0.149284 
4   -0.18562 
5   -0.216903 
6   -0.162997 
7   -0.206375 
8   -0.03414 
9   -0.00557 
10   0.057252 
11   0.074588 
12   0.061323 
13   -0.490542 
14   -0.196556 
15   -0.223032 
16   0.144913 
17   0.147488 
18   0.164428 
19   0.152464 
20   0.137862 
21   0.147987 
22   0.156925 
23   0.163983 
24   0.149934 
25   0.155965 
26   0.163716 
27   0.271461 
28   0.273344 
 
$$$$ 
 
