PCCDB-ID:  28654 
public computational chemistry database (PCCDB) project, http://pccdb.org 
 
 34 36  0  0  1  0  0  0  0  0999 V2000 
    0.5622   -0.0871   -0.2287 C   0  0  0  0  0  0  0  0  0  0  0  0 
    2.3668   -2.4043   -0.9122 C   0  0  0  0  0  0  0  0  0  0  0  0 
    3.7354    5.0554    3.7344 C   0  0  0  0  0  0  0  0  0  0  0  0 
    3.4351   -0.9707    2.3728 C   0  0  0  0  0  0  0  0  0  0  0  0 
    2.6019   -1.8664    1.4539 C   0  0  0  0  0  0  0  0  0  0  0  0 
    3.5564    1.4496    3.0722 C   0  0  0  0  0  0  0  0  0  0  0  0 
    2.2095    4.2799   -0.1895 C   0  0  0  0  0  0  0  0  0  0  0  0 
    2.1107   -0.0876   -0.1538 C   0  0  1  0  0  0  0  0  0  0  0  0 
    3.1740    0.5004    2.1234 C   0  0  0  0  0  0  0  0  0  0  0  0 
    3.3952    2.8344    2.8793 C   0  0  0  0  0  0  0  0  0  0  0  0 
    2.5895    0.8964    0.9000 C   0  0  0  0  0  0  0  0  0  0  0  0 
    2.8317    3.2187    1.6653 C   0  0  0  0  0  0  0  0  0  0  0  0 
    2.4505    2.2637    0.7282 C   0  0  0  0  0  0  0  0  0  0  0  0 
    2.7273   -1.4023    0.0758 N   0  0  0  0  0  0  0  0  0  0  0  0 
    3.8000    3.6412    3.9000 O   0  0  0  0  0  0  0  0  0  0  0  0 
    2.5001    4.4844    1.1921 O   0  0  0  0  0  0  0  0  0  0  0  0 
    1.8860    2.9007   -0.3634 O   0  0  0  0  0  0  0  0  0  0  0  0 
    0.1991    0.9278   -0.4160 H   0  0  0  0  0  0  0  0  0  0  0  0 
    0.1155   -0.4373    0.7082 H   0  0  0  0  0  0  0  0  0  0  0  0 
    0.2030   -0.7266   -1.0422 H   0  0  0  0  0  0  0  0  0  0  0  0 
    3.0261   -3.2731   -0.8012 H   0  0  0  0  0  0  0  0  0  0  0  0 
    2.5163   -1.9953   -1.9184 H   0  0  0  0  0  0  0  0  0  0  0  0 
    1.3236   -2.7650   -0.8456 H   0  0  0  0  0  0  0  0  0  0  0  0 
    4.1165    5.4748    4.6678 H   0  0  0  0  0  0  0  0  0  0  0  0 
    2.7079    5.3959    3.5702 H   0  0  0  0  0  0  0  0  0  0  0  0 
    4.3610    5.3906    2.8996 H   0  0  0  0  0  0  0  0  0  0  0  0 
    4.4976   -1.1820    2.1895 H   0  0  0  0  0  0  0  0  0  0  0  0 
    3.2392   -1.2192    3.4236 H   0  0  0  0  0  0  0  0  0  0  0  0 
    1.5513   -1.9015    1.8022 H   0  0  0  0  0  0  0  0  0  0  0  0 
    2.9799   -2.8939    1.5026 H   0  0  0  0  0  0  0  0  0  0  0  0 
    4.0089    1.1331    4.0076 H   0  0  0  0  0  0  0  0  0  0  0  0 
    3.0959    4.5265   -0.7957 H   0  0  0  0  0  0  0  0  0  0  0  0 
    1.3530    4.8949   -0.4740 H   0  0  0  0  0  0  0  0  0  0  0  0 
    2.4786    0.2588   -1.1303 H   0  0  0  0  0  0  0  0  0  0  0  0 
  1  8  1  0  0  0  0 
  1 19  1  0  0  0  0 
  2 23  1  0  0  0  0 
  2 21  1  0  0  0  0 
  2 14  1  0  0  0  0 
  3 15  1  0  0  0  0 
  3 24  1  0  0  0  0 
  4 28  1  0  0  0  0 
  5 30  1  0  0  0  0 
  5 29  1  0  0  0  0 
  5  4  1  0  0  0  0 
  6 31  1  0  0  0  0 
  7 16  1  0  0  0  0 
  8 34  1  6  0  0  0 
  8 14  1  0  0  0  0 
  8 11  1  0  0  0  0 
  9  4  1  0  0  0  0 
  9  6  2  0  0  0  0 
 10  6  1  0  0  0  0 
 10 15  1  0  0  0  0 
 11  9  1  0  0  0  0 
 12 10  2  0  0  0  0 
 13 11  2  0  0  0  0 
 13 12  1  0  0  0  0 
 14  5  1  0  0  0  0 
 16 12  1  0  0  0  0 
 17  7  1  0  0  0  0 
 17 13  1  0  0  0  0 
 18  1  1  0  0  0  0 
 20  1  1  0  0  0  0 
 22  2  1  0  0  0  0 
 25  3  1  0  0  0  0 
 26  3  1  0  0  0  0 
 27  4  1  0  0  0  0 
 32  7  1  0  0  0  0 
 33  7  1  0  0  0  0 
M  END 
>  <HBA> 
4 
 
>  <HBD> 
0 
 
>  <TPSA> 
30.93 
 
>  <cid> 
28654 
 
>  <dipole> 
1.22 
 
>  <excitation_energy_1> 
4.74 
 
>  <excitation_energy_2> 
4.864 
 
>  <excitation_energy_3> 
5.035 
 
>  <excitation_energy_4> 
5.049 
 
>  <homo_energy> 
-5.372 
 
>  <homo_lumo_gap> 
5.747 
 
>  <logP> 
1.911 
 
>  <lumo_energy> 
0.376 
 
>  <melting_point> 
76.78 
 
>  <molecular_refractivity> 
68.05 
 
>  <oscillator_strength_1> 
0.0057 
 
>  <oscillator_strength_2> 
0.0004 
 
>  <oscillator_strength_3> 
0.0112 
 
>  <oscillator_strength_4> 
0.0202 
 
>  <open_babel_can_smiles> 
COc1cc2CCN([C@H](c2c2c1OCO2)C)C 
 
>  <mulliken_charges> 
34 
1   -0.463668 
2   -0.293422 
3   -0.210052 
4   -0.332008 
5   -0.138331 
6   -0.26453 
7   0.192715 
8   -0.005722 
9   0.108515 
10   0.339113 
11   0.066552 
12   0.277098 
13   0.251454 
14   -0.396005 
15   -0.52418 
16   -0.548531 
17   -0.543106 
18   0.164387 
19   0.146484 
20   0.142017 
21   0.14748 
22   0.145934 
23   0.123068 
24   0.161901 
25   0.163896 
26   0.156318 
27   0.159752 
28   0.140092 
29   0.119659 
30   0.13452 
31   0.128782 
32   0.143926 
33   0.163542 
34   0.142348 
 
>  <lowdin_charges> 
34 
1   -0.466013 
2   -0.354133 
3   -0.274113 
4   -0.272373 
5   -0.196452 
6   -0.201094 
7   0.013299 
8   -0.051076 
9   -0.00441 
10   0.078676 
11   -0.053191 
12   0.021281 
13   0.072129 
14   -0.186518 
15   -0.201297 
16   -0.224104 
17   -0.215023 
18   0.161245 
19   0.149873 
20   0.149282 
21   0.149273 
22   0.148311 
23   0.121479 
24   0.158515 
25   0.151662 
26   0.14993 
27   0.156169 
28   0.149464 
29   0.118111 
30   0.145302 
31   0.165051 
32   0.134747 
33   0.15726 
34   0.148738 
 
$$$$ 
 
