PCCDB-ID:  24055 
public computational chemistry database (PCCDB) project, http://pccdb.org 
 
 22 23  0  0  0  0  0  0  0  0999 V2000 
    0.8578   -0.0364    0.1001 C   0  0  0  0  0  0  0  0  0  0  0  0 
    7.3223   -1.1785    0.3709 C   0  0  0  0  0  0  0  0  0  0  0  0 
    6.6262   -2.4113    0.3892 C   0  0  0  0  0  0  0  0  0  0  0  0 
    6.6282    0.0086    0.3066 C   0  0  0  0  0  0  0  0  0  0  0  0 
    5.2499   -2.4351    0.3417 C   0  0  0  0  0  0  0  0  0  0  0  0 
    3.0905    1.1974    0.1405 C   0  0  0  0  0  0  0  0  0  0  0  0 
    4.4640    1.2323    0.1885 C   0  0  0  0  0  0  0  0  0  0  0  0 
    2.3686   -0.0238    0.1554 C   0  0  0  0  0  0  0  0  0  0  0  0 
    5.2084    0.0250    0.2564 C   0  0  0  0  0  0  0  0  0  0  0  0 
    4.5106   -1.2247    0.2745 C   0  0  0  0  0  0  0  0  0  0  0  0 
    3.0854   -1.2093    0.2228 C   0  0  0  0  0  0  0  0  0  0  0  0 
    2.4725   -2.4352    0.2428 O   0  0  0  0  0  0  0  0  0  0  0  0 
    0.4633    0.9816    0.0360 H   0  0  0  0  0  0  0  0  0  0  0  0 
    0.4101   -0.4961    0.9937 H   0  0  0  0  0  0  0  0  0  0  0  0 
    0.4768   -0.5808   -0.7766 H   0  0  0  0  0  0  0  0  0  0  0  0 
    8.4085   -1.1727    0.4079 H   0  0  0  0  0  0  0  0  0  0  0  0 
    7.1832   -3.3431    0.4385 H   0  0  0  0  0  0  0  0  0  0  0  0 
    7.1598    0.9573    0.2925 H   0  0  0  0  0  0  0  0  0  0  0  0 
    4.7114   -3.3763    0.3554 H   0  0  0  0  0  0  0  0  0  0  0  0 
    2.5270    2.1263    0.0881 H   0  0  0  0  0  0  0  0  0  0  0  0 
    4.9934    2.1812    0.1763 H   0  0  0  0  0  0  0  0  0  0  0  0 
    1.5123   -2.3098    0.2138 H   0  0  0  0  0  0  0  0  0  0  0  0 
  1  8  1  0  0  0  0 
  1 14  1  0  0  0  0 
  2  3  1  0  0  0  0 
  2 16  1  0  0  0  0 
  3 17  1  0  0  0  0 
  4  2  2  0  0  0  0 
  5 19  1  0  0  0  0 
  5  3  2  0  0  0  0 
  6  8  2  0  0  0  0 
  6  7  1  0  0  0  0 
  7  9  2  0  0  0  0 
  8 11  1  0  0  0  0 
  9 10  1  0  0  0  0 
  9  4  1  0  0  0  0 
 10  5  1  0  0  0  0 
 11 12  1  0  0  0  0 
 11 10  2  0  0  0  0 
 13  1  1  0  0  0  0 
 15  1  1  0  0  0  0 
 18  4  1  0  0  0  0 
 20  6  1  0  0  0  0 
 21  7  1  0  0  0  0 
 22 12  1  0  0  0  0 
M  END 
>  <HBA> 
1 
 
>  <HBD> 
1 
 
>  <TPSA> 
20.23 
 
>  <cid> 
24055 
 
>  <dipole> 
1.71 
 
>  <excitation_energy_1> 
4.102 
 
>  <excitation_energy_2> 
4.321 
 
>  <excitation_energy_3> 
4.66 
 
>  <excitation_energy_4> 
5.252 
 
>  <homo_energy> 
-5.309 
 
>  <homo_lumo_gap> 
4.58 
 
>  <logP> 
2.854 
 
>  <lumo_energy> 
-0.729 
 
>  <melting_point> 
93.46 
 
>  <molecular_refractivity> 
50.94 
 
>  <oscillator_strength_1> 
0.0643 
 
>  <oscillator_strength_2> 
0.0212 
 
>  <oscillator_strength_3> 
0.003 
 
>  <oscillator_strength_4> 
0.0005 
 
>  <open_babel_can_smiles> 
Cc1ccc2c(c1O)cccc2 
 
>  <mulliken_charges> 
22 
1   -0.581987 
2   -0.130567 
3   -0.139751 
4   -0.200714 
5   -0.171925 
6   -0.19819 
7   -0.191068 
8   0.160883 
9   0.13239 
10   0.093445 
11   0.189166 
12   -0.646676 
13   0.171023 
14   0.161752 
15   0.161442 
16   0.126931 
17   0.127046 
18   0.126931 
19   0.149576 
20   0.120471 
21   0.123328 
22   0.416494 
 
>  <lowdin_charges> 
22 
1   -0.454359 
2   -0.15552 
3   -0.162314 
4   -0.159265 
5   -0.150942 
6   -0.15895 
7   -0.180663 
8   -0.062071 
9   0.004909 
10   -0.023379 
11   0.092688 
12   -0.377184 
13   0.167009 
14   0.156064 
15   0.155988 
16   0.155007 
17   0.157438 
18   0.156457 
19   0.169356 
20   0.15515 
21   0.156498 
22   0.358086 
 
$$$$ 
 
