PCCDB-ID:  48189 
public computational chemistry database (PCCDB) project, http://pccdb.org 
 
 32 32  0  0  1  0  0  0  0  0999 V2000 
    1.3352   -0.2203    1.9075 C   0  0  0  0  0  0  0  0  0  0  0  0 
    2.5128   -1.1598    2.1179 C   0  0  0  0  0  0  0  0  0  0  0  0 
    4.0532    3.5346   -2.1470 C   0  0  0  0  0  0  0  0  0  0  0  0 
    3.3376    2.3929   -2.5137 C   0  0  0  0  0  0  0  0  0  0  0  0 
    5.0905    3.4281   -1.2199 C   0  0  0  0  0  0  0  0  0  0  0  0 
    3.6579    1.1533   -1.9599 C   0  0  0  0  0  0  0  0  0  0  0  0 
    5.4085    2.1877   -0.6645 C   0  0  0  0  0  0  0  0  0  0  0  0 
    5.7506   -1.2345   -1.4965 C   0  0  0  0  0  0  0  0  0  0  0  0 
    6.3326   -2.5224   -0.9075 C   0  0  0  0  0  0  0  0  0  0  0  0 
    4.7014    1.0363   -1.0306 C   0  0  0  0  0  0  0  0  0  0  0  0 
    5.0872   -0.3216   -0.4448 C   0  0  1  0  0  0  0  0  0  0  0  0 
    3.8456   -0.9819    0.1498 C   0  0  0  0  0  0  0  0  0  0  0  0 
    6.9810   -3.3077   -1.9651 N   0  0  0  0  0  0  0  0  0  0  0  0 
    3.0657   -1.6773   -0.4706 O   0  0  0  0  0  0  0  0  0  0  0  0 
    3.7028   -0.6662    1.4543 O   0  0  0  0  0  0  0  0  0  0  0  0 
    0.4690   -0.5763    2.4771 H   0  0  0  0  0  0  0  0  0  0  0  0 
    1.0584   -0.1809    0.8502 H   0  0  0  0  0  0  0  0  0  0  0  0 
    1.5790    0.7919    2.2459 H   0  0  0  0  0  0  0  0  0  0  0  0 
    2.2923   -2.1628    1.7446 H   0  0  0  0  0  0  0  0  0  0  0  0 
    2.7968   -1.2181    3.1715 H   0  0  0  0  0  0  0  0  0  0  0  0 
    3.8022    4.4998   -2.5787 H   0  0  0  0  0  0  0  0  0  0  0  0 
    2.5247    2.4667   -3.2315 H   0  0  0  0  0  0  0  0  0  0  0  0 
    5.6529    4.3104   -0.9254 H   0  0  0  0  0  0  0  0  0  0  0  0 
    3.0905    0.2702   -2.2398 H   0  0  0  0  0  0  0  0  0  0  0  0 
    6.2175    2.1115    0.0585 H   0  0  0  0  0  0  0  0  0  0  0  0 
    5.0056   -1.4853   -2.2614 H   0  0  0  0  0  0  0  0  0  0  0  0 
    6.5527   -0.6803   -1.9954 H   0  0  0  0  0  0  0  0  0  0  0  0 
    5.5388   -3.0693   -0.3688 H   0  0  0  0  0  0  0  0  0  0  0  0 
    7.1016   -2.2660   -0.1666 H   0  0  0  0  0  0  0  0  0  0  0  0 
    5.7883   -0.1446    0.3782 H   0  0  0  0  0  0  0  0  0  0  0  0 
    6.2705   -3.6470   -2.6134 H   0  0  0  0  0  0  0  0  0  0  0  0 
    7.4087   -4.1397   -1.5611 H   0  0  0  0  0  0  0  0  0  0  0  0 
  1  2  1  0  0  0  0 
  1 18  1  0  0  0  0 
  1 16  1  0  0  0  0 
  2 20  1  0  0  0  0 
  3  5  1  0  0  0  0 
  4  3  2  0  0  0  0 
  4  6  1  0  0  0  0 
  5 23  1  0  0  0  0 
  5  7  2  0  0  0  0 
  6 10  2  0  0  0  0 
  7 25  1  0  0  0  0 
  8  9  1  0  0  0  0 
  8 11  1  0  0  0  0 
  9 28  1  0  0  0  0 
  9 29  1  0  0  0  0 
 10  7  1  0  0  0  0 
 10 11  1  0  0  0  0 
 11 12  1  0  0  0  0 
 11 30  1  1  0  0  0 
 12 15  1  0  0  0  0 
 13 32  1  0  0  0  0 
 13  9  1  0  0  0  0 
 14 12  2  0  0  0  0 
 15  2  1  0  0  0  0 
 17  1  1  0  0  0  0 
 19  2  1  0  0  0  0 
 21  3  1  0  0  0  0 
 22  4  1  0  0  0  0 
 24  6  1  0  0  0  0 
 26  8  1  0  0  0  0 
 27  8  1  0  0  0  0 
 31 13  1  0  0  0  0 
M  END 
>  <HBA> 
3 
 
>  <HBD> 
1 
 
>  <TPSA> 
52.32 
 
>  <cid> 
48189 
 
>  <dipole> 
1.81 
 
>  <excitation_energy_1> 
5.248 
 
>  <excitation_energy_2> 
5.447 
 
>  <excitation_energy_3> 
5.539 
 
>  <excitation_energy_4> 
5.607 
 
>  <homo_energy> 
-6.242 
 
>  <homo_lumo_gap> 
6.055 
 
>  <logP> 
2.382 
 
>  <lumo_energy> 
-0.188 
 
>  <melting_point> 
70.52 
 
>  <molecular_refractivity> 
59.44 
 
>  <oscillator_strength_1> 
0.0036 
 
>  <oscillator_strength_2> 
0.0532 
 
>  <oscillator_strength_3> 
0.0264 
 
>  <oscillator_strength_4> 
0.0109 
 
>  <open_babel_can_smiles> 
NCC[C@@H](c1ccccc1)C(=O)OCC 
 
>  <mulliken_charges> 
32 
1   -0.460912 
2   -0.047966 
3   -0.127707 
4   -0.131695 
5   -0.129626 
6   -0.178707 
7   -0.183938 
8   -0.244158 
9   -0.143447 
10   0.151973 
11   -0.257219 
12   0.640575 
13   -0.718243 
14   -0.495575 
15   -0.463528 
16   0.14938 
17   0.176463 
18   0.161174 
19   0.169633 
20   0.152505 
21   0.128955 
22   0.130955 
23   0.129725 
24   0.153317 
25   0.126929 
26   0.151588 
27   0.156475 
28   0.126815 
29   0.135186 
30   0.150152 
31   0.295512 
32   0.295409 
 
>  <lowdin_charges> 
32 
1   -0.453068 
2   -0.126471 
3   -0.15871 
4   -0.152528 
5   -0.155906 
6   -0.166488 
7   -0.164386 
8   -0.275802 
9   -0.210641 
10   0.000899 
11   -0.146762 
12   0.202399 
13   -0.558305 
14   -0.280218 
15   -0.189594 
16   0.159119 
17   0.164368 
18   0.157466 
19   0.157395 
20   0.15075 
21   0.157392 
22   0.158301 
23   0.158518 
24   0.168606 
25   0.156124 
26   0.153488 
27   0.159029 
28   0.124986 
29   0.140078 
30   0.160663 
31   0.254432 
32   0.254867 
 
$$$$ 
 
