PCCDB-ID:  36508 
public computational chemistry database (PCCDB) project, http://pccdb.org 
 
 35 36  0  0  1  0  0  0  0  0999 V2000 
    1.5904   -0.2635   -0.3070 C   0  0  0  0  0  0  0  0  0  0  0  0 
    4.7948    7.4566   -0.7637 C   0  0  0  0  0  0  0  0  0  0  0  0 
    5.0323   -1.9144   -0.5202 C   0  0  0  0  0  0  0  0  0  0  0  0 
    5.8692   -0.8085   -0.6676 C   0  0  0  0  0  0  0  0  0  0  0  0 
    3.6558   -1.7201   -0.4036 C   0  0  0  0  0  0  0  0  0  0  0  0 
    5.3236    0.4730   -0.6955 C   0  0  0  0  0  0  0  0  0  0  0  0 
    1.5385    5.7439   -0.3651 C   0  0  0  0  0  0  0  0  0  0  0  0 
    2.4373    6.9897   -0.2895 C   0  0  0  0  0  0  0  0  0  0  0  0 
    3.9184    5.2134   -0.3406 C   0  0  0  0  0  0  0  0  0  0  0  0 
    3.0828   -0.4434   -0.4410 C   0  0  0  0  0  0  0  0  0  0  0  0 
    2.5283    4.5582   -0.3203 C   0  0  2  0  0  0  0  0  0  0  0  0 
    3.9393    0.6679   -0.6000 C   0  0  0  0  0  0  0  0  0  0  0  0 
    2.7926    2.5006   -1.5129 C   0  0  0  0  0  0  0  0  0  0  0  0 
    3.4534    1.9958   -0.5577 N   0  0  0  0  0  0  0  0  0  0  0  0 
    3.6816    6.5390   -0.9077 N   0  0  0  0  0  0  0  0  0  0  0  0 
    2.4912    1.8852   -2.6787 O   0  0  0  0  0  0  0  0  0  0  0  0 
    2.2900    3.7514   -1.5033 O   0  0  0  0  0  0  0  0  0  0  0  0 
    1.1112   -1.1987   -0.0007 H   0  0  0  0  0  0  0  0  0  0  0  0 
    1.1365    0.0500   -1.2554 H   0  0  0  0  0  0  0  0  0  0  0  0 
    1.3461    0.5049    0.4363 H   0  0  0  0  0  0  0  0  0  0  0  0 
    4.5449    8.4178   -1.2265 H   0  0  0  0  0  0  0  0  0  0  0  0 
    5.6764    7.0544   -1.2746 H   0  0  0  0  0  0  0  0  0  0  0  0 
    5.0673    7.6446    0.2945 H   0  0  0  0  0  0  0  0  0  0  0  0 
    5.4459   -2.9188   -0.4867 H   0  0  0  0  0  0  0  0  0  0  0  0 
    6.9449   -0.9393   -0.7530 H   0  0  0  0  0  0  0  0  0  0  0  0 
    3.0015   -2.5805   -0.2788 H   0  0  0  0  0  0  0  0  0  0  0  0 
    5.9623    1.3462   -0.7945 H   0  0  0  0  0  0  0  0  0  0  0  0 
    1.0007    5.7116   -1.3165 H   0  0  0  0  0  0  0  0  0  0  0  0 
    0.8034    5.7037    0.4435 H   0  0  0  0  0  0  0  0  0  0  0  0 
    2.5877    7.2941    0.7672 H   0  0  0  0  0  0  0  0  0  0  0  0 
    2.0252    7.8521   -0.8254 H   0  0  0  0  0  0  0  0  0  0  0  0 
    4.6423    4.6429   -0.9292 H   0  0  0  0  0  0  0  0  0  0  0  0 
    4.3008    5.2688    0.6992 H   0  0  0  0  0  0  0  0  0  0  0  0 
    2.4058    3.9058    0.5447 H   0  0  0  0  0  0  0  0  0  0  0  0 
    2.0012    2.5213   -3.2282 H   0  0  0  0  0  0  0  0  0  0  0  0 
  1 18  1  0  0  0  0 
  1 20  1  0  0  0  0 
  2 23  1  0  0  0  0 
  3 24  1  0  0  0  0 
  3  5  2  0  0  0  0 
  4  3  1  0  0  0  0 
  5 26  1  0  0  0  0 
  6  4  2  0  0  0  0 
  6 12  1  0  0  0  0 
  7 11  1  0  0  0  0 
  7  8  1  0  0  0  0 
  7 29  1  0  0  0  0 
  8 30  1  0  0  0  0 
  9 11  1  0  0  0  0 
  9 33  1  0  0  0  0 
 10  5  1  0  0  0  0 
 10  1  1  0  0  0  0 
 11 34  1  1  0  0  0 
 12 14  1  0  0  0  0 
 12 10  2  0  0  0  0 
 13 17  1  0  0  0  0 
 13 14  2  0  0  0  0 
 15  2  1  0  0  0  0 
 15  9  1  0  0  0  0 
 15  8  1  0  0  0  0 
 16 13  1  0  0  0  0 
 17 11  1  0  0  0  0 
 19  1  1  0  0  0  0 
 21  2  1  0  0  0  0 
 22  2  1  0  0  0  0 
 25  4  1  0  0  0  0 
 27  6  1  0  0  0  0 
 28  7  1  0  0  0  0 
 31  8  1  0  0  0  0 
 32  9  1  0  0  0  0 
 35 16  1  0  0  0  0 
M  END 
>  <HBA> 
4 
 
>  <HBD> 
1 
 
>  <TPSA> 
41.57 
 
>  <cid> 
36508 
 
>  <dipole> 
3.08 
 
>  <excitation_energy_1> 
5.004 
 
>  <excitation_energy_2> 
5.113 
 
>  <excitation_energy_3> 
5.322 
 
>  <excitation_energy_4> 
5.374 
 
>  <homo_energy> 
-5.606 
 
>  <homo_lumo_gap> 
6.036 
 
>  <logP> 
2.259 
 
>  <lumo_energy> 
0.43 
 
>  <melting_point> 
87.38 
 
>  <molecular_refractivity> 
71.12 
 
>  <oscillator_strength_1> 
0.0245 
 
>  <oscillator_strength_2> 
0.0119 
 
>  <oscillator_strength_3> 
0.0136 
 
>  <oscillator_strength_4> 
0.1295 
 
>  <open_babel_can_smiles> 
CN1CC[C@H](C1)O/C(=N/c1ccccc1C)/O 
 
>  <mulliken_charges> 
35 
1   -0.540587 
2   -0.295048 
3   -0.123798 
4   -0.143871 
5   -0.203067 
6   -0.143118 
7   -0.308645 
8   -0.122091 
9   -0.128822 
10   0.183913 
11   0.134855 
12   0.194069 
13   0.727922 
14   -0.557188 
15   -0.384189 
16   -0.587502 
17   -0.515073 
18   0.147793 
19   0.164505 
20   0.157549 
21   0.150575 
22   0.153086 
23   0.119054 
24   0.118708 
25   0.121152 
26   0.115827 
27   0.119432 
28   0.16791 
29   0.149255 
30   0.111869 
31   0.144903 
32   0.162187 
33   0.118145 
34   0.16938 
35   0.420913 
 
>  <lowdin_charges> 
35 
1   -0.446361 
2   -0.355674 
3   -0.17194 
4   -0.157694 
5   -0.166762 
6   -0.174873 
7   -0.290967 
8   -0.200374 
9   -0.210214 
10   -0.016595 
11   0.008639 
12   0.047477 
13   0.206163 
14   -0.233334 
15   -0.186708 
16   -0.354937 
17   -0.204125 
18   0.15411 
19   0.159778 
20   0.158534 
21   0.151283 
22   0.15329 
23   0.119983 
24   0.152905 
25   0.152152 
26   0.152068 
27   0.156844 
28   0.163943 
29   0.155006 
30   0.113595 
31   0.148875 
32   0.160444 
33   0.123422 
34   0.160901 
35   0.371146 
 
$$$$ 
 
