PCCDB-ID:  68165 
public computational chemistry database (PCCDB) project, http://pccdb.org 
 
 25 24  0  0  0  0  0  0  0  0999 V2000 
    1.9447    3.3317    1.4918 C   0  0  0  0  0  0  0  0  0  0  0  0 
    8.4155    2.1888   -2.5141 C   0  0  0  0  0  0  0  0  0  0  0  0 
    2.5557    2.0760    0.8621 C   0  0  0  0  0  0  0  0  0  0  0  0 
    8.1035    2.1153   -1.0161 C   0  0  0  0  0  0  0  0  0  0  0  0 
    3.9698    1.8071    1.3590 C   0  0  0  0  0  0  0  0  0  0  0  0 
    6.9696    1.1475   -0.7057 C   0  0  0  0  0  0  0  0  0  0  0  0 
    5.7490    0.2559    1.1230 C   0  0  0  0  0  0  0  0  0  0  0  0 
    4.4541    0.6236    0.7255 O   0  0  0  0  0  0  0  0  0  0  0  0 
    6.7542    1.1416    0.7050 O   0  0  0  0  0  0  0  0  0  0  0  0 
    0.9294    3.5037    1.1189 H   0  0  0  0  0  0  0  0  0  0  0  0 
    2.5388    4.2246    1.2620 H   0  0  0  0  0  0  0  0  0  0  0  0 
    1.8866    3.2443    2.5837 H   0  0  0  0  0  0  0  0  0  0  0  0 
    9.2337    2.8897   -2.7108 H   0  0  0  0  0  0  0  0  0  0  0  0 
    7.5440    2.5259   -3.0885 H   0  0  0  0  0  0  0  0  0  0  0  0 
    8.7147    1.2103   -2.9095 H   0  0  0  0  0  0  0  0  0  0  0  0 
    2.5827    2.1745   -0.2304 H   0  0  0  0  0  0  0  0  0  0  0  0 
    1.9339    1.1993    1.0821 H   0  0  0  0  0  0  0  0  0  0  0  0 
    7.8286    3.1077   -0.6372 H   0  0  0  0  0  0  0  0  0  0  0  0 
    8.9942    1.8026   -0.4571 H   0  0  0  0  0  0  0  0  0  0  0  0 
    3.9753    1.6686    2.4540 H   0  0  0  0  0  0  0  0  0  0  0  0 
    4.6303    2.6560    1.1336 H   0  0  0  0  0  0  0  0  0  0  0  0 
    7.2267    0.1289   -1.0440 H   0  0  0  0  0  0  0  0  0  0  0  0 
    6.0498    1.4434   -1.2293 H   0  0  0  0  0  0  0  0  0  0  0  0 
    5.9060   -0.7464    0.6996 H   0  0  0  0  0  0  0  0  0  0  0  0 
    5.8307    0.2240    2.2188 H   0  0  0  0  0  0  0  0  0  0  0  0 
  1 12  1  0  0  0  0 
  2  4  1  0  0  0  0 
  3 17  1  0  0  0  0 
  3  5  1  0  0  0  0 
  3  1  1  0  0  0  0 
  4  6  1  0  0  0  0 
  4 18  1  0  0  0  0 
  4 19  1  0  0  0  0 
  5 20  1  0  0  0  0 
  6  9  1  0  0  0  0 
  7 25  1  0  0  0  0 
  8  7  1  0  0  0  0 
  8  5  1  0  0  0  0 
  9  7  1  0  0  0  0 
 10  1  1  0  0  0  0 
 11  1  1  0  0  0  0 
 13  2  1  0  0  0  0 
 14  2  1  0  0  0  0 
 15  2  1  0  0  0  0 
 16  3  1  0  0  0  0 
 21  5  1  0  0  0  0 
 22  6  1  0  0  0  0 
 23  6  1  0  0  0  0 
 24  7  1  0  0  0  0 
M  END 
>  <HBA> 
2 
 
>  <HBD> 
0 
 
>  <TPSA> 
18.46 
 
>  <cid> 
68165 
 
>  <dipole> 
0.38 
 
>  <excitation_energy_1> 
6.97 
 
>  <excitation_energy_2> 
7.041 
 
>  <excitation_energy_3> 
7.276 
 
>  <excitation_energy_4> 
7.281 
 
>  <homo_energy> 
-7.151 
 
>  <homo_lumo_gap> 
9.595 
 
>  <logP> 
1.797 
 
>  <lumo_energy> 
2.444 
 
>  <melting_point> 
-45.13 
 
>  <molecular_refractivity> 
37.93 
 
>  <oscillator_strength_1> 
0.0033 
 
>  <oscillator_strength_2> 
0.0129 
 
>  <oscillator_strength_3> 
0.0021 
 
>  <oscillator_strength_4> 
0.0111 
 
>  <open_babel_can_smiles> 
CCCOCOCCC 
 
>  <mulliken_charges> 
25 
1   -0.451429 
2   -0.451538 
3   -0.265663 
4   -0.265578 
5   -0.013414 
6   -0.013523 
7   0.187223 
8   -0.475008 
9   -0.474713 
10   0.149408 
11   0.144945 
12   0.144675 
13   0.149475 
14   0.144995 
15   0.144685 
16   0.145251 
17   0.145521 
18   0.145287 
19   0.145558 
20   0.116704 
21   0.137641 
22   0.116798 
23   0.137494 
24   0.127623 
25   0.127582 
 
>  <lowdin_charges> 
25 
1   -0.442417 
2   -0.446124 
3   -0.276121 
4   -0.277715 
5   -0.130962 
6   -0.131344 
7   -0.021577 
8   -0.271129 
9   -0.271233 
10   0.153106 
11   0.148306 
12   0.14579 
13   0.154573 
14   0.148674 
15   0.147571 
16   0.145846 
17   0.148533 
18   0.147535 
19   0.148594 
20   0.123279 
21   0.135952 
22   0.125063 
23   0.135762 
24   0.130869 
25   0.129168 
 
$$$$ 
 
