PCCDB-ID:  39435 
public computational chemistry database (PCCDB) project, http://pccdb.org 
 
 24 24  0  0  1  0  0  0  0  0999 V2000 
    1.2629    0.4596   -0.3926 C   0  0  0  0  0  0  0  0  0  0  0  0 
    2.7572    0.1521   -0.2531 C   0  0  0  0  0  0  0  0  0  0  0  0 
    3.0469   -0.9705    0.7518 C   0  0  0  0  0  0  0  0  0  0  0  0 
    4.5477   -1.2644    0.8870 C   0  0  0  0  0  0  0  0  0  0  0  0 
    4.1021   -4.5831    2.8113 C   0  0  0  0  0  0  0  0  0  0  0  0 
    4.8829   -2.3913    1.8752 C   0  0  2  0  0  0  0  0  0  0  0  0 
    4.3491   -3.7872    1.5270 C   0  0  0  0  0  0  0  0  0  0  0  0 
    4.0504   -3.5504    3.9323 C   0  0  0  0  0  0  0  0  0  0  0  0 
    4.4671   -2.1711    3.3282 C   0  0  0  0  0  0  0  0  0  0  0  0 
    4.1370   -4.1910    0.4064 O   0  0  0  0  0  0  0  0  0  0  0  0 
    3.7358   -3.7222    5.0838 O   0  0  0  0  0  0  0  0  0  0  0  0 
    4.4333   -1.1276    3.9338 O   0  0  0  0  0  0  0  0  0  0  0  0 
    1.0880    1.2632   -1.1166 H   0  0  0  0  0  0  0  0  0  0  0  0 
    0.8320    0.7744    0.5656 H   0  0  0  0  0  0  0  0  0  0  0  0 
    0.7068   -0.4225   -0.7328 H   0  0  0  0  0  0  0  0  0  0  0  0 
    3.2913    1.0614    0.0564 H   0  0  0  0  0  0  0  0  0  0  0  0 
    3.1682   -0.1265   -1.2336 H   0  0  0  0  0  0  0  0  0  0  0  0 
    2.5228   -1.8819    0.4343 H   0  0  0  0  0  0  0  0  0  0  0  0 
    2.6379   -0.6897    1.7321 H   0  0  0  0  0  0  0  0  0  0  0  0 
    5.0720   -0.3602    1.2186 H   0  0  0  0  0  0  0  0  0  0  0  0 
    4.9594   -1.5409   -0.0905 H   0  0  0  0  0  0  0  0  0  0  0  0 
    4.9385   -5.2746    2.9913 H   0  0  0  0  0  0  0  0  0  0  0  0 
    3.1949   -5.1931    2.7500 H   0  0  0  0  0  0  0  0  0  0  0  0 
    5.9827   -2.5093    1.9129 H   0  0  0  0  0  0  0  0  0  0  0  0 
  1  2  1  0  0  0  0 
  1 14  1  0  0  0  0 
  2 16  1  0  0  0  0 
  2  3  1  0  0  0  0 
  3  4  1  0  0  0  0 
  3 19  1  0  0  0  0 
  4 20  1  0  0  0  0 
  4  6  1  0  0  0  0 
  5 22  1  0  0  0  0 
  5  8  1  0  0  0  0 
  6 24  1  1  0  0  0 
  6  9  1  0  0  0  0 
  7  6  1  0  0  0  0 
  7  5  1  0  0  0  0 
  8 11  2  0  0  0  0 
  9  8  1  0  0  0  0 
  9 12  2  0  0  0  0 
 10  7  2  0  0  0  0 
 13  1  1  0  0  0  0 
 15  1  1  0  0  0  0 
 17  2  1  0  0  0  0 
 18  3  1  0  0  0  0 
 21  4  1  0  0  0  0 
 23  5  1  0  0  0  0 
M  END 
>  <HBA> 
3 
 
>  <HBD> 
0 
 
>  <TPSA> 
51.21 
 
>  <cid> 
39435 
 
>  <dipole> 
2.15 
 
>  <excitation_energy_1> 
2.404 
 
>  <excitation_energy_2> 
3.241 
 
>  <excitation_energy_3> 
4.275 
 
>  <excitation_energy_4> 
4.5 
 
>  <homo_energy> 
-6.871 
 
>  <homo_lumo_gap> 
3.94 
 
>  <logP> 
0.904 
 
>  <lumo_energy> 
-2.931 
 
>  <melting_point> 
58.2 
 
>  <molecular_refractivity> 
43.86 
 
>  <oscillator_strength_1> 
0.0002 
 
>  <oscillator_strength_2> 
0.0009 
 
>  <oscillator_strength_3> 
0.0 
 
>  <oscillator_strength_4> 
0.0005 
 
>  <open_babel_can_smiles> 
CCCC[C@@H]1C(=O)CC(=O)C1=O 
 
>  <mulliken_charges> 
24 
1   -0.444507 
2   -0.250796 
3   -0.2721 
4   -0.245087 
5   -0.465442 
6   -0.302669 
7   0.457198 
8   0.405059 
9   0.406935 
10   -0.43842 
11   -0.397495 
12   -0.411387 
13   0.145345 
14   0.145515 
15   0.144633 
16   0.135922 
17   0.136332 
18   0.146037 
19   0.145218 
20   0.156861 
21   0.159535 
22   0.219002 
23   0.219241 
24   0.205067 
 
>  <lowdin_charges> 
24 
1   -0.445316 
2   -0.27027 
3   -0.282795 
4   -0.265062 
5   -0.344803 
6   -0.197242 
7   0.154889 
8   0.122215 
9   0.124249 
10   -0.209332 
11   -0.159312 
12   -0.165787 
13   0.152125 
14   0.148422 
15   0.148609 
16   0.141867 
17   0.141363 
18   0.146458 
19   0.145076 
20   0.158594 
21   0.159301 
22   0.203073 
23   0.199259 
24   0.19442 
 
$$$$ 
 
