PCCDB-ID:  72662 
public computational chemistry database (PCCDB) project, http://pccdb.org 
 
 16 16  0  0  0  0  0  0  0  0999 V2000 
    4.3385    1.5519    1.0858 C   0  0  0  0  0  0  0  0  0  0  0  0 
    0.8420    3.6934   -3.6812 C   0  0  0  0  0  0  0  0  0  0  0  0 
    1.4338    4.3493   -2.5970 C   0  0  0  0  0  0  0  0  0  0  0  0 
    1.6697    1.7163   -2.9427 C   0  0  0  0  0  0  0  0  0  0  0  0 
    2.2649    2.3732   -1.8568 C   0  0  0  0  0  0  0  0  0  0  0  0 
    3.0516    1.5546   -0.8735 C   0  0  0  0  0  0  0  0  0  0  0  0 
    0.9552    2.3732   -3.8619 N   0  0  0  0  0  0  0  0  0  0  0  0 
    2.1480    3.6958   -1.6790 N   0  0  0  0  0  0  0  0  0  0  0  0 
    3.1887    0.3512   -0.9810 O   0  0  0  0  0  0  0  0  0  0  0  0 
    3.5748    2.2900    0.1169 O   0  0  0  0  0  0  0  0  0  0  0  0 
    4.6965    2.2951    1.7982 H   0  0  0  0  0  0  0  0  0  0  0  0 
    5.1767    1.0413    0.6046 H   0  0  0  0  0  0  0  0  0  0  0  0 
    3.7088    0.8104    1.5847 H   0  0  0  0  0  0  0  0  0  0  0  0 
    0.2645    4.2454   -4.4202 H   0  0  0  0  0  0  0  0  0  0  0  0 
    1.3284    5.4246   -2.4679 H   0  0  0  0  0  0  0  0  0  0  0  0 
    1.7826    0.6426   -3.0595 H   0  0  0  0  0  0  0  0  0  0  0  0 
  1 13  1  0  0  0  0 
  1 11  1  0  0  0  0 
  2  3  1  0  0  0  0 
  3 15  1  0  0  0  0 
  3  8  2  0  0  0  0 
  4  5  2  0  0  0  0 
  5  8  1  0  0  0  0 
  5  6  1  0  0  0  0 
  6 10  1  0  0  0  0 
  7  2  2  0  0  0  0 
  7  4  1  0  0  0  0 
  9  6  2  0  0  0  0 
 10  1  1  0  0  0  0 
 12  1  1  0  0  0  0 
 14  2  1  0  0  0  0 
 16  4  1  0  0  0  0 
M  END 
>  <HBA> 
4 
 
>  <HBD> 
0 
 
>  <TPSA> 
52.08 
 
>  <cid> 
72662 
 
>  <dipole> 
1.85 
 
>  <excitation_energy_1> 
3.643 
 
>  <excitation_energy_2> 
4.278 
 
>  <excitation_energy_3> 
4.688 
 
>  <excitation_energy_4> 
5.145 
 
>  <homo_energy> 
-6.95 
 
>  <homo_lumo_gap> 
4.939 
 
>  <logP> 
0.263 
 
>  <lumo_energy> 
-2.011 
 
>  <melting_point> 
60.27 
 
>  <molecular_refractivity> 
33.31 
 
>  <oscillator_strength_1> 
0.0027 
 
>  <oscillator_strength_2> 
0.0017 
 
>  <oscillator_strength_3> 
0.0 
 
>  <oscillator_strength_4> 
0.1947 
 
>  <open_babel_can_smiles> 
COC(=O)c1cnccn1 
 
>  <mulliken_charges> 
16 
1   -0.221111 
2   0.040237 
3   0.036353 
4   0.03645 
5   0.203257 
6   0.61031 
7   -0.379677 
8   -0.42554 
9   -0.485267 
10   -0.4382 
11   0.171571 
12   0.173898 
13   0.173378 
14   0.159996 
15   0.157987 
16   0.186359 
 
>  <lowdin_charges> 
16 
1   -0.279572 
2   -0.093686 
3   -0.100899 
4   -0.077487 
5   -0.004758 
6   0.184201 
7   -0.11466 
8   -0.097968 
9   -0.262099 
10   -0.159829 
11   0.16558 
12   0.162506 
13   0.162697 
14   0.16947 
15   0.165342 
16   0.181162 
 
$$$$ 
 
