PCCDB-ID:  46411 
public computational chemistry database (PCCDB) project, http://pccdb.org 
 
 38 37  0  0  0  0  0  0  0  0999 V2000 
    1.0578   -3.4281    2.6562 C   0  0  0  0  0  0  0  0  0  0  0  0 
   -2.2566   -5.4312    0.1497 C   0  0  0  0  0  0  0  0  0  0  0  0 
   -1.7263   -2.9172   -3.3146 C   0  0  0  0  0  0  0  0  0  0  0  0 
   -0.0757    1.1659    0.3587 C   0  0  0  0  0  0  0  0  0  0  0  0 
   -0.4218   -3.0217    2.6801 C   0  0  0  0  0  0  0  0  0  0  0  0 
   -1.1837   -4.8263    1.0700 C   0  0  0  0  0  0  0  0  0  0  0  0 
   -0.7526   -2.9672   -2.1488 C   0  0  0  0  0  0  0  0  0  0  0  0 
   -0.1105   -0.2034   -0.3003 C   0  0  0  0  0  0  0  0  0  0  0  0 
   -2.7126   -2.8553    1.6699 C   0  0  0  0  0  0  0  0  0  0  0  0 
   -0.6900   -2.4698    0.2185 C   0  0  0  0  0  0  0  0  0  0  0  0 
   -1.2540   -3.3040    1.3966 C   0  0  0  0  0  0  0  0  0  0  0  0 
   -3.3213   -3.5485    2.7592 O   0  0  0  0  0  0  0  0  0  0  0  0 
   -1.4700   -2.6438   -0.9584 O   0  0  0  0  0  0  0  0  0  0  0  0 
   -0.6942   -1.1207    0.6168 O   0  0  0  0  0  0  0  0  0  0  0  0 
    1.5277   -3.1807    3.6151 H   0  0  0  0  0  0  0  0  0  0  0  0 
    1.6212   -2.9006    1.8773 H   0  0  0  0  0  0  0  0  0  0  0  0 
    1.1944   -4.5037    2.4975 H   0  0  0  0  0  0  0  0  0  0  0  0 
   -2.2806   -4.9469   -0.8278 H   0  0  0  0  0  0  0  0  0  0  0  0 
   -3.2664   -5.3472    0.5710 H   0  0  0  0  0  0  0  0  0  0  0  0 
   -2.0613   -6.5000    0.0032 H   0  0  0  0  0  0  0  0  0  0  0  0 
   -1.2109   -3.1526   -4.2523 H   0  0  0  0  0  0  0  0  0  0  0  0 
   -2.1698   -1.9199   -3.4011 H   0  0  0  0  0  0  0  0  0  0  0  0 
   -2.5378   -3.6389   -3.1750 H   0  0  0  0  0  0  0  0  0  0  0  0 
   -1.0873    1.4819    0.6331 H   0  0  0  0  0  0  0  0  0  0  0  0 
    0.3456    1.9091   -0.3273 H   0  0  0  0  0  0  0  0  0  0  0  0 
    0.5350    1.1443    1.2670 H   0  0  0  0  0  0  0  0  0  0  0  0 
   -0.4894   -1.9514    2.8991 H   0  0  0  0  0  0  0  0  0  0  0  0 
   -0.9268   -3.5393    3.5035 H   0  0  0  0  0  0  0  0  0  0  0  0 
   -0.1962   -5.0501    0.6451 H   0  0  0  0  0  0  0  0  0  0  0  0 
   -1.2112   -5.3662    2.0262 H   0  0  0  0  0  0  0  0  0  0  0  0 
    0.0708   -2.2557   -2.3074 H   0  0  0  0  0  0  0  0  0  0  0  0 
   -0.3071   -3.9707   -2.0626 H   0  0  0  0  0  0  0  0  0  0  0  0 
    0.9087   -0.5350   -0.5627 H   0  0  0  0  0  0  0  0  0  0  0  0 
   -0.6997   -0.1702   -1.2269 H   0  0  0  0  0  0  0  0  0  0  0  0 
   -3.3124   -2.9524    0.7563 H   0  0  0  0  0  0  0  0  0  0  0  0 
   -2.7157   -1.8011    1.9547 H   0  0  0  0  0  0  0  0  0  0  0  0 
    0.3447   -2.7828   -0.0059 H   0  0  0  0  0  0  0  0  0  0  0  0 
   -3.4721   -4.4639    2.4795 H   0  0  0  0  0  0  0  0  0  0  0  0 
  1  5  1  0  0  0  0 
  1 15  1  0  0  0  0 
  2 19  1  0  0  0  0 
  2  6  1  0  0  0  0 
  3 23  1  0  0  0  0 
  3  7  1  0  0  0  0 
  4 24  1  0  0  0  0 
  4 26  1  0  0  0  0 
  5 27  1  0  0  0  0 
  5 28  1  0  0  0  0 
  6 11  1  0  0  0  0 
  6 30  1  0  0  0  0 
  7 32  1  0  0  0  0 
  7 13  1  0  0  0  0 
  8  4  1  0  0  0  0 
  8 14  1  0  0  0  0 
  9 36  1  0  0  0  0 
  9 12  1  0  0  0  0 
 10 14  1  0  0  0  0 
 10 11  1  0  0  0  0 
 11  9  1  0  0  0  0 
 11  5  1  0  0  0  0 
 13 10  1  0  0  0  0 
 16  1  1  0  0  0  0 
 17  1  1  0  0  0  0 
 18  2  1  0  0  0  0 
 20  2  1  0  0  0  0 
 21  3  1  0  0  0  0 
 22  3  1  0  0  0  0 
 25  4  1  0  0  0  0 
 29  6  1  0  0  0  0 
 31  7  1  0  0  0  0 
 33  8  1  0  0  0  0 
 34  8  1  0  0  0  0 
 35  9  1  0  0  0  0 
 37 10  1  0  0  0  0 
 38 12  1  0  0  0  0 
M  END 
>  <HBA> 
3 
 
>  <HBD> 
1 
 
>  <TPSA> 
38.69 
 
>  <cid> 
46411 
 
>  <dipole> 
3.38 
 
>  <excitation_energy_1> 
6.236 
 
>  <excitation_energy_2> 
6.375 
 
>  <excitation_energy_3> 
6.607 
 
>  <excitation_energy_4> 
6.671 
 
>  <homo_energy> 
-6.762 
 
>  <homo_lumo_gap> 
8.468 
 
>  <logP> 
2.184 
 
>  <lumo_energy> 
1.706 
 
>  <melting_point> 
-10.48 
 
>  <molecular_refractivity> 
58.06 
 
>  <oscillator_strength_1> 
0.0024 
 
>  <oscillator_strength_2> 
0.0097 
 
>  <oscillator_strength_3> 
0.0191 
 
>  <oscillator_strength_4> 
0.0008 
 
>  <open_babel_can_smiles> 
CCOC(C(CO)(CC)CC)OCC 
 
>  <mulliken_charges> 
38 
1   -0.460824 
2   -0.459811 
3   -0.460665 
4   -0.455918 
5   -0.262783 
6   -0.296823 
7   -0.020746 
8   -0.013803 
9   -0.059164 
10   0.383586 
11   0.040802 
12   -0.630961 
13   -0.498245 
14   -0.482992 
15   0.144241 
16   0.139888 
17   0.141409 
18   0.172924 
19   0.127642 
20   0.140194 
21   0.145354 
22   0.160998 
23   0.162293 
24   0.162752 
25   0.142953 
26   0.157722 
27   0.150187 
28   0.148724 
29   0.133808 
30   0.138127 
31   0.128695 
32   0.13049 
33   0.114549 
34   0.138858 
35   0.142677 
36   0.160139 
37   0.099999 
38   0.393723 
 
>  <lowdin_charges> 
38 
1   -0.450513 
2   -0.449905 
3   -0.449482 
4   -0.448988 
5   -0.27888 
6   -0.281017 
7   -0.129789 
8   -0.127412 
9   -0.14191 
10   0.101328 
11   -0.026437 
12   -0.466187 
13   -0.273756 
14   -0.256424 
15   0.151957 
16   0.143772 
17   0.143297 
18   0.159333 
19   0.137168 
20   0.147656 
21   0.155278 
22   0.157406 
23   0.157897 
24   0.158813 
25   0.155003 
26   0.156516 
27   0.150782 
28   0.151984 
29   0.143047 
30   0.144765 
31   0.13113 
32   0.128281 
33   0.12276 
34   0.135243 
35   0.139019 
36   0.154453 
37   0.116941 
38   0.336873 
 
$$$$ 
 
