PCCDB-ID:  33501 
public computational chemistry database (PCCDB) project, http://pccdb.org 
 
 22 23  0  0  1  0  0  0  0  0999 V2000 
   -2.2153    0.2694    0.1175 C   0  0  0  0  0  0  0  0  0  0  0  0 
    2.1348    0.0615    0.2392 C   0  0  0  0  0  0  0  0  0  0  0  0 
   -1.3306    1.3345    0.1074 C   0  0  0  0  0  0  0  0  0  0  0  0 
    1.2948    1.3267   -0.0637 C   0  0  0  0  0  0  0  0  0  0  0  0 
   -1.9493   -2.3581    0.0910 C   0  0  0  0  0  0  0  0  0  0  0  0 
   -1.4579   -0.9416    0.0279 C   0  0  0  0  0  0  0  0  0  0  0  0 
    1.2512   -1.1362   -0.1932 C   0  0  2  0  0  0  0  0  0  0  0  0 
   -0.1302   -0.5583   -0.0337 C   0  0  0  0  0  0  0  0  0  0  0  0 
   -0.0678    0.8080    0.0220 N   0  0  0  0  0  0  0  0  0  0  0  0 
   -1.0015   -3.2910   -0.4605 O   0  0  0  0  0  0  0  0  0  0  0  0 
    1.5245   -2.2730    0.6028 O   0  0  0  0  0  0  0  0  0  0  0  0 
   -3.2920    0.3494    0.2014 H   0  0  0  0  0  0  0  0  0  0  0  0 
    2.2962   -0.0345    1.3176 H   0  0  0  0  0  0  0  0  0  0  0  0 
    3.1090    0.0770   -0.2565 H   0  0  0  0  0  0  0  0  0  0  0  0 
   -1.5035    2.3998    0.1622 H   0  0  0  0  0  0  0  0  0  0  0  0 
    1.4952    1.7238   -1.0678 H   0  0  0  0  0  0  0  0  0  0  0  0 
    1.4568    2.1326    0.6592 H   0  0  0  0  0  0  0  0  0  0  0  0 
   -2.9233   -2.4642   -0.4096 H   0  0  0  0  0  0  0  0  0  0  0  0 
   -2.0855   -2.6939    1.1255 H   0  0  0  0  0  0  0  0  0  0  0  0 
    1.4451   -1.3700   -1.2568 H   0  0  0  0  0  0  0  0  0  0  0  0 
   -0.8825   -3.0516   -1.3941 H   0  0  0  0  0  0  0  0  0  0  0  0 
    0.8137   -2.9100    0.3894 H   0  0  0  0  0  0  0  0  0  0  0  0 
  1 12  1  0  0  0  0 
  2 13  1  0  0  0  0 
  3  1  2  0  0  0  0 
  3 15  1  0  0  0  0 
  4  9  1  0  0  0  0 
  4  2  1  0  0  0  0 
  4 17  1  0  0  0  0 
  5 19  1  0  0  0  0 
  6  5  1  0  0  0  0 
  6  1  1  0  0  0  0 
  7 20  1  6  0  0  0 
  7  8  1  0  0  0  0 
  7  2  1  0  0  0  0 
  7 11  1  0  0  0  0 
  8  9  1  0  0  0  0 
  8  6  2  0  0  0  0 
  9  3  1  0  0  0  0 
 10  5  1  0  0  0  0 
 14  2  1  0  0  0  0 
 16  4  1  0  0  0  0 
 18  5  1  0  0  0  0 
 21 10  1  0  0  0  0 
 22 11  1  0  0  0  0 
M  END 
>  <HBA> 
3 
 
>  <HBD> 
2 
 
>  <TPSA> 
45.39 
 
>  <cid> 
33501 
 
>  <dipole> 
2.81 
 
>  <excitation_energy_1> 
4.804 
 
>  <excitation_energy_2> 
5.205 
 
>  <excitation_energy_3> 
5.475 
 
>  <excitation_energy_4> 
5.527 
 
>  <homo_energy> 
-5.47 
 
>  <homo_lumo_gap> 
6.479 
 
>  <logP> 
0.417 
 
>  <lumo_energy> 
1.01 
 
>  <melting_point> 
74.31 
 
>  <molecular_refractivity> 
40.64 
 
>  <oscillator_strength_1> 
0.0124 
 
>  <oscillator_strength_2> 
0.0131 
 
>  <oscillator_strength_3> 
0.0043 
 
>  <oscillator_strength_4> 
0.02 
 
>  <open_babel_can_smiles> 
OCc1ccn2c1[C@H](O)CC2 
 
>  <mulliken_charges> 
22 
1   -0.240835 
2   -0.316301 
3   0.017346 
4   -0.133924 
5   -0.108258 
6   -0.002394 
7   0.078663 
8   0.267921 
9   -0.425283 
10   -0.623308 
11   -0.65182 
12   0.118752 
13   0.176176 
14   0.150476 
15   0.139627 
16   0.157797 
17   0.162166 
18   0.138949 
19   0.167841 
20   0.113236 
21   0.396585 
22   0.416587 
 
>  <lowdin_charges> 
22 
1   -0.216139 
2   -0.280367 
3   -0.160546 
4   -0.188698 
5   -0.123722 
6   -0.100535 
7   -0.001237 
8   -0.033468 
9   -0.006859 
10   -0.460083 
11   -0.472762 
12   0.154744 
13   0.164163 
14   0.154876 
15   0.160447 
16   0.147503 
17   0.157197 
18   0.138381 
19   0.155874 
20   0.120859 
21   0.344745 
22   0.345628 
 
$$$$ 
 
