PCCDB-ID:  53231 
public computational chemistry database (PCCDB) project, http://pccdb.org 
 
 39 39  0  0  0  0  0  0  0  0999 V2000 
    2.7843   -3.5185   -2.0060 C   0  0  0  0  0  0  0  0  0  0  0  0 
    3.0740   -3.2122    2.4565 C   0  0  0  0  0  0  0  0  0  0  0  0 
    4.1073    3.0601    1.3837 C   0  0  0  0  0  0  0  0  0  0  0  0 
    5.0088    1.3727   -3.3355 C   0  0  0  0  0  0  0  0  0  0  0  0 
    3.6815   -3.0734   -0.8455 C   0  0  0  0  0  0  0  0  0  0  0  0 
    2.2374   -2.9476    1.2023 C   0  0  0  0  0  0  0  0  0  0  0  0 
    6.7528    4.0001   -1.1977 C   0  0  0  0  0  0  0  0  0  0  0  0 
    5.9814    3.9711   -0.0373 C   0  0  0  0  0  0  0  0  0  0  0  0 
    6.4429    3.1316   -2.2410 C   0  0  0  0  0  0  0  0  0  0  0  0 
    3.8030   -0.1582   -0.9272 C   0  0  0  0  0  0  0  0  0  0  0  0 
    4.9235    3.0702    0.1107 C   0  0  0  0  0  0  0  0  0  0  0  0 
    5.3808    2.2262   -2.1449 C   0  0  0  0  0  0  0  0  0  0  0  0 
    3.0191   -0.8874    0.1805 C   0  0  0  0  0  0  0  0  0  0  0  0 
    4.6302    2.1768   -0.9480 C   0  0  0  0  0  0  0  0  0  0  0  0 
    3.5524    1.2717   -0.8273 N   0  0  0  0  0  0  0  0  0  0  0  0 
    2.9892   -2.2509    0.1493 N   0  0  0  0  0  0  0  0  0  0  0  0 
    2.4412   -0.2430    1.0581 O   0  0  0  0  0  0  0  0  0  0  0  0 
    3.3425   -4.1668   -2.6910 H   0  0  0  0  0  0  0  0  0  0  0  0 
    2.4153   -2.6572   -2.5728 H   0  0  0  0  0  0  0  0  0  0  0  0 
    1.9163   -4.0791   -1.6427 H   0  0  0  0  0  0  0  0  0  0  0  0 
    2.4788   -3.7508    3.2029 H   0  0  0  0  0  0  0  0  0  0  0  0 
    3.4013   -2.2660    2.8969 H   0  0  0  0  0  0  0  0  0  0  0  0 
    3.9601   -3.8170    2.2308 H   0  0  0  0  0  0  0  0  0  0  0  0 
    4.5625    3.7079    2.1390 H   0  0  0  0  0  0  0  0  0  0  0  0 
    4.0154    2.0541    1.8108 H   0  0  0  0  0  0  0  0  0  0  0  0 
    3.0838    3.4262    1.2192 H   0  0  0  0  0  0  0  0  0  0  0  0 
    3.9205    1.3471   -3.4656 H   0  0  0  0  0  0  0  0  0  0  0  0 
    5.3473    0.3319   -3.2431 H   0  0  0  0  0  0  0  0  0  0  0  0 
    5.4549    1.7746   -4.2509 H   0  0  0  0  0  0  0  0  0  0  0  0 
    4.5508   -2.5305   -1.2243 H   0  0  0  0  0  0  0  0  0  0  0  0 
    4.0800   -3.9524   -0.3246 H   0  0  0  0  0  0  0  0  0  0  0  0 
    1.3724   -2.3309    1.4542 H   0  0  0  0  0  0  0  0  0  0  0  0 
    1.8688   -3.8883    0.7782 H   0  0  0  0  0  0  0  0  0  0  0  0 
    7.5779    4.7008   -1.2923 H   0  0  0  0  0  0  0  0  0  0  0  0 
    6.2076    4.6517    0.7807 H   0  0  0  0  0  0  0  0  0  0  0  0 
    7.0179    3.1676   -3.1640 H   0  0  0  0  0  0  0  0  0  0  0  0 
    3.5085   -0.5582   -1.9065 H   0  0  0  0  0  0  0  0  0  0  0  0 
    4.8737   -0.3865   -0.8044 H   0  0  0  0  0  0  0  0  0  0  0  0 
    2.9933    1.4272    0.0074 H   0  0  0  0  0  0  0  0  0  0  0  0 
  1 20  1  0  0  0  0 
  1  5  1  0  0  0  0 
  2 22  1  0  0  0  0 
  2 21  1  0  0  0  0 
  3 25  1  0  0  0  0 
  3 24  1  0  0  0  0 
  4 28  1  0  0  0  0 
  4 12  1  0  0  0  0 
  5 31  1  0  0  0  0 
  5 16  1  0  0  0  0 
  6 32  1  0  0  0  0 
  6  2  1  0  0  0  0 
  7  8  2  0  0  0  0 
  8 11  1  0  0  0  0 
  8 35  1  0  0  0  0 
  9 12  2  0  0  0  0 
  9  7  1  0  0  0  0 
 10 15  1  0  0  0  0 
 10 38  1  0  0  0  0 
 10 13  1  0  0  0  0 
 11  3  1  0  0  0  0 
 12 14  1  0  0  0  0 
 13 17  2  0  0  0  0 
 14 15  1  0  0  0  0 
 14 11  2  0  0  0  0 
 15 39  1  0  0  0  0 
 16 13  1  0  0  0  0 
 16  6  1  0  0  0  0 
 18  1  1  0  0  0  0 
 19  1  1  0  0  0  0 
 23  2  1  0  0  0  0 
 26  3  1  0  0  0  0 
 27  4  1  0  0  0  0 
 29  4  1  0  0  0  0 
 30  5  1  0  0  0  0 
 33  6  1  0  0  0  0 
 34  7  1  0  0  0  0 
 36  9  1  0  0  0  0 
 37 10  1  0  0  0  0 
M  END 
>  <HBA> 
3 
 
>  <HBD> 
1 
 
>  <TPSA> 
32.34 
 
>  <cid> 
53231 
 
>  <dipole> 
4.45 
 
>  <excitation_energy_1> 
4.583 
 
>  <excitation_energy_2> 
4.709 
 
>  <excitation_energy_3> 
4.813 
 
>  <excitation_energy_4> 
5.113 
 
>  <homo_energy> 
-5.176 
 
>  <homo_lumo_gap> 
5.636 
 
>  <logP> 
2.657 
 
>  <lumo_energy> 
0.46 
 
>  <melting_point> 
68.25 
 
>  <molecular_refractivity> 
72.81 
 
>  <oscillator_strength_1> 
0.0113 
 
>  <oscillator_strength_2> 
0.0233 
 
>  <oscillator_strength_3> 
0.0091 
 
>  <oscillator_strength_4> 
0.0379 
 
>  <open_babel_can_smiles> 
CCN(C(=O)CNc1c(C)cccc1C)CC 
 
>  <mulliken_charges> 
39 
1   -0.444028 
2   -0.445611 
3   -0.559579 
4   -0.532084 
5   -0.159503 
6   -0.146743 
7   -0.121861 
8   -0.206018 
9   -0.20556 
10   -0.212563 
11   0.164049 
12   0.165795 
13   0.583661 
14   0.160038 
15   -0.663232 
16   -0.407382 
17   -0.533464 
18   0.152664 
19   0.162623 
20   0.158174 
21   0.14901 
22   0.176757 
23   0.142603 
24   0.151766 
25   0.173648 
26   0.162179 
27   0.169934 
28   0.142717 
29   0.150355 
30   0.164718 
31   0.1581 
32   0.184538 
33   0.14151 
34   0.116516 
35   0.113821 
36   0.112361 
37   0.161864 
38   0.165112 
39   0.353116 
 
>  <lowdin_charges> 
39 
1   -0.456199 
2   -0.452811 
3   -0.450981 
4   -0.440227 
5   -0.198667 
6   -0.195137 
7   -0.177426 
8   -0.170085 
9   -0.169581 
10   -0.225704 
11   -0.029704 
12   -0.029938 
13   0.15665 
14   0.02997 
15   -0.319516 
16   -0.098519 
17   -0.325171 
18   0.158531 
19   0.156894 
20   0.15592 
21   0.156756 
22   0.165297 
23   0.147167 
24   0.158101 
25   0.16324 
26   0.15723 
27   0.161374 
28   0.146853 
29   0.155354 
30   0.158464 
31   0.153721 
32   0.170863 
33   0.145453 
34   0.153178 
35   0.15148 
36   0.149959 
37   0.151421 
38   0.153427 
39   0.282363 
 
$$$$ 
 
