PCCDB-ID:  12115 
public computational chemistry database (PCCDB) project, http://pccdb.org 
 
 24 24  0  0  0  0  0  0  0  0999 V2000 
    0.8406    0.1168    3.7768 C   0  0  0  0  0  0  0  0  0  0  0  0 
    1.8226    0.6896    2.7531 C   0  0  0  0  0  0  0  0  0  0  0  0 
    4.9866    4.4072    1.2019 C   0  0  0  0  0  0  0  0  0  0  0  0 
    3.7200    3.9699    0.8124 C   0  0  0  0  0  0  0  0  0  0  0  0 
    5.9644    3.4636    1.5253 C   0  0  0  0  0  0  0  0  0  0  0  0 
    3.4259    2.6083    0.7390 C   0  0  0  0  0  0  0  0  0  0  0  0 
    5.6761    2.1019    1.4739 C   0  0  0  0  0  0  0  0  0  0  0  0 
    4.4030    1.6632    1.0810 C   0  0  0  0  0  0  0  0  0  0  0  0 
    2.9265   -0.3462    0.9123 C   0  0  0  0  0  0  0  0  0  0  0  0 
    1.8566   -0.1647    1.5762 N   0  0  0  0  0  0  0  0  0  0  0  0 
    4.1689    0.2696    1.0012 N   0  0  0  0  0  0  0  0  0  0  0  0 
    2.9737   -1.3313   -0.0334 O   0  0  0  0  0  0  0  0  0  0  0  0 
    0.7803    0.7639    4.6598 H   0  0  0  0  0  0  0  0  0  0  0  0 
    1.1558   -0.8808    4.1018 H   0  0  0  0  0  0  0  0  0  0  0  0 
   -0.1601    0.0276    3.3411 H   0  0  0  0  0  0  0  0  0  0  0  0 
    2.8179    0.8000    3.2103 H   0  0  0  0  0  0  0  0  0  0  0  0 
    1.4996    1.7033    2.4741 H   0  0  0  0  0  0  0  0  0  0  0  0 
    5.2107    5.4688    1.2502 H   0  0  0  0  0  0  0  0  0  0  0  0 
    2.9528    4.6919    0.5453 H   0  0  0  0  0  0  0  0  0  0  0  0 
    6.9564    3.7872    1.8291 H   0  0  0  0  0  0  0  0  0  0  0  0 
    2.4501    2.2737    0.4030 H   0  0  0  0  0  0  0  0  0  0  0  0 
    6.4314    1.3689    1.7462 H   0  0  0  0  0  0  0  0  0  0  0  0 
    4.9095   -0.2664    0.5656 H   0  0  0  0  0  0  0  0  0  0  0  0 
    2.1346   -1.8146    0.0715 H   0  0  0  0  0  0  0  0  0  0  0  0 
  1 14  1  0  0  0  0 
  1 13  1  0  0  0  0 
  2 16  1  0  0  0  0 
  2  1  1  0  0  0  0 
  3 18  1  0  0  0  0 
  3  5  2  0  0  0  0 
  4  3  1  0  0  0  0 
  5 20  1  0  0  0  0 
  6  4  2  0  0  0  0 
  6  8  1  0  0  0  0 
  7  5  1  0  0  0  0 
  7 22  1  0  0  0  0 
  8  7  2  0  0  0  0 
  9 11  1  0  0  0  0 
  9 10  2  0  0  0  0 
 10  2  1  0  0  0  0 
 11  8  1  0  0  0  0 
 12 24  1  0  0  0  0 
 12  9  1  0  0  0  0 
 15  1  1  0  0  0  0 
 17  2  1  0  0  0  0 
 19  4  1  0  0  0  0 
 21  6  1  0  0  0  0 
 23 11  1  0  0  0  0 
M  END 
>  <HBA> 
3 
 
>  <HBD> 
2 
 
>  <TPSA> 
41.13 
 
>  <cid> 
12115 
 
>  <dipole> 
1.24 
 
>  <excitation_energy_1> 
4.789 
 
>  <excitation_energy_2> 
5.054 
 
>  <excitation_energy_3> 
5.353 
 
>  <excitation_energy_4> 
5.644 
 
>  <homo_energy> 
-5.812 
 
>  <homo_lumo_gap> 
5.704 
 
>  <logP> 
2.292 
 
>  <lumo_energy> 
-0.109 
 
>  <melting_point> 
95.44 
 
>  <molecular_refractivity> 
48.75 
 
>  <oscillator_strength_1> 
0.0185 
 
>  <oscillator_strength_2> 
0.2198 
 
>  <oscillator_strength_3> 
0.0247 
 
>  <oscillator_strength_4> 
0.0024 
 
>  <open_babel_can_smiles> 
CC/N=C(/Nc1ccccc1)\O 
 
>  <mulliken_charges> 
24 
1   -0.432387 
2   -0.141701 
3   -0.128807 
4   -0.145272 
5   -0.135017 
6   -0.159846 
7   -0.177303 
8   0.318558 
9   0.634261 
10   -0.460011 
11   -0.701765 
12   -0.605495 
13   0.134283 
14   0.143935 
15   0.149983 
16   0.138799 
17   0.13836 
18   0.128633 
19   0.133554 
20   0.132018 
21   0.151752 
22   0.128272 
23   0.342311 
24   0.412887 
 
>  <lowdin_charges> 
24 
1   -0.444541 
2   -0.194461 
3   -0.170224 
4   -0.148491 
5   -0.14651 
6   -0.183081 
7   -0.187254 
8   0.056109 
9   0.154384 
10   -0.269479 
11   -0.266691 
12   -0.385492 
13   0.146796 
14   0.148255 
15   0.151653 
16   0.135697 
17   0.139504 
18   0.156795 
19   0.160938 
20   0.158723 
21   0.169543 
22   0.159121 
23   0.296381 
24   0.362325 
 
$$$$ 
 
