PCCDB-ID:  58268 
public computational chemistry database (PCCDB) project, http://pccdb.org 
 
 33 33  0  0  0  0  0  0  0  0999 V2000 
    1.1132   -0.1624   -0.3012 C   0  0  0  0  0  0  0  0  0  0  0  0 
    0.5153    0.0818    2.0856 C   0  0  0  0  0  0  0  0  0  0  0  0 
    4.1611   -5.0804    5.8543 C   0  0  0  0  0  0  0  0  0  0  0  0 
    4.4090   -3.7060    5.8420 C   0  0  0  0  0  0  0  0  0  0  0  0 
    4.3964   -5.8331    4.7029 C   0  0  0  0  0  0  0  0  0  0  0  0 
    4.8945   -3.0887    4.6891 C   0  0  0  0  0  0  0  0  0  0  0  0 
    4.8740   -5.2122    3.5475 C   0  0  0  0  0  0  0  0  0  0  0  0 
    5.1372    0.2234    1.0086 C   0  0  0  0  0  0  0  0  0  0  0  0 
    5.8133   -1.1411    1.1066 C   0  0  0  0  0  0  0  0  0  0  0  0 
    5.7013   -3.1843    2.2907 C   0  0  0  0  0  0  0  0  0  0  0  0 
    2.8398    0.2772    1.3615 C   0  0  0  0  0  0  0  0  0  0  0  0 
    5.1316   -3.8372    3.5300 C   0  0  0  0  0  0  0  0  0  0  0  0 
    3.7806    0.1047    0.5137 N   0  0  0  0  0  0  0  0  0  0  0  0 
    1.5069    0.2332    1.0393 N   0  0  0  0  0  0  0  0  0  0  0  0 
    5.2261   -1.8571    2.1806 O   0  0  0  0  0  0  0  0  0  0  0  0 
    0.1480    0.2949   -0.5465 H   0  0  0  0  0  0  0  0  0  0  0  0 
    1.0183   -1.2552   -0.3977 H   0  0  0  0  0  0  0  0  0  0  0  0 
    1.8735    0.1784   -1.0049 H   0  0  0  0  0  0  0  0  0  0  0  0 
   -0.3838    0.6608    1.8411 H   0  0  0  0  0  0  0  0  0  0  0  0 
    0.9162    0.4552    3.0323 H   0  0  0  0  0  0  0  0  0  0  0  0 
    0.2154   -0.9686    2.2305 H   0  0  0  0  0  0  0  0  0  0  0  0 
    3.7830   -5.5602    6.7533 H   0  0  0  0  0  0  0  0  0  0  0  0 
    4.2234   -3.1124    6.7337 H   0  0  0  0  0  0  0  0  0  0  0  0 
    4.2005   -6.9023    4.6998 H   0  0  0  0  0  0  0  0  0  0  0  0 
    5.0814   -2.0199    4.6722 H   0  0  0  0  0  0  0  0  0  0  0  0 
    5.0446   -5.8023    2.6493 H   0  0  0  0  0  0  0  0  0  0  0  0 
    5.7224    0.8388    0.3110 H   0  0  0  0  0  0  0  0  0  0  0  0 
    5.1982    0.7055    2.0010 H   0  0  0  0  0  0  0  0  0  0  0  0 
    6.8971   -1.0183    1.2780 H   0  0  0  0  0  0  0  0  0  0  0  0 
    5.6775   -1.6869    0.1595 H   0  0  0  0  0  0  0  0  0  0  0  0 
    5.4305   -3.7689    1.3954 H   0  0  0  0  0  0  0  0  0  0  0  0 
    6.8062   -3.1816    2.3426 H   0  0  0  0  0  0  0  0  0  0  0  0 
    3.0176    0.5107    2.4212 H   0  0  0  0  0  0  0  0  0  0  0  0 
  1 14  1  0  0  0  0 
  2 21  1  0  0  0  0 
  2 20  1  0  0  0  0 
  3 22  1  0  0  0  0 
  4  3  1  0  0  0  0 
  4 23  1  0  0  0  0 
  5  3  2  0  0  0  0 
  6  4  2  0  0  0  0 
  7  5  1  0  0  0  0 
  8  9  1  0  0  0  0 
  8 28  1  0  0  0  0 
  9 29  1  0  0  0  0 
  9 15  1  0  0  0  0 
 10 32  1  0  0  0  0 
 10 12  1  0  0  0  0 
 11 33  1  0  0  0  0 
 12  7  2  0  0  0  0 
 12  6  1  0  0  0  0 
 13  8  1  0  0  0  0 
 13 11  2  0  0  0  0 
 14 11  1  0  0  0  0 
 14  2  1  0  0  0  0 
 15 10  1  0  0  0  0 
 16  1  1  0  0  0  0 
 17  1  1  0  0  0  0 
 18  1  1  0  0  0  0 
 19  2  1  0  0  0  0 
 24  5  1  0  0  0  0 
 25  6  1  0  0  0  0 
 26  7  1  0  0  0  0 
 27  8  1  0  0  0  0 
 30  9  1  0  0  0  0 
 31 10  1  0  0  0  0 
M  END 
>  <HBA> 
3 
 
>  <HBD> 
0 
 
>  <TPSA> 
24.83 
 
>  <cid> 
58268 
 
>  <dipole> 
1.19 
 
>  <excitation_energy_1> 
4.977 
 
>  <excitation_energy_2> 
5.023 
 
>  <excitation_energy_3> 
5.147 
 
>  <excitation_energy_4> 
5.282 
 
>  <homo_energy> 
-5.524 
 
>  <homo_lumo_gap> 
5.636 
 
>  <logP> 
1.793 
 
>  <lumo_energy> 
0.112 
 
>  <melting_point> 
15.38 
 
>  <molecular_refractivity> 
63.11 
 
>  <oscillator_strength_1> 
0.002 
 
>  <oscillator_strength_2> 
0.0007 
 
>  <oscillator_strength_3> 
0.01 
 
>  <oscillator_strength_4> 
0.0003 
 
>  <open_babel_can_smiles> 
CN(/C=N/CCOCc1ccccc1)C 
 
>  <mulliken_charges> 
33 
1   -0.305333 
2   -0.306731 
3   -0.128546 
4   -0.13335 
5   -0.129646 
6   -0.162629 
7   -0.181291 
8   -0.154664 
9   -0.001148 
10   -0.068439 
11   0.274825 
12   0.127995 
13   -0.438395 
14   -0.374671 
15   -0.477894 
16   0.142985 
17   0.147514 
18   0.192886 
19   0.154502 
20   0.160647 
21   0.152509 
22   0.125842 
23   0.126193 
24   0.126884 
25   0.139672 
26   0.121374 
27   0.13522 
28   0.118773 
29   0.111837 
30   0.129433 
31   0.128968 
32   0.131931 
33   0.112748 
 
>  <lowdin_charges> 
33 
1   -0.350821 
2   -0.346409 
3   -0.161717 
4   -0.156753 
5   -0.154214 
6   -0.155315 
7   -0.167749 
8   -0.202164 
9   -0.133174 
10   -0.121666 
11   -0.029672 
12   -0.011024 
13   -0.254787 
14   -0.106175 
15   -0.270332 
16   0.147712 
17   0.141261 
18   0.178539 
19   0.150495 
20   0.158801 
21   0.141368 
22   0.15646 
23   0.156203 
24   0.154454 
25   0.162296 
26   0.154196 
27   0.146535 
28   0.126164 
29   0.122355 
30   0.133487 
31   0.134428 
32   0.131611 
33   0.125607 
 
$$$$ 
 
