PCCDB-ID:  11840 
public computational chemistry database (PCCDB) project, http://pccdb.org 
 
 19 20  0  0  0  0  0  0  0  0999 V2000 
    1.0055   -0.0575   -0.0386 C   0  0  0  0  0  0  0  0  0  0  0  0 
    3.3270   -1.0874   -0.0408 C   0  0  0  0  0  0  0  0  0  0  0  0 
    4.7283   -1.0289   -0.0411 C   0  0  0  0  0  0  0  0  0  0  0  0 
    3.1385    1.3121   -0.0558 C   0  0  0  0  0  0  0  0  0  0  0  0 
    2.5129    0.0562   -0.0475 C   0  0  0  0  0  0  0  0  0  0  0  0 
    4.5262    1.3900   -0.0560 C   0  0  0  0  0  0  0  0  0  0  0  0 
    5.3192    0.2256   -0.0482 C   0  0  0  0  0  0  0  0  0  0  0  0 
    5.4314    2.5509   -0.0645 C   0  0  0  0  0  0  0  0  0  0  0  0 
    6.8790    1.9375   -0.0631 C   0  0  0  0  0  0  0  0  0  0  0  0 
    6.6814    0.5654   -0.0493 N   0  0  0  0  0  0  0  0  0  0  0  0 
    5.1899    3.7379   -0.0709 O   0  0  0  0  0  0  0  0  0  0  0  0 
    7.9362    2.5253   -0.0732 O   0  0  0  0  0  0  0  0  0  0  0  0 
    0.6835   -1.1002   -0.1220 H   0  0  0  0  0  0  0  0  0  0  0  0 
    0.5567    0.4979   -0.8707 H   0  0  0  0  0  0  0  0  0  0  0  0 
    0.5783    0.3480    0.8871 H   0  0  0  0  0  0  0  0  0  0  0  0 
    2.8521   -2.0655   -0.0359 H   0  0  0  0  0  0  0  0  0  0  0  0 
    5.3209   -1.9391   -0.0368 H   0  0  0  0  0  0  0  0  0  0  0  0 
    2.5538    2.2289   -0.0629 H   0  0  0  0  0  0  0  0  0  0  0  0 
    7.4454   -0.0962   -0.0570 H   0  0  0  0  0  0  0  0  0  0  0  0 
  1 15  1  0  0  0  0 
  2 16  1  0  0  0  0 
  3  2  1  0  0  0  0 
  3 17  1  0  0  0  0 
  4  5  1  0  0  0  0 
  5  2  2  0  0  0  0 
  5  1  1  0  0  0  0 
  6  4  2  0  0  0  0 
  6  7  1  0  0  0  0 
  7  3  2  0  0  0  0 
  8  9  1  0  0  0  0 
  8  6  1  0  0  0  0 
  9 10  1  0  0  0  0 
 10  7  1  0  0  0  0 
 11  8  2  0  0  0  0 
 12  9  2  0  0  0  0 
 13  1  1  0  0  0  0 
 14  1  1  0  0  0  0 
 18  4  1  0  0  0  0 
 19 10  1  0  0  0  0 
M  END 
>  <HBA> 
3 
 
>  <HBD> 
1 
 
>  <TPSA> 
46.17 
 
>  <cid> 
11840 
 
>  <dipole> 
6.13 
 
>  <excitation_energy_1> 
2.683 
 
>  <excitation_energy_2> 
2.938 
 
>  <excitation_energy_3> 
4.336 
 
>  <excitation_energy_4> 
4.357 
 
>  <homo_energy> 
-6.343 
 
>  <homo_lumo_gap> 
3.763 
 
>  <logP> 
1.268 
 
>  <lumo_energy> 
-2.58 
 
>  <melting_point> 
123.24 
 
>  <molecular_refractivity> 
47.12 
 
>  <oscillator_strength_1> 
0.0 
 
>  <oscillator_strength_2> 
0.0214 
 
>  <oscillator_strength_3> 
0.0655 
 
>  <oscillator_strength_4> 
0.0001 
 
>  <open_babel_can_smiles> 
Cc1ccc2c(c1)C(=O)C(=O)N2 
 
>  <mulliken_charges> 
19 
1   -0.530262 
2   -0.182109 
3   -0.174292 
4   -0.223819 
5   0.167901 
6   0.070655 
7   0.33983 
8   0.314867 
9   0.575074 
10   -0.745142 
11   -0.429932 
12   -0.454879 
13   0.157907 
14   0.168792 
15   0.170321 
16   0.138161 
17   0.141145 
18   0.157372 
19   0.33841 
 
>  <lowdin_charges> 
19 
1   -0.441947 
2   -0.131345 
3   -0.191586 
4   -0.11848 
5   -0.012276 
6   -0.078685 
7   0.070545 
8   0.122915 
9   0.141965 
10   -0.249421 
11   -0.179297 
12   -0.221795 
13   0.157658 
14   0.165018 
15   0.164806 
16   0.162698 
17   0.165639 
18   0.174261 
19   0.299326 
 
$$$$ 
 
