PCCDB-ID:  12330 
public computational chemistry database (PCCDB) project, http://pccdb.org 
 
 24 23  0  0  0  0  0  0  0  0999 V2000 
    1.0735    0.0384    0.5593 C   0  0  0  0  0  0  0  0  0  0  0  0 
    6.0493    3.8426   -1.4182 C   0  0  0  0  0  0  0  0  0  0  0  0 
    5.4084    4.0094   -3.8679 C   0  0  0  0  0  0  0  0  0  0  0  0 
    2.5576    0.1324    0.1904 C   0  0  0  0  0  0  0  0  0  0  0  0 
    2.8339    1.1109   -0.9580 C   0  0  0  0  0  0  0  0  0  0  0  0 
    4.3252    1.2016   -1.3367 C   0  0  0  0  0  0  0  0  0  0  0  0 
    4.5733    2.1041   -2.5157 C   0  0  0  0  0  0  0  0  0  0  0  0 
    5.2945    3.2345   -2.5757 C   0  0  0  0  0  0  0  0  0  0  0  0 
    0.9083   -0.6698    1.3794 H   0  0  0  0  0  0  0  0  0  0  0  0 
    0.4731   -0.2960   -0.2958 H   0  0  0  0  0  0  0  0  0  0  0  0 
    0.6814    1.0127    0.8761 H   0  0  0  0  0  0  0  0  0  0  0  0 
    7.1223    3.9089   -1.6470 H   0  0  0  0  0  0  0  0  0  0  0  0 
    5.9412    3.2818   -0.4870 H   0  0  0  0  0  0  0  0  0  0  0  0 
    5.7096    4.8712   -1.2322 H   0  0  0  0  0  0  0  0  0  0  0  0 
    5.0167    5.0304   -3.7542 H   0  0  0  0  0  0  0  0  0  0  0  0 
    4.8616    3.5262   -4.6838 H   0  0  0  0  0  0  0  0  0  0  0  0 
    6.4582    4.1138   -4.1774 H   0  0  0  0  0  0  0  0  0  0  0  0 
    2.9308   -0.8644   -0.0855 H   0  0  0  0  0  0  0  0  0  0  0  0 
    3.1352    0.4386    1.0743 H   0  0  0  0  0  0  0  0  0  0  0  0 
    2.4728    2.1122   -0.6843 H   0  0  0  0  0  0  0  0  0  0  0  0 
    2.2524    0.8087   -1.8414 H   0  0  0  0  0  0  0  0  0  0  0  0 
    4.6833    0.1884   -1.5796 H   0  0  0  0  0  0  0  0  0  0  0  0 
    4.9008    1.5218   -0.4606 H   0  0  0  0  0  0  0  0  0  0  0  0 
    4.0783    1.7827   -3.4348 H   0  0  0  0  0  0  0  0  0  0  0  0 
  1 11  1  0  0  0  0 
  1  9  1  0  0  0  0 
  2 14  1  0  0  0  0 
  2 13  1  0  0  0  0 
  3 15  1  0  0  0  0 
  3  8  1  0  0  0  0 
  4  1  1  0  0  0  0 
  4 19  1  0  0  0  0 
  5 20  1  0  0  0  0 
  5  4  1  0  0  0  0 
  6  5  1  0  0  0  0 
  6 23  1  0  0  0  0 
  7  6  1  0  0  0  0 
  8  7  2  0  0  0  0 
  8  2  1  0  0  0  0 
 10  1  1  0  0  0  0 
 12  2  1  0  0  0  0 
 16  3  1  0  0  0  0 
 17  3  1  0  0  0  0 
 18  4  1  0  0  0  0 
 21  5  1  0  0  0  0 
 22  6  1  0  0  0  0 
 24  7  1  0  0  0  0 
M  END 
>  <HBA> 
0 
 
>  <HBD> 
0 
 
>  <TPSA> 
0.0 
 
>  <cid> 
12330 
 
>  <dipole> 
0.21 
 
>  <excitation_energy_1> 
5.73 
 
>  <excitation_energy_2> 
6.166 
 
>  <excitation_energy_3> 
6.256 
 
>  <excitation_energy_4> 
6.344 
 
>  <homo_energy> 
-6.128 
 
>  <homo_lumo_gap> 
7.105 
 
>  <logP> 
3.143 
 
>  <lumo_energy> 
0.977 
 
>  <melting_point> 
-14.68 
 
>  <molecular_refractivity> 
40.1 
 
>  <oscillator_strength_1> 
0.0039 
 
>  <oscillator_strength_2> 
0.0033 
 
>  <oscillator_strength_3> 
0.104 
 
>  <oscillator_strength_4> 
0.0731 
 
>  <open_babel_can_smiles> 
CCCCC=C(C)C 
 
>  <mulliken_charges> 
24 
1   -0.441168 
2   -0.512342 
3   -0.505477 
4   -0.246602 
5   -0.24377 
6   -0.299953 
7   -0.160282 
8   0.186977 
9   0.14117 
10   0.141229 
11   0.141683 
12   0.150957 
13   0.153611 
14   0.150109 
15   0.147816 
16   0.150106 
17   0.147401 
18   0.129732 
19   0.129636 
20   0.133404 
21   0.127664 
22   0.135994 
23   0.134302 
24   0.107802 
 
>  <lowdin_charges> 
24 
1   -0.445514 
2   -0.441687 
3   -0.43782 
4   -0.272816 
5   -0.272607 
6   -0.273728 
7   -0.190452 
8   -0.012294 
9   0.149524 
10   0.146928 
11   0.146293 
12   0.152866 
13   0.154865 
14   0.153111 
15   0.15065 
16   0.154629 
17   0.150192 
18   0.137909 
19   0.138919 
20   0.140228 
21   0.138357 
22   0.144402 
23   0.144102 
24   0.143943 
 
$$$$ 
 
