PCCDB-ID:  17007 
public computational chemistry database (PCCDB) project, http://pccdb.org 
 
 18 18  0  0  0  0  0  0  0  0999 V2000 
   -2.0177   -1.5051    0.4471 C   0  0  0  0  0  0  0  0  0  0  0  0 
   -0.7961   -2.1893    0.1740 C   0  0  0  0  0  0  0  0  0  0  0  0 
   -1.6876   -0.1959    0.6436 C   0  0  0  0  0  0  0  0  0  0  0  0 
    1.6295   -1.2636    0.0465 C   0  0  0  0  0  0  0  0  0  0  0  0 
    0.1981   -1.2443    0.2238 C   0  0  0  0  0  0  0  0  0  0  0  0 
    4.3161   -3.4497   -0.6319 C   0  0  0  0  0  0  0  0  0  0  0  0 
    3.9074   -4.6439   -0.7709 N   0  0  0  0  0  0  0  0  0  0  0  0 
    2.2567   -2.3575   -0.2144 N   0  0  0  0  0  0  0  0  0  0  0  0 
    3.5953   -2.2933   -0.3718 N   0  0  0  0  0  0  0  0  0  0  0  0 
    5.6314   -3.1246   -0.7307 O   0  0  0  0  0  0  0  0  0  0  0  0 
   -0.3456   -0.0167    0.5114 O   0  0  0  0  0  0  0  0  0  0  0  0 
   -3.0104   -1.9308    0.4919 H   0  0  0  0  0  0  0  0  0  0  0  0 
   -0.6571   -3.2402   -0.0341 H   0  0  0  0  0  0  0  0  0  0  0  0 
   -2.2580    0.6908    0.8739 H   0  0  0  0  0  0  0  0  0  0  0  0 
    2.1419   -0.2993    0.1456 H   0  0  0  0  0  0  0  0  0  0  0  0 
    2.8941   -4.6880   -0.6634 H   0  0  0  0  0  0  0  0  0  0  0  0 
    4.0999   -1.4154   -0.2737 H   0  0  0  0  0  0  0  0  0  0  0  0 
    6.0831   -3.9663   -0.9163 H   0  0  0  0  0  0  0  0  0  0  0  0 
  1 12  1  0  0  0  0 
  1  3  2  0  0  0  0 
  2  5  2  0  0  0  0 
  2  1  1  0  0  0  0 
  3 14  1  0  0  0  0 
  4 15  1  0  0  0  0 
  4  5  1  0  0  0  0 
  5 11  1  0  0  0  0 
  6  9  1  0  0  0  0 
  7 16  1  0  0  0  0 
  7  6  2  0  0  0  0 
  8  4  2  0  0  0  0 
  9 17  1  0  0  0  0 
  9  8  1  0  0  0  0 
 10  6  1  0  0  0  0 
 11  3  1  0  0  0  0 
 13  2  1  0  0  0  0 
 18 10  1  0  0  0  0 
M  END 
>  <HBA> 
5 
 
>  <HBD> 
2 
 
>  <TPSA> 
80.62 
 
>  <cid> 
17007 
 
>  <dipole> 
2.69 
 
>  <excitation_energy_1> 
4.025 
 
>  <excitation_energy_2> 
5.042 
 
>  <excitation_energy_3> 
5.05 
 
>  <excitation_energy_4> 
5.393 
 
>  <homo_energy> 
-5.57 
 
>  <homo_lumo_gap> 
4.321 
 
>  <logP> 
1.373 
 
>  <lumo_energy> 
-1.249 
 
>  <melting_point> 
136.73 
 
>  <molecular_refractivity> 
38.26 
 
>  <oscillator_strength_1> 
0.6352 
 
>  <oscillator_strength_2> 
0.0421 
 
>  <oscillator_strength_3> 
0.0001 
 
>  <oscillator_strength_4> 
0.0059 
 
>  <open_babel_can_smiles> 
OC(=N)N/N=C/c1ccco1 
 
>  <mulliken_charges> 
18 
1   -0.183597 
2   -0.186224 
3   0.092124 
4   0.001569 
5   0.340724 
6   0.675901 
7   -0.651097 
8   -0.229267 
9   -0.462298 
10   -0.613375 
11   -0.451574 
12   0.148537 
13   0.157327 
14   0.160671 
15   0.134713 
16   0.306659 
17   0.333326 
18   0.425881 
 
>  <lowdin_charges> 
18 
1   -0.196341 
2   -0.187475 
3   -0.073741 
4   -0.126545 
5   0.060616 
6   0.156018 
7   -0.461861 
8   -0.083047 
9   -0.197634 
10   -0.381512 
11   -0.099641 
12   0.172136 
13   0.177517 
14   0.174747 
15   0.145822 
16   0.268263 
17   0.280618 
18   0.372063 
 
$$$$ 
 
