PCCDB-ID:  58977 
public computational chemistry database (PCCDB) project, http://pccdb.org 
 
 40 40  0  0  0  0  0  0  0  0999 V2000 
    7.3210    1.1515   -3.3100 C   0  0  0  0  0  0  0  0  0  0  0  0 
    7.7192   -0.0442   -2.4387 C   0  0  0  0  0  0  0  0  0  0  0  0 
    8.2924    0.3650   -1.0755 C   0  0  0  0  0  0  0  0  0  0  0  0 
    8.6904   -0.8344   -0.2034 C   0  0  0  0  0  0  0  0  0  0  0  0 
    9.3292   -0.4689    1.1470 C   0  0  0  0  0  0  0  0  0  0  0  0 
    8.3802    0.2370    2.1292 C   0  0  0  0  0  0  0  0  0  0  0  0 
    8.9698    0.4635    3.5324 C   0  0  0  0  0  0  0  0  0  0  0  0 
   10.4412    6.8528    6.7874 C   0  0  0  0  0  0  0  0  0  0  0  0 
   10.1606    6.0923    5.6012 C   0  0  0  0  0  0  0  0  0  0  0  0 
   10.1496    1.4614    3.6148 C   0  0  0  0  0  0  0  0  0  0  0  0 
   10.0470    6.0826    7.8356 C   0  0  0  0  0  0  0  0  0  0  0  0 
    9.0976    3.7013    5.3118 C   0  0  0  0  0  0  0  0  0  0  0  0 
    9.6164    4.9171    6.0203 C   0  0  0  0  0  0  0  0  0  0  0  0 
    9.7736    2.8734    3.1919 C   0  0  0  0  0  0  0  0  0  0  0  0 
    9.3225    3.8300    3.8889 N   0  0  0  0  0  0  0  0  0  0  0  0 
    9.9005    3.1288    1.8505 O   0  0  0  0  0  0  0  0  0  0  0  0 
    9.5398    4.8933    7.3871 O   0  0  0  0  0  0  0  0  0  0  0  0 
    6.9143    0.8256   -4.2741 H   0  0  0  0  0  0  0  0  0  0  0  0 
    8.1828    1.7988   -3.5135 H   0  0  0  0  0  0  0  0  0  0  0  0 
    6.5575    1.7648   -2.8160 H   0  0  0  0  0  0  0  0  0  0  0  0 
    8.4584   -0.6581   -2.9729 H   0  0  0  0  0  0  0  0  0  0  0  0 
    6.8440   -0.6908   -2.2821 H   0  0  0  0  0  0  0  0  0  0  0  0 
    7.5531    0.9851   -0.5503 H   0  0  0  0  0  0  0  0  0  0  0  0 
    9.1723    1.0081   -1.2328 H   0  0  0  0  0  0  0  0  0  0  0  0 
    9.3955   -1.4621   -0.7664 H   0  0  0  0  0  0  0  0  0  0  0  0 
    7.8050   -1.4615   -0.0218 H   0  0  0  0  0  0  0  0  0  0  0  0 
   10.2204    0.1507    0.9563 H   0  0  0  0  0  0  0  0  0  0  0  0 
    9.7065   -1.3861    1.6214 H   0  0  0  0  0  0  0  0  0  0  0  0 
    7.4766   -0.3788    2.2361 H   0  0  0  0  0  0  0  0  0  0  0  0 
    8.0456    1.1955    1.7142 H   0  0  0  0  0  0  0  0  0  0  0  0 
    9.3120   -0.4972    3.9409 H   0  0  0  0  0  0  0  0  0  0  0  0 
    8.1739    0.8165    4.2000 H   0  0  0  0  0  0  0  0  0  0  0  0 
   10.8818    7.8389    6.8438 H   0  0  0  0  0  0  0  0  0  0  0  0 
   10.3275    6.3748    4.5726 H   0  0  0  0  0  0  0  0  0  0  0  0 
   10.9882    1.1111    2.9989 H   0  0  0  0  0  0  0  0  0  0  0  0 
   10.5228    1.4790    4.6432 H   0  0  0  0  0  0  0  0  0  0  0  0 
   10.0556    6.2116    8.9072 H   0  0  0  0  0  0  0  0  0  0  0  0 
    8.0124    3.6229    5.4868 H   0  0  0  0  0  0  0  0  0  0  0  0 
    9.5408    2.8047    5.7781 H   0  0  0  0  0  0  0  0  0  0  0  0 
   10.2870    2.3544    1.4152 H   0  0  0  0  0  0  0  0  0  0  0  0 
  1 20  1  0  0  0  0 
  1  2  1  0  0  0  0 
  2 22  1  0  0  0  0 
  2  3  1  0  0  0  0 
  3 23  1  0  0  0  0 
  3  4  1  0  0  0  0 
  4 26  1  0  0  0  0 
  4  5  1  0  0  0  0 
  5 28  1  0  0  0  0 
  5  6  1  0  0  0  0 
  6 29  1  0  0  0  0 
  6  7  1  0  0  0  0 
  7 10  1  0  0  0  0 
  7 31  1  0  0  0  0 
  7 32  1  0  0  0  0 
  8 33  1  0  0  0  0 
  8 11  2  0  0  0  0 
  9 13  2  0  0  0  0 
  9  8  1  0  0  0  0 
 10 36  1  0  0  0  0 
 11 37  1  0  0  0  0 
 12 38  1  0  0  0  0 
 12 39  1  0  0  0  0 
 12 13  1  0  0  0  0 
 13 17  1  0  0  0  0 
 14 10  1  0  0  0  0 
 14 15  2  0  0  0  0 
 15 12  1  0  0  0  0 
 16 14  1  0  0  0  0 
 17 11  1  0  0  0  0 
 18  1  1  0  0  0  0 
 19  1  1  0  0  0  0 
 21  2  1  0  0  0  0 
 24  3  1  0  0  0  0 
 25  4  1  0  0  0  0 
 27  5  1  0  0  0  0 
 30  6  1  0  0  0  0 
 34  9  1  0  0  0  0 
 35 10  1  0  0  0  0 
 40 16  1  0  0  0  0 
M  END 
>  <HBA> 
3 
 
>  <HBD> 
1 
 
>  <TPSA> 
42.24 
 
>  <cid> 
58977 
 
>  <dipole> 
3.82 
 
>  <excitation_energy_1> 
4.993 
 
>  <excitation_energy_2> 
5.333 
 
>  <excitation_energy_3> 
5.501 
 
>  <excitation_energy_4> 
5.624 
 
>  <homo_energy> 
-5.581 
 
>  <homo_lumo_gap> 
6.098 
 
>  <logP> 
4.037 
 
>  <lumo_energy> 
0.517 
 
>  <melting_point> 
48.97 
 
>  <molecular_refractivity> 
69.94 
 
>  <oscillator_strength_1> 
0.0017 
 
>  <oscillator_strength_2> 
0.0017 
 
>  <oscillator_strength_3> 
0.0057 
 
>  <oscillator_strength_4> 
0.0027 
 
>  <open_babel_can_smiles> 
CCCCCCCC/C(=N\Cc1ccco1)/O 
 
>  <mulliken_charges> 
40 
1   -0.442308 
2   -0.247698 
3   -0.250842 
4   -0.254637 
5   -0.259994 
6   -0.279516 
7   -0.257122 
8   -0.188078 
9   -0.191238 
10   -0.370029 
11   0.078532 
12   -0.224696 
13   0.340486 
14   0.488732 
15   -0.414703 
16   -0.583888 
17   -0.448713 
18   0.142942 
19   0.143024 
20   0.144732 
21   0.130313 
22   0.131756 
23   0.140012 
24   0.121681 
25   0.130761 
26   0.131709 
27   0.106305 
28   0.134332 
29   0.138688 
30   0.159653 
31   0.14083 
32   0.151572 
33   0.134452 
34   0.151222 
35   0.144359 
36   0.169986 
37   0.14597 
38   0.167021 
39   0.135326 
40   0.409066 
 
>  <lowdin_charges> 
40 
1   -0.445872 
2   -0.273415 
3   -0.279744 
4   -0.276507 
5   -0.277901 
6   -0.288875 
7   -0.270781 
8   -0.204652 
9   -0.213112 
10   -0.3136 
11   -0.088477 
12   -0.194836 
13   0.059892 
14   0.133853 
15   -0.200784 
16   -0.372081 
17   -0.114095 
18   0.149886 
19   0.14779 
20   0.149189 
21   0.139952 
22   0.140017 
23   0.143933 
24   0.135089 
25   0.143571 
26   0.140725 
27   0.124048 
28   0.143828 
29   0.147596 
30   0.150637 
31   0.146198 
32   0.15243 
33   0.165106 
34   0.175724 
35   0.15096 
36   0.164819 
37   0.164594 
38   0.157599 
39   0.136682 
40   0.350614 
 
$$$$ 
 
