PCCDB-ID:  23252 
public computational chemistry database (PCCDB) project, http://pccdb.org 
 
 26 27  0  0  1  0  0  0  0  0999 V2000 
    0.8757   -0.9025   -0.9177 C   0  0  0  0  0  0  0  0  0  0  0  0 
    3.7143    2.7381   -0.2327 C   0  0  0  0  0  0  0  0  0  0  0  0 
    1.8076   -4.6486    2.6619 C   0  0  0  0  0  0  0  0  0  0  0  0 
    2.0939   -4.8642    1.3061 C   0  0  0  0  0  0  0  0  0  0  0  0 
    1.8789   -3.3697    3.2371 C   0  0  0  0  0  0  0  0  0  0  0  0 
    2.4668   -3.8116    0.4553 C   0  0  0  0  0  0  0  0  0  0  0  0 
    2.5100   -0.8428    2.3075 C   0  0  0  0  0  0  0  0  0  0  0  0 
    2.0652   -0.2927   -0.2283 C   0  0  0  0  0  0  0  0  0  0  0  0 
    2.2403   -2.3370    2.3834 C   0  0  0  0  0  0  0  0  0  0  0  0 
    2.5269   -2.5514    1.0353 C   0  0  0  0  0  0  0  0  0  0  0  0 
    2.8693   -1.0871    0.7727 C   0  0  2  0  0  0  0  0  0  0  0  0 
    2.3260    0.9297   -0.5261 N   0  0  0  0  0  0  0  0  0  0  0  0 
    3.4367    1.4111    0.1951 O   0  0  0  0  0  0  0  0  0  0  0  0 
    1.1686   -1.7775   -1.5108 H   0  0  0  0  0  0  0  0  0  0  0  0 
    0.4065   -0.1675   -1.5759 H   0  0  0  0  0  0  0  0  0  0  0  0 
    0.1372   -1.2518   -0.1853 H   0  0  0  0  0  0  0  0  0  0  0  0 
    4.5637    3.0691    0.3705 H   0  0  0  0  0  0  0  0  0  0  0  0 
    2.8556    3.3975   -0.0596 H   0  0  0  0  0  0  0  0  0  0  0  0 
    3.9815    2.7665   -1.2961 H   0  0  0  0  0  0  0  0  0  0  0  0 
    1.5264   -5.4970    3.2810 H   0  0  0  0  0  0  0  0  0  0  0  0 
    2.0274   -5.8737    0.9083 H   0  0  0  0  0  0  0  0  0  0  0  0 
    1.6586   -3.2190    4.2909 H   0  0  0  0  0  0  0  0  0  0  0  0 
    2.6949   -3.9961   -0.5915 H   0  0  0  0  0  0  0  0  0  0  0  0 
    3.3437   -0.4627    2.9069 H   0  0  0  0  0  0  0  0  0  0  0  0 
    1.6428   -0.1923    2.4644 H   0  0  0  0  0  0  0  0  0  0  0  0 
    3.9335   -0.9049    0.5872 H   0  0  0  0  0  0  0  0  0  0  0  0 
  1  8  1  0  0  0  0 
  1 16  1  0  0  0  0 
  2 18  1  0  0  0  0 
  2 13  1  0  0  0  0 
  2 17  1  0  0  0  0 
  3  5  1  0  0  0  0 
  3 20  1  0  0  0  0 
  4  3  2  0  0  0  0 
  5 22  1  0  0  0  0 
  6 10  2  0  0  0  0 
  6  4  1  0  0  0  0 
  7  9  1  0  0  0  0 
  7 25  1  0  0  0  0 
  7 24  1  0  0  0  0 
  8 11  1  0  0  0  0 
  9  5  2  0  0  0  0 
 10  9  1  0  0  0  0 
 11 26  1  6  0  0  0 
 11 10  1  0  0  0  0 
 11  7  1  0  0  0  0 
 12  8  2  0  0  0  0 
 12 13  1  0  0  0  0 
 14  1  1  0  0  0  0 
 15  1  1  0  0  0  0 
 19  2  1  0  0  0  0 
 21  4  1  0  0  0  0 
 23  6  1  0  0  0  0 
M  END 
>  <HBA> 
2 
 
>  <HBD> 
0 
 
>  <TPSA> 
21.59 
 
>  <cid> 
23252 
 
>  <dipole> 
0.54 
 
>  <excitation_energy_1> 
5.185 
 
>  <excitation_energy_2> 
5.42 
 
>  <excitation_energy_3> 
5.537 
 
>  <excitation_energy_4> 
5.745 
 
>  <homo_energy> 
-6.272 
 
>  <homo_lumo_gap> 
6.139 
 
>  <logP> 
2.349 
 
>  <lumo_energy> 
-0.133 
 
>  <melting_point> 
43.84 
 
>  <molecular_refractivity> 
53.45 
 
>  <oscillator_strength_1> 
0.0351 
 
>  <oscillator_strength_2> 
0.0016 
 
>  <oscillator_strength_3> 
0.0049 
 
>  <oscillator_strength_4> 
0.0066 
 
>  <open_babel_can_smiles> 
CO/N=C(\[C@H]1Cc2c1cccc2)/C 
 
>  <mulliken_charges> 
26 
1   -0.507054 
2   -0.175422 
3   -0.132457 
4   -0.138831 
5   -0.209664 
6   -0.208717 
7   -0.34333 
8   0.313416 
9   0.133762 
10   0.14399 
11   -0.246695 
12   -0.199155 
13   -0.391046 
14   0.161498 
15   0.173258 
16   0.166635 
17   0.152279 
18   0.147978 
19   0.146454 
20   0.128047 
21   0.128069 
22   0.130976 
23   0.131129 
24   0.161567 
25   0.15965 
26   0.173663 
 
>  <lowdin_charges> 
26 
1   -0.44322 
2   -0.281067 
3   -0.157074 
4   -0.157399 
5   -0.163566 
6   -0.164907 
7   -0.265259 
8   0.02529 
9   -0.016304 
10   -0.022996 
11   -0.131862 
12   -0.06872 
13   -0.208373 
14   0.162534 
15   0.170321 
16   0.165971 
17   0.153819 
18   0.145061 
19   0.141422 
20   0.157857 
21   0.156228 
22   0.156888 
23   0.15618 
24   0.160804 
25   0.158856 
26   0.169516 
 
$$$$ 
 
