PCCDB-ID:  17643 
public computational chemistry database (PCCDB) project, http://pccdb.org 
 
 30 29  0  0  0  0  0  0  0  0999 V2000 
    3.2978   -2.2102    2.4810 C   0  0  0  0  0  0  0  0  0  0  0  0 
    3.9523   -0.9549    1.8954 C   0  0  0  0  0  0  0  0  0  0  0  0 
    3.9008   -0.9047    0.3631 C   0  0  0  0  0  0  0  0  0  0  0  0 
    4.5534    0.3497   -0.2319 C   0  0  0  0  0  0  0  0  0  0  0  0 
    4.5035    0.3946   -1.7644 C   0  0  0  0  0  0  0  0  0  0  0  0 
    5.1562    1.6492   -2.3596 C   0  0  0  0  0  0  0  0  0  0  0  0 
    5.1049    1.6778   -3.8937 C   0  0  0  0  0  0  0  0  0  0  0  0 
    5.7514    2.9319   -4.4592 C   0  0  0  0  0  0  0  0  0  0  0  0 
    6.1604    3.8321   -6.6491 C   0  0  0  0  0  0  0  0  0  0  0  0 
    5.6603    2.8450   -5.9075 O   0  0  0  0  0  0  0  0  0  0  0  0 
    6.9063    5.2052   -6.1281 S   0  0  0  0  0  0  0  0  0  0  0  0 
    5.9348    3.5116   -8.3810 S   0  0  0  0  0  0  0  0  0  0  0  0 
    3.3517   -2.2163    3.5756 H   0  0  0  0  0  0  0  0  0  0  0  0 
    3.7909   -3.1206    2.1182 H   0  0  0  0  0  0  0  0  0  0  0  0 
    2.2394   -2.2741    2.1995 H   0  0  0  0  0  0  0  0  0  0  0  0 
    4.9999   -0.9009    2.2244 H   0  0  0  0  0  0  0  0  0  0  0  0 
    3.4597   -0.0608    2.3035 H   0  0  0  0  0  0  0  0  0  0  0  0 
    2.8522   -0.9597    0.0340 H   0  0  0  0  0  0  0  0  0  0  0  0 
    4.3940   -1.7996   -0.0451 H   0  0  0  0  0  0  0  0  0  0  0  0 
    5.6010    0.4061    0.0994 H   0  0  0  0  0  0  0  0  0  0  0  0 
    4.0585    1.2444    0.1741 H   0  0  0  0  0  0  0  0  0  0  0  0 
    3.4564    0.3393   -2.0965 H   0  0  0  0  0  0  0  0  0  0  0  0 
    4.9998   -0.4989   -2.1707 H   0  0  0  0  0  0  0  0  0  0  0  0 
    6.2025    1.7079   -2.0261 H   0  0  0  0  0  0  0  0  0  0  0  0 
    4.6576    2.5436   -1.9586 H   0  0  0  0  0  0  0  0  0  0  0  0 
    4.0627    1.6268   -4.2348 H   0  0  0  0  0  0  0  0  0  0  0  0 
    5.6165    0.7963   -4.3012 H   0  0  0  0  0  0  0  0  0  0  0  0 
    6.8079    3.0179   -4.1855 H   0  0  0  0  0  0  0  0  0  0  0  0 
    5.2435    3.8465   -4.1373 H   0  0  0  0  0  0  0  0  0  0  0  0 
    5.3048    2.3215   -8.2477 H   0  0  0  0  0  0  0  0  0  0  0  0 
  1 13  1  0  0  0  0 
  2 16  1  0  0  0  0 
  2 17  1  0  0  0  0 
  2  1  1  0  0  0  0 
  3  2  1  0  0  0  0 
  4 20  1  0  0  0  0 
  4 21  1  0  0  0  0 
  4  3  1  0  0  0  0 
  5  4  1  0  0  0  0 
  6 24  1  0  0  0  0 
  6 25  1  0  0  0  0 
  6  5  1  0  0  0  0 
  7  6  1  0  0  0  0 
  8 28  1  0  0  0  0 
  8 29  1  0  0  0  0 
  8  7  1  0  0  0  0 
  9 11  2  0  0  0  0 
  9 10  1  0  0  0  0 
 10  8  1  0  0  0  0 
 12 30  1  0  0  0  0 
 12  9  1  0  0  0  0 
 14  1  1  0  0  0  0 
 15  1  1  0  0  0  0 
 18  3  1  0  0  0  0 
 19  3  1  0  0  0  0 
 22  5  1  0  0  0  0 
 23  5  1  0  0  0  0 
 26  7  1  0  0  0  0 
 27  7  1  0  0  0  0 
M  END 
>  <HBA> 
3 
 
>  <HBD> 
1 
 
>  <TPSA> 
80.12 
 
>  <cid> 
17643 
 
>  <dipole> 
4.13 
 
>  <excitation_energy_1> 
3.54 
 
>  <excitation_energy_2> 
4.918 
 
>  <excitation_energy_3> 
5.385 
 
>  <excitation_energy_4> 
5.529 
 
>  <homo_energy> 
-6.305 
 
>  <homo_lumo_gap> 
4.977 
 
>  <logP> 
3.578 
 
>  <lumo_energy> 
-1.328 
 
>  <melting_point> 
13.12 
 
>  <molecular_refractivity> 
62.18 
 
>  <oscillator_strength_1> 
0.0002 
 
>  <oscillator_strength_2> 
0.1354 
 
>  <oscillator_strength_3> 
0.0096 
 
>  <oscillator_strength_4> 
0.0 
 
>  <open_babel_can_smiles> 
CCCCCCCCOC(=S)S 
 
>  <mulliken_charges> 
30 
1   -0.441593 
2   -0.247394 
3   -0.246442 
4   -0.254185 
5   -0.253151 
6   -0.266424 
7   -0.280758 
8   -0.047044 
9   0.064454 
10   -0.407978 
11   -0.171939 
12   0.0483 
13   0.143012 
14   0.141648 
15   0.141646 
16   0.130976 
17   0.131006 
18   0.127466 
19   0.127466 
20   0.129453 
21   0.129517 
22   0.131486 
23   0.131465 
24   0.13744 
25   0.137414 
26   0.150321 
27   0.1505 
28   0.17684 
29   0.176895 
30   0.109603 
 
>  <lowdin_charges> 
30 
1   -0.441085 
2   -0.271329 
3   -0.273663 
4   -0.273494 
5   -0.27193 
6   -0.273006 
7   -0.281821 
8   -0.119908 
9   -0.114898 
10   -0.170107 
11   -0.141309 
12   0.051767 
13   0.147941 
14   0.146732 
15   0.144977 
16   0.137871 
17   0.139697 
18   0.136433 
19   0.138246 
20   0.137487 
21   0.139322 
22   0.138565 
23   0.14035 
24   0.141291 
25   0.14304 
26   0.149606 
27   0.151569 
28   0.160443 
29   0.162323 
30   0.124889 
 
$$$$ 
 
