PCCDB-ID:  48881 
public computational chemistry database (PCCDB) project, http://pccdb.org 
 
 35 35  0  0  0  0  0  0  0  0999 V2000 
    1.6340   -4.4940    2.1669 C   0  0  0  0  0  0  0  0  0  0  0  0 
    2.6849   -5.6122    5.7904 C   0  0  0  0  0  0  0  0  0  0  0  0 
    3.6470   -6.3686    3.5825 C   0  0  0  0  0  0  0  0  0  0  0  0 
    1.5920   -4.8656    3.6547 C   0  0  0  0  0  0  0  0  0  0  0  0 
    9.4132   -4.2840    5.0456 C   0  0  0  0  0  0  0  0  0  0  0  0 
    8.0770   -4.2323    4.6571 C   0  0  0  0  0  0  0  0  0  0  0  0 
    9.7330   -4.7795    6.3097 C   0  0  0  0  0  0  0  0  0  0  0  0 
    7.5315   -5.1764    6.7905 C   0  0  0  0  0  0  0  0  0  0  0  0 
    5.9449   -1.8056    5.4796 C   0  0  0  0  0  0  0  0  0  0  0  0 
    7.0849   -4.6780    5.5490 C   0  0  0  0  0  0  0  0  0  0  0  0 
    5.0371   -3.7985    4.7253 C   0  0  0  0  0  0  0  0  0  0  0  0 
    2.9457   -5.2149    4.3237 C   0  0  0  0  0  0  0  0  0  0  0  0 
    8.8085   -5.2231    7.1727 N   0  0  0  0  0  0  0  0  0  0  0  0 
    5.4538   -2.4567    4.5034 N   0  0  0  0  0  0  0  0  0  0  0  0 
    5.7262   -4.7605    5.2446 N   0  0  0  0  0  0  0  0  0  0  0  0 
    3.7667   -3.9858    4.2684 N   0  0  0  0  0  0  0  0  0  0  0  0 
    6.3854   -0.5496    5.3449 O   0  0  0  0  0  0  0  0  0  0  0  0 
    0.6340   -4.2122    1.8193 H   0  0  0  0  0  0  0  0  0  0  0  0 
    1.9745   -5.3308    1.5491 H   0  0  0  0  0  0  0  0  0  0  0  0 
    2.3021   -3.6478    1.9685 H   0  0  0  0  0  0  0  0  0  0  0  0 
    2.0817   -6.5262    5.8359 H   0  0  0  0  0  0  0  0  0  0  0  0 
    2.1423   -4.8179    6.3164 H   0  0  0  0  0  0  0  0  0  0  0  0 
    3.6296   -5.7931    6.3079 H   0  0  0  0  0  0  0  0  0  0  0  0 
    2.9800   -7.2375    3.5339 H   0  0  0  0  0  0  0  0  0  0  0  0 
    4.5608   -6.6552    4.1058 H   0  0  0  0  0  0  0  0  0  0  0  0 
    3.9142   -6.0799    2.5616 H   0  0  0  0  0  0  0  0  0  0  0  0 
    0.9297   -5.7290    3.7912 H   0  0  0  0  0  0  0  0  0  0  0  0 
    1.1335   -4.0434    4.2241 H   0  0  0  0  0  0  0  0  0  0  0  0 
   10.1984   -3.9491    4.3729 H   0  0  0  0  0  0  0  0  0  0  0  0 
    7.7943   -3.8630    3.6754 H   0  0  0  0  0  0  0  0  0  0  0  0 
   10.7682   -4.8304    6.6427 H   0  0  0  0  0  0  0  0  0  0  0  0 
    6.7923   -5.5551    7.4953 H   0  0  0  0  0  0  0  0  0  0  0  0 
    6.0611   -2.1591    6.5052 H   0  0  0  0  0  0  0  0  0  0  0  0 
    3.3068   -3.1367    3.9743 H   0  0  0  0  0  0  0  0  0  0  0  0 
    6.2683   -0.3060    4.4060 H   0  0  0  0  0  0  0  0  0  0  0  0 
  1  4  1  0  0  0  0 
  2 21  1  0  0  0  0 
  2 23  1  0  0  0  0 
  2 22  1  0  0  0  0 
  3 25  1  0  0  0  0 
  3 12  1  0  0  0  0 
  4 27  1  0  0  0  0 
  4 28  1  0  0  0  0 
  4 12  1  0  0  0  0 
  5  7  1  0  0  0  0 
  6  5  2  0  0  0  0 
  6 10  1  0  0  0  0 
  7 31  1  0  0  0  0 
  7 13  2  0  0  0  0 
  8 13  1  0  0  0  0 
  8 32  1  0  0  0  0 
  9 33  1  0  0  0  0 
 10  8  2  0  0  0  0 
 11 15  1  0  0  0  0 
 12  2  1  0  0  0  0 
 14 11  2  0  0  0  0 
 14  9  1  0  0  0  0 
 15 10  1  0  0  0  0 
 16 12  1  0  0  0  0 
 16 11  1  0  0  0  0 
 17  9  1  0  0  0  0 
 18  1  1  0  0  0  0 
 19  1  1  0  0  0  0 
 20  1  1  0  0  0  0 
 24  3  1  0  0  0  0 
 26  3  1  0  0  0  0 
 29  5  1  0  0  0  0 
 30  6  1  0  0  0  0 
 34 16  1  0  0  0  0 
 35 17  1  0  0  0  0 
M  RAD  2   9   2  15   2 
M  END 
>  <HBA> 
5 
 
>  <HBD> 
2 
 
>  <TPSA> 
66.38 
 
>  <cid> 
48881 
 
>  <dipole> 
5.21 
 
>  <excitation_energy_1> 
3.865 
 
>  <excitation_energy_2> 
4.464 
 
>  <excitation_energy_3> 
4.734 
 
>  <excitation_energy_4> 
4.779 
 
>  <homo_energy> 
-5.489 
 
>  <homo_lumo_gap> 
4.882 
 
>  <logP> 
2.884 
 
>  <lumo_energy> 
-0.607 
 
>  <melting_point> 
126.85 
 
>  <molecular_refractivity> 
69.5 
 
>  <oscillator_strength_1> 
0.027 
 
>  <oscillator_strength_2> 
0.0628 
 
>  <oscillator_strength_3> 
0.0243 
 
>  <oscillator_strength_4> 
0.0431 
 
>  <open_babel_can_smiles> 
O[CH]/N=C(\NC(CC)(C)C)/[N]c1cccnc1 
 
>  <mulliken_charges> 
35 
1   -0.452254 
2   -0.449361 
3   -0.455048 
4   -0.288151 
5   -0.149488 
6   -0.126152 
7   0.028788 
8   0.003041 
9   0.313497 
10   0.234698 
11   0.602457 
12   0.25318 
13   -0.414726 
14   -0.491968 
15   -0.551284 
16   -0.621498 
17   -0.539595 
18   0.148483 
19   0.157365 
20   0.142924 
21   0.138158 
22   0.13245 
23   0.181199 
24   0.134886 
25   0.187596 
26   0.145523 
27   0.145921 
28   0.130247 
29   0.128411 
30   0.137074 
31   0.131003 
32   0.135063 
33   0.18496 
34   0.327903 
35   0.414698 
 
>  <lowdin_charges> 
35 
1   -0.451069 
2   -0.45408 
3   -0.452777 
4   -0.281388 
5   -0.176462 
6   -0.166837 
7   -0.112464 
8   -0.120362 
9   0.05563 
10   0.02605 
11   0.147342 
12   0.083176 
13   -0.148269 
14   -0.237069 
15   -0.244842 
16   -0.263498 
17   -0.328427 
18   0.153666 
19   0.155567 
20   0.146764 
21   0.149724 
22   0.14645 
23   0.16892 
24   0.148876 
25   0.173597 
26   0.151045 
27   0.152715 
28   0.140799 
29   0.160722 
30   0.160944 
31   0.150593 
32   0.155707 
33   0.164274 
34   0.283584 
35   0.361398 
 
$$$$ 
 
