PCCDB-ID:  13607 
public computational chemistry database (PCCDB) project, http://pccdb.org 
 
 22 22  0  0  0  0  0  0  0  0999 V2000 
    0.8660    0.3219    0.5460 C   0  0  0  0  0  0  0  0  0  0  0  0 
    2.8206   -3.5932   -1.3195 C   0  0  0  0  0  0  0  0  0  0  0  0 
    3.5673   -2.2872   -1.6339 C   0  0  0  0  0  0  0  0  0  0  0  0 
    1.5737   -3.3288   -0.4606 C   0  0  0  0  0  0  0  0  0  0  0  0 
    3.9131   -1.5149   -0.3507 C   0  0  0  0  0  0  0  0  0  0  0  0 
    1.9302   -2.5611    0.8219 C   0  0  0  0  0  0  0  0  0  0  0  0 
    2.6730   -1.2484    0.5120 C   0  0  0  0  0  0  0  0  0  0  0  0 
    1.8566   -0.3294   -0.2195 O   0  0  0  0  0  0  0  0  0  0  0  0 
    0.3979    1.0642   -0.1067 H   0  0  0  0  0  0  0  0  0  0  0  0 
    1.3028    0.8391    1.4162 H   0  0  0  0  0  0  0  0  0  0  0  0 
    0.0849   -0.3626    0.9101 H   0  0  0  0  0  0  0  0  0  0  0  0 
    3.4938   -4.2768   -0.7797 H   0  0  0  0  0  0  0  0  0  0  0  0 
    2.5395   -4.1033   -2.2498 H   0  0  0  0  0  0  0  0  0  0  0  0 
    2.9383   -1.6525   -2.2705 H   0  0  0  0  0  0  0  0  0  0  0  0 
    4.4834   -2.4978   -2.2005 H   0  0  0  0  0  0  0  0  0  0  0  0 
    1.0763   -4.2731   -0.2058 H   0  0  0  0  0  0  0  0  0  0  0  0 
    0.8546   -2.7366   -1.0412 H   0  0  0  0  0  0  0  0  0  0  0  0 
    4.3909   -0.5582   -0.5916 H   0  0  0  0  0  0  0  0  0  0  0  0 
    4.6292   -2.0944    0.2490 H   0  0  0  0  0  0  0  0  0  0  0  0 
    2.5823   -3.1781    1.4571 H   0  0  0  0  0  0  0  0  0  0  0  0 
    1.0291   -2.3597    1.4146 H   0  0  0  0  0  0  0  0  0  0  0  0 
    2.9807   -0.7698    1.4578 H   0  0  0  0  0  0  0  0  0  0  0  0 
  1 11  1  0  0  0  0 
  1 10  1  0  0  0  0 
  2 12  1  0  0  0  0 
  2  4  1  0  0  0  0 
  3  2  1  0  0  0  0 
  3  5  1  0  0  0  0 
  4 16  1  0  0  0  0 
  4  6  1  0  0  0  0 
  5 19  1  0  0  0  0 
  5  7  1  0  0  0  0 
  6 21  1  0  0  0  0 
  6 20  1  0  0  0  0 
  7  6  1  0  0  0  0 
  7 22  1  0  0  0  0 
  8  7  1  0  0  0  0 
  8  1  1  0  0  0  0 
  9  1  1  0  0  0  0 
 13  2  1  0  0  0  0 
 14  3  1  0  0  0  0 
 15  3  1  0  0  0  0 
 17  4  1  0  0  0  0 
 18  5  1  0  0  0  0 
M  END 
>  <HBA> 
1 
 
>  <HBD> 
0 
 
>  <TPSA> 
9.23 
 
>  <cid> 
13607 
 
>  <dipole> 
1.05 
 
>  <excitation_energy_1> 
6.189 
 
>  <excitation_energy_2> 
6.637 
 
>  <excitation_energy_3> 
6.761 
 
>  <excitation_energy_4> 
6.876 
 
>  <homo_energy> 
-6.661 
 
>  <homo_lumo_gap> 
8.814 
 
>  <logP> 
1.966 
 
>  <lumo_energy> 
2.152 
 
>  <melting_point> 
-13.6 
 
>  <molecular_refractivity> 
34.73 
 
>  <oscillator_strength_1> 
0.0136 
 
>  <oscillator_strength_2> 
0.0065 
 
>  <oscillator_strength_3> 
0.0068 
 
>  <oscillator_strength_4> 
0.0036 
 
>  <open_babel_can_smiles> 
COC1CCCCC1 
 
>  <mulliken_charges> 
22 
1   -0.194088 
2   -0.258977 
3   -0.259105 
4   -0.255207 
5   -0.26951 
6   -0.279456 
7   0.150163 
8   -0.474172 
9   0.155631 
10   0.126637 
11   0.131524 
12   0.12238 
13   0.129152 
14   0.150571 
15   0.126265 
16   0.12652 
17   0.143581 
18   0.14011 
19   0.125347 
20   0.127628 
21   0.131082 
22   0.103925 
 
>  <lowdin_charges> 
22 
1   -0.284177 
2   -0.279308 
3   -0.280879 
4   -0.280766 
5   -0.284693 
6   -0.29668 
7   -0.000638 
8   -0.27495 
9   0.155272 
10   0.130756 
11   0.131789 
12   0.13558 
13   0.143048 
14   0.150498 
15   0.142033 
16   0.142 
17   0.147115 
18   0.150033 
19   0.142457 
20   0.144034 
21   0.1437 
22   0.123777 
 
$$$$ 
 
