PCCDB-ID:  41076 
public computational chemistry database (PCCDB) project, http://pccdb.org 
 
 34 34  0  0  1  0  0  0  0  0999 V2000 
    4.2709   -0.6680   -0.2601 C   0  0  0  0  0  0  0  0  0  0  0  0 
    5.1691   -1.6673   -1.0028 C   0  0  0  0  0  0  0  0  0  0  0  0 
    5.8245   -2.7546   -0.1216 C   0  0  0  0  0  0  0  0  0  0  0  0 
    7.2124   -2.4148    0.4567 C   0  0  0  0  0  0  0  0  0  0  0  0 
    7.2422   -1.2627    1.4753 C   0  0  0  0  0  0  0  0  0  0  0  0 
    9.7027   -0.5571    1.1672 C   0  0  0  0  0  0  0  0  0  0  0  0 
    9.1020   -2.1507    3.0333 C   0  0  0  0  0  0  0  0  0  0  0  0 
   11.0127   -0.2007    1.8889 C   0  0  0  0  0  0  0  0  0  0  0  0 
   10.4128   -1.7970    3.7545 C   0  0  0  0  0  0  0  0  0  0  0  0 
    8.6010   -0.9863    2.1577 C   0  0  2  0  0  0  0  0  0  0  0  0 
   11.5045   -1.3538    2.7714 C   0  0  2  0  0  0  0  0  0  0  0  0 
   12.7253   -1.0373    3.4412 O   0  0  0  0  0  0  0  0  0  0  0  0 
    3.8272    0.0514   -0.9584 H   0  0  0  0  0  0  0  0  0  0  0  0 
    4.8202   -0.1003    0.4973 H   0  0  0  0  0  0  0  0  0  0  0  0 
    3.4484   -1.1858    0.2488 H   0  0  0  0  0  0  0  0  0  0  0  0 
    5.9544   -1.1259   -1.5497 H   0  0  0  0  0  0  0  0  0  0  0  0 
    4.5589   -2.1599   -1.7716 H   0  0  0  0  0  0  0  0  0  0  0  0 
    5.9407   -3.6654   -0.7243 H   0  0  0  0  0  0  0  0  0  0  0  0 
    5.1399   -3.0232    0.6964 H   0  0  0  0  0  0  0  0  0  0  0  0 
    7.8879   -2.1878   -0.3796 H   0  0  0  0  0  0  0  0  0  0  0  0 
    7.6099   -3.3232    0.9290 H   0  0  0  0  0  0  0  0  0  0  0  0 
    6.4956   -1.4662    2.2571 H   0  0  0  0  0  0  0  0  0  0  0  0 
    6.9228   -0.3351    0.9832 H   0  0  0  0  0  0  0  0  0  0  0  0 
    9.8957   -1.3726    0.4560 H   0  0  0  0  0  0  0  0  0  0  0  0 
    9.3577    0.2978    0.5706 H   0  0  0  0  0  0  0  0  0  0  0  0 
    8.3337   -2.4281    3.7676 H   0  0  0  0  0  0  0  0  0  0  0  0 
    9.2697   -3.0399    2.4098 H   0  0  0  0  0  0  0  0  0  0  0  0 
   10.8493    0.6831    2.5268 H   0  0  0  0  0  0  0  0  0  0  0  0 
   11.7979    0.0680    1.1719 H   0  0  0  0  0  0  0  0  0  0  0  0 
   10.7805   -2.6458    4.3431 H   0  0  0  0  0  0  0  0  0  0  0  0 
   10.2309   -0.9738    4.4645 H   0  0  0  0  0  0  0  0  0  0  0  0 
    8.4339   -0.1318    2.8343 H   0  0  0  0  0  0  0  0  0  0  0  0 
   11.7636   -2.2039    2.1263 H   0  0  0  0  0  0  0  0  0  0  0  0 
   12.5425   -0.2829    4.0247 H   0  0  0  0  0  0  0  0  0  0  0  0 
  1 15  1  0  0  0  0 
  1 14  1  0  0  0  0 
  2  1  1  0  0  0  0 
  2  3  1  0  0  0  0 
  3  4  1  0  0  0  0 
  3 19  1  0  0  0  0 
  4 21  1  0  0  0  0 
  4  5  1  0  0  0  0 
  5 10  1  0  0  0  0 
  5 22  1  0  0  0  0 
  6  8  1  0  0  0  0 
  6 10  1  0  0  0  0 
  7  9  1  0  0  0  0 
  7 26  1  0  0  0  0 
  8 28  1  0  0  0  0 
  8 11  1  0  0  0  0 
  9 30  1  0  0  0  0 
  9 31  1  0  0  0  0 
 10 32  1  1  0  0  0 
 10  7  1  0  0  0  0 
 11 33  1  6  0  0  0 
 11 12  1  0  0  0  0 
 11  9  1  0  0  0  0 
 12 34  1  0  0  0  0 
 13  1  1  0  0  0  0 
 16  2  1  0  0  0  0 
 17  2  1  0  0  0  0 
 18  3  1  0  0  0  0 
 20  4  1  0  0  0  0 
 23  5  1  0  0  0  0 
 24  6  1  0  0  0  0 
 25  6  1  0  0  0  0 
 27  7  1  0  0  0  0 
 29  8  1  0  0  0  0 
M  END 
>  <HBA> 
1 
 
>  <HBD> 
1 
 
>  <TPSA> 
20.23 
 
>  <cid> 
41076 
 
>  <dipole> 
1.71 
 
>  <excitation_energy_1> 
6.38 
 
>  <excitation_energy_2> 
6.732 
 
>  <excitation_energy_3> 
6.846 
 
>  <excitation_energy_4> 
7.053 
 
>  <homo_energy> 
-6.895 
 
>  <homo_lumo_gap> 
8.991 
 
>  <logP> 
3.118 
 
>  <lumo_energy> 
2.095 
 
>  <melting_point> 
11.31 
 
>  <molecular_refractivity> 
54.04 
 
>  <oscillator_strength_1> 
0.013 
 
>  <oscillator_strength_2> 
0.0009 
 
>  <oscillator_strength_3> 
0.0092 
 
>  <oscillator_strength_4> 
0.0117 
 
>  <open_babel_can_smiles> 
CCCCC[C@@H]1CC[C@H](CC1)O 
 
>  <mulliken_charges> 
34 
1   -0.44673 
2   -0.248636 
3   -0.254708 
4   -0.264946 
5   -0.261223 
6   -0.272237 
7   -0.270879 
8   -0.277454 
9   -0.278362 
10   -0.074845 
11   0.144298 
12   -0.627994 
13   0.140092 
14   0.149145 
15   0.141222 
16   0.13019 
17   0.131994 
18   0.128645 
19   0.127539 
20   0.132127 
21   0.131864 
22   0.124186 
23   0.133002 
24   0.134641 
25   0.130373 
26   0.130507 
27   0.134021 
28   0.113072 
29   0.142947 
30   0.14317 
31   0.112919 
32   0.112443 
33   0.129871 
34   0.379746 
 
>  <lowdin_charges> 
34 
1   -0.451723 
2   -0.278364 
3   -0.278382 
4   -0.280584 
5   -0.279812 
6   -0.282224 
7   -0.282236 
8   -0.294373 
9   -0.294776 
10   -0.129992 
11   -0.007977 
12   -0.462259 
13   0.149356 
14   0.149021 
15   0.146661 
16   0.140185 
17   0.143606 
18   0.143128 
19   0.139004 
20   0.13931 
21   0.141457 
22   0.139495 
23   0.141892 
24   0.141243 
25   0.144661 
26   0.144947 
27   0.1404 
28   0.132257 
29   0.151221 
30   0.151297 
31   0.13233 
32   0.134224 
33   0.140111 
34   0.336895 
 
$$$$ 
 
