PCCDB-ID:  20840 
public computational chemistry database (PCCDB) project, http://pccdb.org 
 
 15 15  0  0  0  0  0  0  0  0999 V2000 
    1.1171    0.0950    0.0030 C   0  0  0  0  0  0  0  0  0  0  0  0 
    2.6180    0.0687    0.0066 C   0  0  0  0  0  0  0  0  0  0  0  0 
    4.6145   -1.1151    0.0158 C   0  0  0  0  0  0  0  0  0  0  0  0 
    4.5210    1.2853    0.0073 C   0  0  0  0  0  0  0  0  0  0  0  0 
    5.3728   -2.1413    0.0187 N   0  0  0  0  0  0  0  0  0  0  0  0 
    3.2240   -1.0868    0.0132 N   0  0  0  0  0  0  0  0  0  0  0  0 
    3.2173    1.3171    0.0027 N   0  0  0  0  0  0  0  0  0  0  0  0 
    5.2485    0.1566    0.0147 N   0  0  0  0  0  0  0  0  0  0  0  0 
    5.2351    2.4155    0.0045 O   0  0  0  0  0  0  0  0  0  0  0  0 
    0.7183   -0.9201    0.0019 H   0  0  0  0  0  0  0  0  0  0  0  0 
    0.7557    0.6385   -0.8777 H   0  0  0  0  0  0  0  0  0  0  0  0 
    0.7515    0.6377    0.8825 H   0  0  0  0  0  0  0  0  0  0  0  0 
    4.7845   -2.9760    0.0199 H   0  0  0  0  0  0  0  0  0  0  0  0 
    6.2614    0.1813    0.0186 H   0  0  0  0  0  0  0  0  0  0  0  0 
    4.5838    3.1413    0.0030 H   0  0  0  0  0  0  0  0  0  0  0  0 
  1  2  1  0  0  0  0 
  1 12  1  0  0  0  0 
  2  6  2  0  0  0  0 
  3  5  1  0  0  0  0 
  4  8  1  0  0  0  0 
  5 13  1  0  0  0  0 
  6  3  2  0  0  0  0 
  7  2  1  0  0  0  0 
  7  4  2  0  0  0  0 
  8  3  1  0  0  0  0 
  8 14  1  0  0  0  0 
  9  4  1  0  0  0  0 
 10  1  1  0  0  0  0 
 11  1  1  0  0  0  0 
 15  9  1  0  0  0  0 
M  RAD  1   5   2 
M  END 
>  <HBA> 
4 
 
>  <HBD> 
2 
 
>  <TPSA> 
84.66 
 
>  <cid> 
20840 
 
>  <dipole> 
3.28 
 
>  <excitation_energy_1> 
4.47 
 
>  <excitation_energy_2> 
4.888 
 
>  <excitation_energy_3> 
5.424 
 
>  <excitation_energy_4> 
5.465 
 
>  <homo_energy> 
-6.264 
 
>  <homo_lumo_gap> 
5.287 
 
>  <logP> 
-0.363 
 
>  <lumo_energy> 
-0.977 
 
>  <melting_point> 
171.04 
 
>  <molecular_refractivity> 
32.02 
 
>  <oscillator_strength_1> 
0.0413 
 
>  <oscillator_strength_2> 
0.0013 
 
>  <oscillator_strength_3> 
0.0041 
 
>  <oscillator_strength_4> 
0.0001 
 
>  <open_babel_can_smiles> 
OC1=NC(=[N]=C(N1)[NH])C 
 
>  <mulliken_charges> 
15 
1   -0.503052 
2   0.432619 
3   0.60075 
4   0.737533 
5   -0.65577 
6   -0.484133 
7   -0.532921 
8   -0.624157 
9   -0.593073 
10   0.179222 
11   0.174039 
12   0.174078 
13   0.298734 
14   0.362353 
15   0.43378 
 
>  <lowdin_charges> 
15 
1   -0.444424 
2   0.126418 
3   0.116059 
4   0.191381 
5   -0.435842 
6   -0.22154 
7   -0.273171 
8   -0.203627 
9   -0.332327 
10   0.171737 
11   0.173234 
12   0.173283 
13   0.266967 
14   0.312205 
15   0.379649 
 
$$$$ 
 
