PCCDB-ID:  22658 
public computational chemistry database (PCCDB) project, http://pccdb.org 
 
 26 27  0  0  0  0  0  0  0  0999 V2000 
    1.1896   -1.1874    0.3510 C   0  0  0  0  0  0  0  0  0  0  0  0 
   -0.1780   -1.4003    0.5390 C   0  0  0  0  0  0  0  0  0  0  0  0 
    1.6389    0.1011    0.0808 C   0  0  0  0  0  0  0  0  0  0  0  0 
   -1.0703   -0.3384    0.4513 C   0  0  0  0  0  0  0  0  0  0  0  0 
    2.2857    2.7181   -1.2901 C   0  0  0  0  0  0  0  0  0  0  0  0 
    0.9301    3.6775    0.4660 C   0  0  0  0  0  0  0  0  0  0  0  0 
    2.8518    3.9611   -1.5466 C   0  0  0  0  0  0  0  0  0  0  0  0 
    1.4863    4.9283    0.2198 C   0  0  0  0  0  0  0  0  0  0  0  0 
    1.3170    2.5461   -0.2811 C   0  0  0  0  0  0  0  0  0  0  0  0 
    2.4418    5.0557   -0.7868 C   0  0  0  0  0  0  0  0  0  0  0  0 
    0.7626    1.1968   -0.0007 C   0  0  0  0  0  0  0  0  0  0  0  0 
   -0.6264    0.9676    0.1801 C   0  0  0  0  0  0  0  0  0  0  0  0 
   -1.5591    2.0075    0.1260 N   0  0  0  0  0  0  0  0  0  0  0  0 
    3.0283    6.3740   -1.0556 N   0  0  0  0  0  0  0  0  0  0  0  0 
    3.8832    6.4519   -1.9390 O   0  0  0  0  0  0  0  0  0  0  0  0 
    2.6312    7.3262   -0.3824 O   0  0  0  0  0  0  0  0  0  0  0  0 
    1.8945   -2.0099    0.4217 H   0  0  0  0  0  0  0  0  0  0  0  0 
   -0.5539   -2.3976    0.7512 H   0  0  0  0  0  0  0  0  0  0  0  0 
    2.7029    0.2829   -0.0447 H   0  0  0  0  0  0  0  0  0  0  0  0 
   -2.1358   -0.5112    0.5874 H   0  0  0  0  0  0  0  0  0  0  0  0 
    2.5821    1.8641   -1.8912 H   0  0  0  0  0  0  0  0  0  0  0  0 
    0.1998    3.5672    1.2608 H   0  0  0  0  0  0  0  0  0  0  0  0 
    3.5915    4.0990   -2.3257 H   0  0  0  0  0  0  0  0  0  0  0  0 
    1.2018    5.7986    0.7986 H   0  0  0  0  0  0  0  0  0  0  0  0 
   -2.5074    1.7039   -0.0598 H   0  0  0  0  0  0  0  0  0  0  0  0 
   -1.3003    2.7935   -0.4581 H   0  0  0  0  0  0  0  0  0  0  0  0 
  1 17  1  0  0  0  0 
  1  2  2  0  0  0  0 
  2 18  1  0  0  0  0 
  3  1  1  0  0  0  0 
  4  2  1  0  0  0  0 
  4 20  1  0  0  0  0 
  5  9  1  0  0  0  0 
  6 22  1  0  0  0  0 
  7  5  2  0  0  0  0 
  7 10  1  0  0  0  0 
  8  6  1  0  0  0  0 
  8 24  1  0  0  0  0 
  9 11  1  0  0  0  0 
  9  6  2  0  0  0  0 
 10  8  2  0  0  0  0 
 11  3  2  0  0  0  0 
 11 12  1  0  0  0  0 
 12  4  2  0  0  0  0 
 13 12  1  0  0  0  0 
 14 10  1  0  0  0  0 
 14 16  2  0  0  0  0 
 15 14  2  0  0  0  0 
 19  3  1  0  0  0  0 
 21  5  1  0  0  0  0 
 23  7  1  0  0  0  0 
 25 13  1  0  0  0  0 
 26 13  1  0  0  0  0 
M  END 
>  <HBA> 
1 
 
>  <HBD> 
1 
 
>  <TPSA> 
71.84 
 
>  <cid> 
22658 
 
>  <dipole> 
5.51 
 
>  <excitation_energy_1> 
2.812 
 
>  <excitation_energy_2> 
3.701 
 
>  <excitation_energy_3> 
3.792 
 
>  <excitation_energy_4> 
4.201 
 
>  <homo_energy> 
-5.802 
 
>  <homo_lumo_gap> 
3.407 
 
>  <logP> 
3.948 
 
>  <lumo_energy> 
-2.395 
 
>  <melting_point> 
130.54 
 
>  <molecular_refractivity> 
65.1 
 
>  <oscillator_strength_1> 
0.0926 
 
>  <oscillator_strength_2> 
0.0435 
 
>  <oscillator_strength_3> 
0.1697 
 
>  <oscillator_strength_4> 
0.006 
 
>  <open_babel_can_smiles> 
Nc1ccccc1c1ccc(cc1)N(=O)=O 
 
>  <mulliken_charges> 
26 
1   -0.14037 
2   -0.129256 
3   -0.185228 
4   -0.174697 
5   -0.180063 
6   -0.199417 
7   -0.154993 
8   -0.154257 
9   0.068286 
10   0.278009 
11   0.061546 
12   0.26526 
13   -0.799563 
14   0.375549 
15   -0.398076 
16   -0.398137 
17   0.129883 
18   0.133192 
19   0.135828 
20   0.122704 
21   0.150888 
22   0.172968 
23   0.182704 
24   0.183082 
25   0.325186 
26   0.328969 
 
>  <lowdin_charges> 
26 
1   -0.184192 
2   -0.138814 
3   -0.14515 
4   -0.194749 
5   -0.157577 
6   -0.162027 
7   -0.136342 
8   -0.139157 
9   0.016108 
10   -0.003412 
11   -0.049858 
12   0.060264 
13   -0.486014 
14   0.309041 
15   -0.250791 
16   -0.251446 
17   0.160475 
18   0.159785 
19   0.159381 
20   0.153259 
21   0.170058 
22   0.17768 
23   0.187891 
24   0.18823 
25   0.276981 
26   0.280376 
 
$$$$ 
 
