PCCDB-ID:  8133 
public computational chemistry database (PCCDB) project, http://pccdb.org 
 
 22 21  0  0  0  0  0  0  0  0999 V2000 
    1.5671   -1.2036    2.7431 C   0  0  0  0  0  0  0  0  0  0  0  0 
    2.6235   -0.8999    1.6761 C   0  0  0  0  0  0  0  0  0  0  0  0 
    2.6259   -1.9245    0.5343 C   0  0  0  0  0  0  0  0  0  0  0  0 
    4.1881   -3.4903   -3.6487 C   0  0  0  0  0  0  0  0  0  0  0  0 
    3.6687   -1.6208   -0.5334 C   0  0  0  0  0  0  0  0  0  0  0  0 
    4.5176   -2.4345   -2.6041 C   0  0  0  0  0  0  0  0  0  0  0  0 
    2.8527   -3.3576   -4.1038 O   0  0  0  0  0  0  0  0  0  0  0  0 
    3.5998   -2.6223   -1.5372 O   0  0  0  0  0  0  0  0  0  0  0  0 
    1.5862   -0.4595    3.5473 H   0  0  0  0  0  0  0  0  0  0  0  0 
    1.7337   -2.1886    3.1956 H   0  0  0  0  0  0  0  0  0  0  0  0 
    0.5585   -1.2036    2.3123 H   0  0  0  0  0  0  0  0  0  0  0  0 
    3.6176   -0.8708    2.1442 H   0  0  0  0  0  0  0  0  0  0  0  0 
    2.4498    0.1049    1.2657 H   0  0  0  0  0  0  0  0  0  0  0  0 
    1.6366   -1.9562    0.0583 H   0  0  0  0  0  0  0  0  0  0  0  0 
    2.8155   -2.9301    0.9320 H   0  0  0  0  0  0  0  0  0  0  0  0 
    4.3700   -4.4895   -3.2204 H   0  0  0  0  0  0  0  0  0  0  0  0 
    4.8407   -3.3721   -4.5203 H   0  0  0  0  0  0  0  0  0  0  0  0 
    4.6795   -1.6006   -0.0913 H   0  0  0  0  0  0  0  0  0  0  0  0 
    3.4897   -0.6271   -0.9789 H   0  0  0  0  0  0  0  0  0  0  0  0 
    4.3981   -1.4281   -3.0375 H   0  0  0  0  0  0  0  0  0  0  0  0 
    5.5576   -2.5376   -2.2509 H   0  0  0  0  0  0  0  0  0  0  0  0 
    2.3154   -3.2919   -3.2964 H   0  0  0  0  0  0  0  0  0  0  0  0 
  1 10  1  0  0  0  0 
  1  9  1  0  0  0  0 
  2 12  1  0  0  0  0 
  2  1  1  0  0  0  0 
  3 15  1  0  0  0  0 
  3  2  1  0  0  0  0 
  4 16  1  0  0  0  0 
  4  6  1  0  0  0  0 
  5 18  1  0  0  0  0 
  5  3  1  0  0  0  0 
  6 21  1  0  0  0  0 
  6  8  1  0  0  0  0 
  7  4  1  0  0  0  0 
  7 22  1  0  0  0  0 
  8  5  1  0  0  0  0 
 11  1  1  0  0  0  0 
 13  2  1  0  0  0  0 
 14  3  1  0  0  0  0 
 17  4  1  0  0  0  0 
 19  5  1  0  0  0  0 
 20  6  1  0  0  0  0 
M  END 
>  <HBA> 
2 
 
>  <HBD> 
1 
 
>  <TPSA> 
29.46 
 
>  <cid> 
8133 
 
>  <dipole> 
2.49 
 
>  <excitation_energy_1> 
6.825 
 
>  <excitation_energy_2> 
6.862 
 
>  <excitation_energy_3> 
7.036 
 
>  <excitation_energy_4> 
7.096 
 
>  <homo_energy> 
-7.031 
 
>  <homo_lumo_gap> 
9.325 
 
>  <logP> 
0.795 
 
>  <lumo_energy> 
2.294 
 
>  <melting_point> 
-16.89 
 
>  <molecular_refractivity> 
33.2 
 
>  <oscillator_strength_1> 
0.019 
 
>  <oscillator_strength_2> 
0.0076 
 
>  <oscillator_strength_3> 
0.013 
 
>  <oscillator_strength_4> 
0.0113 
 
>  <open_babel_can_smiles> 
CCCCOCCO 
 
>  <mulliken_charges> 
22 
1   -0.44058 
2   -0.257427 
3   -0.267153 
4   -0.033797 
5   -0.002035 
6   -0.031901 
7   -0.622865 
8   -0.495641 
9   0.144714 
10   0.144889 
11   0.144922 
12   0.134194 
13   0.134439 
14   0.140931 
15   0.14507 
16   0.129314 
17   0.143323 
18   0.11928 
19   0.121115 
20   0.130181 
21   0.119611 
22   0.399417 
 
>  <lowdin_charges> 
22 
1   -0.442056 
2   -0.271038 
3   -0.279934 
4   -0.139105 
5   -0.126159 
6   -0.14602 
7   -0.470121 
8   -0.282866 
9   0.151399 
10   0.147836 
11   0.147485 
12   0.13986 
13   0.13983 
14   0.145622 
15   0.14749 
16   0.131043 
17   0.150053 
18   0.12557 
19   0.126215 
20   0.132045 
21   0.129311 
22   0.343539 
 
$$$$ 
 
