PCCDB-ID:  68509 
public computational chemistry database (PCCDB) project, http://pccdb.org 
 
 23 23  0  0  0  0  0  0  0  0999 V2000 
    1.0211    0.4145   -0.1436 C   0  0  0  0  0  0  0  0  0  0  0  0 
    3.3981    0.5741   -0.9779 C   0  0  0  0  0  0  0  0  0  0  0  0 
    4.0321    0.6906    4.0357 C   0  0  0  0  0  0  0  0  0  0  0  0 
    4.3420   -0.4991    3.3768 C   0  0  0  0  0  0  0  0  0  0  0  0 
    3.2043    1.6214    3.4069 C   0  0  0  0  0  0  0  0  0  0  0  0 
    3.8284   -0.7569    2.1046 C   0  0  0  0  0  0  0  0  0  0  0  0 
    2.6894    1.3603    2.1366 C   0  0  0  0  0  0  0  0  0  0  0  0 
    2.9887    0.1657    1.4636 C   0  0  0  0  0  0  0  0  0  0  0  0 
    2.4638   -0.1084    0.0435 C   0  0  0  0  0  0  0  0  0  0  0  0 
    2.5377   -1.5628   -0.2142 N   0  0  0  0  0  0  0  0  0  0  0  0 
    0.9440    1.5034   -0.0544 H   0  0  0  0  0  0  0  0  0  0  0  0 
    0.3442   -0.0323    0.5942 H   0  0  0  0  0  0  0  0  0  0  0  0 
    0.6610    0.1461   -1.1446 H   0  0  0  0  0  0  0  0  0  0  0  0 
    3.4238    1.6573   -0.8218 H   0  0  0  0  0  0  0  0  0  0  0  0 
    3.0515    0.3874   -2.0032 H   0  0  0  0  0  0  0  0  0  0  0  0 
    4.4149    0.1831   -0.8805 H   0  0  0  0  0  0  0  0  0  0  0  0 
    4.4308    0.8915    5.0267 H   0  0  0  0  0  0  0  0  0  0  0  0 
    4.9892   -1.2324    3.8519 H   0  0  0  0  0  0  0  0  0  0  0  0 
    2.9541    2.5544    3.9058 H   0  0  0  0  0  0  0  0  0  0  0  0 
    4.0769   -1.6786    1.5900 H   0  0  0  0  0  0  0  0  0  0  0  0 
    2.0481    2.1035    1.6722 H   0  0  0  0  0  0  0  0  0  0  0  0 
    2.2300   -1.7401   -1.1703 H   0  0  0  0  0  0  0  0  0  0  0  0 
    1.8722   -2.0466    0.3902 H   0  0  0  0  0  0  0  0  0  0  0  0 
  1 11  1  0  0  0  0 
  1  9  1  0  0  0  0 
  1 12  1  0  0  0  0 
  2 16  1  0  0  0  0 
  2 14  1  0  0  0  0 
  2  9  1  0  0  0  0 
  3 17  1  0  0  0  0 
  4 18  1  0  0  0  0 
  4  3  2  0  0  0  0 
  5 19  1  0  0  0  0 
  5  3  1  0  0  0  0 
  6  4  1  0  0  0  0 
  7  5  2  0  0  0  0 
  8  6  2  0  0  0  0 
  8  7  1  0  0  0  0 
  9  8  1  0  0  0  0 
 10  9  1  0  0  0  0 
 10 23  1  0  0  0  0 
 13  1  1  0  0  0  0 
 15  2  1  0  0  0  0 
 20  6  1  0  0  0  0 
 21  7  1  0  0  0  0 
 22 10  1  0  0  0  0 
M  END 
>  <HBA> 
1 
 
>  <HBD> 
1 
 
>  <TPSA> 
26.02 
 
>  <cid> 
68509 
 
>  <dipole> 
1.41 
 
>  <excitation_energy_1> 
5.302 
 
>  <excitation_energy_2> 
5.589 
 
>  <excitation_energy_3> 
5.724 
 
>  <excitation_energy_4> 
5.783 
 
>  <homo_energy> 
-6.28 
 
>  <homo_lumo_gap> 
6.46 
 
>  <logP> 
2.581 
 
>  <lumo_energy> 
0.18 
 
>  <melting_point> 
67.02 
 
>  <molecular_refractivity> 
43.61 
 
>  <oscillator_strength_1> 
0.0013 
 
>  <oscillator_strength_2> 
0.0334 
 
>  <oscillator_strength_3> 
0.0071 
 
>  <oscillator_strength_4> 
0.0108 
 
>  <open_babel_can_smiles> 
CC(c1ccccc1)(N)C 
 
>  <mulliken_charges> 
23 
1   -0.453936 
2   -0.427641 
3   -0.128203 
4   -0.130421 
5   -0.134295 
6   -0.181361 
7   -0.18458 
8   0.140473 
9   0.123031 
10   -0.720087 
11   0.144332 
12   0.144334 
13   0.132324 
14   0.145791 
15   0.130343 
16   0.163324 
17   0.12457 
18   0.125348 
19   0.124623 
20   0.15526 
21   0.119308 
22   0.292874 
23   0.294588 
 
>  <lowdin_charges> 
23 
1   -0.455894 
2   -0.436246 
3   -0.160831 
4   -0.158579 
5   -0.158575 
6   -0.167715 
7   -0.171768 
8   -0.008908 
9   0.067352 
10   -0.543054 
11   0.147195 
12   0.151039 
13   0.144479 
14   0.150918 
15   0.141736 
16   0.160185 
17   0.154552 
18   0.156474 
19   0.155055 
20   0.171231 
21   0.155016 
22   0.252033 
23   0.254305 
 
$$$$ 
 
