PCCDB-ID:  28193 
public computational chemistry database (PCCDB) project, http://pccdb.org 
 
 18 18  0  0  0  0  0  0  0  0999 V2000 
   -1.4247   -0.1133    0.0036 C   0  0  0  0  0  0  0  0  0  0  0  0 
   -0.7050    1.0630   -0.0875 C   0  0  0  0  0  0  0  0  0  0  0  0 
    0.6620   -1.3314    0.0443 C   0  0  0  0  0  0  0  0  0  0  0  0 
   -0.7391   -1.3416    0.0896 C   0  0  0  0  0  0  0  0  0  0  0  0 
    0.7054    1.0984   -0.1043 C   0  0  0  0  0  0  0  0  0  0  0  0 
    1.3924   -0.1454   -0.0668 C   0  0  0  0  0  0  0  0  0  0  0  0 
    1.4014    2.4087   -0.1951 C   0  0  0  0  0  0  0  0  0  0  0  0 
   -1.4327   -2.5281    0.2468 N   0  0  0  0  0  0  0  0  0  0  0  0 
    2.5142    2.5920   -0.6534 O   0  0  0  0  0  0  0  0  0  0  0  0 
    0.7167    3.4917    0.2681 O   0  0  0  0  0  0  0  0  0  0  0  0 
    3.1601   -0.3425   -0.1074 S   0  0  0  0  0  0  0  0  0  0  0  0 
   -2.5111   -0.0941    0.0028 H   0  0  0  0  0  0  0  0  0  0  0  0 
   -1.2615    1.9905   -0.1996 H   0  0  0  0  0  0  0  0  0  0  0  0 
    1.1990   -2.2761    0.0829 H   0  0  0  0  0  0  0  0  0  0  0  0 
   -2.3988   -2.5315   -0.0518 H   0  0  0  0  0  0  0  0  0  0  0  0 
   -0.9403   -3.3779    0.0057 H   0  0  0  0  0  0  0  0  0  0  0  0 
   -0.0489    3.1978    0.7870 H   0  0  0  0  0  0  0  0  0  0  0  0 
    3.4168    0.9266   -0.5019 H   0  0  0  0  0  0  0  0  0  0  0  0 
  1  4  2  0  0  0  0 
  2  1  1  0  0  0  0 
  3 14  1  0  0  0  0 
  3  4  1  0  0  0  0 
  4  8  1  0  0  0  0 
  5  2  2  0  0  0  0 
  5  6  1  0  0  0  0 
  6  3  2  0  0  0  0 
  7  5  1  0  0  0  0 
  7 10  1  0  0  0  0 
  9  7  2  0  0  0  0 
 10 17  1  0  0  0  0 
 11  6  1  0  0  0  0 
 12  1  1  0  0  0  0 
 13  2  1  0  0  0  0 
 15  8  1  0  0  0  0 
 16  8  1  0  0  0  0 
 18 11  1  0  0  0  0 
M  END 
>  <HBA> 
4 
 
>  <HBD> 
3 
 
>  <TPSA> 
102.12 
 
>  <cid> 
28193 
 
>  <dipole> 
6.34 
 
>  <excitation_energy_1> 
4.05 
 
>  <excitation_energy_2> 
4.532 
 
>  <excitation_energy_3> 
4.838 
 
>  <excitation_energy_4> 
4.929 
 
>  <homo_energy> 
-6.008 
 
>  <homo_lumo_gap> 
4.863 
 
>  <logP> 
1.837 
 
>  <lumo_energy> 
-1.146 
 
>  <melting_point> 
170.57 
 
>  <molecular_refractivity> 
45.06 
 
>  <oscillator_strength_1> 
0.0361 
 
>  <oscillator_strength_2> 
0.1278 
 
>  <oscillator_strength_3> 
0.1561 
 
>  <oscillator_strength_4> 
0.0106 
 
>  <open_babel_can_smiles> 
Nc1ccc(c(c1)S)C(=O)O 
 
>  <mulliken_charges> 
18 
1   -0.181532 
2   -0.197736 
3   -0.213453 
4   0.355009 
5   0.035437 
6   -0.101948 
7   0.549415 
8   -0.791989 
9   -0.47296 
10   -0.56863 
11   -0.057969 
12   0.12903 
13   0.139329 
14   0.138959 
15   0.331766 
16   0.333867 
17   0.410197 
18   0.163207 
 
>  <lowdin_charges> 
18 
1   -0.205589 
2   -0.146881 
3   -0.211384 
4   0.082775 
5   -0.106153 
6   -0.078383 
7   0.19971 
8   -0.466773 
9   -0.262984 
10   -0.355196 
11   -0.027345 
12   0.15713 
13   0.160671 
14   0.16537 
15   0.282345 
16   0.284961 
17   0.358629 
18   0.169098 
 
$$$$ 
 
