PCCDB-ID:  12290 
public computational chemistry database (PCCDB) project, http://pccdb.org 
 
 12 12  0  0  0  0  0  0  0  0999 V2000 
   -0.7938    1.1471    0.0084 C   0  0  0  0  0  0  0  0  0  0  0  0 
    1.3972    0.0357   -0.0000 C   0  0  0  0  0  0  0  0  0  0  0  0 
   -1.3760   -0.0769    0.0557 C   0  0  0  0  0  0  0  0  0  0  0  0 
    0.7537   -1.1572    0.0473 C   0  0  0  0  0  0  0  0  0  0  0  0 
    0.6656    1.3090   -0.0265 C   0  0  0  0  0  0  0  0  0  0  0  0 
   -0.6190   -1.2241    0.0745 N   0  0  0  0  0  0  0  0  0  0  0  0 
    1.2232    2.4087   -0.0733 O   0  0  0  0  0  0  0  0  0  0  0  0 
   -1.4056    2.0425   -0.0049 H   0  0  0  0  0  0  0  0  0  0  0  0 
    2.4809    0.0710   -0.0199 H   0  0  0  0  0  0  0  0  0  0  0  0 
   -2.4506   -0.2261    0.0807 H   0  0  0  0  0  0  0  0  0  0  0  0 
    1.2682   -2.1125    0.0665 H   0  0  0  0  0  0  0  0  0  0  0  0 
   -1.0749   -2.1232    0.1092 H   0  0  0  0  0  0  0  0  0  0  0  0 
  1  3  2  0  0  0  0 
  2  4  2  0  0  0  0 
  3  6  1  0  0  0  0 
  3 10  1  0  0  0  0 
  4 11  1  0  0  0  0 
  4  6  1  0  0  0  0 
  5  2  1  0  0  0  0 
  5  1  1  0  0  0  0 
  6 12  1  0  0  0  0 
  7  5  2  0  0  0  0 
  8  1  1  0  0  0  0 
  9  2  1  0  0  0  0 
M  END 
>  <HBA> 
1 
 
>  <HBD> 
1 
 
>  <TPSA> 
32.86 
 
>  <cid> 
12290 
 
>  <dipole> 
6.68 
 
>  <excitation_energy_1> 
4.106 
 
>  <excitation_energy_2> 
4.532 
 
>  <excitation_energy_3> 
4.754 
 
>  <excitation_energy_4> 
4.895 
 
>  <homo_energy> 
-5.856 
 
>  <homo_lumo_gap> 
5.548 
 
>  <logP> 
0.375 
 
>  <lumo_energy> 
-0.307 
 
>  <melting_point> 
85.03 
 
>  <molecular_refractivity> 
27.06 
 
>  <oscillator_strength_1> 
0.0 
 
>  <oscillator_strength_2> 
0.0002 
 
>  <oscillator_strength_3> 
0.0004 
 
>  <oscillator_strength_4> 
0.0366 
 
>  <open_babel_can_smiles> 
O=c1cc[nH]cc1 
 
>  <mulliken_charges> 
12 
1   -0.227426 
2   -0.227528 
3   0.084917 
4   0.084999 
5   0.451732 
6   -0.588284 
7   -0.545561 
8   0.148152 
9   0.148143 
10   0.163859 
11   0.163866 
12   0.343131 
 
>  <lowdin_charges> 
12 
1   -0.215266 
2   -0.212126 
3   -0.08967 
4   -0.089726 
5   0.123812 
6   -0.184033 
7   -0.315717 
8   0.176063 
9   0.17358 
10   0.166884 
11   0.16876 
12   0.297439 
 
$$$$ 
 
