PCCDB-ID:  14463 
public computational chemistry database (PCCDB) project, http://pccdb.org 
 
 17 16  0  0  1  0  0  0  0  0999 V2000 
   -0.9169    0.5701   -0.8964 C   0  0  2  0  0  0  0  0  0  0  0  0 
    0.5880    0.2810   -0.6005 C   0  0  2  0  0  0  0  0  0  0  0  0 
   -1.6765    1.0469    0.3567 C   0  0  0  0  0  0  0  0  0  0  0  0 
    1.4739    1.5513   -0.6076 C   0  0  0  0  0  0  0  0  0  0  0  0 
   -1.6470   -0.5799   -1.4481 N   0  0  0  0  0  0  0  0  0  0  0  0 
    1.0775   -0.6008   -1.5769 O   0  0  0  0  0  0  0  0  0  0  0  0 
   -1.1855    1.7843    1.1993 O   0  0  0  0  0  0  0  0  0  0  0  0 
   -2.9160    0.5969    0.4436 O   0  0  0  0  0  0  0  0  0  0  0  0 
    2.4252    1.5925   -1.3648 O   0  0  0  0  0  0  0  0  0  0  0  0 
    1.1690    2.5374    0.2182 O   0  0  0  0  0  0  0  0  0  0  0  0 
   -0.9897    1.3833   -1.6304 H   0  0  0  0  0  0  0  0  0  0  0  0 
    0.6639   -0.1779    0.3997 H   0  0  0  0  0  0  0  0  0  0  0  0 
   -1.2667   -1.4466   -1.0671 H   0  0  0  0  0  0  0  0  0  0  0  0 
   -1.4926   -0.6398   -2.4513 H   0  0  0  0  0  0  0  0  0  0  0  0 
    1.8770   -0.1524   -1.9304 H   0  0  0  0  0  0  0  0  0  0  0  0 
   -3.0131   -0.0102   -0.3434 H   0  0  0  0  0  0  0  0  0  0  0  0 
    0.3334    2.3283    0.7237 H   0  0  0  0  0  0  0  0  0  0  0  0 
  1 11  1  6  0  0  0 
  1  2  1  0  0  0  0 
  1  3  1  0  0  0  0 
  2 12  1  1  0  0  0 
  3  8  1  0  0  0  0 
  3  7  2  0  0  0  0 
  4  2  1  0  0  0  0 
  4 10  1  0  0  0  0 
  5 13  1  0  0  0  0 
  5  1  1  0  0  0  0 
  6  2  1  0  0  0  0 
  9  4  2  0  0  0  0 
 10 17  1  0  0  0  0 
 14  5  1  0  0  0  0 
 15  6  1  0  0  0  0 
 16  8  1  0  0  0  0 
M  END 
>  <HBA> 
6 
 
>  <HBD> 
4 
 
>  <TPSA> 
120.85 
 
>  <cid> 
14463 
 
>  <dipole> 
4.37 
 
>  <excitation_energy_1> 
5.62 
 
>  <excitation_energy_2> 
5.874 
 
>  <excitation_energy_3> 
6.257 
 
>  <excitation_energy_4> 
6.383 
 
>  <homo_energy> 
-7.728 
 
>  <homo_lumo_gap> 
7.015 
 
>  <logP> 
-1.456 
 
>  <lumo_energy> 
-0.713 
 
>  <melting_point> 
201.95 
 
>  <molecular_refractivity> 
28.75 
 
>  <oscillator_strength_1> 
0.0029 
 
>  <oscillator_strength_2> 
0.001 
 
>  <oscillator_strength_3> 
0.0083 
 
>  <oscillator_strength_4> 
0.0064 
 
>  <open_babel_can_smiles> 
OC(=O)[C@@H]([C@H](C(=O)O)N)O 
 
>  <mulliken_charges> 
17 
1   -0.120184 
2   0.044568 
3   0.64446 
4   0.576797 
5   -0.76087 
6   -0.653551 
7   -0.497798 
8   -0.554407 
9   -0.473911 
10   -0.576546 
11   0.199102 
12   0.162589 
13   0.341455 
14   0.343789 
15   0.422811 
16   0.443275 
17   0.458421 
 
>  <lowdin_charges> 
17 
1   -0.125384 
2   -0.055745 
3   0.193435 
4   0.173342 
5   -0.524253 
6   -0.463377 
7   -0.274162 
8   -0.316631 
9   -0.262482 
10   -0.334188 
11   0.178841 
12   0.15206 
13   0.279352 
14   0.282917 
15   0.358293 
16   0.367734 
17   0.370249 
 
$$$$ 
 
