PCCDB-ID:  21211 
public computational chemistry database (PCCDB) project, http://pccdb.org 
 
 29 31  0  0  0  0  0  0  0  0999 V2000 
    2.2232   -0.7111   -0.1453 C   0  0  0  0  0  0  0  0  0  0  0  0 
   -1.1959    1.9589   -3.2769 C   0  0  0  0  0  0  0  0  0  0  0  0 
    4.3645    5.1414    0.2353 C   0  0  0  0  0  0  0  0  0  0  0  0 
   -1.7142    3.2676   -3.4967 C   0  0  0  0  0  0  0  0  0  0  0  0 
    3.7316    6.3884   -0.0373 C   0  0  0  0  0  0  0  0  0  0  0  0 
   -0.0357    1.7687   -2.5734 C   0  0  0  0  0  0  0  0  0  0  0  0 
    3.8067    3.9601   -0.1783 C   0  0  0  0  0  0  0  0  0  0  0  0 
   -1.0497    4.3594   -3.0096 C   0  0  0  0  0  0  0  0  0  0  0  0 
    2.5485    6.4229   -0.7229 C   0  0  0  0  0  0  0  0  0  0  0  0 
    0.6919    2.8801   -2.0396 C   0  0  0  0  0  0  0  0  0  0  0  0 
    2.5677    3.9477   -0.8958 C   0  0  0  0  0  0  0  0  0  0  0  0 
    0.1693    4.2085   -2.2759 C   0  0  0  0  0  0  0  0  0  0  0  0 
    1.9290    5.2151   -1.1742 C   0  0  0  0  0  0  0  0  0  0  0  0 
    1.9086    2.7763   -1.3305 C   0  0  0  0  0  0  0  0  0  0  0  0 
    2.5416    1.4438   -1.0455 C   0  0  0  0  0  0  0  0  0  0  0  0 
    0.7712    5.3252   -1.8420 N   0  0  0  0  0  0  0  0  0  0  0  0 
    3.7014    1.1655   -1.2707 O   0  0  0  0  0  0  0  0  0  0  0  0 
    1.6759    0.5805   -0.4696 O   0  0  0  0  0  0  0  0  0  0  0  0 
    3.0514   -0.6074    0.5601 H   0  0  0  0  0  0  0  0  0  0  0  0 
    2.5848   -1.2134   -1.0462 H   0  0  0  0  0  0  0  0  0  0  0  0 
    1.4014   -1.2682    0.3047 H   0  0  0  0  0  0  0  0  0  0  0  0 
   -1.7295    1.1001   -3.6749 H   0  0  0  0  0  0  0  0  0  0  0  0 
    5.3061    5.1288    0.7774 H   0  0  0  0  0  0  0  0  0  0  0  0 
   -2.6378    3.3911   -4.0555 H   0  0  0  0  0  0  0  0  0  0  0  0 
    4.1961    7.3102    0.3020 H   0  0  0  0  0  0  0  0  0  0  0  0 
    0.3369    0.7652   -2.4106 H   0  0  0  0  0  0  0  0  0  0  0  0 
    4.3103    3.0225    0.0211 H   0  0  0  0  0  0  0  0  0  0  0  0 
   -1.4096    5.3719   -3.1608 H   0  0  0  0  0  0  0  0  0  0  0  0 
    2.0366    7.3526   -0.9497 H   0  0  0  0  0  0  0  0  0  0  0  0 
  1 21  1  0  0  0  0 
  1 19  1  0  0  0  0 
  2  6  1  0  0  0  0 
  3 23  1  0  0  0  0 
  4  2  2  0  0  0  0 
  4  8  1  0  0  0  0 
  5  3  1  0  0  0  0 
  5 25  1  0  0  0  0 
  6 26  1  0  0  0  0 
  6 10  2  0  0  0  0 
  7 27  1  0  0  0  0 
  7  3  2  0  0  0  0 
  8 12  2  0  0  0  0 
  9  5  2  0  0  0  0 
 10 14  1  0  0  0  0 
 11  7  1  0  0  0  0 
 12 10  1  0  0  0  0 
 12 16  1  0  0  0  0 
 13 11  1  0  0  0  0 
 13  9  1  0  0  0  0 
 14 15  1  0  0  0  0 
 14 11  2  0  0  0  0 
 15 18  1  0  0  0  0 
 16 13  2  0  0  0  0 
 17 15  2  0  0  0  0 
 18  1  1  0  0  0  0 
 20  1  1  0  0  0  0 
 22  2  1  0  0  0  0 
 24  4  1  0  0  0  0 
 28  8  1  0  0  0  0 
 29  9  1  0  0  0  0 
M  END 
>  <HBA> 
3 
 
>  <HBD> 
0 
 
>  <TPSA> 
39.19 
 
>  <cid> 
21211 
 
>  <dipole> 
2.24 
 
>  <excitation_energy_1> 
3.086 
 
>  <excitation_energy_2> 
3.611 
 
>  <excitation_energy_3> 
3.801 
 
>  <excitation_energy_4> 
4.075 
 
>  <homo_energy> 
-5.785 
 
>  <homo_lumo_gap> 
3.516 
 
>  <logP> 
3.175 
 
>  <lumo_energy> 
-2.269 
 
>  <melting_point> 
135.44 
 
>  <molecular_refractivity> 
70.53 
 
>  <oscillator_strength_1> 
0.071 
 
>  <oscillator_strength_2> 
0.0008 
 
>  <oscillator_strength_3> 
0.068 
 
>  <oscillator_strength_4> 
0.0007 
 
>  <open_babel_can_smiles> 
COC(=O)c1c2ccccc2nc2c1cccc2 
 
>  <mulliken_charges> 
29 
1   -0.222091 
2   -0.136918 
3   -0.137875 
4   -0.133804 
5   -0.132877 
6   -0.177215 
7   -0.182312 
8   -0.142741 
9   -0.143567 
10   0.111022 
11   0.101006 
12   0.244291 
13   0.244482 
14   0.030209 
15   0.513024 
16   -0.59359 
17   -0.470437 
18   -0.43708 
19   0.174643 
20   0.173985 
21   0.170726 
22   0.135737 
23   0.137357 
24   0.137359 
25   0.137179 
26   0.143772 
27   0.162061 
28   0.147167 
29   0.146483 
 
>  <lowdin_charges> 
29 
1   -0.281179 
2   -0.154015 
3   -0.150378 
4   -0.149666 
5   -0.150596 
6   -0.157917 
7   -0.157 
8   -0.149821 
9   -0.151626 
10   -0.009487 
11   -0.00657 
12   0.044574 
13   0.044048 
14   -0.013739 
15   0.194876 
16   -0.142877 
17   -0.251434 
18   -0.179553 
19   0.162698 
20   0.162121 
21   0.165109 
22   0.162386 
23   0.161713 
24   0.16222 
25   0.162785 
26   0.165782 
27   0.175556 
28   0.170658 
29   0.171332 
 
$$$$ 
 
