PCCDB-ID:  57619 
public computational chemistry database (PCCDB) project, http://pccdb.org 
 
 27 28  0  0  1  0  0  0  0  0999 V2000 
    0.8072    0.0501    0.5693 C   0  0  0  0  0  0  0  0  0  0  0  0 
    5.0568   -1.8157   -2.1279 C   0  0  0  0  0  0  0  0  0  0  0  0 
    1.7710   -1.2604   -5.9103 C   0  0  0  0  0  0  0  0  0  0  0  0 
    1.2307   -1.9122   -4.8043 C   0  0  0  0  0  0  0  0  0  0  0  0 
    2.9342   -0.5031   -5.7534 C   0  0  0  0  0  0  0  0  0  0  0  0 
    1.8429   -1.8103   -3.5517 C   0  0  0  0  0  0  0  0  0  0  0  0 
    3.5429   -0.4012   -4.5047 C   0  0  0  0  0  0  0  0  0  0  0  0 
    2.5988    1.1335   -0.8898 C   0  0  0  0  0  0  0  0  0  0  0  0 
    2.2770    0.0507    0.1443 C   0  0  2  0  0  0  0  0  0  0  0  0 
    3.0074   -1.0519   -3.3791 C   0  0  0  0  0  0  0  0  0  0  0  0 
    3.7680   -0.9770   -2.0419 C   0  0  2  0  0  0  0  0  0  0  0  0 
    4.2333    0.7732   -1.6136 S   0  0  0  0  0  0  0  0  0  0  0  0 
    2.7712   -1.5897   -0.5781 S   0  0  0  0  0  0  0  0  0  0  0  0 
    0.5512    1.0097    1.0361 H   0  0  0  0  0  0  0  0  0  0  0  0 
    0.6046   -0.7390    1.3007 H   0  0  0  0  0  0  0  0  0  0  0  0 
    0.1484   -0.1066   -0.2910 H   0  0  0  0  0  0  0  0  0  0  0  0 
    5.6844   -1.4654   -2.9545 H   0  0  0  0  0  0  0  0  0  0  0  0 
    4.8071   -2.8636   -2.3256 H   0  0  0  0  0  0  0  0  0  0  0  0 
    5.6234   -1.7555   -1.1956 H   0  0  0  0  0  0  0  0  0  0  0  0 
    1.2927   -1.3374   -6.8831 H   0  0  0  0  0  0  0  0  0  0  0  0 
    0.3250   -2.5043   -4.9077 H   0  0  0  0  0  0  0  0  0  0  0  0 
    3.3680    0.0148   -6.6049 H   0  0  0  0  0  0  0  0  0  0  0  0 
    1.4086   -2.3227   -2.7009 H   0  0  0  0  0  0  0  0  0  0  0  0 
    4.4357    0.2073   -4.3972 H   0  0  0  0  0  0  0  0  0  0  0  0 
    2.6430    2.1227   -0.4219 H   0  0  0  0  0  0  0  0  0  0  0  0 
    1.8415    1.1548   -1.6814 H   0  0  0  0  0  0  0  0  0  0  0  0 
    2.9148    0.2033    1.0206 H   0  0  0  0  0  0  0  0  0  0  0  0 
  1 14  1  0  0  0  0 
  1 15  1  0  0  0  0 
  2 19  1  0  0  0  0 
  3  5  2  0  0  0  0 
  3  4  1  0  0  0  0 
  4  6  2  0  0  0  0 
  5  7  1  0  0  0  0 
  6 10  1  0  0  0  0 
  6 23  1  0  0  0  0 
  7 24  1  0  0  0  0 
  7 10  2  0  0  0  0 
  8 25  1  0  0  0  0 
  8  9  1  0  0  0  0 
  9  1  1  0  0  0  0 
  9 27  1  1  0  0  0 
 10 11  1  0  0  0  0 
 11  2  1  6  0  0  0 
 11 12  1  0  0  0  0 
 11 13  1  0  0  0  0 
 12  8  1  0  0  0  0 
 13  9  1  0  0  0  0 
 16  1  1  0  0  0  0 
 17  2  1  0  0  0  0 
 18  2  1  0  0  0  0 
 20  3  1  0  0  0  0 
 21  4  1  0  0  0  0 
 22  5  1  0  0  0  0 
 26  8  1  0  0  0  0 
M  END 
>  <HBA> 
2 
 
>  <HBD> 
0 
 
>  <TPSA> 
50.6 
 
>  <cid> 
57619 
 
>  <dipole> 
1.37 
 
>  <excitation_energy_1> 
4.428 
 
>  <excitation_energy_2> 
4.702 
 
>  <excitation_energy_3> 
4.985 
 
>  <excitation_energy_4> 
5.085 
 
>  <homo_energy> 
-5.959 
 
>  <homo_lumo_gap> 
5.589 
 
>  <logP> 
3.728 
 
>  <lumo_energy> 
-0.37 
 
>  <melting_point> 
51.96 
 
>  <molecular_refractivity> 
63.59 
 
>  <oscillator_strength_1> 
0.0055 
 
>  <oscillator_strength_2> 
0.0098 
 
>  <oscillator_strength_3> 
0.0015 
 
>  <oscillator_strength_4> 
0.0093 
 
>  <open_babel_can_smiles> 
C[C@@H]1CS[C@](S1)(C)c1ccccc1 
 
>  <mulliken_charges> 
27 
1   -0.445273 
2   -0.439552 
3   -0.127302 
4   -0.131995 
5   -0.13222 
6   -0.183563 
7   -0.166212 
8   -0.419163 
9   -0.230975 
10   0.179634 
11   -0.349046 
12   0.120248 
13   0.100225 
14   0.149863 
15   0.164365 
16   0.163897 
17   0.16178 
18   0.168091 
19   0.178102 
20   0.128927 
21   0.129247 
22   0.129934 
23   0.15848 
24   0.143703 
25   0.180638 
26   0.187594 
27   0.180571 
 
>  <lowdin_charges> 
27 
1   -0.445702 
2   -0.439119 
3   -0.15762 
4   -0.156467 
5   -0.158143 
6   -0.171848 
7   -0.15865 
8   -0.377784 
9   -0.216707 
10   -0.020243 
11   -0.166191 
12   0.111767 
13   0.08143 
14   0.15334 
15   0.161893 
16   0.159873 
17   0.159943 
18   0.162433 
19   0.168377 
20   0.157084 
21   0.157312 
22   0.158799 
23   0.171719 
24   0.164122 
25   0.17269 
26   0.165451 
27   0.162241 
 
$$$$ 
 
