PCCDB-ID:  7311 
public computational chemistry database (PCCDB) project, http://pccdb.org 
 
 37 37  0  0  0  0  0  0  0  0999 V2000 
    2.1246   -1.0386    1.0526 C   0  0  0  0  0  0  0  0  0  0  0  0 
    3.7124   -0.5699   -0.8510 C   0  0  0  0  0  0  0  0  0  0  0  0 
    1.3409    0.2103   -0.9638 C   0  0  0  0  0  0  0  0  0  0  0  0 
    5.2784    2.7813    4.6401 C   0  0  0  0  0  0  0  0  0  0  0  0 
    6.2900    0.9148    3.3369 C   0  0  0  0  0  0  0  0  0  0  0  0 
    6.8754    3.2593    2.7292 C   0  0  0  0  0  0  0  0  0  0  0  0 
    2.3414    2.5306    0.4511 C   0  0  0  0  0  0  0  0  0  0  0  0 
    2.7811    3.6809    1.1055 C   0  0  0  0  0  0  0  0  0  0  0  0 
    4.0577    1.2987    1.5659 C   0  0  0  0  0  0  0  0  0  0  0  0 
    2.9744    1.3060    0.6685 C   0  0  0  0  0  0  0  0  0  0  0  0 
    4.5340    2.4243    2.2468 C   0  0  0  0  0  0  0  0  0  0  0  0 
    3.8572    3.6391    1.9897 C   0  0  0  0  0  0  0  0  0  0  0  0 
    2.5385   -0.0015   -0.0184 C   0  0  0  0  0  0  0  0  0  0  0  0 
    5.7265    2.3457    3.2230 C   0  0  0  0  0  0  0  0  0  0  0  0 
    4.2740    4.7869    2.6255 O   0  0  0  0  0  0  0  0  0  0  0  0 
    1.8182   -1.9793    0.5780 H   0  0  0  0  0  0  0  0  0  0  0  0 
    1.2833   -0.6692    1.6501 H   0  0  0  0  0  0  0  0  0  0  0  0 
    2.9466   -1.2656    1.7396 H   0  0  0  0  0  0  0  0  0  0  0  0 
    3.4173   -1.5066   -1.3400 H   0  0  0  0  0  0  0  0  0  0  0  0 
    4.5885   -0.7815   -0.2289 H   0  0  0  0  0  0  0  0  0  0  0  0 
    4.0199    0.1384   -1.6288 H   0  0  0  0  0  0  0  0  0  0  0  0 
    1.0640   -0.7422   -1.4297 H   0  0  0  0  0  0  0  0  0  0  0  0 
    1.5762    0.9154   -1.7694 H   0  0  0  0  0  0  0  0  0  0  0  0 
    0.4605    0.5838   -0.4283 H   0  0  0  0  0  0  0  0  0  0  0  0 
    6.1244    2.7199    5.3361 H   0  0  0  0  0  0  0  0  0  0  0  0 
    4.4866    2.1215    5.0146 H   0  0  0  0  0  0  0  0  0  0  0  0 
    4.9029    3.8062    4.6480 H   0  0  0  0  0  0  0  0  0  0  0  0 
    7.1274    0.9138    4.0437 H   0  0  0  0  0  0  0  0  0  0  0  0 
    6.6695    0.5418    2.3786 H   0  0  0  0  0  0  0  0  0  0  0  0 
    5.5435    0.2056    3.7124 H   0  0  0  0  0  0  0  0  0  0  0  0 
    7.7251    3.2000    3.4210 H   0  0  0  0  0  0  0  0  0  0  0  0 
    6.5615    4.3027    2.6620 H   0  0  0  0  0  0  0  0  0  0  0  0 
    7.2247    2.9401    1.7400 H   0  0  0  0  0  0  0  0  0  0  0  0 
    1.4989    2.6126   -0.2264 H   0  0  0  0  0  0  0  0  0  0  0  0 
    2.2775    4.6304    0.9254 H   0  0  0  0  0  0  0  0  0  0  0  0 
    4.5585    0.3547    1.7414 H   0  0  0  0  0  0  0  0  0  0  0  0 
    3.7068    5.5182    2.3354 H   0  0  0  0  0  0  0  0  0  0  0  0 
  1 17  1  0  0  0  0 
  1 18  1  0  0  0  0 
  2 20  1  0  0  0  0 
  2 13  1  0  0  0  0 
  3 24  1  0  0  0  0 
  3 13  1  0  0  0  0 
  4 27  1  0  0  0  0 
  4 26  1  0  0  0  0 
  4 25  1  0  0  0  0 
  5 30  1  0  0  0  0 
  5 28  1  0  0  0  0 
  6 14  1  0  0  0  0 
  6 31  1  0  0  0  0 
  7 10  2  0  0  0  0 
  7  8  1  0  0  0  0 
  8 12  2  0  0  0  0 
  9 36  1  0  0  0  0 
  9 11  2  0  0  0  0 
 10  9  1  0  0  0  0 
 11 14  1  0  0  0  0 
 12 11  1  0  0  0  0 
 12 15  1  0  0  0  0 
 13 10  1  0  0  0  0 
 13  1  1  0  0  0  0 
 14  5  1  0  0  0  0 
 14  4  1  0  0  0  0 
 16  1  1  0  0  0  0 
 19  2  1  0  0  0  0 
 21  2  1  0  0  0  0 
 22  3  1  0  0  0  0 
 23  3  1  0  0  0  0 
 29  5  1  0  0  0  0 
 32  6  1  0  0  0  0 
 33  6  1  0  0  0  0 
 34  7  1  0  0  0  0 
 35  8  1  0  0  0  0 
 37 15  1  0  0  0  0 
M  END 
>  <HBA> 
1 
 
>  <HBD> 
1 
 
>  <TPSA> 
20.23 
 
>  <cid> 
7311 
 
>  <dipole> 
1.32 
 
>  <excitation_energy_1> 
4.953 
 
>  <excitation_energy_2> 
4.974 
 
>  <excitation_energy_3> 
5.442 
 
>  <excitation_energy_4> 
5.624 
 
>  <homo_energy> 
-5.682 
 
>  <homo_lumo_gap> 
5.845 
 
>  <logP> 
3.987 
 
>  <lumo_energy> 
0.163 
 
>  <melting_point> 
62.87 
 
>  <molecular_refractivity> 
67.0 
 
>  <oscillator_strength_1> 
0.0446 
 
>  <oscillator_strength_2> 
0.0 
 
>  <oscillator_strength_3> 
0.0025 
 
>  <oscillator_strength_4> 
0.0481 
 
>  <open_babel_can_smiles> 
Oc1ccc(cc1C(C)(C)C)C(C)(C)C 
 
>  <mulliken_charges> 
37 
1   -0.437654 
2   -0.438348 
3   -0.456399 
4   -0.45077 
5   -0.45647 
6   -0.450648 
7   -0.210952 
8   -0.192212 
9   -0.28764 
10   0.19639 
11   0.148837 
12   0.291289 
13   0.018174 
14   0.032828 
15   -0.648906 
16   0.135638 
17   0.145233 
18   0.14235 
19   0.135782 
20   0.142474 
21   0.145386 
22   0.139872 
23   0.143521 
24   0.143491 
25   0.131227 
26   0.137189 
27   0.170149 
28   0.140478 
29   0.142353 
30   0.142425 
31   0.131287 
32   0.169941 
33   0.137191 
34   0.123898 
35   0.110321 
36   0.125752 
37   0.406524 
 
>  <lowdin_charges> 
37 
1   -0.44101 
2   -0.441039 
3   -0.444916 
4   -0.446946 
5   -0.445999 
6   -0.44496 
7   -0.166366 
8   -0.21439 
9   -0.168928 
10   -0.019612 
11   -0.025584 
12   0.093616 
13   0.017777 
14   0.022258 
15   -0.383976 
16   0.145233 
17   0.151367 
18   0.148715 
19   0.145386 
20   0.148443 
21   0.151554 
22   0.14977 
23   0.149098 
24   0.148982 
25   0.144101 
26   0.147394 
27   0.160159 
28   0.150797 
29   0.147198 
30   0.148285 
31   0.144038 
32   0.159746 
33   0.145996 
34   0.159039 
35   0.149057 
36   0.158583 
37   0.357133 
 
$$$$ 
 
