PCCDB-ID:  21831 
public computational chemistry database (PCCDB) project, http://pccdb.org 
 
 25 26  0  0  0  0  0  0  0  0999 V2000 
   -1.5656   -1.8850    0.5705 C   0  0  0  0  0  0  0  0  0  0  0  0 
   -0.5228   -2.8037    0.4153 C   0  0  0  0  0  0  0  0  0  0  0  0 
   -1.2924   -0.5188    0.5019 C   0  0  0  0  0  0  0  0  0  0  0  0 
    0.7783   -2.3627    0.1953 C   0  0  0  0  0  0  0  0  0  0  0  0 
    0.0115   -0.0781    0.2813 C   0  0  0  0  0  0  0  0  0  0  0  0 
    2.4252   -0.4631   -0.1035 C   0  0  0  0  0  0  0  0  0  0  0  0 
    3.5614   -1.1645   -0.2513 C   0  0  0  0  0  0  0  0  0  0  0  0 
    7.3313   -1.8356   -0.1767 C   0  0  0  0  0  0  0  0  0  0  0  0 
    7.3345   -1.1877   -1.5566 C   0  0  0  0  0  0  0  0  0  0  0  0 
    1.0725   -0.9876    0.1253 C   0  0  0  0  0  0  0  0  0  0  0  0 
    4.8900   -0.5207   -0.4758 C   0  0  0  0  0  0  0  0  0  0  0  0 
    6.1208   -0.9365    0.8714 S   0  0  0  0  0  0  0  0  0  0  0  0 
    5.5928   -1.0561   -2.1099 S   0  0  0  0  0  0  0  0  0  0  0  0 
   -2.5805   -2.2335    0.7414 H   0  0  0  0  0  0  0  0  0  0  0  0 
   -0.7263   -3.8701    0.4660 H   0  0  0  0  0  0  0  0  0  0  0  0 
   -2.0937    0.2056    0.6206 H   0  0  0  0  0  0  0  0  0  0  0  0 
    1.5729   -3.0931    0.0757 H   0  0  0  0  0  0  0  0  0  0  0  0 
    0.2180    0.9886    0.2293 H   0  0  0  0  0  0  0  0  0  0  0  0 
    2.4893    0.6248   -0.1523 H   0  0  0  0  0  0  0  0  0  0  0  0 
    3.5704   -2.2511   -0.2114 H   0  0  0  0  0  0  0  0  0  0  0  0 
    8.3076   -1.7439    0.3116 H   0  0  0  0  0  0  0  0  0  0  0  0 
    7.0665   -2.8943   -0.2425 H   0  0  0  0  0  0  0  0  0  0  0  0 
    7.8603   -1.8084   -2.2903 H   0  0  0  0  0  0  0  0  0  0  0  0 
    7.8040   -0.2001   -1.5274 H   0  0  0  0  0  0  0  0  0  0  0  0 
    4.7893    0.5673   -0.4714 H   0  0  0  0  0  0  0  0  0  0  0  0 
  1 14  1  0  0  0  0 
  2 15  1  0  0  0  0 
  2  1  2  0  0  0  0 
  3  1  1  0  0  0  0 
  3 16  1  0  0  0  0 
  4  2  1  0  0  0  0 
  5  3  2  0  0  0  0 
  6 10  1  0  0  0  0 
  7 20  1  0  0  0  0 
  7  6  2  0  0  0  0 
  8 21  1  0  0  0  0 
  8 12  1  0  0  0  0 
  9 24  1  0  0  0  0 
  9  8  1  0  0  0  0 
 10  4  2  0  0  0  0 
 10  5  1  0  0  0  0 
 11 25  1  0  0  0  0 
 11  7  1  0  0  0  0 
 11 12  1  0  0  0  0 
 13  9  1  0  0  0  0 
 13 11  1  0  0  0  0 
 17  4  1  0  0  0  0 
 18  5  1  0  0  0  0 
 19  6  1  0  0  0  0 
 22  8  1  0  0  0  0 
 23  9  1  0  0  0  0 
M  END 
>  <HBA> 
2 
 
>  <HBD> 
0 
 
>  <TPSA> 
50.6 
 
>  <cid> 
21831 
 
>  <dipole> 
0.79 
 
>  <excitation_energy_1> 
4.227 
 
>  <excitation_energy_2> 
4.361 
 
>  <excitation_energy_3> 
4.658 
 
>  <excitation_energy_4> 
4.718 
 
>  <homo_energy> 
-5.864 
 
>  <homo_lumo_gap> 
4.806 
 
>  <logP> 
3.506 
 
>  <lumo_energy> 
-1.059 
 
>  <melting_point> 
65.36 
 
>  <molecular_refractivity> 
64.02 
 
>  <oscillator_strength_1> 
0.1207 
 
>  <oscillator_strength_2> 
0.2899 
 
>  <oscillator_strength_3> 
0.0611 
 
>  <oscillator_strength_4> 
0.0065 
 
>  <open_babel_can_smiles> 
C1CSC(S1)/C=C/c1ccccc1 
 
>  <mulliken_charges> 
25 
1   -0.128389 
2   -0.129912 
3   -0.12913 
4   -0.180195 
5   -0.195519 
6   -0.176222 
7   -0.072219 
8   -0.412563 
9   -0.417572 
10   0.179394 
11   -0.459837 
12   0.114752 
13   0.121994 
14   0.131101 
15   0.131902 
16   0.13155 
17   0.132033 
18   0.129055 
19   0.127852 
20   0.150622 
21   0.183841 
22   0.190466 
23   0.184373 
24   0.18946 
25   0.203164 
 
>  <lowdin_charges> 
25 
1   -0.154484 
2   -0.150893 
3   -0.156182 
4   -0.154459 
5   -0.156671 
6   -0.15426 
7   -0.164573 
8   -0.373932 
9   -0.378946 
10   -0.001392 
11   -0.308476 
12   0.096551 
13   0.108384 
14   0.157905 
15   0.157018 
16   0.159723 
17   0.159808 
18   0.154827 
19   0.152233 
20   0.161803 
21   0.172759 
22   0.163602 
23   0.175338 
24   0.164616 
25   0.169699 
 
$$$$ 
 
