PCCDB-ID:  8284 
public computational chemistry database (PCCDB) project, http://pccdb.org 
 
 25 24  0  0  0  0  0  0  0  0999 V2000 
    2.6860   -0.5490    1.1644 C   0  0  0  0  0  0  0  0  0  0  0  0 
    1.4666    2.3328   -2.2226 C   0  0  0  0  0  0  0  0  0  0  0  0 
    2.5206    0.1405   -0.1995 C   0  0  0  0  0  0  0  0  0  0  0  0 
    2.9209    2.0387   -1.8346 C   0  0  0  0  0  0  0  0  0  0  0  0 
    2.5976    2.5448    0.6445 C   0  0  0  0  0  0  0  0  0  0  0  0 
    4.6977    1.4075   -0.1686 C   0  0  0  0  0  0  0  0  0  0  0  0 
    3.1708    1.5385   -0.3851 C   0  0  0  0  0  0  0  0  0  0  0  0 
    2.9933    3.8873    0.4092 O   0  0  0  0  0  0  0  0  0  0  0  0 
    5.4172    2.6478   -0.2788 O   0  0  0  0  0  0  0  0  0  0  0  0 
    2.1550   -1.5076    1.1614 H   0  0  0  0  0  0  0  0  0  0  0  0 
    2.2726    0.0478    1.9840 H   0  0  0  0  0  0  0  0  0  0  0  0 
    3.7334   -0.7625    1.4036 H   0  0  0  0  0  0  0  0  0  0  0  0 
    1.4159    2.6561   -3.2685 H   0  0  0  0  0  0  0  0  0  0  0  0 
    1.0523    3.1390   -1.6094 H   0  0  0  0  0  0  0  0  0  0  0  0 
    0.8190    1.4553   -2.1222 H   0  0  0  0  0  0  0  0  0  0  0  0 
    1.4473    0.2317   -0.4059 H   0  0  0  0  0  0  0  0  0  0  0  0 
    2.9174   -0.5256   -0.9795 H   0  0  0  0  0  0  0  0  0  0  0  0 
    3.4865    2.9657   -1.9862 H   0  0  0  0  0  0  0  0  0  0  0  0 
    3.3392    1.2941   -2.5285 H   0  0  0  0  0  0  0  0  0  0  0  0 
    2.8847    2.2289    1.6608 H   0  0  0  0  0  0  0  0  0  0  0  0 
    1.5025    2.5353    0.6062 H   0  0  0  0  0  0  0  0  0  0  0  0 
    5.1169    0.6657   -0.8661 H   0  0  0  0  0  0  0  0  0  0  0  0 
    4.9104    1.0629    0.8469 H   0  0  0  0  0  0  0  0  0  0  0  0 
    3.9660    3.8612    0.3451 H   0  0  0  0  0  0  0  0  0  0  0  0 
    5.4515    2.8883   -1.2176 H   0  0  0  0  0  0  0  0  0  0  0  0 
  1 12  1  0  0  0  0 
  1 11  1  0  0  0  0 
  2 15  1  0  0  0  0 
  2  4  1  0  0  0  0 
  2 14  1  0  0  0  0 
  3  1  1  0  0  0  0 
  4  7  1  0  0  0  0 
  5 20  1  0  0  0  0 
  6 23  1  0  0  0  0 
  7  3  1  0  0  0  0 
  7  6  1  0  0  0  0 
  7  5  1  0  0  0  0 
  8  5  1  0  0  0  0 
  9  6  1  0  0  0  0 
 10  1  1  0  0  0  0 
 13  2  1  0  0  0  0 
 16  3  1  0  0  0  0 
 17  3  1  0  0  0  0 
 18  4  1  0  0  0  0 
 19  4  1  0  0  0  0 
 21  5  1  0  0  0  0 
 22  6  1  0  0  0  0 
 24  8  1  0  0  0  0 
 25  9  1  0  0  0  0 
M  END 
>  <HBA> 
2 
 
>  <HBD> 
2 
 
>  <TPSA> 
40.46 
 
>  <cid> 
8284 
 
>  <dipole> 
2.64 
 
>  <excitation_energy_1> 
6.073 
 
>  <excitation_energy_2> 
6.485 
 
>  <excitation_energy_3> 
6.513 
 
>  <excitation_energy_4> 
6.78 
 
>  <homo_energy> 
-6.694 
 
>  <homo_lumo_gap> 
8.21 
 
>  <logP> 
0.777 
 
>  <lumo_energy> 
1.516 
 
>  <melting_point> 
28.7 
 
>  <molecular_refractivity> 
37.83 
 
>  <oscillator_strength_1> 
0.0007 
 
>  <oscillator_strength_2> 
0.0064 
 
>  <oscillator_strength_3> 
0.0117 
 
>  <oscillator_strength_4> 
0.0032 
 
>  <open_babel_can_smiles> 
CCC(CO)(CO)CC 
 
>  <mulliken_charges> 
25 
1   -0.460851 
2   -0.460227 
3   -0.26885 
4   -0.258359 
5   -0.027582 
6   -0.056539 
7   0.043301 
8   -0.647105 
9   -0.629911 
10   0.147384 
11   0.154455 
12   0.147335 
13   0.142507 
14   0.170157 
15   0.143465 
16   0.142187 
17   0.129457 
18   0.122264 
19   0.121055 
20   0.116994 
21   0.136532 
22   0.127637 
23   0.154161 
24   0.406538 
25   0.403994 
 
>  <lowdin_charges> 
25 
1   -0.45081 
2   -0.448213 
3   -0.274155 
4   -0.280338 
5   -0.134842 
6   -0.141212 
7   -0.033309 
8   -0.481293 
9   -0.460824 
10   0.153505 
11   0.152279 
12   0.146374 
13   0.150635 
14   0.161374 
15   0.146169 
16   0.145846 
17   0.142221 
18   0.13869 
19   0.136663 
20   0.125337 
21   0.1397 
22   0.134174 
23   0.150383 
24   0.336578 
25   0.345067 
 
$$$$ 
 
