PCCDB-ID:  11230 
public computational chemistry database (PCCDB) project, http://pccdb.org 
 
 29 29  0  0  1  0  0  0  0  0999 V2000 
    1.6707   -1.1430    0.2095 C   0  0  0  0  0  0  0  0  0  0  0  0 
    1.2010    1.1958   -0.6152 C   0  0  0  0  0  0  0  0  0  0  0  0 
    0.8747    4.3121    2.6207 C   0  0  0  0  0  0  0  0  0  0  0  0 
    2.7876    3.3086    1.3729 C   0  0  0  0  0  0  0  0  0  0  0  0 
    1.3524    1.7925    2.7227 C   0  0  0  0  0  0  0  0  0  0  0  0 
    3.6776    2.1906    0.8875 C   0  0  0  0  0  0  0  0  0  0  0  0 
    2.4443    0.7318    2.5163 C   0  0  0  0  0  0  0  0  0  0  0  0 
    2.2754    0.2436   -0.0653 C   0  0  0  0  0  0  0  0  0  0  0  0 
    1.7392    3.1549    2.1918 C   0  0  0  0  0  0  0  0  0  0  0  0 
    3.1281    0.7660    1.1344 C   0  0  1  0  0  0  0  0  0  0  0  0 
    4.2337   -0.1616    1.1484 O   0  0  0  0  0  0  0  0  0  0  0  0 
    1.2781   -1.5738   -0.7190 H   0  0  0  0  0  0  0  0  0  0  0  0 
    0.8346   -1.0913    0.9185 H   0  0  0  0  0  0  0  0  0  0  0  0 
    2.4228   -1.8275    0.6113 H   0  0  0  0  0  0  0  0  0  0  0  0 
    0.7795    0.7652   -1.5314 H   0  0  0  0  0  0  0  0  0  0  0  0 
    1.5994    2.1826   -0.8663 H   0  0  0  0  0  0  0  0  0  0  0  0 
    0.3710    1.3394    0.0843 H   0  0  0  0  0  0  0  0  0  0  0  0 
    1.2069    5.2555    2.1756 H   0  0  0  0  0  0  0  0  0  0  0  0 
    0.8784    4.4303    3.7134 H   0  0  0  0  0  0  0  0  0  0  0  0 
   -0.1734    4.1517    2.3302 H   0  0  0  0  0  0  0  0  0  0  0  0 
    3.0384    4.3088    1.0181 H   0  0  0  0  0  0  0  0  0  0  0  0 
    1.1261    1.8701    3.7964 H   0  0  0  0  0  0  0  0  0  0  0  0 
    0.4072    1.4740    2.2580 H   0  0  0  0  0  0  0  0  0  0  0  0 
    4.6556    2.2666    1.3902 H   0  0  0  0  0  0  0  0  0  0  0  0 
    3.9009    2.3186   -0.1808 H   0  0  0  0  0  0  0  0  0  0  0  0 
    2.0572   -0.2718    2.7180 H   0  0  0  0  0  0  0  0  0  0  0  0 
    3.2340    0.9132    3.2620 H   0  0  0  0  0  0  0  0  0  0  0  0 
    3.0234    0.1152   -0.8599 H   0  0  0  0  0  0  0  0  0  0  0  0 
    4.7730    0.0441    1.9287 H   0  0  0  0  0  0  0  0  0  0  0  0 
  1 14  1  0  0  0  0 
  1 13  1  0  0  0  0 
  2  8  1  0  0  0  0 
  2 17  1  0  0  0  0 
  3 19  1  0  0  0  0 
  4  9  2  0  0  0  0 
  5 22  1  0  0  0  0 
  6 10  1  0  0  0  0 
  6  4  1  0  0  0  0 
  6 24  1  0  0  0  0 
  7 26  1  0  0  0  0 
  7  5  1  0  0  0  0 
  7 27  1  0  0  0  0 
  8  1  1  0  0  0  0 
  8 10  1  0  0  0  0 
  9  3  1  0  0  0  0 
  9  5  1  0  0  0  0 
 10 11  1  1  0  0  0 
 10  7  1  0  0  0  0 
 11 29  1  0  0  0  0 
 12  1  1  0  0  0  0 
 15  2  1  0  0  0  0 
 16  2  1  0  0  0  0 
 18  3  1  0  0  0  0 
 20  3  1  0  0  0  0 
 21  4  1  0  0  0  0 
 23  5  1  0  0  0  0 
 25  6  1  0  0  0  0 
 28  8  1  0  0  0  0 
M  END 
>  <HBA> 
1 
 
>  <HBD> 
1 
 
>  <TPSA> 
20.23 
 
>  <cid> 
11230 
 
>  <dipole> 
1.58 
 
>  <excitation_energy_1> 
5.633 
 
>  <excitation_energy_2> 
5.976 
 
>  <excitation_energy_3> 
6.207 
 
>  <excitation_energy_4> 
6.245 
 
>  <homo_energy> 
-6.253 
 
>  <homo_lumo_gap> 
7.034 
 
>  <logP> 
2.504 
 
>  <lumo_energy> 
0.781 
 
>  <melting_point> 
36.21 
 
>  <molecular_refractivity> 
48.8 
 
>  <oscillator_strength_1> 
0.0041 
 
>  <oscillator_strength_2> 
0.0021 
 
>  <oscillator_strength_3> 
0.0635 
 
>  <oscillator_strength_4> 
0.0099 
 
>  <open_babel_can_smiles> 
CC1=CC[C@](CC1)(O)C(C)C 
 
>  <mulliken_charges> 
29 
1   -0.458482 
2   -0.454638 
3   -0.513992 
4   -0.173717 
5   -0.336702 
6   -0.325071 
7   -0.298004 
8   -0.072579 
9   0.190987 
10   0.319239 
11   -0.655227 
12   0.136174 
13   0.132731 
14   0.165803 
15   0.139002 
16   0.149644 
17   0.141813 
18   0.15221 
19   0.149615 
20   0.151152 
21   0.11179 
22   0.13859 
23   0.1501 
24   0.129595 
25   0.146786 
26   0.147654 
27   0.117243 
28   0.137783 
29   0.380502 
 
>  <lowdin_charges> 
29 
1   -0.450808 
2   -0.448208 
3   -0.435381 
4   -0.19613 
5   -0.276977 
6   -0.285867 
7   -0.288935 
8   -0.126199 
9   -0.017022 
10   0.118026 
11   -0.462706 
12   0.148117 
13   0.141152 
14   0.160978 
15   0.148948 
16   0.152781 
17   0.146312 
18   0.155292 
19   0.150888 
20   0.152546 
21   0.147329 
22   0.147208 
23   0.14817 
24   0.145471 
25   0.151344 
26   0.152646 
27   0.137508 
28   0.148947 
29   0.33457 
 
$$$$ 
 
