PCCDB-ID:  7887 
public computational chemistry database (PCCDB) project, http://pccdb.org 
 
 34 33  0  0  1  0  0  0  0  0999 V2000 
    2.2363    0.1240    1.7727 C   0  0  0  0  0  0  0  0  0  0  0  0 
    4.2218   -0.9137    2.9352 C   0  0  0  0  0  0  0  0  0  0  0  0 
    7.6915   -3.5374   -0.7525 C   0  0  0  0  0  0  0  0  0  0  0  0 
    5.3721   -1.5002    0.0492 C   0  0  0  0  0  0  0  0  0  0  0  0 
    3.9115   -1.1893    0.4074 C   0  0  0  0  0  0  0  0  0  0  0  0 
    5.5025   -2.3104   -1.2486 C   0  0  0  0  0  0  0  0  0  0  0  0 
    8.3461   -3.2049   -3.7851 C   0  0  0  0  0  0  0  0  0  0  0  0 
    3.7131   -0.2756    1.6336 C   0  0  0  0  0  0  0  0  0  0  0  0 
    6.9540   -2.5796   -1.7038 C   0  0  2  0  0  0  0  0  0  0  0  0 
    6.9578   -3.0828   -3.1588 C   0  0  2  0  0  0  0  0  0  0  0  0 
    8.1302   -3.6813   -5.1189 O   0  0  0  0  0  0  0  0  0  0  0  0 
    6.3073   -4.3476   -3.2142 O   0  0  0  0  0  0  0  0  0  0  0  0 
    2.0850    0.8036    2.6200 H   0  0  0  0  0  0  0  0  0  0  0  0 
    1.6052   -0.7590    1.9393 H   0  0  0  0  0  0  0  0  0  0  0  0 
    1.8714    0.6269    0.8691 H   0  0  0  0  0  0  0  0  0  0  0  0 
    4.0570   -0.2461    3.7894 H   0  0  0  0  0  0  0  0  0  0  0  0 
    5.2931   -1.1377    2.8945 H   0  0  0  0  0  0  0  0  0  0  0  0 
    3.6919   -1.8532    3.1422 H   0  0  0  0  0  0  0  0  0  0  0  0 
    7.6310   -3.1900    0.2836 H   0  0  0  0  0  0  0  0  0  0  0  0 
    8.7557   -3.6220   -0.9997 H   0  0  0  0  0  0  0  0  0  0  0  0 
    7.2525   -4.5386   -0.8061 H   0  0  0  0  0  0  0  0  0  0  0  0 
    5.8461   -2.0414    0.8771 H   0  0  0  0  0  0  0  0  0  0  0  0 
    5.9262   -0.5545   -0.0567 H   0  0  0  0  0  0  0  0  0  0  0  0 
    3.3680   -2.1325    0.5729 H   0  0  0  0  0  0  0  0  0  0  0  0 
    3.4315   -0.7140   -0.4609 H   0  0  0  0  0  0  0  0  0  0  0  0 
    4.9814   -1.7673   -2.0504 H   0  0  0  0  0  0  0  0  0  0  0  0 
    4.9794   -3.2700   -1.1462 H   0  0  0  0  0  0  0  0  0  0  0  0 
    8.9579   -3.9175   -3.2164 H   0  0  0  0  0  0  0  0  0  0  0  0 
    8.8545   -2.2284   -3.7904 H   0  0  0  0  0  0  0  0  0  0  0  0 
    4.2937    0.6442    1.4597 H   0  0  0  0  0  0  0  0  0  0  0  0 
    7.4856   -1.6145   -1.7117 H   0  0  0  0  0  0  0  0  0  0  0  0 
    6.4014   -2.3520   -3.7726 H   0  0  0  0  0  0  0  0  0  0  0  0 
    8.9715   -4.0111   -5.4664 H   0  0  0  0  0  0  0  0  0  0  0  0 
    6.4689   -4.6747   -4.1160 H   0  0  0  0  0  0  0  0  0  0  0  0 
  1 14  1  0  0  0  0 
  1 13  1  0  0  0  0 
  2 18  1  0  0  0  0 
  2 16  1  0  0  0  0 
  3 19  1  0  0  0  0 
  4  5  1  0  0  0  0 
  4 22  1  0  0  0  0 
  5 24  1  0  0  0  0 
  5  8  1  0  0  0  0 
  6 27  1  0  0  0  0 
  6  4  1  0  0  0  0 
  7 28  1  0  0  0  0 
  7 10  1  0  0  0  0 
  8  1  1  0  0  0  0 
  8  2  1  0  0  0  0 
  9 31  1  1  0  0  0 
  9  6  1  0  0  0  0 
  9  3  1  0  0  0  0 
 10 32  1  6  0  0  0 
 10  9  1  0  0  0  0 
 11  7  1  0  0  0  0 
 12 10  1  0  0  0  0 
 15  1  1  0  0  0  0 
 17  2  1  0  0  0  0 
 20  3  1  0  0  0  0 
 21  3  1  0  0  0  0 
 23  4  1  0  0  0  0 
 25  5  1  0  0  0  0 
 26  6  1  0  0  0  0 
 29  7  1  0  0  0  0 
 30  8  1  0  0  0  0 
 33 11  1  0  0  0  0 
 34 12  1  0  0  0  0 
M  END 
>  <HBA> 
2 
 
>  <HBD> 
2 
 
>  <TPSA> 
40.46 
 
>  <cid> 
7887 
 
>  <dipole> 
2.4 
 
>  <excitation_energy_1> 
6.256 
 
>  <excitation_energy_2> 
6.612 
 
>  <excitation_energy_3> 
6.91 
 
>  <excitation_energy_4> 
7.072 
 
>  <homo_energy> 
-6.917 
 
>  <homo_lumo_gap> 
8.577 
 
>  <logP> 
1.802 
 
>  <lumo_energy> 
1.66 
 
>  <melting_point> 
8.02 
 
>  <molecular_refractivity> 
52.51 
 
>  <oscillator_strength_1> 
0.0113 
 
>  <oscillator_strength_2> 
0.0047 
 
>  <oscillator_strength_3> 
0.0159 
 
>  <oscillator_strength_4> 
0.0048 
 
>  <open_babel_can_smiles> 
OC[C@H]([C@@H](CCCC(C)C)C)O 
 
>  <mulliken_charges> 
34 
1   -0.441613 
2   -0.444365 
3   -0.464007 
4   -0.267244 
5   -0.246106 
6   -0.256388 
7   -0.061328 
8   -0.064932 
9   -0.085386 
10   0.1446 
11   -0.636313 
12   -0.646578 
13   0.137388 
14   0.138189 
15   0.138554 
16   0.138019 
17   0.14369 
18   0.13754 
19   0.143528 
20   0.132588 
21   0.169035 
22   0.136716 
23   0.121436 
24   0.125126 
25   0.124188 
26   0.123829 
27   0.151141 
28   0.133009 
29   0.122965 
30   0.117547 
31   0.113473 
32   0.11724 
33   0.400298 
34   0.40416 
 
>  <lowdin_charges> 
34 
1   -0.445876 
2   -0.445816 
3   -0.448107 
4   -0.279742 
5   -0.275393 
6   -0.274466 
7   -0.157627 
8   -0.120163 
9   -0.128902 
10   -0.009396 
11   -0.478192 
12   -0.470273 
13   0.146944 
14   0.145594 
15   0.147128 
16   0.147762 
17   0.14627 
18   0.144923 
19   0.148228 
20   0.141383 
21   0.159803 
22   0.141351 
23   0.134407 
24   0.137574 
25   0.139024 
26   0.140397 
27   0.150636 
28   0.137254 
29   0.132057 
30   0.133262 
31   0.135173 
32   0.129922 
33   0.34973 
34   0.345134 
 
$$$$ 
 
