PCCDB-ID:  41648 
public computational chemistry database (PCCDB) project, http://pccdb.org 
 
 32 32  0  0  0  0  0  0  0  0999 V2000 
    3.5202   -2.0250    0.9603 C   0  0  0  0  0  0  0  0  0  0  0  0 
    3.4209   -0.6972   -1.1860 C   0  0  0  0  0  0  0  0  0  0  0  0 
    1.2840   -1.3412   -0.0049 C   0  0  0  0  0  0  0  0  0  0  0  0 
    3.4375    6.2691    3.0441 C   0  0  0  0  0  0  0  0  0  0  0  0 
    4.5150    6.8123    0.8987 C   0  0  0  0  0  0  0  0  0  0  0  0 
    3.3532    1.5769    0.7455 C   0  0  0  0  0  0  0  0  0  0  0  0 
    2.8121    0.3582    0.9838 C   0  0  0  0  0  0  0  0  0  0  0  0 
    3.0642    2.4054    1.8975 C   0  0  0  0  0  0  0  0  0  0  0  0 
    3.8190    4.5078    1.3006 C   0  0  0  0  0  0  0  0  0  0  0  0 
    2.7605   -0.9212    0.1862 C   0  0  0  0  0  0  0  0  0  0  0  0 
    3.1995    3.6525    2.2223 N   0  0  0  0  0  0  0  0  0  0  0  0 
    2.5052    1.5303    2.8413 N   0  0  0  0  0  0  0  0  0  0  0  0 
    3.9017    5.8097    1.7484 N   0  0  0  0  0  0  0  0  0  0  0  0 
    4.2552    4.1796    0.1915 O   0  0  0  0  0  0  0  0  0  0  0  0 
    2.2104    0.2970    2.2086 O   0  0  0  0  0  0  0  0  0  0  0  0 
    3.4911   -2.9618    0.3924 H   0  0  0  0  0  0  0  0  0  0  0  0 
    3.0704   -2.2037    1.9416 H   0  0  0  0  0  0  0  0  0  0  0  0 
    4.5696   -1.7488    1.1103 H   0  0  0  0  0  0  0  0  0  0  0  0 
    3.3815   -1.6238   -1.7685 H   0  0  0  0  0  0  0  0  0  0  0  0 
    4.4722   -0.4078   -1.0828 H   0  0  0  0  0  0  0  0  0  0  0  0 
    2.9061    0.0834   -1.7563 H   0  0  0  0  0  0  0  0  0  0  0  0 
    1.2357   -2.2701   -0.5842 H   0  0  0  0  0  0  0  0  0  0  0  0 
    0.7224   -0.5723   -0.5469 H   0  0  0  0  0  0  0  0  0  0  0  0 
    0.7899   -1.5120    0.9565 H   0  0  0  0  0  0  0  0  0  0  0  0 
    2.6697    7.0478    2.9251 H   0  0  0  0  0  0  0  0  0  0  0  0 
    4.2689    6.7036    3.6184 H   0  0  0  0  0  0  0  0  0  0  0  0 
    3.0188    5.4310    3.5957 H   0  0  0  0  0  0  0  0  0  0  0  0 
    3.8118    7.6342    0.7029 H   0  0  0  0  0  0  0  0  0  0  0  0 
    4.8001    6.3445   -0.0422 H   0  0  0  0  0  0  0  0  0  0  0  0 
    5.4074    7.2380    1.3799 H   0  0  0  0  0  0  0  0  0  0  0  0 
    3.8674    1.9259   -0.1317 H   0  0  0  0  0  0  0  0  0  0  0  0 
    1.6864    1.8373    3.3575 H   0  0  0  0  0  0  0  0  0  0  0  0 
  1 18  1  0  0  0  0 
  1 17  1  0  0  0  0 
  2 20  1  0  0  0  0 
  2 10  1  0  0  0  0 
  3 10  1  0  0  0  0 
  3 24  1  0  0  0  0 
  4 27  1  0  0  0  0 
  4 26  1  0  0  0  0 
  5 30  1  0  0  0  0 
  5 13  1  0  0  0  0 
  6  7  2  0  0  0  0 
  6  8  1  0  0  0  0 
  7 15  1  0  0  0  0 
  8 11  2  0  0  0  0 
  8 12  1  0  0  0  0 
  9 13  1  0  0  0  0 
  9 11  1  0  0  0  0 
 10  1  1  0  0  0  0 
 10  7  1  0  0  0  0 
 12 32  1  0  0  0  0 
 13  4  1  0  0  0  0 
 14  9  2  0  0  0  0 
 15 12  1  0  0  0  0 
 16  1  1  0  0  0  0 
 19  2  1  0  0  0  0 
 21  2  1  0  0  0  0 
 22  3  1  0  0  0  0 
 23  3  1  0  0  0  0 
 25  4  1  0  0  0  0 
 28  5  1  0  0  0  0 
 29  5  1  0  0  0  0 
 31  6  1  0  0  0  0 
M  END 
>  <HBA> 
5 
 
>  <HBD> 
1 
 
>  <TPSA> 
58.37 
 
>  <cid> 
41648 
 
>  <dipole> 
3.05 
 
>  <excitation_energy_1> 
4.056 
 
>  <excitation_energy_2> 
4.361 
 
>  <excitation_energy_3> 
4.745 
 
>  <excitation_energy_4> 
5.292 
 
>  <homo_energy> 
-5.739 
 
>  <homo_lumo_gap> 
4.844 
 
>  <logP> 
2.139 
 
>  <lumo_energy> 
-0.895 
 
>  <melting_point> 
95.43 
 
>  <molecular_refractivity> 
58.18 
 
>  <oscillator_strength_1> 
0.0045 
 
>  <oscillator_strength_2> 
0.2679 
 
>  <oscillator_strength_3> 
0.2444 
 
>  <oscillator_strength_4> 
0.0123 
 
>  <open_babel_can_smiles> 
O=C(N(C)C)/N=c\1/[nH]oc(c1)C(C)(C)C 
 
>  <mulliken_charges> 
32 
1   -0.446027 
2   -0.455391 
3   -0.44914 
4   -0.306846 
5   -0.314647 
6   -0.270462 
7   0.447167 
8   0.52068 
9   0.730473 
10   0.002733 
11   -0.629812 
12   -0.337372 
13   -0.435459 
14   -0.559901 
15   -0.413624 
16   0.149391 
17   0.163511 
18   0.156838 
19   0.149741 
20   0.159718 
21   0.159108 
22   0.150281 
23   0.154139 
24   0.16148 
25   0.139592 
26   0.141349 
27   0.194666 
28   0.141738 
29   0.199761 
30   0.142978 
31   0.199131 
32   0.354205 
 
>  <lowdin_charges> 
32 
1   -0.436246 
2   -0.438763 
3   -0.440668 
4   -0.358195 
5   -0.357404 
6   -0.252559 
7   0.121397 
8   0.11879 
9   0.175725 
10   0.010251 
11   -0.271478 
12   -0.133218 
13   -0.104318 
14   -0.359771 
15   -0.118326 
16   0.153795 
17   0.15893 
18   0.155779 
19   0.155764 
20   0.156821 
21   0.159012 
22   0.154376 
23   0.156734 
24   0.157954 
25   0.14105 
26   0.142782 
27   0.179824 
28   0.1435 
29   0.182328 
30   0.143329 
31   0.206261 
32   0.296542 
 
$$$$ 
 
