PCCDB-ID:  14301 
public computational chemistry database (PCCDB) project, http://pccdb.org 
 
 25 25  0  0  0  0  0  0  0  0999 V2000 
    2.5452   -1.0616    0.0997 C   0  0  0  0  0  0  0  0  0  0  0  0 
    1.1489    4.6961    0.5407 C   0  0  0  0  0  0  0  0  0  0  0  0 
    2.5369    4.2085    0.0950 C   0  0  0  0  0  0  0  0  0  0  0  0 
    0.3394    3.5597    1.1844 C   0  0  0  0  0  0  0  0  0  0  0  0 
    2.4306    2.9938   -0.8389 C   0  0  0  0  0  0  0  0  0  0  0  0 
    0.2375    2.3467    0.2476 C   0  0  0  0  0  0  0  0  0  0  0  0 
    2.7167    0.1130    1.0440 C   0  0  0  0  0  0  0  0  0  0  0  0 
    1.6225    1.8358   -0.2112 C   0  0  0  0  0  0  0  0  0  0  0  0 
    2.3454    1.3155    0.9357 N   0  0  0  0  0  0  0  0  0  0  0  0 
    3.3884   -0.2094    2.1994 O   0  0  0  0  0  0  0  0  0  0  0  0 
    1.9853   -1.8654    0.5944 H   0  0  0  0  0  0  0  0  0  0  0  0 
    3.5256   -1.4645   -0.1849 H   0  0  0  0  0  0  0  0  0  0  0  0 
    2.0132   -0.7918   -0.8130 H   0  0  0  0  0  0  0  0  0  0  0  0 
    0.6012    5.0832   -0.3326 H   0  0  0  0  0  0  0  0  0  0  0  0 
    1.2499    5.5343    1.2422 H   0  0  0  0  0  0  0  0  0  0  0  0 
    3.1236    3.9269    0.9774 H   0  0  0  0  0  0  0  0  0  0  0  0 
    3.0807    5.0179   -0.4094 H   0  0  0  0  0  0  0  0  0  0  0  0 
   -0.6674    3.9103    1.4466 H   0  0  0  0  0  0  0  0  0  0  0  0 
    0.8254    3.2492    2.1170 H   0  0  0  0  0  0  0  0  0  0  0  0 
    3.4292    2.6315   -1.1139 H   0  0  0  0  0  0  0  0  0  0  0  0 
    1.9300    3.2891   -1.7730 H   0  0  0  0  0  0  0  0  0  0  0  0 
   -0.3365    2.6209   -0.6498 H   0  0  0  0  0  0  0  0  0  0  0  0 
   -0.3072    1.5288    0.7361 H   0  0  0  0  0  0  0  0  0  0  0  0 
    1.4594    1.0756   -0.9935 H   0  0  0  0  0  0  0  0  0  0  0  0 
    3.6282   -1.1483    2.1752 H   0  0  0  0  0  0  0  0  0  0  0  0 
  1 11  1  0  0  0  0 
  1  7  1  0  0  0  0 
  2  4  1  0  0  0  0 
  2 15  1  0  0  0  0 
  3  2  1  0  0  0  0 
  3 16  1  0  0  0  0 
  4 18  1  0  0  0  0 
  4 19  1  0  0  0  0 
  5  8  1  0  0  0  0 
  5  3  1  0  0  0  0 
  6 23  1  0  0  0  0 
  6  4  1  0  0  0  0 
  7 10  1  0  0  0  0 
  8  6  1  0  0  0  0 
  8  9  1  0  0  0  0 
  9  7  2  0  0  0  0 
 12  1  1  0  0  0  0 
 13  1  1  0  0  0  0 
 14  2  1  0  0  0  0 
 17  3  1  0  0  0  0 
 20  5  1  0  0  0  0 
 21  5  1  0  0  0  0 
 22  6  1  0  0  0  0 
 24  8  1  0  0  0  0 
 25 10  1  0  0  0  0 
M  END 
>  <HBA> 
2 
 
>  <HBD> 
1 
 
>  <TPSA> 
29.1 
 
>  <cid> 
14301 
 
>  <dipole> 
3.38 
 
>  <excitation_energy_1> 
5.63 
 
>  <excitation_energy_2> 
5.656 
 
>  <excitation_energy_3> 
5.783 
 
>  <excitation_energy_4> 
6.224 
 
>  <homo_energy> 
-6.441 
 
>  <homo_lumo_gap> 
7.227 
 
>  <logP> 
1.846 
 
>  <lumo_energy> 
0.786 
 
>  <melting_point> 
43.26 
 
>  <molecular_refractivity> 
41.46 
 
>  <oscillator_strength_1> 
0.0006 
 
>  <oscillator_strength_2> 
0.0015 
 
>  <oscillator_strength_3> 
0.0016 
 
>  <oscillator_strength_4> 
0.012 
 
>  <open_babel_can_smiles> 
C/C(=N\C1CCCCC1)/O 
 
>  <mulliken_charges> 
25 
1   -0.559692 
2   -0.258705 
3   -0.255034 
4   -0.254576 
5   -0.249684 
6   -0.249841 
7   0.48603 
8   0.001136 
9   -0.399292 
10   -0.581757 
11   0.171935 
12   0.171425 
13   0.184847 
14   0.11851 
15   0.126953 
16   0.155884 
17   0.121533 
18   0.121564 
19   0.155463 
20   0.127431 
21   0.121321 
22   0.12175 
23   0.126606 
24   0.095584 
25   0.400609 
 
>  <lowdin_charges> 
25 
1   -0.485471 
2   -0.278278 
3   -0.281758 
4   -0.279265 
5   -0.279374 
6   -0.281552 
7   0.126022 
8   -0.063904 
9   -0.196201 
10   -0.375772 
11   0.168337 
12   0.166814 
13   0.173103 
14   0.132767 
15   0.142372 
16   0.152709 
17   0.14072 
18   0.138917 
19   0.152034 
20   0.142321 
21   0.137197 
22   0.137761 
23   0.143365 
24   0.11822 
25   0.348919 
 
$$$$ 
 
